[H]C1=C(C(=O)[O-])N2C(=O)/C(=C(\[H])c3sc4c(c3[H])C(=O)OC4([H])[H])[C@@]2([H])S1


 21 24  0  0  0  0  0  0  0  0999 V2000
   22.4797    8.6900   53.6686 C   0  0  0  0  0  0  0  0  0  0  0  0
   22.2979    9.5612   54.6278 C   0  0  0  0  0  0  0  0  0  0  0  0
   23.6888    9.4253   55.7350 S   0  0  0  0  0  0  0  0  0  0  0  0
   24.2790    7.8831   55.0477 C   0  0  0  0  0  0  0  0  0  0  0  0
   23.6463    7.9299   53.7323 N   0  0  0  0  0  0  0  0  0  0  0  0
   24.7056    7.1066   53.2996 C   0  0  0  0  0  0  0  0  0  0  0  0
   24.9711    6.2056   52.4687 O   0  0  0  0  0  0  0  0  0  0  0  0
   25.5247    7.7904   54.3428 C   0  0  0  0  0  0  0  0  0  0  0  0
   26.7898    8.0777   54.4111 C   0  0  0  0  0  0  0  0  0  0  0  0
   27.3223    8.7646   55.5893 C   0  0  0  0  0  0  0  0  0  0  0  0
   27.1155   10.0801   55.9629 C   0  0  0  0  0  0  0  0  0  0  0  0
   27.6714   10.4945   57.1121 C   0  0  0  0  0  0  0  0  0  0  0  0
   27.7478   11.7456   57.9160 C   0  0  0  0  0  0  0  0  0  0  0  0
   27.2187   12.8691   57.6456 O   0  0  0  0  0  0  0  0  0  0  0  0
   28.4997   11.5113   59.0391 O   0  0  0  0  0  0  0  0  0  0  0  0
   28.9589   10.2027   59.0812 C   0  0  0  0  0  0  0  0  0  0  0  0
   28.3978    9.5891   57.8266 C   0  0  0  0  0  0  0  0  0  0  0  0
   28.2882    8.1803   56.8754 S   0  0  0  0  0  0  0  0  0  0  0  0
   20.3254    7.8298   52.7574 O   0  0  0  0  0  0  0  0  0  0  0  0
   21.4726    8.5922   52.6122 C   0  0  0  0  0  0  0  0  0  0  0  0
   21.6301    9.2058   51.5414 O   0  0  0  0  0  0  0  0  0  0  0  0
 19 20  1  0  0  0
 20 21  2  0  0  0
 20  1  1  0  0  0
  1  2  2  0  0  0
  2  3  1  0  0  0
  3  4  1  0  0  0
  4  5  1  0  0  0
  5  6  1  0  0  0
  6  7  2  0  0  0
  6  8  1  0  0  0
  8  9  2  0  0  0
  9 10  1  0  0  0
 10 11  2  0  0  0
 11 12  1  0  0  0
 12 13  1  0  0  0
 13 14  2  0  0  0
 13 15  1  0  0  0
 15 16  1  0  0  0
 16 17  1  0  0  0
 17 18  1  0  0  0
  5  1  1  0  0  0
 18 10  1  0  0  0
  8  4  1  0  0  0
 17 12  2  0  0  0
M  CHG 1  19  -1
M  END
> <minimizedAffinity>
10.39401

> <CNNscore>
0.8247044683

> <CNNaffinity>
5.6513504982

> <CNN_VS>
4.6606941223

> <CNNaffinity_variance>
0.1570860445

$$$$
[H]C1=C(C(=O)[O-])N2C(=O)/C(=C(\[H])c3sc4c(c3[H])C(=O)OC4([H])[H])[C@@]2([H])S1


 21 24  0  0  0  0  0  0  0  0999 V2000
   21.9287    8.6351   53.2281 C   0  0  0  0  0  0  0  0  0  0  0  0
   21.7487    9.6263   54.0630 C   0  0  0  0  0  0  0  0  0  0  0  0
   23.0737    9.5605   55.2541 S   0  0  0  0  0  0  0  0  0  0  0  0
   23.6105    7.9180   54.7927 C   0  0  0  0  0  0  0  0  0  0  0  0
   23.0468    7.8324   53.4481 N   0  0  0  0  0  0  0  0  0  0  0  0
   24.0786    6.9109   53.1779 C   0  0  0  0  0  0  0  0  0  0  0  0
   24.3343    5.9019   52.4783 O   0  0  0  0  0  0  0  0  0  0  0  0
   24.8822    7.6777   54.1745 C   0  0  0  0  0  0  0  0  0  0  0  0
   26.1564    7.9087   54.2776 C   0  0  0  0  0  0  0  0  0  0  0  0
   26.6677    8.7094   55.3917 C   0  0  0  0  0  0  0  0  0  0  0  0
   27.5060    8.2963   56.4112 C   0  0  0  0  0  0  0  0  0  0  0  0
   27.8853    9.2140   57.3143 C   0  0  0  0  0  0  0  0  0  0  0  0
   28.7304    9.2779   58.5386 C   0  0  0  0  0  0  0  0  0  0  0  0
   29.3785    8.3272   59.0784 O   0  0  0  0  0  0  0  0  0  0  0  0
   28.7148   10.5596   59.0273 O   0  0  0  0  0  0  0  0  0  0  0  0
   27.9239   11.3924   58.2488 C   0  0  0  0  0  0  0  0  0  0  0  0
   27.4177   10.4850   57.1600 C   0  0  0  0  0  0  0  0  0  0  0  0
   26.4578   10.3679   55.7576 S   0  0  0  0  0  0  0  0  0  0  0  0
   20.2024    7.3111   52.0123 O   0  0  0  0  0  0  0  0  0  0  0  0
   20.9709    8.4567   52.1369 C   0  0  0  0  0  0  0  0  0  0  0  0
   20.8243    9.3497   51.2832 O   0  0  0  0  0  0  0  0  0  0  0  0
 19 20  1  0  0  0
 20 21  2  0  0  0
 20  1  1  0  0  0
  1  2  2  0  0  0
  2  3  1  0  0  0
  3  4  1  0  0  0
  4  5  1  0  0  0
  5  6  1  0  0  0
  6  7  2  0  0  0
  6  8  1  0  0  0
  8  9  2  0  0  0
  9 10  1  0  0  0
 10 11  2  0  0  0
 11 12  1  0  0  0
 12 13  1  0  0  0
 13 14  2  0  0  0
 13 15  1  0  0  0
 15 16  1  0  0  0
 16 17  1  0  0  0
 17 18  1  0  0  0
  5  1  1  0  0  0
 18 10  1  0  0  0
  8  4  1  0  0  0
 17 12  2  0  0  0
M  CHG 1  19  -1
M  END
> <minimizedAffinity>
8.19786

> <CNNscore>
0.7458566427

> <CNNaffinity>
5.6542210579

> <CNN_VS>
4.2172384262

> <CNNaffinity_variance>
0.1251359582

$$$$
[H]C1=C(C(=O)[O-])N2C(=O)/C(=C(\[H])c3sc4c(c3[H])C(=O)OC4([H])[H])[C@@]2([H])S1


 21 24  0  0  0  0  0  0  0  0999 V2000
   26.9795    9.5198   56.7737 C   0  0  0  0  0  0  0  0  0  0  0  0
   25.8182   10.0001   57.1380 C   0  0  0  0  0  0  0  0  0  0  0  0
   24.6514    9.5914   55.8534 S   0  0  0  0  0  0  0  0  0  0  0  0
   25.8982    9.1165   54.6622 C   0  0  0  0  0  0  0  0  0  0  0  0
   27.0163    8.8370   55.5591 N   0  0  0  0  0  0  0  0  0  0  0  0
   27.4813    7.9666   54.5526 C   0  0  0  0  0  0  0  0  0  0  0  0
   28.5419    7.5026   54.0701 O   0  0  0  0  0  0  0  0  0  0  0  0
   26.0433    7.7631   54.2099 C   0  0  0  0  0  0  0  0  0  0  0  0
   25.3965    6.7474   53.7223 C   0  0  0  0  0  0  0  0  0  0  0  0
   23.9557    6.8441   53.4810 C   0  0  0  0  0  0  0  0  0  0  0  0
   23.2916    7.7794   52.7084 C   0  0  0  0  0  0  0  0  0  0  0  0
   21.9601    7.6566   52.5915 C   0  0  0  0  0  0  0  0  0  0  0  0
   20.8390    8.3650   51.9144 C   0  0  0  0  0  0  0  0  0  0  0  0
   20.9119    9.4028   51.1844 O   0  0  0  0  0  0  0  0  0  0  0  0
   19.6636    7.7166   52.1969 O   0  0  0  0  0  0  0  0  0  0  0  0
   19.8719    6.6192   53.0199 C   0  0  0  0  0  0  0  0  0  0  0  0
   21.3606    6.6193   53.2416 C   0  0  0  0  0  0  0  0  0  0  0  0
   22.6710    5.8407   54.0021 S   0  0  0  0  0  0  0  0  0  0  0  0
   28.7199    8.6671   58.3405 O   0  0  0  0  0  0  0  0  0  0  0  0
   28.1272    9.7171   57.6590 C   0  0  0  0  0  0  0  0  0  0  0  0
   28.6034   10.8553   57.8188 O   0  0  0  0  0  0  0  0  0  0  0  0
 19 20  1  0  0  0
 20 21  2  0  0  0
 20  1  1  0  0  0
  1  2  2  0  0  0
  2  3  1  0  0  0
  3  4  1  0  0  0
  4  5  1  0  0  0
  5  6  1  0  0  0
  6  7  2  0  0  0
  6  8  1  0  0  0
  8  9  2  0  0  0
  9 10  1  0  0  0
 10 11  2  0  0  0
 11 12  1  0  0  0
 12 13  1  0  0  0
 13 14  2  0  0  0
 13 15  1  0  0  0
 15 16  1  0  0  0
 16 17  1  0  0  0
 17 18  1  0  0  0
  5  1  1  0  0  0
 18 10  1  0  0  0
  8  4  1  0  0  0
 17 12  2  0  0  0
M  CHG 1  19  -1
M  END
> <minimizedAffinity>
8.66925

> <CNNscore>
0.6544501185

> <CNNaffinity>
5.3603110313

> <CNN_VS>
3.5080561638

> <CNNaffinity_variance>
0.1561339200

$$$$
[H]C1=C(C(=O)[O-])N2C(=O)/C(=C(\[H])c3sc4c(c3[H])C(=O)OC4([H])[H])[C@@]2([H])S1


 21 24  0  0  0  0  0  0  0  0999 V2000
   21.8148    8.4747   53.0867 C   0  0  0  0  0  0  0  0  0  0  0  0
   21.7465    9.5153   53.8770 C   0  0  0  0  0  0  0  0  0  0  0  0
   23.1154    9.4053   55.0140 S   0  0  0  0  0  0  0  0  0  0  0  0
   23.5075    7.7065   54.6148 C   0  0  0  0  0  0  0  0  0  0  0  0
   22.8790    7.6004   53.3008 N   0  0  0  0  0  0  0  0  0  0  0  0
   23.8265    6.5910   53.0353 C   0  0  0  0  0  0  0  0  0  0  0  0
   23.9748    5.5334   52.3779 O   0  0  0  0  0  0  0  0  0  0  0  0
   24.7287    7.3407   53.9576 C   0  0  0  0  0  0  0  0  0  0  0  0
   26.0200    7.4785   53.9961 C   0  0  0  0  0  0  0  0  0  0  0  0
   26.6389    8.2899   55.0460 C   0  0  0  0  0  0  0  0  0  0  0  0
   27.4708    9.3831   54.8858 C   0  0  0  0  0  0  0  0  0  0  0  0
   27.8963   10.0081   55.9948 C   0  0  0  0  0  0  0  0  0  0  0  0
   28.7603   11.1681   56.3484 C   0  0  0  0  0  0  0  0  0  0  0  0
   29.3789   11.9401   55.5504 O   0  0  0  0  0  0  0  0  0  0  0  0
   28.7999   11.2976   57.7135 O   0  0  0  0  0  0  0  0  0  0  0  0
   28.0405   10.3202   58.3404 C   0  0  0  0  0  0  0  0  0  0  0  0
   27.4771    9.5205   57.1966 C   0  0  0  0  0  0  0  0  0  0  0  0
   26.4992    8.1994   56.7492 S   0  0  0  0  0  0  0  0  0  0  0  0
   19.9652    7.2129   51.9919 O   0  0  0  0  0  0  0  0  0  0  0  0
   20.7982    8.3182   52.0466 C   0  0  0  0  0  0  0  0  0  0  0  0
   20.6586    9.1939   51.1739 O   0  0  0  0  0  0  0  0  0  0  0  0
 19 20  1  0  0  0
 20 21  2  0  0  0
 20  1  1  0  0  0
  1  2  2  0  0  0
  2  3  1  0  0  0
  3  4  1  0  0  0
  4  5  1  0  0  0
  5  6  1  0  0  0
  6  7  2  0  0  0
  6  8  1  0  0  0
  8  9  2  0  0  0
  9 10  1  0  0  0
 10 11  2  0  0  0
 11 12  1  0  0  0
 12 13  1  0  0  0
 13 14  2  0  0  0
 13 15  1  0  0  0
 15 16  1  0  0  0
 16 17  1  0  0  0
 17 18  1  0  0  0
  5  1  1  0  0  0
 18 10  1  0  0  0
  8  4  1  0  0  0
 17 12  2  0  0  0
M  CHG 1  19  -1
M  END
> <minimizedAffinity>
14.30082

> <CNNscore>
0.6130178571

> <CNNaffinity>
5.6610102654

> <CNN_VS>
3.4703004360

> <CNNaffinity_variance>
0.1238645539

$$$$
[H]C1=C(C(=O)[O-])N2C(=O)/C(=C(\[H])c3sc4c(c3[H])C(=O)OC4([H])[H])[C@@]2([H])S1


 21 24  0  0  0  0  0  0  0  0999 V2000
   21.1698   10.9963   51.5376 C   0  0  0  0  0  0  0  0  0  0  0  0
   21.8048   11.9624   52.1501 C   0  0  0  0  0  0  0  0  0  0  0  0
   22.7675   11.2184   53.4533 S   0  0  0  0  0  0  0  0  0  0  0  0
   21.9450    9.6327   53.3625 C   0  0  0  0  0  0  0  0  0  0  0  0
   21.3976    9.7050   52.0105 N   0  0  0  0  0  0  0  0  0  0  0  0
   21.4472    8.2963   52.0183 C   0  0  0  0  0  0  0  0  0  0  0  0
   20.8617    7.2916   51.5486 O   0  0  0  0  0  0  0  0  0  0  0  0
   22.6228    8.4469   52.9250 C   0  0  0  0  0  0  0  0  0  0  0  0
   23.6866    7.7229   53.1041 C   0  0  0  0  0  0  0  0  0  0  0  0
   24.6896    8.1266   54.0913 C   0  0  0  0  0  0  0  0  0  0  0  0
   26.0657    8.0709   53.9656 C   0  0  0  0  0  0  0  0  0  0  0  0
   26.8025    8.5340   54.9874 C   0  0  0  0  0  0  0  0  0  0  0  0
   28.2429    8.6885   55.3320 C   0  0  0  0  0  0  0  0  0  0  0  0
   29.2447    8.3648   54.6201 O   0  0  0  0  0  0  0  0  0  0  0  0
   28.3475    9.2536   56.5776 O   0  0  0  0  0  0  0  0  0  0  0  0
   27.0996    9.4996   57.1321 C   0  0  0  0  0  0  0  0  0  0  0  0
   26.1409    9.0258   56.0730 C   0  0  0  0  0  0  0  0  0  0  0  0
   24.5050    8.8283   55.6412 S   0  0  0  0  0  0  0  0  0  0  0  0
   20.4227   12.5260   49.7174 O   0  0  0  0  0  0  0  0  0  0  0  0
   20.2976   11.3349   50.4131 C   0  0  0  0  0  0  0  0  0  0  0  0
   19.4093   10.5423   50.0519 O   0  0  0  0  0  0  0  0  0  0  0  0
 19 20  1  0  0  0
 20 21  2  0  0  0
 20  1  1  0  0  0
  1  2  2  0  0  0
  2  3  1  0  0  0
  3  4  1  0  0  0
  4  5  1  0  0  0
  5  6  1  0  0  0
  6  7  2  0  0  0
  6  8  1  0  0  0
  8  9  2  0  0  0
  9 10  1  0  0  0
 10 11  2  0  0  0
 11 12  1  0  0  0
 12 13  1  0  0  0
 13 14  2  0  0  0
 13 15  1  0  0  0
 15 16  1  0  0  0
 16 17  1  0  0  0
 17 18  1  0  0  0
  5  1  1  0  0  0
 18 10  1  0  0  0
  8  4  1  0  0  0
 17 12  2  0  0  0
M  CHG 1  19  -1
M  END
> <minimizedAffinity>
19.20675

> <CNNscore>
0.5703168511

> <CNNaffinity>
5.3851046562

> <CNN_VS>
3.0712158680

> <CNNaffinity_variance>
0.1371186078

$$$$
[H]C1=C(C(=O)[O-])N2C(=O)/C(=C(\[H])c3sc4c(c3[H])C(=O)OC4([H])[H])[C@@]2([H])S1


 21 24  0  0  0  0  0  0  0  0999 V2000
   23.7798    7.0020   54.3596 C   0  0  0  0  0  0  0  0  0  0  0  0
   23.3790    6.7728   53.1354 C   0  0  0  0  0  0  0  0  0  0  0  0
   24.4095    7.7440   52.0520 S   0  0  0  0  0  0  0  0  0  0  0  0
   25.1019    8.7470   53.3610 C   0  0  0  0  0  0  0  0  0  0  0  0
   24.8535    7.8783   54.5083 N   0  0  0  0  0  0  0  0  0  0  0  0
   25.9565    8.5176   55.1096 C   0  0  0  0  0  0  0  0  0  0  0  0
   26.4018    8.8564   56.2321 O   0  0  0  0  0  0  0  0  0  0  0  0
   26.4876    8.6750   53.7240 C   0  0  0  0  0  0  0  0  0  0  0  0
   27.6970    8.7135   53.2509 C   0  0  0  0  0  0  0  0  0  0  0  0
   27.9159    8.8877   51.8138 C   0  0  0  0  0  0  0  0  0  0  0  0
   27.9223   10.0722   51.0999 C   0  0  0  0  0  0  0  0  0  0  0  0
   28.1856   10.0043   49.7855 C   0  0  0  0  0  0  0  0  0  0  0  0
   28.3031   10.9375   48.6311 C   0  0  0  0  0  0  0  0  0  0  0  0
   28.1574   12.2000   48.6426 O   0  0  0  0  0  0  0  0  0  0  0  0
   28.6042   10.2183   47.5025 O   0  0  0  0  0  0  0  0  0  0  0  0
   28.6998    8.8609   47.7734 C   0  0  0  0  0  0  0  0  0  0  0  0
   28.4281    8.7740   49.2512 C   0  0  0  0  0  0  0  0  0  0  0  0
   28.2812    7.7406   50.5975 S   0  0  0  0  0  0  0  0  0  0  0  0
   23.6618    5.2497   56.1279 O   0  0  0  0  0  0  0  0  0  0  0  0
   23.0950    6.3219   55.4589 C   0  0  0  0  0  0  0  0  0  0  0  0
   21.9676    6.7025   55.8223 O   0  0  0  0  0  0  0  0  0  0  0  0
 19 20  1  0  0  0
 20 21  2  0  0  0
 20  1  1  0  0  0
  1  2  2  0  0  0
  2  3  1  0  0  0
  3  4  1  0  0  0
  4  5  1  0  0  0
  5  6  1  0  0  0
  6  7  2  0  0  0
  6  8  1  0  0  0
  8  9  2  0  0  0
  9 10  1  0  0  0
 10 11  2  0  0  0
 11 12  1  0  0  0
 12 13  1  0  0  0
 13 14  2  0  0  0
 13 15  1  0  0  0
 15 16  1  0  0  0
 16 17  1  0  0  0
 17 18  1  0  0  0
  5  1  1  0  0  0
 18 10  1  0  0  0
  8  4  1  0  0  0
 17 12  2  0  0  0
M  CHG 1  19  -1
M  END
> <minimizedAffinity>
29.57693

> <CNNscore>
0.5673539639

> <CNNaffinity>
5.1096963882

> <CNN_VS>
2.8990066051

> <CNNaffinity_variance>
0.0514511056

$$$$
[H]C1=C(C(=O)[O-])N2C(=O)/C(=C(\[H])c3sc4c(c3[H])C(=O)OC4([H])[H])[C@@]2([H])S1


 21 24  0  0  0  0  0  0  0  0999 V2000
   21.0583    8.4160   52.4046 C   0  0  0  0  0  0  0  0  0  0  0  0
   21.4929    9.6501   52.3984 C   0  0  0  0  0  0  0  0  0  0  0  0
   22.9248    9.7109   53.4589 S   0  0  0  0  0  0  0  0  0  0  0  0
   22.6360    8.1066   54.1950 C   0  0  0  0  0  0  0  0  0  0  0  0
   21.7816    7.5062   53.1740 N   0  0  0  0  0  0  0  0  0  0  0  0
   22.2641    6.2652   53.6367 C   0  0  0  0  0  0  0  0  0  0  0  0
   21.9217    5.0655   53.7639 O   0  0  0  0  0  0  0  0  0  0  0  0
   23.5191    6.9978   53.9758 C   0  0  0  0  0  0  0  0  0  0  0  0
   24.7643    6.6290   54.0093 C   0  0  0  0  0  0  0  0  0  0  0  0
   25.8020    7.5877   54.3936 C   0  0  0  0  0  0  0  0  0  0  0  0
   26.2114    7.9188   55.6725 C   0  0  0  0  0  0  0  0  0  0  0  0
   27.2157    8.8007   55.7949 C   0  0  0  0  0  0  0  0  0  0  0  0
   27.9850    9.4565   56.8881 C   0  0  0  0  0  0  0  0  0  0  0  0
   27.8338    9.2973   58.1399 O   0  0  0  0  0  0  0  0  0  0  0  0
   28.9221   10.2932   56.3370 O   0  0  0  0  0  0  0  0  0  0  0  0
   28.8651   10.2797   54.9508 C   0  0  0  0  0  0  0  0  0  0  0  0
   27.7589    9.3043   54.6506 C   0  0  0  0  0  0  0  0  0  0  0  0
   26.8527    8.5349   53.4305 S   0  0  0  0  0  0  0  0  0  0  0  0
   19.7698    8.4413   50.2714 O   0  0  0  0  0  0  0  0  0  0  0  0
   19.8783    8.0857   51.6057 C   0  0  0  0  0  0  0  0  0  0  0  0
   18.9306    7.4650   52.1199 O   0  0  0  0  0  0  0  0  0  0  0  0
 19 20  1  0  0  0
 20 21  2  0  0  0
 20  1  1  0  0  0
  1  2  2  0  0  0
  2  3  1  0  0  0
  3  4  1  0  0  0
  4  5  1  0  0  0
  5  6  1  0  0  0
  6  7  2  0  0  0
  6  8  1  0  0  0
  8  9  2  0  0  0
  9 10  1  0  0  0
 10 11  2  0  0  0
 11 12  1  0  0  0
 12 13  1  0  0  0
 13 14  2  0  0  0
 13 15  1  0  0  0
 15 16  1  0  0  0
 16 17  1  0  0  0
 17 18  1  0  0  0
  5  1  1  0  0  0
 18 10  1  0  0  0
  8  4  1  0  0  0
 17 12  2  0  0  0
M  CHG 1  19  -1
M  END
> <minimizedAffinity>
12.52647

> <CNNscore>
0.5560787916

> <CNNaffinity>
5.4910202026

> <CNN_VS>
3.0534398556

> <CNNaffinity_variance>
0.1605893224

$$$$
[H]C1=C(C(=O)[O-])N2C(=O)/C(=C(\[H])c3sc4c(c3[H])C(=O)OC4([H])[H])[C@@]2([H])S1


 21 24  0  0  0  0  0  0  0  0999 V2000
   27.1673    9.2809   56.8495 C   0  0  0  0  0  0  0  0  0  0  0  0
   26.0412    9.8394   57.2125 C   0  0  0  0  0  0  0  0  0  0  0  0
   24.8883    9.6243   55.8697 S   0  0  0  0  0  0  0  0  0  0  0  0
   26.1287    9.1179   54.6849 C   0  0  0  0  0  0  0  0  0  0  0  0
   27.1858    8.6793   55.5923 N   0  0  0  0  0  0  0  0  0  0  0  0
   27.6066    7.8387   54.5419 C   0  0  0  0  0  0  0  0  0  0  0  0
   28.6380    7.3132   54.0593 O   0  0  0  0  0  0  0  0  0  0  0  0
   26.1690    7.7898   54.1448 C   0  0  0  0  0  0  0  0  0  0  0  0
   25.4521    6.8715   53.5699 C   0  0  0  0  0  0  0  0  0  0  0  0
   24.0348    7.1144   53.2944 C   0  0  0  0  0  0  0  0  0  0  0  0
   22.9798    6.2376   53.4706 C   0  0  0  0  0  0  0  0  0  0  0  0
   21.7460    6.6852   53.1897 C   0  0  0  0  0  0  0  0  0  0  0  0
   20.3503    6.1667   53.2080 C   0  0  0  0  0  0  0  0  0  0  0  0
   19.9641    5.0047   53.5482 O   0  0  0  0  0  0  0  0  0  0  0  0
   19.4988    7.1576   52.7898 O   0  0  0  0  0  0  0  0  0  0  0  0
   20.1860    8.3212   52.4754 C   0  0  0  0  0  0  0  0  0  0  0  0
   21.6232    7.9704   52.7525 C   0  0  0  0  0  0  0  0  0  0  0  0
   23.2345    8.5229   52.7429 S   0  0  0  0  0  0  0  0  0  0  0  0
   29.2578    8.3173   57.8050 O   0  0  0  0  0  0  0  0  0  0  0  0
   28.2964    9.3141   57.7790 C   0  0  0  0  0  0  0  0  0  0  0  0
   28.4178   10.2587   58.5795 O   0  0  0  0  0  0  0  0  0  0  0  0
 19 20  1  0  0  0
 20 21  2  0  0  0
 20  1  1  0  0  0
  1  2  2  0  0  0
  2  3  1  0  0  0
  3  4  1  0  0  0
  4  5  1  0  0  0
  5  6  1  0  0  0
  6  7  2  0  0  0
  6  8  1  0  0  0
  8  9  2  0  0  0
  9 10  1  0  0  0
 10 11  2  0  0  0
 11 12  1  0  0  0
 12 13  1  0  0  0
 13 14  2  0  0  0
 13 15  1  0  0  0
 15 16  1  0  0  0
 16 17  1  0  0  0
 17 18  1  0  0  0
  5  1  1  0  0  0
 18 10  1  0  0  0
  8  4  1  0  0  0
 17 12  2  0  0  0
M  CHG 1  19  -1
M  END
> <minimizedAffinity>
13.24996

> <CNNscore>
0.5425797105

> <CNNaffinity>
5.3732528687

> <CNN_VS>
2.9154179096

> <CNNaffinity_variance>
0.1444770396

$$$$
[H]C1=C(C(=O)[O-])N2C(=O)/C(=C(\[H])c3sc4c(c3[H])C(=O)OC4([H])[H])[C@@]2([H])S1


 21 24  0  0  0  0  0  0  0  0999 V2000
   21.8810    9.0227   54.5203 C   0  0  0  0  0  0  0  0  0  0  0  0
   20.5828    9.1634   54.6027 C   0  0  0  0  0  0  0  0  0  0  0  0
   19.8470    7.7355   53.8290 S   0  0  0  0  0  0  0  0  0  0  0  0
   21.3635    7.1827   53.0585 C   0  0  0  0  0  0  0  0  0  0  0  0
   22.3424    7.8609   53.9038 N   0  0  0  0  0  0  0  0  0  0  0  0
   23.2278    6.8245   53.5449 C   0  0  0  0  0  0  0  0  0  0  0  0
   24.4471    6.5959   53.3607 O   0  0  0  0  0  0  0  0  0  0  0  0
   22.0133    5.9635   53.4439 C   0  0  0  0  0  0  0  0  0  0  0  0
   21.8226    4.6944   53.6458 C   0  0  0  0  0  0  0  0  0  0  0  0
   20.4911    4.1149   53.4588 C   0  0  0  0  0  0  0  0  0  0  0  0
   19.3205    4.4669   54.1058 C   0  0  0  0  0  0  0  0  0  0  0  0
   18.1962    3.8269   53.7484 C   0  0  0  0  0  0  0  0  0  0  0  0
   16.7544    3.8322   54.1203 C   0  0  0  0  0  0  0  0  0  0  0  0
   16.1863    4.5595   54.9941 O   0  0  0  0  0  0  0  0  0  0  0  0
   16.0915    2.9045   53.3574 O   0  0  0  0  0  0  0  0  0  0  0  0
   16.9530    2.2489   52.4895 C   0  0  0  0  0  0  0  0  0  0  0  0
   18.2903    2.8782   52.7741 C   0  0  0  0  0  0  0  0  0  0  0  0
   19.9476    2.9017   52.3812 S   0  0  0  0  0  0  0  0  0  0  0  0
   22.5966   11.4003   54.7358 O   0  0  0  0  0  0  0  0  0  0  0  0
   22.7351   10.0673   55.0853 C   0  0  0  0  0  0  0  0  0  0  0  0
   23.6198    9.7720   55.9088 O   0  0  0  0  0  0  0  0  0  0  0  0
 19 20  1  0  0  0
 20 21  2  0  0  0
 20  1  1  0  0  0
  1  2  2  0  0  0
  2  3  1  0  0  0
  3  4  1  0  0  0
  4  5  1  0  0  0
  5  6  1  0  0  0
  6  7  2  0  0  0
  6  8  1  0  0  0
  8  9  2  0  0  0
  9 10  1  0  0  0
 10 11  2  0  0  0
 11 12  1  0  0  0
 12 13  1  0  0  0
 13 14  2  0  0  0
 13 15  1  0  0  0
 15 16  1  0  0  0
 16 17  1  0  0  0
 17 18  1  0  0  0
  5  1  1  0  0  0
 18 10  1  0  0  0
  8  4  1  0  0  0
 17 12  2  0  0  0
M  CHG 1  19  -1
M  END
> <minimizedAffinity>
22.77327

> <CNNscore>
0.5286061764

> <CNNaffinity>
5.8216280937

> <CNN_VS>
3.0773484707

> <CNNaffinity_variance>
0.3754384518

$$$$
[H]c1nc(N2C([H])([H])[C@@]3([H])N(C([H])([H])[H])C([H])([H])[C@@]2([H])C3([H])[H])c([H])c([H])c1-c1c([H])c([H])c2c(c1[H])c([H])c(C(=O)N([H])[H])n2[H]


 29 33  0  0  0  0  0  0  0  0999 V2000
   25.6821    8.8546   55.4504 C   0  0  0  0  0  0  0  0  0  0  0  0
   26.2593    7.8170   54.5340 C   0  0  0  0  0  0  0  0  0  0  0  0
   25.3701    7.0906   53.5687 C   0  0  0  0  0  0  0  0  0  0  0  0
   23.9036    7.4020   53.5199 C   0  0  0  0  0  0  0  0  0  0  0  0
   22.7885    6.8535   52.6799 N   0  0  0  0  0  0  0  0  0  0  0  0
   21.5221    7.5523   53.0772 C   0  0  0  0  0  0  0  0  0  0  0  0
   21.8545    8.5326   54.1628 C   0  0  0  0  0  0  0  0  0  0  0  0
   23.3264    8.4398   54.4364 C   0  0  0  0  0  0  0  0  0  0  0  0
   24.2156    9.1661   55.4016 C   0  0  0  0  0  0  0  0  0  0  0  0
   22.9172    5.7926   51.6273 H   0  0  0  0  0  0  0  0  0  0  0  0
   28.3498   11.0336   58.3463 C   0  0  0  0  0  0  0  0  0  0  0  0
   27.3245   11.7909   57.5556 C   0  0  0  0  0  0  0  0  0  0  0  0
   26.4352   11.0645   56.5903 C   0  0  0  0  0  0  0  0  0  0  0  0
   26.5713    9.5810   56.4157 C   0  0  0  0  0  0  0  0  0  0  0  0
   27.5966    8.8237   57.2064 C   0  0  0  0  0  0  0  0  0  0  0  0
   28.4859    9.5500   58.1717 N   0  0  0  0  0  0  0  0  0  0  0  0
   31.7783   14.4201   62.2588 C   0  0  0  0  0  0  0  0  0  0  0  0
   30.8890   13.6939   61.2934 N   0  0  0  0  0  0  0  0  0  0  0  0
   29.7352   14.2867   60.5402 C   0  0  0  0  0  0  0  0  0  0  0  0
   29.1306   13.2065   59.6931 C   0  0  0  0  0  0  0  0  0  0  0  0
   29.9106   11.9460   59.9229 C   0  0  0  0  0  0  0  0  0  0  0  0
   30.9974   12.2473   60.9119 C   0  0  0  0  0  0  0  0  0  0  0  0
   30.3927   11.1670   60.0648 C   0  0  0  0  0  0  0  0  0  0  0  0
   29.2390   11.7598   59.3116 N   0  0  0  0  0  0  0  0  0  0  0  0
   20.1620    7.3127   52.4918 C   0  0  0  0  0  0  0  0  0  0  0  0
   19.8723    7.7185   51.0771 N   0  0  0  0  0  0  0  0  0  0  0  0
   19.0915    6.6674   53.3210 O   0  0  0  0  0  0  0  0  0  0  0  0
   18.5121    7.4790   50.4917 H   0  0  0  0  0  0  0  0  0  0  0  0
   20.9426    8.3639   50.2478 H   0  0  0  0  0  0  0  0  0  0  0  0
 17 18  1  0  0  0
 18 19  1  0  0  0
 19 20  1  0  0  0
 20 21  1  0  0  0
 21 22  1  0  0  0
 22 23  1  0  0  0
 23 24  1  0  0  0
 24 11  1  0  0  0
 11 12  2  0  0  0
 12 13  1  0  0  0
 13 14  2  0  0  0
 14 15  1  0  0  0
 15 16  2  0  0  0
 14  1  1  0  0  0
  1  2  2  0  0  0
  2  3  1  0  0  0
  3  4  2  0  0  0
  4  5  1  0  0  0
  5  6  1  0  0  0
  6  7  2  0  0  0
  7  8  1  0  0  0
  8  9  2  0  0  0
  6 25  1  0  0  0
 25 26  1  0  0  0
 25 27  2  0  0  0
 22 18  1  0  0  0
 16 11  1  0  0  0
  9  1  1  0  0  0
 24 20  1  0  0  0
  8  4  1  0  0  0
  5 10  1  0  0  0
 26 28  1  0  0  0
 26 29  1  0  0  0
M  END
> <minimizedAffinity>
13.72819

> <CNNscore>
0.6848081350

> <CNNaffinity>
6.0568075180

> <CNN_VS>
4.1477508545

> <CNNaffinity_variance>
0.4618816972

$$$$
[H]c1nc(N2C([H])([H])[C@@]3([H])N(C([H])([H])[H])C([H])([H])[C@@]2([H])C3([H])[H])c([H])c([H])c1-c1c([H])c([H])c2c(c1[H])c([H])c(C(=O)N([H])[H])n2[H]


 29 33  0  0  0  0  0  0  0  0999 V2000
   26.4871    9.5725   56.1164 C   0  0  0  0  0  0  0  0  0  0  0  0
   27.3047    8.5692   55.3584 C   0  0  0  0  0  0  0  0  0  0  0  0
   26.6300    7.5841   54.4503 C   0  0  0  0  0  0  0  0  0  0  0  0
   25.1376    7.6025   54.3003 C   0  0  0  0  0  0  0  0  0  0  0  0
   24.2003    6.7617   53.4851 N   0  0  0  0  0  0  0  0  0  0  0  0
   22.8035    7.2455   53.7394 C   0  0  0  0  0  0  0  0  0  0  0  0
   22.8774    8.3852   54.7118 C   0  0  0  0  0  0  0  0  0  0  0  0
   24.3200    8.6059   55.0584 C   0  0  0  0  0  0  0  0  0  0  0  0
   24.9947    9.5909   55.9665 C   0  0  0  0  0  0  0  0  0  0  0  0
   24.5913    5.6350   52.5754 H   0  0  0  0  0  0  0  0  0  0  0  0
   28.5112   12.5274   58.8407 C   0  0  0  0  0  0  0  0  0  0  0  0
   27.4913   12.9997   57.8474 C   0  0  0  0  0  0  0  0  0  0  0  0
   26.8166   12.0147   56.9393 C   0  0  0  0  0  0  0  0  0  0  0  0
   27.1618   10.5575   57.0245 C   0  0  0  0  0  0  0  0  0  0  0  0
   28.1817   10.0852   58.0178 C   0  0  0  0  0  0  0  0  0  0  0  0
   28.8565   11.0701   58.9259 N   0  0  0  0  0  0  0  0  0  0  0  0
   31.2412   16.9235   62.2688 C   0  0  0  0  0  0  0  0  0  0  0  0
   30.5665   15.9386   61.3607 N   0  0  0  0  0  0  0  0  0  0  0  0
   30.0275   16.2278   59.9911 C   0  0  0  0  0  0  0  0  0  0  0  0
   29.4402   14.9595   59.4467 C   0  0  0  0  0  0  0  0  0  0  0  0
   29.6162   13.8863   60.4799 C   0  0  0  0  0  0  0  0  0  0  0  0
   30.3122   14.4915   61.6628 C   0  0  0  0  0  0  0  0  0  0  0  0
   29.7249   13.2231   61.1184 C   0  0  0  0  0  0  0  0  0  0  0  0
   29.1860   13.5123   59.7488 N   0  0  0  0  0  0  0  0  0  0  0  0
   21.5523    6.6874   53.1286 C   0  0  0  0  0  0  0  0  0  0  0  0
   20.7802    7.4966   52.1291 N   0  0  0  0  0  0  0  0  0  0  0  0
   21.0731    5.3202   53.5173 O   0  0  0  0  0  0  0  0  0  0  0  0
   19.5290    6.9385   51.5183 H   0  0  0  0  0  0  0  0  0  0  0  0
   21.2592    8.8638   51.7403 H   0  0  0  0  0  0  0  0  0  0  0  0
 17 18  1  0  0  0
 18 19  1  0  0  0
 19 20  1  0  0  0
 20 21  1  0  0  0
 21 22  1  0  0  0
 22 23  1  0  0  0
 23 24  1  0  0  0
 24 11  1  0  0  0
 11 12  2  0  0  0
 12 13  1  0  0  0
 13 14  2  0  0  0
 14 15  1  0  0  0
 15 16  2  0  0  0
 14  1  1  0  0  0
  1  2  2  0  0  0
  2  3  1  0  0  0
  3  4  2  0  0  0
  4  5  1  0  0  0
  5  6  1  0  0  0
  6  7  2  0  0  0
  7  8  1  0  0  0
  8  9  2  0  0  0
  6 25  1  0  0  0
 25 26  1  0  0  0
 25 27  2  0  0  0
 22 18  1  0  0  0
 16 11  1  0  0  0
  9  1  1  0  0  0
 24 20  1  0  0  0
  8  4  1  0  0  0
  5 10  1  0  0  0
 26 28  1  0  0  0
 26 29  1  0  0  0
M  END
> <minimizedAffinity>
13.21737

> <CNNscore>
0.6591963172

> <CNNaffinity>
5.9034032822

> <CNN_VS>
3.8915016651

> <CNNaffinity_variance>
0.2970573306

$$$$
[H]c1nc(N2C([H])([H])[C@@]3([H])N(C([H])([H])[H])C([H])([H])[C@@]2([H])C3([H])[H])c([H])c([H])c1-c1c([H])c([H])c2c(c1[H])c([H])c(C(=O)N([H])[H])n2[H]


 29 33  0  0  0  0  0  0  0  0999 V2000
   26.6234    9.9348   56.9535 C   0  0  0  0  0  0  0  0  0  0  0  0
   27.1583   11.3297   57.0870 C   0  0  0  0  0  0  0  0  0  0  0  0
   28.2827   11.6139   58.0384 C   0  0  0  0  0  0  0  0  0  0  0  0
   28.8721   10.5032   58.8562 C   0  0  0  0  0  0  0  0  0  0  0  0
   29.9784   10.4804   59.8689 N   0  0  0  0  0  0  0  0  0  0  0  0
   30.1271    9.0714   60.3612 C   0  0  0  0  0  0  0  0  0  0  0  0
   29.1128    8.2233   59.6528 C   0  0  0  0  0  0  0  0  0  0  0  0
   28.3371    9.1082   58.7226 C   0  0  0  0  0  0  0  0  0  0  0  0
   27.2128    8.8240   57.7713 C   0  0  0  0  0  0  0  0  0  0  0  0
   30.7929   11.6597   60.3115 H   0  0  0  0  0  0  0  0  0  0  0  0
   23.2504    9.0818   54.0994 C   0  0  0  0  0  0  0  0  0  0  0  0
   23.0772   10.1077   55.1799 C   0  0  0  0  0  0  0  0  0  0  0  0
   24.2016   10.3920   56.1313 C   0  0  0  0  0  0  0  0  0  0  0  0
   25.4990    9.6505   56.0021 C   0  0  0  0  0  0  0  0  0  0  0  0
   25.6721    8.6246   54.9216 C   0  0  0  0  0  0  0  0  0  0  0  0
   24.5478    8.3403   53.9703 N   0  0  0  0  0  0  0  0  0  0  0  0
   18.5574    7.4885   50.3621 C   0  0  0  0  0  0  0  0  0  0  0  0
   19.6817    7.7728   51.3135 N   0  0  0  0  0  0  0  0  0  0  0  0
   20.2029    6.8403   52.3665 C   0  0  0  0  0  0  0  0  0  0  0  0
   21.3255    7.5307   53.0827 C   0  0  0  0  0  0  0  0  0  0  0  0
   21.4982    8.8900   52.4723 C   0  0  0  0  0  0  0  0  0  0  0  0
   20.4823    9.0396   51.3789 C   0  0  0  0  0  0  0  0  0  0  0  0
   21.6050    9.7301   52.0951 C   0  0  0  0  0  0  0  0  0  0  0  0
   22.1261    8.7975   53.1481 N   0  0  0  0  0  0  0  0  0  0  0  0
   31.1166    8.5941   61.3826 C   0  0  0  0  0  0  0  0  0  0  0  0
   31.8163    9.5823   62.2679 N   0  0  0  0  0  0  0  0  0  0  0  0
   31.4063    7.1287   61.5187 O   0  0  0  0  0  0  0  0  0  0  0  0
   32.8057    9.1050   63.2894 H   0  0  0  0  0  0  0  0  0  0  0  0
   31.5267   11.0478   62.1319 H   0  0  0  0  0  0  0  0  0  0  0  0
 17 18  1  0  0  0
 18 19  1  0  0  0
 19 20  1  0  0  0
 20 21  1  0  0  0
 21 22  1  0  0  0
 22 23  1  0  0  0
 23 24  1  0  0  0
 24 11  1  0  0  0
 11 12  2  0  0  0
 12 13  1  0  0  0
 13 14  2  0  0  0
 14 15  1  0  0  0
 15 16  2  0  0  0
 14  1  1  0  0  0
  1  2  2  0  0  0
  2  3  1  0  0  0
  3  4  2  0  0  0
  4  5  1  0  0  0
  5  6  1  0  0  0
  6  7  2  0  0  0
  7  8  1  0  0  0
  8  9  2  0  0  0
  6 25  1  0  0  0
 25 26  1  0  0  0
 25 27  2  0  0  0
 22 18  1  0  0  0
 16 11  1  0  0  0
  9  1  1  0  0  0
 24 20  1  0  0  0
  8  4  1  0  0  0
  5 10  1  0  0  0
 26 28  1  0  0  0
 26 29  1  0  0  0
M  END
> <minimizedAffinity>
21.77022

> <CNNscore>
0.6408447027

> <CNNaffinity>
5.8422689438

> <CNN_VS>
3.7439870834

> <CNNaffinity_variance>
0.2856362760

$$$$
[H]c1nc(N2C([H])([H])[C@@]3([H])N(C([H])([H])[H])C([H])([H])[C@@]2([H])C3([H])[H])c([H])c([H])c1-c1c([H])c([H])c2c(c1[H])c([H])c(C(=O)N([H])[H])n2[H]


 29 33  0  0  0  0  0  0  0  0999 V2000
   24.0856    8.0519   54.7157 C   0  0  0  0  0  0  0  0  0  0  0  0
   23.8558    8.6584   53.3633 C   0  0  0  0  0  0  0  0  0  0  0  0
   22.7938    8.1015   52.4621 C   0  0  0  0  0  0  0  0  0  0  0  0
   21.9616    6.9380   52.9134 C   0  0  0  0  0  0  0  0  0  0  0  0
   20.8506    6.1808   52.2485 N   0  0  0  0  0  0  0  0  0  0  0  0
   20.3938    5.1062   53.1901 C   0  0  0  0  0  0  0  0  0  0  0  0
   21.2225    5.1993   54.4369 C   0  0  0  0  0  0  0  0  0  0  0  0
   22.1915    6.3314   54.2659 C   0  0  0  0  0  0  0  0  0  0  0  0
   23.2535    6.8883   55.1670 C   0  0  0  0  0  0  0  0  0  0  0  0
   20.2941    6.4508   50.8820 H   0  0  0  0  0  0  0  0  0  0  0  0
   27.2714    9.7226   57.4193 C   0  0  0  0  0  0  0  0  0  0  0  0
   27.6578    8.9781   56.1757 C   0  0  0  0  0  0  0  0  0  0  0  0
   26.5958    8.4212   55.2745 C   0  0  0  0  0  0  0  0  0  0  0  0
   25.1476    8.6088   55.6169 C   0  0  0  0  0  0  0  0  0  0  0  0
   24.7612    9.3532   56.8604 C   0  0  0  0  0  0  0  0  0  0  0  0
   25.8231    9.9102   57.7616 N   0  0  0  0  0  0  0  0  0  0  0  0
   31.7321   11.5967   61.3078 C   0  0  0  0  0  0  0  0  0  0  0  0
   30.6702   11.0397   60.4066 N   0  0  0  0  0  0  0  0  0  0  0  0
   30.2515    9.6019   60.3209 C   0  0  0  0  0  0  0  0  0  0  0  0
   29.1631    9.4964   59.2942 C   0  0  0  0  0  0  0  0  0  0  0  0
   28.9090   10.8690   58.7454 C   0  0  0  0  0  0  0  0  0  0  0  0
   29.8404   11.8228   59.4328 C   0  0  0  0  0  0  0  0  0  0  0  0
   28.7519   11.7174   58.4061 C   0  0  0  0  0  0  0  0  0  0  0  0
   28.3333   10.2795   58.3205 N   0  0  0  0  0  0  0  0  0  0  0  0
   19.3002    4.1129   52.9304 C   0  0  0  0  0  0  0  0  0  0  0  0
   18.0763    4.1010   53.7976 N   0  0  0  0  0  0  0  0  0  0  0  0
   19.4304    3.1314   51.8036 O   0  0  0  0  0  0  0  0  0  0  0  0
   16.9828    3.1076   53.5379 H   0  0  0  0  0  0  0  0  0  0  0  0
   17.9460    5.0824   54.9244 H   0  0  0  0  0  0  0  0  0  0  0  0
 17 18  1  0  0  0
 18 19  1  0  0  0
 19 20  1  0  0  0
 20 21  1  0  0  0
 21 22  1  0  0  0
 22 23  1  0  0  0
 23 24  1  0  0  0
 24 11  1  0  0  0
 11 12  2  0  0  0
 12 13  1  0  0  0
 13 14  2  0  0  0
 14 15  1  0  0  0
 15 16  2  0  0  0
 14  1  1  0  0  0
  1  2  2  0  0  0
  2  3  1  0  0  0
  3  4  2  0  0  0
  4  5  1  0  0  0
  5  6  1  0  0  0
  6  7  2  0  0  0
  7  8  1  0  0  0
  8  9  2  0  0  0
  6 25  1  0  0  0
 25 26  1  0  0  0
 25 27  2  0  0  0
 22 18  1  0  0  0
 16 11  1  0  0  0
  9  1  1  0  0  0
 24 20  1  0  0  0
  8  4  1  0  0  0
  5 10  1  0  0  0
 26 28  1  0  0  0
 26 29  1  0  0  0
M  END
> <minimizedAffinity>
25.96665

> <CNNscore>
0.6217111349

> <CNNaffinity>
5.9021987915

> <CNN_VS>
3.6694626808

> <CNNaffinity_variance>
0.7758910060

$$$$
[H]c1nc(N2C([H])([H])[C@@]3([H])N(C([H])([H])[H])C([H])([H])[C@@]2([H])C3([H])[H])c([H])c([H])c1-c1c([H])c([H])c2c(c1[H])c([H])c(C(=O)N([H])[H])n2[H]


 29 33  0  0  0  0  0  0  0  0999 V2000
   26.7304    9.8427   56.8425 C   0  0  0  0  0  0  0  0  0  0  0  0
   27.3004   11.2293   56.7969 C   0  0  0  0  0  0  0  0  0  0  0  0
   28.4341   11.6045   57.7049 C   0  0  0  0  0  0  0  0  0  0  0  0
   28.9975   10.5928   58.6583 C   0  0  0  0  0  0  0  0  0  0  0  0
   30.1055   10.6719   59.6663 N   0  0  0  0  0  0  0  0  0  0  0  0
   30.2202    9.3340   60.3348 C   0  0  0  0  0  0  0  0  0  0  0  0
   29.1831    8.4281   59.7401 C   0  0  0  0  0  0  0  0  0  0  0  0
   28.4274    9.2061   58.7039 C   0  0  0  0  0  0  0  0  0  0  0  0
   27.2938    8.8311   57.7960 C   0  0  0  0  0  0  0  0  0  0  0  0
   30.9505   11.8771   59.9550 H   0  0  0  0  0  0  0  0  0  0  0  0
   23.3295    8.7173   54.1189 C   0  0  0  0  0  0  0  0  0  0  0  0
   24.6974    8.1481   53.8852 C   0  0  0  0  0  0  0  0  0  0  0  0
   25.8310    8.5232   54.7931 C   0  0  0  0  0  0  0  0  0  0  0  0
   25.5967    9.4675   55.9346 C   0  0  0  0  0  0  0  0  0  0  0  0
   24.2288   10.0368   56.1684 C   0  0  0  0  0  0  0  0  0  0  0  0
   23.0952    9.6617   55.2606 N   0  0  0  0  0  0  0  0  0  0  0  0
   18.6189    7.6096   50.2312 C   0  0  0  0  0  0  0  0  0  0  0  0
   19.7526    7.9848   51.1390 N   0  0  0  0  0  0  0  0  0  0  0  0
   20.3340    9.3578   51.3025 C   0  0  0  0  0  0  0  0  0  0  0  0
   21.4446    9.2743   52.3073 C   0  0  0  0  0  0  0  0  0  0  0  0
   21.5495    7.8497   52.7649 C   0  0  0  0  0  0  0  0  0  0  0  0
   20.5038    7.0527   52.0429 C   0  0  0  0  0  0  0  0  0  0  0  0
   21.6145    6.9692   53.0477 C   0  0  0  0  0  0  0  0  0  0  0  0
   22.1958    8.3422   53.2111 N   0  0  0  0  0  0  0  0  0  0  0  0
   31.2000    8.9665   61.4095 C   0  0  0  0  0  0  0  0  0  0  0  0
   31.5721    7.5296   61.6257 N   0  0  0  0  0  0  0  0  0  0  0  0
   31.8077   10.0359   62.2680 O   0  0  0  0  0  0  0  0  0  0  0  0
   32.5519    7.1621   62.7005 H   0  0  0  0  0  0  0  0  0  0  0  0
   30.9644    6.4601   60.7673 H   0  0  0  0  0  0  0  0  0  0  0  0
 17 18  1  0  0  0
 18 19  1  0  0  0
 19 20  1  0  0  0
 20 21  1  0  0  0
 21 22  1  0  0  0
 22 23  1  0  0  0
 23 24  1  0  0  0
 24 11  1  0  0  0
 11 12  2  0  0  0
 12 13  1  0  0  0
 13 14  2  0  0  0
 14 15  1  0  0  0
 15 16  2  0  0  0
 14  1  1  0  0  0
  1  2  2  0  0  0
  2  3  1  0  0  0
  3  4  2  0  0  0
  4  5  1  0  0  0
  5  6  1  0  0  0
  6  7  2  0  0  0
  7  8  1  0  0  0
  8  9  2  0  0  0
  6 25  1  0  0  0
 25 26  1  0  0  0
 25 27  2  0  0  0
 22 18  1  0  0  0
 16 11  1  0  0  0
  9  1  1  0  0  0
 24 20  1  0  0  0
  8  4  1  0  0  0
  5 10  1  0  0  0
 26 28  1  0  0  0
 26 29  1  0  0  0
M  END
> <minimizedAffinity>
19.82400

> <CNNscore>
0.6102882624

> <CNNaffinity>
5.6853499413

> <CNN_VS>
3.4697022438

> <CNNaffinity_variance>
0.1626741588

$$$$
[H]c1nc(N2C([H])([H])[C@@]3([H])N(C([H])([H])[H])C([H])([H])[C@@]2([H])C3([H])[H])c([H])c([H])c1-c1c([H])c([H])c2c(c1[H])c([H])c(C(=O)N([H])[H])n2[H]


 29 33  0  0  0  0  0  0  0  0999 V2000
   27.9730   11.0660   58.2906 C   0  0  0  0  0  0  0  0  0  0  0  0
   29.0602   10.2809   58.9624 C   0  0  0  0  0  0  0  0  0  0  0  0
   29.9845   10.9570   59.9313 C   0  0  0  0  0  0  0  0  0  0  0  0
   29.8215   12.4182   60.2283 C   0  0  0  0  0  0  0  0  0  0  0  0
   30.5755   13.3492   61.1309 N   0  0  0  0  0  0  0  0  0  0  0  0
   29.9542   14.7096   61.0169 C   0  0  0  0  0  0  0  0  0  0  0  0
   28.8162   14.6195   60.0438 C   0  0  0  0  0  0  0  0  0  0  0  0
   28.7342   13.2033   59.5564 C   0  0  0  0  0  0  0  0  0  0  0  0
   27.8099   12.5272   58.5876 C   0  0  0  0  0  0  0  0  0  0  0  0
   31.7454   12.9838   61.9957 H   0  0  0  0  0  0  0  0  0  0  0  0
   25.2000    9.0379   55.3841 C   0  0  0  0  0  0  0  0  0  0  0  0
   26.5854    8.5035   55.5964 C   0  0  0  0  0  0  0  0  0  0  0  0
   27.5097    9.1796   56.5653 C   0  0  0  0  0  0  0  0  0  0  0  0
   27.0486   10.3899   57.3217 C   0  0  0  0  0  0  0  0  0  0  0  0
   25.6632   10.9243   57.1095 C   0  0  0  0  0  0  0  0  0  0  0  0
   24.7389   10.2483   56.1407 N   0  0  0  0  0  0  0  0  0  0  0  0
   21.0447    6.5369   51.5099 C   0  0  0  0  0  0  0  0  0  0  0  0
   21.9690    7.2130   52.4788 N   0  0  0  0  0  0  0  0  0  0  0  0
   21.6200    8.3661   53.3722 C   0  0  0  0  0  0  0  0  0  0  0  0
   22.8399    8.7204   54.1699 C   0  0  0  0  0  0  0  0  0  0  0  0
   23.9430    7.7861   53.7694 C   0  0  0  0  0  0  0  0  0  0  0  0
   23.4048    6.8545   52.7242 C   0  0  0  0  0  0  0  0  0  0  0  0
   24.6248    7.2087   53.5218 C   0  0  0  0  0  0  0  0  0  0  0  0
   24.2756    8.3619   54.4153 N   0  0  0  0  0  0  0  0  0  0  0  0
   30.3936   15.9437   61.7477 C   0  0  0  0  0  0  0  0  0  0  0  0
   31.8137   16.0741   62.2130 N   0  0  0  0  0  0  0  0  0  0  0  0
   29.4131   17.0473   62.0133 O   0  0  0  0  0  0  0  0  0  0  0  0
   32.2531   17.3081   62.9438 H   0  0  0  0  0  0  0  0  0  0  0  0
   32.7943   14.9705   61.9475 H   0  0  0  0  0  0  0  0  0  0  0  0
 17 18  1  0  0  0
 18 19  1  0  0  0
 19 20  1  0  0  0
 20 21  1  0  0  0
 21 22  1  0  0  0
 22 23  1  0  0  0
 23 24  1  0  0  0
 24 11  1  0  0  0
 11 12  2  0  0  0
 12 13  1  0  0  0
 13 14  2  0  0  0
 14 15  1  0  0  0
 15 16  2  0  0  0
 14  1  1  0  0  0
  1  2  2  0  0  0
  2  3  1  0  0  0
  3  4  2  0  0  0
  4  5  1  0  0  0
  5  6  1  0  0  0
  6  7  2  0  0  0
  7  8  1  0  0  0
  8  9  2  0  0  0
  6 25  1  0  0  0
 25 26  1  0  0  0
 25 27  2  0  0  0
 22 18  1  0  0  0
 16 11  1  0  0  0
  9  1  1  0  0  0
 24 20  1  0  0  0
  8  4  1  0  0  0
  5 10  1  0  0  0
 26 28  1  0  0  0
 26 29  1  0  0  0
M  END
> <minimizedAffinity>
16.50174

> <CNNscore>
0.6035165787

> <CNNaffinity>
5.3647661209

> <CNN_VS>
3.2377252579

> <CNNaffinity_variance>
0.0905025005

$$$$
[H]c1nc(N2C([H])([H])[C@@]3([H])N(C([H])([H])[H])C([H])([H])[C@@]2([H])C3([H])[H])c([H])c([H])c1-c1c([H])c([H])c2c(c1[H])c([H])c(C(=O)N([H])[H])n2[H]


 29 33  0  0  0  0  0  0  0  0999 V2000
   23.3272    7.9302   54.5806 C   0  0  0  0  0  0  0  0  0  0  0  0
   22.5825    8.8266   53.6364 C   0  0  0  0  0  0  0  0  0  0  0  0
   21.4507    8.2794   52.8180 C   0  0  0  0  0  0  0  0  0  0  0  0
   21.0638    6.8356   52.9440 C   0  0  0  0  0  0  0  0  0  0  0  0
   19.9997    6.0194   52.2720 N   0  0  0  0  0  0  0  0  0  0  0  0
   20.0869    4.6185   52.8009 C   0  0  0  0  0  0  0  0  0  0  0  0
   21.2048    4.5689   53.7998 C   0  0  0  0  0  0  0  0  0  0  0  0
   21.8086    5.9392   53.8883 C   0  0  0  0  0  0  0  0  0  0  0  0
   22.9403    6.4865   54.7066 C   0  0  0  0  0  0  0  0  0  0  0  0
   19.0204    6.5168   51.2504 H   0  0  0  0  0  0  0  0  0  0  0  0
   26.7225    9.5718   57.0357 C   0  0  0  0  0  0  0  0  0  0  0  0
   25.3322   10.0999   57.2307 C   0  0  0  0  0  0  0  0  0  0  0  0
   24.2004    9.5527   56.4123 C   0  0  0  0  0  0  0  0  0  0  0  0
   24.4590    8.4775   55.3990 C   0  0  0  0  0  0  0  0  0  0  0  0
   25.8493    7.9493   55.2040 C   0  0  0  0  0  0  0  0  0  0  0  0
   26.9811    8.4965   56.0223 N   0  0  0  0  0  0  0  0  0  0  0  0
   31.4247   11.4264   60.6386 C   0  0  0  0  0  0  0  0  0  0  0  0
   30.2929   10.8792   59.8203 N   0  0  0  0  0  0  0  0  0  0  0  0
   29.7106    9.5013   59.9308 C   0  0  0  0  0  0  0  0  0  0  0  0
   28.6025    9.3843   58.9266 C   0  0  0  0  0  0  0  0  0  0  0  0
   28.5000   10.6900   58.1954 C   0  0  0  0  0  0  0  0  0  0  0  0
   29.5447   11.6139   58.7477 C   0  0  0  0  0  0  0  0  0  0  0  0
   28.4365   11.4969   57.7434 C   0  0  0  0  0  0  0  0  0  0  0  0
   27.8543   10.1190   57.8540 N   0  0  0  0  0  0  0  0  0  0  0  0
   19.2101    3.4690   52.4012 C   0  0  0  0  0  0  0  0  0  0  0  0
   19.1868    3.0040   50.9753 N   0  0  0  0  0  0  0  0  0  0  0  0
   18.3567    2.7844   53.4273 O   0  0  0  0  0  0  0  0  0  0  0  0
   18.3099    1.8544   50.5756 H   0  0  0  0  0  0  0  0  0  0  0  0
   20.0401    3.6885   49.9491 H   0  0  0  0  0  0  0  0  0  0  0  0
 17 18  1  0  0  0
 18 19  1  0  0  0
 19 20  1  0  0  0
 20 21  1  0  0  0
 21 22  1  0  0  0
 22 23  1  0  0  0
 23 24  1  0  0  0
 24 11  1  0  0  0
 11 12  2  0  0  0
 12 13  1  0  0  0
 13 14  2  0  0  0
 14 15  1  0  0  0
 15 16  2  0  0  0
 14  1  1  0  0  0
  1  2  2  0  0  0
  2  3  1  0  0  0
  3  4  2  0  0  0
  4  5  1  0  0  0
  5  6  1  0  0  0
  6  7  2  0  0  0
  7  8  1  0  0  0
  8  9  2  0  0  0
  6 25  1  0  0  0
 25 26  1  0  0  0
 25 27  2  0  0  0
 22 18  1  0  0  0
 16 11  1  0  0  0
  9  1  1  0  0  0
 24 20  1  0  0  0
  8  4  1  0  0  0
  5 10  1  0  0  0
 26 28  1  0  0  0
 26 29  1  0  0  0
M  END
> <minimizedAffinity>
33.62802

> <CNNscore>
0.5839270949

> <CNNaffinity>
5.7379970551

> <CNN_VS>
3.3505718708

> <CNNaffinity_variance>
0.6913737655

$$$$
[H]c1nc(N2C([H])([H])[C@@]3([H])N(C([H])([H])[H])C([H])([H])[C@@]2([H])C3([H])[H])c([H])c([H])c1-c1c([H])c([H])c2c(c1[H])c([H])c(C(=O)N([H])[H])n2[H]


 29 33  0  0  0  0  0  0  0  0999 V2000
   28.4881   10.0592   51.0302 C   0  0  0  0  0  0  0  0  0  0  0  0
   28.4834   11.3959   50.3498 C   0  0  0  0  0  0  0  0  0  0  0  0
   28.4962   11.4751   48.8519 C   0  0  0  0  0  0  0  0  0  0  0  0
   28.5136   10.2175   48.0345 C   0  0  0  0  0  0  0  0  0  0  0  0
   28.5287    9.9836   46.5530 N   0  0  0  0  0  0  0  0  0  0  0  0
   28.5428    8.5022   46.3178 C   0  0  0  0  0  0  0  0  0  0  0  0
   28.5363    7.8206   47.6540 C   0  0  0  0  0  0  0  0  0  0  0  0
   28.5183    8.8808   48.7150 C   0  0  0  0  0  0  0  0  0  0  0  0
   28.5056    8.8016   50.2129 C   0  0  0  0  0  0  0  0  0  0  0  0
   28.5296   11.0447   45.4928 H   0  0  0  0  0  0  0  0  0  0  0  0
   28.4500    9.8216   55.5238 C   0  0  0  0  0  0  0  0  0  0  0  0
   27.5504    8.9319   54.7181 C   0  0  0  0  0  0  0  0  0  0  0  0
   27.5631    9.0112   53.2202 C   0  0  0  0  0  0  0  0  0  0  0  0
   28.4754    9.9800   52.5281 C   0  0  0  0  0  0  0  0  0  0  0  0
   29.3750   10.8696   53.3338 C   0  0  0  0  0  0  0  0  0  0  0  0
   29.3623   10.7904   54.8317 N   0  0  0  0  0  0  0  0  0  0  0  0
   28.5388    9.9356   61.7295 C   0  0  0  0  0  0  0  0  0  0  0  0
   28.5515   10.0148   60.2316 N   0  0  0  0  0  0  0  0  0  0  0  0
   28.9285   11.2154   59.4153 C   0  0  0  0  0  0  0  0  0  0  0  0
   28.7994   10.8500   57.9662 C   0  0  0  0  0  0  0  0  0  0  0  0
   28.3426    9.4234   57.8870 C   0  0  0  0  0  0  0  0  0  0  0  0
   28.1894    8.9073   59.2870 C   0  0  0  0  0  0  0  0  0  0  0  0
   28.0603    8.5417   57.8379 C   0  0  0  0  0  0  0  0  0  0  0  0
   28.4373    9.7424   57.0217 N   0  0  0  0  0  0  0  0  0  0  0  0
   28.5602    7.8218   44.9811 C   0  0  0  0  0  0  0  0  0  0  0  0
   27.8654    8.4511   43.8101 N   0  0  0  0  0  0  0  0  0  0  0  0
   29.2724    6.5121   44.8154 O   0  0  0  0  0  0  0  0  0  0  0  0
   27.8829    7.7707   42.4734 H   0  0  0  0  0  0  0  0  0  0  0  0
   27.1532    9.7608   43.9757 H   0  0  0  0  0  0  0  0  0  0  0  0
 17 18  1  0  0  0
 18 19  1  0  0  0
 19 20  1  0  0  0
 20 21  1  0  0  0
 21 22  1  0  0  0
 22 23  1  0  0  0
 23 24  1  0  0  0
 24 11  1  0  0  0
 11 12  2  0  0  0
 12 13  1  0  0  0
 13 14  2  0  0  0
 14 15  1  0  0  0
 15 16  2  0  0  0
 14  1  1  0  0  0
  1  2  2  0  0  0
  2  3  1  0  0  0
  3  4  2  0  0  0
  4  5  1  0  0  0
  5  6  1  0  0  0
  6  7  2  0  0  0
  7  8  1  0  0  0
  8  9  2  0  0  0
  6 25  1  0  0  0
 25 26  1  0  0  0
 25 27  2  0  0  0
 22 18  1  0  0  0
 16 11  1  0  0  0
  9  1  1  0  0  0
 24 20  1  0  0  0
  8  4  1  0  0  0
  5 10  1  0  0  0
 26 28  1  0  0  0
 26 29  1  0  0  0
M  END
> <minimizedAffinity>
41.39735

> <CNNscore>
0.5353060961

> <CNNaffinity>
5.6840281487

> <CNN_VS>
3.0426948071

> <CNNaffinity_variance>
0.6358475685

$$$$
[H]c1nc(N2C([H])([H])[C@@]3([H])N(C([H])([H])[H])C([H])([H])[C@@]2([H])C3([H])[H])c([H])c([H])c1-c1c([H])c([H])c2c(c1[H])c([H])c(C(=O)N([H])[H])n2[H]


 29 33  0  0  0  0  0  0  0  0999 V2000
   24.1142    7.8342   54.9128 C   0  0  0  0  0  0  0  0  0  0  0  0
   24.0449    9.0507   55.7875 C   0  0  0  0  0  0  0  0  0  0  0  0
   25.2868    9.8434   56.0696 C   0  0  0  0  0  0  0  0  0  0  0  0
   26.5979    9.4195   55.4769 C   0  0  0  0  0  0  0  0  0  0  0  0
   27.9782    9.9979   55.5766 N   0  0  0  0  0  0  0  0  0  0  0  0
   28.9006    9.1389   54.7635 C   0  0  0  0  0  0  0  0  0  0  0  0
   28.0903    8.0295   54.1613 C   0  0  0  0  0  0  0  0  0  0  0  0
   26.6671    8.2029   54.6021 C   0  0  0  0  0  0  0  0  0  0  0  0
   25.4253    7.4103   54.3201 C   0  0  0  0  0  0  0  0  0  0  0  0
   28.3678   11.2208   56.3532 H   0  0  0  0  0  0  0  0  0  0  0  0
   20.3887    5.4562   54.0667 C   0  0  0  0  0  0  0  0  0  0  0  0
   21.7248    4.9412   53.6199 C   0  0  0  0  0  0  0  0  0  0  0  0
   22.9666    5.7339   53.9019 C   0  0  0  0  0  0  0  0  0  0  0  0
   22.8724    7.0415   54.6308 C   0  0  0  0  0  0  0  0  0  0  0  0
   21.5363    7.5565   55.0776 C   0  0  0  0  0  0  0  0  0  0  0  0
   20.2944    6.7638   54.7955 N   0  0  0  0  0  0  0  0  0  0  0  0
   15.0047    2.5354   53.0605 C   0  0  0  0  0  0  0  0  0  0  0  0
   16.2465    3.3281   53.3426 N   0  0  0  0  0  0  0  0  0  0  0  0
   16.2974    4.7110   53.9215 C   0  0  0  0  0  0  0  0  0  0  0  0
   17.7378    5.1146   54.0319 C   0  0  0  0  0  0  0  0  0  0  0  0
   18.5772    3.9812   53.5213 C   0  0  0  0  0  0  0  0  0  0  0  0
   17.6556    2.8771   53.0953 C   0  0  0  0  0  0  0  0  0  0  0  0
   19.0961    3.2807   53.2058 C   0  0  0  0  0  0  0  0  0  0  0  0
   19.1469    4.6635   53.7846 N   0  0  0  0  0  0  0  0  0  0  0  0
   30.3746    9.3517   54.5841 C   0  0  0  0  0  0  0  0  0  0  0  0
   30.8960   10.7059   54.2042 N   0  0  0  0  0  0  0  0  0  0  0  0
   31.3271    8.2105   54.7848 O   0  0  0  0  0  0  0  0  0  0  0  0
   32.3700   10.9187   54.0248 H   0  0  0  0  0  0  0  0  0  0  0  0
   29.9436   11.8472   54.0035 H   0  0  0  0  0  0  0  0  0  0  0  0
 17 18  1  0  0  0
 18 19  1  0  0  0
 19 20  1  0  0  0
 20 21  1  0  0  0
 21 22  1  0  0  0
 22 23  1  0  0  0
 23 24  1  0  0  0
 24 11  1  0  0  0
 11 12  2  0  0  0
 12 13  1  0  0  0
 13 14  2  0  0  0
 14 15  1  0  0  0
 15 16  2  0  0  0
 14  1  1  0  0  0
  1  2  2  0  0  0
  2  3  1  0  0  0
  3  4  2  0  0  0
  4  5  1  0  0  0
  5  6  1  0  0  0
  6  7  2  0  0  0
  7  8  1  0  0  0
  8  9  2  0  0  0
  6 25  1  0  0  0
 25 26  1  0  0  0
 25 27  2  0  0  0
 22 18  1  0  0  0
 16 11  1  0  0  0
  9  1  1  0  0  0
 24 20  1  0  0  0
  8  4  1  0  0  0
  5 10  1  0  0  0
 26 28  1  0  0  0
 26 29  1  0  0  0
M  END
> <minimizedAffinity>
42.87928

> <CNNscore>
0.5218340158

> <CNNaffinity>
5.7590994835

> <CNN_VS>
3.0052940845

> <CNNaffinity_variance>
0.4864718318

$$$$
[H]OC(=O)c1nc([H])c(N([H])C(=O)c2c([H])c(Cl)c(Cl)c([H])c2Oc2c([H])c([H])c(F)c([H])c2OC([H])([H])[H])c([H])c1[H]


 32 34  0  0  0  0  0  0  0  0999 V2000
   24.8663    8.4213   53.4425 C   0  0  0  0  0  0  0  0  0  0  0  0
   26.1148    9.0653   53.3619 C   0  0  0  0  0  0  0  0  0  0  0  0
   27.2638    8.4154   53.7156 C   0  0  0  0  0  0  0  0  0  0  0  0
   28.7990    9.2398   53.6042 Cl  0  0  0  0  0  0  0  0  0  0  0  0
   27.1535    7.1180   54.1508 C   0  0  0  0  0  0  0  0  0  0  0  0
   28.6240    6.2595   54.6127 Cl  0  0  0  0  0  0  0  0  0  0  0  0
   25.9521    6.4697   54.2390 C   0  0  0  0  0  0  0  0  0  0  0  0
   24.7484    7.1294   53.8754 C   0  0  0  0  0  0  0  0  0  0  0  0
   23.5317    6.3547   54.0088 C   0  0  0  0  0  0  0  0  0  0  0  0
   23.5360    5.4014   54.8868 O   0  0  0  0  0  0  0  0  0  0  0  0
   22.3675    6.5492   53.2761 N   0  0  0  0  0  0  0  0  0  0  0  0
   22.3386    7.3323   52.5559 H   0  0  0  0  0  0  0  0  0  0  0  0
   21.1566    5.7737   53.3950 C   0  0  0  0  0  0  0  0  0  0  0  0
   21.0863    4.4209   53.4272 C   0  0  0  0  0  0  0  0  0  0  0  0
   19.8506    3.7535   53.5770 C   0  0  0  0  0  0  0  0  0  0  0  0
   18.6946    4.4812   53.6920 C   0  0  0  0  0  0  0  0  0  0  0  0
   18.7730    5.8198   53.6582 N   0  0  0  0  0  0  0  0  0  0  0  0
   19.9413    6.4675   53.5167 C   0  0  0  0  0  0  0  0  0  0  0  0
   17.3954    3.7942   53.8498 C   0  0  0  0  0  0  0  0  0  0  0  0
   16.4830    4.2126   54.8058 O   0  0  0  0  0  0  0  0  0  0  0  0
   17.0833    2.8191   53.1277 O   0  0  0  0  0  0  0  0  0  0  0  0
   15.7231    4.8348   54.5452 H   0  0  0  0  0  0  0  0  0  0  0  0
   23.7408    9.1148   53.0724 O   0  0  0  0  0  0  0  0  0  0  0  0
   21.5384   10.0179   53.3270 C   0  0  0  0  0  0  0  0  0  0  0  0
   20.5338   10.4837   54.1722 C   0  0  0  0  0  0  0  0  0  0  0  0
   20.7489   10.4985   55.5303 C   0  0  0  0  0  0  0  0  0  0  0  0
   19.7611   10.9549   56.3401 F   0  0  0  0  0  0  0  0  0  0  0  0
   21.9417   10.0616   56.0861 C   0  0  0  0  0  0  0  0  0  0  0  0
   22.9095    9.6092   55.2160 C   0  0  0  0  0  0  0  0  0  0  0  0
   22.7301    9.5798   53.8506 C   0  0  0  0  0  0  0  0  0  0  0  0
   20.8963    8.8466   51.2789 C   0  0  0  0  0  0  0  0  0  0  0  0
   21.2960   10.0080   51.9398 O   0  0  0  0  0  0  0  0  0  0  0  0
 31 32  1  0  0  0
 32 24  1  0  0  0
 24 25  2  0  0  0
 25 26  1  0  0  0
 26 27  1  0  0  0
 26 28  2  0  0  0
 28 29  1  0  0  0
 29 30  2  0  0  0
 30 23  1  0  0  0
 23  1  1  0  0  0
  1  2  2  0  0  0
  2  3  1  0  0  0
  3  4  1  0  0  0
  3  5  2  0  0  0
  5  6  1  0  0  0
  5  7  1  0  0  0
  7  8  2  0  0  0
  8  9  1  0  0  0
  9 10  2  0  0  0
  9 11  1  0  0  0
 11 13  1  0  0  0
 13 14  2  0  0  0
 14 15  1  0  0  0
 15 16  2  0  0  0
 16 17  1  0  0  0
 17 18  2  0  0  0
 16 19  1  0  0  0
 19 20  1  0  0  0
 19 21  2  0  0  0
 30 24  1  0  0  0
  8  1  1  0  0  0
 18 13  1  0  0  0
 11 12  1  0  0  0
 20 22  1  0  0  0
M  END
> <minimizedAffinity>
27.92773

> <CNNscore>
0.5279334784

> <CNNaffinity>
6.4277849197

> <CNN_VS>
3.3934428692

> <CNNaffinity_variance>
0.2928181291

$$$$
[H]OC(=O)c1nc([H])c(N([H])C(=O)c2c([H])c(Cl)c(Cl)c([H])c2Oc2c([H])c([H])c(F)c([H])c2OC([H])([H])[H])c([H])c1[H]


 32 34  0  0  0  0  0  0  0  0999 V2000
   21.3340    5.3616   53.0692 C   0  0  0  0  0  0  0  0  0  0  0  0
   21.0892    4.0461   53.5045 C   0  0  0  0  0  0  0  0  0  0  0  0
   19.8293    3.6438   53.8487 C   0  0  0  0  0  0  0  0  0  0  0  0
   19.5556    2.0046   54.3845 Cl  0  0  0  0  0  0  0  0  0  0  0  0
   18.8179    4.5673   53.7545 C   0  0  0  0  0  0  0  0  0  0  0  0
   17.1831    4.0697   54.1936 Cl  0  0  0  0  0  0  0  0  0  0  0  0
   19.0294    5.8521   53.3350 C   0  0  0  0  0  0  0  0  0  0  0  0
   20.3318    6.2872   52.9732 C   0  0  0  0  0  0  0  0  0  0  0  0
   20.4472    7.6665   52.5461 C   0  0  0  0  0  0  0  0  0  0  0  0
   19.8497    7.9915   51.4428 O   0  0  0  0  0  0  0  0  0  0  0  0
   21.1425    8.6636   53.2189 N   0  0  0  0  0  0  0  0  0  0  0  0
   21.6331    8.4212   54.1317 H   0  0  0  0  0  0  0  0  0  0  0  0
   21.2719   10.0360   52.7929 C   0  0  0  0  0  0  0  0  0  0  0  0
   21.4980   11.0963   53.6059 C   0  0  0  0  0  0  0  0  0  0  0  0
   21.6398   12.4021   53.0868 C   0  0  0  0  0  0  0  0  0  0  0  0
   21.5477   12.6099   51.7350 C   0  0  0  0  0  0  0  0  0  0  0  0
   21.3229   11.5550   50.9375 N   0  0  0  0  0  0  0  0  0  0  0  0
   21.1864   10.3079   51.4175 C   0  0  0  0  0  0  0  0  0  0  0  0
   21.6949   13.9718   51.1797 C   0  0  0  0  0  0  0  0  0  0  0  0
   20.5984   14.8113   51.0595 O   0  0  0  0  0  0  0  0  0  0  0  0
   22.8091   14.4040   50.8038 O   0  0  0  0  0  0  0  0  0  0  0  0
   20.4085   15.5053   51.7770 H   0  0  0  0  0  0  0  0  0  0  0  0
   22.6162    5.7172   52.7311 O   0  0  0  0  0  0  0  0  0  0  0  0
   23.4494    6.7188   54.7394 C   0  0  0  0  0  0  0  0  0  0  0  0
   24.3479    7.5907   55.3501 C   0  0  0  0  0  0  0  0  0  0  0  0
   25.2497    8.2810   54.5746 C   0  0  0  0  0  0  0  0  0  0  0  0
   26.1182    9.1262   55.1839 F   0  0  0  0  0  0  0  0  0  0  0  0
   25.2914    8.1342   53.1965 C   0  0  0  0  0  0  0  0  0  0  0  0
   24.3858    7.2628   52.6317 C   0  0  0  0  0  0  0  0  0  0  0  0
   23.4681    6.5548   53.3760 C   0  0  0  0  0  0  0  0  0  0  0  0
   21.5964    6.6896   56.3347 C   0  0  0  0  0  0  0  0  0  0  0  0
   22.5367    6.0193   55.5524 O   0  0  0  0  0  0  0  0  0  0  0  0
 31 32  1  0  0  0
 32 24  1  0  0  0
 24 25  2  0  0  0
 25 26  1  0  0  0
 26 27  1  0  0  0
 26 28  2  0  0  0
 28 29  1  0  0  0
 29 30  2  0  0  0
 30 23  1  0  0  0
 23  1  1  0  0  0
  1  2  2  0  0  0
  2  3  1  0  0  0
  3  4  1  0  0  0
  3  5  2  0  0  0
  5  6  1  0  0  0
  5  7  1  0  0  0
  7  8  2  0  0  0
  8  9  1  0  0  0
  9 10  2  0  0  0
  9 11  1  0  0  0
 11 13  1  0  0  0
 13 14  2  0  0  0
 14 15  1  0  0  0
 15 16  2  0  0  0
 16 17  1  0  0  0
 17 18  2  0  0  0
 16 19  1  0  0  0
 19 20  1  0  0  0
 19 21  2  0  0  0
 30 24  1  0  0  0
  8  1  1  0  0  0
 18 13  1  0  0  0
 11 12  1  0  0  0
 20 22  1  0  0  0
M  END
> <minimizedAffinity>
26.05098

> <CNNscore>
0.5240572095

> <CNNaffinity>
6.3670454025

> <CNN_VS>
3.3366961479

> <CNNaffinity_variance>
0.2275974751

$$$$
[H]OC(=O)c1nc([H])c(N([H])C(=O)c2c([H])c(Cl)c(Cl)c([H])c2Oc2c([H])c([H])c(F)c([H])c2OC([H])([H])[H])c([H])c1[H]


 32 34  0  0  0  0  0  0  0  0999 V2000
   19.7576    6.6493   53.4756 C   0  0  0  0  0  0  0  0  0  0  0  0
   18.5132    5.9975   53.5570 C   0  0  0  0  0  0  0  0  0  0  0  0
   18.4318    4.6337   53.5220 C   0  0  0  0  0  0  0  0  0  0  0  0
   16.8737    3.8524   53.6261 Cl  0  0  0  0  0  0  0  0  0  0  0  0
   19.6038    3.9285   53.4042 C   0  0  0  0  0  0  0  0  0  0  0  0
   19.5224    2.1667   53.3571 Cl  0  0  0  0  0  0  0  0  0  0  0  0
   20.8258    4.5380   53.3225 C   0  0  0  0  0  0  0  0  0  0  0  0
   20.9292    5.9537   53.3577 C   0  0  0  0  0  0  0  0  0  0  0  0
   22.2683    6.4975   53.2612 C   0  0  0  0  0  0  0  0  0  0  0  0
   22.7204    6.7370   52.0704 O   0  0  0  0  0  0  0  0  0  0  0  0
   23.1028    6.7812   54.3352 N   0  0  0  0  0  0  0  0  0  0  0  0
   22.7486    6.6008   55.3224 H   0  0  0  0  0  0  0  0  0  0  0  0
   24.4418    7.3111   54.2459 C   0  0  0  0  0  0  0  0  0  0  0  0
   24.9743    7.9315   53.1653 C   0  0  0  0  0  0  0  0  0  0  0  0
   26.2901    8.4440   53.1876 C   0  0  0  0  0  0  0  0  0  0  0  0
   27.0509    8.3148   54.3205 C   0  0  0  0  0  0  0  0  0  0  0  0
   26.5165    7.6985   55.3854 N   0  0  0  0  0  0  0  0  0  0  0  0
   25.2665    7.2068   55.3782 C   0  0  0  0  0  0  0  0  0  0  0  0
   28.4292    8.8476   54.3562 C   0  0  0  0  0  0  0  0  0  0  0  0
   29.5114    8.0031   54.5490 O   0  0  0  0  0  0  0  0  0  0  0  0
   28.6574   10.0712   54.2140 O   0  0  0  0  0  0  0  0  0  0  0  0
   30.0397    7.6635   53.7502 H   0  0  0  0  0  0  0  0  0  0  0  0
   19.7882    8.0211   53.5187 O   0  0  0  0  0  0  0  0  0  0  0  0
   21.4448    9.7275   53.2451 C   0  0  0  0  0  0  0  0  0  0  0  0
   22.4177   10.5441   53.8173 C   0  0  0  0  0  0  0  0  0  0  0  0
   22.6688   10.4494   55.1660 C   0  0  0  0  0  0  0  0  0  0  0  0
   23.6190   11.2512   55.7083 F   0  0  0  0  0  0  0  0  0  0  0  0
   21.9791    9.5612   55.9771 C   0  0  0  0  0  0  0  0  0  0  0  0
   21.0257    8.7715   55.3725 C   0  0  0  0  0  0  0  0  0  0  0  0
   20.7471    8.8381   54.0251 C   0  0  0  0  0  0  0  0  0  0  0  0
   21.2440   11.0785   51.2169 C   0  0  0  0  0  0  0  0  0  0  0  0
   21.2011    9.8431   51.8629 O   0  0  0  0  0  0  0  0  0  0  0  0
 31 32  1  0  0  0
 32 24  1  0  0  0
 24 25  2  0  0  0
 25 26  1  0  0  0
 26 27  1  0  0  0
 26 28  2  0  0  0
 28 29  1  0  0  0
 29 30  2  0  0  0
 30 23  1  0  0  0
 23  1  1  0  0  0
  1  2  2  0  0  0
  2  3  1  0  0  0
  3  4  1  0  0  0
  3  5  2  0  0  0
  5  6  1  0  0  0
  5  7  1  0  0  0
  7  8  2  0  0  0
  8  9  1  0  0  0
  9 10  2  0  0  0
  9 11  1  0  0  0
 11 13  1  0  0  0
 13 14  2  0  0  0
 14 15  1  0  0  0
 15 16  2  0  0  0
 16 17  1  0  0  0
 17 18  2  0  0  0
 16 19  1  0  0  0
 19 20  1  0  0  0
 19 21  2  0  0  0
 30 24  1  0  0  0
  8  1  1  0  0  0
 18 13  1  0  0  0
 11 12  1  0  0  0
 20 22  1  0  0  0
M  END
> <minimizedAffinity>
20.08128

> <CNNscore>
0.5147380233

> <CNNaffinity>
6.6270456314

> <CNN_VS>
3.4111924171

> <CNNaffinity_variance>
0.3944967389

$$$$
[H]OC(=O)c1nc([H])c(N([H])C(=O)c2c([H])c(Cl)c(Cl)c([H])c2Oc2c([H])c([H])c(F)c([H])c2OC([H])([H])[H])c([H])c1[H]


 32 34  0  0  0  0  0  0  0  0999 V2000
   21.0084    5.5270   53.3686 C   0  0  0  0  0  0  0  0  0  0  0  0
   20.6870    4.2395   53.8365 C   0  0  0  0  0  0  0  0  0  0  0  0
   19.3857    3.8627   54.0163 C   0  0  0  0  0  0  0  0  0  0  0  0
   19.0171    2.2579   54.5974 Cl  0  0  0  0  0  0  0  0  0  0  0  0
   18.4100    4.7836   53.7252 C   0  0  0  0  0  0  0  0  0  0  0  0
   16.7230    4.3187   53.9498 Cl  0  0  0  0  0  0  0  0  0  0  0  0
   18.6959    6.0415   53.2697 C   0  0  0  0  0  0  0  0  0  0  0  0
   20.0421    6.4499   53.0769 C   0  0  0  0  0  0  0  0  0  0  0  0
   20.2351    7.8021   52.5947 C   0  0  0  0  0  0  0  0  0  0  0  0
   19.6779    8.1078   51.4651 O   0  0  0  0  0  0  0  0  0  0  0  0
   20.9650    8.7921   53.2407 N   0  0  0  0  0  0  0  0  0  0  0  0
   21.4236    8.5657   54.1740 H   0  0  0  0  0  0  0  0  0  0  0  0
   21.1716   10.1368   52.7603 C   0  0  0  0  0  0  0  0  0  0  0  0
   21.4016   11.2246   53.5350 C   0  0  0  0  0  0  0  0  0  0  0  0
   21.6224   12.4979   52.9653 C   0  0  0  0  0  0  0  0  0  0  0  0
   21.6047   12.6453   51.6025 C   0  0  0  0  0  0  0  0  0  0  0  0
   21.3754   11.5636   50.8431 N   0  0  0  0  0  0  0  0  0  0  0  0
   21.1643   10.3468   51.3714 C   0  0  0  0  0  0  0  0  0  0  0  0
   21.8349   13.9727   50.9945 C   0  0  0  0  0  0  0  0  0  0  0  0
   23.0860   14.3249   50.5125 O   0  0  0  0  0  0  0  0  0  0  0  0
   20.9107   14.8131   50.8980 O   0  0  0  0  0  0  0  0  0  0  0  0
   23.2958   14.2261   49.5233 H   0  0  0  0  0  0  0  0  0  0  0  0
   22.3303    5.8574   53.2006 O   0  0  0  0  0  0  0  0  0  0  0  0
   24.3791    7.0481   53.5403 C   0  0  0  0  0  0  0  0  0  0  0  0
   25.0844    8.0287   54.2344 C   0  0  0  0  0  0  0  0  0  0  0  0
   24.4499    8.7415   55.2244 C   0  0  0  0  0  0  0  0  0  0  0  0
   25.1501    9.6929   55.8911 F   0  0  0  0  0  0  0  0  0  0  0  0
   23.1228    8.5124   55.5539 C   0  0  0  0  0  0  0  0  0  0  0  0
   22.4611    7.5341   54.8443 C   0  0  0  0  0  0  0  0  0  0  0  0
   23.0635    6.7998   53.8467 C   0  0  0  0  0  0  0  0  0  0  0  0
   24.9080    4.9503   52.4009 C   0  0  0  0  0  0  0  0  0  0  0  0
   25.0468    6.3323   52.5279 O   0  0  0  0  0  0  0  0  0  0  0  0
 31 32  1  0  0  0
 32 24  1  0  0  0
 24 25  2  0  0  0
 25 26  1  0  0  0
 26 27  1  0  0  0
 26 28  2  0  0  0
 28 29  1  0  0  0
 29 30  2  0  0  0
 30 23  1  0  0  0
 23  1  1  0  0  0
  1  2  2  0  0  0
  2  3  1  0  0  0
  3  4  1  0  0  0
  3  5  2  0  0  0
  5  6  1  0  0  0
  5  7  1  0  0  0
  7  8  2  0  0  0
  8  9  1  0  0  0
  9 10  2  0  0  0
  9 11  1  0  0  0
 11 13  1  0  0  0
 13 14  2  0  0  0
 14 15  1  0  0  0
 15 16  2  0  0  0
 16 17  1  0  0  0
 17 18  2  0  0  0
 16 19  1  0  0  0
 19 20  1  0  0  0
 19 21  2  0  0  0
 30 24  1  0  0  0
  8  1  1  0  0  0
 18 13  1  0  0  0
 11 12  1  0  0  0
 20 22  1  0  0  0
M  END
> <minimizedAffinity>
29.75800

> <CNNscore>
0.4329119623

> <CNNaffinity>
6.1430482864

> <CNN_VS>
2.6593990326

> <CNNaffinity_variance>
0.2762366235

$$$$
[H]OC(=O)c1nc([H])c(N([H])C(=O)c2c([H])c(Cl)c(Cl)c([H])c2Oc2c([H])c([H])c(F)c([H])c2OC([H])([H])[H])c([H])c1[H]


 32 34  0  0  0  0  0  0  0  0999 V2000
   20.3312    6.7883   54.0202 C   0  0  0  0  0  0  0  0  0  0  0  0
   19.0117    6.3173   53.8897 C   0  0  0  0  0  0  0  0  0  0  0  0
   18.7606    5.0134   53.5666 C   0  0  0  0  0  0  0  0  0  0  0  0
   17.1127    4.4572   53.4125 Cl  0  0  0  0  0  0  0  0  0  0  0  0
   19.8391    4.1858   53.3745 C   0  0  0  0  0  0  0  0  0  0  0  0
   19.5385    2.4983   52.9566 Cl  0  0  0  0  0  0  0  0  0  0  0  0
   21.1312    4.6189   53.4946 C   0  0  0  0  0  0  0  0  0  0  0  0
   21.4105    5.9701   53.8300 C   0  0  0  0  0  0  0  0  0  0  0  0
   22.8112    6.3257   53.9290 C   0  0  0  0  0  0  0  0  0  0  0  0
   23.6580    5.3509   54.0412 O   0  0  0  0  0  0  0  0  0  0  0  0
   23.3178    7.6193   53.9138 N   0  0  0  0  0  0  0  0  0  0  0  0
   22.6413    8.4347   53.8135 H   0  0  0  0  0  0  0  0  0  0  0  0
   24.7101    7.9812   54.0245 C   0  0  0  0  0  0  0  0  0  0  0  0
   25.5991    8.0184   53.0025 C   0  0  0  0  0  0  0  0  0  0  0  0
   26.9384    8.4164   53.2088 C   0  0  0  0  0  0  0  0  0  0  0  0
   27.3557    8.7732   54.4649 C   0  0  0  0  0  0  0  0  0  0  0  0
   26.4696    8.7327   55.4710 N   0  0  0  0  0  0  0  0  0  0  0  0
   25.1929    8.3566   55.2890 C   0  0  0  0  0  0  0  0  0  0  0  0
   28.7547    9.1920   54.6933 C   0  0  0  0  0  0  0  0  0  0  0  0
   29.2096   10.4217   54.2433 O   0  0  0  0  0  0  0  0  0  0  0  0
   29.5651    8.4514   55.2969 O   0  0  0  0  0  0  0  0  0  0  0  0
   29.2392   11.2155   54.8769 H   0  0  0  0  0  0  0  0  0  0  0  0
   20.5323    8.1056   54.3500 O   0  0  0  0  0  0  0  0  0  0  0  0
   21.3709   10.3277   54.0492 C   0  0  0  0  0  0  0  0  0  0  0  0
   21.7300   11.3566   53.1815 C   0  0  0  0  0  0  0  0  0  0  0  0
   21.6031   11.1693   51.8251 C   0  0  0  0  0  0  0  0  0  0  0  0
   21.9569   12.1805   50.9932 F   0  0  0  0  0  0  0  0  0  0  0  0
   21.1260    9.9812   51.2929 C   0  0  0  0  0  0  0  0  0  0  0  0
   20.7815    8.9890   52.1847 C   0  0  0  0  0  0  0  0  0  0  0  0
   20.8946    9.1404   53.5492 C   0  0  0  0  0  0  0  0  0  0  0  0
   22.5644    9.9727   56.1536 C   0  0  0  0  0  0  0  0  0  0  0  0
   21.5121   10.5391   55.4343 O   0  0  0  0  0  0  0  0  0  0  0  0
 31 32  1  0  0  0
 32 24  1  0  0  0
 24 25  2  0  0  0
 25 26  1  0  0  0
 26 27  1  0  0  0
 26 28  2  0  0  0
 28 29  1  0  0  0
 29 30  2  0  0  0
 30 23  1  0  0  0
 23  1  1  0  0  0
  1  2  2  0  0  0
  2  3  1  0  0  0
  3  4  1  0  0  0
  3  5  2  0  0  0
  5  6  1  0  0  0
  5  7  1  0  0  0
  7  8  2  0  0  0
  8  9  1  0  0  0
  9 10  2  0  0  0
  9 11  1  0  0  0
 11 13  1  0  0  0
 13 14  2  0  0  0
 14 15  1  0  0  0
 15 16  2  0  0  0
 16 17  1  0  0  0
 17 18  2  0  0  0
 16 19  1  0  0  0
 19 20  1  0  0  0
 19 21  2  0  0  0
 30 24  1  0  0  0
  8  1  1  0  0  0
 18 13  1  0  0  0
 11 12  1  0  0  0
 20 22  1  0  0  0
M  END
> <minimizedAffinity>
16.08574

> <CNNscore>
0.4328858554

> <CNNaffinity>
6.3358683586

> <CNN_VS>
2.7427077293

> <CNNaffinity_variance>
0.2279143631

$$$$
[H]OC(=O)c1nc([H])c(N([H])C(=O)c2c([H])c(Cl)c(Cl)c([H])c2Oc2c([H])c([H])c(F)c([H])c2OC([H])([H])[H])c([H])c1[H]


 32 34  0  0  0  0  0  0  0  0999 V2000
   26.1742    8.0253   55.0692 C   0  0  0  0  0  0  0  0  0  0  0  0
   26.0746    8.1997   56.4619 C   0  0  0  0  0  0  0  0  0  0  0  0
   26.9085    9.0571   57.1231 C   0  0  0  0  0  0  0  0  0  0  0  0
   26.7609    9.2539   58.8518 Cl  0  0  0  0  0  0  0  0  0  0  0  0
   27.8421    9.7369   56.3808 C   0  0  0  0  0  0  0  0  0  0  0  0
   28.9291   10.8492   57.2138 Cl  0  0  0  0  0  0  0  0  0  0  0  0
   27.9599    9.5847   55.0263 C   0  0  0  0  0  0  0  0  0  0  0  0
   27.1018    8.6986   54.3230 C   0  0  0  0  0  0  0  0  0  0  0  0
   27.3121    8.6090   52.8927 C   0  0  0  0  0  0  0  0  0  0  0  0
   26.7128    7.6428   52.2705 O   0  0  0  0  0  0  0  0  0  0  0  0
   28.0997    9.4694   52.1379 N   0  0  0  0  0  0  0  0  0  0  0  0
   28.5939   10.2753   52.6268 H   0  0  0  0  0  0  0  0  0  0  0  0
   28.3235    9.3787   50.7154 C   0  0  0  0  0  0  0  0  0  0  0  0
   28.8021    8.2937   50.0598 C   0  0  0  0  0  0  0  0  0  0  0  0
   28.9577    8.2939   48.6561 C   0  0  0  0  0  0  0  0  0  0  0  0
   28.6210    9.4101   47.9350 C   0  0  0  0  0  0  0  0  0  0  0  0
   28.1489   10.4800   48.5919 N   0  0  0  0  0  0  0  0  0  0  0  0
   27.9954   10.4935   49.9263 C   0  0  0  0  0  0  0  0  0  0  0  0
   28.7789    9.4222   46.4654 C   0  0  0  0  0  0  0  0  0  0  0  0
   29.1798   10.5728   45.8044 O   0  0  0  0  0  0  0  0  0  0  0  0
   28.5560    8.3983   45.7788 O   0  0  0  0  0  0  0  0  0  0  0  0
   30.1568   10.7029   45.5575 H   0  0  0  0  0  0  0  0  0  0  0  0
   25.3116    7.1555   54.4496 O   0  0  0  0  0  0  0  0  0  0  0  0
   23.2871    8.4301   54.5383 C   0  0  0  0  0  0  0  0  0  0  0  0
   21.9484    8.5638   54.1769 C   0  0  0  0  0  0  0  0  0  0  0  0
   21.3579    7.5896   53.4067 C   0  0  0  0  0  0  0  0  0  0  0  0
   20.0537    7.7341   53.0630 F   0  0  0  0  0  0  0  0  0  0  0  0
   22.0587    6.4730   52.9770 C   0  0  0  0  0  0  0  0  0  0  0  0
   23.3799    6.3784   53.3563 C   0  0  0  0  0  0  0  0  0  0  0  0
   24.0048    7.3338   54.1271 C   0  0  0  0  0  0  0  0  0  0  0  0
   23.1556   10.5745   55.7060 C   0  0  0  0  0  0  0  0  0  0  0  0
   23.8732    9.4410   55.3244 O   0  0  0  0  0  0  0  0  0  0  0  0
 31 32  1  0  0  0
 32 24  1  0  0  0
 24 25  2  0  0  0
 25 26  1  0  0  0
 26 27  1  0  0  0
 26 28  2  0  0  0
 28 29  1  0  0  0
 29 30  2  0  0  0
 30 23  1  0  0  0
 23  1  1  0  0  0
  1  2  2  0  0  0
  2  3  1  0  0  0
  3  4  1  0  0  0
  3  5  2  0  0  0
  5  6  1  0  0  0
  5  7  1  0  0  0
  7  8  2  0  0  0
  8  9  1  0  0  0
  9 10  2  0  0  0
  9 11  1  0  0  0
 11 13  1  0  0  0
 13 14  2  0  0  0
 14 15  1  0  0  0
 15 16  2  0  0  0
 16 17  1  0  0  0
 17 18  2  0  0  0
 16 19  1  0  0  0
 19 20  1  0  0  0
 19 21  2  0  0  0
 30 24  1  0  0  0
  8  1  1  0  0  0
 18 13  1  0  0  0
 11 12  1  0  0  0
 20 22  1  0  0  0
M  END
> <minimizedAffinity>
32.46892

> <CNNscore>
0.4288069308

> <CNNaffinity>
5.8238019943

> <CNN_VS>
2.4972865582

> <CNNaffinity_variance>
0.0441139415

$$$$
[H]OC(=O)c1nc([H])c(N([H])C(=O)c2c([H])c(Cl)c(Cl)c([H])c2Oc2c([H])c([H])c(F)c([H])c2OC([H])([H])[H])c([H])c1[H]


 32 34  0  0  0  0  0  0  0  0999 V2000
   23.4901    8.2197   53.0440 C   0  0  0  0  0  0  0  0  0  0  0  0
   24.7368    8.8478   52.8674 C   0  0  0  0  0  0  0  0  0  0  0  0
   25.8604    8.3601   53.4734 C   0  0  0  0  0  0  0  0  0  0  0  0
   27.3941    9.1600   53.2351 Cl  0  0  0  0  0  0  0  0  0  0  0  0
   25.7266    7.2409   54.2572 C   0  0  0  0  0  0  0  0  0  0  0  0
   27.1641    6.5938   55.0493 Cl  0  0  0  0  0  0  0  0  0  0  0  0
   24.5263    6.6121   54.4456 C   0  0  0  0  0  0  0  0  0  0  0  0
   23.3488    7.1048   53.8235 C   0  0  0  0  0  0  0  0  0  0  0  0
   22.1307    6.3678   54.0906 C   0  0  0  0  0  0  0  0  0  0  0  0
   22.0244    5.8122   55.2567 O   0  0  0  0  0  0  0  0  0  0  0  0
   21.0734    6.2087   53.2034 N   0  0  0  0  0  0  0  0  0  0  0  0
   21.1355    6.6640   52.2434 H   0  0  0  0  0  0  0  0  0  0  0  0
   19.8631    5.4658   53.4582 C   0  0  0  0  0  0  0  0  0  0  0  0
   19.7725    4.1179   53.5647 C   0  0  0  0  0  0  0  0  0  0  0  0
   18.5418    3.4851   53.8468 C   0  0  0  0  0  0  0  0  0  0  0  0
   17.4115    4.2418   54.0169 C   0  0  0  0  0  0  0  0  0  0  0  0
   17.5099    5.5752   53.9089 N   0  0  0  0  0  0  0  0  0  0  0  0
   18.6737    6.1902   53.6415 C   0  0  0  0  0  0  0  0  0  0  0  0
   16.1179    3.5910   54.3130 C   0  0  0  0  0  0  0  0  0  0  0  0
   15.3167    3.1071   53.2905 O   0  0  0  0  0  0  0  0  0  0  0  0
   15.7106    3.4590   55.4904 O   0  0  0  0  0  0  0  0  0  0  0  0
   15.3530    2.1234   53.0387 H   0  0  0  0  0  0  0  0  0  0  0  0
   22.3908    8.7450   52.4114 O   0  0  0  0  0  0  0  0  0  0  0  0
   21.7886   10.8046   53.4727 C   0  0  0  0  0  0  0  0  0  0  0  0
   21.3647   12.1261   53.3516 C   0  0  0  0  0  0  0  0  0  0  0  0
   21.1395   12.6494   52.1001 C   0  0  0  0  0  0  0  0  0  0  0  0
   20.7270   13.9377   51.9987 F   0  0  0  0  0  0  0  0  0  0  0  0
   21.3226   11.8975   50.9497 C   0  0  0  0  0  0  0  0  0  0  0  0
   21.7420   10.5952   51.1127 C   0  0  0  0  0  0  0  0  0  0  0  0
   21.9773   10.0368   52.3498 C   0  0  0  0  0  0  0  0  0  0  0  0
   21.1410    9.3748   55.3476 C   0  0  0  0  0  0  0  0  0  0  0  0
   22.0169   10.2896   54.7634 O   0  0  0  0  0  0  0  0  0  0  0  0
 31 32  1  0  0  0
 32 24  1  0  0  0
 24 25  2  0  0  0
 25 26  1  0  0  0
 26 27  1  0  0  0
 26 28  2  0  0  0
 28 29  1  0  0  0
 29 30  2  0  0  0
 30 23  1  0  0  0
 23  1  1  0  0  0
  1  2  2  0  0  0
  2  3  1  0  0  0
  3  4  1  0  0  0
  3  5  2  0  0  0
  5  6  1  0  0  0
  5  7  1  0  0  0
  7  8  2  0  0  0
  8  9  1  0  0  0
  9 10  2  0  0  0
  9 11  1  0  0  0
 11 13  1  0  0  0
 13 14  2  0  0  0
 14 15  1  0  0  0
 15 16  2  0  0  0
 16 17  1  0  0  0
 17 18  2  0  0  0
 16 19  1  0  0  0
 19 20  1  0  0  0
 19 21  2  0  0  0
 30 24  1  0  0  0
  8  1  1  0  0  0
 18 13  1  0  0  0
 11 12  1  0  0  0
 20 22  1  0  0  0
M  END
> <minimizedAffinity>
23.86227

> <CNNscore>
0.4021089673

> <CNNaffinity>
6.3902249336

> <CNN_VS>
2.5695667267

> <CNNaffinity_variance>
0.3781115413

$$$$
[H]OC(=O)c1nc([H])c(N([H])C(=O)c2c([H])c(Cl)c(Cl)c([H])c2Oc2c([H])c([H])c(F)c([H])c2OC([H])([H])[H])c([H])c1[H]


 32 34  0  0  0  0  0  0  0  0999 V2000
   20.4449    6.3881   52.9052 C   0  0  0  0  0  0  0  0  0  0  0  0
   19.1199    5.9146   52.8973 C   0  0  0  0  0  0  0  0  0  0  0  0
   18.7564    4.8337   53.6503 C   0  0  0  0  0  0  0  0  0  0  0  0
   17.1043    4.2692   53.6211 Cl  0  0  0  0  0  0  0  0  0  0  0  0
   19.7282    4.2307   54.4097 C   0  0  0  0  0  0  0  0  0  0  0  0
   19.2813    2.8334   55.3899 Cl  0  0  0  0  0  0  0  0  0  0  0  0
   21.0233    4.6708   54.4346 C   0  0  0  0  0  0  0  0  0  0  0  0
   21.4185    5.7925   53.6588 C   0  0  0  0  0  0  0  0  0  0  0  0
   22.8126    6.1742   53.7545 C   0  0  0  0  0  0  0  0  0  0  0  0
   23.6853    5.2160   53.7507 O   0  0  0  0  0  0  0  0  0  0  0  0
   23.2874    7.4764   53.8498 N   0  0  0  0  0  0  0  0  0  0  0  0
   22.5889    8.2794   53.8457 H   0  0  0  0  0  0  0  0  0  0  0  0
   24.6732    7.8630   53.9579 C   0  0  0  0  0  0  0  0  0  0  0  0
   25.5444    7.9729   52.9258 C   0  0  0  0  0  0  0  0  0  0  0  0
   26.8780    8.3895   53.1322 C   0  0  0  0  0  0  0  0  0  0  0  0
   27.3081    8.6898   54.3987 C   0  0  0  0  0  0  0  0  0  0  0  0
   26.4396    8.5776   55.4147 N   0  0  0  0  0  0  0  0  0  0  0  0
   25.1686    8.1830   55.2328 C   0  0  0  0  0  0  0  0  0  0  0  0
   28.7014    9.1274   54.6272 C   0  0  0  0  0  0  0  0  0  0  0  0
   29.0898   10.4297   54.3542 O   0  0  0  0  0  0  0  0  0  0  0  0
   29.5664    8.3378   55.0719 O   0  0  0  0  0  0  0  0  0  0  0  0
   29.1235   11.1173   55.1015 H   0  0  0  0  0  0  0  0  0  0  0  0
   20.7604    7.4797   52.1348 O   0  0  0  0  0  0  0  0  0  0  0  0
   20.9996    9.1398   53.8430 C   0  0  0  0  0  0  0  0  0  0  0  0
   21.2678   10.4626   54.1873 C   0  0  0  0  0  0  0  0  0  0  0  0
   21.5455   11.3739   53.1957 C   0  0  0  0  0  0  0  0  0  0  0  0
   21.8047   12.6582   53.5469 F   0  0  0  0  0  0  0  0  0  0  0  0
   21.5666   11.0136   51.8570 C   0  0  0  0  0  0  0  0  0  0  0  0
   21.2956    9.6960   51.5587 C   0  0  0  0  0  0  0  0  0  0  0  0
   21.0130    8.7554   52.5246 C   0  0  0  0  0  0  0  0  0  0  0  0
   21.4729    8.1969   56.0489 C   0  0  0  0  0  0  0  0  0  0  0  0
   20.7212    8.2221   54.8743 O   0  0  0  0  0  0  0  0  0  0  0  0
 31 32  1  0  0  0
 32 24  1  0  0  0
 24 25  2  0  0  0
 25 26  1  0  0  0
 26 27  1  0  0  0
 26 28  2  0  0  0
 28 29  1  0  0  0
 29 30  2  0  0  0
 30 23  1  0  0  0
 23  1  1  0  0  0
  1  2  2  0  0  0
  2  3  1  0  0  0
  3  4  1  0  0  0
  3  5  2  0  0  0
  5  6  1  0  0  0
  5  7  1  0  0  0
  7  8  2  0  0  0
  8  9  1  0  0  0
  9 10  2  0  0  0
  9 11  1  0  0  0
 11 13  1  0  0  0
 13 14  2  0  0  0
 14 15  1  0  0  0
 15 16  2  0  0  0
 16 17  1  0  0  0
 17 18  2  0  0  0
 16 19  1  0  0  0
 19 20  1  0  0  0
 19 21  2  0  0  0
 30 24  1  0  0  0
  8  1  1  0  0  0
 18 13  1  0  0  0
 11 12  1  0  0  0
 20 22  1  0  0  0
M  END
> <minimizedAffinity>
20.28759

> <CNNscore>
0.3842843473

> <CNNaffinity>
6.2626690865

> <CNN_VS>
2.4066457748

> <CNNaffinity_variance>
0.2174560279

$$$$
[H]OC(=O)c1nc([H])c(N([H])C(=O)c2c([H])c(Cl)c(Cl)c([H])c2Oc2c([H])c([H])c(F)c([H])c2OC([H])([H])[H])c([H])c1[H]


 32 34  0  0  0  0  0  0  0  0999 V2000
   24.3875    8.3085   54.4489 C   0  0  0  0  0  0  0  0  0  0  0  0
   25.6055    9.0120   54.4873 C   0  0  0  0  0  0  0  0  0  0  0  0
   26.7985    8.3568   54.3647 C   0  0  0  0  0  0  0  0  0  0  0  0
   28.2942    9.2564   54.4151 Cl  0  0  0  0  0  0  0  0  0  0  0  0
   26.7631    6.9938   54.2043 C   0  0  0  0  0  0  0  0  0  0  0  0
   28.2915    6.1273   54.0439 Cl  0  0  0  0  0  0  0  0  0  0  0  0
   25.5927    6.2865   54.1644 C   0  0  0  0  0  0  0  0  0  0  0  0
   24.3441    6.9508   54.2899 C   0  0  0  0  0  0  0  0  0  0  0  0
   23.1663    6.1093   54.2375 C   0  0  0  0  0  0  0  0  0  0  0  0
   23.2648    4.9281   54.7619 O   0  0  0  0  0  0  0  0  0  0  0  0
   21.9468    6.4631   53.6738 N   0  0  0  0  0  0  0  0  0  0  0  0
   21.8406    7.4316   53.2455 H   0  0  0  0  0  0  0  0  0  0  0  0
   20.7737    5.6257   53.6070 C   0  0  0  0  0  0  0  0  0  0  0  0
   20.7737    4.2726   53.5325 C   0  0  0  0  0  0  0  0  0  0  0  0
   19.5670    3.5393   53.5017 C   0  0  0  0  0  0  0  0  0  0  0  0
   18.3677    4.2017   53.5470 C   0  0  0  0  0  0  0  0  0  0  0  0
   18.3767    5.5410   53.6197 N   0  0  0  0  0  0  0  0  0  0  0  0
   19.5167    6.2510   53.6502 C   0  0  0  0  0  0  0  0  0  0  0  0
   17.0982    3.4452   53.5159 C   0  0  0  0  0  0  0  0  0  0  0  0
   16.9160    2.4014   52.6222 O   0  0  0  0  0  0  0  0  0  0  0  0
   16.1555    3.7245   54.2924 O   0  0  0  0  0  0  0  0  0  0  0  0
   17.0712    1.4429   52.9217 H   0  0  0  0  0  0  0  0  0  0  0  0
   23.2149    9.0117   54.5727 O   0  0  0  0  0  0  0  0  0  0  0  0
   21.6737   10.7040   53.8714 C   0  0  0  0  0  0  0  0  0  0  0  0
   20.9432   11.2959   52.8436 C   0  0  0  0  0  0  0  0  0  0  0  0
   21.0408   10.7889   51.5691 C   0  0  0  0  0  0  0  0  0  0  0  0
   20.3233   11.3762   50.5790 F   0  0  0  0  0  0  0  0  0  0  0  0
   21.8484    9.7008   51.2753 C   0  0  0  0  0  0  0  0  0  0  0  0
   22.5538    9.1442   52.3197 C   0  0  0  0  0  0  0  0  0  0  0  0
   22.4811    9.6244   53.6087 C   0  0  0  0  0  0  0  0  0  0  0  0
   20.8518   10.5812   56.1711 C   0  0  0  0  0  0  0  0  0  0  0  0
   21.5620   11.2412   55.1684 O   0  0  0  0  0  0  0  0  0  0  0  0
 31 32  1  0  0  0
 32 24  1  0  0  0
 24 25  2  0  0  0
 25 26  1  0  0  0
 26 27  1  0  0  0
 26 28  2  0  0  0
 28 29  1  0  0  0
 29 30  2  0  0  0
 30 23  1  0  0  0
 23  1  1  0  0  0
  1  2  2  0  0  0
  2  3  1  0  0  0
  3  4  1  0  0  0
  3  5  2  0  0  0
  5  6  1  0  0  0
  5  7  1  0  0  0
  7  8  2  0  0  0
  8  9  1  0  0  0
  9 10  2  0  0  0
  9 11  1  0  0  0
 11 13  1  0  0  0
 13 14  2  0  0  0
 14 15  1  0  0  0
 15 16  2  0  0  0
 16 17  1  0  0  0
 17 18  2  0  0  0
 16 19  1  0  0  0
 19 20  1  0  0  0
 19 21  2  0  0  0
 30 24  1  0  0  0
  8  1  1  0  0  0
 18 13  1  0  0  0
 11 12  1  0  0  0
 20 22  1  0  0  0
M  END
> <minimizedAffinity>
29.38353

> <CNNscore>
0.3573700190

> <CNNaffinity>
6.2132730484

> <CNN_VS>
2.2204375267

> <CNNaffinity_variance>
0.2601449788

$$$$
[H]C([H])([H])C1(C([H])([H])[H])C(=O)C([H])([H])C([H])([H])[C@]2(C([H])([H])[H])[C@@]3([H])C([H])([H])C([H])([H])[C@]4(C([H])([H])[H])[C@@]([H])(C([H])([H])[H])C([H])([H])C([H])([H])C([H])([H])[C@@]4([H])[C@]3([H])C([H])([H])[C@@]([H])(C([H])([H])[H])[C@]2(C([H])([H])[H])[C@]1([H])C([H])([H])[H]


 28 31  0  0  0  0  0  0  0  0999 V2000
   20.1556    9.1667   55.9155 C   0  0  0  0  0  0  0  0  0  0  0  0
   20.4251    8.9896   54.4099 C   0  0  0  0  0  0  0  0  0  0  0  0
   19.5508    7.8354   54.0022 C   0  0  0  0  0  0  0  0  0  0  0  0
   20.2229    6.5317   54.0098 C   0  0  0  0  0  0  0  0  0  0  0  0
   19.2670    5.4800   53.4509 C   0  0  0  0  0  0  0  0  0  0  0  0
   17.8880    5.6103   54.0056 C   0  0  0  0  0  0  0  0  0  0  0  0
   17.0364    4.5046   53.4266 C   0  0  0  0  0  0  0  0  0  0  0  0
   17.6239    3.1467   53.5847 C   0  0  0  0  0  0  0  0  0  0  0  0
   19.0527    3.0800   53.0628 C   0  0  0  0  0  0  0  0  0  0  0  0
   19.5445    1.6889   53.2615 C   0  0  0  0  0  0  0  0  0  0  0  0
   19.9045    4.1349   53.7161 C   0  0  0  0  0  0  0  0  0  0  0  0
   19.9816    3.8200   55.1891 C   0  0  0  0  0  0  0  0  0  0  0  0
   21.2533    4.0887   53.1046 C   0  0  0  0  0  0  0  0  0  0  0  0
   22.1564    5.2642   53.5088 C   0  0  0  0  0  0  0  0  0  0  0  0
   21.4210    6.5561   53.1219 C   0  0  0  0  0  0  0  0  0  0  0  0
   22.2478    7.7749   53.1048 C   0  0  0  0  0  0  0  0  0  0  0  0
   23.6843    7.2816   53.4137 C   0  0  0  0  0  0  0  0  0  0  0  0
   22.4237    8.2458   51.6673 C   0  0  0  0  0  0  0  0  0  0  0  0
   21.3152    9.0071   51.0832 C   0  0  0  0  0  0  0  0  0  0  0  0
   21.0729   10.3333   51.6388 C   0  0  0  0  0  0  0  0  0  0  0  0
   20.1207   10.9413   51.2120 O   0  0  0  0  0  0  0  0  0  0  0  0
   21.8489   11.0553   52.6768 C   0  0  0  0  0  0  0  0  0  0  0  0
   21.0190   12.1833   53.2433 C   0  0  0  0  0  0  0  0  0  0  0  0
   22.9394   11.7935   51.8619 C   0  0  0  0  0  0  0  0  0  0  0  0
   22.5170   10.1788   53.6595 C   0  0  0  0  0  0  0  0  0  0  0  0
   23.0473   11.0005   54.8030 C   0  0  0  0  0  0  0  0  0  0  0  0
   21.8561    8.8883   54.0533 C   0  0  0  0  0  0  0  0  0  0  0  0
   22.5466    8.5327   55.3909 C   0  0  0  0  0  0  0  0  0  0  0  0
  1  2  1  0  0  0
  2  3  1  0  0  0
  3  4  1  0  0  0
  4  5  1  0  0  0
  5  6  1  0  0  0
  6  7  1  0  0  0
  7  8  1  0  0  0
  8  9  1  0  0  0
  9 10  1  0  0  0
  9 11  1  0  0  0
 11 12  1  0  0  0
 11 13  1  0  0  0
 13 14  1  0  0  0
 14 15  1  0  0  0
 15 16  1  0  0  0
 16 17  1  0  0  0
 16 18  1  0  0  0
 18 19  1  0  0  0
 19 20  1  0  0  0
 20 21  2  0  0  0
 20 22  1  0  0  0
 22 23  1  0  0  0
 22 24  1  0  0  0
 22 25  1  0  0  0
 25 26  1  0  0  0
 25 27  1  0  0  0
 27 28  1  0  0  0
 27  2  1  0  0  0
 15  4  1  0  0  0
 27 16  1  0  0  0
 11  5  1  0  0  0
M  END
> <minimizedAffinity>
66.00979

> <CNNscore>
0.5292046666

> <CNNaffinity>
6.3463034630

> <CNN_VS>
3.3584933281

> <CNNaffinity_variance>
0.7109402418

$$$$
[H]C([H])([H])C1(C([H])([H])[H])C(=O)C([H])([H])C([H])([H])[C@]2(C([H])([H])[H])[C@@]3([H])C([H])([H])C([H])([H])[C@]4(C([H])([H])[H])[C@@]([H])(C([H])([H])[H])C([H])([H])C([H])([H])C([H])([H])[C@@]4([H])[C@]3([H])C([H])([H])[C@@]([H])(C([H])([H])[H])[C@]2(C([H])([H])[H])[C@]1([H])C([H])([H])[H]


 28 31  0  0  0  0  0  0  0  0999 V2000
   23.7634    5.4925   53.1468 C   0  0  0  0  0  0  0  0  0  0  0  0
   23.3675    6.9788   53.0781 C   0  0  0  0  0  0  0  0  0  0  0  0
   24.6697    7.7230   53.1939 C   0  0  0  0  0  0  0  0  0  0  0  0
   25.0088    8.1458   54.5568 C   0  0  0  0  0  0  0  0  0  0  0  0
   26.2746    8.9988   54.5088 C   0  0  0  0  0  0  0  0  0  0  0  0
   27.3258    8.4107   53.6280 C   0  0  0  0  0  0  0  0  0  0  0  0
   28.5448    9.3017   53.6827 C   0  0  0  0  0  0  0  0  0  0  0  0
   29.0122    9.5982   55.0640 C   0  0  0  0  0  0  0  0  0  0  0  0
   27.8903   10.1356   55.9419 C   0  0  0  0  0  0  0  0  0  0  0  0
   28.4582   10.4027   57.2920 C   0  0  0  0  0  0  0  0  0  0  0  0
   26.7189    9.1905   55.9412 C   0  0  0  0  0  0  0  0  0  0  0  0
   27.1668    7.8986   56.5778 C   0  0  0  0  0  0  0  0  0  0  0  0
   25.6247    9.8048   56.7288 C   0  0  0  0  0  0  0  0  0  0  0  0
   24.2868    9.0576   56.6167 C   0  0  0  0  0  0  0  0  0  0  0  0
   23.9240    8.9967   55.1254 C   0  0  0  0  0  0  0  0  0  0  0  0
   22.5281    8.6332   54.8273 C   0  0  0  0  0  0  0  0  0  0  0  0
   21.8447    8.5215   56.2139 C   0  0  0  0  0  0  0  0  0  0  0  0
   21.8005    9.8451   54.2608 C   0  0  0  0  0  0  0  0  0  0  0  0
   22.0129   10.1360   52.8396 C   0  0  0  0  0  0  0  0  0  0  0  0
   21.4573    9.1795   51.8896 C   0  0  0  0  0  0  0  0  0  0  0  0
   21.6846    9.3732   50.7195 O   0  0  0  0  0  0  0  0  0  0  0  0
   20.6344    7.9762   52.1655 C   0  0  0  0  0  0  0  0  0  0  0  0
   20.6426    7.0642   50.9613 C   0  0  0  0  0  0  0  0  0  0  0  0
   19.1870    8.5267   52.1820 C   0  0  0  0  0  0  0  0  0  0  0  0
   20.9036    7.3383   53.4697 C   0  0  0  0  0  0  0  0  0  0  0  0
   20.2204    5.9995   53.5369 C   0  0  0  0  0  0  0  0  0  0  0  0
   22.3002    7.3709   54.0227 C   0  0  0  0  0  0  0  0  0  0  0  0
   22.2923    6.2296   55.0667 C   0  0  0  0  0  0  0  0  0  0  0  0
  1  2  1  0  0  0
  2  3  1  0  0  0
  3  4  1  0  0  0
  4  5  1  0  0  0
  5  6  1  0  0  0
  6  7  1  0  0  0
  7  8  1  0  0  0
  8  9  1  0  0  0
  9 10  1  0  0  0
  9 11  1  0  0  0
 11 12  1  0  0  0
 11 13  1  0  0  0
 13 14  1  0  0  0
 14 15  1  0  0  0
 15 16  1  0  0  0
 16 17  1  0  0  0
 16 18  1  0  0  0
 18 19  1  0  0  0
 19 20  1  0  0  0
 20 21  2  0  0  0
 20 22  1  0  0  0
 22 23  1  0  0  0
 22 24  1  0  0  0
 22 25  1  0  0  0
 25 26  1  0  0  0
 25 27  1  0  0  0
 27 28  1  0  0  0
 27  2  1  0  0  0
 15  4  1  0  0  0
 27 16  1  0  0  0
 11  5  1  0  0  0
M  END
> <minimizedAffinity>
33.58518

> <CNNscore>
0.4830396473

> <CNNaffinity>
6.7840819359

> <CNN_VS>
3.2769806385

> <CNNaffinity_variance>
0.5679152608

$$$$
[H]C([H])([H])C1(C([H])([H])[H])C(=O)C([H])([H])C([H])([H])[C@]2(C([H])([H])[H])[C@@]3([H])C([H])([H])C([H])([H])[C@]4(C([H])([H])[H])[C@@]([H])(C([H])([H])[H])C([H])([H])C([H])([H])C([H])([H])[C@@]4([H])[C@]3([H])C([H])([H])[C@@]([H])(C([H])([H])[H])[C@]2(C([H])([H])[H])[C@]1([H])C([H])([H])[H]


 28 31  0  0  0  0  0  0  0  0999 V2000
   24.5292   10.8782   55.9864 C   0  0  0  0  0  0  0  0  0  0  0  0
   25.1256    9.9015   54.9563 C   0  0  0  0  0  0  0  0  0  0  0  0
   24.0662    9.7768   53.8956 C   0  0  0  0  0  0  0  0  0  0  0  0
   23.1644    8.6332   54.0690 C   0  0  0  0  0  0  0  0  0  0  0  0
   22.2337    8.5505   52.8610 C   0  0  0  0  0  0  0  0  0  0  0  0
   21.6824    9.8818   52.4735 C   0  0  0  0  0  0  0  0  0  0  0  0
   20.7465    9.6863   51.3035 C   0  0  0  0  0  0  0  0  0  0  0  0
   19.7068    8.6465   51.5314 C   0  0  0  0  0  0  0  0  0  0  0  0
   20.3124    7.3257   51.9863 C   0  0  0  0  0  0  0  0  0  0  0  0
   19.1979    6.3580   52.1812 C   0  0  0  0  0  0  0  0  0  0  0  0
   21.1727    7.5296   53.2044 C   0  0  0  0  0  0  0  0  0  0  0  0
   20.2797    7.9903   54.3292 C   0  0  0  0  0  0  0  0  0  0  0  0
   21.8110    6.2367   53.5452 C   0  0  0  0  0  0  0  0  0  0  0  0
   22.8986    6.3492   54.6247 C   0  0  0  0  0  0  0  0  0  0  0  0
   23.9388    7.3595   54.1180 C   0  0  0  0  0  0  0  0  0  0  0  0
   25.2259    7.3567   54.8341 C   0  0  0  0  0  0  0  0  0  0  0  0
   25.1067    6.1970   55.8555 C   0  0  0  0  0  0  0  0  0  0  0  0
   26.3115    6.8049   53.9196 C   0  0  0  0  0  0  0  0  0  0  0  0
   26.8777    7.7323   52.9353 C   0  0  0  0  0  0  0  0  0  0  0  0
   27.6798    8.8301   53.4621 C   0  0  0  0  0  0  0  0  0  0  0  0
   28.0943    9.6381   52.6659 O   0  0  0  0  0  0  0  0  0  0  0  0
   28.0661    9.0990   54.8691 C   0  0  0  0  0  0  0  0  0  0  0  0
   28.5185   10.5334   55.0098 C   0  0  0  0  0  0  0  0  0  0  0  0
   29.3789    8.2958   55.0411 C   0  0  0  0  0  0  0  0  0  0  0  0
   27.0935    8.6196   55.8714 C   0  0  0  0  0  0  0  0  0  0  0  0
   27.4432    9.1670   57.2285 C   0  0  0  0  0  0  0  0  0  0  0  0
   25.6296    8.6375   55.5336 C   0  0  0  0  0  0  0  0  0  0  0  0
   24.9474    8.5657   56.9199 C   0  0  0  0  0  0  0  0  0  0  0  0
  1  2  1  0  0  0
  2  3  1  0  0  0
  3  4  1  0  0  0
  4  5  1  0  0  0
  5  6  1  0  0  0
  6  7  1  0  0  0
  7  8  1  0  0  0
  8  9  1  0  0  0
  9 10  1  0  0  0
  9 11  1  0  0  0
 11 12  1  0  0  0
 11 13  1  0  0  0
 13 14  1  0  0  0
 14 15  1  0  0  0
 15 16  1  0  0  0
 16 17  1  0  0  0
 16 18  1  0  0  0
 18 19  1  0  0  0
 19 20  1  0  0  0
 20 21  2  0  0  0
 20 22  1  0  0  0
 22 23  1  0  0  0
 22 24  1  0  0  0
 22 25  1  0  0  0
 25 26  1  0  0  0
 25 27  1  0  0  0
 27 28  1  0  0  0
 27  2  1  0  0  0
 15  4  1  0  0  0
 27 16  1  0  0  0
 11  5  1  0  0  0
M  END
> <minimizedAffinity>
55.37114

> <CNNscore>
0.4489834607

> <CNNaffinity>
6.2380881310

> <CNN_VS>
2.8007984161

> <CNNaffinity_variance>
0.5881175995

$$$$
[H]C([H])([H])C1(C([H])([H])[H])C(=O)C([H])([H])C([H])([H])[C@]2(C([H])([H])[H])[C@@]3([H])C([H])([H])C([H])([H])[C@]4(C([H])([H])[H])[C@@]([H])(C([H])([H])[H])C([H])([H])C([H])([H])C([H])([H])[C@@]4([H])[C@]3([H])C([H])([H])[C@@]([H])(C([H])([H])[H])[C@]2(C([H])([H])[H])[C@]1([H])C([H])([H])[H]


 28 31  0  0  0  0  0  0  0  0999 V2000
   23.9828    5.3500   54.3930 C   0  0  0  0  0  0  0  0  0  0  0  0
   22.9873    6.4763   54.7264 C   0  0  0  0  0  0  0  0  0  0  0  0
   21.7536    5.7613   55.2056 C   0  0  0  0  0  0  0  0  0  0  0  0
   20.7431    5.5309   54.1679 C   0  0  0  0  0  0  0  0  0  0  0  0
   19.4999    4.9244   54.8150 C   0  0  0  0  0  0  0  0  0  0  0  0
   19.8329    3.8399   55.7843 C   0  0  0  0  0  0  0  0  0  0  0  0
   18.5413    3.2799   56.3331 C   0  0  0  0  0  0  0  0  0  0  0  0
   17.5678    2.8727   55.2839 C   0  0  0  0  0  0  0  0  0  0  0  0
   17.3089    3.9902   54.2827 C   0  0  0  0  0  0  0  0  0  0  0  0
   16.3254    3.4871   53.2846 C   0  0  0  0  0  0  0  0  0  0  0  0
   18.6021    4.4749   53.6846 C   0  0  0  0  0  0  0  0  0  0  0  0
   19.2022    3.3373   52.8966 C   0  0  0  0  0  0  0  0  0  0  0  0
   18.3027    5.6210   52.7946 C   0  0  0  0  0  0  0  0  0  0  0  0
   19.5536    6.3639   52.3004 C   0  0  0  0  0  0  0  0  0  0  0  0
   20.3312    6.8213   53.5437 C   0  0  0  0  0  0  0  0  0  0  0  0
   21.3688    7.8386   53.3031 C   0  0  0  0  0  0  0  0  0  0  0  0
   21.2433    8.1819   51.7969 C   0  0  0  0  0  0  0  0  0  0  0  0
   20.9333    9.1603   53.9218 C   0  0  0  0  0  0  0  0  0  0  0  0
   21.1401    9.3116   55.3654 C   0  0  0  0  0  0  0  0  0  0  0  0
   22.5234    9.3907   55.8197 C   0  0  0  0  0  0  0  0  0  0  0  0
   22.7070    9.4471   57.0120 O   0  0  0  0  0  0  0  0  0  0  0  0
   23.7630    9.4121   55.0047 C   0  0  0  0  0  0  0  0  0  0  0  0
   24.9516    9.0726   55.8731 C   0  0  0  0  0  0  0  0  0  0  0  0
   23.9666   10.9166   54.6995 C   0  0  0  0  0  0  0  0  0  0  0  0
   23.6629    8.6873   53.7222 C   0  0  0  0  0  0  0  0  0  0  0  0
   25.0278    8.5455   53.1050 C   0  0  0  0  0  0  0  0  0  0  0  0
   22.7958    7.4629   53.6424 C   0  0  0  0  0  0  0  0  0  0  0  0
   23.3261    6.7373   52.3835 C   0  0  0  0  0  0  0  0  0  0  0  0
  1  2  1  0  0  0
  2  3  1  0  0  0
  3  4  1  0  0  0
  4  5  1  0  0  0
  5  6  1  0  0  0
  6  7  1  0  0  0
  7  8  1  0  0  0
  8  9  1  0  0  0
  9 10  1  0  0  0
  9 11  1  0  0  0
 11 12  1  0  0  0
 11 13  1  0  0  0
 13 14  1  0  0  0
 14 15  1  0  0  0
 15 16  1  0  0  0
 16 17  1  0  0  0
 16 18  1  0  0  0
 18 19  1  0  0  0
 19 20  1  0  0  0
 20 21  2  0  0  0
 20 22  1  0  0  0
 22 23  1  0  0  0
 22 24  1  0  0  0
 22 25  1  0  0  0
 25 26  1  0  0  0
 25 27  1  0  0  0
 27 28  1  0  0  0
 27  2  1  0  0  0
 15  4  1  0  0  0
 27 16  1  0  0  0
 11  5  1  0  0  0
M  END
> <minimizedAffinity>
58.36076

> <CNNscore>
0.3851734996

> <CNNaffinity>
6.3116397858

> <CNN_VS>
2.4310762882

> <CNNaffinity_variance>
0.5204423666

$$$$
[H]C([H])([H])C1(C([H])([H])[H])C(=O)C([H])([H])C([H])([H])[C@]2(C([H])([H])[H])[C@@]3([H])C([H])([H])C([H])([H])[C@]4(C([H])([H])[H])[C@@]([H])(C([H])([H])[H])C([H])([H])C([H])([H])C([H])([H])[C@@]4([H])[C@]3([H])C([H])([H])[C@@]([H])(C([H])([H])[H])[C@]2(C([H])([H])[H])[C@]1([H])C([H])([H])[H]


 28 31  0  0  0  0  0  0  0  0999 V2000
   22.1023   10.5381   53.1478 C   0  0  0  0  0  0  0  0  0  0  0  0
   22.1623    9.1741   53.8596 C   0  0  0  0  0  0  0  0  0  0  0  0
   23.2906    9.3109   54.8450 C   0  0  0  0  0  0  0  0  0  0  0  0
   24.5846    8.8206   54.3590 C   0  0  0  0  0  0  0  0  0  0  0  0
   25.6000    8.8946   55.4973 C   0  0  0  0  0  0  0  0  0  0  0  0
   25.5251   10.1835   56.2455 C   0  0  0  0  0  0  0  0  0  0  0  0
   26.5918   10.1745   57.3156 C   0  0  0  0  0  0  0  0  0  0  0  0
   27.9522    9.8509   56.8068 C   0  0  0  0  0  0  0  0  0  0  0  0
   27.9657    8.5618   55.9968 C   0  0  0  0  0  0  0  0  0  0  0  0
   29.3631    8.3267   55.5403 C   0  0  0  0  0  0  0  0  0  0  0  0
   26.9552    8.6260   54.8832 C   0  0  0  0  0  0  0  0  0  0  0  0
   27.3800    9.7203   53.9360 C   0  0  0  0  0  0  0  0  0  0  0  0
   26.9423    7.3164   54.1903 C   0  0  0  0  0  0  0  0  0  0  0  0
   25.7922    7.1606   53.1833 C   0  0  0  0  0  0  0  0  0  0  0  0
   24.4818    7.3897   53.9513 C   0  0  0  0  0  0  0  0  0  0  0  0
   23.2574    6.9510   53.2599 C   0  0  0  0  0  0  0  0  0  0  0  0
   23.7590    6.2845   51.9536 C   0  0  0  0  0  0  0  0  0  0  0  0
   22.6774    5.7405   53.9791 C   0  0  0  0  0  0  0  0  0  0  0  0
   21.8846    6.0071   55.1832 C   0  0  0  0  0  0  0  0  0  0  0  0
   20.6066    6.6805   54.9848 C   0  0  0  0  0  0  0  0  0  0  0  0
   19.9770    6.9657   55.9752 O   0  0  0  0  0  0  0  0  0  0  0  0
   19.9579    7.0727   53.7094 C   0  0  0  0  0  0  0  0  0  0  0  0
   18.8839    8.1007   53.9770 C   0  0  0  0  0  0  0  0  0  0  0  0
   19.1499    5.8119   53.3146 C   0  0  0  0  0  0  0  0  0  0  0  0
   20.9000    7.3820   52.6153 C   0  0  0  0  0  0  0  0  0  0  0  0
   20.1623    8.0140   51.4662 C   0  0  0  0  0  0  0  0  0  0  0  0
   22.2228    8.0118   52.9483 C   0  0  0  0  0  0  0  0  0  0  0  0
   22.6721    8.6216   51.5997 C   0  0  0  0  0  0  0  0  0  0  0  0
  1  2  1  0  0  0
  2  3  1  0  0  0
  3  4  1  0  0  0
  4  5  1  0  0  0
  5  6  1  0  0  0
  6  7  1  0  0  0
  7  8  1  0  0  0
  8  9  1  0  0  0
  9 10  1  0  0  0
  9 11  1  0  0  0
 11 12  1  0  0  0
 11 13  1  0  0  0
 13 14  1  0  0  0
 14 15  1  0  0  0
 15 16  1  0  0  0
 16 17  1  0  0  0
 16 18  1  0  0  0
 18 19  1  0  0  0
 19 20  1  0  0  0
 20 21  2  0  0  0
 20 22  1  0  0  0
 22 23  1  0  0  0
 22 24  1  0  0  0
 22 25  1  0  0  0
 25 26  1  0  0  0
 25 27  1  0  0  0
 27 28  1  0  0  0
 27  2  1  0  0  0
 15  4  1  0  0  0
 27 16  1  0  0  0
 11  5  1  0  0  0
M  END
> <minimizedAffinity>
47.27290

> <CNNscore>
0.3753705621

> <CNNaffinity>
6.4885420799

> <CNN_VS>
2.4356076717

> <CNNaffinity_variance>
0.6384707689

$$$$
[H]C([H])([H])C1(C([H])([H])[H])C(=O)C([H])([H])C([H])([H])[C@]2(C([H])([H])[H])[C@@]3([H])C([H])([H])C([H])([H])[C@]4(C([H])([H])[H])[C@@]([H])(C([H])([H])[H])C([H])([H])C([H])([H])C([H])([H])[C@@]4([H])[C@]3([H])C([H])([H])[C@@]([H])(C([H])([H])[H])[C@]2(C([H])([H])[H])[C@]1([H])C([H])([H])[H]


 28 31  0  0  0  0  0  0  0  0999 V2000
   19.7301    8.8933   55.9054 C   0  0  0  0  0  0  0  0  0  0  0  0
   20.0135    8.5801   54.4248 C   0  0  0  0  0  0  0  0  0  0  0  0
   18.8622    7.7128   53.9944 C   0  0  0  0  0  0  0  0  0  0  0  0
   19.1224    6.2718   54.0785 C   0  0  0  0  0  0  0  0  0  0  0  0
   17.9310    5.5196   53.4894 C   0  0  0  0  0  0  0  0  0  0  0  0
   16.6235    6.0688   53.9537 C   0  0  0  0  0  0  0  0  0  0  0  0
   15.5170    5.2339   53.3526 C   0  0  0  0  0  0  0  0  0  0  0  0
   15.6728    3.7721   53.5830 C   0  0  0  0  0  0  0  0  0  0  0  0
   17.0445    3.2707   53.1528 C   0  0  0  0  0  0  0  0  0  0  0  0
   17.0972    1.8068   53.4188 C   0  0  0  0  0  0  0  0  0  0  0  0
   18.1327    4.0603   53.8295 C   0  0  0  0  0  0  0  0  0  0  0  0
   18.0380    3.8012   55.3124 C   0  0  0  0  0  0  0  0  0  0  0  0
   19.4387    3.5978   53.3045 C   0  0  0  0  0  0  0  0  0  0  0  0
   20.6239    4.4770   53.7326 C   0  0  0  0  0  0  0  0  0  0  0  0
   20.3194    5.9086   53.2664 C   0  0  0  0  0  0  0  0  0  0  0  0
   21.4662    6.8328   53.2683 C   0  0  0  0  0  0  0  0  0  0  0  0
   22.6777    5.9576   53.6790 C   0  0  0  0  0  0  0  0  0  0  0  0
   21.8462    7.1692   51.8325 C   0  0  0  0  0  0  0  0  0  0  0  0
   21.0405    8.1933   51.1606 C   0  0  0  0  0  0  0  0  0  0  0  0
   21.1682    9.5556   51.6644 C   0  0  0  0  0  0  0  0  0  0  0  0
   20.4587   10.3948   51.1633 O   0  0  0  0  0  0  0  0  0  0  0  0
   22.0666   10.0658   52.7291 C   0  0  0  0  0  0  0  0  0  0  0  0
   21.5748   11.4098   53.2126 C   0  0  0  0  0  0  0  0  0  0  0  0
   23.3659   10.4192   51.9642 C   0  0  0  0  0  0  0  0  0  0  0  0
   22.3976    9.0768   53.7745 C   0  0  0  0  0  0  0  0  0  0  0  0
   23.0851    9.7581   54.9264 C   0  0  0  0  0  0  0  0  0  0  0  0
   21.3687    8.0522   54.1607 C   0  0  0  0  0  0  0  0  0  0  0  0
   21.8550    7.5702   55.5476 C   0  0  0  0  0  0  0  0  0  0  0  0
  1  2  1  0  0  0
  2  3  1  0  0  0
  3  4  1  0  0  0
  4  5  1  0  0  0
  5  6  1  0  0  0
  6  7  1  0  0  0
  7  8  1  0  0  0
  8  9  1  0  0  0
  9 10  1  0  0  0
  9 11  1  0  0  0
 11 12  1  0  0  0
 11 13  1  0  0  0
 13 14  1  0  0  0
 14 15  1  0  0  0
 15 16  1  0  0  0
 16 17  1  0  0  0
 16 18  1  0  0  0
 18 19  1  0  0  0
 19 20  1  0  0  0
 20 21  2  0  0  0
 20 22  1  0  0  0
 22 23  1  0  0  0
 22 24  1  0  0  0
 22 25  1  0  0  0
 25 26  1  0  0  0
 25 27  1  0  0  0
 27 28  1  0  0  0
 27  2  1  0  0  0
 15  4  1  0  0  0
 27 16  1  0  0  0
 11  5  1  0  0  0
M  END
> <minimizedAffinity>
62.66148

> <CNNscore>
0.3737352788

> <CNNaffinity>
6.1503129005

> <CNN_VS>
2.2985889912

> <CNNaffinity_variance>
1.3020985126

$$$$
[H]C([H])([H])C1(C([H])([H])[H])C(=O)C([H])([H])C([H])([H])[C@]2(C([H])([H])[H])[C@@]3([H])C([H])([H])C([H])([H])[C@]4(C([H])([H])[H])[C@@]([H])(C([H])([H])[H])C([H])([H])C([H])([H])C([H])([H])[C@@]4([H])[C@]3([H])C([H])([H])[C@@]([H])(C([H])([H])[H])[C@]2(C([H])([H])[H])[C@]1([H])C([H])([H])[H]


 28 31  0  0  0  0  0  0  0  0999 V2000
   27.6657    7.8223   53.7779 C   0  0  0  0  0  0  0  0  0  0  0  0
   26.9069    8.0737   55.0939 C   0  0  0  0  0  0  0  0  0  0  0  0
   25.6421    7.2704   54.9607 C   0  0  0  0  0  0  0  0  0  0  0  0
   24.4915    8.0278   54.4570 C   0  0  0  0  0  0  0  0  0  0  0  0
   23.2544    7.1334   54.4998 C   0  0  0  0  0  0  0  0  0  0  0  0
   23.5255    5.7598   53.9840 C   0  0  0  0  0  0  0  0  0  0  0  0
   22.2366    4.9726   54.0280 C   0  0  0  0  0  0  0  0  0  0  0  0
   21.0931    5.6522   53.3610 C   0  0  0  0  0  0  0  0  0  0  0  0
   20.8960    7.0718   53.8747 C   0  0  0  0  0  0  0  0  0  0  0  0
   19.7337    7.6589   53.1529 C   0  0  0  0  0  0  0  0  0  0  0  0
   22.1688    7.8640   53.7423 C   0  0  0  0  0  0  0  0  0  0  0  0
   22.4840    7.9904   52.2727 C   0  0  0  0  0  0  0  0  0  0  0  0
   21.9497    9.2008   54.3426 C   0  0  0  0  0  0  0  0  0  0  0  0
   23.2341   10.0313   54.4888 C   0  0  0  0  0  0  0  0  0  0  0  0
   24.2165    9.2042   55.3316 C   0  0  0  0  0  0  0  0  0  0  0  0
   25.3653    9.9476   55.8768 C   0  0  0  0  0  0  0  0  0  0  0  0
   25.1168   11.4195   55.4594 C   0  0  0  0  0  0  0  0  0  0  0  0
   25.2202   10.0639   57.3882 C   0  0  0  0  0  0  0  0  0  0  0  0
   25.6188    8.8960   58.1800 C   0  0  0  0  0  0  0  0  0  0  0  0
   27.0414    8.5768   58.1976 C   0  0  0  0  0  0  0  0  0  0  0  0
   27.3723    7.5781   58.7907 O   0  0  0  0  0  0  0  0  0  0  0  0
   28.1629    9.3230   57.5758 C   0  0  0  0  0  0  0  0  0  0  0  0
   29.3780    8.4311   57.4771 C   0  0  0  0  0  0  0  0  0  0  0  0
   28.5630   10.3459   58.6674 C   0  0  0  0  0  0  0  0  0  0  0  0
   27.7978   10.0669   56.3536 C   0  0  0  0  0  0  0  0  0  0  0  0
   29.0399   10.5634   55.6648 C   0  0  0  0  0  0  0  0  0  0  0  0
   26.7454    9.5011   55.4427 C   0  0  0  0  0  0  0  0  0  0  0  0
   27.0010   10.2396   54.1078 C   0  0  0  0  0  0  0  0  0  0  0  0
  1  2  1  0  0  0
  2  3  1  0  0  0
  3  4  1  0  0  0
  4  5  1  0  0  0
  5  6  1  0  0  0
  6  7  1  0  0  0
  7  8  1  0  0  0
  8  9  1  0  0  0
  9 10  1  0  0  0
  9 11  1  0  0  0
 11 12  1  0  0  0
 11 13  1  0  0  0
 13 14  1  0  0  0
 14 15  1  0  0  0
 15 16  1  0  0  0
 16 17  1  0  0  0
 16 18  1  0  0  0
 18 19  1  0  0  0
 19 20  1  0  0  0
 20 21  2  0  0  0
 20 22  1  0  0  0
 22 23  1  0  0  0
 22 24  1  0  0  0
 22 25  1  0  0  0
 25 26  1  0  0  0
 25 27  1  0  0  0
 27 28  1  0  0  0
 27  2  1  0  0  0
 15  4  1  0  0  0
 27 16  1  0  0  0
 11  5  1  0  0  0
M  END
> <minimizedAffinity>
68.75826

> <CNNscore>
0.3439729810

> <CNNaffinity>
5.8916945457

> <CNN_VS>
2.0265836716

> <CNNaffinity_variance>
0.7588063478

$$$$
[H]C([H])([H])C1(C([H])([H])[H])C(=O)C([H])([H])C([H])([H])[C@]2(C([H])([H])[H])[C@@]3([H])C([H])([H])C([H])([H])[C@]4(C([H])([H])[H])[C@@]([H])(C([H])([H])[H])C([H])([H])C([H])([H])C([H])([H])[C@@]4([H])[C@]3([H])C([H])([H])[C@@]([H])(C([H])([H])[H])[C@]2(C([H])([H])[H])[C@]1([H])C([H])([H])[H]


 28 31  0  0  0  0  0  0  0  0999 V2000
   22.8942    5.3200   55.9390 C   0  0  0  0  0  0  0  0  0  0  0  0
   22.9089    6.3151   54.7642 C   0  0  0  0  0  0  0  0  0  0  0  0
   24.3684    6.5493   54.4850 C   0  0  0  0  0  0  0  0  0  0  0  0
   24.9326    7.7286   55.1500 C   0  0  0  0  0  0  0  0  0  0  0  0
   26.3715    7.9217   54.6760 C   0  0  0  0  0  0  0  0  0  0  0  0
   27.1397    6.6428   54.6492 C   0  0  0  0  0  0  0  0  0  0  0  0
   28.5534    6.9467   54.2110 C   0  0  0  0  0  0  0  0  0  0  0  0
   29.2083    8.0270   54.9974 C   0  0  0  0  0  0  0  0  0  0  0  0
   28.3583    9.2891   55.0492 C   0  0  0  0  0  0  0  0  0  0  0  0
   29.0987   10.3030   55.8495 C   0  0  0  0  0  0  0  0  0  0  0  0
   26.9806    8.9783   55.5696 C   0  0  0  0  0  0  0  0  0  0  0  0
   27.1203    8.5085   56.9960 C   0  0  0  0  0  0  0  0  0  0  0  0
   26.1696   10.2167   55.5084 C   0  0  0  0  0  0  0  0  0  0  0  0
   24.6754    9.9921   55.7874 C   0  0  0  0  0  0  0  0  0  0  0  0
   24.1742    8.9555   54.7707 C   0  0  0  0  0  0  0  0  0  0  0  0
   22.7107    8.8540   54.6386 C   0  0  0  0  0  0  0  0  0  0  0  0
   22.1529    9.9648   55.5645 C   0  0  0  0  0  0  0  0  0  0  0  0
   22.2877    9.3937   53.2788 C   0  0  0  0  0  0  0  0  0  0  0  0
   22.4392    8.4891   52.1350 C   0  0  0  0  0  0  0  0  0  0  0  0
   21.5615    7.3251   52.1054 C   0  0  0  0  0  0  0  0  0  0  0  0
   21.7241    6.5380   51.2040 O   0  0  0  0  0  0  0  0  0  0  0  0
   20.4738    6.9649   53.0478 C   0  0  0  0  0  0  0  0  0  0  0  0
   20.1252    5.5033   52.8917 C   0  0  0  0  0  0  0  0  0  0  0  0
   19.2361    7.6879   52.4615 C   0  0  0  0  0  0  0  0  0  0  0  0
   20.6798    7.4432   54.4295 C   0  0  0  0  0  0  0  0  0  0  0  0
   19.6702    6.8096   55.3478 C   0  0  0  0  0  0  0  0  0  0  0  0
   22.0782    7.5197   54.9737 C   0  0  0  0  0  0  0  0  0  0  0  0
   21.8590    7.5567   56.5044 C   0  0  0  0  0  0  0  0  0  0  0  0
  1  2  1  0  0  0
  2  3  1  0  0  0
  3  4  1  0  0  0
  4  5  1  0  0  0
  5  6  1  0  0  0
  6  7  1  0  0  0
  7  8  1  0  0  0
  8  9  1  0  0  0
  9 10  1  0  0  0
  9 11  1  0  0  0
 11 12  1  0  0  0
 11 13  1  0  0  0
 13 14  1  0  0  0
 14 15  1  0  0  0
 15 16  1  0  0  0
 16 17  1  0  0  0
 16 18  1  0  0  0
 18 19  1  0  0  0
 19 20  1  0  0  0
 20 21  2  0  0  0
 20 22  1  0  0  0
 22 23  1  0  0  0
 22 24  1  0  0  0
 22 25  1  0  0  0
 25 26  1  0  0  0
 25 27  1  0  0  0
 27 28  1  0  0  0
 27  2  1  0  0  0
 15  4  1  0  0  0
 27 16  1  0  0  0
 11  5  1  0  0  0
M  END
> <minimizedAffinity>
47.65356

> <CNNscore>
0.3336827457

> <CNNaffinity>
6.4184846878

> <CNN_VS>
2.1417376995

> <CNNaffinity_variance>
0.6675121188

$$$$
[H]C([H])([H])C1(C([H])([H])[H])C(=O)C([H])([H])C([H])([H])[C@]2(C([H])([H])[H])[C@@]3([H])C([H])([H])C([H])([H])[C@]4(C([H])([H])[H])[C@@]([H])(C([H])([H])[H])C([H])([H])C([H])([H])C([H])([H])[C@@]4([H])[C@]3([H])C([H])([H])[C@@]([H])(C([H])([H])[H])[C@]2(C([H])([H])[H])[C@]1([H])C([H])([H])[H]


 28 31  0  0  0  0  0  0  0  0999 V2000
   23.5572   11.3284   52.8469 C   0  0  0  0  0  0  0  0  0  0  0  0
   23.0960   10.2113   53.8009 C   0  0  0  0  0  0  0  0  0  0  0  0
   23.9631   10.3724   55.0195 C   0  0  0  0  0  0  0  0  0  0  0  0
   25.1615    9.5268   55.0286 C   0  0  0  0  0  0  0  0  0  0  0  0
   25.8713    9.6906   56.3709 C   0  0  0  0  0  0  0  0  0  0  0  0
   25.9632   11.1176   56.7972 C   0  0  0  0  0  0  0  0  0  0  0  0
   26.7152   11.1749   58.1064 C   0  0  0  0  0  0  0  0  0  0  0  0
   28.0244   10.4681   58.0802 C   0  0  0  0  0  0  0  0  0  0  0  0
   27.8890    9.0370   57.5785 C   0  0  0  0  0  0  0  0  0  0  0  0
   29.2438    8.4198   57.5943 C   0  0  0  0  0  0  0  0  0  0  0  0
   27.2140    9.0093   56.2335 C   0  0  0  0  0  0  0  0  0  0  0  0
   28.1141    9.7145   55.2499 C   0  0  0  0  0  0  0  0  0  0  0  0
   27.0216    7.5944   55.8382 C   0  0  0  0  0  0  0  0  0  0  0  0
   26.1341    7.4141   54.5969 C   0  0  0  0  0  0  0  0  0  0  0  0
   24.7876    8.0888   54.8992 C   0  0  0  0  0  0  0  0  0  0  0  0
   23.6845    7.7375   53.9886 C   0  0  0  0  0  0  0  0  0  0  0  0
   24.2826    6.6699   53.0375 C   0  0  0  0  0  0  0  0  0  0  0  0
   22.6610    6.8940   54.7371 C   0  0  0  0  0  0  0  0  0  0  0  0
   21.7095    7.6148   55.5885 C   0  0  0  0  0  0  0  0  0  0  0  0
   20.7311    8.4530   54.9057 C   0  0  0  0  0  0  0  0  0  0  0  0
   19.9868    9.1037   55.5993 O   0  0  0  0  0  0  0  0  0  0  0  0
   20.5178    8.6220   53.4472 C   0  0  0  0  0  0  0  0  0  0  0  0
   19.7155    9.8758   53.1898 C   0  0  0  0  0  0  0  0  0  0  0  0
   19.5237    7.4878   53.0956 C   0  0  0  0  0  0  0  0  0  0  0  0
   21.7333    8.4447   52.6279 C   0  0  0  0  0  0  0  0  0  0  0  0
   21.4696    8.8908   51.2153 C   0  0  0  0  0  0  0  0  0  0  0  0
   23.0609    8.8645   53.1926 C   0  0  0  0  0  0  0  0  0  0  0  0
   23.9507    9.0030   51.9350 C   0  0  0  0  0  0  0  0  0  0  0  0
  1  2  1  0  0  0
  2  3  1  0  0  0
  3  4  1  0  0  0
  4  5  1  0  0  0
  5  6  1  0  0  0
  6  7  1  0  0  0
  7  8  1  0  0  0
  8  9  1  0  0  0
  9 10  1  0  0  0
  9 11  1  0  0  0
 11 12  1  0  0  0
 11 13  1  0  0  0
 13 14  1  0  0  0
 14 15  1  0  0  0
 15 16  1  0  0  0
 16 17  1  0  0  0
 16 18  1  0  0  0
 18 19  1  0  0  0
 19 20  1  0  0  0
 20 21  2  0  0  0
 20 22  1  0  0  0
 22 23  1  0  0  0
 22 24  1  0  0  0
 22 25  1  0  0  0
 25 26  1  0  0  0
 25 27  1  0  0  0
 27 28  1  0  0  0
 27  2  1  0  0  0
 15  4  1  0  0  0
 27 16  1  0  0  0
 11  5  1  0  0  0
M  END
> <minimizedAffinity>
69.36790

> <CNNscore>
0.2854373455

> <CNNaffinity>
5.8948173523

> <CNN_VS>
1.6826009750

> <CNNaffinity_variance>
1.1880816221

$$$$
[H]OC(=O)[C@@]([H])(N([H])C(=O)[C@@]([H])(N([H])C(=O)[C@@]([H])(N([H])C(=O)[C@@]([H])(N([H])C(=O)[C@@]([H])(N([H])C(=O)[C@@]([H])(N([H])C(=O)c1c(O[H])c2c([H])c([H])c([H])c([H])c2n1[H])C([H])([H])c1c([H])c([H])c([H])c([H])c1[H])C([H])([H])C([H])(C([H])([H])[H])C([H])([H])[H])C([H])(C([H])([H])[H])C([H])([H])[H])C([H])(C([H])([H])[H])C([H])([H])[H])C([H])(C([H])([H])[H])C([H])([H])[H])C([H])([H])c1c([H])c([H])c([H])c([H])c1[H]


 73 76  0  0  0  0  0  0  0  0999 V2000
   28.2647   10.6785   58.0641 C   0  0  0  0  0  0  0  0  0  0  0  0
   28.2133   11.8569   57.6790 O   0  0  0  0  0  0  0  0  0  0  0  0
   27.8059    9.5470   57.3642 N   0  0  0  0  0  0  0  0  0  0  0  0
   27.9205    8.5971   57.7603 H   0  0  0  0  0  0  0  0  0  0  0  0
   27.1477    9.6130   56.0417 C   0  0  0  0  0  0  0  0  0  0  0  0
   25.7199    9.4149   56.2254 C   0  0  0  0  0  0  0  0  0  0  0  0
   25.3049    9.2626   57.4268 O   0  0  0  0  0  0  0  0  0  0  0  0
   24.7252    9.3678   55.2091 N   0  0  0  0  0  0  0  0  0  0  0  0
   25.0166    9.5277   54.2300 H   0  0  0  0  0  0  0  0  0  0  0  0
   23.3254    9.1027   55.6055 C   0  0  0  0  0  0  0  0  0  0  0  0
   22.6762    8.2448   54.5801 C   0  0  0  0  0  0  0  0  0  0  0  0
   23.4484    7.4119   54.0086 O   0  0  0  0  0  0  0  0  0  0  0  0
   21.3025    8.3376   54.2629 N   0  0  0  0  0  0  0  0  0  0  0  0
   20.7432    9.0542   54.7904 H   0  0  0  0  0  0  0  0  0  0  0  0
   20.6664    7.5168   53.2828 C   0  0  0  0  0  0  0  0  0  0  0  0
   20.6853    6.0813   53.6186 C   0  0  0  0  0  0  0  0  0  0  0  0
   21.7384    5.5479   54.0660 O   0  0  0  0  0  0  0  0  0  0  0  0
   19.5624    5.2283   53.4642 N   0  0  0  0  0  0  0  0  0  0  0  0
   18.6817    5.6292   53.1070 H   0  0  0  0  0  0  0  0  0  0  0  0
   19.5961    3.8194   53.7885 C   0  0  0  0  0  0  0  0  0  0  0  0
   19.7084    2.9925   52.5509 C   0  0  0  0  0  0  0  0  0  0  0  0
   19.1213    3.3620   51.3512 O   0  0  0  0  0  0  0  0  0  0  0  0
   20.3527    1.9020   52.5407 O   0  0  0  0  0  0  0  0  0  0  0  0
   18.3941    2.8255   50.8973 H   0  0  0  0  0  0  0  0  0  0  0  0
   18.4916    3.3967   54.6947 C   0  0  0  0  0  0  0  0  0  0  0  0
   17.1508    3.5734   54.1226 C   0  0  0  0  0  0  0  0  0  0  0  0
   16.5834    2.6193   53.3193 C   0  0  0  0  0  0  0  0  0  0  0  0
   15.3132    2.8331   52.8018 C   0  0  0  0  0  0  0  0  0  0  0  0
   14.6157    3.9868   53.0831 C   0  0  0  0  0  0  0  0  0  0  0  0
   15.2116    4.9270   53.8934 C   0  0  0  0  0  0  0  0  0  0  0  0
   16.4659    4.7174   54.4053 C   0  0  0  0  0  0  0  0  0  0  0  0
   21.2435    7.7495   51.8889 C   0  0  0  0  0  0  0  0  0  0  0  0
   22.5054    7.0156   51.6196 C   0  0  0  0  0  0  0  0  0  0  0  0
   21.2467    9.2072   51.5308 C   0  0  0  0  0  0  0  0  0  0  0  0
   22.6396   10.4337   55.7501 C   0  0  0  0  0  0  0  0  0  0  0  0
   22.7240   11.2371   54.4999 C   0  0  0  0  0  0  0  0  0  0  0  0
   21.2475   10.2989   56.2962 C   0  0  0  0  0  0  0  0  0  0  0  0
   27.7435    8.4420   55.2072 C   0  0  0  0  0  0  0  0  0  0  0  0
   26.8913    8.1495   54.0187 C   0  0  0  0  0  0  0  0  0  0  0  0
   29.1349    8.8431   54.8144 C   0  0  0  0  0  0  0  0  0  0  0  0
   28.8791   10.3727   59.4259 C   0  0  0  0  0  0  0  0  0  0  0  0
   30.0755   11.1118   59.5898 N   0  0  0  0  0  0  0  0  0  0  0  0
   31.0590   10.8573   60.5672 C   0  0  0  0  0  0  0  0  0  0  0  0
   30.8721    9.8509   61.3375 O   0  0  0  0  0  0  0  0  0  0  0  0
   30.2794   11.9583   58.9315 H   0  0  0  0  0  0  0  0  0  0  0  0
   32.2646   11.6246   60.8045 C   0  0  0  0  0  0  0  0  0  0  0  0
   31.9786   13.0533   61.0252 N   0  0  0  0  0  0  0  0  0  0  0  0
   32.7239   14.0584   60.3919 C   0  0  0  0  0  0  0  0  0  0  0  0
   33.6676   13.7814   59.6154 O   0  0  0  0  0  0  0  0  0  0  0  0
   31.2056   13.3206   61.6676 H   0  0  0  0  0  0  0  0  0  0  0  0
   32.4094   15.4664   60.6243 C   0  0  0  0  0  0  0  0  0  0  0  0
   31.3523   15.9462   61.3128 N   0  0  0  0  0  0  0  0  0  0  0  0
   31.3709   17.2835   61.3252 C   0  0  0  0  0  0  0  0  0  0  0  0
   30.5183   18.2429   61.8883 C   0  0  0  0  0  0  0  0  0  0  0  0
   30.7872   19.5835   61.7358 C   0  0  0  0  0  0  0  0  0  0  0  0
   31.8954   19.9913   61.0279 C   0  0  0  0  0  0  0  0  0  0  0  0
   32.7339   19.0288   60.4752 C   0  0  0  0  0  0  0  0  0  0  0  0
   32.4658   17.6978   60.6276 C   0  0  0  0  0  0  0  0  0  0  0  0
   33.1271   16.5533   60.1815 C   0  0  0  0  0  0  0  0  0  0  0  0
   34.2800   16.6157   59.4411 O   0  0  0  0  0  0  0  0  0  0  0  0
   30.6216   15.3577   61.7713 H   0  0  0  0  0  0  0  0  0  0  0  0
   34.8178   15.8649   59.0811 H   0  0  0  0  0  0  0  0  0  0  0  0
   33.4095   11.1487   61.5678 C   0  0  0  0  0  0  0  0  0  0  0  0
   33.3579   10.8899   62.9860 C   0  0  0  0  0  0  0  0  0  0  0  0
   33.1603   11.8968   63.8935 C   0  0  0  0  0  0  0  0  0  0  0  0
   33.0994   11.6975   65.2507 C   0  0  0  0  0  0  0  0  0  0  0  0
   33.2415   10.4242   65.7707 C   0  0  0  0  0  0  0  0  0  0  0  0
   33.4399    9.4031   64.8856 C   0  0  0  0  0  0  0  0  0  0  0  0
   33.4998    9.6066   63.5265 C   0  0  0  0  0  0  0  0  0  0  0  0
   27.7995   10.5417   60.4005 C   0  0  0  0  0  0  0  0  0  0  0  0
   27.4031   10.3069   62.7639 C   0  0  0  0  0  0  0  0  0  0  0  0
   27.9494   11.2707   61.6594 C   0  0  0  0  0  0  0  0  0  0  0  0
   27.1862   12.5271   61.8664 C   0  0  0  0  0  0  0  0  0  0  0  0
 71 72  1  0  0  0
 72 73  1  0  0  0
 72 70  1  0  0  0
 70 41  1  0  0  0
 41 42  1  0  0  0
 42 43  1  0  0  0
 43 44  2  0  0  0
 43 46  1  0  0  0
 46 63  1  0  0  0
 63 64  1  0  0  0
 64 65  2  0  0  0
 65 66  1  0  0  0
 66 67  2  0  0  0
 67 68  1  0  0  0
 68 69  2  0  0  0
 46 47  1  0  0  0
 47 48  1  0  0  0
 48 49  2  0  0  0
 48 51  1  0  0  0
 51 52  1  0  0  0
 52 53  1  0  0  0
 53 54  2  0  0  0
 54 55  1  0  0  0
 55 56  2  0  0  0
 56 57  1  0  0  0
 57 58  2  0  0  0
 58 59  1  0  0  0
 59 60  1  0  0  0
 41  1  1  0  0  0
  1  2  2  0  0  0
  1  3  1  0  0  0
  3  5  1  0  0  0
  5 38  1  0  0  0
 38 39  1  0  0  0
 38 40  1  0  0  0
  5  6  1  0  0  0
  6  7  2  0  0  0
  6  8  1  0  0  0
  8 10  1  0  0  0
 10 35  1  0  0  0
 35 36  1  0  0  0
 35 37  1  0  0  0
 10 11  1  0  0  0
 11 12  2  0  0  0
 11 13  1  0  0  0
 13 15  1  0  0  0
 15 32  1  0  0  0
 32 33  1  0  0  0
 32 34  1  0  0  0
 15 16  1  0  0  0
 16 17  2  0  0  0
 16 18  1  0  0  0
 18 20  1  0  0  0
 20 25  1  0  0  0
 25 26  1  0  0  0
 26 27  2  0  0  0
 27 28  1  0  0  0
 28 29  2  0  0  0
 29 30  1  0  0  0
 30 31  2  0  0  0
 20 21  1  0  0  0
 21 22  1  0  0  0
 21 23  2  0  0  0
 69 64  1  0  0  0
 59 51  2  0  0  0
 31 26  1  0  0  0
 58 53  1  0  0  0
 42 45  1  0  0  0
 47 50  1  0  0  0
 52 61  1  0  0  0
 60 62  1  0  0  0
  3  4  1  0  0  0
  8  9  1  0  0  0
 13 14  1  0  0  0
 18 19  1  0  0  0
 22 24  1  0  0  0
M  END
> <minimizedAffinity>
15.76725

> <CNNscore>
0.5836759806

> <CNNaffinity>
7.7043123245

> <CNN_VS>
4.4968218803

> <CNNaffinity_variance>
0.5719616413

$$$$
[H]OC(=O)[C@@]([H])(N([H])C(=O)[C@@]([H])(N([H])C(=O)[C@@]([H])(N([H])C(=O)[C@@]([H])(N([H])C(=O)[C@@]([H])(N([H])C(=O)[C@@]([H])(N([H])C(=O)c1c(O[H])c2c([H])c([H])c([H])c([H])c2n1[H])C([H])([H])c1c([H])c([H])c([H])c([H])c1[H])C([H])([H])C([H])(C([H])([H])[H])C([H])([H])[H])C([H])(C([H])([H])[H])C([H])([H])[H])C([H])(C([H])([H])[H])C([H])([H])[H])C([H])(C([H])([H])[H])C([H])([H])[H])C([H])([H])c1c([H])c([H])c([H])c([H])c1[H]


 73 76  0  0  0  0  0  0  0  0999 V2000
   25.3955    8.6750   55.1396 C   0  0  0  0  0  0  0  0  0  0  0  0
   24.5413    8.7228   56.0382 O   0  0  0  0  0  0  0  0  0  0  0  0
   25.2184    8.1622   53.8410 N   0  0  0  0  0  0  0  0  0  0  0  0
   25.9889    8.1934   53.1499 H   0  0  0  0  0  0  0  0  0  0  0  0
   23.9553    7.5599   53.3633 C   0  0  0  0  0  0  0  0  0  0  0  0
   22.8780    8.5104   53.5819 C   0  0  0  0  0  0  0  0  0  0  0  0
   22.0437    8.2379   54.5137 O   0  0  0  0  0  0  0  0  0  0  0  0
   22.6447    9.7181   52.8666 N   0  0  0  0  0  0  0  0  0  0  0  0
   23.3209    9.9925   52.1341 H   0  0  0  0  0  0  0  0  0  0  0  0
   21.4540   10.5234   53.2138 C   0  0  0  0  0  0  0  0  0  0  0  0
   21.2282   11.5491   52.1622 C   0  0  0  0  0  0  0  0  0  0  0  0
   21.2101   11.1035   50.9715 O   0  0  0  0  0  0  0  0  0  0  0  0
   21.0406   12.9182   52.4563 N   0  0  0  0  0  0  0  0  0  0  0  0
   21.0689   13.1917   53.4707 H   0  0  0  0  0  0  0  0  0  0  0  0
   20.8192   13.9125   51.4556 C   0  0  0  0  0  0  0  0  0  0  0  0
   22.0242   14.6985   51.1333 C   0  0  0  0  0  0  0  0  0  0  0  0
   23.1513   14.1339   51.0671 O   0  0  0  0  0  0  0  0  0  0  0  0
   22.0027   16.0955   50.8876 N   0  0  0  0  0  0  0  0  0  0  0  0
   21.0990   16.5911   50.9266 H   0  0  0  0  0  0  0  0  0  0  0  0
   23.1933   16.8572   50.5814 C   0  0  0  0  0  0  0  0  0  0  0  0
   23.2258   18.1282   51.3633 C   0  0  0  0  0  0  0  0  0  0  0  0
   24.1562   18.3658   52.3624 O   0  0  0  0  0  0  0  0  0  0  0  0
   22.3940   19.0588   51.1469 O   0  0  0  0  0  0  0  0  0  0  0  0
   23.9096   18.5013   53.3338 H   0  0  0  0  0  0  0  0  0  0  0  0
   23.4124   17.0457   49.1198 C   0  0  0  0  0  0  0  0  0  0  0  0
   24.5293   17.9421   48.7954 C   0  0  0  0  0  0  0  0  0  0  0  0
   25.7940   17.7114   49.2698 C   0  0  0  0  0  0  0  0  0  0  0  0
   26.8167   18.5885   48.9356 C   0  0  0  0  0  0  0  0  0  0  0  0
   26.5805   19.6845   48.1358 C   0  0  0  0  0  0  0  0  0  0  0  0
   25.2997   19.8900   47.6740 C   0  0  0  0  0  0  0  0  0  0  0  0
   24.2887   19.0247   48.0031 C   0  0  0  0  0  0  0  0  0  0  0  0
   19.6589   14.8346   51.8209 C   0  0  0  0  0  0  0  0  0  0  0  0
   19.7365   16.1856   51.2107 C   0  0  0  0  0  0  0  0  0  0  0  0
   19.3701   14.7989   53.2935 C   0  0  0  0  0  0  0  0  0  0  0  0
   21.7054   11.1385   54.5633 C   0  0  0  0  0  0  0  0  0  0  0  0
   20.8013   10.5764   55.6036 C   0  0  0  0  0  0  0  0  0  0  0  0
   23.1591   11.1106   54.9381 C   0  0  0  0  0  0  0  0  0  0  0  0
   23.7286    6.2905   54.2349 C   0  0  0  0  0  0  0  0  0  0  0  0
   22.3905    6.3295   54.8922 C   0  0  0  0  0  0  0  0  0  0  0  0
   23.8746    5.1022   53.3305 C   0  0  0  0  0  0  0  0  0  0  0  0
   26.7938    9.2150   55.4203 C   0  0  0  0  0  0  0  0  0  0  0  0
   26.8054    9.8956   56.6617 N   0  0  0  0  0  0  0  0  0  0  0  0
   27.9247   10.5458   57.2201 C   0  0  0  0  0  0  0  0  0  0  0  0
   29.0019   10.5562   56.5267 O   0  0  0  0  0  0  0  0  0  0  0  0
   25.8962    9.9303   57.2647 H   0  0  0  0  0  0  0  0  0  0  0  0
   27.9927   11.2004   58.5106 C   0  0  0  0  0  0  0  0  0  0  0  0
   29.1205   10.7103   59.3226 N   0  0  0  0  0  0  0  0  0  0  0  0
   28.9457   10.3029   60.6532 C   0  0  0  0  0  0  0  0  0  0  0  0
   27.8226   10.3442   61.2073 O   0  0  0  0  0  0  0  0  0  0  0  0
   30.0686   10.6672   58.8972 H   0  0  0  0  0  0  0  0  0  0  0  0
   30.0827    9.8127   61.4294 C   0  0  0  0  0  0  0  0  0  0  0  0
   30.3185    8.5306   61.7791 N   0  0  0  0  0  0  0  0  0  0  0  0
   31.4471    8.4405   62.4910 C   0  0  0  0  0  0  0  0  0  0  0  0
   32.1181    7.3602   63.0802 C   0  0  0  0  0  0  0  0  0  0  0  0
   33.2878    7.5665   63.7744 C   0  0  0  0  0  0  0  0  0  0  0  0
   33.8063    8.8361   63.8956 C   0  0  0  0  0  0  0  0  0  0  0  0
   33.1311    9.8993   63.3051 C   0  0  0  0  0  0  0  0  0  0  0  0
   31.9696    9.6929   62.6158 C   0  0  0  0  0  0  0  0  0  0  0  0
   31.1113   10.5657   61.9464 C   0  0  0  0  0  0  0  0  0  0  0  0
   31.3472   11.9151   61.8777 O   0  0  0  0  0  0  0  0  0  0  0  0
   29.7066    7.7218   61.5302 H   0  0  0  0  0  0  0  0  0  0  0  0
   30.8005   12.6101   61.4298 H   0  0  0  0  0  0  0  0  0  0  0  0
   27.6956   12.6072   58.7395 C   0  0  0  0  0  0  0  0  0  0  0  0
   28.2680   13.3667   59.8241 C   0  0  0  0  0  0  0  0  0  0  0  0
   27.8579   13.1911   61.1192 C   0  0  0  0  0  0  0  0  0  0  0  0
   28.3767   13.8871   62.1832 C   0  0  0  0  0  0  0  0  0  0  0  0
   29.3696   14.8272   61.9778 C   0  0  0  0  0  0  0  0  0  0  0  0
   29.7952   15.0207   60.6945 C   0  0  0  0  0  0  0  0  0  0  0  0
   29.2735   14.3212   59.6313 C   0  0  0  0  0  0  0  0  0  0  0  0
   27.7072    8.0886   55.2181 C   0  0  0  0  0  0  0  0  0  0  0  0
   29.9562    8.2107   54.3667 C   0  0  0  0  0  0  0  0  0  0  0  0
   28.4748    7.8762   53.9916 C   0  0  0  0  0  0  0  0  0  0  0  0
   28.2009    8.7276   52.8067 C   0  0  0  0  0  0  0  0  0  0  0  0
 71 72  1  0  0  0
 72 73  1  0  0  0
 72 70  1  0  0  0
 70 41  1  0  0  0
 41 42  1  0  0  0
 42 43  1  0  0  0
 43 44  2  0  0  0
 43 46  1  0  0  0
 46 63  1  0  0  0
 63 64  1  0  0  0
 64 65  2  0  0  0
 65 66  1  0  0  0
 66 67  2  0  0  0
 67 68  1  0  0  0
 68 69  2  0  0  0
 46 47  1  0  0  0
 47 48  1  0  0  0
 48 49  2  0  0  0
 48 51  1  0  0  0
 51 52  1  0  0  0
 52 53  1  0  0  0
 53 54  2  0  0  0
 54 55  1  0  0  0
 55 56  2  0  0  0
 56 57  1  0  0  0
 57 58  2  0  0  0
 58 59  1  0  0  0
 59 60  1  0  0  0
 41  1  1  0  0  0
  1  2  2  0  0  0
  1  3  1  0  0  0
  3  5  1  0  0  0
  5 38  1  0  0  0
 38 39  1  0  0  0
 38 40  1  0  0  0
  5  6  1  0  0  0
  6  7  2  0  0  0
  6  8  1  0  0  0
  8 10  1  0  0  0
 10 35  1  0  0  0
 35 36  1  0  0  0
 35 37  1  0  0  0
 10 11  1  0  0  0
 11 12  2  0  0  0
 11 13  1  0  0  0
 13 15  1  0  0  0
 15 32  1  0  0  0
 32 33  1  0  0  0
 32 34  1  0  0  0
 15 16  1  0  0  0
 16 17  2  0  0  0
 16 18  1  0  0  0
 18 20  1  0  0  0
 20 25  1  0  0  0
 25 26  1  0  0  0
 26 27  2  0  0  0
 27 28  1  0  0  0
 28 29  2  0  0  0
 29 30  1  0  0  0
 30 31  2  0  0  0
 20 21  1  0  0  0
 21 22  1  0  0  0
 21 23  2  0  0  0
 69 64  1  0  0  0
 59 51  2  0  0  0
 31 26  1  0  0  0
 58 53  1  0  0  0
 42 45  1  0  0  0
 47 50  1  0  0  0
 52 61  1  0  0  0
 60 62  1  0  0  0
  3  4  1  0  0  0
  8  9  1  0  0  0
 13 14  1  0  0  0
 18 19  1  0  0  0
 22 24  1  0  0  0
M  END
> <minimizedAffinity>
17.92220

> <CNNscore>
0.5510525107

> <CNNaffinity>
7.6601471901

> <CNN_VS>
4.2211432457

> <CNNaffinity_variance>
1.7075250149

$$$$
[H]OC(=O)[C@@]([H])(N([H])C(=O)[C@@]([H])(N([H])C(=O)[C@@]([H])(N([H])C(=O)[C@@]([H])(N([H])C(=O)[C@@]([H])(N([H])C(=O)[C@@]([H])(N([H])C(=O)c1c(O[H])c2c([H])c([H])c([H])c([H])c2n1[H])C([H])([H])c1c([H])c([H])c([H])c([H])c1[H])C([H])([H])C([H])(C([H])([H])[H])C([H])([H])[H])C([H])(C([H])([H])[H])C([H])([H])[H])C([H])(C([H])([H])[H])C([H])([H])[H])C([H])(C([H])([H])[H])C([H])([H])[H])C([H])([H])c1c([H])c([H])c([H])c([H])c1[H]


 73 76  0  0  0  0  0  0  0  0999 V2000
   24.9138    8.4334   54.8369 C   0  0  0  0  0  0  0  0  0  0  0  0
   24.0686    8.7940   55.6707 O   0  0  0  0  0  0  0  0  0  0  0  0
   24.6663    7.7331   53.6415 N   0  0  0  0  0  0  0  0  0  0  0  0
   25.4404    7.5014   52.9938 H   0  0  0  0  0  0  0  0  0  0  0  0
   23.3221    7.2874   53.2163 C   0  0  0  0  0  0  0  0  0  0  0  0
   22.3804    8.3689   53.4517 C   0  0  0  0  0  0  0  0  0  0  0  0
   21.4061    8.1276   54.2461 O   0  0  0  0  0  0  0  0  0  0  0  0
   22.4205    9.6754   52.8895 N   0  0  0  0  0  0  0  0  0  0  0  0
   23.2153    9.9208   52.2754 H   0  0  0  0  0  0  0  0  0  0  0  0
   21.3299   10.6179   53.2199 C   0  0  0  0  0  0  0  0  0  0  0  0
   21.1920   11.6156   52.1269 C   0  0  0  0  0  0  0  0  0  0  0  0
   21.2288   11.1334   50.9509 O   0  0  0  0  0  0  0  0  0  0  0  0
   21.0256   12.9976   52.3687 N   0  0  0  0  0  0  0  0  0  0  0  0
   21.0041   13.3020   53.3744 H   0  0  0  0  0  0  0  0  0  0  0  0
   20.8882   13.9653   51.3277 C   0  0  0  0  0  0  0  0  0  0  0  0
   22.1138   14.7499   51.0912 C   0  0  0  0  0  0  0  0  0  0  0  0
   23.2424   14.1846   51.1073 O   0  0  0  0  0  0  0  0  0  0  0  0
   22.1111   16.1464   50.8415 N   0  0  0  0  0  0  0  0  0  0  0  0
   21.2072   16.6426   50.8143 H   0  0  0  0  0  0  0  0  0  0  0  0
   23.3211   16.9068   50.6200 C   0  0  0  0  0  0  0  0  0  0  0  0
   23.2883   18.1901   51.3815 C   0  0  0  0  0  0  0  0  0  0  0  0
   22.3873   19.2037   51.0965 O   0  0  0  0  0  0  0  0  0  0  0  0
   24.0924   18.4142   52.3343 O   0  0  0  0  0  0  0  0  0  0  0  0
   22.6637   20.1217   50.7744 H   0  0  0  0  0  0  0  0  0  0  0  0
   23.6570   17.0729   49.1780 C   0  0  0  0  0  0  0  0  0  0  0  0
   24.7290   18.0436   48.9237 C   0  0  0  0  0  0  0  0  0  0  0  0
   24.5358   19.1264   48.1066 C   0  0  0  0  0  0  0  0  0  0  0  0
   25.5807   20.0158   47.8969 C   0  0  0  0  0  0  0  0  0  0  0  0
   26.8061   19.8273   48.4968 C   0  0  0  0  0  0  0  0  0  0  0  0
   26.9700   18.7305   49.3128 C   0  0  0  0  0  0  0  0  0  0  0  0
   25.9390   17.8513   49.5209 C   0  0  0  0  0  0  0  0  0  0  0  0
   19.6974   14.8896   51.5677 C   0  0  0  0  0  0  0  0  0  0  0  0
   19.7597   16.1725   50.8234 C   0  0  0  0  0  0  0  0  0  0  0  0
   19.3701   14.9976   53.0287 C   0  0  0  0  0  0  0  0  0  0  0  0
   21.6743   11.2603   54.5357 C   0  0  0  0  0  0  0  0  0  0  0  0
   20.8636   10.7015   55.6520 C   0  0  0  0  0  0  0  0  0  0  0  0
   23.1530   11.2626   54.7968 C   0  0  0  0  0  0  0  0  0  0  0  0
   22.9685    6.0695   54.1185 C   0  0  0  0  0  0  0  0  0  0  0  0
   24.2033    5.4425   54.6722 C   0  0  0  0  0  0  0  0  0  0  0  0
   22.0604    6.5717   55.2022 C   0  0  0  0  0  0  0  0  0  0  0  0
   26.3826    8.7591   55.0858 C   0  0  0  0  0  0  0  0  0  0  0  0
   26.5980    8.9795   56.4677 N   0  0  0  0  0  0  0  0  0  0  0  0
   27.8035    9.4367   57.0381 C   0  0  0  0  0  0  0  0  0  0  0  0
   28.7625    9.7146   56.2355 O   0  0  0  0  0  0  0  0  0  0  0  0
   25.7922    8.7798   57.1764 H   0  0  0  0  0  0  0  0  0  0  0  0
   28.0815    9.6178   58.4482 C   0  0  0  0  0  0  0  0  0  0  0  0
   27.7908    8.4039   59.2315 N   0  0  0  0  0  0  0  0  0  0  0  0
   28.8118    7.6608   59.8414 C   0  0  0  0  0  0  0  0  0  0  0  0
   30.0147    7.9971   59.7405 O   0  0  0  0  0  0  0  0  0  0  0  0
   26.8039    8.0917   59.3322 H   0  0  0  0  0  0  0  0  0  0  0  0
   28.4901    6.4665   60.6196 C   0  0  0  0  0  0  0  0  0  0  0  0
   27.7450    5.4198   60.2061 N   0  0  0  0  0  0  0  0  0  0  0  0
   27.6498    4.5024   61.1747 C   0  0  0  0  0  0  0  0  0  0  0  0
   27.0018    3.2621   61.2516 C   0  0  0  0  0  0  0  0  0  0  0  0
   27.0721    2.5140   62.4041 C   0  0  0  0  0  0  0  0  0  0  0  0
   27.7788    2.9798   63.4899 C   0  0  0  0  0  0  0  0  0  0  0  0
   28.4182    4.2119   63.3999 C   0  0  0  0  0  0  0  0  0  0  0  0
   28.3478    4.9537   62.2546 C   0  0  0  0  0  0  0  0  0  0  0  0
   28.8819    6.1956   61.9101 C   0  0  0  0  0  0  0  0  0  0  0  0
   29.6473    6.9299   62.7797 O   0  0  0  0  0  0  0  0  0  0  0  0
   27.3038    5.3366   59.2633 H   0  0  0  0  0  0  0  0  0  0  0  0
   30.0670    7.8151   62.6284 H   0  0  0  0  0  0  0  0  0  0  0  0
   29.2022   10.3819   58.9774 C   0  0  0  0  0  0  0  0  0  0  0  0
   29.0559   11.3900   59.9987 C   0  0  0  0  0  0  0  0  0  0  0  0
   29.6468   11.2591   61.2276 C   0  0  0  0  0  0  0  0  0  0  0  0
   29.5392   12.1939   62.2276 C   0  0  0  0  0  0  0  0  0  0  0  0
   28.8015   13.3453   62.0229 C   0  0  0  0  0  0  0  0  0  0  0  0
   28.2021   13.4987   60.8052 C   0  0  0  0  0  0  0  0  0  0  0  0
   28.3127   12.5603   59.8056 C   0  0  0  0  0  0  0  0  0  0  0  0
   27.1469    7.7122   54.4049 C   0  0  0  0  0  0  0  0  0  0  0  0
   29.5498    7.8669   54.4026 C   0  0  0  0  0  0  0  0  0  0  0  0
   28.2710    7.9806   53.5088 C   0  0  0  0  0  0  0  0  0  0  0  0
   28.3911    9.3175   52.8745 C   0  0  0  0  0  0  0  0  0  0  0  0
 71 72  1  0  0  0
 72 73  1  0  0  0
 72 70  1  0  0  0
 70 41  1  0  0  0
 41 42  1  0  0  0
 42 43  1  0  0  0
 43 44  2  0  0  0
 43 46  1  0  0  0
 46 63  1  0  0  0
 63 64  1  0  0  0
 64 65  2  0  0  0
 65 66  1  0  0  0
 66 67  2  0  0  0
 67 68  1  0  0  0
 68 69  2  0  0  0
 46 47  1  0  0  0
 47 48  1  0  0  0
 48 49  2  0  0  0
 48 51  1  0  0  0
 51 52  1  0  0  0
 52 53  1  0  0  0
 53 54  2  0  0  0
 54 55  1  0  0  0
 55 56  2  0  0  0
 56 57  1  0  0  0
 57 58  2  0  0  0
 58 59  1  0  0  0
 59 60  1  0  0  0
 41  1  1  0  0  0
  1  2  2  0  0  0
  1  3  1  0  0  0
  3  5  1  0  0  0
  5 38  1  0  0  0
 38 39  1  0  0  0
 38 40  1  0  0  0
  5  6  1  0  0  0
  6  7  2  0  0  0
  6  8  1  0  0  0
  8 10  1  0  0  0
 10 35  1  0  0  0
 35 36  1  0  0  0
 35 37  1  0  0  0
 10 11  1  0  0  0
 11 12  2  0  0  0
 11 13  1  0  0  0
 13 15  1  0  0  0
 15 32  1  0  0  0
 32 33  1  0  0  0
 32 34  1  0  0  0
 15 16  1  0  0  0
 16 17  2  0  0  0
 16 18  1  0  0  0
 18 20  1  0  0  0
 20 25  1  0  0  0
 25 26  1  0  0  0
 26 27  2  0  0  0
 27 28  1  0  0  0
 28 29  2  0  0  0
 29 30  1  0  0  0
 30 31  2  0  0  0
 20 21  1  0  0  0
 21 22  1  0  0  0
 21 23  2  0  0  0
 69 64  1  0  0  0
 59 51  2  0  0  0
 31 26  1  0  0  0
 58 53  1  0  0  0
 42 45  1  0  0  0
 47 50  1  0  0  0
 52 61  1  0  0  0
 60 62  1  0  0  0
  3  4  1  0  0  0
  8  9  1  0  0  0
 13 14  1  0  0  0
 18 19  1  0  0  0
 22 24  1  0  0  0
M  END
> <minimizedAffinity>
17.54304

> <CNNscore>
0.5434080362

> <CNNaffinity>
7.6501059532

> <CNN_VS>
4.1571292877

> <CNNaffinity_variance>
1.9749205112

$$$$
[H]OC(=O)[C@@]([H])(N([H])C(=O)[C@@]([H])(N([H])C(=O)[C@@]([H])(N([H])C(=O)[C@@]([H])(N([H])C(=O)[C@@]([H])(N([H])C(=O)[C@@]([H])(N([H])C(=O)c1c(O[H])c2c([H])c([H])c([H])c([H])c2n1[H])C([H])([H])c1c([H])c([H])c([H])c([H])c1[H])C([H])([H])C([H])(C([H])([H])[H])C([H])([H])[H])C([H])(C([H])([H])[H])C([H])([H])[H])C([H])(C([H])([H])[H])C([H])([H])[H])C([H])(C([H])([H])[H])C([H])([H])[H])C([H])([H])c1c([H])c([H])c([H])c([H])c1[H]


 73 76  0  0  0  0  0  0  0  0999 V2000
   24.9280    9.0849   55.4286 C   0  0  0  0  0  0  0  0  0  0  0  0
   24.9228    8.0473   54.7482 O   0  0  0  0  0  0  0  0  0  0  0  0
   25.9944    9.5713   56.2075 N   0  0  0  0  0  0  0  0  0  0  0  0
   25.9102   10.4674   56.7196 H   0  0  0  0  0  0  0  0  0  0  0  0
   27.2889    8.8715   56.3525 C   0  0  0  0  0  0  0  0  0  0  0  0
   27.9515    9.3674   57.5469 C   0  0  0  0  0  0  0  0  0  0  0  0
   28.7433   10.3626   57.4006 O   0  0  0  0  0  0  0  0  0  0  0  0
   27.8187    8.8628   58.8707 N   0  0  0  0  0  0  0  0  0  0  0  0
   27.1568    8.0858   59.0351 H   0  0  0  0  0  0  0  0  0  0  0  0
   28.6260    9.4814   59.9443 C   0  0  0  0  0  0  0  0  0  0  0  0
   28.6397   10.9565   59.7636 C   0  0  0  0  0  0  0  0  0  0  0  0
   28.1148   11.3708   58.6821 O   0  0  0  0  0  0  0  0  0  0  0  0
   29.1877   11.8397   60.7207 N   0  0  0  0  0  0  0  0  0  0  0  0
   29.5967   11.4045   61.5855 H   0  0  0  0  0  0  0  0  0  0  0  0
   29.2035   13.2586   60.5606 C   0  0  0  0  0  0  0  0  0  0  0  0
   30.5387   13.8548   60.7483 C   0  0  0  0  0  0  0  0  0  0  0  0
   31.5026   13.1416   61.1429 O   0  0  0  0  0  0  0  0  0  0  0  0
   30.8229   15.2242   60.5105 N   0  0  0  0  0  0  0  0  0  0  0  0
   30.0620   15.8377   60.1810 H   0  0  0  0  0  0  0  0  0  0  0  0
   32.1351   15.7994   60.7071 C   0  0  0  0  0  0  0  0  0  0  0  0
   32.2496   16.4083   62.0651 C   0  0  0  0  0  0  0  0  0  0  0  0
   31.2421   17.1779   62.6248 O   0  0  0  0  0  0  0  0  0  0  0  0
   33.2854   16.2479   62.7763 O   0  0  0  0  0  0  0  0  0  0  0  0
   31.3510   18.1561   62.8572 H   0  0  0  0  0  0  0  0  0  0  0  0
   32.5504   16.7105   59.6038 C   0  0  0  0  0  0  0  0  0  0  0  0
   31.7823   17.9605   59.5422 C   0  0  0  0  0  0  0  0  0  0  0  0
   30.4703   17.9762   59.1473 C   0  0  0  0  0  0  0  0  0  0  0  0
   29.7868   19.1836   59.1048 C   0  0  0  0  0  0  0  0  0  0  0  0
   30.4057   20.3636   59.4532 C   0  0  0  0  0  0  0  0  0  0  0  0
   31.7244   20.3162   59.8461 C   0  0  0  0  0  0  0  0  0  0  0  0
   32.4007   19.1245   59.8886 C   0  0  0  0  0  0  0  0  0  0  0  0
   28.1793   13.9414   61.4632 C   0  0  0  0  0  0  0  0  0  0  0  0
   26.9920   13.1084   61.7796 C   0  0  0  0  0  0  0  0  0  0  0  0
   27.8912   15.3423   61.0076 C   0  0  0  0  0  0  0  0  0  0  0  0
   30.0055    8.8865   59.8686 C   0  0  0  0  0  0  0  0  0  0  0  0
   31.0226    9.7679   60.5046 C   0  0  0  0  0  0  0  0  0  0  0  0
   30.0390    7.4663   60.3547 C   0  0  0  0  0  0  0  0  0  0  0  0
   28.1209    9.2426   55.0905 C   0  0  0  0  0  0  0  0  0  0  0  0
   29.4854    8.6445   55.1592 C   0  0  0  0  0  0  0  0  0  0  0  0
   27.3541    8.7543   53.8969 C   0  0  0  0  0  0  0  0  0  0  0  0
   23.6771    9.9566   55.4555 C   0  0  0  0  0  0  0  0  0  0  0  0
   23.1694   10.1086   54.1426 N   0  0  0  0  0  0  0  0  0  0  0  0
   22.1425   10.9987   53.7677 C   0  0  0  0  0  0  0  0  0  0  0  0
   21.6640   11.7586   54.6815 O   0  0  0  0  0  0  0  0  0  0  0  0
   23.5749    9.4966   53.3348 H   0  0  0  0  0  0  0  0  0  0  0  0
   21.5563   11.1411   52.4507 C   0  0  0  0  0  0  0  0  0  0  0  0
   22.0300   12.3540   51.7607 N   0  0  0  0  0  0  0  0  0  0  0  0
   21.2872   13.5435   51.7719 C   0  0  0  0  0  0  0  0  0  0  0  0
   20.1866   13.6212   52.3660 O   0  0  0  0  0  0  0  0  0  0  0  0
   22.9371   12.3249   51.2527 H   0  0  0  0  0  0  0  0  0  0  0  0
   21.7887   14.7322   51.0858 C   0  0  0  0  0  0  0  0  0  0  0  0
   22.9666   14.8429   50.4362 N   0  0  0  0  0  0  0  0  0  0  0  0
   23.1061   16.0721   49.9278 C   0  0  0  0  0  0  0  0  0  0  0  0
   24.1240   16.6860   49.1853 C   0  0  0  0  0  0  0  0  0  0  0  0
   23.9981   17.9975   48.7892 C   0  0  0  0  0  0  0  0  0  0  0  0
   22.8714   18.7158   49.1210 C   0  0  0  0  0  0  0  0  0  0  0  0
   21.8682   18.0942   49.8573 C   0  0  0  0  0  0  0  0  0  0  0  0
   21.9945   16.7916   50.2498 C   0  0  0  0  0  0  0  0  0  0  0  0
   21.1570   15.9499   50.9823 C   0  0  0  0  0  0  0  0  0  0  0  0
   19.9421   16.3652   51.4647 O   0  0  0  0  0  0  0  0  0  0  0  0
   23.6712   14.0778   50.3431 H   0  0  0  0  0  0  0  0  0  0  0  0
   19.2825   15.8455   51.9914 H   0  0  0  0  0  0  0  0  0  0  0  0
   21.2910   10.0357   51.5410 C   0  0  0  0  0  0  0  0  0  0  0  0
   21.2978    8.6545   51.9569 C   0  0  0  0  0  0  0  0  0  0  0  0
   22.4648    7.9940   52.2366 C   0  0  0  0  0  0  0  0  0  0  0  0
   22.5196    6.6825   52.6398 C   0  0  0  0  0  0  0  0  0  0  0  0
   21.3539    5.9527   52.7831 C   0  0  0  0  0  0  0  0  0  0  0  0
   20.1770    6.5895   52.5096 C   0  0  0  0  0  0  0  0  0  0  0  0
   20.1260    7.9036   52.1064 C   0  0  0  0  0  0  0  0  0  0  0  0
   22.8127    9.3866   56.4908 C   0  0  0  0  0  0  0  0  0  0  0  0
   22.3660    7.1566   55.7000 C   0  0  0  0  0  0  0  0  0  0  0  0
   21.7018    8.4777   56.2107 C   0  0  0  0  0  0  0  0  0  0  0  0
   20.7278    8.8275   55.1464 C   0  0  0  0  0  0  0  0  0  0  0  0
 71 72  1  0  0  0
 72 73  1  0  0  0
 72 70  1  0  0  0
 70 41  1  0  0  0
 41 42  1  0  0  0
 42 43  1  0  0  0
 43 44  2  0  0  0
 43 46  1  0  0  0
 46 63  1  0  0  0
 63 64  1  0  0  0
 64 65  2  0  0  0
 65 66  1  0  0  0
 66 67  2  0  0  0
 67 68  1  0  0  0
 68 69  2  0  0  0
 46 47  1  0  0  0
 47 48  1  0  0  0
 48 49  2  0  0  0
 48 51  1  0  0  0
 51 52  1  0  0  0
 52 53  1  0  0  0
 53 54  2  0  0  0
 54 55  1  0  0  0
 55 56  2  0  0  0
 56 57  1  0  0  0
 57 58  2  0  0  0
 58 59  1  0  0  0
 59 60  1  0  0  0
 41  1  1  0  0  0
  1  2  2  0  0  0
  1  3  1  0  0  0
  3  5  1  0  0  0
  5 38  1  0  0  0
 38 39  1  0  0  0
 38 40  1  0  0  0
  5  6  1  0  0  0
  6  7  2  0  0  0
  6  8  1  0  0  0
  8 10  1  0  0  0
 10 35  1  0  0  0
 35 36  1  0  0  0
 35 37  1  0  0  0
 10 11  1  0  0  0
 11 12  2  0  0  0
 11 13  1  0  0  0
 13 15  1  0  0  0
 15 32  1  0  0  0
 32 33  1  0  0  0
 32 34  1  0  0  0
 15 16  1  0  0  0
 16 17  2  0  0  0
 16 18  1  0  0  0
 18 20  1  0  0  0
 20 25  1  0  0  0
 25 26  1  0  0  0
 26 27  2  0  0  0
 27 28  1  0  0  0
 28 29  2  0  0  0
 29 30  1  0  0  0
 30 31  2  0  0  0
 20 21  1  0  0  0
 21 22  1  0  0  0
 21 23  2  0  0  0
 69 64  1  0  0  0
 59 51  2  0  0  0
 31 26  1  0  0  0
 58 53  1  0  0  0
 42 45  1  0  0  0
 47 50  1  0  0  0
 52 61  1  0  0  0
 60 62  1  0  0  0
  3  4  1  0  0  0
  8  9  1  0  0  0
 13 14  1  0  0  0
 18 19  1  0  0  0
 22 24  1  0  0  0
M  END
> <minimizedAffinity>
15.61053

> <CNNscore>
0.5022118688

> <CNNaffinity>
7.4350256920

> <CNN_VS>
3.7339582443

> <CNNaffinity_variance>
1.1954401731

$$$$
[H]OC(=O)[C@@]([H])(N([H])C(=O)[C@@]([H])(N([H])C(=O)[C@@]([H])(N([H])C(=O)[C@@]([H])(N([H])C(=O)[C@@]([H])(N([H])C(=O)[C@@]([H])(N([H])C(=O)c1c(O[H])c2c([H])c([H])c([H])c([H])c2n1[H])C([H])([H])c1c([H])c([H])c([H])c([H])c1[H])C([H])([H])C([H])(C([H])([H])[H])C([H])([H])[H])C([H])(C([H])([H])[H])C([H])([H])[H])C([H])(C([H])([H])[H])C([H])([H])[H])C([H])(C([H])([H])[H])C([H])([H])[H])C([H])([H])c1c([H])c([H])c([H])c([H])c1[H]


 73 76  0  0  0  0  0  0  0  0999 V2000
   25.0373    9.1447   55.6170 C   0  0  0  0  0  0  0  0  0  0  0  0
   25.3239    8.4062   54.6621 O   0  0  0  0  0  0  0  0  0  0  0  0
   25.9144    9.5951   56.6212 N   0  0  0  0  0  0  0  0  0  0  0  0
   25.5838   10.2359   57.3644 H   0  0  0  0  0  0  0  0  0  0  0  0
   27.3402    9.2106   56.6964 C   0  0  0  0  0  0  0  0  0  0  0  0
   27.6974    9.0301   58.0934 C   0  0  0  0  0  0  0  0  0  0  0  0
   26.9186    8.3023   58.8022 O   0  0  0  0  0  0  0  0  0  0  0  0
   28.8242    9.5801   58.7661 N   0  0  0  0  0  0  0  0  0  0  0  0
   29.4981   10.1397   58.2168 H   0  0  0  0  0  0  0  0  0  0  0  0
   28.9789    9.3154   60.2128 C   0  0  0  0  0  0  0  0  0  0  0  0
   29.3884   10.5668   60.9023 C   0  0  0  0  0  0  0  0  0  0  0  0
   28.6677   11.5825   60.6460 O   0  0  0  0  0  0  0  0  0  0  0  0
   30.4912   10.6295   61.7832 N   0  0  0  0  0  0  0  0  0  0  0  0
   31.0255    9.7374   61.9355 H   0  0  0  0  0  0  0  0  0  0  0  0
   30.8923   11.8244   62.4544 C   0  0  0  0  0  0  0  0  0  0  0  0
   31.0846   12.9702   61.5469 C   0  0  0  0  0  0  0  0  0  0  0  0
   32.0488   12.9798   60.7322 O   0  0  0  0  0  0  0  0  0  0  0  0
   30.2320   14.1039   61.5289 N   0  0  0  0  0  0  0  0  0  0  0  0
   29.4292   14.1298   62.1760 H   0  0  0  0  0  0  0  0  0  0  0  0
   30.4366   15.2261   60.6400 C   0  0  0  0  0  0  0  0  0  0  0  0
   31.6975   15.9491   60.9796 C   0  0  0  0  0  0  0  0  0  0  0  0
   32.8261   15.8979   60.1770 O   0  0  0  0  0  0  0  0  0  0  0  0
   31.7948   16.6507   62.0298 O   0  0  0  0  0  0  0  0  0  0  0  0
   33.7062   15.4999   60.4766 H   0  0  0  0  0  0  0  0  0  0  0  0
   29.2460   16.1150   60.5296 C   0  0  0  0  0  0  0  0  0  0  0  0
   29.5199   17.3991   59.8721 C   0  0  0  0  0  0  0  0  0  0  0  0
   29.9849   17.4597   58.5846 C   0  0  0  0  0  0  0  0  0  0  0  0
   30.2294   18.6980   58.0070 C   0  0  0  0  0  0  0  0  0  0  0  0
   30.0118   19.8643   58.7064 C   0  0  0  0  0  0  0  0  0  0  0  0
   29.5440   19.7716   59.9981 C   0  0  0  0  0  0  0  0  0  0  0  0
   29.3020   18.5495   60.5699 C   0  0  0  0  0  0  0  0  0  0  0  0
   32.1369   11.6024   63.3098 C   0  0  0  0  0  0  0  0  0  0  0  0
   33.0662   10.5727   62.7809 C   0  0  0  0  0  0  0  0  0  0  0  0
   31.7904   11.4833   64.7654 C   0  0  0  0  0  0  0  0  0  0  0  0
   30.0019    8.2229   60.3627 C   0  0  0  0  0  0  0  0  0  0  0  0
   30.8680    8.4371   61.5542 C   0  0  0  0  0  0  0  0  0  0  0  0
   29.3864    6.8551   60.2935 C   0  0  0  0  0  0  0  0  0  0  0  0
   28.1385   10.4031   56.0938 C   0  0  0  0  0  0  0  0  0  0  0  0
   28.7211   11.2517   57.1730 C   0  0  0  0  0  0  0  0  0  0  0  0
   29.1978    9.8210   55.2048 C   0  0  0  0  0  0  0  0  0  0  0  0
   23.6032    9.6428   55.7610 C   0  0  0  0  0  0  0  0  0  0  0  0
   23.0828    9.9821   54.4888 N   0  0  0  0  0  0  0  0  0  0  0  0
   22.0287   10.8896   54.2590 C   0  0  0  0  0  0  0  0  0  0  0  0
   21.5349   11.4841   55.2808 O   0  0  0  0  0  0  0  0  0  0  0  0
   23.5001    9.5151   53.5948 H   0  0  0  0  0  0  0  0  0  0  0  0
   21.4301   11.2179   52.9813 C   0  0  0  0  0  0  0  0  0  0  0  0
   21.7712   12.5829   52.5432 N   0  0  0  0  0  0  0  0  0  0  0  0
   21.5845   12.9971   51.2164 C   0  0  0  0  0  0  0  0  0  0  0  0
   21.1239   12.2203   50.3478 O   0  0  0  0  0  0  0  0  0  0  0  0
   22.1609   13.2536   53.2360 H   0  0  0  0  0  0  0  0  0  0  0  0
   21.9239   14.3607   50.8152 C   0  0  0  0  0  0  0  0  0  0  0  0
   23.0816   14.7627   50.2499 N   0  0  0  0  0  0  0  0  0  0  0  0
   23.0552   16.0795   50.0166 C   0  0  0  0  0  0  0  0  0  0  0  0
   23.9859   16.9672   49.4598 C   0  0  0  0  0  0  0  0  0  0  0  0
   23.6840   18.3044   49.3432 C   0  0  0  0  0  0  0  0  0  0  0  0
   22.4657   18.7793   49.7740 C   0  0  0  0  0  0  0  0  0  0  0  0
   21.5506   17.8874   50.3237 C   0  0  0  0  0  0  0  0  0  0  0  0
   21.8516   16.5596   50.4386 C   0  0  0  0  0  0  0  0  0  0  0  0
   21.1312   15.4775   50.9449 C   0  0  0  0  0  0  0  0  0  0  0  0
   19.8658   15.6152   51.4558 O   0  0  0  0  0  0  0  0  0  0  0  0
   23.8860   14.1356   50.0259 H   0  0  0  0  0  0  0  0  0  0  0  0
   19.2790   14.9123   51.8355 H   0  0  0  0  0  0  0  0  0  0  0  0
   21.2841   10.2843   51.8737 C   0  0  0  0  0  0  0  0  0  0  0  0
   21.3653    8.8531   52.0340 C   0  0  0  0  0  0  0  0  0  0  0  0
   20.2490    8.0604   51.9890 C   0  0  0  0  0  0  0  0  0  0  0  0
   20.2785    6.6950   52.1316 C   0  0  0  0  0  0  0  0  0  0  0  0
   21.4822    6.0457   52.3343 C   0  0  0  0  0  0  0  0  0  0  0  0
   22.6099    6.8148   52.3834 C   0  0  0  0  0  0  0  0  0  0  0  0
   22.5765    8.1824   52.2395 C   0  0  0  0  0  0  0  0  0  0  0  0
   22.9085    8.6383   56.5687 C   0  0  0  0  0  0  0  0  0  0  0  0
   22.4978    6.6803   55.2288 C   0  0  0  0  0  0  0  0  0  0  0  0
   21.8129    7.8096   56.0672 C   0  0  0  0  0  0  0  0  0  0  0  0
   20.8223    8.4024   55.1338 C   0  0  0  0  0  0  0  0  0  0  0  0
 71 72  1  0  0  0
 72 73  1  0  0  0
 72 70  1  0  0  0
 70 41  1  0  0  0
 41 42  1  0  0  0
 42 43  1  0  0  0
 43 44  2  0  0  0
 43 46  1  0  0  0
 46 63  1  0  0  0
 63 64  1  0  0  0
 64 65  2  0  0  0
 65 66  1  0  0  0
 66 67  2  0  0  0
 67 68  1  0  0  0
 68 69  2  0  0  0
 46 47  1  0  0  0
 47 48  1  0  0  0
 48 49  2  0  0  0
 48 51  1  0  0  0
 51 52  1  0  0  0
 52 53  1  0  0  0
 53 54  2  0  0  0
 54 55  1  0  0  0
 55 56  2  0  0  0
 56 57  1  0  0  0
 57 58  2  0  0  0
 58 59  1  0  0  0
 59 60  1  0  0  0
 41  1  1  0  0  0
  1  2  2  0  0  0
  1  3  1  0  0  0
  3  5  1  0  0  0
  5 38  1  0  0  0
 38 39  1  0  0  0
 38 40  1  0  0  0
  5  6  1  0  0  0
  6  7  2  0  0  0
  6  8  1  0  0  0
  8 10  1  0  0  0
 10 35  1  0  0  0
 35 36  1  0  0  0
 35 37  1  0  0  0
 10 11  1  0  0  0
 11 12  2  0  0  0
 11 13  1  0  0  0
 13 15  1  0  0  0
 15 32  1  0  0  0
 32 33  1  0  0  0
 32 34  1  0  0  0
 15 16  1  0  0  0
 16 17  2  0  0  0
 16 18  1  0  0  0
 18 20  1  0  0  0
 20 25  1  0  0  0
 25 26  1  0  0  0
 26 27  2  0  0  0
 27 28  1  0  0  0
 28 29  2  0  0  0
 29 30  1  0  0  0
 30 31  2  0  0  0
 20 21  1  0  0  0
 21 22  1  0  0  0
 21 23  2  0  0  0
 69 64  1  0  0  0
 59 51  2  0  0  0
 31 26  1  0  0  0
 58 53  1  0  0  0
 42 45  1  0  0  0
 47 50  1  0  0  0
 52 61  1  0  0  0
 60 62  1  0  0  0
  3  4  1  0  0  0
  8  9  1  0  0  0
 13 14  1  0  0  0
 18 19  1  0  0  0
 22 24  1  0  0  0
M  END
> <minimizedAffinity>
15.62379

> <CNNscore>
0.4900113344

> <CNNaffinity>
7.3198633194

> <CNN_VS>
3.5868160725

> <CNNaffinity_variance>
1.5597898960

$$$$
[H]OC(=O)[C@@]([H])(N([H])C(=O)[C@@]([H])(N([H])C(=O)[C@@]([H])(N([H])C(=O)[C@@]([H])(N([H])C(=O)[C@@]([H])(N([H])C(=O)[C@@]([H])(N([H])C(=O)c1c(O[H])c2c([H])c([H])c([H])c([H])c2n1[H])C([H])([H])c1c([H])c([H])c([H])c([H])c1[H])C([H])([H])C([H])(C([H])([H])[H])C([H])([H])[H])C([H])(C([H])([H])[H])C([H])([H])[H])C([H])(C([H])([H])[H])C([H])([H])[H])C([H])(C([H])([H])[H])C([H])([H])[H])C([H])([H])c1c([H])c([H])c([H])c([H])c1[H]


 73 76  0  0  0  0  0  0  0  0999 V2000
   27.9697    9.6998   57.6266 C   0  0  0  0  0  0  0  0  0  0  0  0
   28.3879   10.8620   57.5080 O   0  0  0  0  0  0  0  0  0  0  0  0
   28.0343    8.8995   58.7824 N   0  0  0  0  0  0  0  0  0  0  0  0
   27.6291    7.9466   58.7898 H   0  0  0  0  0  0  0  0  0  0  0  0
   28.6598    9.3379   60.0485 C   0  0  0  0  0  0  0  0  0  0  0  0
   28.8210   10.7815   60.0091 C   0  0  0  0  0  0  0  0  0  0  0  0
   29.3934   11.2736   58.9752 O   0  0  0  0  0  0  0  0  0  0  0  0
   28.4126   11.7152   61.0021 N   0  0  0  0  0  0  0  0  0  0  0  0
   27.9101   11.3593   61.8326 H   0  0  0  0  0  0  0  0  0  0  0  0
   28.7186   13.1466   60.7911 C   0  0  0  0  0  0  0  0  0  0  0  0
   30.1709   13.3776   61.0065 C   0  0  0  0  0  0  0  0  0  0  0  0
   30.6191   14.4668   60.5273 O   0  0  0  0  0  0  0  0  0  0  0  0
   30.9972   12.4628   61.6968 N   0  0  0  0  0  0  0  0  0  0  0  0
   30.5363   11.5908   62.0598 H   0  0  0  0  0  0  0  0  0  0  0  0
   32.3926   12.6749   61.9135 C   0  0  0  0  0  0  0  0  0  0  0  0
   32.8576   14.0050   61.4797 C   0  0  0  0  0  0  0  0  0  0  0  0
   33.4276   14.1448   60.3621 O   0  0  0  0  0  0  0  0  0  0  0  0
   32.7060   15.1787   62.2619 N   0  0  0  0  0  0  0  0  0  0  0  0
   32.2394   15.1056   63.1789 H   0  0  0  0  0  0  0  0  0  0  0  0
   33.1748   16.4766   61.8292 C   0  0  0  0  0  0  0  0  0  0  0  0
   33.7428   17.2450   62.9759 C   0  0  0  0  0  0  0  0  0  0  0  0
   33.7152   18.6294   63.0329 O   0  0  0  0  0  0  0  0  0  0  0  0
   34.2829   16.6598   63.9610 O   0  0  0  0  0  0  0  0  0  0  0  0
   34.5472   19.2042   63.0411 H   0  0  0  0  0  0  0  0  0  0  0  0
   32.1639   17.2352   61.0402 C   0  0  0  0  0  0  0  0  0  0  0  0
   32.7452   18.1441   60.0441 C   0  0  0  0  0  0  0  0  0  0  0  0
   32.2388   19.4007   59.8394 C   0  0  0  0  0  0  0  0  0  0  0  0
   32.8228   20.2227   58.8854 C   0  0  0  0  0  0  0  0  0  0  0  0
   33.9016   19.7957   58.1433 C   0  0  0  0  0  0  0  0  0  0  0  0
   34.3885   18.5282   58.3716 C   0  0  0  0  0  0  0  0  0  0  0  0
   33.8129   17.7153   59.3135 C   0  0  0  0  0  0  0  0  0  0  0  0
   33.2380   11.5762   61.2747 C   0  0  0  0  0  0  0  0  0  0  0  0
   32.5117   10.7460   60.2813 C   0  0  0  0  0  0  0  0  0  0  0  0
   34.0281   10.8211   62.3036 C   0  0  0  0  0  0  0  0  0  0  0  0
   27.8692   13.9339   61.7510 C   0  0  0  0  0  0  0  0  0  0  0  0
   27.6234   15.3185   61.2632 C   0  0  0  0  0  0  0  0  0  0  0  0
   26.6227   13.1949   62.1440 C   0  0  0  0  0  0  0  0  0  0  0  0
   30.0545    8.6488   60.0991 C   0  0  0  0  0  0  0  0  0  0  0  0
   30.6578    8.7700   61.4576 C   0  0  0  0  0  0  0  0  0  0  0  0
   29.8539    7.2163   59.7004 C   0  0  0  0  0  0  0  0  0  0  0  0
   27.3099    9.0264   56.4280 C   0  0  0  0  0  0  0  0  0  0  0  0
   25.9106    9.2384   56.4683 N   0  0  0  0  0  0  0  0  0  0  0  0
   24.9735    8.6358   55.6045 C   0  0  0  0  0  0  0  0  0  0  0  0
   25.4230    7.7983   54.7456 O   0  0  0  0  0  0  0  0  0  0  0  0
   25.4915    9.9242   57.2068 H   0  0  0  0  0  0  0  0  0  0  0  0
   23.5444    8.8714   55.5754 C   0  0  0  0  0  0  0  0  0  0  0  0
   23.1637    9.8454   54.5372 N   0  0  0  0  0  0  0  0  0  0  0  0
   21.9316   10.5142   54.5733 C   0  0  0  0  0  0  0  0  0  0  0  0
   21.1016   10.3063   55.4888 O   0  0  0  0  0  0  0  0  0  0  0  0
   23.8258   10.0394   53.7589 H   0  0  0  0  0  0  0  0  0  0  0  0
   21.5873   11.4817   53.5336 C   0  0  0  0  0  0  0  0  0  0  0  0
   21.2244   12.7673   53.7267 N   0  0  0  0  0  0  0  0  0  0  0  0
   20.9761   13.3636   52.5555 C   0  0  0  0  0  0  0  0  0  0  0  0
   20.5732   14.6618   52.2140 C   0  0  0  0  0  0  0  0  0  0  0  0
   20.3861   15.0047   50.8948 C   0  0  0  0  0  0  0  0  0  0  0  0
   20.5923   14.0739   49.9015 C   0  0  0  0  0  0  0  0  0  0  0  0
   20.9931   12.7893   50.2541 C   0  0  0  0  0  0  0  0  0  0  0  0
   21.1789   12.4503   51.5646 C   0  0  0  0  0  0  0  0  0  0  0  0
   21.5657   11.2577   52.1765 C   0  0  0  0  0  0  0  0  0  0  0  0
   21.8506   10.1249   51.4576 O   0  0  0  0  0  0  0  0  0  0  0  0
   21.1471   13.2323   54.6585 H   0  0  0  0  0  0  0  0  0  0  0  0
   22.1308    9.2375   51.7990 H   0  0  0  0  0  0  0  0  0  0  0  0
   22.5339    7.8458   55.7918 C   0  0  0  0  0  0  0  0  0  0  0  0
   21.7819    7.2424   54.7188 C   0  0  0  0  0  0  0  0  0  0  0  0
   22.2118    6.1024   54.0926 C   0  0  0  0  0  0  0  0  0  0  0  0
   21.5277    5.4907   53.0712 C   0  0  0  0  0  0  0  0  0  0  0  0
   20.3344    6.0240   52.6199 C   0  0  0  0  0  0  0  0  0  0  0  0
   19.8850    7.1610   53.2285 C   0  0  0  0  0  0  0  0  0  0  0  0
   20.5728    7.7708   54.2519 C   0  0  0  0  0  0  0  0  0  0  0  0
   28.0630    9.4701   55.2533 C   0  0  0  0  0  0  0  0  0  0  0  0
   27.2791    8.8526   53.0619 C   0  0  0  0  0  0  0  0  0  0  0  0
   28.3968    8.5994   54.1267 C   0  0  0  0  0  0  0  0  0  0  0  0
   28.3865    7.1274   54.3186 C   0  0  0  0  0  0  0  0  0  0  0  0
 71 72  1  0  0  0
 72 73  1  0  0  0
 72 70  1  0  0  0
 70 41  1  0  0  0
 41 42  1  0  0  0
 42 43  1  0  0  0
 43 44  2  0  0  0
 43 46  1  0  0  0
 46 63  1  0  0  0
 63 64  1  0  0  0
 64 65  2  0  0  0
 65 66  1  0  0  0
 66 67  2  0  0  0
 67 68  1  0  0  0
 68 69  2  0  0  0
 46 47  1  0  0  0
 47 48  1  0  0  0
 48 49  2  0  0  0
 48 51  1  0  0  0
 51 52  1  0  0  0
 52 53  1  0  0  0
 53 54  2  0  0  0
 54 55  1  0  0  0
 55 56  2  0  0  0
 56 57  1  0  0  0
 57 58  2  0  0  0
 58 59  1  0  0  0
 59 60  1  0  0  0
 41  1  1  0  0  0
  1  2  2  0  0  0
  1  3  1  0  0  0
  3  5  1  0  0  0
  5 38  1  0  0  0
 38 39  1  0  0  0
 38 40  1  0  0  0
  5  6  1  0  0  0
  6  7  2  0  0  0
  6  8  1  0  0  0
  8 10  1  0  0  0
 10 35  1  0  0  0
 35 36  1  0  0  0
 35 37  1  0  0  0
 10 11  1  0  0  0
 11 12  2  0  0  0
 11 13  1  0  0  0
 13 15  1  0  0  0
 15 32  1  0  0  0
 32 33  1  0  0  0
 32 34  1  0  0  0
 15 16  1  0  0  0
 16 17  2  0  0  0
 16 18  1  0  0  0
 18 20  1  0  0  0
 20 25  1  0  0  0
 25 26  1  0  0  0
 26 27  2  0  0  0
 27 28  1  0  0  0
 28 29  2  0  0  0
 29 30  1  0  0  0
 30 31  2  0  0  0
 20 21  1  0  0  0
 21 22  1  0  0  0
 21 23  2  0  0  0
 69 64  1  0  0  0
 59 51  2  0  0  0
 31 26  1  0  0  0
 58 53  1  0  0  0
 42 45  1  0  0  0
 47 50  1  0  0  0
 52 61  1  0  0  0
 60 62  1  0  0  0
  3  4  1  0  0  0
  8  9  1  0  0  0
 13 14  1  0  0  0
 18 19  1  0  0  0
 22 24  1  0  0  0
M  END
> <minimizedAffinity>
15.56923

> <CNNscore>
0.4876807928

> <CNNaffinity>
7.3239693642

> <CNN_VS>
3.5717592239

> <CNNaffinity_variance>
0.5219542384

$$$$
[H]OC(=O)[C@@]([H])(N([H])C(=O)[C@@]([H])(N([H])C(=O)[C@@]([H])(N([H])C(=O)[C@@]([H])(N([H])C(=O)[C@@]([H])(N([H])C(=O)[C@@]([H])(N([H])C(=O)c1c(O[H])c2c([H])c([H])c([H])c([H])c2n1[H])C([H])([H])c1c([H])c([H])c([H])c([H])c1[H])C([H])([H])C([H])(C([H])([H])[H])C([H])([H])[H])C([H])(C([H])([H])[H])C([H])([H])[H])C([H])(C([H])([H])[H])C([H])([H])[H])C([H])(C([H])([H])[H])C([H])([H])[H])C([H])([H])c1c([H])c([H])c([H])c([H])c1[H]


 73 76  0  0  0  0  0  0  0  0999 V2000
   29.7395    7.3958   62.1075 C   0  0  0  0  0  0  0  0  0  0  0  0
   28.5668    7.6192   62.4459 O   0  0  0  0  0  0  0  0  0  0  0  0
   30.5888    6.4038   62.6322 N   0  0  0  0  0  0  0  0  0  0  0  0
   31.5474    6.2774   62.2613 H   0  0  0  0  0  0  0  0  0  0  0  0
   30.1970    5.4807   63.7188 C   0  0  0  0  0  0  0  0  0  0  0  0
   28.8298    5.0468   63.4864 C   0  0  0  0  0  0  0  0  0  0  0  0
   28.0574    4.9908   64.5058 O   0  0  0  0  0  0  0  0  0  0  0  0
   28.2514    4.6713   62.2418 N   0  0  0  0  0  0  0  0  0  0  0  0
   28.8325    4.7430   61.3896 H   0  0  0  0  0  0  0  0  0  0  0  0
   26.8472    4.2076   62.2292 C   0  0  0  0  0  0  0  0  0  0  0  0
   26.6842    3.1011   63.2081 C   0  0  0  0  0  0  0  0  0  0  0  0
   25.6783    3.2084   63.9784 O   0  0  0  0  0  0  0  0  0  0  0  0
   27.5730    2.0051   63.2791 N   0  0  0  0  0  0  0  0  0  0  0  0
   28.3742    2.0018   62.5989 H   0  0  0  0  0  0  0  0  0  0  0  0
   27.4252    0.9343   64.2122 C   0  0  0  0  0  0  0  0  0  0  0  0
   26.2862    0.0478   63.9115 C   0  0  0  0  0  0  0  0  0  0  0  0
   26.4460   -1.2041   63.8854 O   0  0  0  0  0  0  0  0  0  0  0  0
   24.9782    0.5229   63.6363 N   0  0  0  0  0  0  0  0  0  0  0  0
   24.8069    1.5399   63.6545 H   0  0  0  0  0  0  0  0  0  0  0  0
   23.8708   -0.3566   63.3336 C   0  0  0  0  0  0  0  0  0  0  0  0
   22.5807    0.3940   63.3371 C   0  0  0  0  0  0  0  0  0  0  0  0
   22.1353    1.1168   62.2418 O   0  0  0  0  0  0  0  0  0  0  0  0
   21.8251    0.4051   64.3537 O   0  0  0  0  0  0  0  0  0  0  0  0
   22.0026    2.1193   62.2513 H   0  0  0  0  0  0  0  0  0  0  0  0
   23.8509   -1.5885   64.1714 C   0  0  0  0  0  0  0  0  0  0  0  0
   22.9314   -2.6250   63.6851 C   0  0  0  0  0  0  0  0  0  0  0  0
   21.7734   -2.3037   63.0269 C   0  0  0  0  0  0  0  0  0  0  0  0
   20.9362   -3.3198   62.5869 C   0  0  0  0  0  0  0  0  0  0  0  0
   21.2512   -4.6433   62.8009 C   0  0  0  0  0  0  0  0  0  0  0  0
   22.4216   -4.9352   63.4648 C   0  0  0  0  0  0  0  0  0  0  0  0
   23.2494   -3.9328   63.8998 C   0  0  0  0  0  0  0  0  0  0  0  0
   27.3446    1.4429   65.6491 C   0  0  0  0  0  0  0  0  0  0  0  0
   26.0295    2.0237   66.0189 C   0  0  0  0  0  0  0  0  0  0  0  0
   28.5466    2.2663   66.0099 C   0  0  0  0  0  0  0  0  0  0  0  0
   26.5295    3.7750   60.8241 C   0  0  0  0  0  0  0  0  0  0  0  0
   25.0638    3.6289   60.6093 C   0  0  0  0  0  0  0  0  0  0  0  0
   27.2145    4.6305   59.7978 C   0  0  0  0  0  0  0  0  0  0  0  0
   30.2753    6.3088   65.0343 C   0  0  0  0  0  0  0  0  0  0  0  0
   29.2464    5.8510   66.0121 C   0  0  0  0  0  0  0  0  0  0  0  0
   31.6676    6.1537   65.5715 C   0  0  0  0  0  0  0  0  0  0  0  0
   30.3696    8.2543   61.0160 C   0  0  0  0  0  0  0  0  0  0  0  0
   29.5285    9.3556   60.7259 N   0  0  0  0  0  0  0  0  0  0  0  0
   29.0552    9.6994   59.4432 C   0  0  0  0  0  0  0  0  0  0  0  0
   29.3786    8.9270   58.4736 O   0  0  0  0  0  0  0  0  0  0  0  0
   29.2110   10.0175   61.5337 H   0  0  0  0  0  0  0  0  0  0  0  0
   28.2439   10.8486   59.0975 C   0  0  0  0  0  0  0  0  0  0  0  0
   28.9438   12.1196   59.3554 N   0  0  0  0  0  0  0  0  0  0  0  0
   28.5326   12.9915   60.3739 C   0  0  0  0  0  0  0  0  0  0  0  0
   27.5489   12.7266   61.1036 O   0  0  0  0  0  0  0  0  0  0  0  0
   29.7616   12.3749   58.7658 H   0  0  0  0  0  0  0  0  0  0  0  0
   29.2534   14.2404   60.6107 C   0  0  0  0  0  0  0  0  0  0  0  0
   28.7111   15.4739   60.6884 N   0  0  0  0  0  0  0  0  0  0  0  0
   29.6611   16.3889   60.9103 C   0  0  0  0  0  0  0  0  0  0  0  0
   29.6249   17.7813   61.0657 C   0  0  0  0  0  0  0  0  0  0  0  0
   30.7869   18.4843   61.2853 C   0  0  0  0  0  0  0  0  0  0  0  0
   31.9933   17.8243   61.3526 C   0  0  0  0  0  0  0  0  0  0  0  0
   32.0150   16.4421   61.1978 C   0  0  0  0  0  0  0  0  0  0  0  0
   30.8602   15.7451   60.9800 C   0  0  0  0  0  0  0  0  0  0  0  0
   30.6094   14.3858   60.7914 C   0  0  0  0  0  0  0  0  0  0  0  0
   31.6103   13.4481   60.8036 O   0  0  0  0  0  0  0  0  0  0  0  0
   27.6934   15.6859   60.5890 H   0  0  0  0  0  0  0  0  0  0  0  0
   31.5324   12.4678   60.6796 H   0  0  0  0  0  0  0  0  0  0  0  0
   27.3504   10.9135   57.9498 C   0  0  0  0  0  0  0  0  0  0  0  0
   27.4599   10.0292   56.8154 C   0  0  0  0  0  0  0  0  0  0  0  0
   26.3956    9.2857   56.3784 C   0  0  0  0  0  0  0  0  0  0  0  0
   26.4518    8.4354   55.3017 C   0  0  0  0  0  0  0  0  0  0  0  0
   27.6302    8.2928   54.5926 C   0  0  0  0  0  0  0  0  0  0  0  0
   28.7061    9.0237   55.0094 C   0  0  0  0  0  0  0  0  0  0  0  0
   28.6459    9.8749   56.0882 C   0  0  0  0  0  0  0  0  0  0  0  0
   31.7463    8.5048   61.4470 C   0  0  0  0  0  0  0  0  0  0  0  0
   30.9242   10.6750   62.0894 C   0  0  0  0  0  0  0  0  0  0  0  0
   32.1996    9.7717   62.0200 C   0  0  0  0  0  0  0  0  0  0  0  0
   33.1852   10.5946   61.2749 C   0  0  0  0  0  0  0  0  0  0  0  0
 71 72  1  0  0  0
 72 73  1  0  0  0
 72 70  1  0  0  0
 70 41  1  0  0  0
 41 42  1  0  0  0
 42 43  1  0  0  0
 43 44  2  0  0  0
 43 46  1  0  0  0
 46 63  1  0  0  0
 63 64  1  0  0  0
 64 65  2  0  0  0
 65 66  1  0  0  0
 66 67  2  0  0  0
 67 68  1  0  0  0
 68 69  2  0  0  0
 46 47  1  0  0  0
 47 48  1  0  0  0
 48 49  2  0  0  0
 48 51  1  0  0  0
 51 52  1  0  0  0
 52 53  1  0  0  0
 53 54  2  0  0  0
 54 55  1  0  0  0
 55 56  2  0  0  0
 56 57  1  0  0  0
 57 58  2  0  0  0
 58 59  1  0  0  0
 59 60  1  0  0  0
 41  1  1  0  0  0
  1  2  2  0  0  0
  1  3  1  0  0  0
  3  5  1  0  0  0
  5 38  1  0  0  0
 38 39  1  0  0  0
 38 40  1  0  0  0
  5  6  1  0  0  0
  6  7  2  0  0  0
  6  8  1  0  0  0
  8 10  1  0  0  0
 10 35  1  0  0  0
 35 36  1  0  0  0
 35 37  1  0  0  0
 10 11  1  0  0  0
 11 12  2  0  0  0
 11 13  1  0  0  0
 13 15  1  0  0  0
 15 32  1  0  0  0
 32 33  1  0  0  0
 32 34  1  0  0  0
 15 16  1  0  0  0
 16 17  2  0  0  0
 16 18  1  0  0  0
 18 20  1  0  0  0
 20 25  1  0  0  0
 25 26  1  0  0  0
 26 27  2  0  0  0
 27 28  1  0  0  0
 28 29  2  0  0  0
 29 30  1  0  0  0
 30 31  2  0  0  0
 20 21  1  0  0  0
 21 22  1  0  0  0
 21 23  2  0  0  0
 69 64  1  0  0  0
 59 51  2  0  0  0
 31 26  1  0  0  0
 58 53  1  0  0  0
 42 45  1  0  0  0
 47 50  1  0  0  0
 52 61  1  0  0  0
 60 62  1  0  0  0
  3  4  1  0  0  0
  8  9  1  0  0  0
 13 14  1  0  0  0
 18 19  1  0  0  0
 22 24  1  0  0  0
M  END
> <minimizedAffinity>
6.60599

> <CNNscore>
0.4835126698

> <CNNaffinity>
7.2184281349

> <CNN_VS>
3.4902014732

> <CNNaffinity_variance>
0.2010362446

$$$$
[H]OC(=O)[C@@]([H])(N([H])C(=O)[C@@]([H])(N([H])C(=O)[C@@]([H])(N([H])C(=O)[C@@]([H])(N([H])C(=O)[C@@]([H])(N([H])C(=O)[C@@]([H])(N([H])C(=O)c1c(O[H])c2c([H])c([H])c([H])c([H])c2n1[H])C([H])([H])c1c([H])c([H])c([H])c([H])c1[H])C([H])([H])C([H])(C([H])([H])[H])C([H])([H])[H])C([H])(C([H])([H])[H])C([H])([H])[H])C([H])(C([H])([H])[H])C([H])([H])[H])C([H])(C([H])([H])[H])C([H])([H])[H])C([H])([H])c1c([H])c([H])c([H])c([H])c1[H]


 73 76  0  0  0  0  0  0  0  0999 V2000
   21.2231   12.7704   51.4104 C   0  0  0  0  0  0  0  0  0  0  0  0
   21.2379   12.2536   50.2825 O   0  0  0  0  0  0  0  0  0  0  0  0
   21.1280   12.0944   52.6411 N   0  0  0  0  0  0  0  0  0  0  0  0
   21.1528   12.6165   53.5351 H   0  0  0  0  0  0  0  0  0  0  0  0
   20.9958   10.6266   52.7616 C   0  0  0  0  0  0  0  0  0  0  0  0
   21.6322   10.2049   53.9980 C   0  0  0  0  0  0  0  0  0  0  0  0
   21.1636   10.6890   55.0864 O   0  0  0  0  0  0  0  0  0  0  0  0
   22.7294    9.3089   54.1329 N   0  0  0  0  0  0  0  0  0  0  0  0
   23.1083    8.8658   53.2790 H   0  0  0  0  0  0  0  0  0  0  0  0
   23.2646    9.0499   55.4869 C   0  0  0  0  0  0  0  0  0  0  0  0
   24.7200    8.7628   55.3955 C   0  0  0  0  0  0  0  0  0  0  0  0
   25.0704    8.0772   54.3836 O   0  0  0  0  0  0  0  0  0  0  0  0
   25.6518    9.2196   56.3542 N   0  0  0  0  0  0  0  0  0  0  0  0
   25.2685    9.7823   57.1549 H   0  0  0  0  0  0  0  0  0  0  0  0
   27.0526    8.9538   56.2756 C   0  0  0  0  0  0  0  0  0  0  0  0
   27.8345    9.6102   57.3393 C   0  0  0  0  0  0  0  0  0  0  0  0
   28.1819   10.8178   57.2185 O   0  0  0  0  0  0  0  0  0  0  0  0
   28.2401    8.9529   58.5292 N   0  0  0  0  0  0  0  0  0  0  0  0
   27.9698    7.9671   58.6669 H   0  0  0  0  0  0  0  0  0  0  0  0
   29.0150    9.6052   59.5614 C   0  0  0  0  0  0  0  0  0  0  0  0
   29.6404    8.6000   60.4706 C   0  0  0  0  0  0  0  0  0  0  0  0
   29.8922    7.2948   60.0789 O   0  0  0  0  0  0  0  0  0  0  0  0
   29.9732    8.8976   61.6560 O   0  0  0  0  0  0  0  0  0  0  0  0
   29.4541    6.4896   60.5061 H   0  0  0  0  0  0  0  0  0  0  0  0
   28.2628   10.6746   60.2758 C   0  0  0  0  0  0  0  0  0  0  0  0
   29.0523   11.8844   60.5389 C   0  0  0  0  0  0  0  0  0  0  0  0
   30.3532   11.8125   60.9631 C   0  0  0  0  0  0  0  0  0  0  0  0
   31.0579   12.9850   61.1990 C   0  0  0  0  0  0  0  0  0  0  0  0
   30.4709   14.2170   61.0132 C   0  0  0  0  0  0  0  0  0  0  0  0
   29.1626   14.2574   60.5861 C   0  0  0  0  0  0  0  0  0  0  0  0
   28.4654   13.1004   60.3526 C   0  0  0  0  0  0  0  0  0  0  0  0
   27.6184    9.3016   54.9013 C   0  0  0  0  0  0  0  0  0  0  0  0
   27.4323    8.2426   53.8779 C   0  0  0  0  0  0  0  0  0  0  0  0
   29.0023    9.8739   55.0044 C   0  0  0  0  0  0  0  0  0  0  0  0
   22.4922    7.8943   56.0618 C   0  0  0  0  0  0  0  0  0  0  0  0
   21.0225    8.1075   55.9609 C   0  0  0  0  0  0  0  0  0  0  0  0
   22.9562    6.5741   55.5174 C   0  0  0  0  0  0  0  0  0  0  0  0
   21.7539   10.0261   51.5421 C   0  0  0  0  0  0  0  0  0  0  0  0
   23.0213    9.3701   51.9752 C   0  0  0  0  0  0  0  0  0  0  0  0
   20.8211    9.0584   50.8753 C   0  0  0  0  0  0  0  0  0  0  0  0
   21.3164   14.2879   51.5288 C   0  0  0  0  0  0  0  0  0  0  0  0
   22.1485   14.7992   50.5038 N   0  0  0  0  0  0  0  0  0  0  0  0
   22.2058   16.1497   50.1032 C   0  0  0  0  0  0  0  0  0  0  0  0
   21.4782   16.9832   50.7491 O   0  0  0  0  0  0  0  0  0  0  0  0
   22.8019   14.1205   49.9526 H   0  0  0  0  0  0  0  0  0  0  0  0
   22.9978   16.7008   49.0227 C   0  0  0  0  0  0  0  0  0  0  0  0
   22.1720   17.0581   47.8557 N   0  0  0  0  0  0  0  0  0  0  0  0
   22.3917   18.2403   47.1341 C   0  0  0  0  0  0  0  0  0  0  0  0
   23.2974   19.0441   47.4564 O   0  0  0  0  0  0  0  0  0  0  0  0
   21.4073   16.4170   47.5623 H   0  0  0  0  0  0  0  0  0  0  0  0
   21.5613   18.5618   45.9754 C   0  0  0  0  0  0  0  0  0  0  0  0
   21.7760   18.1648   44.7034 N   0  0  0  0  0  0  0  0  0  0  0  0
   20.8222   18.6437   43.8972 C   0  0  0  0  0  0  0  0  0  0  0  0
   20.5920   18.5267   42.5197 C   0  0  0  0  0  0  0  0  0  0  0  0
   19.5058   19.1444   41.9439 C   0  0  0  0  0  0  0  0  0  0  0  0
   18.6385   19.8826   42.7174 C   0  0  0  0  0  0  0  0  0  0  0  0
   18.8780   19.9898   44.0835 C   0  0  0  0  0  0  0  0  0  0  0  0
   19.9570   19.3756   44.6540 C   0  0  0  0  0  0  0  0  0  0  0  0
   20.4187   19.3278   45.9697 C   0  0  0  0  0  0  0  0  0  0  0  0
   19.7711   19.9664   46.9963 O   0  0  0  0  0  0  0  0  0  0  0  0
   22.5740   17.5682   44.3908 H   0  0  0  0  0  0  0  0  0  0  0  0
   20.0198   19.9912   47.9556 H   0  0  0  0  0  0  0  0  0  0  0  0
   24.1400   17.5853   49.2040 C   0  0  0  0  0  0  0  0  0  0  0  0
   24.2674   18.4880   50.3219 C   0  0  0  0  0  0  0  0  0  0  0  0
   25.2138   19.4782   50.3416 C   0  0  0  0  0  0  0  0  0  0  0  0
   25.3689   20.3626   51.3806 C   0  0  0  0  0  0  0  0  0  0  0  0
   24.5441   20.2822   52.4874 C   0  0  0  0  0  0  0  0  0  0  0  0
   23.5924   19.3025   52.4914 C   0  0  0  0  0  0  0  0  0  0  0  0
   23.4397   18.4187   51.4485 C   0  0  0  0  0  0  0  0  0  0  0  0
   19.9369   14.7681   51.6310 C   0  0  0  0  0  0  0  0  0  0  0  0
   20.5600   16.5043   53.1787 C   0  0  0  0  0  0  0  0  0  0  0  0
   19.4192   15.5113   52.7792 C   0  0  0  0  0  0  0  0  0  0  0  0
   19.1155   14.7846   54.0376 C   0  0  0  0  0  0  0  0  0  0  0  0
 71 72  1  0  0  0
 72 73  1  0  0  0
 72 70  1  0  0  0
 70 41  1  0  0  0
 41 42  1  0  0  0
 42 43  1  0  0  0
 43 44  2  0  0  0
 43 46  1  0  0  0
 46 63  1  0  0  0
 63 64  1  0  0  0
 64 65  2  0  0  0
 65 66  1  0  0  0
 66 67  2  0  0  0
 67 68  1  0  0  0
 68 69  2  0  0  0
 46 47  1  0  0  0
 47 48  1  0  0  0
 48 49  2  0  0  0
 48 51  1  0  0  0
 51 52  1  0  0  0
 52 53  1  0  0  0
 53 54  2  0  0  0
 54 55  1  0  0  0
 55 56  2  0  0  0
 56 57  1  0  0  0
 57 58  2  0  0  0
 58 59  1  0  0  0
 59 60  1  0  0  0
 41  1  1  0  0  0
  1  2  2  0  0  0
  1  3  1  0  0  0
  3  5  1  0  0  0
  5 38  1  0  0  0
 38 39  1  0  0  0
 38 40  1  0  0  0
  5  6  1  0  0  0
  6  7  2  0  0  0
  6  8  1  0  0  0
  8 10  1  0  0  0
 10 35  1  0  0  0
 35 36  1  0  0  0
 35 37  1  0  0  0
 10 11  1  0  0  0
 11 12  2  0  0  0
 11 13  1  0  0  0
 13 15  1  0  0  0
 15 32  1  0  0  0
 32 33  1  0  0  0
 32 34  1  0  0  0
 15 16  1  0  0  0
 16 17  2  0  0  0
 16 18  1  0  0  0
 18 20  1  0  0  0
 20 25  1  0  0  0
 25 26  1  0  0  0
 26 27  2  0  0  0
 27 28  1  0  0  0
 28 29  2  0  0  0
 29 30  1  0  0  0
 30 31  2  0  0  0
 20 21  1  0  0  0
 21 22  1  0  0  0
 21 23  2  0  0  0
 69 64  1  0  0  0
 59 51  2  0  0  0
 31 26  1  0  0  0
 58 53  1  0  0  0
 42 45  1  0  0  0
 47 50  1  0  0  0
 52 61  1  0  0  0
 60 62  1  0  0  0
  3  4  1  0  0  0
  8  9  1  0  0  0
 13 14  1  0  0  0
 18 19  1  0  0  0
 22 24  1  0  0  0
M  END
> <minimizedAffinity>
13.13780

> <CNNscore>
0.4797432721

> <CNNaffinity>
7.4079475403

> <CNN_VS>
3.5539128780

> <CNNaffinity_variance>
0.9685888290

$$$$
[H]OC(=O)[C@@]([H])(N([H])C(=O)[C@@]([H])(N([H])C(=O)[C@@]([H])(N([H])C(=O)[C@@]([H])(N([H])C(=O)[C@@]([H])(N([H])C(=O)[C@@]([H])(N([H])C(=O)c1c(O[H])c2c([H])c([H])c([H])c([H])c2n1[H])C([H])([H])c1c([H])c([H])c([H])c([H])c1[H])C([H])([H])C([H])(C([H])([H])[H])C([H])([H])[H])C([H])(C([H])([H])[H])C([H])([H])[H])C([H])(C([H])([H])[H])C([H])([H])[H])C([H])(C([H])([H])[H])C([H])([H])[H])C([H])([H])c1c([H])c([H])c([H])c([H])c1[H]


 73 76  0  0  0  0  0  0  0  0999 V2000
   28.8171    5.2609   61.9023 C   0  0  0  0  0  0  0  0  0  0  0  0
   29.9207    5.0851   61.3631 O   0  0  0  0  0  0  0  0  0  0  0  0
   28.4545    6.3321   62.7400 N   0  0  0  0  0  0  0  0  0  0  0  0
   27.4941    6.4050   63.1204 H   0  0  0  0  0  0  0  0  0  0  0  0
   29.3811    7.4158   63.1318 C   0  0  0  0  0  0  0  0  0  0  0  0
   29.3280    8.4579   62.1204 C   0  0  0  0  0  0  0  0  0  0  0  0
   29.8177    8.1771   60.9715 O   0  0  0  0  0  0  0  0  0  0  0  0
   28.7906    9.7670   62.2686 N   0  0  0  0  0  0  0  0  0  0  0  0
   28.3492   10.0167   63.1697 H   0  0  0  0  0  0  0  0  0  0  0  0
   28.8818   10.6993   61.1243 C   0  0  0  0  0  0  0  0  0  0  0  0
   30.2498   11.2776   61.0670 C   0  0  0  0  0  0  0  0  0  0  0  0
   31.0652   10.6561   60.3149 O   0  0  0  0  0  0  0  0  0  0  0  0
   30.6222   12.4351   61.7866 N   0  0  0  0  0  0  0  0  0  0  0  0
   29.8786   12.8821   62.3798 H   0  0  0  0  0  0  0  0  0  0  0  0
   31.9316   13.0024   61.7369 C   0  0  0  0  0  0  0  0  0  0  0  0
   31.9318   14.4767   61.7270 C   0  0  0  0  0  0  0  0  0  0  0  0
   32.6973   15.1165   62.5004 O   0  0  0  0  0  0  0  0  0  0  0  0
   31.0984   15.2520   60.8803 N   0  0  0  0  0  0  0  0  0  0  0  0
   30.4635   14.7648   60.2297 H   0  0  0  0  0  0  0  0  0  0  0  0
   31.1012   16.6982   60.8864 C   0  0  0  0  0  0  0  0  0  0  0  0
   31.5597   17.2224   62.2066 C   0  0  0  0  0  0  0  0  0  0  0  0
   32.8151   16.9452   62.7240 O   0  0  0  0  0  0  0  0  0  0  0  0
   30.8132   17.9530   62.9232 O   0  0  0  0  0  0  0  0  0  0  0  0
   32.9641   16.4251   63.5784 H   0  0  0  0  0  0  0  0  0  0  0  0
   29.8174   17.2918   60.4179 C   0  0  0  0  0  0  0  0  0  0  0  0
   29.9058   17.9417   59.1041 C   0  0  0  0  0  0  0  0  0  0  0  0
   30.6270   19.0923   58.9213 C   0  0  0  0  0  0  0  0  0  0  0  0
   30.6796   19.6693   57.6599 C   0  0  0  0  0  0  0  0  0  0  0  0
   30.0198   19.1040   56.5913 C   0  0  0  0  0  0  0  0  0  0  0  0
   29.3036   17.9477   56.8057 C   0  0  0  0  0  0  0  0  0  0  0  0
   29.2507   17.3767   58.0509 C   0  0  0  0  0  0  0  0  0  0  0  0
   32.7401   12.4578   60.5622 C   0  0  0  0  0  0  0  0  0  0  0  0
   33.4367   11.1770   60.8414 C   0  0  0  0  0  0  0  0  0  0  0  0
   33.5753   13.5298   59.9247 C   0  0  0  0  0  0  0  0  0  0  0  0
   27.8267   11.7536   61.3185 C   0  0  0  0  0  0  0  0  0  0  0  0
   26.9082   11.4157   62.4401 C   0  0  0  0  0  0  0  0  0  0  0  0
   28.4118   13.1338   61.4033 C   0  0  0  0  0  0  0  0  0  0  0  0
   30.8000    6.7768   63.1622 C   0  0  0  0  0  0  0  0  0  0  0  0
   31.7611    7.5786   62.3512 C   0  0  0  0  0  0  0  0  0  0  0  0
   31.2153    6.6921   64.6015 C   0  0  0  0  0  0  0  0  0  0  0  0
   27.7077    4.2423   61.6633 C   0  0  0  0  0  0  0  0  0  0  0  0
   27.4261    3.5483   62.8648 N   0  0  0  0  0  0  0  0  0  0  0  0
   26.1928    2.9437   63.1826 C   0  0  0  0  0  0  0  0  0  0  0  0
   25.2715    2.9910   62.2938 O   0  0  0  0  0  0  0  0  0  0  0  0
   28.1985    3.4648   63.6315 H   0  0  0  0  0  0  0  0  0  0  0  0
   25.8475    2.2777   64.4219 C   0  0  0  0  0  0  0  0  0  0  0  0
   25.2779    0.9382   64.1918 N   0  0  0  0  0  0  0  0  0  0  0  0
   24.2758    0.4135   65.0208 C   0  0  0  0  0  0  0  0  0  0  0  0
   23.8275    1.0617   65.9950 O   0  0  0  0  0  0  0  0  0  0  0  0
   25.6296    0.3693   63.3954 H   0  0  0  0  0  0  0  0  0  0  0  0
   23.7246   -0.9147   64.7607 C   0  0  0  0  0  0  0  0  0  0  0  0
   22.5712   -1.1890   64.1156 N   0  0  0  0  0  0  0  0  0  0  0  0
   22.3703   -2.5102   64.0592 C   0  0  0  0  0  0  0  0  0  0  0  0
   21.3461   -3.2955   63.5127 C   0  0  0  0  0  0  0  0  0  0  0  0
   21.3993   -4.6670   63.6071 C   0  0  0  0  0  0  0  0  0  0  0  0
   22.4588   -5.2769   64.2404 C   0  0  0  0  0  0  0  0  0  0  0  0
   23.4691   -4.4858   64.7774 C   0  0  0  0  0  0  0  0  0  0  0  0
   23.4152   -3.1238   64.6827 C   0  0  0  0  0  0  0  0  0  0  0  0
   24.2755   -2.1203   65.1288 C   0  0  0  0  0  0  0  0  0  0  0  0
   25.4371   -2.3982   65.8030 O   0  0  0  0  0  0  0  0  0  0  0  0
   21.9252   -0.4721   63.7166 H   0  0  0  0  0  0  0  0  0  0  0  0
   26.1071   -1.7593   66.1573 H   0  0  0  0  0  0  0  0  0  0  0  0
   26.6260    2.3620   65.6494 C   0  0  0  0  0  0  0  0  0  0  0  0
   28.0364    2.6636   65.6683 C   0  0  0  0  0  0  0  0  0  0  0  0
   28.9797    1.7056   65.4056 C   0  0  0  0  0  0  0  0  0  0  0  0
   30.3314    1.9473   65.4077 C   0  0  0  0  0  0  0  0  0  0  0  0
   30.8079    3.2150   65.6864 C   0  0  0  0  0  0  0  0  0  0  0  0
   29.8865    4.1876   65.9520 C   0  0  0  0  0  0  0  0  0  0  0  0
   28.5331    3.9419   65.9485 C   0  0  0  0  0  0  0  0  0  0  0  0
   26.6293    4.9727   60.9943 C   0  0  0  0  0  0  0  0  0  0  0  0
   24.2788    4.4785   61.1639 C   0  0  0  0  0  0  0  0  0  0  0  0
   25.5448    4.3242   60.2581 C   0  0  0  0  0  0  0  0  0  0  0  0
   25.6206    2.8664   59.9879 C   0  0  0  0  0  0  0  0  0  0  0  0
 71 72  1  0  0  0
 72 73  1  0  0  0
 72 70  1  0  0  0
 70 41  1  0  0  0
 41 42  1  0  0  0
 42 43  1  0  0  0
 43 44  2  0  0  0
 43 46  1  0  0  0
 46 63  1  0  0  0
 63 64  1  0  0  0
 64 65  2  0  0  0
 65 66  1  0  0  0
 66 67  2  0  0  0
 67 68  1  0  0  0
 68 69  2  0  0  0
 46 47  1  0  0  0
 47 48  1  0  0  0
 48 49  2  0  0  0
 48 51  1  0  0  0
 51 52  1  0  0  0
 52 53  1  0  0  0
 53 54  2  0  0  0
 54 55  1  0  0  0
 55 56  2  0  0  0
 56 57  1  0  0  0
 57 58  2  0  0  0
 58 59  1  0  0  0
 59 60  1  0  0  0
 41  1  1  0  0  0
  1  2  2  0  0  0
  1  3  1  0  0  0
  3  5  1  0  0  0
  5 38  1  0  0  0
 38 39  1  0  0  0
 38 40  1  0  0  0
  5  6  1  0  0  0
  6  7  2  0  0  0
  6  8  1  0  0  0
  8 10  1  0  0  0
 10 35  1  0  0  0
 35 36  1  0  0  0
 35 37  1  0  0  0
 10 11  1  0  0  0
 11 12  2  0  0  0
 11 13  1  0  0  0
 13 15  1  0  0  0
 15 32  1  0  0  0
 32 33  1  0  0  0
 32 34  1  0  0  0
 15 16  1  0  0  0
 16 17  2  0  0  0
 16 18  1  0  0  0
 18 20  1  0  0  0
 20 25  1  0  0  0
 25 26  1  0  0  0
 26 27  2  0  0  0
 27 28  1  0  0  0
 28 29  2  0  0  0
 29 30  1  0  0  0
 30 31  2  0  0  0
 20 21  1  0  0  0
 21 22  1  0  0  0
 21 23  2  0  0  0
 69 64  1  0  0  0
 59 51  2  0  0  0
 31 26  1  0  0  0
 58 53  1  0  0  0
 42 45  1  0  0  0
 47 50  1  0  0  0
 52 61  1  0  0  0
 60 62  1  0  0  0
  3  4  1  0  0  0
  8  9  1  0  0  0
 13 14  1  0  0  0
 18 19  1  0  0  0
 22 24  1  0  0  0
M  END
> <minimizedAffinity>
5.29444

> <CNNscore>
0.4746066630

> <CNNaffinity>
6.9841942787

> <CNN_VS>
3.3147451878

> <CNNaffinity_variance>
0.1320507228

$$$$
[H]c1c([H])c(N([H])C(=O)c2c(C([H])([H])[H])c(C(=O)C(=O)N([H])C3(C(=O)N([H])C([H])([H])[H])C([H])([H])C(F)(F)C3([H])[H])c3n2C([H])([H])C([H])([H])C3([H])[H])c([H])c(F)c1F


 38 41  0  0  0  0  0  0  0  0999 V2000
   26.3343    8.2379   54.6993 C   0  0  0  0  0  0  0  0  0  0  0  0
   26.4946    9.1353   55.7330 C   0  0  0  0  0  0  0  0  0  0  0  0
   25.3917    9.7035   56.5730 C   0  0  0  0  0  0  0  0  0  0  0  0
   27.8265    9.3608   56.0170 C   0  0  0  0  0  0  0  0  0  0  0  0
   28.4938    8.5814   55.1488 N   0  0  0  0  0  0  0  0  0  0  0  0
   29.9065    8.2953   54.8612 C   0  0  0  0  0  0  0  0  0  0  0  0
   29.8429    7.1315   53.9300 C   0  0  0  0  0  0  0  0  0  0  0  0
   28.4475    7.0524   53.4080 C   0  0  0  0  0  0  0  0  0  0  0  0
   27.6886    7.9120   54.3659 C   0  0  0  0  0  0  0  0  0  0  0  0
   28.4121   10.2980   56.9618 C   0  0  0  0  0  0  0  0  0  0  0  0
   28.9565   11.3643   56.4831 O   0  0  0  0  0  0  0  0  0  0  0  0
   28.4243   10.1361   58.3487 N   0  0  0  0  0  0  0  0  0  0  0  0
   27.9771    9.3169   58.8355 H   0  0  0  0  0  0  0  0  0  0  0  0
   29.0086   11.0884   59.2569 C   0  0  0  0  0  0  0  0  0  0  0  0
   30.1639   10.8624   59.9289 C   0  0  0  0  0  0  0  0  0  0  0  0
   30.6457   11.8275   60.8189 C   0  0  0  0  0  0  0  0  0  0  0  0
   29.9933   13.0017   61.0404 C   0  0  0  0  0  0  0  0  0  0  0  0
   30.4311   13.9495   61.8890 F   0  0  0  0  0  0  0  0  0  0  0  0
   28.8141   13.2058   60.3378 C   0  0  0  0  0  0  0  0  0  0  0  0
   28.1174   14.3663   60.5197 F   0  0  0  0  0  0  0  0  0  0  0  0
   28.3166   12.2904   59.4662 C   0  0  0  0  0  0  0  0  0  0  0  0
   25.2041    7.7677   53.9632 C   0  0  0  0  0  0  0  0  0  0  0  0
   25.3665    6.5809   53.4152 O   0  0  0  0  0  0  0  0  0  0  0  0
   23.0051    8.5934   54.7551 N   0  0  0  0  0  0  0  0  0  0  0  0
   23.9239    8.3158   53.6848 C   0  0  0  0  0  0  0  0  0  0  0  0
   23.5029    8.5910   52.5598 O   0  0  0  0  0  0  0  0  0  0  0  0
   23.3629    8.3574   55.7189 H   0  0  0  0  0  0  0  0  0  0  0  0
   21.6951    9.1411   54.6414 C   0  0  0  0  0  0  0  0  0  0  0  0
   21.6304   10.6565   54.7929 C   0  0  0  0  0  0  0  0  0  0  0  0
   20.4583   10.4999   55.7291 C   0  0  0  0  0  0  0  0  0  0  0  0
   19.2495   10.8517   55.1586 F   0  0  0  0  0  0  0  0  0  0  0  0
   20.6508   11.1746   56.9336 F   0  0  0  0  0  0  0  0  0  0  0  0
   20.7406    9.0184   55.7702 C   0  0  0  0  0  0  0  0  0  0  0  0
   20.0648    7.2450   51.6252 C   0  0  0  0  0  0  0  0  0  0  0  0
   20.6481    7.4800   52.9467 N   0  0  0  0  0  0  0  0  0  0  0  0
   21.0894    8.7295   53.3489 C   0  0  0  0  0  0  0  0  0  0  0  0
   20.9680    9.6802   52.4969 O   0  0  0  0  0  0  0  0  0  0  0  0
   20.7196    6.6507   53.5531 H   0  0  0  0  0  0  0  0  0  0  0  0
 34 35  1  0  0  0
 35 36  1  0  0  0
 36 37  2  0  0  0
 36 28  1  0  0  0
 28 29  1  0  0  0
 29 30  1  0  0  0
 30 31  1  0  0  0
 30 32  1  0  0  0
 30 33  1  0  0  0
 28 24  1  0  0  0
 24 25  1  0  0  0
 25 26  2  0  0  0
 25 22  1  0  0  0
 22 23  2  0  0  0
 22  1  1  0  0  0
  1  2  1  0  0  0
  2  3  1  0  0  0
  2  4  2  0  0  0
  4 10  1  0  0  0
 10 11  2  0  0  0
 10 12  1  0  0  0
 12 14  1  0  0  0
 14 15  2  0  0  0
 15 16  1  0  0  0
 16 17  2  0  0  0
 17 18  1  0  0  0
 17 19  1  0  0  0
 19 20  1  0  0  0
 19 21  2  0  0  0
  4  5  1  0  0  0
  5  6  1  0  0  0
  6  7  1  0  0  0
  7  8  1  0  0  0
  8  9  1  0  0  0
 33 28  1  0  0  0
  9  1  2  0  0  0
 21 14  1  0  0  0
  9  5  1  0  0  0
 35 38  1  0  0  0
 24 27  1  0  0  0
 12 13  1  0  0  0
M  END
> <minimizedAffinity>
21.01786

> <CNNscore>
0.6465095878

> <CNNaffinity>
6.4966936111

> <CNN_VS>
4.2001748085

> <CNNaffinity_variance>
0.6039758325

$$$$
[H]c1c([H])c(N([H])C(=O)c2c(C([H])([H])[H])c(C(=O)C(=O)N([H])C3(C(=O)N([H])C([H])([H])[H])C([H])([H])C(F)(F)C3([H])[H])c3n2C([H])([H])C([H])([H])C3([H])[H])c([H])c(F)c1F


 38 41  0  0  0  0  0  0  0  0999 V2000
   23.9380    7.8290   53.7777 C   0  0  0  0  0  0  0  0  0  0  0  0
   23.1187    6.7761   53.4317 C   0  0  0  0  0  0  0  0  0  0  0  0
   23.5757    5.4634   52.8723 C   0  0  0  0  0  0  0  0  0  0  0  0
   21.8059    7.0056   53.7913 C   0  0  0  0  0  0  0  0  0  0  0  0
   21.8223    8.2157   54.3759 N   0  0  0  0  0  0  0  0  0  0  0  0
   20.8251    9.0985   54.9976 C   0  0  0  0  0  0  0  0  0  0  0  0
   21.6533   10.1572   55.6448 C   0  0  0  0  0  0  0  0  0  0  0  0
   23.0193   10.0821   55.0498 C   0  0  0  0  0  0  0  0  0  0  0  0
   23.0207    8.7379   54.3974 C   0  0  0  0  0  0  0  0  0  0  0  0
   20.6307    6.1928   53.5224 C   0  0  0  0  0  0  0  0  0  0  0  0
   19.6625    6.7427   52.8722 O   0  0  0  0  0  0  0  0  0  0  0  0
   20.4723    4.8601   53.9077 N   0  0  0  0  0  0  0  0  0  0  0  0
   21.2184    4.3153   54.4123 H   0  0  0  0  0  0  0  0  0  0  0  0
   19.2957    4.0818   53.6192 C   0  0  0  0  0  0  0  0  0  0  0  0
   19.2642    3.1010   52.6841 C   0  0  0  0  0  0  0  0  0  0  0  0
   18.0698    2.4149   52.4424 C   0  0  0  0  0  0  0  0  0  0  0  0
   16.9215    2.6951   53.1180 C   0  0  0  0  0  0  0  0  0  0  0  0
   15.7579    2.0530   52.9089 F   0  0  0  0  0  0  0  0  0  0  0  0
   16.9843    3.7030   54.0698 C   0  0  0  0  0  0  0  0  0  0  0  0
   15.8628    4.0264   54.7789 F   0  0  0  0  0  0  0  0  0  0  0  0
   18.1266    4.3901   54.3302 C   0  0  0  0  0  0  0  0  0  0  0  0
   25.3114    8.1361   53.5335 C   0  0  0  0  0  0  0  0  0  0  0  0
   25.5918    8.4164   52.2773 O   0  0  0  0  0  0  0  0  0  0  0  0
   26.6611    9.3212   55.2418 N   0  0  0  0  0  0  0  0  0  0  0  0
   26.4604    8.1990   54.3658 C   0  0  0  0  0  0  0  0  0  0  0  0
   27.3456    7.3431   54.4137 O   0  0  0  0  0  0  0  0  0  0  0  0
   25.9052   10.0557   55.2016 H   0  0  0  0  0  0  0  0  0  0  0  0
   27.7524    9.5298   56.1332 C   0  0  0  0  0  0  0  0  0  0  0  0
   28.0327    8.3607   57.0705 C   0  0  0  0  0  0  0  0  0  0  0  0
   28.1367    9.3272   58.2237 C   0  0  0  0  0  0  0  0  0  0  0  0
   29.4347    9.5327   58.6520 F   0  0  0  0  0  0  0  0  0  0  0  0
   27.3160    8.9660   59.2910 F   0  0  0  0  0  0  0  0  0  0  0  0
   27.5820   10.4014   57.3213 C   0  0  0  0  0  0  0  0  0  0  0  0
   30.7077   11.2750   54.2435 C   0  0  0  0  0  0  0  0  0  0  0  0
   29.4735   11.1146   55.0134 N   0  0  0  0  0  0  0  0  0  0  0  0
   28.9743    9.8702   55.3599 C   0  0  0  0  0  0  0  0  0  0  0  0
   29.6481    8.8535   54.9641 O   0  0  0  0  0  0  0  0  0  0  0  0
   28.9944   11.9894   55.2696 H   0  0  0  0  0  0  0  0  0  0  0  0
 34 35  1  0  0  0
 35 36  1  0  0  0
 36 37  2  0  0  0
 36 28  1  0  0  0
 28 29  1  0  0  0
 29 30  1  0  0  0
 30 31  1  0  0  0
 30 32  1  0  0  0
 30 33  1  0  0  0
 28 24  1  0  0  0
 24 25  1  0  0  0
 25 26  2  0  0  0
 25 22  1  0  0  0
 22 23  2  0  0  0
 22  1  1  0  0  0
  1  2  1  0  0  0
  2  3  1  0  0  0
  2  4  2  0  0  0
  4 10  1  0  0  0
 10 11  2  0  0  0
 10 12  1  0  0  0
 12 14  1  0  0  0
 14 15  2  0  0  0
 15 16  1  0  0  0
 16 17  2  0  0  0
 17 18  1  0  0  0
 17 19  1  0  0  0
 19 20  1  0  0  0
 19 21  2  0  0  0
  4  5  1  0  0  0
  5  6  1  0  0  0
  6  7  1  0  0  0
  7  8  1  0  0  0
  8  9  1  0  0  0
 33 28  1  0  0  0
  9  1  2  0  0  0
 21 14  1  0  0  0
  9  5  1  0  0  0
 35 38  1  0  0  0
 24 27  1  0  0  0
 12 13  1  0  0  0
M  END
> <minimizedAffinity>
24.17425

> <CNNscore>
0.6432591677

> <CNNaffinity>
6.7740554810

> <CNN_VS>
4.3574733734

> <CNNaffinity_variance>
0.3576241434

$$$$
[H]c1c([H])c(N([H])C(=O)c2c(C([H])([H])[H])c(C(=O)C(=O)N([H])C3(C(=O)N([H])C([H])([H])[H])C([H])([H])C(F)(F)C3([H])[H])c3n2C([H])([H])C([H])([H])C3([H])[H])c([H])c(F)c1F


 38 41  0  0  0  0  0  0  0  0999 V2000
   22.5867    8.8768   54.5107 C   0  0  0  0  0  0  0  0  0  0  0  0
   21.8679    7.7029   54.5800 C   0  0  0  0  0  0  0  0  0  0  0  0
   21.8800    6.7399   55.7278 C   0  0  0  0  0  0  0  0  0  0  0  0
   21.0027    7.5652   53.5132 C   0  0  0  0  0  0  0  0  0  0  0  0
   21.1875    8.6781   52.7826 N   0  0  0  0  0  0  0  0  0  0  0  0
   20.6289    9.2257   51.5382 C   0  0  0  0  0  0  0  0  0  0  0  0
   21.1497   10.6234   51.5089 C   0  0  0  0  0  0  0  0  0  0  0  0
   22.2785   10.7003   52.4812 C   0  0  0  0  0  0  0  0  0  0  0  0
   22.0862    9.4699   53.3068 C   0  0  0  0  0  0  0  0  0  0  0  0
   20.1479    6.4400   53.1709 C   0  0  0  0  0  0  0  0  0  0  0  0
   19.9502    6.2015   51.9193 O   0  0  0  0  0  0  0  0  0  0  0  0
   19.5299    5.5930   54.0930 N   0  0  0  0  0  0  0  0  0  0  0  0
   19.6568    5.6862   55.1338 H   0  0  0  0  0  0  0  0  0  0  0  0
   18.6931    4.4826   53.7187 C   0  0  0  0  0  0  0  0  0  0  0  0
   19.1525    3.3999   53.0449 C   0  0  0  0  0  0  0  0  0  0  0  0
   18.2648    2.3791   52.6900 C   0  0  0  0  0  0  0  0  0  0  0  0
   16.9398    2.4286   52.9989 C   0  0  0  0  0  0  0  0  0  0  0  0
   16.0615    1.4632   52.6723 F   0  0  0  0  0  0  0  0  0  0  0  0
   16.4986    3.5483   53.6898 C   0  0  0  0  0  0  0  0  0  0  0  0
   15.1792    3.6515   54.0270 F   0  0  0  0  0  0  0  0  0  0  0  0
   17.3323    4.5585   54.0499 C   0  0  0  0  0  0  0  0  0  0  0  0
   23.6617    9.4257   55.2744 C   0  0  0  0  0  0  0  0  0  0  0  0
   23.3763   10.5608   55.8789 O   0  0  0  0  0  0  0  0  0  0  0  0
   25.8593    9.7944   56.3602 N   0  0  0  0  0  0  0  0  0  0  0  0
   24.9963    9.0078   55.5216 C   0  0  0  0  0  0  0  0  0  0  0  0
   25.5124    7.9860   55.0654 O   0  0  0  0  0  0  0  0  0  0  0  0
   25.4200   10.6702   56.7508 H   0  0  0  0  0  0  0  0  0  0  0  0
   27.2124    9.5119   56.7042 C   0  0  0  0  0  0  0  0  0  0  0  0
   27.3772    8.5405   57.8674 C   0  0  0  0  0  0  0  0  0  0  0  0
   28.4081    9.4603   58.4725 C   0  0  0  0  0  0  0  0  0  0  0  0
   29.7023    8.9910   58.3485 F   0  0  0  0  0  0  0  0  0  0  0  0
   28.1216    9.7738   59.8001 F   0  0  0  0  0  0  0  0  0  0  0  0
   28.0069   10.5080   57.4637 C   0  0  0  0  0  0  0  0  0  0  0  0
   28.7537    7.3995   53.7865 C   0  0  0  0  0  0  0  0  0  0  0  0
   27.9836    7.7275   54.9870 N   0  0  0  0  0  0  0  0  0  0  0  0
   27.9393    9.0089   55.5103 C   0  0  0  0  0  0  0  0  0  0  0  0
   28.6180    9.9032   54.8906 O   0  0  0  0  0  0  0  0  0  0  0  0
   27.4865    6.9384   55.4237 H   0  0  0  0  0  0  0  0  0  0  0  0
 34 35  1  0  0  0
 35 36  1  0  0  0
 36 37  2  0  0  0
 36 28  1  0  0  0
 28 29  1  0  0  0
 29 30  1  0  0  0
 30 31  1  0  0  0
 30 32  1  0  0  0
 30 33  1  0  0  0
 28 24  1  0  0  0
 24 25  1  0  0  0
 25 26  2  0  0  0
 25 22  1  0  0  0
 22 23  2  0  0  0
 22  1  1  0  0  0
  1  2  1  0  0  0
  2  3  1  0  0  0
  2  4  2  0  0  0
  4 10  1  0  0  0
 10 11  2  0  0  0
 10 12  1  0  0  0
 12 14  1  0  0  0
 14 15  2  0  0  0
 15 16  1  0  0  0
 16 17  2  0  0  0
 17 18  1  0  0  0
 17 19  1  0  0  0
 19 20  1  0  0  0
 19 21  2  0  0  0
  4  5  1  0  0  0
  5  6  1  0  0  0
  6  7  1  0  0  0
  7  8  1  0  0  0
  8  9  1  0  0  0
 33 28  1  0  0  0
  9  1  2  0  0  0
 21 14  1  0  0  0
  9  5  1  0  0  0
 35 38  1  0  0  0
 24 27  1  0  0  0
 12 13  1  0  0  0
M  END
> <minimizedAffinity>
27.07446

> <CNNscore>
0.6276471615

> <CNNaffinity>
6.7988281250

> <CNN_VS>
4.2672653198

> <CNNaffinity_variance>
0.5639456511

$$$$
[H]c1c([H])c(N([H])C(=O)c2c(C([H])([H])[H])c(C(=O)C(=O)N([H])C3(C(=O)N([H])C([H])([H])[H])C([H])([H])C(F)(F)C3([H])[H])c3n2C([H])([H])C([H])([H])C3([H])[H])c([H])c(F)c1F


 38 41  0  0  0  0  0  0  0  0999 V2000
   22.4610    8.6147   54.4903 C   0  0  0  0  0  0  0  0  0  0  0  0
   21.5737    7.5866   54.7256 C   0  0  0  0  0  0  0  0  0  0  0  0
   21.5001    6.7683   55.9786 C   0  0  0  0  0  0  0  0  0  0  0  0
   20.6395    7.4716   53.7159 C   0  0  0  0  0  0  0  0  0  0  0  0
   20.9537    8.4518   52.8516 N   0  0  0  0  0  0  0  0  0  0  0  0
   20.4184    8.9398   51.5727 C   0  0  0  0  0  0  0  0  0  0  0  0
   21.1473   10.2236   51.3578 C   0  0  0  0  0  0  0  0  0  0  0  0
   22.3269   10.2261   52.2713 C   0  0  0  0  0  0  0  0  0  0  0  0
   21.9922    9.1424   53.2440 C   0  0  0  0  0  0  0  0  0  0  0  0
   19.6026    6.4673   53.5421 C   0  0  0  0  0  0  0  0  0  0  0  0
   18.4078    6.8821   53.2915 O   0  0  0  0  0  0  0  0  0  0  0  0
   19.8021    5.0874   53.6184 N   0  0  0  0  0  0  0  0  0  0  0  0
   20.7457    4.6516   53.7856 H   0  0  0  0  0  0  0  0  0  0  0  0
   18.7523    4.1192   53.4349 C   0  0  0  0  0  0  0  0  0  0  0  0
   18.8778    3.0286   52.6398 C   0  0  0  0  0  0  0  0  0  0  0  0
   17.7964    2.1545   52.4902 C   0  0  0  0  0  0  0  0  0  0  0  0
   16.6064    2.3565   53.1199 C   0  0  0  0  0  0  0  0  0  0  0  0
   15.5487    1.5343   52.9968 F   0  0  0  0  0  0  0  0  0  0  0  0
   16.5077    3.4804   53.9280 C   0  0  0  0  0  0  0  0  0  0  0  0
   15.3375    3.7330   54.5853 F   0  0  0  0  0  0  0  0  0  0  0  0
   17.5370    4.3506   54.0960 C   0  0  0  0  0  0  0  0  0  0  0  0
   23.6490    9.0654   55.1426 C   0  0  0  0  0  0  0  0  0  0  0  0
   23.4650   10.0673   55.9779 O   0  0  0  0  0  0  0  0  0  0  0  0
   25.9940    9.3014   55.9107 N   0  0  0  0  0  0  0  0  0  0  0  0
   25.0097    8.6640   55.0789 C   0  0  0  0  0  0  0  0  0  0  0  0
   25.4512    7.7783   54.3445 O   0  0  0  0  0  0  0  0  0  0  0  0
   25.6186   10.0607   56.5392 H   0  0  0  0  0  0  0  0  0  0  0  0
   27.3880    9.0136   55.9652 C   0  0  0  0  0  0  0  0  0  0  0  0
   28.1678    9.4374   54.7258 C   0  0  0  0  0  0  0  0  0  0  0  0
   28.8545    8.0946   54.7146 C   0  0  0  0  0  0  0  0  0  0  0  0
   30.1697    8.1474   55.1366 F   0  0  0  0  0  0  0  0  0  0  0  0
   28.7585    7.4626   53.4759 F   0  0  0  0  0  0  0  0  0  0  0  0
   27.8664    7.6255   55.7538 C   0  0  0  0  0  0  0  0  0  0  0  0
   28.8596    9.8134   59.5071 C   0  0  0  0  0  0  0  0  0  0  0  0
   28.2638    9.0552   58.4063 N   0  0  0  0  0  0  0  0  0  0  0  0
   27.9810    9.6313   57.1791 C   0  0  0  0  0  0  0  0  0  0  0  0
   28.2624   10.8761   57.0536 O   0  0  0  0  0  0  0  0  0  0  0  0
   28.0576    8.0669   58.6097 H   0  0  0  0  0  0  0  0  0  0  0  0
 34 35  1  0  0  0
 35 36  1  0  0  0
 36 37  2  0  0  0
 36 28  1  0  0  0
 28 29  1  0  0  0
 29 30  1  0  0  0
 30 31  1  0  0  0
 30 32  1  0  0  0
 30 33  1  0  0  0
 28 24  1  0  0  0
 24 25  1  0  0  0
 25 26  2  0  0  0
 25 22  1  0  0  0
 22 23  2  0  0  0
 22  1  1  0  0  0
  1  2  1  0  0  0
  2  3  1  0  0  0
  2  4  2  0  0  0
  4 10  1  0  0  0
 10 11  2  0  0  0
 10 12  1  0  0  0
 12 14  1  0  0  0
 14 15  2  0  0  0
 15 16  1  0  0  0
 16 17  2  0  0  0
 17 18  1  0  0  0
 17 19  1  0  0  0
 19 20  1  0  0  0
 19 21  2  0  0  0
  4  5  1  0  0  0
  5  6  1  0  0  0
  6  7  1  0  0  0
  7  8  1  0  0  0
  8  9  1  0  0  0
 33 28  1  0  0  0
  9  1  2  0  0  0
 21 14  1  0  0  0
  9  5  1  0  0  0
 35 38  1  0  0  0
 24 27  1  0  0  0
 12 13  1  0  0  0
M  END
> <minimizedAffinity>
22.68878

> <CNNscore>
0.6122815013

> <CNNaffinity>
6.7850532532

> <CNN_VS>
4.1543626785

> <CNNaffinity_variance>
0.3338840902

$$$$
[H]c1c([H])c(N([H])C(=O)c2c(C([H])([H])[H])c(C(=O)C(=O)N([H])C3(C(=O)N([H])C([H])([H])[H])C([H])([H])C(F)(F)C3([H])[H])c3n2C([H])([H])C([H])([H])C3([H])[H])c([H])c(F)c1F


 38 41  0  0  0  0  0  0  0  0999 V2000
   26.6751    9.1142   56.5153 C   0  0  0  0  0  0  0  0  0  0  0  0
   25.4024    9.0646   55.9886 C   0  0  0  0  0  0  0  0  0  0  0  0
   24.1461    9.4534   56.7065 C   0  0  0  0  0  0  0  0  0  0  0  0
   25.4130    8.7419   54.6465 C   0  0  0  0  0  0  0  0  0  0  0  0
   26.7148    8.6004   54.3433 N   0  0  0  0  0  0  0  0  0  0  0  0
   27.4851    8.2737   53.1349 C   0  0  0  0  0  0  0  0  0  0  0  0
   28.8941    8.5593   53.5330 C   0  0  0  0  0  0  0  0  0  0  0  0
   28.9301    8.6406   55.0222 C   0  0  0  0  0  0  0  0  0  0  0  0
   27.4880    8.8028   55.3779 C   0  0  0  0  0  0  0  0  0  0  0  0
   24.2884    8.4998   53.7573 C   0  0  0  0  0  0  0  0  0  0  0  0
   24.4456    7.6253   52.8229 O   0  0  0  0  0  0  0  0  0  0  0  0
   23.0484    9.1363   53.8413 N   0  0  0  0  0  0  0  0  0  0  0  0
   22.8130    9.8396   54.5883 H   0  0  0  0  0  0  0  0  0  0  0  0
   21.9528    8.8678   52.9464 C   0  0  0  0  0  0  0  0  0  0  0  0
   21.5664    9.7220   51.9674 C   0  0  0  0  0  0  0  0  0  0  0  0
   20.4692    9.3995   51.1624 C   0  0  0  0  0  0  0  0  0  0  0  0
   19.7641    8.2461   51.3234 C   0  0  0  0  0  0  0  0  0  0  0  0
   18.7055    7.9073   50.5654 F   0  0  0  0  0  0  0  0  0  0  0  0
   20.1834    7.3907   52.3326 C   0  0  0  0  0  0  0  0  0  0  0  0
   19.5138    6.2185   52.5394 F   0  0  0  0  0  0  0  0  0  0  0  0
   21.2439    7.6720   53.1333 C   0  0  0  0  0  0  0  0  0  0  0  0
   27.1939    9.2816   57.8355 C   0  0  0  0  0  0  0  0  0  0  0  0
   26.5948    8.5504   58.7529 O   0  0  0  0  0  0  0  0  0  0  0  0
   28.4584   10.1057   59.8018 N   0  0  0  0  0  0  0  0  0  0  0  0
   28.2295   10.0848   58.3827 C   0  0  0  0  0  0  0  0  0  0  0  0
   28.9892   10.8005   57.7275 O   0  0  0  0  0  0  0  0  0  0  0  0
   27.8085    9.4948   60.3648 H   0  0  0  0  0  0  0  0  0  0  0  0
   29.4509   10.8516   60.5003 C   0  0  0  0  0  0  0  0  0  0  0  0
   28.8965   11.8198   61.5391 C   0  0  0  0  0  0  0  0  0  0  0  0
   29.8154   12.8927   61.0106 C   0  0  0  0  0  0  0  0  0  0  0  0
   30.8873   13.1558   61.8427 F   0  0  0  0  0  0  0  0  0  0  0  0
   29.1320   14.0670   60.6994 F   0  0  0  0  0  0  0  0  0  0  0  0
   30.1208   11.9963   59.8360 C   0  0  0  0  0  0  0  0  0  0  0  0
   31.4362    7.7735   61.8909 C   0  0  0  0  0  0  0  0  0  0  0  0
   30.3804    8.5433   61.2318 N   0  0  0  0  0  0  0  0  0  0  0  0
   30.4235    9.9239   61.1327 C   0  0  0  0  0  0  0  0  0  0  0  0
   31.4400   10.5032   61.6578 O   0  0  0  0  0  0  0  0  0  0  0  0
   29.5968    7.9900   60.8571 H   0  0  0  0  0  0  0  0  0  0  0  0
 34 35  1  0  0  0
 35 36  1  0  0  0
 36 37  2  0  0  0
 36 28  1  0  0  0
 28 29  1  0  0  0
 29 30  1  0  0  0
 30 31  1  0  0  0
 30 32  1  0  0  0
 30 33  1  0  0  0
 28 24  1  0  0  0
 24 25  1  0  0  0
 25 26  2  0  0  0
 25 22  1  0  0  0
 22 23  2  0  0  0
 22  1  1  0  0  0
  1  2  1  0  0  0
  2  3  1  0  0  0
  2  4  2  0  0  0
  4 10  1  0  0  0
 10 11  2  0  0  0
 10 12  1  0  0  0
 12 14  1  0  0  0
 14 15  2  0  0  0
 15 16  1  0  0  0
 16 17  2  0  0  0
 17 18  1  0  0  0
 17 19  1  0  0  0
 19 20  1  0  0  0
 19 21  2  0  0  0
  4  5  1  0  0  0
  5  6  1  0  0  0
  6  7  1  0  0  0
  7  8  1  0  0  0
  8  9  1  0  0  0
 33 28  1  0  0  0
  9  1  2  0  0  0
 21 14  1  0  0  0
  9  5  1  0  0  0
 35 38  1  0  0  0
 24 27  1  0  0  0
 12 13  1  0  0  0
M  END
> <minimizedAffinity>
16.02826

> <CNNscore>
0.5610016584

> <CNNaffinity>
6.3360123634

> <CNN_VS>
3.5545134544

> <CNNaffinity_variance>
0.4423229694

$$$$
[H]c1c([H])c(N([H])C(=O)c2c(C([H])([H])[H])c(C(=O)C(=O)N([H])C3(C(=O)N([H])C([H])([H])[H])C([H])([H])C(F)(F)C3([H])[H])c3n2C([H])([H])C([H])([H])C3([H])[H])c([H])c(F)c1F


 38 41  0  0  0  0  0  0  0  0999 V2000
   24.6622    8.1431   54.3114 C   0  0  0  0  0  0  0  0  0  0  0  0
   23.9181    7.0641   53.8851 C   0  0  0  0  0  0  0  0  0  0  0  0
   24.4717    5.7454   53.4385 C   0  0  0  0  0  0  0  0  0  0  0  0
   22.5638    7.2771   54.0456 C   0  0  0  0  0  0  0  0  0  0  0  0
   22.4766    8.5037   54.5881 N   0  0  0  0  0  0  0  0  0  0  0  0
   21.3864    9.3837   55.0324 C   0  0  0  0  0  0  0  0  0  0  0  0
   22.0959   10.4773   55.7578 C   0  0  0  0  0  0  0  0  0  0  0  0
   23.5343   10.4128   55.3671 C   0  0  0  0  0  0  0  0  0  0  0  0
   23.6510    9.0507   54.7644 C   0  0  0  0  0  0  0  0  0  0  0  0
   21.4526    6.4332   53.6369 C   0  0  0  0  0  0  0  0  0  0  0  0
   20.6440    6.9020   52.7487 O   0  0  0  0  0  0  0  0  0  0  0  0
   21.1972    5.1509   54.1270 N   0  0  0  0  0  0  0  0  0  0  0  0
   21.8174    4.6697   54.8283 H   0  0  0  0  0  0  0  0  0  0  0  0
   20.0892    4.3390   53.6953 C   0  0  0  0  0  0  0  0  0  0  0  0
   20.2010    3.3675   52.7566 C   0  0  0  0  0  0  0  0  0  0  0  0
   19.0667    2.6467   52.3697 C   0  0  0  0  0  0  0  0  0  0  0  0
   17.8377    2.8835   52.9056 C   0  0  0  0  0  0  0  0  0  0  0  0
   16.7286    2.2074   52.5551 F   0  0  0  0  0  0  0  0  0  0  0  0
   17.7541    3.8829   53.8648 C   0  0  0  0  0  0  0  0  0  0  0  0
   16.5463    4.1634   54.4373 F   0  0  0  0  0  0  0  0  0  0  0  0
   18.8345    4.6029   54.2640 C   0  0  0  0  0  0  0  0  0  0  0  0
   26.0514    8.4709   54.2568 C   0  0  0  0  0  0  0  0  0  0  0  0
   26.5446    8.5506   53.0379 O   0  0  0  0  0  0  0  0  0  0  0  0
   26.6484    9.2476   56.5337 N   0  0  0  0  0  0  0  0  0  0  0  0
   27.0334    8.7273   55.2500 C   0  0  0  0  0  0  0  0  0  0  0  0
   28.2433    8.5372   55.1128 O   0  0  0  0  0  0  0  0  0  0  0  0
   25.6134    9.4123   56.6530 H   0  0  0  0  0  0  0  0  0  0  0  0
   27.5069    9.5535   57.6285 C   0  0  0  0  0  0  0  0  0  0  0  0
   28.8961    8.9332   57.5322 C   0  0  0  0  0  0  0  0  0  0  0  0
   28.7844    8.4916   58.9700 C   0  0  0  0  0  0  0  0  0  0  0  0
   29.5573    9.2420   59.8361 F   0  0  0  0  0  0  0  0  0  0  0  0
   29.0465    7.1315   59.1266 F   0  0  0  0  0  0  0  0  0  0  0  0
   27.3229    8.8639   58.9289 C   0  0  0  0  0  0  0  0  0  0  0  0
   28.3525   13.2220   58.7135 C   0  0  0  0  0  0  0  0  0  0  0  0
   28.3560   11.7586   58.6980 N   0  0  0  0  0  0  0  0  0  0  0  0
   27.6138   11.0267   57.7863 C   0  0  0  0  0  0  0  0  0  0  0  0
   26.9099   11.6989   56.9513 O   0  0  0  0  0  0  0  0  0  0  0  0
   28.9383   11.3094   59.4189 H   0  0  0  0  0  0  0  0  0  0  0  0
 34 35  1  0  0  0
 35 36  1  0  0  0
 36 37  2  0  0  0
 36 28  1  0  0  0
 28 29  1  0  0  0
 29 30  1  0  0  0
 30 31  1  0  0  0
 30 32  1  0  0  0
 30 33  1  0  0  0
 28 24  1  0  0  0
 24 25  1  0  0  0
 25 26  2  0  0  0
 25 22  1  0  0  0
 22 23  2  0  0  0
 22  1  1  0  0  0
  1  2  1  0  0  0
  2  3  1  0  0  0
  2  4  2  0  0  0
  4 10  1  0  0  0
 10 11  2  0  0  0
 10 12  1  0  0  0
 12 14  1  0  0  0
 14 15  2  0  0  0
 15 16  1  0  0  0
 16 17  2  0  0  0
 17 18  1  0  0  0
 17 19  1  0  0  0
 19 20  1  0  0  0
 19 21  2  0  0  0
  4  5  1  0  0  0
  5  6  1  0  0  0
  6  7  1  0  0  0
  7  8  1  0  0  0
  8  9  1  0  0  0
 33 28  1  0  0  0
  9  1  2  0  0  0
 21 14  1  0  0  0
  9  5  1  0  0  0
 35 38  1  0  0  0
 24 27  1  0  0  0
 12 13  1  0  0  0
M  END
> <minimizedAffinity>
24.26124

> <CNNscore>
0.5585606694

> <CNNaffinity>
6.5544395447

> <CNN_VS>
3.6610522270

> <CNNaffinity_variance>
0.3513987660

$$$$
[H]c1c([H])c(N([H])C(=O)c2c(C([H])([H])[H])c(C(=O)C(=O)N([H])C3(C(=O)N([H])C([H])([H])[H])C([H])([H])C(F)(F)C3([H])[H])c3n2C([H])([H])C([H])([H])C3([H])[H])c([H])c(F)c1F


 38 41  0  0  0  0  0  0  0  0999 V2000
   26.1485    8.2297   54.9495 C   0  0  0  0  0  0  0  0  0  0  0  0
   26.2752    9.1414   55.9754 C   0  0  0  0  0  0  0  0  0  0  0  0
   25.1614    9.6277   56.8518 C   0  0  0  0  0  0  0  0  0  0  0  0
   27.5948    9.4692   56.2128 C   0  0  0  0  0  0  0  0  0  0  0  0
   28.2896    8.7390   55.3237 N   0  0  0  0  0  0  0  0  0  0  0  0
   29.7094    8.5602   54.9880 C   0  0  0  0  0  0  0  0  0  0  0  0
   29.7030    7.3907   54.0619 C   0  0  0  0  0  0  0  0  0  0  0  0
   28.3007    7.2030   53.5885 C   0  0  0  0  0  0  0  0  0  0  0  0
   27.5116    8.0066   54.5703 C   0  0  0  0  0  0  0  0  0  0  0  0
   28.1391   10.4527   57.1351 C   0  0  0  0  0  0  0  0  0  0  0  0
   28.2689   11.6622   56.7075 O   0  0  0  0  0  0  0  0  0  0  0  0
   28.5258   10.1902   58.4508 N   0  0  0  0  0  0  0  0  0  0  0  0
   28.4278    9.2435   58.9006 H   0  0  0  0  0  0  0  0  0  0  0  0
   29.0563   11.1907   59.3401 C   0  0  0  0  0  0  0  0  0  0  0  0
   30.1590   10.9965   60.1041 C   0  0  0  0  0  0  0  0  0  0  0  0
   30.5886   12.0095   60.9673 C   0  0  0  0  0  0  0  0  0  0  0  0
   29.9362   13.1998   61.0723 C   0  0  0  0  0  0  0  0  0  0  0  0
   30.3247   14.1933   61.8920 F   0  0  0  0  0  0  0  0  0  0  0  0
   28.8116   13.3704   60.2773 C   0  0  0  0  0  0  0  0  0  0  0  0
   28.1177   14.5450   60.3404 F   0  0  0  0  0  0  0  0  0  0  0  0
   28.3656   12.4083   59.4285 C   0  0  0  0  0  0  0  0  0  0  0  0
   25.0330    7.6713   54.2538 C   0  0  0  0  0  0  0  0  0  0  0  0
   25.3165    6.6007   53.5406 O   0  0  0  0  0  0  0  0  0  0  0  0
   22.9174    7.7402   52.9639 N   0  0  0  0  0  0  0  0  0  0  0  0
   23.6626    8.0312   54.1585 C   0  0  0  0  0  0  0  0  0  0  0  0
   23.0174    8.5958   55.0437 O   0  0  0  0  0  0  0  0  0  0  0  0
   23.4681    7.2580   52.2044 H   0  0  0  0  0  0  0  0  0  0  0  0
   21.5457    8.0328   52.7153 C   0  0  0  0  0  0  0  0  0  0  0  0
   20.6152    7.7311   53.8845 C   0  0  0  0  0  0  0  0  0  0  0  0
   19.6629    7.0496   52.9339 C   0  0  0  0  0  0  0  0  0  0  0  0
   18.5267    7.7911   52.6700 F   0  0  0  0  0  0  0  0  0  0  0  0
   19.3268    5.7638   53.3546 F   0  0  0  0  0  0  0  0  0  0  0  0
   20.7344    7.1194   51.8740 C   0  0  0  0  0  0  0  0  0  0  0  0
   21.5433   11.9398   52.4224 C   0  0  0  0  0  0  0  0  0  0  0  0
   21.7501   10.6044   52.9844 N   0  0  0  0  0  0  0  0  0  0  0  0
   21.4024    9.4518   52.3000 C   0  0  0  0  0  0  0  0  0  0  0  0
   20.8783    9.6116   51.1405 O   0  0  0  0  0  0  0  0  0  0  0  0
   22.1605   10.5799   53.9286 H   0  0  0  0  0  0  0  0  0  0  0  0
 34 35  1  0  0  0
 35 36  1  0  0  0
 36 37  2  0  0  0
 36 28  1  0  0  0
 28 29  1  0  0  0
 29 30  1  0  0  0
 30 31  1  0  0  0
 30 32  1  0  0  0
 30 33  1  0  0  0
 28 24  1  0  0  0
 24 25  1  0  0  0
 25 26  2  0  0  0
 25 22  1  0  0  0
 22 23  2  0  0  0
 22  1  1  0  0  0
  1  2  1  0  0  0
  2  3  1  0  0  0
  2  4  2  0  0  0
  4 10  1  0  0  0
 10 11  2  0  0  0
 10 12  1  0  0  0
 12 14  1  0  0  0
 14 15  2  0  0  0
 15 16  1  0  0  0
 16 17  2  0  0  0
 17 18  1  0  0  0
 17 19  1  0  0  0
 19 20  1  0  0  0
 19 21  2  0  0  0
  4  5  1  0  0  0
  5  6  1  0  0  0
  6  7  1  0  0  0
  7  8  1  0  0  0
  8  9  1  0  0  0
 33 28  1  0  0  0
  9  1  2  0  0  0
 21 14  1  0  0  0
  9  5  1  0  0  0
 35 38  1  0  0  0
 24 27  1  0  0  0
 12 13  1  0  0  0
M  END
> <minimizedAffinity>
13.51166

> <CNNscore>
0.5578860044

> <CNNaffinity>
6.5153198242

> <CNN_VS>
3.6348056793

> <CNNaffinity_variance>
0.4881321490

$$$$
[H]c1c([H])c(N([H])C(=O)c2c(C([H])([H])[H])c(C(=O)C(=O)N([H])C3(C(=O)N([H])C([H])([H])[H])C([H])([H])C(F)(F)C3([H])[H])c3n2C([H])([H])C([H])([H])C3([H])[H])c([H])c(F)c1F


 38 41  0  0  0  0  0  0  0  0999 V2000
   24.6054    8.0576   54.2497 C   0  0  0  0  0  0  0  0  0  0  0  0
   23.8390    6.9906   53.8329 C   0  0  0  0  0  0  0  0  0  0  0  0
   24.3666    5.6707   53.3593 C   0  0  0  0  0  0  0  0  0  0  0  0
   22.4917    7.2161   54.0309 C   0  0  0  0  0  0  0  0  0  0  0  0
   22.4318    8.4382   54.5872 N   0  0  0  0  0  0  0  0  0  0  0  0
   21.3629    9.3250   55.0684 C   0  0  0  0  0  0  0  0  0  0  0  0
   22.1028   10.4039   55.7853 C   0  0  0  0  0  0  0  0  0  0  0  0
   23.5297   10.3284   55.3564 C   0  0  0  0  0  0  0  0  0  0  0  0
   23.6161    8.9711   54.7378 C   0  0  0  0  0  0  0  0  0  0  0  0
   21.3612    6.3878   53.6436 C   0  0  0  0  0  0  0  0  0  0  0  0
   20.4987    6.8988   52.8328 O   0  0  0  0  0  0  0  0  0  0  0  0
   21.1410    5.0786   54.0764 N   0  0  0  0  0  0  0  0  0  0  0  0
   21.8043    4.5642   54.7116 H   0  0  0  0  0  0  0  0  0  0  0  0
   20.0122    4.2836   53.6677 C   0  0  0  0  0  0  0  0  0  0  0  0
   20.0883    3.3160   52.7215 C   0  0  0  0  0  0  0  0  0  0  0  0
   18.9356    2.6122   52.3587 C   0  0  0  0  0  0  0  0  0  0  0  0
   17.7233    2.8619   52.9257 C   0  0  0  0  0  0  0  0  0  0  0  0
   16.5972    2.2022   52.5989 F   0  0  0  0  0  0  0  0  0  0  0  0
   17.6762    3.8569   53.8919 C   0  0  0  0  0  0  0  0  0  0  0  0
   16.4865    4.1499   54.4953 F   0  0  0  0  0  0  0  0  0  0  0  0
   18.7753    4.5606   54.2683 C   0  0  0  0  0  0  0  0  0  0  0  0
   25.9961    8.3715   54.1617 C   0  0  0  0  0  0  0  0  0  0  0  0
   26.5011    8.2721   52.9492 O   0  0  0  0  0  0  0  0  0  0  0  0
   26.5834    9.5316   56.2721 N   0  0  0  0  0  0  0  0  0  0  0  0
   26.9694    8.7680   55.1168 C   0  0  0  0  0  0  0  0  0  0  0  0
   28.1722    8.5080   55.0492 O   0  0  0  0  0  0  0  0  0  0  0  0
   25.5545    9.7564   56.3314 H   0  0  0  0  0  0  0  0  0  0  0  0
   27.4336   10.0003   57.3145 C   0  0  0  0  0  0  0  0  0  0  0  0
   26.8761   11.1830   58.0983 C   0  0  0  0  0  0  0  0  0  0  0  0
   28.2137   11.8709   57.9865 C   0  0  0  0  0  0  0  0  0  0  0  0
   28.9315   11.8701   59.1678 F   0  0  0  0  0  0  0  0  0  0  0  0
   28.1019   13.1637   57.4776 F   0  0  0  0  0  0  0  0  0  0  0  0
   28.6256   10.8196   56.9858 C   0  0  0  0  0  0  0  0  0  0  0  0
   29.1086    7.4364   59.7580 C   0  0  0  0  0  0  0  0  0  0  0  0
   28.9575    8.5864   58.8655 N   0  0  0  0  0  0  0  0  0  0  0  0
   27.7596    8.8827   58.2371 C   0  0  0  0  0  0  0  0  0  0  0  0
   26.7797    8.0892   58.4712 O   0  0  0  0  0  0  0  0  0  0  0  0
   29.8057    9.1536   58.7264 H   0  0  0  0  0  0  0  0  0  0  0  0
 34 35  1  0  0  0
 35 36  1  0  0  0
 36 37  2  0  0  0
 36 28  1  0  0  0
 28 29  1  0  0  0
 29 30  1  0  0  0
 30 31  1  0  0  0
 30 32  1  0  0  0
 30 33  1  0  0  0
 28 24  1  0  0  0
 24 25  1  0  0  0
 25 26  2  0  0  0
 25 22  1  0  0  0
 22 23  2  0  0  0
 22  1  1  0  0  0
  1  2  1  0  0  0
  2  3  1  0  0  0
  2  4  2  0  0  0
  4 10  1  0  0  0
 10 11  2  0  0  0
 10 12  1  0  0  0
 12 14  1  0  0  0
 14 15  2  0  0  0
 15 16  1  0  0  0
 16 17  2  0  0  0
 17 18  1  0  0  0
 17 19  1  0  0  0
 19 20  1  0  0  0
 19 21  2  0  0  0
  4  5  1  0  0  0
  5  6  1  0  0  0
  6  7  1  0  0  0
  7  8  1  0  0  0
  8  9  1  0  0  0
 33 28  1  0  0  0
  9  1  2  0  0  0
 21 14  1  0  0  0
  9  5  1  0  0  0
 35 38  1  0  0  0
 24 27  1  0  0  0
 12 13  1  0  0  0
M  END
> <minimizedAffinity>
25.91307

> <CNNscore>
0.5563669205

> <CNNaffinity>
6.6718811989

> <CNN_VS>
3.7120139599

> <CNNaffinity_variance>
0.3819447458

$$$$
[H]c1c([H])c(N([H])C(=O)c2c(C([H])([H])[H])c(C(=O)C(=O)N([H])C3(C(=O)N([H])C([H])([H])[H])C([H])([H])C(F)(F)C3([H])[H])c3n2C([H])([H])C([H])([H])C3([H])[H])c([H])c(F)c1F


 38 41  0  0  0  0  0  0  0  0999 V2000
   25.7289    8.1522   54.5578 C   0  0  0  0  0  0  0  0  0  0  0  0
   26.9288    8.4780   55.1527 C   0  0  0  0  0  0  0  0  0  0  0  0
   28.2787    8.0016   54.7104 C   0  0  0  0  0  0  0  0  0  0  0  0
   26.7715    9.4263   56.1433 C   0  0  0  0  0  0  0  0  0  0  0  0
   25.4542    9.6932   56.1495 N   0  0  0  0  0  0  0  0  0  0  0  0
   24.5629   10.5801   56.9107 C   0  0  0  0  0  0  0  0  0  0  0  0
   23.2730   10.4996   56.1655 C   0  0  0  0  0  0  0  0  0  0  0  0
   23.3419    9.3001   55.2810 C   0  0  0  0  0  0  0  0  0  0  0  0
   24.8035    8.9909   55.2591 C   0  0  0  0  0  0  0  0  0  0  0  0
   27.7647    9.9611   57.0607 C   0  0  0  0  0  0  0  0  0  0  0  0
   28.7381   10.6391   56.5554 O   0  0  0  0  0  0  0  0  0  0  0  0
   27.7421    9.8032   58.4478 N   0  0  0  0  0  0  0  0  0  0  0  0
   26.9727    9.2953   58.9559 H   0  0  0  0  0  0  0  0  0  0  0  0
   28.7403   10.3521   59.3285 C   0  0  0  0  0  0  0  0  0  0  0  0
   29.6802    9.5975   59.9487 C   0  0  0  0  0  0  0  0  0  0  0  0
   30.5932   10.2061   60.8157 C   0  0  0  0  0  0  0  0  0  0  0  0
   30.5771   11.5444   61.0651 C   0  0  0  0  0  0  0  0  0  0  0  0
   31.4415   12.1591   61.8927 F   0  0  0  0  0  0  0  0  0  0  0  0
   29.6046   12.2914   60.4154 C   0  0  0  0  0  0  0  0  0  0  0  0
   29.5415   13.6392   60.6272 F   0  0  0  0  0  0  0  0  0  0  0  0
   28.7019   11.7337   59.5674 C   0  0  0  0  0  0  0  0  0  0  0  0
   25.3355    7.1743   53.5939 C   0  0  0  0  0  0  0  0  0  0  0  0
   26.3225    6.4294   53.1397 O   0  0  0  0  0  0  0  0  0  0  0  0
   22.8962    7.5484   53.3610 N   0  0  0  0  0  0  0  0  0  0  0  0
   24.0898    6.8306   53.0048 C   0  0  0  0  0  0  0  0  0  0  0  0
   23.9239    5.9333   52.1765 O   0  0  0  0  0  0  0  0  0  0  0  0
   23.0357    8.3161   54.0708 H   0  0  0  0  0  0  0  0  0  0  0  0
   21.5806    7.3278   52.8612 C   0  0  0  0  0  0  0  0  0  0  0  0
   21.4559    7.4365   51.3458 C   0  0  0  0  0  0  0  0  0  0  0  0
   20.2251    8.2904   51.5213 C   0  0  0  0  0  0  0  0  0  0  0  0
   19.0498    7.6265   51.2240 F   0  0  0  0  0  0  0  0  0  0  0  0
   20.3081    9.4884   50.8135 F   0  0  0  0  0  0  0  0  0  0  0  0
   20.5517    8.3883   52.9910 C   0  0  0  0  0  0  0  0  0  0  0  0
   19.5751    4.0301   53.5345 C   0  0  0  0  0  0  0  0  0  0  0  0
   19.9138    5.3446   52.9875 N   0  0  0  0  0  0  0  0  0  0  0  0
   21.0835    6.0061   53.3222 C   0  0  0  0  0  0  0  0  0  0  0  0
   21.8614    5.4091   54.1487 O   0  0  0  0  0  0  0  0  0  0  0  0
   19.2177    5.7502   52.3461 H   0  0  0  0  0  0  0  0  0  0  0  0
 34 35  1  0  0  0
 35 36  1  0  0  0
 36 37  2  0  0  0
 36 28  1  0  0  0
 28 29  1  0  0  0
 29 30  1  0  0  0
 30 31  1  0  0  0
 30 32  1  0  0  0
 30 33  1  0  0  0
 28 24  1  0  0  0
 24 25  1  0  0  0
 25 26  2  0  0  0
 25 22  1  0  0  0
 22 23  2  0  0  0
 22  1  1  0  0  0
  1  2  1  0  0  0
  2  3  1  0  0  0
  2  4  2  0  0  0
  4 10  1  0  0  0
 10 11  2  0  0  0
 10 12  1  0  0  0
 12 14  1  0  0  0
 14 15  2  0  0  0
 15 16  1  0  0  0
 16 17  2  0  0  0
 17 18  1  0  0  0
 17 19  1  0  0  0
 19 20  1  0  0  0
 19 21  2  0  0  0
  4  5  1  0  0  0
  5  6  1  0  0  0
  6  7  1  0  0  0
  7  8  1  0  0  0
  8  9  1  0  0  0
 33 28  1  0  0  0
  9  1  2  0  0  0
 21 14  1  0  0  0
  9  5  1  0  0  0
 35 38  1  0  0  0
 24 27  1  0  0  0
 12 13  1  0  0  0
M  END
> <minimizedAffinity>
18.64029

> <CNNscore>
0.5533818007

> <CNNaffinity>
6.5979132652

> <CNN_VS>
3.6511650085

> <CNNaffinity_variance>
0.4797255397

$$$$
[H]c1c([H])c(C(=O)N2C([H])([H])C([H])([H])N(C3([H])C([H])([H])C([H])([H])C([H])([H])C([H])([H])C3([H])[H])C([H])([H])C2([H])[H])c([H])c([H])c1Cl


 21 23  0  0  0  0  0  0  0  0999 V2000
   23.2416    8.5632   54.6561 C   0  0  0  0  0  0  0  0  0  0  0  0
   22.6751    9.6490   55.1543 O   0  0  0  0  0  0  0  0  0  0  0  0
   22.3335    7.6399   54.1633 N   0  0  0  0  0  0  0  0  0  0  0  0
   22.6540    6.3938   53.5780 C   0  0  0  0  0  0  0  0  0  0  0  0
   21.4833    5.5228   53.1707 C   0  0  0  0  0  0  0  0  0  0  0  0
   20.2392    6.1236   53.1870 N   0  0  0  0  0  0  0  0  0  0  0  0
   20.1842    7.5435   53.0648 C   0  0  0  0  0  0  0  0  0  0  0  0
   20.9021    8.0605   54.2958 C   0  0  0  0  0  0  0  0  0  0  0  0
   29.2498    8.6809   54.8229 Cl  0  0  0  0  0  0  0  0  0  0  0  0
   27.4941    8.6663   54.8200 C   0  0  0  0  0  0  0  0  0  0  0  0
   26.8308    8.1700   53.7256 C   0  0  0  0  0  0  0  0  0  0  0  0
   25.4656    8.1430   53.6874 C   0  0  0  0  0  0  0  0  0  0  0  0
   24.6780    8.6160   54.7533 C   0  0  0  0  0  0  0  0  0  0  0  0
   25.3913    9.0990   55.8189 C   0  0  0  0  0  0  0  0  0  0  0  0
   26.7870    9.1376   55.8822 C   0  0  0  0  0  0  0  0  0  0  0  0
   19.0484    5.4141   53.2035 C   0  0  0  0  0  0  0  0  0  0  0  0
   17.9608    6.1506   53.9310 C   0  0  0  0  0  0  0  0  0  0  0  0
   16.6733    5.3520   53.9969 C   0  0  0  0  0  0  0  0  0  0  0  0
   16.8983    3.9514   54.4796 C   0  0  0  0  0  0  0  0  0  0  0  0
   17.9604    3.2810   53.6052 C   0  0  0  0  0  0  0  0  0  0  0  0
   19.2505    4.0501   53.8371 C   0  0  0  0  0  0  0  0  0  0  0  0
  9 10  1  0  0  0
 10 11  2  0  0  0
 11 12  1  0  0  0
 12 13  2  0  0  0
 13 14  1  0  0  0
 14 15  2  0  0  0
 13  1  1  0  0  0
  1  2  2  0  0  0
  1  3  1  0  0  0
  3  4  1  0  0  0
  4  5  1  0  0  0
  5  6  1  0  0  0
  6  7  1  0  0  0
  7  8  1  0  0  0
  6 16  1  0  0  0
 16 17  1  0  0  0
 17 18  1  0  0  0
 18 19  1  0  0  0
 19 20  1  0  0  0
 20 21  1  0  0  0
 15 10  1  0  0  0
  8  3  1  0  0  0
 21 16  1  0  0  0
M  END
> <minimizedAffinity>
15.98323

> <CNNscore>
0.5179931521

> <CNNaffinity>
5.5218610764

> <CNN_VS>
2.8602862358

> <CNNaffinity_variance>
0.5641087294

$$$$
[H]c1c([H])c(C(=O)N2C([H])([H])C([H])([H])N(C3([H])C([H])([H])C([H])([H])C([H])([H])C([H])([H])C3([H])[H])C([H])([H])C2([H])[H])c([H])c([H])c1Cl


 21 23  0  0  0  0  0  0  0  0999 V2000
   20.2721    5.4349   53.6457 C   0  0  0  0  0  0  0  0  0  0  0  0
   21.1555    5.0827   54.5642 O   0  0  0  0  0  0  0  0  0  0  0  0
   20.5371    6.6640   53.0635 N   0  0  0  0  0  0  0  0  0  0  0  0
   19.7632    7.2890   52.0593 C   0  0  0  0  0  0  0  0  0  0  0  0
   20.2168    8.6671   51.6228 C   0  0  0  0  0  0  0  0  0  0  0  0
   21.4617    9.0701   52.0664 N   0  0  0  0  0  0  0  0  0  0  0  0
   22.4022    8.0578   52.4199 C   0  0  0  0  0  0  0  0  0  0  0  0
   21.7656    7.3382   53.5925 C   0  0  0  0  0  0  0  0  0  0  0  0
   15.8265    1.4243   53.1053 Cl  0  0  0  0  0  0  0  0  0  0  0  0
   17.1538    2.5663   53.2349 C   0  0  0  0  0  0  0  0  0  0  0  0
   16.9841    3.7082   53.9775 C   0  0  0  0  0  0  0  0  0  0  0  0
   17.9940    4.6196   54.1006 C   0  0  0  0  0  0  0  0  0  0  0  0
   19.2446    4.4386   53.4812 C   0  0  0  0  0  0  0  0  0  0  0  0
   19.3588    3.2828   52.7539 C   0  0  0  0  0  0  0  0  0  0  0  0
   18.3412    2.3353   52.6127 C   0  0  0  0  0  0  0  0  0  0  0  0
   21.8770   10.3926   52.0789 C   0  0  0  0  0  0  0  0  0  0  0  0
   21.5712   11.0696   53.3838 C   0  0  0  0  0  0  0  0  0  0  0  0
   21.9756   12.5311   53.3795 C   0  0  0  0  0  0  0  0  0  0  0  0
   21.4635   13.2581   52.1735 C   0  0  0  0  0  0  0  0  0  0  0  0
   21.9148   12.5207   50.9107 C   0  0  0  0  0  0  0  0  0  0  0  0
   21.2313   11.1638   50.9425 C   0  0  0  0  0  0  0  0  0  0  0  0
  9 10  1  0  0  0
 10 11  2  0  0  0
 11 12  1  0  0  0
 12 13  2  0  0  0
 13 14  1  0  0  0
 14 15  2  0  0  0
 13  1  1  0  0  0
  1  2  2  0  0  0
  1  3  1  0  0  0
  3  4  1  0  0  0
  4  5  1  0  0  0
  5  6  1  0  0  0
  6  7  1  0  0  0
  7  8  1  0  0  0
  6 16  1  0  0  0
 16 17  1  0  0  0
 17 18  1  0  0  0
 18 19  1  0  0  0
 19 20  1  0  0  0
 20 21  1  0  0  0
 15 10  1  0  0  0
  8  3  1  0  0  0
 21 16  1  0  0  0
M  END
> <minimizedAffinity>
31.06121

> <CNNscore>
0.4986066222

> <CNNaffinity>
5.5125136375

> <CNN_VS>
2.7485756874

> <CNNaffinity_variance>
0.2885687053

$$$$
[H]c1c([H])c(C(=O)N2C([H])([H])C([H])([H])N(C3([H])C([H])([H])C([H])([H])C([H])([H])C([H])([H])C3([H])[H])C([H])([H])C2([H])[H])c([H])c([H])c1Cl


 21 23  0  0  0  0  0  0  0  0999 V2000
   23.3236    8.4100   54.7082 C   0  0  0  0  0  0  0  0  0  0  0  0
   22.7443    9.5450   55.0608 O   0  0  0  0  0  0  0  0  0  0  0  0
   22.4261    7.3903   54.4355 N   0  0  0  0  0  0  0  0  0  0  0  0
   22.7614    6.0753   54.0401 C   0  0  0  0  0  0  0  0  0  0  0  0
   21.6051    5.1129   53.8610 C   0  0  0  0  0  0  0  0  0  0  0  0
   20.3404    5.6691   53.8644 N   0  0  0  0  0  0  0  0  0  0  0  0
   20.2184    7.0470   53.5170 C   0  0  0  0  0  0  0  0  0  0  0  0
   20.9893    7.7822   54.5955 C   0  0  0  0  0  0  0  0  0  0  0  0
   29.3154    8.8003   54.4139 Cl  0  0  0  0  0  0  0  0  0  0  0  0
   27.5675    8.7019   54.5472 C   0  0  0  0  0  0  0  0  0  0  0  0
   26.8371    8.2720   53.4674 C   0  0  0  0  0  0  0  0  0  0  0  0
   25.4756    8.1831   53.5340 C   0  0  0  0  0  0  0  0  0  0  0  0
   24.7598    8.5228   54.6970 C   0  0  0  0  0  0  0  0  0  0  0  0
   25.5382    8.9444   55.7430 C   0  0  0  0  0  0  0  0  0  0  0  0
   26.9316    9.0441   55.7000 C   0  0  0  0  0  0  0  0  0  0  0  0
   19.1838    4.9354   54.0776 C   0  0  0  0  0  0  0  0  0  0  0  0
   19.1760    3.6518   53.2987 C   0  0  0  0  0  0  0  0  0  0  0  0
   17.8879    2.8743   53.4885 C   0  0  0  0  0  0  0  0  0  0  0  0
   16.6740    3.7279   53.2813 C   0  0  0  0  0  0  0  0  0  0  0  0
   16.7585    4.9546   54.1924 C   0  0  0  0  0  0  0  0  0  0  0  0
   17.9591    5.7561   53.7174 C   0  0  0  0  0  0  0  0  0  0  0  0
  9 10  1  0  0  0
 10 11  2  0  0  0
 11 12  1  0  0  0
 12 13  2  0  0  0
 13 14  1  0  0  0
 14 15  2  0  0  0
 13  1  1  0  0  0
  1  2  2  0  0  0
  1  3  1  0  0  0
  3  4  1  0  0  0
  4  5  1  0  0  0
  5  6  1  0  0  0
  6  7  1  0  0  0
  7  8  1  0  0  0
  6 16  1  0  0  0
 16 17  1  0  0  0
 17 18  1  0  0  0
 18 19  1  0  0  0
 19 20  1  0  0  0
 20 21  1  0  0  0
 15 10  1  0  0  0
  8  3  1  0  0  0
 21 16  1  0  0  0
M  END
> <minimizedAffinity>
20.31763

> <CNNscore>
0.4975465238

> <CNNaffinity>
5.4153089523

> <CNN_VS>
2.6943681240

> <CNNaffinity_variance>
0.4565421045

$$$$
[H]c1c([H])c(C(=O)N2C([H])([H])C([H])([H])N(C3([H])C([H])([H])C([H])([H])C([H])([H])C([H])([H])C3([H])[H])C([H])([H])C2([H])[H])c([H])c([H])c1Cl


 21 23  0  0  0  0  0  0  0  0999 V2000
   20.3754    6.8945   53.0357 C   0  0  0  0  0  0  0  0  0  0  0  0
   20.0623    7.5879   51.9544 O   0  0  0  0  0  0  0  0  0  0  0  0
   21.5828    7.2678   53.6039 N   0  0  0  0  0  0  0  0  0  0  0  0
   22.1657    6.6988   54.7591 C   0  0  0  0  0  0  0  0  0  0  0  0
   23.5282    7.2303   55.1544 C   0  0  0  0  0  0  0  0  0  0  0  0
   23.9535    8.3702   54.4998 N   0  0  0  0  0  0  0  0  0  0  0  0
   22.9597    9.2244   53.9370 C   0  0  0  0  0  0  0  0  0  0  0  0
   22.2822    8.3762   52.8789 C   0  0  0  0  0  0  0  0  0  0  0  0
   16.0011    2.9951   54.3775 Cl  0  0  0  0  0  0  0  0  0  0  0  0
   17.3107    4.0958   53.9825 C   0  0  0  0  0  0  0  0  0  0  0  0
   17.0564    5.4432   53.9194 C   0  0  0  0  0  0  0  0  0  0  0  0
   18.0501    6.3295   53.6147 C   0  0  0  0  0  0  0  0  0  0  0  0
   19.3688    5.9138   53.3530 C   0  0  0  0  0  0  0  0  0  0  0  0
   19.5660    4.5600   53.4302 C   0  0  0  0  0  0  0  0  0  0  0  0
   18.5667    3.6332   53.7398 C   0  0  0  0  0  0  0  0  0  0  0  0
   25.2774    8.7791   54.4596 C   0  0  0  0  0  0  0  0  0  0  0  0
   26.0624    8.0531   53.4054 C   0  0  0  0  0  0  0  0  0  0  0  0
   27.5232    8.4601   53.3968 C   0  0  0  0  0  0  0  0  0  0  0  0
   28.1344    8.4099   54.7639 C   0  0  0  0  0  0  0  0  0  0  0  0
   27.2949    9.2567   55.7232 C   0  0  0  0  0  0  0  0  0  0  0  0
   25.9370    8.5803   55.8118 C   0  0  0  0  0  0  0  0  0  0  0  0
  9 10  1  0  0  0
 10 11  2  0  0  0
 11 12  1  0  0  0
 12 13  2  0  0  0
 13 14  1  0  0  0
 14 15  2  0  0  0
 13  1  1  0  0  0
  1  2  2  0  0  0
  1  3  1  0  0  0
  3  4  1  0  0  0
  4  5  1  0  0  0
  5  6  1  0  0  0
  6  7  1  0  0  0
  7  8  1  0  0  0
  6 16  1  0  0  0
 16 17  1  0  0  0
 17 18  1  0  0  0
 18 19  1  0  0  0
 19 20  1  0  0  0
 20 21  1  0  0  0
 15 10  1  0  0  0
  8  3  1  0  0  0
 21 16  1  0  0  0
M  END
> <minimizedAffinity>
16.73862

> <CNNscore>
0.4948289692

> <CNNaffinity>
5.4705481529

> <CNN_VS>
2.7069857121

> <CNNaffinity_variance>
0.3356599510

$$$$
[H]c1c([H])c(C(=O)N2C([H])([H])C([H])([H])N(C3([H])C([H])([H])C([H])([H])C([H])([H])C([H])([H])C3([H])[H])C([H])([H])C2([H])[H])c([H])c([H])c1Cl


 21 23  0  0  0  0  0  0  0  0999 V2000
   22.7481    8.1298   54.2862 C   0  0  0  0  0  0  0  0  0  0  0  0
   22.1141    9.2652   54.5254 O   0  0  0  0  0  0  0  0  0  0  0  0
   21.9002    7.0527   54.0844 N   0  0  0  0  0  0  0  0  0  0  0  0
   22.2989    5.7240   53.8132 C   0  0  0  0  0  0  0  0  0  0  0  0
   21.1878    4.7011   53.6939 C   0  0  0  0  0  0  0  0  0  0  0  0
   19.9017    5.2007   53.6210 N   0  0  0  0  0  0  0  0  0  0  0  0
   19.7324    6.5368   53.1517 C   0  0  0  0  0  0  0  0  0  0  0  0
   20.4450    7.3951   54.1782 C   0  0  0  0  0  0  0  0  0  0  0  0
   28.6979    8.9416   54.5726 Cl  0  0  0  0  0  0  0  0  0  0  0  0
   26.9655    8.6875   54.4424 C   0  0  0  0  0  0  0  0  0  0  0  0
   26.1593    9.0151   55.5040 C   0  0  0  0  0  0  0  0  0  0  0  0
   24.8074    8.8308   55.4392 C   0  0  0  0  0  0  0  0  0  0  0  0
   24.1784    8.3028   54.2965 C   0  0  0  0  0  0  0  0  0  0  0  0
   25.0297    7.9943   53.2680 C   0  0  0  0  0  0  0  0  0  0  0  0
   26.4152    8.1732   53.3096 C   0  0  0  0  0  0  0  0  0  0  0  0
   18.7710    4.4393   53.8724 C   0  0  0  0  0  0  0  0  0  0  0  0
   18.6200    3.3101   52.8944 C   0  0  0  0  0  0  0  0  0  0  0  0
   17.3548    2.5094   53.1347 C   0  0  0  0  0  0  0  0  0  0  0  0
   16.1444    3.3839   53.2575 C   0  0  0  0  0  0  0  0  0  0  0  0
   16.3891    4.4344   54.3432 C   0  0  0  0  0  0  0  0  0  0  0  0
   17.5270    5.3080   53.8420 C   0  0  0  0  0  0  0  0  0  0  0  0
  9 10  1  0  0  0
 10 11  2  0  0  0
 11 12  1  0  0  0
 12 13  2  0  0  0
 13 14  1  0  0  0
 14 15  2  0  0  0
 13  1  1  0  0  0
  1  2  2  0  0  0
  1  3  1  0  0  0
  3  4  1  0  0  0
  4  5  1  0  0  0
  5  6  1  0  0  0
  6  7  1  0  0  0
  7  8  1  0  0  0
  6 16  1  0  0  0
 16 17  1  0  0  0
 17 18  1  0  0  0
 18 19  1  0  0  0
 19 20  1  0  0  0
 20 21  1  0  0  0
 15 10  1  0  0  0
  8  3  1  0  0  0
 21 16  1  0  0  0
M  END
> <minimizedAffinity>
19.27634

> <CNNscore>
0.4867234230

> <CNNaffinity>
5.5902280807

> <CNN_VS>
2.7208950520

> <CNNaffinity_variance>
0.5389054418

$$$$
[H]c1c([H])c(C(=O)N2C([H])([H])C([H])([H])N(C3([H])C([H])([H])C([H])([H])C([H])([H])C([H])([H])C3([H])[H])C([H])([H])C2([H])[H])c([H])c([H])c1Cl


 21 23  0  0  0  0  0  0  0  0999 V2000
   20.6692    6.6355   53.0546 C   0  0  0  0  0  0  0  0  0  0  0  0
   20.4508    7.4049   52.0018 O   0  0  0  0  0  0  0  0  0  0  0  0
   21.9176    6.8195   53.6269 N   0  0  0  0  0  0  0  0  0  0  0  0
   22.4205    6.1338   54.7560 C   0  0  0  0  0  0  0  0  0  0  0  0
   23.8437    6.4598   55.1602 C   0  0  0  0  0  0  0  0  0  0  0  0
   24.4187    7.5549   54.5446 N   0  0  0  0  0  0  0  0  0  0  0  0
   23.5491    8.5568   54.0210 C   0  0  0  0  0  0  0  0  0  0  0  0
   22.7597    7.8487   52.9377 C   0  0  0  0  0  0  0  0  0  0  0  0
   15.8063    3.3198   54.2789 Cl  0  0  0  0  0  0  0  0  0  0  0  0
   17.2534    4.2462   53.9179 C   0  0  0  0  0  0  0  0  0  0  0  0
   17.1781    5.6162   53.8769 C   0  0  0  0  0  0  0  0  0  0  0  0
   18.2829    6.3699   53.5988 C   0  0  0  0  0  0  0  0  0  0  0  0
   19.5392    5.7897   53.3433 C   0  0  0  0  0  0  0  0  0  0  0  0
   19.5568    4.4205   53.3978 C   0  0  0  0  0  0  0  0  0  0  0  0
   18.4412    3.6274   53.6799 C   0  0  0  0  0  0  0  0  0  0  0  0
   25.7859    7.7811   54.5093 C   0  0  0  0  0  0  0  0  0  0  0  0
   26.2507    8.6208   55.6640 C   0  0  0  0  0  0  0  0  0  0  0  0
   27.7369    8.9145   55.5971 C   0  0  0  0  0  0  0  0  0  0  0  0
   28.1537    9.4300   54.2533 C   0  0  0  0  0  0  0  0  0  0  0  0
   27.7009    8.4454   53.1727 C   0  0  0  0  0  0  0  0  0  0  0  0
   26.1816    8.4472   53.2045 C   0  0  0  0  0  0  0  0  0  0  0  0
  9 10  1  0  0  0
 10 11  2  0  0  0
 11 12  1  0  0  0
 12 13  2  0  0  0
 13 14  1  0  0  0
 14 15  2  0  0  0
 13  1  1  0  0  0
  1  2  2  0  0  0
  1  3  1  0  0  0
  3  4  1  0  0  0
  4  5  1  0  0  0
  5  6  1  0  0  0
  6  7  1  0  0  0
  7  8  1  0  0  0
  6 16  1  0  0  0
 16 17  1  0  0  0
 17 18  1  0  0  0
 18 19  1  0  0  0
 19 20  1  0  0  0
 20 21  1  0  0  0
 15 10  1  0  0  0
  8  3  1  0  0  0
 21 16  1  0  0  0
M  END
> <minimizedAffinity>
16.69478

> <CNNscore>
0.4657207131

> <CNNaffinity>
5.3564519882

> <CNN_VS>
2.4946105480

> <CNNaffinity_variance>
0.1634538323

$$$$
[H]c1c([H])c(C(=O)N2C([H])([H])C([H])([H])N(C3([H])C([H])([H])C([H])([H])C([H])([H])C([H])([H])C3([H])[H])C([H])([H])C2([H])[H])c([H])c([H])c1Cl


 21 23  0  0  0  0  0  0  0  0999 V2000
   22.3176    6.3210   53.0336 C   0  0  0  0  0  0  0  0  0  0  0  0
   22.6096    6.2732   51.7449 O   0  0  0  0  0  0  0  0  0  0  0  0
   23.3252    6.8694   53.8107 N   0  0  0  0  0  0  0  0  0  0  0  0
   23.2886    7.0419   55.2132 C   0  0  0  0  0  0  0  0  0  0  0  0
   24.5407    7.6064   55.8527 C   0  0  0  0  0  0  0  0  0  0  0  0
   25.4913    8.1167   54.9898 N   0  0  0  0  0  0  0  0  0  0  0  0
   25.0573    8.5496   53.7020 C   0  0  0  0  0  0  0  0  0  0  0  0
   24.5333    7.2938   53.0338 C   0  0  0  0  0  0  0  0  0  0  0  0
   16.7675    4.3224   54.1925 Cl  0  0  0  0  0  0  0  0  0  0  0  0
   18.4040    4.8588   53.8504 C   0  0  0  0  0  0  0  0  0  0  0  0
   18.6751    6.2041   53.8217 C   0  0  0  0  0  0  0  0  0  0  0  0
   19.9361    6.6586   53.5585 C   0  0  0  0  0  0  0  0  0  0  0  0
   21.0090    5.7837   53.3064 C   0  0  0  0  0  0  0  0  0  0  0  0
   20.6822    4.4535   53.3481 C   0  0  0  0  0  0  0  0  0  0  0  0
   19.4008    3.9636   53.6149 C   0  0  0  0  0  0  0  0  0  0  0  0
   26.8129    8.3307   55.3492 C   0  0  0  0  0  0  0  0  0  0  0  0
   26.9664    9.5091   56.2670 C   0  0  0  0  0  0  0  0  0  0  0  0
   28.4172    9.7773   56.6173 C   0  0  0  0  0  0  0  0  0  0  0  0
   29.2949    9.8232   55.4037 C   0  0  0  0  0  0  0  0  0  0  0  0
   29.1140    8.5328   54.6012 C   0  0  0  0  0  0  0  0  0  0  0  0
   27.6740    8.5314   54.1157 C   0  0  0  0  0  0  0  0  0  0  0  0
  9 10  1  0  0  0
 10 11  2  0  0  0
 11 12  1  0  0  0
 12 13  2  0  0  0
 13 14  1  0  0  0
 14 15  2  0  0  0
 13  1  1  0  0  0
  1  2  2  0  0  0
  1  3  1  0  0  0
  3  4  1  0  0  0
  4  5  1  0  0  0
  5  6  1  0  0  0
  6  7  1  0  0  0
  7  8  1  0  0  0
  6 16  1  0  0  0
 16 17  1  0  0  0
 17 18  1  0  0  0
 18 19  1  0  0  0
 19 20  1  0  0  0
 20 21  1  0  0  0
 15 10  1  0  0  0
  8  3  1  0  0  0
 21 16  1  0  0  0
M  END
> <minimizedAffinity>
26.11172

> <CNNscore>
0.4503289461

> <CNNaffinity>
5.2121982574

> <CNN_VS>
2.3472037315

> <CNNaffinity_variance>
0.2081340998

$$$$
[H]c1c([H])c(C(=O)N2C([H])([H])C([H])([H])N(C3([H])C([H])([H])C([H])([H])C([H])([H])C([H])([H])C3([H])[H])C([H])([H])C2([H])[H])c([H])c([H])c1Cl


 21 23  0  0  0  0  0  0  0  0999 V2000
   24.8030    6.9441   54.6288 C   0  0  0  0  0  0  0  0  0  0  0  0
   25.1089    6.0763   55.5783 O   0  0  0  0  0  0  0  0  0  0  0  0
   23.4983    6.8338   54.1757 N   0  0  0  0  0  0  0  0  0  0  0  0
   22.9012    7.6264   53.1691 C   0  0  0  0  0  0  0  0  0  0  0  0
   21.4753    7.2756   52.7964 C   0  0  0  0  0  0  0  0  0  0  0  0
   20.8254    6.3879   53.6322 N   0  0  0  0  0  0  0  0  0  0  0  0
   21.2878    6.2799   54.9771 C   0  0  0  0  0  0  0  0  0  0  0  0
   22.7057    5.7581   54.8524 C   0  0  0  0  0  0  0  0  0  0  0  0
   29.3789   10.4940   53.0163 Cl  0  0  0  0  0  0  0  0  0  0  0  0
   28.0589    9.4587   53.5344 C   0  0  0  0  0  0  0  0  0  0  0  0
   27.1590    9.0048   52.6025 C   0  0  0  0  0  0  0  0  0  0  0  0
   26.1192    8.1981   52.9686 C   0  0  0  0  0  0  0  0  0  0  0  0
   25.9185    7.7953   54.3019 C   0  0  0  0  0  0  0  0  0  0  0  0
   26.8457    8.2765   55.1888 C   0  0  0  0  0  0  0  0  0  0  0  0
   27.9175    9.1026   54.8396 C   0  0  0  0  0  0  0  0  0  0  0  0
   19.6877    5.6862   53.2652 C   0  0  0  0  0  0  0  0  0  0  0  0
   18.4512    6.2294   53.9215 C   0  0  0  0  0  0  0  0  0  0  0  0
   17.2140    5.4291   53.5636 C   0  0  0  0  0  0  0  0  0  0  0  0
   17.4159    3.9566   53.7536 C   0  0  0  0  0  0  0  0  0  0  0  0
   18.6507    3.5112   52.9668 C   0  0  0  0  0  0  0  0  0  0  0  0
   19.8379    4.2145   53.6034 C   0  0  0  0  0  0  0  0  0  0  0  0
  9 10  1  0  0  0
 10 11  2  0  0  0
 11 12  1  0  0  0
 12 13  2  0  0  0
 13 14  1  0  0  0
 14 15  2  0  0  0
 13  1  1  0  0  0
  1  2  2  0  0  0
  1  3  1  0  0  0
  3  4  1  0  0  0
  4  5  1  0  0  0
  5  6  1  0  0  0
  6  7  1  0  0  0
  7  8  1  0  0  0
  6 16  1  0  0  0
 16 17  1  0  0  0
 17 18  1  0  0  0
 18 19  1  0  0  0
 19 20  1  0  0  0
 20 21  1  0  0  0
 15 10  1  0  0  0
  8  3  1  0  0  0
 21 16  1  0  0  0
M  END
> <minimizedAffinity>
28.32453

> <CNNscore>
0.4500993490

> <CNNaffinity>
5.2482538223

> <CNN_VS>
2.3622355461

> <CNNaffinity_variance>
0.4646649957

$$$$
[H]c1c([H])c(C(=O)N2C([H])([H])C([H])([H])N(C3([H])C([H])([H])C([H])([H])C([H])([H])C([H])([H])C3([H])[H])C([H])([H])C2([H])[H])c([H])c([H])c1Cl


 21 23  0  0  0  0  0  0  0  0999 V2000
   21.1432    7.6616   53.8247 C   0  0  0  0  0  0  0  0  0  0  0  0
   20.6183    8.8547   53.6031 O   0  0  0  0  0  0  0  0  0  0  0  0
   22.4985    7.6961   54.1107 N   0  0  0  0  0  0  0  0  0  0  0  0
   23.3159    6.5760   54.3853 C   0  0  0  0  0  0  0  0  0  0  0  0
   24.7880    6.8576   54.6061 C   0  0  0  0  0  0  0  0  0  0  0  0
   25.1409    8.1850   54.7562 N   0  0  0  0  0  0  0  0  0  0  0  0
   24.1373    9.0939   55.2041 C   0  0  0  0  0  0  0  0  0  0  0  0
   23.0879    9.0730   54.1103 C   0  0  0  0  0  0  0  0  0  0  0  0
   16.8607    3.4749   53.3019 Cl  0  0  0  0  0  0  0  0  0  0  0  0
   18.1447    4.6615   53.4635 C   0  0  0  0  0  0  0  0  0  0  0  0
   17.8449    5.9944   53.3302 C   0  0  0  0  0  0  0  0  0  0  0  0
   18.8177    6.9459   53.4490 C   0  0  0  0  0  0  0  0  0  0  0  0
   20.1600    6.6146   53.7108 C   0  0  0  0  0  0  0  0  0  0  0  0
   20.4022    5.2716   53.8349 C   0  0  0  0  0  0  0  0  0  0  0  0
   19.4252    4.2792   53.7177 C   0  0  0  0  0  0  0  0  0  0  0  0
   26.4366    8.6530   54.6024 C   0  0  0  0  0  0  0  0  0  0  0  0
   27.3267    7.6459   53.9331 C   0  0  0  0  0  0  0  0  0  0  0  0
   28.7570    8.1354   53.8134 C   0  0  0  0  0  0  0  0  0  0  0  0
   29.2880    8.6595   55.1128 C   0  0  0  0  0  0  0  0  0  0  0  0
   28.3418    9.7374   55.6464 C   0  0  0  0  0  0  0  0  0  0  0  0
   27.0261    9.0386   55.9466 C   0  0  0  0  0  0  0  0  0  0  0  0
  9 10  1  0  0  0
 10 11  2  0  0  0
 11 12  1  0  0  0
 12 13  2  0  0  0
 13 14  1  0  0  0
 14 15  2  0  0  0
 13  1  1  0  0  0
  1  2  2  0  0  0
  1  3  1  0  0  0
  3  4  1  0  0  0
  4  5  1  0  0  0
  5  6  1  0  0  0
  6  7  1  0  0  0
  7  8  1  0  0  0
  6 16  1  0  0  0
 16 17  1  0  0  0
 17 18  1  0  0  0
 18 19  1  0  0  0
 19 20  1  0  0  0
 20 21  1  0  0  0
 15 10  1  0  0  0
  8  3  1  0  0  0
 21 16  1  0  0  0
M  END
> <minimizedAffinity>
23.08121

> <CNNscore>
0.4207644165

> <CNNaffinity>
5.1264324188

> <CNN_VS>
2.1570203304

> <CNNaffinity_variance>
0.1945306957

$$$$
[H]c1c([H])c([H])c(N2C([H])([H])C([H])([H])N(c3nc4c(nc([H])n4C([H])([H])[H])c(=O)n3[H])C([H])([H])C2([H])[H])c(OC([H])([H])[H])c1[H]


 26 29  0  0  0  0  0  0  0  0999 V2000
   20.8658    7.2202   53.7097 N   0  0  0  0  0  0  0  0  0  0  0  0
   21.5178    7.5382   52.4535 C   0  0  0  0  0  0  0  0  0  0  0  0
   22.9862    7.3333   52.6119 C   0  0  0  0  0  0  0  0  0  0  0  0
   23.4676    8.1721   53.6809 N   0  0  0  0  0  0  0  0  0  0  0  0
   22.5270    8.7790   54.5704 C   0  0  0  0  0  0  0  0  0  0  0  0
   21.3585    7.8660   54.8967 C   0  0  0  0  0  0  0  0  0  0  0  0
   24.8566    8.4208   53.8909 C   0  0  0  0  0  0  0  0  0  0  0  0
   25.3646    8.6115   55.1270 N   0  0  0  0  0  0  0  0  0  0  0  0
   26.6788    8.8424   55.2885 C   0  0  0  0  0  0  0  0  0  0  0  0
   27.4258    9.0609   56.3874 N   0  0  0  0  0  0  0  0  0  0  0  0
   26.9710    9.1062   57.7798 C   0  0  0  0  0  0  0  0  0  0  0  0
   28.6856    9.2311   55.9488 C   0  0  0  0  0  0  0  0  0  0  0  0
   28.7250    9.1206   54.5972 N   0  0  0  0  0  0  0  0  0  0  0  0
   27.4873    8.8781   54.1599 C   0  0  0  0  0  0  0  0  0  0  0  0
   26.9756    8.6844   52.8953 C   0  0  0  0  0  0  0  0  0  0  0  0
   27.6565    8.7060   51.8454 O   0  0  0  0  0  0  0  0  0  0  0  0
   25.6548    8.4574   52.7927 N   0  0  0  0  0  0  0  0  0  0  0  0
   25.2093    8.3003   51.8392 H   0  0  0  0  0  0  0  0  0  0  0  0
   20.0458    4.9570   53.6496 C   0  0  0  0  0  0  0  0  0  0  0  0
   18.9756    4.0885   53.6440 C   0  0  0  0  0  0  0  0  0  0  0  0
   17.6646    4.5287   53.6890 C   0  0  0  0  0  0  0  0  0  0  0  0
   17.4090    5.8867   53.7416 C   0  0  0  0  0  0  0  0  0  0  0  0
   18.4763    6.7575   53.7473 C   0  0  0  0  0  0  0  0  0  0  0  0
   19.8031    6.3135   53.7019 C   0  0  0  0  0  0  0  0  0  0  0  0
   22.2853    5.1173   54.5288 C   0  0  0  0  0  0  0  0  0  0  0  0
   21.3717    4.5492   53.6053 O   0  0  0  0  0  0  0  0  0  0  0  0
 25 26  1  0  0  0
 26 19  1  0  0  0
 19 20  2  0  0  0
 20 21  1  0  0  0
 21 22  2  0  0  0
 22 23  1  0  0  0
 23 24  2  0  0  0
 24  1  1  0  0  0
  1  2  1  0  0  0
  2  3  1  0  0  0
  3  4  1  0  0  0
  4  5  1  0  0  0
  5  6  1  0  0  0
  4  7  1  0  0  0
  7  8  2  0  0  0
  8  9  1  0  0  0
  9 10  1  0  0  0
 10 11  1  0  0  0
 10 12  1  0  0  0
 12 13  2  0  0  0
 13 14  1  0  0  0
 14 15  1  0  0  0
 15 16  2  0  0  0
 15 17  1  0  0  0
 24 19  1  0  0  0
  6  1  1  0  0  0
 17  7  1  0  0  0
 14  9  2  0  0  0
 17 18  1  0  0  0
M  END
> <minimizedAffinity>
25.08765

> <CNNscore>
0.5086644888

> <CNNaffinity>
5.9100871086

> <CNN_VS>
3.0062513351

> <CNNaffinity_variance>
0.4664613605

$$$$
[H]c1c([H])c([H])c(N2C([H])([H])C([H])([H])N(c3nc4c(nc([H])n4C([H])([H])[H])c(=O)n3[H])C([H])([H])C2([H])[H])c(OC([H])([H])[H])c1[H]


 26 29  0  0  0  0  0  0  0  0999 V2000
   22.8077    6.8276   53.2899 N   0  0  0  0  0  0  0  0  0  0  0  0
   23.7420    5.9152   53.9215 C   0  0  0  0  0  0  0  0  0  0  0  0
   24.5841    6.6833   54.8830 C   0  0  0  0  0  0  0  0  0  0  0  0
   25.2724    7.7329   54.1742 N   0  0  0  0  0  0  0  0  0  0  0  0
   24.8538    8.0728   52.8500 C   0  0  0  0  0  0  0  0  0  0  0  0
   23.3460    8.0143   52.6810 C   0  0  0  0  0  0  0  0  0  0  0  0
   26.3619    8.4545   54.7466 C   0  0  0  0  0  0  0  0  0  0  0  0
   26.4790    8.6225   56.0810 N   0  0  0  0  0  0  0  0  0  0  0  0
   27.5193    9.3071   56.5865 C   0  0  0  0  0  0  0  0  0  0  0  0
   27.8660    9.6135   57.8511 N   0  0  0  0  0  0  0  0  0  0  0  0
   27.1542    9.2574   59.0816 C   0  0  0  0  0  0  0  0  0  0  0  0
   29.0073   10.3189   57.7597 C   0  0  0  0  0  0  0  0  0  0  0  0
   29.3680   10.4510   56.4586 N   0  0  0  0  0  0  0  0  0  0  0  0
   28.4576    9.8294   55.7058 C   0  0  0  0  0  0  0  0  0  0  0  0
   28.3444    9.6618   54.3428 C   0  0  0  0  0  0  0  0  0  0  0  0
   29.1586   10.1099   53.5046 O   0  0  0  0  0  0  0  0  0  0  0  0
   27.2843    8.9687   53.8927 N   0  0  0  0  0  0  0  0  0  0  0  0
   27.1504    8.8095   52.8492 H   0  0  0  0  0  0  0  0  0  0  0  0
   20.4984    7.5095   53.2794 C   0  0  0  0  0  0  0  0  0  0  0  0
   19.1646    7.1625   53.2937 C   0  0  0  0  0  0  0  0  0  0  0  0
   18.7426    5.8453   53.3321 C   0  0  0  0  0  0  0  0  0  0  0  0
   19.6854    4.8340   53.3572 C   0  0  0  0  0  0  0  0  0  0  0  0
   21.0194    5.1772   53.3431 C   0  0  0  0  0  0  0  0  0  0  0  0
   21.4476    6.5094   53.3042 C   0  0  0  0  0  0  0  0  0  0  0  0
   21.1874    9.4908   54.4683 C   0  0  0  0  0  0  0  0  0  0  0  0
   20.9553    8.8194   53.2412 O   0  0  0  0  0  0  0  0  0  0  0  0
 25 26  1  0  0  0
 26 19  1  0  0  0
 19 20  2  0  0  0
 20 21  1  0  0  0
 21 22  2  0  0  0
 22 23  1  0  0  0
 23 24  2  0  0  0
 24  1  1  0  0  0
  1  2  1  0  0  0
  2  3  1  0  0  0
  3  4  1  0  0  0
  4  5  1  0  0  0
  5  6  1  0  0  0
  4  7  1  0  0  0
  7  8  2  0  0  0
  8  9  1  0  0  0
  9 10  1  0  0  0
 10 11  1  0  0  0
 10 12  1  0  0  0
 12 13  2  0  0  0
 13 14  1  0  0  0
 14 15  1  0  0  0
 15 16  2  0  0  0
 15 17  1  0  0  0
 24 19  1  0  0  0
  6  1  1  0  0  0
 17  7  1  0  0  0
 14  9  2  0  0  0
 17 18  1  0  0  0
M  END
> <minimizedAffinity>
23.04967

> <CNNscore>
0.4557929337

> <CNNaffinity>
5.5989446640

> <CNN_VS>
2.5519595146

> <CNNaffinity_variance>
0.2304895222

$$$$
[H]c1c([H])c([H])c(N2C([H])([H])C([H])([H])N(c3nc4c(nc([H])n4C([H])([H])[H])c(=O)n3[H])C([H])([H])C2([H])[H])c(OC([H])([H])[H])c1[H]


 26 29  0  0  0  0  0  0  0  0999 V2000
   22.3046    6.9901   53.9361 N   0  0  0  0  0  0  0  0  0  0  0  0
   23.5278    7.1637   53.1758 C   0  0  0  0  0  0  0  0  0  0  0  0
   24.6670    7.3012   54.1281 C   0  0  0  0  0  0  0  0  0  0  0  0
   24.4238    8.4259   54.9963 N   0  0  0  0  0  0  0  0  0  0  0  0
   23.1155    9.0007   55.0453 C   0  0  0  0  0  0  0  0  0  0  0  0
   22.0156    7.9575   54.9605 C   0  0  0  0  0  0  0  0  0  0  0  0
   25.4437    8.9917   55.8180 C   0  0  0  0  0  0  0  0  0  0  0  0
   25.6377   10.3256   55.8910 N   0  0  0  0  0  0  0  0  0  0  0  0
   26.6074   10.8248   56.6765 C   0  0  0  0  0  0  0  0  0  0  0  0
   27.0036   12.0875   56.9249 N   0  0  0  0  0  0  0  0  0  0  0  0
   26.4450   13.3228   56.3685 C   0  0  0  0  0  0  0  0  0  0  0  0
   28.0248   11.9891   57.7945 C   0  0  0  0  0  0  0  0  0  0  0  0
   28.2626   10.6853   58.0847 N   0  0  0  0  0  0  0  0  0  0  0  0
   27.3930    9.9380   57.4012 C   0  0  0  0  0  0  0  0  0  0  0  0
   27.2006    8.5754   57.3315 C   0  0  0  0  0  0  0  0  0  0  0  0
   27.8776    7.7319   57.9612 O   0  0  0  0  0  0  0  0  0  0  0  0
   26.2167    8.1318   56.5303 N   0  0  0  0  0  0  0  0  0  0  0  0
   26.0256    7.0888   56.4414 H   0  0  0  0  0  0  0  0  0  0  0  0
   20.3441    6.0827   52.8726 C   0  0  0  0  0  0  0  0  0  0  0  0
   19.5502    4.9911   52.5939 C   0  0  0  0  0  0  0  0  0  0  0  0
   19.8503    3.7208   53.0531 C   0  0  0  0  0  0  0  0  0  0  0  0
   20.9851    3.5298   53.8199 C   0  0  0  0  0  0  0  0  0  0  0  0
   21.7808    4.6187   54.1004 C   0  0  0  0  0  0  0  0  0  0  0  0
   21.4784    5.9043   53.6364 C   0  0  0  0  0  0  0  0  0  0  0  0
   20.8160    7.8777   51.3334 C   0  0  0  0  0  0  0  0  0  0  0  0
   20.0723    7.3691   52.4282 O   0  0  0  0  0  0  0  0  0  0  0  0
 25 26  1  0  0  0
 26 19  1  0  0  0
 19 20  2  0  0  0
 20 21  1  0  0  0
 21 22  2  0  0  0
 22 23  1  0  0  0
 23 24  2  0  0  0
 24  1  1  0  0  0
  1  2  1  0  0  0
  2  3  1  0  0  0
  3  4  1  0  0  0
  4  5  1  0  0  0
  5  6  1  0  0  0
  4  7  1  0  0  0
  7  8  2  0  0  0
  8  9  1  0  0  0
  9 10  1  0  0  0
 10 11  1  0  0  0
 10 12  1  0  0  0
 12 13  2  0  0  0
 13 14  1  0  0  0
 14 15  1  0  0  0
 15 16  2  0  0  0
 15 17  1  0  0  0
 24 19  1  0  0  0
  6  1  1  0  0  0
 17  7  1  0  0  0
 14  9  2  0  0  0
 17 18  1  0  0  0
M  END
> <minimizedAffinity>
42.88554

> <CNNscore>
0.3980590105

> <CNNaffinity>
5.5668854713

> <CNN_VS>
2.2159488201

> <CNNaffinity_variance>
0.9178428650

$$$$
[H]c1c([H])c([H])c(N2C([H])([H])C([H])([H])N(c3nc4c(nc([H])n4C([H])([H])[H])c(=O)n3[H])C([H])([H])C2([H])[H])c(OC([H])([H])[H])c1[H]


 26 29  0  0  0  0  0  0  0  0999 V2000
   21.6010    7.2896   53.7222 N   0  0  0  0  0  0  0  0  0  0  0  0
   21.7980    8.0113   54.9650 C   0  0  0  0  0  0  0  0  0  0  0  0
   23.0571    8.8036   54.8632 C   0  0  0  0  0  0  0  0  0  0  0  0
   24.1564    7.9109   54.5940 N   0  0  0  0  0  0  0  0  0  0  0  0
   23.8825    6.5705   54.1785 C   0  0  0  0  0  0  0  0  0  0  0  0
   22.6899    6.4812   53.2430 C   0  0  0  0  0  0  0  0  0  0  0  0
   25.5185    8.3152   54.7235 C   0  0  0  0  0  0  0  0  0  0  0  0
   26.0539    8.6321   55.9215 N   0  0  0  0  0  0  0  0  0  0  0  0
   27.3415    9.0079   56.0074 C   0  0  0  0  0  0  0  0  0  0  0  0
   28.1057    9.3691   57.0556 N   0  0  0  0  0  0  0  0  0  0  0  0
   27.7066    9.4510   58.4633 C   0  0  0  0  0  0  0  0  0  0  0  0
   29.3210    9.6427   56.5488 C   0  0  0  0  0  0  0  0  0  0  0  0
   29.3160    9.4553   55.2052 N   0  0  0  0  0  0  0  0  0  0  0  0
   28.0942    9.0594   54.8414 C   0  0  0  0  0  0  0  0  0  0  0  0
   27.5543    8.7372   53.6153 C   0  0  0  0  0  0  0  0  0  0  0  0
   28.1850    8.7661   52.5346 O   0  0  0  0  0  0  0  0  0  0  0  0
   26.2621    8.3682   53.5883 N   0  0  0  0  0  0  0  0  0  0  0  0
   25.7969    8.1081   52.6673 H   0  0  0  0  0  0  0  0  0  0  0  0
   20.2647    8.2197   51.9482 C   0  0  0  0  0  0  0  0  0  0  0  0
   19.0425    8.3211   51.3192 C   0  0  0  0  0  0  0  0  0  0  0  0
   17.9216    7.6436   51.7654 C   0  0  0  0  0  0  0  0  0  0  0  0
   18.0214    6.8333   52.8816 C   0  0  0  0  0  0  0  0  0  0  0  0
   19.2414    6.7296   53.5127 C   0  0  0  0  0  0  0  0  0  0  0  0
   20.3762    7.4146   53.0622 C   0  0  0  0  0  0  0  0  0  0  0  0
   21.6036   10.2250   51.9474 C   0  0  0  0  0  0  0  0  0  0  0  0
   21.4075    8.8851   51.5272 O   0  0  0  0  0  0  0  0  0  0  0  0
 25 26  1  0  0  0
 26 19  1  0  0  0
 19 20  2  0  0  0
 20 21  1  0  0  0
 21 22  2  0  0  0
 22 23  1  0  0  0
 23 24  2  0  0  0
 24  1  1  0  0  0
  1  2  1  0  0  0
  2  3  1  0  0  0
  3  4  1  0  0  0
  4  5  1  0  0  0
  5  6  1  0  0  0
  4  7  1  0  0  0
  7  8  2  0  0  0
  8  9  1  0  0  0
  9 10  1  0  0  0
 10 11  1  0  0  0
 10 12  1  0  0  0
 12 13  2  0  0  0
 13 14  1  0  0  0
 14 15  1  0  0  0
 15 16  2  0  0  0
 15 17  1  0  0  0
 24 19  1  0  0  0
  6  1  1  0  0  0
 17  7  1  0  0  0
 14  9  2  0  0  0
 17 18  1  0  0  0
M  END
> <minimizedAffinity>
26.89095

> <CNNscore>
0.3546387553

> <CNNaffinity>
5.6884589195

> <CNN_VS>
2.0173480511

> <CNNaffinity_variance>
0.2713202834

$$$$
[H]c1c([H])c([H])c(N2C([H])([H])C([H])([H])N(c3nc4c(nc([H])n4C([H])([H])[H])c(=O)n3[H])C([H])([H])C2([H])[H])c(OC([H])([H])[H])c1[H]


 26 29  0  0  0  0  0  0  0  0999 V2000
   23.9099    7.6348   53.6740 N   0  0  0  0  0  0  0  0  0  0  0  0
   22.7168    8.4482   53.5353 C   0  0  0  0  0  0  0  0  0  0  0  0
   21.5571    7.6944   54.0924 C   0  0  0  0  0  0  0  0  0  0  0  0
   21.4250    6.4433   53.3889 N   0  0  0  0  0  0  0  0  0  0  0  0
   22.5001    5.9891   52.5630 C   0  0  0  0  0  0  0  0  0  0  0  0
   23.8631    6.2926   53.1593 C   0  0  0  0  0  0  0  0  0  0  0  0
   20.2558    5.6314   53.4864 C   0  0  0  0  0  0  0  0  0  0  0  0
   19.0414    6.1635   53.7404 N   0  0  0  0  0  0  0  0  0  0  0  0
   17.9605    5.3691   53.8245 C   0  0  0  0  0  0  0  0  0  0  0  0
   16.6627    5.6375   54.0626 N   0  0  0  0  0  0  0  0  0  0  0  0
   16.0537    6.9478   54.3069 C   0  0  0  0  0  0  0  0  0  0  0  0
   16.0293    4.4515   54.0314 C   0  0  0  0  0  0  0  0  0  0  0  0
   16.9175    3.4580   53.7777 N   0  0  0  0  0  0  0  0  0  0  0  0
   18.1290    4.0023   53.6443 C   0  0  0  0  0  0  0  0  0  0  0  0
   19.3656    3.4525   53.3848 C   0  0  0  0  0  0  0  0  0  0  0  0
   19.5750    2.2304   53.2144 O   0  0  0  0  0  0  0  0  0  0  0  0
   20.4114    4.2937   53.3115 N   0  0  0  0  0  0  0  0  0  0  0  0
   21.3877    3.9206   53.1122 H   0  0  0  0  0  0  0  0  0  0  0  0
   24.8921    8.9454   55.4391 C   0  0  0  0  0  0  0  0  0  0  0  0
   26.0187    9.4805   56.0259 C   0  0  0  0  0  0  0  0  0  0  0  0
   27.2865    9.2887   55.5059 C   0  0  0  0  0  0  0  0  0  0  0  0
   27.4387    8.5347   54.3567 C   0  0  0  0  0  0  0  0  0  0  0  0
   26.3149    7.9985   53.7676 C   0  0  0  0  0  0  0  0  0  0  0  0
   25.0317    8.1918   54.2927 C   0  0  0  0  0  0  0  0  0  0  0  0
   22.9400   10.3416   55.6711 C   0  0  0  0  0  0  0  0  0  0  0  0
   23.6072    9.1185   55.9341 O   0  0  0  0  0  0  0  0  0  0  0  0
 25 26  1  0  0  0
 26 19  1  0  0  0
 19 20  2  0  0  0
 20 21  1  0  0  0
 21 22  2  0  0  0
 22 23  1  0  0  0
 23 24  2  0  0  0
 24  1  1  0  0  0
  1  2  1  0  0  0
  2  3  1  0  0  0
  3  4  1  0  0  0
  4  5  1  0  0  0
  5  6  1  0  0  0
  4  7  1  0  0  0
  7  8  2  0  0  0
  8  9  1  0  0  0
  9 10  1  0  0  0
 10 11  1  0  0  0
 10 12  1  0  0  0
 12 13  2  0  0  0
 13 14  1  0  0  0
 14 15  1  0  0  0
 15 16  2  0  0  0
 15 17  1  0  0  0
 24 19  1  0  0  0
  6  1  1  0  0  0
 17  7  1  0  0  0
 14  9  2  0  0  0
 17 18  1  0  0  0
M  END
> <minimizedAffinity>
24.58224

> <CNNscore>
0.3545410931

> <CNNaffinity>
5.9136061668

> <CNN_VS>
2.0966165066

> <CNNaffinity_variance>
0.3812516928

$$$$
[H]c1c([H])c([H])c(N2C([H])([H])C([H])([H])N(c3nc4c(nc([H])n4C([H])([H])[H])c(=O)n3[H])C([H])([H])C2([H])[H])c(OC([H])([H])[H])c1[H]


 26 29  0  0  0  0  0  0  0  0999 V2000
   20.4325    6.2379   53.3409 N   0  0  0  0  0  0  0  0  0  0  0  0
   21.5810    5.3758   53.1358 C   0  0  0  0  0  0  0  0  0  0  0  0
   22.6691    5.8007   54.0626 C   0  0  0  0  0  0  0  0  0  0  0  0
   22.9957    7.1811   53.8062 N   0  0  0  0  0  0  0  0  0  0  0  0
   22.1093    7.9729   53.0115 C   0  0  0  0  0  0  0  0  0  0  0  0
   20.6479    7.6586   53.2776 C   0  0  0  0  0  0  0  0  0  0  0  0
   24.1764    7.7953   54.3203 C   0  0  0  0  0  0  0  0  0  0  0  0
   25.4083    7.3834   53.9530 N   0  0  0  0  0  0  0  0  0  0  0  0
   26.4995    7.9856   54.4561 C   0  0  0  0  0  0  0  0  0  0  0  0
   27.8149    7.7745   54.2603 N   0  0  0  0  0  0  0  0  0  0  0  0
   28.4371    6.7704   53.3929 C   0  0  0  0  0  0  0  0  0  0  0  0
   28.4513    8.6777   55.0269 C   0  0  0  0  0  0  0  0  0  0  0  0
   27.5476    9.4411   55.6911 N   0  0  0  0  0  0  0  0  0  0  0  0
   26.3231    9.0308   55.3535 C   0  0  0  0  0  0  0  0  0  0  0  0
   25.0687    9.4565   55.7328 C   0  0  0  0  0  0  0  0  0  0  0  0
   24.8515   10.3912   56.5362 O   0  0  0  0  0  0  0  0  0  0  0  0
   24.0132    8.8184   55.1985 N   0  0  0  0  0  0  0  0  0  0  0  0
   23.0227    9.1087   55.4572 H   0  0  0  0  0  0  0  0  0  0  0  0
   19.0686    4.2777   53.6495 C   0  0  0  0  0  0  0  0  0  0  0  0
   17.8281    3.7286   53.8932 C   0  0  0  0  0  0  0  0  0  0  0  0
   16.6976    4.5053   54.0765 C   0  0  0  0  0  0  0  0  0  0  0  0
   16.8065    5.8824   54.0146 C   0  0  0  0  0  0  0  0  0  0  0  0
   18.0448    6.4345   53.7711 C   0  0  0  0  0  0  0  0  0  0  0  0
   19.1892    5.6499   53.5856 C   0  0  0  0  0  0  0  0  0  0  0  0
   20.1275    2.3135   52.7360 C   0  0  0  0  0  0  0  0  0  0  0  0
   20.2214    3.5283   53.4612 O   0  0  0  0  0  0  0  0  0  0  0  0
 25 26  1  0  0  0
 26 19  1  0  0  0
 19 20  2  0  0  0
 20 21  1  0  0  0
 21 22  2  0  0  0
 22 23  1  0  0  0
 23 24  2  0  0  0
 24  1  1  0  0  0
  1  2  1  0  0  0
  2  3  1  0  0  0
  3  4  1  0  0  0
  4  5  1  0  0  0
  5  6  1  0  0  0
  4  7  1  0  0  0
  7  8  2  0  0  0
  8  9  1  0  0  0
  9 10  1  0  0  0
 10 11  1  0  0  0
 10 12  1  0  0  0
 12 13  2  0  0  0
 13 14  1  0  0  0
 14 15  1  0  0  0
 15 16  2  0  0  0
 15 17  1  0  0  0
 24 19  1  0  0  0
  6  1  1  0  0  0
 17  7  1  0  0  0
 14  9  2  0  0  0
 17 18  1  0  0  0
M  END
> <minimizedAffinity>
25.56907

> <CNNscore>
0.3536461592

> <CNNaffinity>
5.6133384705

> <CNN_VS>
1.9851355553

> <CNNaffinity_variance>
0.6372439861

$$$$
[H]c1c([H])c([H])c(N2C([H])([H])C([H])([H])N(c3nc4c(nc([H])n4C([H])([H])[H])c(=O)n3[H])C([H])([H])C2([H])[H])c(OC([H])([H])[H])c1[H]


 26 29  0  0  0  0  0  0  0  0999 V2000
   21.4091    5.9974   53.2801 N   0  0  0  0  0  0  0  0  0  0  0  0
   22.5068    5.0927   53.5642 C   0  0  0  0  0  0  0  0  0  0  0  0
   23.4466    5.7629   54.5081 C   0  0  0  0  0  0  0  0  0  0  0  0
   23.9168    6.9897   53.9151 N   0  0  0  0  0  0  0  0  0  0  0  0
   23.2447    7.5133   52.7668 C   0  0  0  0  0  0  0  0  0  0  0  0
   21.7396    7.3245   52.8345 C   0  0  0  0  0  0  0  0  0  0  0  0
   25.0335    7.7104   54.4338 C   0  0  0  0  0  0  0  0  0  0  0  0
   26.3012    7.3981   54.0907 N   0  0  0  0  0  0  0  0  0  0  0  0
   27.3299    8.0991   54.5974 C   0  0  0  0  0  0  0  0  0  0  0  0
   28.6612    7.9969   54.4232 N   0  0  0  0  0  0  0  0  0  0  0  0
   29.3789    7.0345   53.5828 C   0  0  0  0  0  0  0  0  0  0  0  0
   29.2075    8.9638   55.1818 C   0  0  0  0  0  0  0  0  0  0  0  0
   28.2327    9.6591   55.8197 N   0  0  0  0  0  0  0  0  0  0  0  0
   27.0524    9.1408   55.4730 C   0  0  0  0  0  0  0  0  0  0  0  0
   25.7610    9.4651   55.8276 C   0  0  0  0  0  0  0  0  0  0  0  0
   25.4536   10.3917   56.6107 O   0  0  0  0  0  0  0  0  0  0  0  0
   24.7713    8.7308   55.2908 N   0  0  0  0  0  0  0  0  0  0  0  0
   23.7561    8.9406   55.5307 H   0  0  0  0  0  0  0  0  0  0  0  0
   19.0641    6.4325   53.6108 C   0  0  0  0  0  0  0  0  0  0  0  0
   17.7848    5.9469   53.7765 C   0  0  0  0  0  0  0  0  0  0  0  0
   17.5028    4.5923   53.7884 C   0  0  0  0  0  0  0  0  0  0  0  0
   18.5347    3.6857   53.6291 C   0  0  0  0  0  0  0  0  0  0  0  0
   19.8145    4.1675   53.4633 C   0  0  0  0  0  0  0  0  0  0  0  0
   20.1011    5.5377   53.4511 C   0  0  0  0  0  0  0  0  0  0  0  0
   20.2234    8.2932   54.6145 C   0  0  0  0  0  0  0  0  0  0  0  0
   19.3812    7.7835   53.5941 O   0  0  0  0  0  0  0  0  0  0  0  0
 25 26  1  0  0  0
 26 19  1  0  0  0
 19 20  2  0  0  0
 20 21  1  0  0  0
 21 22  2  0  0  0
 22 23  1  0  0  0
 23 24  2  0  0  0
 24  1  1  0  0  0
  1  2  1  0  0  0
  2  3  1  0  0  0
  3  4  1  0  0  0
  4  5  1  0  0  0
  5  6  1  0  0  0
  4  7  1  0  0  0
  7  8  2  0  0  0
  8  9  1  0  0  0
  9 10  1  0  0  0
 10 11  1  0  0  0
 10 12  1  0  0  0
 12 13  2  0  0  0
 13 14  1  0  0  0
 14 15  1  0  0  0
 15 16  2  0  0  0
 15 17  1  0  0  0
 24 19  1  0  0  0
  6  1  1  0  0  0
 17  7  1  0  0  0
 14  9  2  0  0  0
 17 18  1  0  0  0
M  END
> <minimizedAffinity>
24.91088

> <CNNscore>
0.3515160084

> <CNNaffinity>
5.6334795952

> <CNN_VS>
1.9802582264

> <CNNaffinity_variance>
0.4372820258

$$$$
[H]c1c([H])c([H])c(N2C([H])([H])C([H])([H])N(c3nc4c(nc([H])n4C([H])([H])[H])c(=O)n3[H])C([H])([H])C2([H])[H])c(OC([H])([H])[H])c1[H]


 26 29  0  0  0  0  0  0  0  0999 V2000
   23.2337    8.6195   53.7707 N   0  0  0  0  0  0  0  0  0  0  0  0
   24.4301    7.8443   53.5026 C   0  0  0  0  0  0  0  0  0  0  0  0
   25.2161    7.7268   54.7643 C   0  0  0  0  0  0  0  0  0  0  0  0
   25.5416    9.0470   55.2427 N   0  0  0  0  0  0  0  0  0  0  0  0
   24.8649   10.1778   54.6880 C   0  0  0  0  0  0  0  0  0  0  0  0
   23.3993    9.9000   54.4045 C   0  0  0  0  0  0  0  0  0  0  0  0
   26.5181    9.2727   56.2582 C   0  0  0  0  0  0  0  0  0  0  0  0
   26.9447   10.5152   56.5689 N   0  0  0  0  0  0  0  0  0  0  0  0
   27.8652   10.6917   57.5322 C   0  0  0  0  0  0  0  0  0  0  0  0
   28.4494   11.7995   58.0268 N   0  0  0  0  0  0  0  0  0  0  0  0
   28.2183   13.1875   57.6174 C   0  0  0  0  0  0  0  0  0  0  0  0
   29.2962   11.3748   58.9813 C   0  0  0  0  0  0  0  0  0  0  0  0
   29.2418   10.0230   59.0815 N   0  0  0  0  0  0  0  0  0  0  0  0
   28.3573    9.5715   58.1894 C   0  0  0  0  0  0  0  0  0  0  0  0
   27.9264    8.3005   57.8774 C   0  0  0  0  0  0  0  0  0  0  0  0
   28.3349    7.2576   58.4360 O   0  0  0  0  0  0  0  0  0  0  0  0
   27.0048    8.1829   56.9061 N   0  0  0  0  0  0  0  0  0  0  0  0
   26.6375    7.2239   56.6274 H   0  0  0  0  0  0  0  0  0  0  0  0
   21.4191    7.0827   54.1490 C   0  0  0  0  0  0  0  0  0  0  0  0
   20.1960    6.5808   53.7594 C   0  0  0  0  0  0  0  0  0  0  0  0
   19.5241    7.0500   52.6445 C   0  0  0  0  0  0  0  0  0  0  0  0
   20.0922    8.0585   51.8879 C   0  0  0  0  0  0  0  0  0  0  0  0
   21.3146    8.5625   52.2744 C   0  0  0  0  0  0  0  0  0  0  0  0
   21.9953    8.0886   53.4022 C   0  0  0  0  0  0  0  0  0  0  0  0
   21.8413    7.2272   56.5186 C   0  0  0  0  0  0  0  0  0  0  0  0
   22.1190    6.6349   55.2606 O   0  0  0  0  0  0  0  0  0  0  0  0
 25 26  1  0  0  0
 26 19  1  0  0  0
 19 20  2  0  0  0
 20 21  1  0  0  0
 21 22  2  0  0  0
 22 23  1  0  0  0
 23 24  2  0  0  0
 24  1  1  0  0  0
  1  2  1  0  0  0
  2  3  1  0  0  0
  3  4  1  0  0  0
  4  5  1  0  0  0
  5  6  1  0  0  0
  4  7  1  0  0  0
  7  8  2  0  0  0
  8  9  1  0  0  0
  9 10  1  0  0  0
 10 11  1  0  0  0
 10 12  1  0  0  0
 12 13  2  0  0  0
 13 14  1  0  0  0
 14 15  1  0  0  0
 15 16  2  0  0  0
 15 17  1  0  0  0
 24 19  1  0  0  0
  6  1  1  0  0  0
 17  7  1  0  0  0
 14  9  2  0  0  0
 17 18  1  0  0  0
M  END
> <minimizedAffinity>
29.04038

> <CNNscore>
0.3450402319

> <CNNaffinity>
5.1615862846

> <CNN_VS>
1.7809549570

> <CNNaffinity_variance>
0.2599678040

$$$$
[H]c1c([H])c([H])c(N2C([H])([H])C([H])([H])N(c3nc4c(nc([H])n4C([H])([H])[H])c(=O)n3[H])C([H])([H])C2([H])[H])c(OC([H])([H])[H])c1[H]


 26 29  0  0  0  0  0  0  0  0999 V2000
   25.1929    7.6269   53.9350 N   0  0  0  0  0  0  0  0  0  0  0  0
   24.3265    8.3652   53.0359 C   0  0  0  0  0  0  0  0  0  0  0  0
   22.9090    8.1148   53.4251 C   0  0  0  0  0  0  0  0  0  0  0  0
   22.6456    6.6989   53.3642 N   0  0  0  0  0  0  0  0  0  0  0  0
   23.7430    5.7874   53.2683 C   0  0  0  0  0  0  0  0  0  0  0  0
   24.9369    6.2212   54.1002 C   0  0  0  0  0  0  0  0  0  0  0  0
   21.3228    6.1655   53.3990 C   0  0  0  0  0  0  0  0  0  0  0  0
   21.0923    4.8360   53.3564 N   0  0  0  0  0  0  0  0  0  0  0  0
   19.8330    4.3677   53.3923 C   0  0  0  0  0  0  0  0  0  0  0  0
   19.3370    3.1161   53.3641 N   0  0  0  0  0  0  0  0  0  0  0  0
   20.0891    1.8610   53.2820 C   0  0  0  0  0  0  0  0  0  0  0  0
   18.0001    3.2479   53.4268 C   0  0  0  0  0  0  0  0  0  0  0  0
   17.6662    4.5612   53.4933 N   0  0  0  0  0  0  0  0  0  0  0  0
   18.7901    5.2812   53.4736 C   0  0  0  0  0  0  0  0  0  0  0  0
   19.0180    6.6395   53.5174 C   0  0  0  0  0  0  0  0  0  0  0  0
   18.1180    7.5061   53.5904 O   0  0  0  0  0  0  0  0  0  0  0  0
   20.2968    7.0517   53.4784 N   0  0  0  0  0  0  0  0  0  0  0  0
   20.5276    8.0899   53.5107 H   0  0  0  0  0  0  0  0  0  0  0  0
   25.9572    9.0491   55.7214 C   0  0  0  0  0  0  0  0  0  0  0  0
   26.9942    9.7126   56.3412 C   0  0  0  0  0  0  0  0  0  0  0  0
   28.2927    9.6659   55.8654 C   0  0  0  0  0  0  0  0  0  0  0  0
   28.5696    8.9297   54.7281 C   0  0  0  0  0  0  0  0  0  0  0  0
   27.5356    8.2653   54.1060 C   0  0  0  0  0  0  0  0  0  0  0  0
   26.2215    8.3118   54.5864 C   0  0  0  0  0  0  0  0  0  0  0  0
   23.7891   10.1040   55.7033 C   0  0  0  0  0  0  0  0  0  0  0  0
   24.6448    9.0750   56.1718 O   0  0  0  0  0  0  0  0  0  0  0  0
 25 26  1  0  0  0
 26 19  1  0  0  0
 19 20  2  0  0  0
 20 21  1  0  0  0
 21 22  2  0  0  0
 22 23  1  0  0  0
 23 24  2  0  0  0
 24  1  1  0  0  0
  1  2  1  0  0  0
  2  3  1  0  0  0
  3  4  1  0  0  0
  4  5  1  0  0  0
  5  6  1  0  0  0
  4  7  1  0  0  0
  7  8  2  0  0  0
  8  9  1  0  0  0
  9 10  1  0  0  0
 10 11  1  0  0  0
 10 12  1  0  0  0
 12 13  2  0  0  0
 13 14  1  0  0  0
 14 15  1  0  0  0
 15 16  2  0  0  0
 15 17  1  0  0  0
 24 19  1  0  0  0
  6  1  1  0  0  0
 17  7  1  0  0  0
 14  9  2  0  0  0
 17 18  1  0  0  0
M  END
> <minimizedAffinity>
26.40192

> <CNNscore>
0.3216993511

> <CNNaffinity>
5.7193951607

> <CNN_VS>
1.8399257660

> <CNNaffinity_variance>
0.4174911380

$$$$
[H]Oc1c([H])c([H])c(C([H])([H])[C@@]([H])(C(=O)N2C([H])([H])C([H])([H])C([H])([H])[C@@]2([H])C(=O)N([H])C([H])([H])C(=O)N([H])[C@]([H])(C(=O)N([H])[C@]([H])(C(=O)N([H])[C@]([H])(C(=O)N([H])[H])C([H])([H])c2c([H])n([H])c3c([H])c([H])c([H])c([H])c23)C([H])([H])C([H])(C([H])([H])[H])C([H])([H])[H])C([H])([H])c2c([H])c([H])c([H])c([H])c2[H])N([H])[H])c([H])c1[H]


 67 71  0  0  0  0  0  0  0  0999 V2000
   30.2652   11.1206   60.3690 C   0  0  0  0  0  0  0  0  0  0  0  0
   29.4804   11.2348   59.1272 N   0  0  0  0  0  0  0  0  0  0  0  0
   28.5446   10.2949   58.6581 C   0  0  0  0  0  0  0  0  0  0  0  0
   28.3120    9.2525   59.2896 O   0  0  0  0  0  0  0  0  0  0  0  0
   29.6616   12.1001   58.5441 H   0  0  0  0  0  0  0  0  0  0  0  0
   27.7930   10.4796   57.3776 C   0  0  0  0  0  0  0  0  0  0  0  0
   27.7777    9.1915   56.6399 N   0  0  0  0  0  0  0  0  0  0  0  0
   26.5472    8.8685   55.9543 C   0  0  0  0  0  0  0  0  0  0  0  0
   25.5662    9.6922   56.0692 O   0  0  0  0  0  0  0  0  0  0  0  0
   28.6213    8.6261   56.6547 H   0  0  0  0  0  0  0  0  0  0  0  0
   26.3585    7.6863   55.1533 C   0  0  0  0  0  0  0  0  0  0  0  0
   27.4477    7.6759   54.0094 C   0  0  0  0  0  0  0  0  0  0  0  0
   26.8507    8.6272   52.9918 C   0  0  0  0  0  0  0  0  0  0  0  0
   25.3695    8.5941   53.2417 C   0  0  0  0  0  0  0  0  0  0  0  0
   25.2039    7.6375   54.2913 N   0  0  0  0  0  0  0  0  0  0  0  0
   24.1075    6.7428   54.4866 C   0  0  0  0  0  0  0  0  0  0  0  0
   24.1518    5.9445   55.4881 O   0  0  0  0  0  0  0  0  0  0  0  0
   22.9227    6.6494   53.6356 C   0  0  0  0  0  0  0  0  0  0  0  0
   22.4755    5.2865   53.5527 N   0  0  0  0  0  0  0  0  0  0  0  0
   23.1977    4.5939   53.7885 H   0  0  0  0  0  0  0  0  0  0  0  0
   22.1282    5.0966   52.5916 H   0  0  0  0  0  0  0  0  0  0  0  0
   21.7735    7.4451   54.2976 C   0  0  0  0  0  0  0  0  0  0  0  0
   21.6651    8.7719   53.5897 C   0  0  0  0  0  0  0  0  0  0  0  0
   21.5417    8.7720   52.2128 C   0  0  0  0  0  0  0  0  0  0  0  0
   21.4818   10.0083   51.5886 C   0  0  0  0  0  0  0  0  0  0  0  0
   21.5417   11.1880   52.3155 C   0  0  0  0  0  0  0  0  0  0  0  0
   21.4795   12.3877   51.6070 O   0  0  0  0  0  0  0  0  0  0  0  0
   21.6610   11.1480   53.6600 C   0  0  0  0  0  0  0  0  0  0  0  0
   21.7243    9.9095   54.3220 C   0  0  0  0  0  0  0  0  0  0  0  0
   21.5302   13.2445   52.1515 H   0  0  0  0  0  0  0  0  0  0  0  0
   29.8865    8.8659   61.5407 N   0  0  0  0  0  0  0  0  0  0  0  0
   30.5203    9.7183   60.6623 C   0  0  0  0  0  0  0  0  0  0  0  0
   31.5020    9.1944   59.9863 O   0  0  0  0  0  0  0  0  0  0  0  0
   29.1170    9.1215   62.1508 H   0  0  0  0  0  0  0  0  0  0  0  0
   30.3722    7.4097   61.6306 C   0  0  0  0  0  0  0  0  0  0  0  0
   29.3295    6.6800   62.3271 C   0  0  0  0  0  0  0  0  0  0  0  0
   28.6263    7.3457   63.1789 O   0  0  0  0  0  0  0  0  0  0  0  0
   29.0032    5.3269   62.1400 N   0  0  0  0  0  0  0  0  0  0  0  0
   29.6070    4.7942   61.4783 H   0  0  0  0  0  0  0  0  0  0  0  0
   27.9123    4.6018   62.7593 C   0  0  0  0  0  0  0  0  0  0  0  0
   28.2674    4.0654   64.0620 C   0  0  0  0  0  0  0  0  0  0  0  0
   29.1007    2.8936   64.1509 N   0  0  0  0  0  0  0  0  0  0  0  0
   27.8583    4.6005   65.1108 O   0  0  0  0  0  0  0  0  0  0  0  0
   29.9279    2.9127   64.7462 H   0  0  0  0  0  0  0  0  0  0  0  0
   28.8604    2.0439   63.6111 H   0  0  0  0  0  0  0  0  0  0  0  0
   27.3379    3.6124   61.7771 C   0  0  0  0  0  0  0  0  0  0  0  0
   26.0588    3.0181   62.0481 C   0  0  0  0  0  0  0  0  0  0  0  0
   24.8517    3.5612   61.6259 C   0  0  0  0  0  0  0  0  0  0  0  0
   23.8339    2.8365   62.0770 N   0  0  0  0  0  0  0  0  0  0  0  0
   24.3676    1.8114   62.7969 C   0  0  0  0  0  0  0  0  0  0  0  0
   23.7206    0.7756   63.4783 C   0  0  0  0  0  0  0  0  0  0  0  0
   24.4821   -0.1596   64.1478 C   0  0  0  0  0  0  0  0  0  0  0  0
   25.8475   -0.0551   64.1337 C   0  0  0  0  0  0  0  0  0  0  0  0
   26.5103    0.9582   63.4694 C   0  0  0  0  0  0  0  0  0  0  0  0
   25.7429    1.8981   62.7950 C   0  0  0  0  0  0  0  0  0  0  0  0
   22.8091    2.9849   61.9353 H   0  0  0  0  0  0  0  0  0  0  0  0
   31.7561    7.4923   62.0845 C   0  0  0  0  0  0  0  0  0  0  0  0
   32.8714    7.2108   64.2007 C   0  0  0  0  0  0  0  0  0  0  0  0
   32.1829    8.2462   63.2651 C   0  0  0  0  0  0  0  0  0  0  0  0
   33.1277    9.3784   63.0816 C   0  0  0  0  0  0  0  0  0  0  0  0
   29.3827   11.7642   61.4741 C   0  0  0  0  0  0  0  0  0  0  0  0
   29.2066   13.2083   61.3507 C   0  0  0  0  0  0  0  0  0  0  0  0
   27.9678   13.7965   61.4512 C   0  0  0  0  0  0  0  0  0  0  0  0
   27.8235   15.1812   61.3009 C   0  0  0  0  0  0  0  0  0  0  0  0
   28.9036   15.9936   61.0500 C   0  0  0  0  0  0  0  0  0  0  0  0
   30.1515   15.4012   60.9493 C   0  0  0  0  0  0  0  0  0  0  0  0
   30.2611   14.0511   61.1008 C   0  0  0  0  0  0  0  0  0  0  0  0
 58 59  1  0  0  0
 59 60  1  0  0  0
 59 57  1  0  0  0
 57 35  1  0  0  0
 35 31  1  0  0  0
 31 32  1  0  0  0
 32 33  2  0  0  0
 32  1  1  0  0  0
  1 61  1  0  0  0
 61 62  1  0  0  0
 62 63  2  0  0  0
 63 64  1  0  0  0
 64 65  2  0  0  0
 65 66  1  0  0  0
 66 67  2  0  0  0
  1  2  1  0  0  0
  2  3  1  0  0  0
  3  4  2  0  0  0
  3  6  1  0  0  0
  6  7  1  0  0  0
  7  8  1  0  0  0
  8  9  2  0  0  0
  8 11  1  0  0  0
 11 12  1  0  0  0
 12 13  1  0  0  0
 13 14  1  0  0  0
 14 15  1  0  0  0
 15 16  1  0  0  0
 16 17  2  0  0  0
 16 18  1  0  0  0
 18 19  1  0  0  0
 18 22  1  0  0  0
 22 23  1  0  0  0
 23 24  2  0  0  0
 24 25  1  0  0  0
 25 26  2  0  0  0
 26 27  1  0  0  0
 26 28  1  0  0  0
 28 29  2  0  0  0
 35 36  1  0  0  0
 36 37  2  0  0  0
 36 38  1  0  0  0
 38 40  1  0  0  0
 40 46  1  0  0  0
 46 47  1  0  0  0
 47 48  2  0  0  0
 48 49  1  0  0  0
 49 50  1  0  0  0
 50 51  2  0  0  0
 51 52  1  0  0  0
 52 53  2  0  0  0
 53 54  1  0  0  0
 54 55  2  0  0  0
 40 41  1  0  0  0
 41 42  1  0  0  0
 41 43  2  0  0  0
 67 62  1  0  0  0
 15 11  1  0  0  0
 29 23  1  0  0  0
 55 47  1  0  0  0
 55 50  1  0  0  0
 31 34  1  0  0  0
  2  5  1  0  0  0
  7 10  1  0  0  0
 19 20  1  0  0  0
 19 21  1  0  0  0
 27 30  1  0  0  0
 38 39  1  0  0  0
 49 56  1  0  0  0
 42 44  1  0  0  0
 42 45  1  0  0  0
M  END
> <minimizedAffinity>
-3.76002

> <CNNscore>
0.6065194607

> <CNNaffinity>
7.9491949081

> <CNN_VS>
4.8213415146

> <CNNaffinity_variance>
2.0368399620

$$$$
[H]Oc1c([H])c([H])c(C([H])([H])[C@@]([H])(C(=O)N2C([H])([H])C([H])([H])C([H])([H])[C@@]2([H])C(=O)N([H])C([H])([H])C(=O)N([H])[C@]([H])(C(=O)N([H])[C@]([H])(C(=O)N([H])[C@]([H])(C(=O)N([H])[H])C([H])([H])c2c([H])n([H])c3c([H])c([H])c([H])c([H])c23)C([H])([H])C([H])(C([H])([H])[H])C([H])([H])[H])C([H])([H])c2c([H])c([H])c([H])c([H])c2[H])N([H])[H])c([H])c1[H]


 67 71  0  0  0  0  0  0  0  0999 V2000
   29.0902    9.9326   59.5079 C   0  0  0  0  0  0  0  0  0  0  0  0
   28.2112    9.1528   58.6189 N   0  0  0  0  0  0  0  0  0  0  0  0
   27.8040    9.5333   57.3271 C   0  0  0  0  0  0  0  0  0  0  0  0
   28.1733   10.6084   56.8297 O   0  0  0  0  0  0  0  0  0  0  0  0
   27.8540    8.2360   59.0105 H   0  0  0  0  0  0  0  0  0  0  0  0
   26.8985    8.6877   56.4883 C   0  0  0  0  0  0  0  0  0  0  0  0
   25.7527    9.5152   56.0346 N   0  0  0  0  0  0  0  0  0  0  0  0
   24.8509    8.8882   55.0954 C   0  0  0  0  0  0  0  0  0  0  0  0
   25.1311    7.6955   54.7044 O   0  0  0  0  0  0  0  0  0  0  0  0
   25.6680   10.4551   56.4101 H   0  0  0  0  0  0  0  0  0  0  0  0
   23.6630    9.5173   54.5776 C   0  0  0  0  0  0  0  0  0  0  0  0
   22.9309   10.2606   55.7635 C   0  0  0  0  0  0  0  0  0  0  0  0
   22.1970    9.1245   56.4474 C   0  0  0  0  0  0  0  0  0  0  0  0
   22.0076    8.0800   55.3841 C   0  0  0  0  0  0  0  0  0  0  0  0
   22.5618    8.6653   54.2033 N   0  0  0  0  0  0  0  0  0  0  0  0
   22.1216    8.4867   52.8560 C   0  0  0  0  0  0  0  0  0  0  0  0
   22.7459    9.1146   51.9295 O   0  0  0  0  0  0  0  0  0  0  0  0
   21.0063    7.6438   52.4293 C   0  0  0  0  0  0  0  0  0  0  0  0
   20.9124    7.6303   50.9956 N   0  0  0  0  0  0  0  0  0  0  0  0
   21.3745    8.4268   50.5384 H   0  0  0  0  0  0  0  0  0  0  0  0
   19.9111    7.6169   50.7169 H   0  0  0  0  0  0  0  0  0  0  0  0
   21.2936    6.1865   52.8604 C   0  0  0  0  0  0  0  0  0  0  0  0
   19.9880    5.5687   53.2929 C   0  0  0  0  0  0  0  0  0  0  0  0
   19.9214    4.1929   53.4111 C   0  0  0  0  0  0  0  0  0  0  0  0
   18.6972    3.6532   53.7743 C   0  0  0  0  0  0  0  0  0  0  0  0
   17.5935    4.4597   54.0088 C   0  0  0  0  0  0  0  0  0  0  0  0
   16.3993    3.8334   54.3650 O   0  0  0  0  0  0  0  0  0  0  0  0
   17.6974    5.8003   53.8847 C   0  0  0  0  0  0  0  0  0  0  0  0
   18.9256    6.3776   53.5177 C   0  0  0  0  0  0  0  0  0  0  0  0
   15.5970    4.4358   54.5284 H   0  0  0  0  0  0  0  0  0  0  0  0
   29.6946    7.6880   60.6018 N   0  0  0  0  0  0  0  0  0  0  0  0
   29.6477    9.0639   60.5336 C   0  0  0  0  0  0  0  0  0  0  0  0
   30.1834    9.6913   61.5409 O   0  0  0  0  0  0  0  0  0  0  0  0
   29.3091    7.0549   59.9088 H   0  0  0  0  0  0  0  0  0  0  0  0
   30.3692    7.0355   61.8198 C   0  0  0  0  0  0  0  0  0  0  0  0
   29.3095    6.3824   62.5649 C   0  0  0  0  0  0  0  0  0  0  0  0
   28.6578    7.1116   63.4055 O   0  0  0  0  0  0  0  0  0  0  0  0
   28.9160    5.0404   62.4356 N   0  0  0  0  0  0  0  0  0  0  0  0
   29.4790    4.4557   61.7820 H   0  0  0  0  0  0  0  0  0  0  0  0
   27.8066    4.3913   63.1045 C   0  0  0  0  0  0  0  0  0  0  0  0
   28.0634    4.1613   64.5158 C   0  0  0  0  0  0  0  0  0  0  0  0
   29.4146    4.2029   65.0138 N   0  0  0  0  0  0  0  0  0  0  0  0
   27.1314    3.9226   65.3083 O   0  0  0  0  0  0  0  0  0  0  0  0
   29.6323    4.7876   65.8199 H   0  0  0  0  0  0  0  0  0  0  0  0
   30.1549    3.6457   64.5526 H   0  0  0  0  0  0  0  0  0  0  0  0
   27.3717    3.1846   62.3118 C   0  0  0  0  0  0  0  0  0  0  0  0
   26.9476    2.0033   63.0101 C   0  0  0  0  0  0  0  0  0  0  0  0
   27.8224    1.1138   63.6217 C   0  0  0  0  0  0  0  0  0  0  0  0
   27.1560    0.0826   64.1289 N   0  0  0  0  0  0  0  0  0  0  0  0
   25.8386    0.2905   63.8547 C   0  0  0  0  0  0  0  0  0  0  0  0
   24.7313   -0.5028   64.1714 C   0  0  0  0  0  0  0  0  0  0  0  0
   23.4766   -0.0820   63.7823 C   0  0  0  0  0  0  0  0  0  0  0  0
   23.3411    1.0956   63.0964 C   0  0  0  0  0  0  0  0  0  0  0  0
   24.4181    1.8963   62.7707 C   0  0  0  0  0  0  0  0  0  0  0  0
   25.6802    1.4724   63.1639 C   0  0  0  0  0  0  0  0  0  0  0  0
   27.5259   -0.7485   64.6434 H   0  0  0  0  0  0  0  0  0  0  0  0
   31.2444    8.0636   62.3724 C   0  0  0  0  0  0  0  0  0  0  0  0
   33.1846    9.1399   63.3096 C   0  0  0  0  0  0  0  0  0  0  0  0
   32.4572    7.7748   63.1403 C   0  0  0  0  0  0  0  0  0  0  0  0
   32.3158    7.1746   64.4923 C   0  0  0  0  0  0  0  0  0  0  0  0
   28.1767   11.0185   60.1407 C   0  0  0  0  0  0  0  0  0  0  0  0
   28.8544   12.2684   60.4730 C   0  0  0  0  0  0  0  0  0  0  0  0
   28.2180   13.4835   60.3761 C   0  0  0  0  0  0  0  0  0  0  0  0
   28.9002   14.6694   60.6741 C   0  0  0  0  0  0  0  0  0  0  0  0
   30.2166   14.6617   61.0699 C   0  0  0  0  0  0  0  0  0  0  0  0
   30.8574   13.4377   61.1680 C   0  0  0  0  0  0  0  0  0  0  0  0
   30.1675   12.3001   60.8720 C   0  0  0  0  0  0  0  0  0  0  0  0
 58 59  1  0  0  0
 59 60  1  0  0  0
 59 57  1  0  0  0
 57 35  1  0  0  0
 35 31  1  0  0  0
 31 32  1  0  0  0
 32 33  2  0  0  0
 32  1  1  0  0  0
  1 61  1  0  0  0
 61 62  1  0  0  0
 62 63  2  0  0  0
 63 64  1  0  0  0
 64 65  2  0  0  0
 65 66  1  0  0  0
 66 67  2  0  0  0
  1  2  1  0  0  0
  2  3  1  0  0  0
  3  4  2  0  0  0
  3  6  1  0  0  0
  6  7  1  0  0  0
  7  8  1  0  0  0
  8  9  2  0  0  0
  8 11  1  0  0  0
 11 12  1  0  0  0
 12 13  1  0  0  0
 13 14  1  0  0  0
 14 15  1  0  0  0
 15 16  1  0  0  0
 16 17  2  0  0  0
 16 18  1  0  0  0
 18 19  1  0  0  0
 18 22  1  0  0  0
 22 23  1  0  0  0
 23 24  2  0  0  0
 24 25  1  0  0  0
 25 26  2  0  0  0
 26 27  1  0  0  0
 26 28  1  0  0  0
 28 29  2  0  0  0
 35 36  1  0  0  0
 36 37  2  0  0  0
 36 38  1  0  0  0
 38 40  1  0  0  0
 40 46  1  0  0  0
 46 47  1  0  0  0
 47 48  2  0  0  0
 48 49  1  0  0  0
 49 50  1  0  0  0
 50 51  2  0  0  0
 51 52  1  0  0  0
 52 53  2  0  0  0
 53 54  1  0  0  0
 54 55  2  0  0  0
 40 41  1  0  0  0
 41 42  1  0  0  0
 41 43  2  0  0  0
 67 62  1  0  0  0
 15 11  1  0  0  0
 29 23  1  0  0  0
 55 47  1  0  0  0
 55 50  1  0  0  0
 31 34  1  0  0  0
  2  5  1  0  0  0
  7 10  1  0  0  0
 19 20  1  0  0  0
 19 21  1  0  0  0
 27 30  1  0  0  0
 38 39  1  0  0  0
 49 56  1  0  0  0
 42 44  1  0  0  0
 42 45  1  0  0  0
M  END
> <minimizedAffinity>
5.59522

> <CNNscore>
0.5899799466

> <CNNaffinity>
7.5826749802

> <CNN_VS>
4.4736261368

> <CNNaffinity_variance>
0.8876700401

$$$$
[H]Oc1c([H])c([H])c(C([H])([H])[C@@]([H])(C(=O)N2C([H])([H])C([H])([H])C([H])([H])[C@@]2([H])C(=O)N([H])C([H])([H])C(=O)N([H])[C@]([H])(C(=O)N([H])[C@]([H])(C(=O)N([H])[C@]([H])(C(=O)N([H])[H])C([H])([H])c2c([H])n([H])c3c([H])c([H])c([H])c([H])c23)C([H])([H])C([H])(C([H])([H])[H])C([H])([H])[H])C([H])([H])c2c([H])c([H])c([H])c([H])c2[H])N([H])[H])c([H])c1[H]


 67 71  0  0  0  0  0  0  0  0999 V2000
   29.5007   11.9334   60.0976 C   0  0  0  0  0  0  0  0  0  0  0  0
   28.3067   11.5322   59.3331 N   0  0  0  0  0  0  0  0  0  0  0  0
   28.3053   11.0130   58.0256 C   0  0  0  0  0  0  0  0  0  0  0  0
   29.3638   10.8565   57.3973 O   0  0  0  0  0  0  0  0  0  0  0  0
   27.3775   11.6679   59.8227 H   0  0  0  0  0  0  0  0  0  0  0  0
   27.0453   10.6375   57.3115 C   0  0  0  0  0  0  0  0  0  0  0  0
   27.2548    9.3425   56.6168 N   0  0  0  0  0  0  0  0  0  0  0  0
   26.1503    8.8676   55.8149 C   0  0  0  0  0  0  0  0  0  0  0  0
   25.0766    9.5754   55.7992 O   0  0  0  0  0  0  0  0  0  0  0  0
   28.1497    8.8779   56.7387 H   0  0  0  0  0  0  0  0  0  0  0  0
   26.1837    7.6566   55.0356 C   0  0  0  0  0  0  0  0  0  0  0  0
   27.4038    7.7365   54.0357 C   0  0  0  0  0  0  0  0  0  0  0  0
   26.8473    8.6005   52.9218 C   0  0  0  0  0  0  0  0  0  0  0  0
   25.3572    8.4191   52.9881 C   0  0  0  0  0  0  0  0  0  0  0  0
   25.1576    7.4714   54.0399 N   0  0  0  0  0  0  0  0  0  0  0  0
   24.1406    6.4720   54.1275 C   0  0  0  0  0  0  0  0  0  0  0  0
   24.1382    5.7025   55.1523 O   0  0  0  0  0  0  0  0  0  0  0  0
   23.0879    6.2395   53.1405 C   0  0  0  0  0  0  0  0  0  0  0  0
   21.8574    5.8942   53.7969 N   0  0  0  0  0  0  0  0  0  0  0  0
   21.9786    5.5421   54.7551 H   0  0  0  0  0  0  0  0  0  0  0  0
   21.3579    5.1762   53.2352 H   0  0  0  0  0  0  0  0  0  0  0  0
   22.8205    7.5601   52.3812 C   0  0  0  0  0  0  0  0  0  0  0  0
   22.2541    8.5509   53.3664 C   0  0  0  0  0  0  0  0  0  0  0  0
   21.9515    8.1082   54.6406 C   0  0  0  0  0  0  0  0  0  0  0  0
   21.3978    9.0341   55.5112 C   0  0  0  0  0  0  0  0  0  0  0  0
   21.1613   10.3431   55.1186 C   0  0  0  0  0  0  0  0  0  0  0  0
   20.5967   11.2073   56.0565 O   0  0  0  0  0  0  0  0  0  0  0  0
   21.4714   10.7393   53.8655 C   0  0  0  0  0  0  0  0  0  0  0  0
   22.0343    9.8236   52.9594 C   0  0  0  0  0  0  0  0  0  0  0  0
   20.4235   12.1621   55.7538 H   0  0  0  0  0  0  0  0  0  0  0  0
   30.2037    9.4769   60.3650 N   0  0  0  0  0  0  0  0  0  0  0  0
   30.0512   10.7788   60.7914 C   0  0  0  0  0  0  0  0  0  0  0  0
   30.4609   11.0208   62.0033 O   0  0  0  0  0  0  0  0  0  0  0  0
   29.9212    9.1222   59.4572 H   0  0  0  0  0  0  0  0  0  0  0  0
   30.8395    8.4589   61.3262 C   0  0  0  0  0  0  0  0  0  0  0  0
   29.7367    7.7700   61.9697 C   0  0  0  0  0  0  0  0  0  0  0  0
   28.6746    8.4645   62.1995 O   0  0  0  0  0  0  0  0  0  0  0  0
   29.7136    6.4157   62.3407 N   0  0  0  0  0  0  0  0  0  0  0  0
   30.5938    5.8798   62.1849 H   0  0  0  0  0  0  0  0  0  0  0  0
   28.5947    5.6873   62.9038 C   0  0  0  0  0  0  0  0  0  0  0  0
   28.7569    5.4260   64.3237 C   0  0  0  0  0  0  0  0  0  0  0  0
   29.9703    5.8236   64.9910 N   0  0  0  0  0  0  0  0  0  0  0  0
   27.8624    4.8565   64.9789 O   0  0  0  0  0  0  0  0  0  0  0  0
   29.9126    6.3767   65.8452 H   0  0  0  0  0  0  0  0  0  0  0  0
   30.8897    5.5512   64.6015 H   0  0  0  0  0  0  0  0  0  0  0  0
   28.2883    4.4853   62.0466 C   0  0  0  0  0  0  0  0  0  0  0  0
   27.9585    3.2389   62.6796 C   0  0  0  0  0  0  0  0  0  0  0  0
   28.9051    2.3618   63.1943 C   0  0  0  0  0  0  0  0  0  0  0  0
   28.3173    1.2639   63.6566 N   0  0  0  0  0  0  0  0  0  0  0  0
   26.9800    1.4152   63.4499 C   0  0  0  0  0  0  0  0  0  0  0  0
   25.9313    0.5422   63.7561 C   0  0  0  0  0  0  0  0  0  0  0  0
   24.6403    0.9165   63.4467 C   0  0  0  0  0  0  0  0  0  0  0  0
   24.4125    2.1270   62.8480 C   0  0  0  0  0  0  0  0  0  0  0  0
   25.4303    3.0064   62.5346 C   0  0  0  0  0  0  0  0  0  0  0  0
   26.7290    2.6290   62.8476 C   0  0  0  0  0  0  0  0  0  0  0  0
   28.7529    0.4230   64.0986 H   0  0  0  0  0  0  0  0  0  0  0  0
   31.8723    9.1987   62.0432 C   0  0  0  0  0  0  0  0  0  0  0  0
   32.9024    7.3993   63.2689 C   0  0  0  0  0  0  0  0  0  0  0  0
   32.3442    8.8473   63.3840 C   0  0  0  0  0  0  0  0  0  0  0  0
   33.4023    9.6845   64.0068 C   0  0  0  0  0  0  0  0  0  0  0  0
   29.0012   13.0000   61.1110 C   0  0  0  0  0  0  0  0  0  0  0  0
   29.5961   14.3234   60.9472 C   0  0  0  0  0  0  0  0  0  0  0  0
   30.9571   14.5145   60.9913 C   0  0  0  0  0  0  0  0  0  0  0  0
   31.4997   15.7986   60.8592 C   0  0  0  0  0  0  0  0  0  0  0  0
   30.6998   16.9025   60.6826 C   0  0  0  0  0  0  0  0  0  0  0  0
   29.3290   16.7099   60.6376 C   0  0  0  0  0  0  0  0  0  0  0  0
   28.8299   15.4484   60.7685 C   0  0  0  0  0  0  0  0  0  0  0  0
 58 59  1  0  0  0
 59 60  1  0  0  0
 59 57  1  0  0  0
 57 35  1  0  0  0
 35 31  1  0  0  0
 31 32  1  0  0  0
 32 33  2  0  0  0
 32  1  1  0  0  0
  1 61  1  0  0  0
 61 62  1  0  0  0
 62 63  2  0  0  0
 63 64  1  0  0  0
 64 65  2  0  0  0
 65 66  1  0  0  0
 66 67  2  0  0  0
  1  2  1  0  0  0
  2  3  1  0  0  0
  3  4  2  0  0  0
  3  6  1  0  0  0
  6  7  1  0  0  0
  7  8  1  0  0  0
  8  9  2  0  0  0
  8 11  1  0  0  0
 11 12  1  0  0  0
 12 13  1  0  0  0
 13 14  1  0  0  0
 14 15  1  0  0  0
 15 16  1  0  0  0
 16 17  2  0  0  0
 16 18  1  0  0  0
 18 19  1  0  0  0
 18 22  1  0  0  0
 22 23  1  0  0  0
 23 24  2  0  0  0
 24 25  1  0  0  0
 25 26  2  0  0  0
 26 27  1  0  0  0
 26 28  1  0  0  0
 28 29  2  0  0  0
 35 36  1  0  0  0
 36 37  2  0  0  0
 36 38  1  0  0  0
 38 40  1  0  0  0
 40 46  1  0  0  0
 46 47  1  0  0  0
 47 48  2  0  0  0
 48 49  1  0  0  0
 49 50  1  0  0  0
 50 51  2  0  0  0
 51 52  1  0  0  0
 52 53  2  0  0  0
 53 54  1  0  0  0
 54 55  2  0  0  0
 40 41  1  0  0  0
 41 42  1  0  0  0
 41 43  2  0  0  0
 67 62  1  0  0  0
 15 11  1  0  0  0
 29 23  1  0  0  0
 55 47  1  0  0  0
 55 50  1  0  0  0
 31 34  1  0  0  0
  2  5  1  0  0  0
  7 10  1  0  0  0
 19 20  1  0  0  0
 19 21  1  0  0  0
 27 30  1  0  0  0
 38 39  1  0  0  0
 49 56  1  0  0  0
 42 44  1  0  0  0
 42 45  1  0  0  0
M  END
> <minimizedAffinity>
-1.98015

> <CNNscore>
0.5541987419

> <CNNaffinity>
7.9324736595

> <CNN_VS>
4.3961668015

> <CNNaffinity_variance>
1.1389880180

$$$$
[H]Oc1c([H])c([H])c(C([H])([H])[C@@]([H])(C(=O)N2C([H])([H])C([H])([H])C([H])([H])[C@@]2([H])C(=O)N([H])C([H])([H])C(=O)N([H])[C@]([H])(C(=O)N([H])[C@]([H])(C(=O)N([H])[C@]([H])(C(=O)N([H])[H])C([H])([H])c2c([H])n([H])c3c([H])c([H])c([H])c([H])c23)C([H])([H])C([H])(C([H])([H])[H])C([H])([H])[H])C([H])([H])c2c([H])c([H])c([H])c([H])c2[H])N([H])[H])c([H])c1[H]


 67 71  0  0  0  0  0  0  0  0999 V2000
   28.7250    9.0820   60.3960 C   0  0  0  0  0  0  0  0  0  0  0  0
   28.7676   10.4116   61.0295 N   0  0  0  0  0  0  0  0  0  0  0  0
   29.7849   11.3687   60.8617 C   0  0  0  0  0  0  0  0  0  0  0  0
   30.7654   11.1409   60.1363 O   0  0  0  0  0  0  0  0  0  0  0  0
   27.9601   10.6418   61.6749 H   0  0  0  0  0  0  0  0  0  0  0  0
   29.7601   12.6968   61.5504 C   0  0  0  0  0  0  0  0  0  0  0  0
   31.0197   13.4201   61.2437 N   0  0  0  0  0  0  0  0  0  0  0  0
   30.8767   14.8046   60.8548 C   0  0  0  0  0  0  0  0  0  0  0  0
   29.6849   15.2804   60.7693 O   0  0  0  0  0  0  0  0  0  0  0  0
   31.8934   12.9095   61.3305 H   0  0  0  0  0  0  0  0  0  0  0  0
   31.9849   15.6769   60.5619 C   0  0  0  0  0  0  0  0  0  0  0  0
   33.1247   15.4142   61.6233 C   0  0  0  0  0  0  0  0  0  0  0  0
   32.6372   16.2090   62.8182 C   0  0  0  0  0  0  0  0  0  0  0  0
   31.7508   17.2788   62.2458 C   0  0  0  0  0  0  0  0  0  0  0  0
   31.8204   17.0837   60.8312 N   0  0  0  0  0  0  0  0  0  0  0  0
   31.7642   18.0834   59.8123 C   0  0  0  0  0  0  0  0  0  0  0  0
   31.8588   17.7058   58.5913 O   0  0  0  0  0  0  0  0  0  0  0  0
   31.6094   19.5195   60.0361 C   0  0  0  0  0  0  0  0  0  0  0  0
   31.9364   20.2477   58.8415 N   0  0  0  0  0  0  0  0  0  0  0  0
   32.5226   19.7237   58.1791 H   0  0  0  0  0  0  0  0  0  0  0  0
   32.4246   21.1286   59.0988 H   0  0  0  0  0  0  0  0  0  0  0  0
   30.1210   19.8168   60.3334 C   0  0  0  0  0  0  0  0  0  0  0  0
   29.3348   19.5285   59.0796 C   0  0  0  0  0  0  0  0  0  0  0  0
   29.9557   18.8261   58.0636 C   0  0  0  0  0  0  0  0  0  0  0  0
   29.2187   18.6096   56.9096 C   0  0  0  0  0  0  0  0  0  0  0  0
   27.9187   19.0764   56.7847 C   0  0  0  0  0  0  0  0  0  0  0  0
   27.2515   18.8186   55.5874 O   0  0  0  0  0  0  0  0  0  0  0  0
   27.3449   19.7578   57.7995 C   0  0  0  0  0  0  0  0  0  0  0  0
   28.0665   19.9934   58.9827 C   0  0  0  0  0  0  0  0  0  0  0  0
   26.3015   19.1711   55.5071 H   0  0  0  0  0  0  0  0  0  0  0  0
   29.5051    7.9898   62.5865 N   0  0  0  0  0  0  0  0  0  0  0  0
   29.4504    8.1231   61.2157 C   0  0  0  0  0  0  0  0  0  0  0  0
   30.1557    7.2604   60.5424 O   0  0  0  0  0  0  0  0  0  0  0  0
   29.0282    8.5897   63.2518 H   0  0  0  0  0  0  0  0  0  0  0  0
   30.3585    6.8571   63.1808 C   0  0  0  0  0  0  0  0  0  0  0  0
   29.4234    5.8487   63.6428 C   0  0  0  0  0  0  0  0  0  0  0  0
   28.2278    5.9036   63.1624 O   0  0  0  0  0  0  0  0  0  0  0  0
   29.7089    4.8090   64.5428 N   0  0  0  0  0  0  0  0  0  0  0  0
   30.6674    4.8035   64.9520 H   0  0  0  0  0  0  0  0  0  0  0  0
   28.8171    3.7421   64.9501 C   0  0  0  0  0  0  0  0  0  0  0  0
   29.4314    2.4300   64.8428 C   0  0  0  0  0  0  0  0  0  0  0  0
   30.8583    2.2934   64.9874 N   0  0  0  0  0  0  0  0  0  0  0  0
   28.7436    1.4142   64.6218 O   0  0  0  0  0  0  0  0  0  0  0  0
   31.2306    1.6070   65.6426 H   0  0  0  0  0  0  0  0  0  0  0  0
   31.4955    2.8907   64.4323 H   0  0  0  0  0  0  0  0  0  0  0  0
   27.4861    3.9016   64.2597 C   0  0  0  0  0  0  0  0  0  0  0  0
   26.4959    2.8708   64.4002 C   0  0  0  0  0  0  0  0  0  0  0  0
   26.4696    1.9660   65.4543 C   0  0  0  0  0  0  0  0  0  0  0  0
   25.4865    1.0883   65.2879 N   0  0  0  0  0  0  0  0  0  0  0  0
   24.8597    1.4135   64.1237 C   0  0  0  0  0  0  0  0  0  0  0  0
   23.7677    0.7988   63.5030 C   0  0  0  0  0  0  0  0  0  0  0  0
   23.3024    1.3127   62.3105 C   0  0  0  0  0  0  0  0  0  0  0  0
   23.9162    2.4065   61.7605 C   0  0  0  0  0  0  0  0  0  0  0  0
   24.9962    3.0311   62.3527 C   0  0  0  0  0  0  0  0  0  0  0  0
   25.4628    2.5137   63.5534 C   0  0  0  0  0  0  0  0  0  0  0  0
   25.2106    0.2881   65.9010 H   0  0  0  0  0  0  0  0  0  0  0  0
   31.3363    7.5198   64.0369 C   0  0  0  0  0  0  0  0  0  0  0  0
   33.4941    8.5519   63.7543 C   0  0  0  0  0  0  0  0  0  0  0  0
   32.7665    7.2055   64.0353 C   0  0  0  0  0  0  0  0  0  0  0  0
   33.3670    6.6222   65.2630 C   0  0  0  0  0  0  0  0  0  0  0  0
   29.4150    9.2617   59.0155 C   0  0  0  0  0  0  0  0  0  0  0  0
   28.5125    9.1997   57.8693 C   0  0  0  0  0  0  0  0  0  0  0  0
   27.1633    8.9832   58.0226 C   0  0  0  0  0  0  0  0  0  0  0  0
   26.3246    8.9003   56.9044 C   0  0  0  0  0  0  0  0  0  0  0  0
   26.8147    9.0309   55.6268 C   0  0  0  0  0  0  0  0  0  0  0  0
   28.1737    9.2494   55.4724 C   0  0  0  0  0  0  0  0  0  0  0  0
   28.9651    9.3260   56.5794 C   0  0  0  0  0  0  0  0  0  0  0  0
 58 59  1  0  0  0
 59 60  1  0  0  0
 59 57  1  0  0  0
 57 35  1  0  0  0
 35 31  1  0  0  0
 31 32  1  0  0  0
 32 33  2  0  0  0
 32  1  1  0  0  0
  1 61  1  0  0  0
 61 62  1  0  0  0
 62 63  2  0  0  0
 63 64  1  0  0  0
 64 65  2  0  0  0
 65 66  1  0  0  0
 66 67  2  0  0  0
  1  2  1  0  0  0
  2  3  1  0  0  0
  3  4  2  0  0  0
  3  6  1  0  0  0
  6  7  1  0  0  0
  7  8  1  0  0  0
  8  9  2  0  0  0
  8 11  1  0  0  0
 11 12  1  0  0  0
 12 13  1  0  0  0
 13 14  1  0  0  0
 14 15  1  0  0  0
 15 16  1  0  0  0
 16 17  2  0  0  0
 16 18  1  0  0  0
 18 19  1  0  0  0
 18 22  1  0  0  0
 22 23  1  0  0  0
 23 24  2  0  0  0
 24 25  1  0  0  0
 25 26  2  0  0  0
 26 27  1  0  0  0
 26 28  1  0  0  0
 28 29  2  0  0  0
 35 36  1  0  0  0
 36 37  2  0  0  0
 36 38  1  0  0  0
 38 40  1  0  0  0
 40 46  1  0  0  0
 46 47  1  0  0  0
 47 48  2  0  0  0
 48 49  1  0  0  0
 49 50  1  0  0  0
 50 51  2  0  0  0
 51 52  1  0  0  0
 52 53  2  0  0  0
 53 54  1  0  0  0
 54 55  2  0  0  0
 40 41  1  0  0  0
 41 42  1  0  0  0
 41 43  2  0  0  0
 67 62  1  0  0  0
 15 11  1  0  0  0
 29 23  1  0  0  0
 55 47  1  0  0  0
 55 50  1  0  0  0
 31 34  1  0  0  0
  2  5  1  0  0  0
  7 10  1  0  0  0
 19 20  1  0  0  0
 19 21  1  0  0  0
 27 30  1  0  0  0
 38 39  1  0  0  0
 49 56  1  0  0  0
 42 44  1  0  0  0
 42 45  1  0  0  0
M  END
> <minimizedAffinity>
3.72056

> <CNNscore>
0.5476329327

> <CNNaffinity>
7.1005568504

> <CNN_VS>
3.8884987831

> <CNNaffinity_variance>
0.3024214208

$$$$
[H]Oc1c([H])c([H])c(C([H])([H])[C@@]([H])(C(=O)N2C([H])([H])C([H])([H])C([H])([H])[C@@]2([H])C(=O)N([H])C([H])([H])C(=O)N([H])[C@]([H])(C(=O)N([H])[C@]([H])(C(=O)N([H])[C@]([H])(C(=O)N([H])[H])C([H])([H])c2c([H])n([H])c3c([H])c([H])c([H])c([H])c23)C([H])([H])C([H])(C([H])([H])[H])C([H])([H])[H])C([H])([H])c2c([H])c([H])c([H])c([H])c2[H])N([H])[H])c([H])c1[H]


 67 71  0  0  0  0  0  0  0  0999 V2000
   28.2912    8.5224   59.4878 C   0  0  0  0  0  0  0  0  0  0  0  0
   28.0215    9.9078   59.9106 N   0  0  0  0  0  0  0  0  0  0  0  0
   28.9667   10.9485   59.9641 C   0  0  0  0  0  0  0  0  0  0  0  0
   30.1508   10.7553   59.6476 O   0  0  0  0  0  0  0  0  0  0  0  0
   27.0269   10.1141   60.2102 H   0  0  0  0  0  0  0  0  0  0  0  0
   28.6151   12.3309   60.4159 C   0  0  0  0  0  0  0  0  0  0  0  0
   29.8343   12.9847   60.9541 N   0  0  0  0  0  0  0  0  0  0  0  0
   30.1090   14.3156   60.4626 C   0  0  0  0  0  0  0  0  0  0  0  0
   29.3084   14.8038   59.5824 O   0  0  0  0  0  0  0  0  0  0  0  0
   30.3903   12.4691   61.6299 H   0  0  0  0  0  0  0  0  0  0  0  0
   31.2190   15.1222   60.9009 C   0  0  0  0  0  0  0  0  0  0  0  0
   31.0631   15.3921   62.4493 C   0  0  0  0  0  0  0  0  0  0  0  0
   30.0538   16.5224   62.4761 C   0  0  0  0  0  0  0  0  0  0  0  0
   30.1901   17.2051   61.1445 C   0  0  0  0  0  0  0  0  0  0  0  0
   31.2487   16.5033   60.4881 N   0  0  0  0  0  0  0  0  0  0  0  0
   32.2156   17.0383   59.5828 C   0  0  0  0  0  0  0  0  0  0  0  0
   33.1011   16.2433   59.1072 O   0  0  0  0  0  0  0  0  0  0  0  0
   32.2923   18.4304   59.1438 C   0  0  0  0  0  0  0  0  0  0  0  0
   33.6616   18.8630   59.0967 N   0  0  0  0  0  0  0  0  0  0  0  0
   34.2995   18.2965   59.6704 H   0  0  0  0  0  0  0  0  0  0  0  0
   33.7200   19.8534   59.4068 H   0  0  0  0  0  0  0  0  0  0  0  0
   31.7565   18.5234   57.6959 C   0  0  0  0  0  0  0  0  0  0  0  0
   30.2699   18.7638   57.7699 C   0  0  0  0  0  0  0  0  0  0  0  0
   29.5861   18.3045   58.8802 C   0  0  0  0  0  0  0  0  0  0  0  0
   28.2150   18.5082   58.9009 C   0  0  0  0  0  0  0  0  0  0  0  0
   27.5636   19.1449   57.8550 C   0  0  0  0  0  0  0  0  0  0  0  0
   26.1816   19.3037   57.9553 O   0  0  0  0  0  0  0  0  0  0  0  0
   28.2656   19.5811   56.7872 C   0  0  0  0  0  0  0  0  0  0  0  0
   29.6574   19.3894   56.7368 C   0  0  0  0  0  0  0  0  0  0  0  0
   25.7162   19.7669   57.1793 H   0  0  0  0  0  0  0  0  0  0  0  0
   29.7310    8.3587   61.6091 N   0  0  0  0  0  0  0  0  0  0  0  0
   29.1060    7.8521   60.4899 C   0  0  0  0  0  0  0  0  0  0  0  0
   29.2655    6.5752   60.2914 O   0  0  0  0  0  0  0  0  0  0  0  0
   29.7185    9.3322   61.8954 H   0  0  0  0  0  0  0  0  0  0  0  0
   30.5261    7.3953   62.5059 C   0  0  0  0  0  0  0  0  0  0  0  0
   29.5432    6.5599   63.1699 C   0  0  0  0  0  0  0  0  0  0  0  0
   28.3139    6.9428   63.0979 O   0  0  0  0  0  0  0  0  0  0  0  0
   29.8065    5.3652   63.8596 N   0  0  0  0  0  0  0  0  0  0  0  0
   30.8089    5.0920   63.9427 H   0  0  0  0  0  0  0  0  0  0  0  0
   28.8331    4.4717   64.4541 C   0  0  0  0  0  0  0  0  0  0  0  0
   29.2564    3.0824   64.4192 C   0  0  0  0  0  0  0  0  0  0  0  0
   28.5392    2.0958   65.1859 N   0  0  0  0  0  0  0  0  0  0  0  0
   30.2374    2.7262   63.7377 O   0  0  0  0  0  0  0  0  0  0  0  0
   28.2137    1.2460   64.7268 H   0  0  0  0  0  0  0  0  0  0  0  0
   28.3552    2.2539   66.1920 H   0  0  0  0  0  0  0  0  0  0  0  0
   27.4672    4.7557   63.8819 C   0  0  0  0  0  0  0  0  0  0  0  0
   26.8142    3.7480   63.0939 C   0  0  0  0  0  0  0  0  0  0  0  0
   26.7963    3.7475   61.7047 C   0  0  0  0  0  0  0  0  0  0  0  0
   26.0640    2.7367   61.2505 N   0  0  0  0  0  0  0  0  0  0  0  0
   25.5982    2.0658   62.3400 C   0  0  0  0  0  0  0  0  0  0  0  0
   24.7819    0.9320   62.4007 C   0  0  0  0  0  0  0  0  0  0  0  0
   24.4349    0.4257   63.6361 C   0  0  0  0  0  0  0  0  0  0  0  0
   24.8922    1.0404   64.7713 C   0  0  0  0  0  0  0  0  0  0  0  0
   25.6984    2.1612   64.7384 C   0  0  0  0  0  0  0  0  0  0  0  0
   26.0478    2.6690   63.4946 C   0  0  0  0  0  0  0  0  0  0  0  0
   25.8560    2.4694   60.2617 H   0  0  0  0  0  0  0  0  0  0  0  0
   31.4958    8.2313   63.2050 C   0  0  0  0  0  0  0  0  0  0  0  0
   33.4944    9.4863   62.7236 C   0  0  0  0  0  0  0  0  0  0  0  0
   32.9464    8.0745   63.0809 C   0  0  0  0  0  0  0  0  0  0  0  0
   33.7111    7.5841   64.2569 C   0  0  0  0  0  0  0  0  0  0  0  0
   29.0598    8.6448   58.1430 C   0  0  0  0  0  0  0  0  0  0  0  0
   28.2097    8.7979   56.9658 C   0  0  0  0  0  0  0  0  0  0  0  0
   27.0429    9.5244   57.0064 C   0  0  0  0  0  0  0  0  0  0  0  0
   26.2320    9.6319   55.8699 C   0  0  0  0  0  0  0  0  0  0  0  0
   26.5695    9.0213   54.6855 C   0  0  0  0  0  0  0  0  0  0  0  0
   27.7450    8.2900   54.6444 C   0  0  0  0  0  0  0  0  0  0  0  0
   28.5143    8.2037   55.7663 C   0  0  0  0  0  0  0  0  0  0  0  0
 58 59  1  0  0  0
 59 60  1  0  0  0
 59 57  1  0  0  0
 57 35  1  0  0  0
 35 31  1  0  0  0
 31 32  1  0  0  0
 32 33  2  0  0  0
 32  1  1  0  0  0
  1 61  1  0  0  0
 61 62  1  0  0  0
 62 63  2  0  0  0
 63 64  1  0  0  0
 64 65  2  0  0  0
 65 66  1  0  0  0
 66 67  2  0  0  0
  1  2  1  0  0  0
  2  3  1  0  0  0
  3  4  2  0  0  0
  3  6  1  0  0  0
  6  7  1  0  0  0
  7  8  1  0  0  0
  8  9  2  0  0  0
  8 11  1  0  0  0
 11 12  1  0  0  0
 12 13  1  0  0  0
 13 14  1  0  0  0
 14 15  1  0  0  0
 15 16  1  0  0  0
 16 17  2  0  0  0
 16 18  1  0  0  0
 18 19  1  0  0  0
 18 22  1  0  0  0
 22 23  1  0  0  0
 23 24  2  0  0  0
 24 25  1  0  0  0
 25 26  2  0  0  0
 26 27  1  0  0  0
 26 28  1  0  0  0
 28 29  2  0  0  0
 35 36  1  0  0  0
 36 37  2  0  0  0
 36 38  1  0  0  0
 38 40  1  0  0  0
 40 46  1  0  0  0
 46 47  1  0  0  0
 47 48  2  0  0  0
 48 49  1  0  0  0
 49 50  1  0  0  0
 50 51  2  0  0  0
 51 52  1  0  0  0
 52 53  2  0  0  0
 53 54  1  0  0  0
 54 55  2  0  0  0
 40 41  1  0  0  0
 41 42  1  0  0  0
 41 43  2  0  0  0
 67 62  1  0  0  0
 15 11  1  0  0  0
 29 23  1  0  0  0
 55 47  1  0  0  0
 55 50  1  0  0  0
 31 34  1  0  0  0
  2  5  1  0  0  0
  7 10  1  0  0  0
 19 20  1  0  0  0
 19 21  1  0  0  0
 27 30  1  0  0  0
 38 39  1  0  0  0
 49 56  1  0  0  0
 42 44  1  0  0  0
 42 45  1  0  0  0
M  END
> <minimizedAffinity>
7.73483

> <CNNscore>
0.5418076515

> <CNNaffinity>
7.0588903427

> <CNN_VS>
3.8245608807

> <CNNaffinity_variance>
0.2075501978

$$$$
[H]Oc1c([H])c([H])c(C([H])([H])[C@@]([H])(C(=O)N2C([H])([H])C([H])([H])C([H])([H])[C@@]2([H])C(=O)N([H])C([H])([H])C(=O)N([H])[C@]([H])(C(=O)N([H])[C@]([H])(C(=O)N([H])[C@]([H])(C(=O)N([H])[H])C([H])([H])c2c([H])n([H])c3c([H])c([H])c([H])c([H])c23)C([H])([H])C([H])(C([H])([H])[H])C([H])([H])[H])C([H])([H])c2c([H])c([H])c([H])c([H])c2[H])N([H])[H])c([H])c1[H]


 67 71  0  0  0  0  0  0  0  0999 V2000
   28.7625   10.0147   58.3023 C   0  0  0  0  0  0  0  0  0  0  0  0
   27.9000    9.1742   57.4535 N   0  0  0  0  0  0  0  0  0  0  0  0
   28.0142    9.0258   56.0592 C   0  0  0  0  0  0  0  0  0  0  0  0
   28.8905    9.6288   55.4205 O   0  0  0  0  0  0  0  0  0  0  0  0
   27.1235    8.6560   57.9538 H   0  0  0  0  0  0  0  0  0  0  0  0
   27.0896    8.1580   55.2651 C   0  0  0  0  0  0  0  0  0  0  0  0
   25.8343    8.9063   55.0044 N   0  0  0  0  0  0  0  0  0  0  0  0
   24.8879    8.2672   54.1188 C   0  0  0  0  0  0  0  0  0  0  0  0
   25.2213    7.1364   53.6048 O   0  0  0  0  0  0  0  0  0  0  0  0
   25.7140    9.8052   55.4617 H   0  0  0  0  0  0  0  0  0  0  0  0
   23.6005    8.8191   53.7831 C   0  0  0  0  0  0  0  0  0  0  0  0
   23.4075   10.1666   54.5841 C   0  0  0  0  0  0  0  0  0  0  0  0
   22.9895    9.6672   55.9526 C   0  0  0  0  0  0  0  0  0  0  0  0
   22.3810    8.3149   55.7106 C   0  0  0  0  0  0  0  0  0  0  0  0
   22.4300    8.1481   54.2915 N   0  0  0  0  0  0  0  0  0  0  0  0
   21.4901    7.4602   53.4644 C   0  0  0  0  0  0  0  0  0  0  0  0
   21.7047    7.4336   52.2012 O   0  0  0  0  0  0  0  0  0  0  0  0
   20.2860    6.7756   53.9314 C   0  0  0  0  0  0  0  0  0  0  0  0
   19.1147    7.5225   53.5648 N   0  0  0  0  0  0  0  0  0  0  0  0
   19.2965    8.5143   53.3640 H   0  0  0  0  0  0  0  0  0  0  0  0
   18.4123    7.4570   54.3282 H   0  0  0  0  0  0  0  0  0  0  0  0
   20.1782    5.4135   53.2068 C   0  0  0  0  0  0  0  0  0  0  0  0
   18.8013    4.8590   53.4716 C   0  0  0  0  0  0  0  0  0  0  0  0
   17.7624    5.7500   53.6669 C   0  0  0  0  0  0  0  0  0  0  0  0
   16.5166    5.2094   53.9450 C   0  0  0  0  0  0  0  0  0  0  0  0
   16.3252    3.8378   54.0215 C   0  0  0  0  0  0  0  0  0  0  0  0
   15.0402    3.3796   54.3110 O   0  0  0  0  0  0  0  0  0  0  0  0
   17.3643    2.9984   53.8235 C   0  0  0  0  0  0  0  0  0  0  0  0
   18.6400    3.5162   53.5396 C   0  0  0  0  0  0  0  0  0  0  0  0
   14.9152    2.3725   54.3697 H   0  0  0  0  0  0  0  0  0  0  0  0
   29.9153    8.6168   60.1235 N   0  0  0  0  0  0  0  0  0  0  0  0
   28.9047    9.4047   59.6157 C   0  0  0  0  0  0  0  0  0  0  0  0
   27.9198    9.6445   60.4328 O   0  0  0  0  0  0  0  0  0  0  0  0
   30.7421    8.3252   59.6124 H   0  0  0  0  0  0  0  0  0  0  0  0
   29.7995    8.1176   61.5733 C   0  0  0  0  0  0  0  0  0  0  0  0
   30.8825    8.7486   62.3038 C   0  0  0  0  0  0  0  0  0  0  0  0
   31.2809    8.1546   63.3769 O   0  0  0  0  0  0  0  0  0  0  0  0
   31.5484    9.9291   61.9358 N   0  0  0  0  0  0  0  0  0  0  0  0
   31.1873   10.4174   61.0889 H   0  0  0  0  0  0  0  0  0  0  0  0
   32.6871   10.5287   62.6015 C   0  0  0  0  0  0  0  0  0  0  0  0
   33.0227    9.8581   63.8459 C   0  0  0  0  0  0  0  0  0  0  0  0
   32.5317   10.3802   65.0956 N   0  0  0  0  0  0  0  0  0  0  0  0
   33.7359    8.8359   63.8532 O   0  0  0  0  0  0  0  0  0  0  0  0
   32.0480    9.7575   65.7417 H   0  0  0  0  0  0  0  0  0  0  0  0
   32.6677   11.3790   65.3299 H   0  0  0  0  0  0  0  0  0  0  0  0
   32.4939   12.0214   62.6924 C   0  0  0  0  0  0  0  0  0  0  0  0
   32.8412   12.8427   61.5665 C   0  0  0  0  0  0  0  0  0  0  0  0
   33.4874   12.3640   60.4336 C   0  0  0  0  0  0  0  0  0  0  0  0
   33.7399   13.3576   59.5888 N   0  0  0  0  0  0  0  0  0  0  0  0
   33.2586   14.4950   60.1620 C   0  0  0  0  0  0  0  0  0  0  0  0
   33.2782   15.8075   59.6797 C   0  0  0  0  0  0  0  0  0  0  0  0
   32.7233   16.8089   60.4492 C   0  0  0  0  0  0  0  0  0  0  0  0
   32.1694   16.5003   61.6631 C   0  0  0  0  0  0  0  0  0  0  0  0
   32.1382   15.2130   62.1622 C   0  0  0  0  0  0  0  0  0  0  0  0
   32.6959   14.2060   61.3863 C   0  0  0  0  0  0  0  0  0  0  0  0
   34.2132   13.3228   58.6576 H   0  0  0  0  0  0  0  0  0  0  0  0
   29.6137    6.6743   61.4702 C   0  0  0  0  0  0  0  0  0  0  0  0
   28.4561    4.5622   61.4524 C   0  0  0  0  0  0  0  0  0  0  0  0
   28.5655    5.9352   62.1766 C   0  0  0  0  0  0  0  0  0  0  0  0
   28.7431    5.6614   63.6263 C   0  0  0  0  0  0  0  0  0  0  0  0
   28.0320   11.3822   58.4047 C   0  0  0  0  0  0  0  0  0  0  0  0
   28.3975   12.1838   59.5691 C   0  0  0  0  0  0  0  0  0  0  0  0
   28.8539   11.6057   60.7302 C   0  0  0  0  0  0  0  0  0  0  0  0
   29.1709   12.3962   61.8416 C   0  0  0  0  0  0  0  0  0  0  0  0
   29.0387   13.7642   61.8122 C   0  0  0  0  0  0  0  0  0  0  0  0
   28.5796   14.3466   60.6424 C   0  0  0  0  0  0  0  0  0  0  0  0
   28.2794   13.5516   59.5768 C   0  0  0  0  0  0  0  0  0  0  0  0
 58 59  1  0  0  0
 59 60  1  0  0  0
 59 57  1  0  0  0
 57 35  1  0  0  0
 35 31  1  0  0  0
 31 32  1  0  0  0
 32 33  2  0  0  0
 32  1  1  0  0  0
  1 61  1  0  0  0
 61 62  1  0  0  0
 62 63  2  0  0  0
 63 64  1  0  0  0
 64 65  2  0  0  0
 65 66  1  0  0  0
 66 67  2  0  0  0
  1  2  1  0  0  0
  2  3  1  0  0  0
  3  4  2  0  0  0
  3  6  1  0  0  0
  6  7  1  0  0  0
  7  8  1  0  0  0
  8  9  2  0  0  0
  8 11  1  0  0  0
 11 12  1  0  0  0
 12 13  1  0  0  0
 13 14  1  0  0  0
 14 15  1  0  0  0
 15 16  1  0  0  0
 16 17  2  0  0  0
 16 18  1  0  0  0
 18 19  1  0  0  0
 18 22  1  0  0  0
 22 23  1  0  0  0
 23 24  2  0  0  0
 24 25  1  0  0  0
 25 26  2  0  0  0
 26 27  1  0  0  0
 26 28  1  0  0  0
 28 29  2  0  0  0
 35 36  1  0  0  0
 36 37  2  0  0  0
 36 38  1  0  0  0
 38 40  1  0  0  0
 40 46  1  0  0  0
 46 47  1  0  0  0
 47 48  2  0  0  0
 48 49  1  0  0  0
 49 50  1  0  0  0
 50 51  2  0  0  0
 51 52  1  0  0  0
 52 53  2  0  0  0
 53 54  1  0  0  0
 54 55  2  0  0  0
 40 41  1  0  0  0
 41 42  1  0  0  0
 41 43  2  0  0  0
 67 62  1  0  0  0
 15 11  1  0  0  0
 29 23  1  0  0  0
 55 47  1  0  0  0
 55 50  1  0  0  0
 31 34  1  0  0  0
  2  5  1  0  0  0
  7 10  1  0  0  0
 19 20  1  0  0  0
 19 21  1  0  0  0
 27 30  1  0  0  0
 38 39  1  0  0  0
 49 56  1  0  0  0
 42 44  1  0  0  0
 42 45  1  0  0  0
M  END
> <minimizedAffinity>
13.46109

> <CNNscore>
0.5393897295

> <CNNaffinity>
7.1818938255

> <CNN_VS>
3.8738398552

> <CNNaffinity_variance>
0.7543269992

$$$$
[H]Oc1c([H])c([H])c(C([H])([H])[C@@]([H])(C(=O)N2C([H])([H])C([H])([H])C([H])([H])[C@@]2([H])C(=O)N([H])C([H])([H])C(=O)N([H])[C@]([H])(C(=O)N([H])[C@]([H])(C(=O)N([H])[C@]([H])(C(=O)N([H])[H])C([H])([H])c2c([H])n([H])c3c([H])c([H])c([H])c([H])c23)C([H])([H])C([H])(C([H])([H])[H])C([H])([H])[H])C([H])([H])c2c([H])c([H])c([H])c([H])c2[H])N([H])[H])c([H])c1[H]


 67 71  0  0  0  0  0  0  0  0999 V2000
   27.4302    9.5182   55.9893 C   0  0  0  0  0  0  0  0  0  0  0  0
   27.9881    9.2138   57.3186 N   0  0  0  0  0  0  0  0  0  0  0  0
   28.4210   10.1615   58.2639 C   0  0  0  0  0  0  0  0  0  0  0  0
   28.3632   11.3776   58.0244 O   0  0  0  0  0  0  0  0  0  0  0  0
   28.0758    8.1860   57.5585 H   0  0  0  0  0  0  0  0  0  0  0  0
   28.9871    9.7706   59.5925 C   0  0  0  0  0  0  0  0  0  0  0  0
   29.1838   10.9944   60.4094 N   0  0  0  0  0  0  0  0  0  0  0  0
   30.0738   10.8648   61.5406 C   0  0  0  0  0  0  0  0  0  0  0  0
   30.5856    9.7069   61.7677 O   0  0  0  0  0  0  0  0  0  0  0  0
   28.6947   11.8381   60.1257 H   0  0  0  0  0  0  0  0  0  0  0  0
   30.4202   11.9512   62.4207 C   0  0  0  0  0  0  0  0  0  0  0  0
   29.1303   12.3738   63.2284 C   0  0  0  0  0  0  0  0  0  0  0  0
   28.3951   13.2397   62.2252 C   0  0  0  0  0  0  0  0  0  0  0  0
   29.4578   13.7601   61.2990 C   0  0  0  0  0  0  0  0  0  0  0  0
   30.6801   13.2388   61.8265 N   0  0  0  0  0  0  0  0  0  0  0  0
   31.9668   13.8593   61.8132 C   0  0  0  0  0  0  0  0  0  0  0  0
   32.9444   13.2318   62.3543 O   0  0  0  0  0  0  0  0  0  0  0  0
   32.2766   15.1649   61.2335 C   0  0  0  0  0  0  0  0  0  0  0  0
   33.0748   15.0072   60.0493 N   0  0  0  0  0  0  0  0  0  0  0  0
   33.5662   14.1060   59.9927 H   0  0  0  0  0  0  0  0  0  0  0  0
   33.7736   15.7752   60.0011 H   0  0  0  0  0  0  0  0  0  0  0  0
   30.9563   15.8326   60.7828 C   0  0  0  0  0  0  0  0  0  0  0  0
   30.7212   17.0308   61.6673 C   0  0  0  0  0  0  0  0  0  0  0  0
   31.8202   17.7361   62.1211 C   0  0  0  0  0  0  0  0  0  0  0  0
   31.5725   18.8098   62.9624 C   0  0  0  0  0  0  0  0  0  0  0  0
   30.2807   19.1578   63.3281 C   0  0  0  0  0  0  0  0  0  0  0  0
   30.1224   20.2489   64.1823 O   0  0  0  0  0  0  0  0  0  0  0  0
   29.2318   18.4455   62.8635 C   0  0  0  0  0  0  0  0  0  0  0  0
   29.4505   17.3512   62.0086 C   0  0  0  0  0  0  0  0  0  0  0  0
   29.1709   20.4894   64.4468 H   0  0  0  0  0  0  0  0  0  0  0  0
   25.1544    9.0530   54.8918 N   0  0  0  0  0  0  0  0  0  0  0  0
   26.0149    9.1811   55.9610 C   0  0  0  0  0  0  0  0  0  0  0  0
   25.4858    8.9696   57.1317 O   0  0  0  0  0  0  0  0  0  0  0  0
   25.4044    9.2001   53.9193 H   0  0  0  0  0  0  0  0  0  0  0  0
   23.6915    8.6683   55.1682 C   0  0  0  0  0  0  0  0  0  0  0  0
   23.2552    7.8948   54.0210 C   0  0  0  0  0  0  0  0  0  0  0  0
   24.1790    7.4251   53.2535 O   0  0  0  0  0  0  0  0  0  0  0  0
   21.9249    7.5928   53.6871 N   0  0  0  0  0  0  0  0  0  0  0  0
   21.1900    8.0137   54.2945 H   0  0  0  0  0  0  0  0  0  0  0  0
   21.4713    6.7515   52.5981 C   0  0  0  0  0  0  0  0  0  0  0  0
   20.7548    7.4974   51.5778 C   0  0  0  0  0  0  0  0  0  0  0  0
   19.3178    7.4197   51.5105 N   0  0  0  0  0  0  0  0  0  0  0  0
   21.3640    8.2042   50.7514 O   0  0  0  0  0  0  0  0  0  0  0  0
   18.7716    8.2799   51.4850 H   0  0  0  0  0  0  0  0  0  0  0  0
   18.8484    6.4975   51.4920 H   0  0  0  0  0  0  0  0  0  0  0  0
   20.7560    5.5453   53.1524 C   0  0  0  0  0  0  0  0  0  0  0  0
   19.3491    5.6307   53.4288 C   0  0  0  0  0  0  0  0  0  0  0  0
   18.6984    6.8139   53.7558 C   0  0  0  0  0  0  0  0  0  0  0  0
   17.4185    6.5806   54.0241 N   0  0  0  0  0  0  0  0  0  0  0  0
   17.2210    5.2420   53.8726 C   0  0  0  0  0  0  0  0  0  0  0  0
   16.0517    4.4937   54.0411 C   0  0  0  0  0  0  0  0  0  0  0  0
   16.0958    3.1312   53.8301 C   0  0  0  0  0  0  0  0  0  0  0  0
   17.2765    2.5418   53.4639 C   0  0  0  0  0  0  0  0  0  0  0  0
   18.4447    3.2579   53.2918 C   0  0  0  0  0  0  0  0  0  0  0  0
   18.3988    4.6291   53.5033 C   0  0  0  0  0  0  0  0  0  0  0  0
   16.6725    7.2576   54.3024 H   0  0  0  0  0  0  0  0  0  0  0  0
   23.0483    9.8977   55.6188 C   0  0  0  0  0  0  0  0  0  0  0  0
   21.9234   10.6263   53.6176 C   0  0  0  0  0  0  0  0  0  0  0  0
   21.7433   10.3575   55.1396 C   0  0  0  0  0  0  0  0  0  0  0  0
   20.5712    9.4579   55.2977 C   0  0  0  0  0  0  0  0  0  0  0  0
   28.2290    8.6310   54.9948 C   0  0  0  0  0  0  0  0  0  0  0  0
   28.1904    9.0830   53.6069 C   0  0  0  0  0  0  0  0  0  0  0  0
   29.0147   10.0840   53.1496 C   0  0  0  0  0  0  0  0  0  0  0  0
   28.9373   10.5175   51.8203 C   0  0  0  0  0  0  0  0  0  0  0  0
   28.0439    9.9638   50.9344 C   0  0  0  0  0  0  0  0  0  0  0  0
   27.2140    8.9551   51.3949 C   0  0  0  0  0  0  0  0  0  0  0  0
   27.3126    8.5537   52.6937 C   0  0  0  0  0  0  0  0  0  0  0  0
 58 59  1  0  0  0
 59 60  1  0  0  0
 59 57  1  0  0  0
 57 35  1  0  0  0
 35 31  1  0  0  0
 31 32  1  0  0  0
 32 33  2  0  0  0
 32  1  1  0  0  0
  1 61  1  0  0  0
 61 62  1  0  0  0
 62 63  2  0  0  0
 63 64  1  0  0  0
 64 65  2  0  0  0
 65 66  1  0  0  0
 66 67  2  0  0  0
  1  2  1  0  0  0
  2  3  1  0  0  0
  3  4  2  0  0  0
  3  6  1  0  0  0
  6  7  1  0  0  0
  7  8  1  0  0  0
  8  9  2  0  0  0
  8 11  1  0  0  0
 11 12  1  0  0  0
 12 13  1  0  0  0
 13 14  1  0  0  0
 14 15  1  0  0  0
 15 16  1  0  0  0
 16 17  2  0  0  0
 16 18  1  0  0  0
 18 19  1  0  0  0
 18 22  1  0  0  0
 22 23  1  0  0  0
 23 24  2  0  0  0
 24 25  1  0  0  0
 25 26  2  0  0  0
 26 27  1  0  0  0
 26 28  1  0  0  0
 28 29  2  0  0  0
 35 36  1  0  0  0
 36 37  2  0  0  0
 36 38  1  0  0  0
 38 40  1  0  0  0
 40 46  1  0  0  0
 46 47  1  0  0  0
 47 48  2  0  0  0
 48 49  1  0  0  0
 49 50  1  0  0  0
 50 51  2  0  0  0
 51 52  1  0  0  0
 52 53  2  0  0  0
 53 54  1  0  0  0
 54 55  2  0  0  0
 40 41  1  0  0  0
 41 42  1  0  0  0
 41 43  2  0  0  0
 67 62  1  0  0  0
 15 11  1  0  0  0
 29 23  1  0  0  0
 55 47  1  0  0  0
 55 50  1  0  0  0
 31 34  1  0  0  0
  2  5  1  0  0  0
  7 10  1  0  0  0
 19 20  1  0  0  0
 19 21  1  0  0  0
 27 30  1  0  0  0
 38 39  1  0  0  0
 49 56  1  0  0  0
 42 44  1  0  0  0
 42 45  1  0  0  0
M  END
> <minimizedAffinity>
24.85085

> <CNNscore>
0.5194808841

> <CNNaffinity>
7.4857435226

> <CNN_VS>
3.8887007236

> <CNNaffinity_variance>
0.8848808408

$$$$
[H]Oc1c([H])c([H])c(C([H])([H])[C@@]([H])(C(=O)N2C([H])([H])C([H])([H])C([H])([H])[C@@]2([H])C(=O)N([H])C([H])([H])C(=O)N([H])[C@]([H])(C(=O)N([H])[C@]([H])(C(=O)N([H])[C@]([H])(C(=O)N([H])[H])C([H])([H])c2c([H])n([H])c3c([H])c([H])c([H])c([H])c23)C([H])([H])C([H])(C([H])([H])[H])C([H])([H])[H])C([H])([H])c2c([H])c([H])c([H])c([H])c2[H])N([H])[H])c([H])c1[H]


 67 71  0  0  0  0  0  0  0  0999 V2000
   29.7441    6.7756   62.1821 C   0  0  0  0  0  0  0  0  0  0  0  0
   30.9425    7.2727   62.8804 N   0  0  0  0  0  0  0  0  0  0  0  0
   32.0624    7.8652   62.2688 C   0  0  0  0  0  0  0  0  0  0  0  0
   32.1184    8.0097   61.0378 O   0  0  0  0  0  0  0  0  0  0  0  0
   30.9480    7.1510   63.9324 H   0  0  0  0  0  0  0  0  0  0  0  0
   33.2486    8.3368   63.0494 C   0  0  0  0  0  0  0  0  0  0  0  0
   32.9993    9.7262   63.5088 N   0  0  0  0  0  0  0  0  0  0  0  0
   33.3554   10.7743   62.5797 C   0  0  0  0  0  0  0  0  0  0  0  0
   33.8877   10.4255   61.4621 O   0  0  0  0  0  0  0  0  0  0  0  0
   32.5937    9.8556   64.4310 H   0  0  0  0  0  0  0  0  0  0  0  0
   33.1476   12.1773   62.8309 C   0  0  0  0  0  0  0  0  0  0  0  0
   32.9009   12.3793   64.3779 C   0  0  0  0  0  0  0  0  0  0  0  0
   31.4414   11.9971   64.5208 C   0  0  0  0  0  0  0  0  0  0  0  0
   30.8365   12.2344   63.1660 C   0  0  0  0  0  0  0  0  0  0  0  0
   31.9089   12.7627   62.3818 N   0  0  0  0  0  0  0  0  0  0  0  0
   31.8242   13.7278   61.3320 C   0  0  0  0  0  0  0  0  0  0  0  0
   32.9103   14.0871   60.7542 O   0  0  0  0  0  0  0  0  0  0  0  0
   30.5956   14.3559   60.8498 C   0  0  0  0  0  0  0  0  0  0  0  0
   29.6955   14.5940   61.9441 N   0  0  0  0  0  0  0  0  0  0  0  0
   29.8809   14.0139   62.7724 H   0  0  0  0  0  0  0  0  0  0  0  0
   28.7192   14.4275   61.6285 H   0  0  0  0  0  0  0  0  0  0  0  0
   30.9458   15.7440   60.2644 C   0  0  0  0  0  0  0  0  0  0  0  0
   30.6287   16.7793   61.3137 C   0  0  0  0  0  0  0  0  0  0  0  0
   29.3246   17.2253   61.4213 C   0  0  0  0  0  0  0  0  0  0  0  0
   29.0729   18.2041   62.3702 C   0  0  0  0  0  0  0  0  0  0  0  0
   30.0849   18.7086   63.1733 C   0  0  0  0  0  0  0  0  0  0  0  0
   29.7447   19.6952   64.0986 O   0  0  0  0  0  0  0  0  0  0  0  0
   31.3469   18.2472   63.0401 C   0  0  0  0  0  0  0  0  0  0  0  0
   31.6339   17.2547   62.0867 C   0  0  0  0  0  0  0  0  0  0  0  0
   30.4969   20.0602   64.6767 H   0  0  0  0  0  0  0  0  0  0  0  0
   29.4194    8.0457   59.9727 N   0  0  0  0  0  0  0  0  0  0  0  0
   29.2121    7.8170   61.3161 C   0  0  0  0  0  0  0  0  0  0  0  0
   28.4178    8.6606   61.9098 O   0  0  0  0  0  0  0  0  0  0  0  0
   30.0208    7.4921   59.3714 H   0  0  0  0  0  0  0  0  0  0  0  0
   28.7029    9.2344   59.3109 C   0  0  0  0  0  0  0  0  0  0  0  0
   28.4155    8.8238   57.9494 C   0  0  0  0  0  0  0  0  0  0  0  0
   29.3030    8.0932   57.3650 O   0  0  0  0  0  0  0  0  0  0  0  0
   27.2526    9.1288   57.2235 N   0  0  0  0  0  0  0  0  0  0  0  0
   26.5646    9.7532   57.6958 H   0  0  0  0  0  0  0  0  0  0  0  0
   26.9067    8.6581   55.8976 C   0  0  0  0  0  0  0  0  0  0  0  0
   27.9980    8.8074   54.9502 C   0  0  0  0  0  0  0  0  0  0  0  0
   28.4643    7.6634   54.2090 N   0  0  0  0  0  0  0  0  0  0  0  0
   28.5452    9.9125   54.7687 O   0  0  0  0  0  0  0  0  0  0  0  0
   28.5459    7.7245   53.1948 H   0  0  0  0  0  0  0  0  0  0  0  0
   28.7095    6.7887   54.7049 H   0  0  0  0  0  0  0  0  0  0  0  0
   25.5865    9.2525   55.4761 C   0  0  0  0  0  0  0  0  0  0  0  0
   24.7196    8.4954   54.6169 C   0  0  0  0  0  0  0  0  0  0  0  0
   25.1656    7.5020   53.7541 C   0  0  0  0  0  0  0  0  0  0  0  0
   24.1554    7.0223   53.0372 N   0  0  0  0  0  0  0  0  0  0  0  0
   23.0390    7.6972   53.4273 C   0  0  0  0  0  0  0  0  0  0  0  0
   21.7218    7.5678   52.9757 C   0  0  0  0  0  0  0  0  0  0  0  0
   20.7462    8.3729   53.5261 C   0  0  0  0  0  0  0  0  0  0  0  0
   21.0849    9.2783   54.4962 C   0  0  0  0  0  0  0  0  0  0  0  0
   22.3778    9.4261   54.9587 C   0  0  0  0  0  0  0  0  0  0  0  0
   23.3584    8.6145   54.4048 C   0  0  0  0  0  0  0  0  0  0  0  0
   24.1662    6.2759   52.3056 H   0  0  0  0  0  0  0  0  0  0  0  0
   29.4970   10.4068   59.6616 C   0  0  0  0  0  0  0  0  0  0  0  0
   28.2256   12.3818   59.1284 C   0  0  0  0  0  0  0  0  0  0  0  0
   28.9408   11.6135   60.2771 C   0  0  0  0  0  0  0  0  0  0  0  0
   27.9637   11.4595   61.3860 C   0  0  0  0  0  0  0  0  0  0  0  0
   28.7309    6.4205   63.3053 C   0  0  0  0  0  0  0  0  0  0  0  0
   28.3447    5.0134   63.3565 C   0  0  0  0  0  0  0  0  0  0  0  0
   27.9067    4.3430   62.2387 C   0  0  0  0  0  0  0  0  0  0  0  0
   27.5158    3.0009   62.3217 C   0  0  0  0  0  0  0  0  0  0  0  0
   27.5554    2.3128   63.5110 C   0  0  0  0  0  0  0  0  0  0  0  0
   27.9971    2.9879   64.6369 C   0  0  0  0  0  0  0  0  0  0  0  0
   28.3715    4.2937   64.5252 C   0  0  0  0  0  0  0  0  0  0  0  0
 58 59  1  0  0  0
 59 60  1  0  0  0
 59 57  1  0  0  0
 57 35  1  0  0  0
 35 31  1  0  0  0
 31 32  1  0  0  0
 32 33  2  0  0  0
 32  1  1  0  0  0
  1 61  1  0  0  0
 61 62  1  0  0  0
 62 63  2  0  0  0
 63 64  1  0  0  0
 64 65  2  0  0  0
 65 66  1  0  0  0
 66 67  2  0  0  0
  1  2  1  0  0  0
  2  3  1  0  0  0
  3  4  2  0  0  0
  3  6  1  0  0  0
  6  7  1  0  0  0
  7  8  1  0  0  0
  8  9  2  0  0  0
  8 11  1  0  0  0
 11 12  1  0  0  0
 12 13  1  0  0  0
 13 14  1  0  0  0
 14 15  1  0  0  0
 15 16  1  0  0  0
 16 17  2  0  0  0
 16 18  1  0  0  0
 18 19  1  0  0  0
 18 22  1  0  0  0
 22 23  1  0  0  0
 23 24  2  0  0  0
 24 25  1  0  0  0
 25 26  2  0  0  0
 26 27  1  0  0  0
 26 28  1  0  0  0
 28 29  2  0  0  0
 35 36  1  0  0  0
 36 37  2  0  0  0
 36 38  1  0  0  0
 38 40  1  0  0  0
 40 46  1  0  0  0
 46 47  1  0  0  0
 47 48  2  0  0  0
 48 49  1  0  0  0
 49 50  1  0  0  0
 50 51  2  0  0  0
 51 52  1  0  0  0
 52 53  2  0  0  0
 53 54  1  0  0  0
 54 55  2  0  0  0
 40 41  1  0  0  0
 41 42  1  0  0  0
 41 43  2  0  0  0
 67 62  1  0  0  0
 15 11  1  0  0  0
 29 23  1  0  0  0
 55 47  1  0  0  0
 55 50  1  0  0  0
 31 34  1  0  0  0
  2  5  1  0  0  0
  7 10  1  0  0  0
 19 20  1  0  0  0
 19 21  1  0  0  0
 27 30  1  0  0  0
 38 39  1  0  0  0
 49 56  1  0  0  0
 42 44  1  0  0  0
 42 45  1  0  0  0
M  END
> <minimizedAffinity>
-1.91678

> <CNNscore>
0.4958559573

> <CNNaffinity>
7.6014924049

> <CNN_VS>
3.7692453861

> <CNNaffinity_variance>
0.7889431715

$$$$
[H]Oc1c([H])c([H])c(C([H])([H])[C@@]([H])(C(=O)N2C([H])([H])C([H])([H])C([H])([H])[C@@]2([H])C(=O)N([H])C([H])([H])C(=O)N([H])[C@]([H])(C(=O)N([H])[C@]([H])(C(=O)N([H])[C@]([H])(C(=O)N([H])[H])C([H])([H])c2c([H])n([H])c3c([H])c([H])c([H])c([H])c23)C([H])([H])C([H])(C([H])([H])[H])C([H])([H])[H])C([H])([H])c2c([H])c([H])c([H])c([H])c2[H])N([H])[H])c([H])c1[H]


 67 71  0  0  0  0  0  0  0  0999 V2000
   27.4772    9.6014   57.1663 C   0  0  0  0  0  0  0  0  0  0  0  0
   26.2367   10.3208   56.8275 N   0  0  0  0  0  0  0  0  0  0  0  0
   24.9659    9.7376   56.6720 C   0  0  0  0  0  0  0  0  0  0  0  0
   24.8003    8.5160   56.8118 O   0  0  0  0  0  0  0  0  0  0  0  0
   26.3342   11.3647   56.6781 H   0  0  0  0  0  0  0  0  0  0  0  0
   23.7528   10.5378   56.3161 C   0  0  0  0  0  0  0  0  0  0  0  0
   23.0316    9.8521   55.2146 N   0  0  0  0  0  0  0  0  0  0  0  0
   23.7557    8.7966   54.5437 C   0  0  0  0  0  0  0  0  0  0  0  0
   24.9626    8.5661   54.9236 O   0  0  0  0  0  0  0  0  0  0  0  0
   22.0851   10.1557   55.0056 H   0  0  0  0  0  0  0  0  0  0  0  0
   23.2061    7.9918   53.4830 C   0  0  0  0  0  0  0  0  0  0  0  0
   23.0162    8.9040   52.2075 C   0  0  0  0  0  0  0  0  0  0  0  0
   21.7191    9.6230   52.5197 C   0  0  0  0  0  0  0  0  0  0  0  0
   20.9868    8.7206   53.4722 C   0  0  0  0  0  0  0  0  0  0  0  0
   21.8313    7.5742   53.6015 N   0  0  0  0  0  0  0  0  0  0  0  0
   21.4301    6.2168   53.7945 C   0  0  0  0  0  0  0  0  0  0  0  0
   22.3452    5.3230   53.8730 O   0  0  0  0  0  0  0  0  0  0  0  0
   20.0517    5.7444   53.9097 C   0  0  0  0  0  0  0  0  0  0  0  0
   19.2550    6.2662   52.8338 N   0  0  0  0  0  0  0  0  0  0  0  0
   19.6498    7.1049   52.3893 H   0  0  0  0  0  0  0  0  0  0  0  0
   18.3034    6.4892   53.1877 H   0  0  0  0  0  0  0  0  0  0  0  0
   20.0407    4.2058   53.7528 C   0  0  0  0  0  0  0  0  0  0  0  0
   18.6034    3.7652   53.6376 C   0  0  0  0  0  0  0  0  0  0  0  0
   18.2985    2.7490   52.7512 C   0  0  0  0  0  0  0  0  0  0  0  0
   16.9633    2.3925   52.6412 C   0  0  0  0  0  0  0  0  0  0  0  0
   15.9824    3.0272   53.3885 C   0  0  0  0  0  0  0  0  0  0  0  0
   14.6635    2.6093   53.2121 O   0  0  0  0  0  0  0  0  0  0  0  0
   16.3189    4.0151   54.2454 C   0  0  0  0  0  0  0  0  0  0  0  0
   17.6645    4.3994   54.3793 C   0  0  0  0  0  0  0  0  0  0  0  0
   13.9542    3.0867   53.7617 H   0  0  0  0  0  0  0  0  0  0  0  0
   28.4983   11.4700   58.6035 N   0  0  0  0  0  0  0  0  0  0  0  0
   28.0717   10.1819   58.3608 C   0  0  0  0  0  0  0  0  0  0  0  0
   28.2215    9.3487   59.3500 O   0  0  0  0  0  0  0  0  0  0  0  0
   28.4667   12.2322   57.9343 H   0  0  0  0  0  0  0  0  0  0  0  0
   29.0829   11.8019   59.9865 C   0  0  0  0  0  0  0  0  0  0  0  0
   29.0742   13.2489   60.0904 C   0  0  0  0  0  0  0  0  0  0  0  0
   27.9325   13.8328   59.9542 O   0  0  0  0  0  0  0  0  0  0  0  0
   30.1881   14.0644   60.3487 N   0  0  0  0  0  0  0  0  0  0  0  0
   31.1085   13.5801   60.4158 H   0  0  0  0  0  0  0  0  0  0  0  0
   30.1882   15.5003   60.5425 C   0  0  0  0  0  0  0  0  0  0  0  0
   29.5101   15.8985   61.7641 C   0  0  0  0  0  0  0  0  0  0  0  0
   29.6918   17.2304   62.2823 N   0  0  0  0  0  0  0  0  0  0  0  0
   28.7731   15.1032   62.3789 O   0  0  0  0  0  0  0  0  0  0  0  0
   28.8736   17.7933   62.5115 H   0  0  0  0  0  0  0  0  0  0  0  0
   30.6455   17.6096   62.4157 H   0  0  0  0  0  0  0  0  0  0  0  0
   29.7221   16.1828   59.2813 C   0  0  0  0  0  0  0  0  0  0  0  0
   30.1639   17.5211   59.0045 C   0  0  0  0  0  0  0  0  0  0  0  0
   29.3420   18.5111   58.4804 C   0  0  0  0  0  0  0  0  0  0  0  0
   30.0349   19.6241   58.2663 N   0  0  0  0  0  0  0  0  0  0  0  0
   31.3164   19.3715   58.6510 C   0  0  0  0  0  0  0  0  0  0  0  0
   32.4323   20.2138   58.6244 C   0  0  0  0  0  0  0  0  0  0  0  0
   33.6444   19.7290   59.0700 C   0  0  0  0  0  0  0  0  0  0  0  0
   33.7309   18.4401   59.5251 C   0  0  0  0  0  0  0  0  0  0  0  0
   32.6445   17.5882   59.5608 C   0  0  0  0  0  0  0  0  0  0  0  0
   31.4250   18.0777   59.1132 C   0  0  0  0  0  0  0  0  0  0  0  0
   29.7060   20.5375   57.8794 H   0  0  0  0  0  0  0  0  0  0  0  0
   30.2823   10.9801   60.1052 C   0  0  0  0  0  0  0  0  0  0  0  0
   31.3310    9.2373   61.3954 C   0  0  0  0  0  0  0  0  0  0  0  0
   30.9957   10.7565   61.3643 C   0  0  0  0  0  0  0  0  0  0  0  0
   32.2612   11.4972   61.6049 C   0  0  0  0  0  0  0  0  0  0  0  0
   28.4102    9.7891   55.9381 C   0  0  0  0  0  0  0  0  0  0  0  0
   28.3594    8.7047   54.9616 C   0  0  0  0  0  0  0  0  0  0  0  0
   29.4781    7.9766   54.6313 C   0  0  0  0  0  0  0  0  0  0  0  0
   29.4072    6.9602   53.6707 C   0  0  0  0  0  0  0  0  0  0  0  0
   28.2293    6.6572   53.0302 C   0  0  0  0  0  0  0  0  0  0  0  0
   27.1024    7.3903   53.3633 C   0  0  0  0  0  0  0  0  0  0  0  0
   27.2018    8.3731   54.3024 C   0  0  0  0  0  0  0  0  0  0  0  0
 58 59  1  0  0  0
 59 60  1  0  0  0
 59 57  1  0  0  0
 57 35  1  0  0  0
 35 31  1  0  0  0
 31 32  1  0  0  0
 32 33  2  0  0  0
 32  1  1  0  0  0
  1 61  1  0  0  0
 61 62  1  0  0  0
 62 63  2  0  0  0
 63 64  1  0  0  0
 64 65  2  0  0  0
 65 66  1  0  0  0
 66 67  2  0  0  0
  1  2  1  0  0  0
  2  3  1  0  0  0
  3  4  2  0  0  0
  3  6  1  0  0  0
  6  7  1  0  0  0
  7  8  1  0  0  0
  8  9  2  0  0  0
  8 11  1  0  0  0
 11 12  1  0  0  0
 12 13  1  0  0  0
 13 14  1  0  0  0
 14 15  1  0  0  0
 15 16  1  0  0  0
 16 17  2  0  0  0
 16 18  1  0  0  0
 18 19  1  0  0  0
 18 22  1  0  0  0
 22 23  1  0  0  0
 23 24  2  0  0  0
 24 25  1  0  0  0
 25 26  2  0  0  0
 26 27  1  0  0  0
 26 28  1  0  0  0
 28 29  2  0  0  0
 35 36  1  0  0  0
 36 37  2  0  0  0
 36 38  1  0  0  0
 38 40  1  0  0  0
 40 46  1  0  0  0
 46 47  1  0  0  0
 47 48  2  0  0  0
 48 49  1  0  0  0
 49 50  1  0  0  0
 50 51  2  0  0  0
 51 52  1  0  0  0
 52 53  2  0  0  0
 53 54  1  0  0  0
 54 55  2  0  0  0
 40 41  1  0  0  0
 41 42  1  0  0  0
 41 43  2  0  0  0
 67 62  1  0  0  0
 15 11  1  0  0  0
 29 23  1  0  0  0
 55 47  1  0  0  0
 55 50  1  0  0  0
 31 34  1  0  0  0
  2  5  1  0  0  0
  7 10  1  0  0  0
 19 20  1  0  0  0
 19 21  1  0  0  0
 27 30  1  0  0  0
 38 39  1  0  0  0
 49 56  1  0  0  0
 42 44  1  0  0  0
 42 45  1  0  0  0
M  END
> <minimizedAffinity>
23.21608

> <CNNscore>
0.4902383685

> <CNNaffinity>
7.2362380028

> <CNN_VS>
3.5474815369

> <CNNaffinity_variance>
0.4839741588

$$$$
[H]/C(=C1/C(=O)N([H])c2c([H])c([H])c(N([H])S(=O)(=O)c3c([H])c([H])c(N4C([H])([H])C([H])([H])N(C([H])([H])[H])C([H])([H])C4([H])[H])c([H])c3[H])c([H])c21)c1c([H])c([H])c([H])c([H])c1[H]


 36 40  0  0  0  0  0  0  0  0999 V2000
   21.6911    7.8664   53.3257 N   0  0  0  0  0  0  0  0  0  0  0  0
   20.8307    7.3372   53.5696 H   0  0  0  0  0  0  0  0  0  0  0  0
   21.5936    9.2721   53.1699 C   0  0  0  0  0  0  0  0  0  0  0  0
   20.7570    9.9763   54.0102 C   0  0  0  0  0  0  0  0  0  0  0  0
   20.6306   11.3477   53.8961 C   0  0  0  0  0  0  0  0  0  0  0  0
   21.3547   12.0177   52.9252 C   0  0  0  0  0  0  0  0  0  0  0  0
   21.3894   13.4030   52.6206 N   0  0  0  0  0  0  0  0  0  0  0  0
   22.3016   13.6084   51.5183 C   0  0  0  0  0  0  0  0  0  0  0  0
   22.5415   14.7353   51.0181 O   0  0  0  0  0  0  0  0  0  0  0  0
   22.8246   12.3128   51.1576 C   0  0  0  0  0  0  0  0  0  0  0  0
   23.6989   12.0025   50.2385 C   0  0  0  0  0  0  0  0  0  0  0  0
   22.2051   11.3510   52.0616 C   0  0  0  0  0  0  0  0  0  0  0  0
   22.2972    9.9752   52.2164 C   0  0  0  0  0  0  0  0  0  0  0  0
   20.8700   14.1803   53.0777 H   0  0  0  0  0  0  0  0  0  0  0  0
   24.3290   12.9724   49.3853 C   0  0  0  0  0  0  0  0  0  0  0  0
   23.6213   13.9038   48.6677 C   0  0  0  0  0  0  0  0  0  0  0  0
   24.2437   14.8128   47.8430 C   0  0  0  0  0  0  0  0  0  0  0  0
   25.6107   14.8103   47.7165 C   0  0  0  0  0  0  0  0  0  0  0  0
   26.3237   13.8761   48.4368 C   0  0  0  0  0  0  0  0  0  0  0  0
   25.7079   12.9722   49.2563 C   0  0  0  0  0  0  0  0  0  0  0  0
   23.1602    6.9985   53.1315 S   0  0  0  0  0  0  0  0  0  0  0  0
   22.9441    5.5324   53.4673 O   0  0  0  0  0  0  0  0  0  0  0  0
   23.6229    7.0160   51.6993 O   0  0  0  0  0  0  0  0  0  0  0  0
   26.2428    8.8939   55.8647 C   0  0  0  0  0  0  0  0  0  0  0  0
   24.9075    9.1333   56.0243 C   0  0  0  0  0  0  0  0  0  0  0  0
   23.9526    8.5504   55.1831 C   0  0  0  0  0  0  0  0  0  0  0  0
   24.3461    7.7158   54.1679 C   0  0  0  0  0  0  0  0  0  0  0  0
   25.6842    7.4726   54.0037 C   0  0  0  0  0  0  0  0  0  0  0  0
   26.6385    8.0523   54.8409 C   0  0  0  0  0  0  0  0  0  0  0  0
   28.0373   11.6124   59.4473 C   0  0  0  0  0  0  0  0  0  0  0  0
   28.8124   10.8312   58.5344 N   0  0  0  0  0  0  0  0  0  0  0  0
   28.7762   11.3385   57.2106 C   0  0  0  0  0  0  0  0  0  0  0  0
   28.0872   10.4739   56.2077 C   0  0  0  0  0  0  0  0  0  0  0  0
   27.1943    9.4993   56.7393 N   0  0  0  0  0  0  0  0  0  0  0  0
   27.2190    9.1019   58.1224 C   0  0  0  0  0  0  0  0  0  0  0  0
   28.6001    9.4289   58.6599 C   0  0  0  0  0  0  0  0  0  0  0  0
 30 31  1  0  0  0
 31 32  1  0  0  0
 32 33  1  0  0  0
 33 34  1  0  0  0
 34 35  1  0  0  0
 35 36  1  0  0  0
 34 24  1  0  0  0
 24 25  2  0  0  0
 25 26  1  0  0  0
 26 27  2  0  0  0
 27 28  1  0  0  0
 28 29  2  0  0  0
 27 21  1  0  0  0
 21 22  2  0  0  0
 21 23  2  0  0  0
 21  1  1  0  0  0
  1  3  1  0  0  0
  3  4  2  0  0  0
  4  5  1  0  0  0
  5  6  2  0  0  0
  6  7  1  0  0  0
  7  8  1  0  0  0
  8  9  2  0  0  0
  8 10  1  0  0  0
 10 11  2  0  0  0
 11 15  1  0  0  0
 15 16  2  0  0  0
 16 17  1  0  0  0
 17 18  2  0  0  0
 18 19  1  0  0  0
 19 20  2  0  0  0
 10 12  1  0  0  0
 12 13  2  0  0  0
 36 31  1  0  0  0
 29 24  1  0  0  0
 13  3  1  0  0  0
 12  6  1  0  0  0
 20 15  1  0  0  0
  1  2  1  0  0  0
  7 14  1  0  0  0
M  END
> <minimizedAffinity>
60.07892

> <CNNscore>
0.5304342508

> <CNNaffinity>
6.2364244461

> <CNN_VS>
3.3080132008

> <CNNaffinity_variance>
1.2055342197

$$$$
[H]/C(=C1/C(=O)N([H])c2c([H])c([H])c(N([H])S(=O)(=O)c3c([H])c([H])c(N4C([H])([H])C([H])([H])N(C([H])([H])[H])C([H])([H])C4([H])[H])c([H])c3[H])c([H])c21)c1c([H])c([H])c([H])c([H])c1[H]


 36 40  0  0  0  0  0  0  0  0999 V2000
   26.1810    7.0054   52.5685 N   0  0  0  0  0  0  0  0  0  0  0  0
   26.0481    6.1554   51.9857 H   0  0  0  0  0  0  0  0  0  0  0  0
   25.0563    7.5353   53.2497 C   0  0  0  0  0  0  0  0  0  0  0  0
   25.1868    8.7395   53.9091 C   0  0  0  0  0  0  0  0  0  0  0  0
   24.1176    9.2951   54.5858 C   0  0  0  0  0  0  0  0  0  0  0  0
   22.9033    8.6309   54.5985 C   0  0  0  0  0  0  0  0  0  0  0  0
   21.6802    8.9986   55.2165 N   0  0  0  0  0  0  0  0  0  0  0  0
   20.6998    7.9725   54.9417 C   0  0  0  0  0  0  0  0  0  0  0  0
   19.5166    8.0145   55.3610 O   0  0  0  0  0  0  0  0  0  0  0  0
   21.3550    6.9685   54.1386 C   0  0  0  0  0  0  0  0  0  0  0  0
   20.8651    5.8708   53.6285 C   0  0  0  0  0  0  0  0  0  0  0  0
   22.7283    7.4213   53.9506 C   0  0  0  0  0  0  0  0  0  0  0  0
   23.8315    6.9053   53.2859 C   0  0  0  0  0  0  0  0  0  0  0  0
   21.4685    9.8469   55.7809 H   0  0  0  0  0  0  0  0  0  0  0  0
   19.4964    5.4639   53.7915 C   0  0  0  0  0  0  0  0  0  0  0  0
   19.1342    4.1771   54.1018 C   0  0  0  0  0  0  0  0  0  0  0  0
   17.8161    3.8049   54.2365 C   0  0  0  0  0  0  0  0  0  0  0  0
   16.8148    4.7276   54.0616 C   0  0  0  0  0  0  0  0  0  0  0  0
   17.1761    6.0209   53.7505 C   0  0  0  0  0  0  0  0  0  0  0  0
   18.4843    6.3929   53.6159 C   0  0  0  0  0  0  0  0  0  0  0  0
   27.7490    7.6995   52.6607 S   0  0  0  0  0  0  0  0  0  0  0  0
   28.8043    6.6106   52.5622 O   0  0  0  0  0  0  0  0  0  0  0  0
   28.0126    8.6172   51.4972 O   0  0  0  0  0  0  0  0  0  0  0  0
   28.0699    9.9781   56.5685 C   0  0  0  0  0  0  0  0  0  0  0  0
   28.4878   10.5261   55.3891 C   0  0  0  0  0  0  0  0  0  0  0  0
   28.3906    9.8264   54.1807 C   0  0  0  0  0  0  0  0  0  0  0  0
   27.8662    8.5589   54.1583 C   0  0  0  0  0  0  0  0  0  0  0  0
   27.4458    8.0049   55.3386 C   0  0  0  0  0  0  0  0  0  0  0  0
   27.5414    8.7001   56.5449 C   0  0  0  0  0  0  0  0  0  0  0  0
   29.5568   13.3204   59.7408 C   0  0  0  0  0  0  0  0  0  0  0  0
   28.6131   12.2819   60.0154 N   0  0  0  0  0  0  0  0  0  0  0  0
   29.2023   10.9920   60.0174 C   0  0  0  0  0  0  0  0  0  0  0  0
   28.7645   10.0816   58.9185 C   0  0  0  0  0  0  0  0  0  0  0  0
   28.1780   10.7157   57.7855 N   0  0  0  0  0  0  0  0  0  0  0  0
   27.6890   12.0687   57.8245 C   0  0  0  0  0  0  0  0  0  0  0  0
   27.4015   12.4016   59.2770 C   0  0  0  0  0  0  0  0  0  0  0  0
 30 31  1  0  0  0
 31 32  1  0  0  0
 32 33  1  0  0  0
 33 34  1  0  0  0
 34 35  1  0  0  0
 35 36  1  0  0  0
 34 24  1  0  0  0
 24 25  2  0  0  0
 25 26  1  0  0  0
 26 27  2  0  0  0
 27 28  1  0  0  0
 28 29  2  0  0  0
 27 21  1  0  0  0
 21 22  2  0  0  0
 21 23  2  0  0  0
 21  1  1  0  0  0
  1  3  1  0  0  0
  3  4  2  0  0  0
  4  5  1  0  0  0
  5  6  2  0  0  0
  6  7  1  0  0  0
  7  8  1  0  0  0
  8  9  2  0  0  0
  8 10  1  0  0  0
 10 11  2  0  0  0
 11 15  1  0  0  0
 15 16  2  0  0  0
 16 17  1  0  0  0
 17 18  2  0  0  0
 18 19  1  0  0  0
 19 20  2  0  0  0
 10 12  1  0  0  0
 12 13  2  0  0  0
 36 31  1  0  0  0
 29 24  1  0  0  0
 13  3  1  0  0  0
 12  6  1  0  0  0
 20 15  1  0  0  0
  1  2  1  0  0  0
  7 14  1  0  0  0
M  END
> <minimizedAffinity>
44.94843

> <CNNscore>
0.5277010798

> <CNNaffinity>
6.0641031265

> <CNN_VS>
3.2000336647

> <CNNaffinity_variance>
0.6441530585

$$$$
[H]/C(=C1/C(=O)N([H])c2c([H])c([H])c(N([H])S(=O)(=O)c3c([H])c([H])c(N4C([H])([H])C([H])([H])N(C([H])([H])[H])C([H])([H])C4([H])[H])c([H])c3[H])c([H])c21)c1c([H])c([H])c([H])c([H])c1[H]


 36 40  0  0  0  0  0  0  0  0999 V2000
   29.2038    6.5130   53.6636 N   0  0  0  0  0  0  0  0  0  0  0  0
   30.1910    6.2355   53.8313 H   0  0  0  0  0  0  0  0  0  0  0  0
   28.6303    7.4978   54.5068 C   0  0  0  0  0  0  0  0  0  0  0  0
   29.4342    8.1270   55.4340 C   0  0  0  0  0  0  0  0  0  0  0  0
   28.9193    9.0940   56.2764 C   0  0  0  0  0  0  0  0  0  0  0  0
   27.5801    9.4313   56.1842 C   0  0  0  0  0  0  0  0  0  0  0  0
   26.8351   10.3800   56.9311 N   0  0  0  0  0  0  0  0  0  0  0  0
   25.4684   10.3644   56.4606 C   0  0  0  0  0  0  0  0  0  0  0  0
   24.5643   11.0969   56.9335 O   0  0  0  0  0  0  0  0  0  0  0  0
   25.3975    9.3824   55.4057 C   0  0  0  0  0  0  0  0  0  0  0  0
   24.3778    9.0376   54.6663 C   0  0  0  0  0  0  0  0  0  0  0  0
   26.7382    8.8255   55.2689 C   0  0  0  0  0  0  0  0  0  0  0  0
   27.3027    7.8615   54.4461 C   0  0  0  0  0  0  0  0  0  0  0  0
   27.1632   11.0052   57.6956 H   0  0  0  0  0  0  0  0  0  0  0  0
   23.0740    9.6295   54.7899 C   0  0  0  0  0  0  0  0  0  0  0  0
   22.3188    9.5346   55.9318 C   0  0  0  0  0  0  0  0  0  0  0  0
   21.0649   10.0945   56.0231 C   0  0  0  0  0  0  0  0  0  0  0  0
   20.5305   10.7735   54.9564 C   0  0  0  0  0  0  0  0  0  0  0  0
   21.2875   10.8707   53.8085 C   0  0  0  0  0  0  0  0  0  0  0  0
   22.5328   10.3153   53.7153 C   0  0  0  0  0  0  0  0  0  0  0  0
   28.3466    5.7586   52.3809 S   0  0  0  0  0  0  0  0  0  0  0  0
   28.8662    6.2613   51.0443 O   0  0  0  0  0  0  0  0  0  0  0  0
   28.5784    4.2715   52.3654 O   0  0  0  0  0  0  0  0  0  0  0  0
   23.9325    6.6593   52.9005 C   0  0  0  0  0  0  0  0  0  0  0  0
   24.3924    5.3753   52.8245 C   0  0  0  0  0  0  0  0  0  0  0  0
   25.7539    5.0928   52.6642 C   0  0  0  0  0  0  0  0  0  0  0  0
   26.6648    6.1151   52.5791 C   0  0  0  0  0  0  0  0  0  0  0  0
   26.2084    7.4046   52.6548 C   0  0  0  0  0  0  0  0  0  0  0  0
   24.8516    7.6893   52.8147 C   0  0  0  0  0  0  0  0  0  0  0  0
   19.1596    5.8764   53.1287 C   0  0  0  0  0  0  0  0  0  0  0  0
   19.7984    7.1445   53.2967 N   0  0  0  0  0  0  0  0  0  0  0  0
   20.3799    7.6287   52.0973 C   0  0  0  0  0  0  0  0  0  0  0  0
   21.8703    7.7122   52.0916 C   0  0  0  0  0  0  0  0  0  0  0  0
   22.5389    6.9181   53.0673 N   0  0  0  0  0  0  0  0  0  0  0  0
   21.8624    6.3714   54.2140 C   0  0  0  0  0  0  0  0  0  0  0  0
   20.6260    7.2183   54.4530 C   0  0  0  0  0  0  0  0  0  0  0  0
 30 31  1  0  0  0
 31 32  1  0  0  0
 32 33  1  0  0  0
 33 34  1  0  0  0
 34 35  1  0  0  0
 35 36  1  0  0  0
 34 24  1  0  0  0
 24 25  2  0  0  0
 25 26  1  0  0  0
 26 27  2  0  0  0
 27 28  1  0  0  0
 28 29  2  0  0  0
 27 21  1  0  0  0
 21 22  2  0  0  0
 21 23  2  0  0  0
 21  1  1  0  0  0
  1  3  1  0  0  0
  3  4  2  0  0  0
  4  5  1  0  0  0
  5  6  2  0  0  0
  6  7  1  0  0  0
  7  8  1  0  0  0
  8  9  2  0  0  0
  8 10  1  0  0  0
 10 11  2  0  0  0
 11 15  1  0  0  0
 15 16  2  0  0  0
 16 17  1  0  0  0
 17 18  2  0  0  0
 18 19  1  0  0  0
 19 20  2  0  0  0
 10 12  1  0  0  0
 12 13  2  0  0  0
 36 31  1  0  0  0
 29 24  1  0  0  0
 13  3  1  0  0  0
 12  6  1  0  0  0
 20 15  1  0  0  0
  1  2  1  0  0  0
  7 14  1  0  0  0
M  END
> <minimizedAffinity>
60.24358

> <CNNscore>
0.5240566730

> <CNNaffinity>
6.2947740555

> <CNN_VS>
3.2988183498

> <CNNaffinity_variance>
1.4090042114

$$$$
[H]/C(=C1/C(=O)N([H])c2c([H])c([H])c(N([H])S(=O)(=O)c3c([H])c([H])c(N4C([H])([H])C([H])([H])N(C([H])([H])[H])C([H])([H])C4([H])[H])c([H])c3[H])c([H])c21)c1c([H])c([H])c([H])c([H])c1[H]


 36 40  0  0  0  0  0  0  0  0999 V2000
   21.4074    9.5339   52.6070 N   0  0  0  0  0  0  0  0  0  0  0  0
   21.2122    9.8838   51.6482 H   0  0  0  0  0  0  0  0  0  0  0  0
   21.4903    8.1328   52.8068 C   0  0  0  0  0  0  0  0  0  0  0  0
   22.7357    7.5430   52.8616 C   0  0  0  0  0  0  0  0  0  0  0  0
   22.8654    6.1809   53.0556 C   0  0  0  0  0  0  0  0  0  0  0  0
   21.7286    5.4040   53.1963 C   0  0  0  0  0  0  0  0  0  0  0  0
   21.6115    4.0050   53.4016 N   0  0  0  0  0  0  0  0  0  0  0  0
   20.2081    3.6685   53.4844 C   0  0  0  0  0  0  0  0  0  0  0  0
   19.7851    2.4991   53.6603 O   0  0  0  0  0  0  0  0  0  0  0  0
   19.4703    4.8984   53.3256 C   0  0  0  0  0  0  0  0  0  0  0  0
   18.1798    5.0963   53.3550 C   0  0  0  0  0  0  0  0  0  0  0  0
   20.4603    5.9541   53.1478 C   0  0  0  0  0  0  0  0  0  0  0  0
   20.3831    7.3254   52.9510 C   0  0  0  0  0  0  0  0  0  0  0  0
   22.3691    3.2966   53.4858 H   0  0  0  0  0  0  0  0  0  0  0  0
   17.2226    4.0467   53.5733 C   0  0  0  0  0  0  0  0  0  0  0  0
   17.0386    3.0117   52.6911 C   0  0  0  0  0  0  0  0  0  0  0  0
   16.1040    2.0258   52.9113 C   0  0  0  0  0  0  0  0  0  0  0  0
   15.3204    2.0538   54.0381 C   0  0  0  0  0  0  0  0  0  0  0  0
   15.5038    3.0920   54.9260 C   0  0  0  0  0  0  0  0  0  0  0  0
   16.4311    4.0725   54.7095 C   0  0  0  0  0  0  0  0  0  0  0  0
   21.6143   10.6778   53.8711 S   0  0  0  0  0  0  0  0  0  0  0  0
   21.6711   12.0825   53.2945 O   0  0  0  0  0  0  0  0  0  0  0  0
   20.4370   10.6786   54.8089 O   0  0  0  0  0  0  0  0  0  0  0  0
   25.4259    9.6665   56.1103 C   0  0  0  0  0  0  0  0  0  0  0  0
   24.5743   10.6364   56.5573 C   0  0  0  0  0  0  0  0  0  0  0  0
   23.3968   10.9518   55.8693 C   0  0  0  0  0  0  0  0  0  0  0  0
   23.0716   10.2827   54.7166 C   0  0  0  0  0  0  0  0  0  0  0  0
   23.9225    9.3091   54.2643 C   0  0  0  0  0  0  0  0  0  0  0  0
   25.0972    8.9925   54.9481 C   0  0  0  0  0  0  0  0  0  0  0  0
   29.2769   10.2704   58.9826 C   0  0  0  0  0  0  0  0  0  0  0  0
   28.9418    9.0642   58.2919 N   0  0  0  0  0  0  0  0  0  0  0  0
   29.0822    9.1804   56.8856 C   0  0  0  0  0  0  0  0  0  0  0  0
   27.8134    9.1050   56.1027 C   0  0  0  0  0  0  0  0  0  0  0  0
   26.6183    9.3635   56.8337 N   0  0  0  0  0  0  0  0  0  0  0  0
   26.5690    9.3272   58.2717 C   0  0  0  0  0  0  0  0  0  0  0  0
   27.7289    8.4678   58.7400 C   0  0  0  0  0  0  0  0  0  0  0  0
 30 31  1  0  0  0
 31 32  1  0  0  0
 32 33  1  0  0  0
 33 34  1  0  0  0
 34 35  1  0  0  0
 35 36  1  0  0  0
 34 24  1  0  0  0
 24 25  2  0  0  0
 25 26  1  0  0  0
 26 27  2  0  0  0
 27 28  1  0  0  0
 28 29  2  0  0  0
 27 21  1  0  0  0
 21 22  2  0  0  0
 21 23  2  0  0  0
 21  1  1  0  0  0
  1  3  1  0  0  0
  3  4  2  0  0  0
  4  5  1  0  0  0
  5  6  2  0  0  0
  6  7  1  0  0  0
  7  8  1  0  0  0
  8  9  2  0  0  0
  8 10  1  0  0  0
 10 11  2  0  0  0
 11 15  1  0  0  0
 15 16  2  0  0  0
 16 17  1  0  0  0
 17 18  2  0  0  0
 18 19  1  0  0  0
 19 20  2  0  0  0
 10 12  1  0  0  0
 12 13  2  0  0  0
 36 31  1  0  0  0
 29 24  1  0  0  0
 13  3  1  0  0  0
 12  6  1  0  0  0
 20 15  1  0  0  0
  1  2  1  0  0  0
  7 14  1  0  0  0
M  END
> <minimizedAffinity>
53.76928

> <CNNscore>
0.4906789958

> <CNNaffinity>
6.4675550461

> <CNN_VS>
3.1734933853

> <CNNaffinity_variance>
0.5048162341

$$$$
[H]/C(=C1/C(=O)N([H])c2c([H])c([H])c(N([H])S(=O)(=O)c3c([H])c([H])c(N4C([H])([H])C([H])([H])N(C([H])([H])[H])C([H])([H])C4([H])[H])c([H])c3[H])c([H])c21)c1c([H])c([H])c([H])c([H])c1[H]


 36 40  0  0  0  0  0  0  0  0999 V2000
   19.9203    9.1750   54.5576 N   0  0  0  0  0  0  0  0  0  0  0  0
   18.9019    8.9758   54.5038 H   0  0  0  0  0  0  0  0  0  0  0  0
   20.8229    8.1961   54.0707 C   0  0  0  0  0  0  0  0  0  0  0  0
   20.3135    7.0698   53.4594 C   0  0  0  0  0  0  0  0  0  0  0  0
   21.1549    6.0894   52.9686 C   0  0  0  0  0  0  0  0  0  0  0  0
   22.5245    6.2450   53.0947 C   0  0  0  0  0  0  0  0  0  0  0  0
   23.5726    5.3858   52.6747 N   0  0  0  0  0  0  0  0  0  0  0  0
   24.8350    5.9907   53.0353 C   0  0  0  0  0  0  0  0  0  0  0  0
   25.9494    5.4629   52.7968 O   0  0  0  0  0  0  0  0  0  0  0  0
   24.5314    7.2426   53.6855 C   0  0  0  0  0  0  0  0  0  0  0  0
   25.3472    8.1455   54.1593 C   0  0  0  0  0  0  0  0  0  0  0  0
   23.0779    7.3585   53.7007 C   0  0  0  0  0  0  0  0  0  0  0  0
   22.1916    8.3139   54.1768 C   0  0  0  0  0  0  0  0  0  0  0  0
   23.5031    4.4687   52.1878 H   0  0  0  0  0  0  0  0  0  0  0  0
   26.7784    8.0304   54.0967 C   0  0  0  0  0  0  0  0  0  0  0  0
   27.4308    6.8239   54.1424 C   0  0  0  0  0  0  0  0  0  0  0  0
   28.8037    6.7373   54.0981 C   0  0  0  0  0  0  0  0  0  0  0  0
   29.5665    7.8749   54.0050 C   0  0  0  0  0  0  0  0  0  0  0  0
   28.9134    9.0878   53.9584 C   0  0  0  0  0  0  0  0  0  0  0  0
   27.5503    9.1765   54.0024 C   0  0  0  0  0  0  0  0  0  0  0  0
   20.4289   10.6711   55.2301 S   0  0  0  0  0  0  0  0  0  0  0  0
   20.2616   11.7824   54.2074 O   0  0  0  0  0  0  0  0  0  0  0  0
   19.5665   11.0697   56.3975 O   0  0  0  0  0  0  0  0  0  0  0  0
   24.7499   10.2083   56.5266 C   0  0  0  0  0  0  0  0  0  0  0  0
   23.7680    9.3978   57.0213 C   0  0  0  0  0  0  0  0  0  0  0  0
   22.4331    9.5370   56.6239 C   0  0  0  0  0  0  0  0  0  0  0  0
   22.0812   10.5044   55.7170 C   0  0  0  0  0  0  0  0  0  0  0  0
   23.0624   11.3199   55.2179 C   0  0  0  0  0  0  0  0  0  0  0  0
   24.3941   11.1833   55.6122 C   0  0  0  0  0  0  0  0  0  0  0  0
   28.5500    9.5214   59.4476 C   0  0  0  0  0  0  0  0  0  0  0  0
   28.6205    9.7335   58.0353 N   0  0  0  0  0  0  0  0  0  0  0  0
   28.2453   11.0483   57.6589 C   0  0  0  0  0  0  0  0  0  0  0  0
   26.9865   11.1567   56.8640 C   0  0  0  0  0  0  0  0  0  0  0  0
   26.1035   10.0418   56.9471 N   0  0  0  0  0  0  0  0  0  0  0  0
   26.5267    8.7558   57.4356 C   0  0  0  0  0  0  0  0  0  0  0  0
   28.0337    8.6855   57.2706 C   0  0  0  0  0  0  0  0  0  0  0  0
 30 31  1  0  0  0
 31 32  1  0  0  0
 32 33  1  0  0  0
 33 34  1  0  0  0
 34 35  1  0  0  0
 35 36  1  0  0  0
 34 24  1  0  0  0
 24 25  2  0  0  0
 25 26  1  0  0  0
 26 27  2  0  0  0
 27 28  1  0  0  0
 28 29  2  0  0  0
 27 21  1  0  0  0
 21 22  2  0  0  0
 21 23  2  0  0  0
 21  1  1  0  0  0
  1  3  1  0  0  0
  3  4  2  0  0  0
  4  5  1  0  0  0
  5  6  2  0  0  0
  6  7  1  0  0  0
  7  8  1  0  0  0
  8  9  2  0  0  0
  8 10  1  0  0  0
 10 11  2  0  0  0
 11 15  1  0  0  0
 15 16  2  0  0  0
 16 17  1  0  0  0
 17 18  2  0  0  0
 18 19  1  0  0  0
 19 20  2  0  0  0
 10 12  1  0  0  0
 12 13  2  0  0  0
 36 31  1  0  0  0
 29 24  1  0  0  0
 13  3  1  0  0  0
 12  6  1  0  0  0
 20 15  1  0  0  0
  1  2  1  0  0  0
  7 14  1  0  0  0
M  END
> <minimizedAffinity>
54.83292

> <CNNscore>
0.4660920799

> <CNNaffinity>
6.4550828934

> <CNN_VS>
3.0086629391

> <CNNaffinity_variance>
1.4148943424

$$$$
[H]/C(=C1/C(=O)N([H])c2c([H])c([H])c(N([H])S(=O)(=O)c3c([H])c([H])c(N4C([H])([H])C([H])([H])N(C([H])([H])[H])C([H])([H])C4([H])[H])c([H])c3[H])c([H])c21)c1c([H])c([H])c([H])c([H])c1[H]


 36 40  0  0  0  0  0  0  0  0999 V2000
   28.3647    9.3483   55.5293 N   0  0  0  0  0  0  0  0  0  0  0  0
   29.2750    9.5473   55.9891 H   0  0  0  0  0  0  0  0  0  0  0  0
   28.3727    8.9416   54.1712 C   0  0  0  0  0  0  0  0  0  0  0  0
   28.4723    7.5969   53.8820 C   0  0  0  0  0  0  0  0  0  0  0  0
   28.4831    7.1537   52.5731 C   0  0  0  0  0  0  0  0  0  0  0  0
   28.3925    8.0747   51.5439 C   0  0  0  0  0  0  0  0  0  0  0  0
   28.3837    7.8622   50.1411 N   0  0  0  0  0  0  0  0  0  0  0  0
   28.2722    9.1443   49.4828 C   0  0  0  0  0  0  0  0  0  0  0  0
   28.2427    9.2821   48.2347 O   0  0  0  0  0  0  0  0  0  0  0  0
   28.2118   10.1460   50.5196 C   0  0  0  0  0  0  0  0  0  0  0  0
   28.0828   11.4409   50.4096 C   0  0  0  0  0  0  0  0  0  0  0  0
   28.2911    9.4324   51.7887 C   0  0  0  0  0  0  0  0  0  0  0  0
   28.2846    9.8267   53.1189 C   0  0  0  0  0  0  0  0  0  0  0  0
   28.4442    6.9626   49.6214 H   0  0  0  0  0  0  0  0  0  0  0  0
   27.9645   12.1205   49.1488 C   0  0  0  0  0  0  0  0  0  0  0  0
   26.9011   12.9298   48.8364 C   0  0  0  0  0  0  0  0  0  0  0  0
   26.7991   13.5579   47.6160 C   0  0  0  0  0  0  0  0  0  0  0  0
   27.7752   13.3876   46.6659 C   0  0  0  0  0  0  0  0  0  0  0  0
   28.8446   12.5757   46.9777 C   0  0  0  0  0  0  0  0  0  0  0  0
   28.9481   11.9507   48.1887 C   0  0  0  0  0  0  0  0  0  0  0  0
   26.9252    9.5271   56.4487 S   0  0  0  0  0  0  0  0  0  0  0  0
   27.0170    8.7008   57.7207 O   0  0  0  0  0  0  0  0  0  0  0  0
   26.7403   10.9483   56.9084 O   0  0  0  0  0  0  0  0  0  0  0  0
   23.4177    8.2161   53.8905 C   0  0  0  0  0  0  0  0  0  0  0  0
   23.2324    8.7288   55.1430 C   0  0  0  0  0  0  0  0  0  0  0  0
   24.3121    9.1347   55.9359 C   0  0  0  0  0  0  0  0  0  0  0  0
   25.5951    9.0234   55.4629 C   0  0  0  0  0  0  0  0  0  0  0  0
   25.7861    8.5097   54.2074 C   0  0  0  0  0  0  0  0  0  0  0  0
   24.7116    8.1043   53.4145 C   0  0  0  0  0  0  0  0  0  0  0  0
   18.9214    8.1198   52.0965 C   0  0  0  0  0  0  0  0  0  0  0  0
   19.9731    7.2190   51.7403 N   0  0  0  0  0  0  0  0  0  0  0  0
   20.3313    6.3477   52.8003 C   0  0  0  0  0  0  0  0  0  0  0  0
   21.6986    6.5476   53.3648 C   0  0  0  0  0  0  0  0  0  0  0  0
   22.2981    7.8131   53.1026 N   0  0  0  0  0  0  0  0  0  0  0  0
   21.8188    8.6964   52.0723 C   0  0  0  0  0  0  0  0  0  0  0  0
   21.0602    7.8473   51.0689 C   0  0  0  0  0  0  0  0  0  0  0  0
 30 31  1  0  0  0
 31 32  1  0  0  0
 32 33  1  0  0  0
 33 34  1  0  0  0
 34 35  1  0  0  0
 35 36  1  0  0  0
 34 24  1  0  0  0
 24 25  2  0  0  0
 25 26  1  0  0  0
 26 27  2  0  0  0
 27 28  1  0  0  0
 28 29  2  0  0  0
 27 21  1  0  0  0
 21 22  2  0  0  0
 21 23  2  0  0  0
 21  1  1  0  0  0
  1  3  1  0  0  0
  3  4  2  0  0  0
  4  5  1  0  0  0
  5  6  2  0  0  0
  6  7  1  0  0  0
  7  8  1  0  0  0
  8  9  2  0  0  0
  8 10  1  0  0  0
 10 11  2  0  0  0
 11 15  1  0  0  0
 15 16  2  0  0  0
 16 17  1  0  0  0
 17 18  2  0  0  0
 18 19  1  0  0  0
 19 20  2  0  0  0
 10 12  1  0  0  0
 12 13  2  0  0  0
 36 31  1  0  0  0
 29 24  1  0  0  0
 13  3  1  0  0  0
 12  6  1  0  0  0
 20 15  1  0  0  0
  1  2  1  0  0  0
  7 14  1  0  0  0
M  END
> <minimizedAffinity>
55.13725

> <CNNscore>
0.4448287785

> <CNNaffinity>
6.1213402748

> <CNN_VS>
2.7229483128

> <CNNaffinity_variance>
0.6160513163

$$$$
[H]/C(=C1/C(=O)N([H])c2c([H])c([H])c(N([H])S(=O)(=O)c3c([H])c([H])c(N4C([H])([H])C([H])([H])N(C([H])([H])[H])C([H])([H])C4([H])[H])c([H])c3[H])c([H])c21)c1c([H])c([H])c([H])c([H])c1[H]


 36 40  0  0  0  0  0  0  0  0999 V2000
   25.2384    8.6527   56.4694 N   0  0  0  0  0  0  0  0  0  0  0  0
   24.8549    8.5518   57.4298 H   0  0  0  0  0  0  0  0  0  0  0  0
   24.3417    8.5620   55.3750 C   0  0  0  0  0  0  0  0  0  0  0  0
   24.0029    7.3137   54.8968 C   0  0  0  0  0  0  0  0  0  0  0  0
   23.1318    7.1762   53.8327 C   0  0  0  0  0  0  0  0  0  0  0  0
   22.5959    8.3083   53.2437 C   0  0  0  0  0  0  0  0  0  0  0  0
   21.6934    8.4174   52.1543 N   0  0  0  0  0  0  0  0  0  0  0  0
   21.4324    9.8184   51.9124 C   0  0  0  0  0  0  0  0  0  0  0  0
   20.6707   10.2347   51.0046 O   0  0  0  0  0  0  0  0  0  0  0  0
   22.1979   10.5630   52.8829 C   0  0  0  0  0  0  0  0  0  0  0  0
   22.2611   11.8539   53.0697 C   0  0  0  0  0  0  0  0  0  0  0  0
   22.9086    9.5793   53.6912 C   0  0  0  0  0  0  0  0  0  0  0  0
   23.7872    9.6642   54.7617 C   0  0  0  0  0  0  0  0  0  0  0  0
   21.2624    7.6560   51.5909 H   0  0  0  0  0  0  0  0  0  0  0  0
   21.5193   12.8044   52.2875 C   0  0  0  0  0  0  0  0  0  0  0  0
   20.7520   13.7936   52.8496 C   0  0  0  0  0  0  0  0  0  0  0  0
   20.0357   14.6832   52.0817 C   0  0  0  0  0  0  0  0  0  0  0  0
   20.0725   14.6016   50.7118 C   0  0  0  0  0  0  0  0  0  0  0  0
   20.8429   13.6091   50.1450 C   0  0  0  0  0  0  0  0  0  0  0  0
   21.5550   12.7243   50.9053 C   0  0  0  0  0  0  0  0  0  0  0  0
   26.9244    8.9214   56.2836 S   0  0  0  0  0  0  0  0  0  0  0  0
   27.3266   10.2020   56.9959 O   0  0  0  0  0  0  0  0  0  0  0  0
   27.7295    7.8309   56.9380 O   0  0  0  0  0  0  0  0  0  0  0  0
   27.8559    9.1609   51.8519 C   0  0  0  0  0  0  0  0  0  0  0  0
   28.6756    9.7327   52.7830 C   0  0  0  0  0  0  0  0  0  0  0  0
   28.3920    9.6611   54.1518 C   0  0  0  0  0  0  0  0  0  0  0  0
   27.2690    9.0059   54.5898 C   0  0  0  0  0  0  0  0  0  0  0  0
   26.4438    8.4309   53.6598 C   0  0  0  0  0  0  0  0  0  0  0  0
   26.7240    8.5005   52.2944 C   0  0  0  0  0  0  0  0  0  0  0  0
   27.2585    9.1583   47.0468 C   0  0  0  0  0  0  0  0  0  0  0  0
   28.5064    9.3246   47.7247 N   0  0  0  0  0  0  0  0  0  0  0  0
   28.9328    8.1447   48.3858 C   0  0  0  0  0  0  0  0  0  0  0  0
   28.9605    8.2155   49.8766 C   0  0  0  0  0  0  0  0  0  0  0  0
   28.1713    9.2466   50.4626 N   0  0  0  0  0  0  0  0  0  0  0  0
   27.6844   10.3707   49.7070 C   0  0  0  0  0  0  0  0  0  0  0  0
   28.5835   10.5205   48.4936 C   0  0  0  0  0  0  0  0  0  0  0  0
 30 31  1  0  0  0
 31 32  1  0  0  0
 32 33  1  0  0  0
 33 34  1  0  0  0
 34 35  1  0  0  0
 35 36  1  0  0  0
 34 24  1  0  0  0
 24 25  2  0  0  0
 25 26  1  0  0  0
 26 27  2  0  0  0
 27 28  1  0  0  0
 28 29  2  0  0  0
 27 21  1  0  0  0
 21 22  2  0  0  0
 21 23  2  0  0  0
 21  1  1  0  0  0
  1  3  1  0  0  0
  3  4  2  0  0  0
  4  5  1  0  0  0
  5  6  2  0  0  0
  6  7  1  0  0  0
  7  8  1  0  0  0
  8  9  2  0  0  0
  8 10  1  0  0  0
 10 11  2  0  0  0
 11 15  1  0  0  0
 15 16  2  0  0  0
 16 17  1  0  0  0
 17 18  2  0  0  0
 18 19  1  0  0  0
 19 20  2  0  0  0
 10 12  1  0  0  0
 12 13  2  0  0  0
 36 31  1  0  0  0
 29 24  1  0  0  0
 13  3  1  0  0  0
 12  6  1  0  0  0
 20 15  1  0  0  0
  1  2  1  0  0  0
  7 14  1  0  0  0
M  END
> <minimizedAffinity>
50.17979

> <CNNscore>
0.4392523766

> <CNNaffinity>
6.3226366043

> <CNN_VS>
2.7772331238

> <CNNaffinity_variance>
0.3850022852

$$$$
[H]/C(=C1/C(=O)N([H])c2c([H])c([H])c(N([H])S(=O)(=O)c3c([H])c([H])c(N4C([H])([H])C([H])([H])N(C([H])([H])[H])C([H])([H])C4([H])[H])c([H])c3[H])c([H])c21)c1c([H])c([H])c([H])c([H])c1[H]


 36 40  0  0  0  0  0  0  0  0999 V2000
   23.3189    6.2003   54.1682 N   0  0  0  0  0  0  0  0  0  0  0  0
   23.3775    5.1871   53.9452 H   0  0  0  0  0  0  0  0  0  0  0  0
   24.4943    6.9838   54.0479 C   0  0  0  0  0  0  0  0  0  0  0  0
   24.9805    7.2612   52.7876 C   0  0  0  0  0  0  0  0  0  0  0  0
   26.1224    8.0216   52.6214 C   0  0  0  0  0  0  0  0  0  0  0  0
   26.7821    8.5082   53.7366 C   0  0  0  0  0  0  0  0  0  0  0  0
   27.9568    9.3000   53.8161 N   0  0  0  0  0  0  0  0  0  0  0  0
   28.2490    9.5499   55.2096 C   0  0  0  0  0  0  0  0  0  0  0  0
   29.2349   10.2225   55.6010 O   0  0  0  0  0  0  0  0  0  0  0  0
   27.2218    8.8914   55.9798 C   0  0  0  0  0  0  0  0  0  0  0  0
   27.0535    8.8600   57.2745 C   0  0  0  0  0  0  0  0  0  0  0  0
   26.3294    8.2540   55.0188 C   0  0  0  0  0  0  0  0  0  0  0  0
   25.1794    7.4861   55.1327 C   0  0  0  0  0  0  0  0  0  0  0  0
   28.5458    9.6656   53.0400 H   0  0  0  0  0  0  0  0  0  0  0  0
   27.9223    9.5305   58.2024 C   0  0  0  0  0  0  0  0  0  0  0  0
   28.6969    8.8593   59.1150 C   0  0  0  0  0  0  0  0  0  0  0  0
   29.5094    9.5220   60.0064 C   0  0  0  0  0  0  0  0  0  0  0  0
   29.5662   10.8936   60.0039 C   0  0  0  0  0  0  0  0  0  0  0  0
   28.7896   11.5700   59.0878 C   0  0  0  0  0  0  0  0  0  0  0  0
   27.9817   10.9141   58.2016 C   0  0  0  0  0  0  0  0  0  0  0  0
   21.8061    6.8447   54.6636 S   0  0  0  0  0  0  0  0  0  0  0  0
   20.6763    5.9678   54.1501 O   0  0  0  0  0  0  0  0  0  0  0  0
   21.6693    6.8348   56.1625 O   0  0  0  0  0  0  0  0  0  0  0  0
   21.4831   11.0577   53.0167 C   0  0  0  0  0  0  0  0  0  0  0  0
   21.4203    9.9668   52.1972 C   0  0  0  0  0  0  0  0  0  0  0  0
   21.5194    8.6647   52.7011 C   0  0  0  0  0  0  0  0  0  0  0  0
   21.6841    8.4572   54.0473 C   0  0  0  0  0  0  0  0  0  0  0  0
   21.7477    9.5482   54.8734 C   0  0  0  0  0  0  0  0  0  0  0  0
   21.6491   10.8475   54.3737 C   0  0  0  0  0  0  0  0  0  0  0  0
   19.7992   14.7810   50.4194 C   0  0  0  0  0  0  0  0  0  0  0  0
   20.9599   14.8129   51.2537 N   0  0  0  0  0  0  0  0  0  0  0  0
   22.0206   14.0191   50.7480 C   0  0  0  0  0  0  0  0  0  0  0  0
   22.3763   12.8220   51.5658 C   0  0  0  0  0  0  0  0  0  0  0  0
   21.3759   12.3741   52.4758 N   0  0  0  0  0  0  0  0  0  0  0  0
   20.2654   13.2000   52.8710 C   0  0  0  0  0  0  0  0  0  0  0  0
   20.6729   14.6432   52.6380 C   0  0  0  0  0  0  0  0  0  0  0  0
 30 31  1  0  0  0
 31 32  1  0  0  0
 32 33  1  0  0  0
 33 34  1  0  0  0
 34 35  1  0  0  0
 35 36  1  0  0  0
 34 24  1  0  0  0
 24 25  2  0  0  0
 25 26  1  0  0  0
 26 27  2  0  0  0
 27 28  1  0  0  0
 28 29  2  0  0  0
 27 21  1  0  0  0
 21 22  2  0  0  0
 21 23  2  0  0  0
 21  1  1  0  0  0
  1  3  1  0  0  0
  3  4  2  0  0  0
  4  5  1  0  0  0
  5  6  2  0  0  0
  6  7  1  0  0  0
  7  8  1  0  0  0
  8  9  2  0  0  0
  8 10  1  0  0  0
 10 11  2  0  0  0
 11 15  1  0  0  0
 15 16  2  0  0  0
 16 17  1  0  0  0
 17 18  2  0  0  0
 18 19  1  0  0  0
 19 20  2  0  0  0
 10 12  1  0  0  0
 12 13  2  0  0  0
 36 31  1  0  0  0
 29 24  1  0  0  0
 13  3  1  0  0  0
 12  6  1  0  0  0
 20 15  1  0  0  0
  1  2  1  0  0  0
  7 14  1  0  0  0
M  END
> <minimizedAffinity>
25.39078

> <CNNscore>
0.4183245897

> <CNNaffinity>
6.4617462158

> <CNN_VS>
2.7031073570

> <CNNaffinity_variance>
0.2352742851

$$$$
[H]/C(=C1/C(=O)N([H])c2c([H])c([H])c(N([H])S(=O)(=O)c3c([H])c([H])c(N4C([H])([H])C([H])([H])N(C([H])([H])[H])C([H])([H])C4([H])[H])c([H])c3[H])c([H])c21)c1c([H])c([H])c([H])c([H])c1[H]


 36 40  0  0  0  0  0  0  0  0999 V2000
   19.6714    9.8072   53.3867 N   0  0  0  0  0  0  0  0  0  0  0  0
   18.8029   10.0745   52.8825 H   0  0  0  0  0  0  0  0  0  0  0  0
   20.0576    8.4431   53.3830 C   0  0  0  0  0  0  0  0  0  0  0  0
   21.4009    8.1341   53.3399 C   0  0  0  0  0  0  0  0  0  0  0  0
   21.8244    6.8187   53.3356 C   0  0  0  0  0  0  0  0  0  0  0  0
   20.8849    5.8030   53.3752 C   0  0  0  0  0  0  0  0  0  0  0  0
   21.0757    4.3971   53.3794 N   0  0  0  0  0  0  0  0  0  0  0  0
   19.7801    3.7577   53.4277 C   0  0  0  0  0  0  0  0  0  0  0  0
   19.6224    2.5117   53.4386 O   0  0  0  0  0  0  0  0  0  0  0  0
   18.7924    4.8093   53.4542 C   0  0  0  0  0  0  0  0  0  0  0  0
   17.4916    4.7181   53.5250 C   0  0  0  0  0  0  0  0  0  0  0  0
   19.5279    6.0679   53.4191 C   0  0  0  0  0  0  0  0  0  0  0  0
   19.1537    7.4039   53.4216 C   0  0  0  0  0  0  0  0  0  0  0  0
   21.9691    3.8641   53.3533 H   0  0  0  0  0  0  0  0  0  0  0  0
   16.7886    3.4669   53.6006 C   0  0  0  0  0  0  0  0  0  0  0  0
   16.6342    2.6334   52.5214 C   0  0  0  0  0  0  0  0  0  0  0  0
   15.9422    1.4472   52.6117 C   0  0  0  0  0  0  0  0  0  0  0  0
   15.3806    1.0622   53.8038 C   0  0  0  0  0  0  0  0  0  0  0  0
   15.5349    1.8975   54.8894 C   0  0  0  0  0  0  0  0  0  0  0  0
   16.2214    3.0761   54.8022 C   0  0  0  0  0  0  0  0  0  0  0  0
   20.5686   11.0363   54.1827 S   0  0  0  0  0  0  0  0  0  0  0  0
   20.6160   12.2853   53.3185 O   0  0  0  0  0  0  0  0  0  0  0  0
   19.9011   11.4617   55.4628 O   0  0  0  0  0  0  0  0  0  0  0  0
   24.7240    9.4306   55.0312 C   0  0  0  0  0  0  0  0  0  0  0  0
   23.8633    9.7470   56.0434 C   0  0  0  0  0  0  0  0  0  0  0  0
   22.5798   10.2428   55.7862 C   0  0  0  0  0  0  0  0  0  0  0  0
   22.1567   10.4228   54.4936 C   0  0  0  0  0  0  0  0  0  0  0  0
   23.0164   10.1069   53.4748 C   0  0  0  0  0  0  0  0  0  0  0  0
   24.2965    9.6123   53.7284 C   0  0  0  0  0  0  0  0  0  0  0  0
   29.5518    9.0635   55.0832 C   0  0  0  0  0  0  0  0  0  0  0  0
   28.6461    8.1438   55.6981 N   0  0  0  0  0  0  0  0  0  0  0  0
   27.8899    7.4044   54.7533 C   0  0  0  0  0  0  0  0  0  0  0  0
   26.4244    7.6876   54.7372 C   0  0  0  0  0  0  0  0  0  0  0  0
   26.0260    8.9238   55.3226 N   0  0  0  0  0  0  0  0  0  0  0  0
   26.8855    9.6767   56.1978 C   0  0  0  0  0  0  0  0  0  0  0  0
   27.9019    8.7077   56.7731 C   0  0  0  0  0  0  0  0  0  0  0  0
 30 31  1  0  0  0
 31 32  1  0  0  0
 32 33  1  0  0  0
 33 34  1  0  0  0
 34 35  1  0  0  0
 35 36  1  0  0  0
 34 24  1  0  0  0
 24 25  2  0  0  0
 25 26  1  0  0  0
 26 27  2  0  0  0
 27 28  1  0  0  0
 28 29  2  0  0  0
 27 21  1  0  0  0
 21 22  2  0  0  0
 21 23  2  0  0  0
 21  1  1  0  0  0
  1  3  1  0  0  0
  3  4  2  0  0  0
  4  5  1  0  0  0
  5  6  2  0  0  0
  6  7  1  0  0  0
  7  8  1  0  0  0
  8  9  2  0  0  0
  8 10  1  0  0  0
 10 11  2  0  0  0
 11 15  1  0  0  0
 15 16  2  0  0  0
 16 17  1  0  0  0
 17 18  2  0  0  0
 18 19  1  0  0  0
 19 20  2  0  0  0
 10 12  1  0  0  0
 12 13  2  0  0  0
 36 31  1  0  0  0
 29 24  1  0  0  0
 13  3  1  0  0  0
 12  6  1  0  0  0
 20 15  1  0  0  0
  1  2  1  0  0  0
  7 14  1  0  0  0
M  END
> <minimizedAffinity>
67.78871

> <CNNscore>
0.3596021831

> <CNNaffinity>
6.0817995071

> <CNN_VS>
2.1870284081

> <CNNaffinity_variance>
0.5186728239

$$$$
[H]c1c([H])c([H])c2c(c1[H])c1c3c(c4c5c([H])c([H])c([H])c([H])c5n5c4c1n2[C@@]1(C([H])([H])[H])O[C@]5([H])C([H])([H])[C@]([H])(N([H])C([H])([H])[H])[C@]1([H])OC([H])([H])[H])C(=O)N([H])C3([H])[H]


 37 44  0  0  0  0  0  0  0  0999 V2000
   22.1018   10.5314   53.7326 C   0  0  0  0  0  0  0  0  0  0  0  0
   22.6698   11.3375   54.8843 C   0  0  0  0  0  0  0  0  0  0  0  0
   22.9923   10.4756   56.0721 C   0  0  0  0  0  0  0  0  0  0  0  0
   22.2214    9.4167   56.3064 O   0  0  0  0  0  0  0  0  0  0  0  0
   21.7551    8.6355   55.2441 C   0  0  0  0  0  0  0  0  0  0  0  0
   20.6869    7.7864   55.9092 C   0  0  0  0  0  0  0  0  0  0  0  0
   21.0782    9.6098   54.3032 C   0  0  0  0  0  0  0  0  0  0  0  0
   22.8196    7.8523   54.6612 N   0  0  0  0  0  0  0  0  0  0  0  0
   22.6419    6.6974   53.9737 C   0  0  0  0  0  0  0  0  0  0  0  0
   21.5415    6.0085   53.5610 C   0  0  0  0  0  0  0  0  0  0  0  0
   21.6185    4.8156   52.8382 C   0  0  0  0  0  0  0  0  0  0  0  0
   22.8347    4.2829   52.5094 C   0  0  0  0  0  0  0  0  0  0  0  0
   23.9478    4.9675   52.9178 C   0  0  0  0  0  0  0  0  0  0  0  0
   23.8837    6.1447   53.6311 C   0  0  0  0  0  0  0  0  0  0  0  0
   24.8362    6.9979   54.1241 C   0  0  0  0  0  0  0  0  0  0  0  0
   26.2146    6.9631   54.0839 C   0  0  0  0  0  0  0  0  0  0  0  0
   27.1455    5.9728   53.4891 C   0  0  0  0  0  0  0  0  0  0  0  0
   28.4495    6.4730   53.7698 N   0  0  0  0  0  0  0  0  0  0  0  0
   28.3623    7.7132   54.4970 C   0  0  0  0  0  0  0  0  0  0  0  0
   29.3767    8.3301   54.8459 O   0  0  0  0  0  0  0  0  0  0  0  0
   26.9540    7.9928   54.6777 C   0  0  0  0  0  0  0  0  0  0  0  0
   26.2560    9.0306   55.2942 C   0  0  0  0  0  0  0  0  0  0  0  0
   26.6378   10.2041   55.9409 C   0  0  0  0  0  0  0  0  0  0  0  0
   27.8431   10.7485   56.2296 C   0  0  0  0  0  0  0  0  0  0  0  0
   27.8860   11.9782   56.9107 C   0  0  0  0  0  0  0  0  0  0  0  0
   26.7295   12.6112   57.2740 C   0  0  0  0  0  0  0  0  0  0  0  0
   25.4950   12.0749   56.9902 C   0  0  0  0  0  0  0  0  0  0  0  0
   25.4669   10.8644   56.3196 C   0  0  0  0  0  0  0  0  0  0  0  0
   24.4180   10.1301   55.9251 N   0  0  0  0  0  0  0  0  0  0  0  0
   24.8695    9.0318   55.3154 C   0  0  0  0  0  0  0  0  0  0  0  0
   24.1811    8.0058   54.7287 C   0  0  0  0  0  0  0  0  0  0  0  0
   29.3272    5.9957   53.4820 H   0  0  0  0  0  0  0  0  0  0  0  0
   21.1272   10.7559   51.5032 C   0  0  0  0  0  0  0  0  0  0  0  0
   21.7780   11.3035   52.6214 N   0  0  0  0  0  0  0  0  0  0  0  0
   22.4897   12.0025   52.3203 H   0  0  0  0  0  0  0  0  0  0  0  0
   20.2346   10.3652   55.1016 O   0  0  0  0  0  0  0  0  0  0  0  0
   20.7769   11.2691   55.9505 C   0  0  0  0  0  0  0  0  0  0  0  0
 33 34  1  0  0  0
 34  1  1  0  0  0
  1  2  1  0  0  0
  2  3  1  0  0  0
  3  4  1  0  0  0
  4  5  1  0  0  0
  5  6  1  0  0  0
  5  7  1  0  0  0
  7 36  1  0  0  0
 36 37  1  0  0  0
  5  8  1  0  0  0
  8  9  1  0  0  0
  9 10  2  0  0  0
 10 11  1  0  0  0
 11 12  2  0  0  0
 12 13  1  0  0  0
 13 14  2  0  0  0
 14 15  1  0  0  0
 15 16  2  0  0  0
 16 17  1  0  0  0
 17 18  1  0  0  0
 18 19  1  0  0  0
 19 20  2  0  0  0
 19 21  1  0  0  0
 21 22  2  0  0  0
 22 23  1  0  0  0
 23 24  2  0  0  0
 24 25  1  0  0  0
 25 26  2  0  0  0
 26 27  1  0  0  0
 27 28  2  0  0  0
 28 29  1  0  0  0
 29 30  1  0  0  0
 30 31  2  0  0  0
  7  1  1  0  0  0
 31  8  1  0  0  0
 29  3  1  0  0  0
 14  9  1  0  0  0
 31 15  1  0  0  0
 21 16  1  0  0  0
 30 22  1  0  0  0
 28 23  1  0  0  0
 34 35  1  0  0  0
 18 32  1  0  0  0
M  END
> <minimizedAffinity>
71.97575

> <CNNscore>
0.2129410952

> <CNNaffinity>
6.1340818405

> <CNN_VS>
1.3061981201

> <CNNaffinity_variance>
0.3865490854

$$$$
[H]c1c([H])c([H])c2c(c1[H])c1c3c(c4c5c([H])c([H])c([H])c([H])c5n5c4c1n2[C@@]1(C([H])([H])[H])O[C@]5([H])C([H])([H])[C@]([H])(N([H])C([H])([H])[H])[C@]1([H])OC([H])([H])[H])C(=O)N([H])C3([H])[H]


 37 44  0  0  0  0  0  0  0  0999 V2000
   26.8853    8.8538   57.4098 C   0  0  0  0  0  0  0  0  0  0  0  0
   25.8595    9.9702   57.4164 C   0  0  0  0  0  0  0  0  0  0  0  0
   25.5956   10.5030   56.0364 C   0  0  0  0  0  0  0  0  0  0  0  0
   26.6026   10.5184   55.1669 O   0  0  0  0  0  0  0  0  0  0  0  0
   27.5079    9.4534   55.1180 C   0  0  0  0  0  0  0  0  0  0  0  0
   28.6313   10.0201   54.2688 C   0  0  0  0  0  0  0  0  0  0  0  0
   28.0108    9.2955   56.5374 C   0  0  0  0  0  0  0  0  0  0  0  0
   26.9022    8.2750   54.5427 N   0  0  0  0  0  0  0  0  0  0  0  0
   27.5849    7.2726   53.9370 C   0  0  0  0  0  0  0  0  0  0  0  0
   28.9099    7.0081   53.7635 C   0  0  0  0  0  0  0  0  0  0  0  0
   29.3775    5.8740   53.0954 C   0  0  0  0  0  0  0  0  0  0  0  0
   28.4974    4.9634   52.5782 C   0  0  0  0  0  0  0  0  0  0  0  0
   27.1629    5.2182   52.7477 C   0  0  0  0  0  0  0  0  0  0  0  0
   26.6906    6.3334   53.4049 C   0  0  0  0  0  0  0  0  0  0  0  0
   25.4317    6.7842   53.7056 C   0  0  0  0  0  0  0  0  0  0  0  0
   24.1801    6.2705   53.4373 C   0  0  0  0  0  0  0  0  0  0  0  0
   23.7674    5.0406   52.7174 C   0  0  0  0  0  0  0  0  0  0  0  0
   22.3434    5.0462   52.7579 N   0  0  0  0  0  0  0  0  0  0  0  0
   21.8689    6.2072   53.4660 C   0  0  0  0  0  0  0  0  0  0  0  0
   20.6600    6.4169   53.6260 O   0  0  0  0  0  0  0  0  0  0  0  0
   23.0394    6.9519   53.8778 C   0  0  0  0  0  0  0  0  0  0  0  0
   23.2172    8.1413   54.5837 C   0  0  0  0  0  0  0  0  0  0  0  0
   22.3486    9.0483   55.1871 C   0  0  0  0  0  0  0  0  0  0  0  0
   20.9996    9.1123   55.2797 C   0  0  0  0  0  0  0  0  0  0  0  0
   20.4182   10.1862   55.9773 C   0  0  0  0  0  0  0  0  0  0  0  0
   21.2034   11.1476   56.5512 C   0  0  0  0  0  0  0  0  0  0  0  0
   22.5756   11.1009   56.4685 C   0  0  0  0  0  0  0  0  0  0  0  0
   23.1350   10.0389   55.7792 C   0  0  0  0  0  0  0  0  0  0  0  0
   24.4235    9.7534   55.5487 N   0  0  0  0  0  0  0  0  0  0  0  0
   24.4913    8.6277   54.8344 C   0  0  0  0  0  0  0  0  0  0  0  0
   25.5823    7.9366   54.3839 C   0  0  0  0  0  0  0  0  0  0  0  0
   21.7490    4.3077   52.3310 H   0  0  0  0  0  0  0  0  0  0  0  0
   28.4682    8.0001   59.0638 C   0  0  0  0  0  0  0  0  0  0  0  0
   27.1636    8.3485   58.6758 N   0  0  0  0  0  0  0  0  0  0  0  0
   26.4762    7.6685   59.0642 H   0  0  0  0  0  0  0  0  0  0  0  0
   28.3770   10.5693   56.9410 O   0  0  0  0  0  0  0  0  0  0  0  0
   28.7881   10.7559   58.2169 C   0  0  0  0  0  0  0  0  0  0  0  0
 33 34  1  0  0  0
 34  1  1  0  0  0
  1  2  1  0  0  0
  2  3  1  0  0  0
  3  4  1  0  0  0
  4  5  1  0  0  0
  5  6  1  0  0  0
  5  7  1  0  0  0
  7 36  1  0  0  0
 36 37  1  0  0  0
  5  8  1  0  0  0
  8  9  1  0  0  0
  9 10  2  0  0  0
 10 11  1  0  0  0
 11 12  2  0  0  0
 12 13  1  0  0  0
 13 14  2  0  0  0
 14 15  1  0  0  0
 15 16  2  0  0  0
 16 17  1  0  0  0
 17 18  1  0  0  0
 18 19  1  0  0  0
 19 20  2  0  0  0
 19 21  1  0  0  0
 21 22  2  0  0  0
 22 23  1  0  0  0
 23 24  2  0  0  0
 24 25  1  0  0  0
 25 26  2  0  0  0
 26 27  1  0  0  0
 27 28  2  0  0  0
 28 29  1  0  0  0
 29 30  1  0  0  0
 30 31  2  0  0  0
  7  1  1  0  0  0
 31  8  1  0  0  0
 29  3  1  0  0  0
 14  9  1  0  0  0
 31 15  1  0  0  0
 21 16  1  0  0  0
 30 22  1  0  0  0
 28 23  1  0  0  0
 34 35  1  0  0  0
 18 32  1  0  0  0
M  END
> <minimizedAffinity>
78.84701

> <CNNscore>
0.2061259598

> <CNNaffinity>
5.8299641609

> <CNN_VS>
1.2017070055

> <CNNaffinity_variance>
0.4582876563

$$$$
[H]c1c([H])c([H])c2c(c1[H])c1c3c(c4c5c([H])c([H])c([H])c([H])c5n5c4c1n2[C@@]1(C([H])([H])[H])O[C@]5([H])C([H])([H])[C@]([H])(N([H])C([H])([H])[H])[C@]1([H])OC([H])([H])[H])C(=O)N([H])C3([H])[H]


 37 44  0  0  0  0  0  0  0  0999 V2000
   23.5408    5.4751   55.4932 C   0  0  0  0  0  0  0  0  0  0  0  0
   24.9996    5.7900   55.7601 C   0  0  0  0  0  0  0  0  0  0  0  0
   25.6386    6.5214   54.6136 C   0  0  0  0  0  0  0  0  0  0  0  0
   25.2248    6.2391   53.3810 O   0  0  0  0  0  0  0  0  0  0  0  0
   23.8677    6.0160   53.1268 C   0  0  0  0  0  0  0  0  0  0  0  0
   23.8921    5.4178   51.7318 C   0  0  0  0  0  0  0  0  0  0  0  0
   23.4535    4.9373   54.1053 C   0  0  0  0  0  0  0  0  0  0  0  0
   23.1102    7.2435   53.2035 N   0  0  0  0  0  0  0  0  0  0  0  0
   21.9275    7.4621   52.5778 C   0  0  0  0  0  0  0  0  0  0  0  0
   21.0980    6.6780   51.8344 C   0  0  0  0  0  0  0  0  0  0  0  0
   19.8974    7.1421   51.2918 C   0  0  0  0  0  0  0  0  0  0  0  0
   19.5008    8.4355   51.4941 C   0  0  0  0  0  0  0  0  0  0  0  0
   20.3261    9.2326   52.2411 C   0  0  0  0  0  0  0  0  0  0  0  0
   21.5124    8.7854   52.7809 C   0  0  0  0  0  0  0  0  0  0  0  0
   22.4739    9.3778   53.5574 C   0  0  0  0  0  0  0  0  0  0  0  0
   22.5910   10.6549   54.0653 C   0  0  0  0  0  0  0  0  0  0  0  0
   21.7050   11.8379   53.9362 C   0  0  0  0  0  0  0  0  0  0  0  0
   22.3528   12.8699   54.6741 N   0  0  0  0  0  0  0  0  0  0  0  0
   23.5793   12.3786   55.2477 C   0  0  0  0  0  0  0  0  0  0  0  0
   24.3079   13.1057   55.9345 O   0  0  0  0  0  0  0  0  0  0  0  0
   23.7002   10.9926   54.8497 C   0  0  0  0  0  0  0  0  0  0  0  0
   24.6568   10.0074   55.0922 C   0  0  0  0  0  0  0  0  0  0  0  0
   25.8385    9.9658   55.8290 C   0  0  0  0  0  0  0  0  0  0  0  0
   26.5029   10.8909   56.5607 C   0  0  0  0  0  0  0  0  0  0  0  0
   27.7004   10.5191   57.1976 C   0  0  0  0  0  0  0  0  0  0  0  0
   28.1834    9.2452   57.0788 C   0  0  0  0  0  0  0  0  0  0  0  0
   27.5236    8.2906   56.3401 C   0  0  0  0  0  0  0  0  0  0  0  0
   26.3464    8.6696   55.7185 C   0  0  0  0  0  0  0  0  0  0  0  0
   25.5165    7.9517   54.9497 N   0  0  0  0  0  0  0  0  0  0  0  0
   24.5057    8.7340   54.5645 C   0  0  0  0  0  0  0  0  0  0  0  0
   23.4108    8.4425   53.7984 C   0  0  0  0  0  0  0  0  0  0  0  0
   21.9775   13.8345   54.7728 H   0  0  0  0  0  0  0  0  0  0  0  0
   21.8314    5.3212   57.2324 C   0  0  0  0  0  0  0  0  0  0  0  0
   22.9235    4.7836   56.5308 N   0  0  0  0  0  0  0  0  0  0  0  0
   23.5523    4.2659   57.1805 H   0  0  0  0  0  0  0  0  0  0  0  0
   24.4100    3.9427   53.9818 O   0  0  0  0  0  0  0  0  0  0  0  0
   24.4874    3.2534   52.8196 C   0  0  0  0  0  0  0  0  0  0  0  0
 33 34  1  0  0  0
 34  1  1  0  0  0
  1  2  1  0  0  0
  2  3  1  0  0  0
  3  4  1  0  0  0
  4  5  1  0  0  0
  5  6  1  0  0  0
  5  7  1  0  0  0
  7 36  1  0  0  0
 36 37  1  0  0  0
  5  8  1  0  0  0
  8  9  1  0  0  0
  9 10  2  0  0  0
 10 11  1  0  0  0
 11 12  2  0  0  0
 12 13  1  0  0  0
 13 14  2  0  0  0
 14 15  1  0  0  0
 15 16  2  0  0  0
 16 17  1  0  0  0
 17 18  1  0  0  0
 18 19  1  0  0  0
 19 20  2  0  0  0
 19 21  1  0  0  0
 21 22  2  0  0  0
 22 23  1  0  0  0
 23 24  2  0  0  0
 24 25  1  0  0  0
 25 26  2  0  0  0
 26 27  1  0  0  0
 27 28  2  0  0  0
 28 29  1  0  0  0
 29 30  1  0  0  0
 30 31  2  0  0  0
  7  1  1  0  0  0
 31  8  1  0  0  0
 29  3  1  0  0  0
 14  9  1  0  0  0
 31 15  1  0  0  0
 21 16  1  0  0  0
 30 22  1  0  0  0
 28 23  1  0  0  0
 34 35  1  0  0  0
 18 32  1  0  0  0
M  END
> <minimizedAffinity>
84.33033

> <CNNscore>
0.1989923716

> <CNNaffinity>
5.4307627678

> <CNN_VS>
1.0806803703

> <CNNaffinity_variance>
1.1568338871

$$$$
[H]c1c([H])c([H])c2c(c1[H])c1c3c(c4c5c([H])c([H])c([H])c([H])c5n5c4c1n2[C@@]1(C([H])([H])[H])O[C@]5([H])C([H])([H])[C@]([H])(N([H])C([H])([H])[H])[C@]1([H])OC([H])([H])[H])C(=O)N([H])C3([H])[H]


 37 44  0  0  0  0  0  0  0  0999 V2000
   27.1918    8.3926   53.0467 C   0  0  0  0  0  0  0  0  0  0  0  0
   26.5855    7.0033   53.0756 C   0  0  0  0  0  0  0  0  0  0  0  0
   26.0940    6.6299   54.4455 C   0  0  0  0  0  0  0  0  0  0  0  0
   26.7587    7.0971   55.4993 O   0  0  0  0  0  0  0  0  0  0  0  0
   27.2580    8.4036   55.4951 C   0  0  0  0  0  0  0  0  0  0  0  0
   28.1952    8.3974   56.6891 C   0  0  0  0  0  0  0  0  0  0  0  0
   28.0879    8.5065   54.2328 C   0  0  0  0  0  0  0  0  0  0  0  0
   26.1938    9.3729   55.6154 N   0  0  0  0  0  0  0  0  0  0  0  0
   26.3446   10.6297   56.1008 C   0  0  0  0  0  0  0  0  0  0  0  0
   27.4224   11.3594   56.5030 C   0  0  0  0  0  0  0  0  0  0  0  0
   27.3206   12.6732   56.9664 C   0  0  0  0  0  0  0  0  0  0  0  0
   26.1020   13.2908   57.0339 C   0  0  0  0  0  0  0  0  0  0  0  0
   25.0116   12.5675   56.6309 C   0  0  0  0  0  0  0  0  0  0  0  0
   25.1003   11.2712   56.1721 C   0  0  0  0  0  0  0  0  0  0  0  0
   24.1746   10.3725   55.7100 C   0  0  0  0  0  0  0  0  0  0  0  0
   22.8067   10.4561   55.5535 C   0  0  0  0  0  0  0  0  0  0  0  0
   21.8607   11.5621   55.8419 C   0  0  0  0  0  0  0  0  0  0  0  0
   20.5783   11.0582   55.4801 N   0  0  0  0  0  0  0  0  0  0  0  0
   20.6933    9.7109   54.9839 C   0  0  0  0  0  0  0  0  0  0  0  0
   19.7013    9.0742   54.6076 O   0  0  0  0  0  0  0  0  0  0  0  0
   22.0969    9.3633   55.0421 C   0  0  0  0  0  0  0  0  0  0  0  0
   22.8133    8.2159   54.7036 C   0  0  0  0  0  0  0  0  0  0  0  0
   22.4647    6.9835   54.1550 C   0  0  0  0  0  0  0  0  0  0  0  0
   21.2830    6.4434   53.7753 C   0  0  0  0  0  0  0  0  0  0  0  0
   21.2723    5.1415   53.2435 C   0  0  0  0  0  0  0  0  0  0  0  0
   22.4361    4.4353   53.1132 C   0  0  0  0  0  0  0  0  0  0  0  0
   23.6470    4.9658   53.4930 C   0  0  0  0  0  0  0  0  0  0  0  0
   23.6436    6.2479   54.0147 C   0  0  0  0  0  0  0  0  0  0  0  0
   24.6652    6.9931   54.4574 N   0  0  0  0  0  0  0  0  0  0  0  0
   24.1884    8.1680   54.8752 C   0  0  0  0  0  0  0  0  0  0  0  0
   24.8472    9.2540   55.3823 C   0  0  0  0  0  0  0  0  0  0  0  0
   19.6963   11.6015   55.5691 H   0  0  0  0  0  0  0  0  0  0  0  0
   28.2621   10.0175   51.5684 C   0  0  0  0  0  0  0  0  0  0  0  0
   27.6710    8.7630   51.7940 N   0  0  0  0  0  0  0  0  0  0  0  0
   27.0905    8.4833   50.9753 H   0  0  0  0  0  0  0  0  0  0  0  0
   28.9112    7.3922   54.2429 O   0  0  0  0  0  0  0  0  0  0  0  0
   29.0326    6.6612   53.1104 C   0  0  0  0  0  0  0  0  0  0  0  0
 33 34  1  0  0  0
 34  1  1  0  0  0
  1  2  1  0  0  0
  2  3  1  0  0  0
  3  4  1  0  0  0
  4  5  1  0  0  0
  5  6  1  0  0  0
  5  7  1  0  0  0
  7 36  1  0  0  0
 36 37  1  0  0  0
  5  8  1  0  0  0
  8  9  1  0  0  0
  9 10  2  0  0  0
 10 11  1  0  0  0
 11 12  2  0  0  0
 12 13  1  0  0  0
 13 14  2  0  0  0
 14 15  1  0  0  0
 15 16  2  0  0  0
 16 17  1  0  0  0
 17 18  1  0  0  0
 18 19  1  0  0  0
 19 20  2  0  0  0
 19 21  1  0  0  0
 21 22  2  0  0  0
 22 23  1  0  0  0
 23 24  2  0  0  0
 24 25  1  0  0  0
 25 26  2  0  0  0
 26 27  1  0  0  0
 27 28  2  0  0  0
 28 29  1  0  0  0
 29 30  1  0  0  0
 30 31  2  0  0  0
  7  1  1  0  0  0
 31  8  1  0  0  0
 29  3  1  0  0  0
 14  9  1  0  0  0
 31 15  1  0  0  0
 21 16  1  0  0  0
 30 22  1  0  0  0
 28 23  1  0  0  0
 34 35  1  0  0  0
 18 32  1  0  0  0
M  END
> <minimizedAffinity>
83.90450

> <CNNscore>
0.1963936985

> <CNNaffinity>
5.8815078735

> <CNN_VS>
1.1550910473

> <CNNaffinity_variance>
0.5672052503

$$$$
[H]c1c([H])c([H])c2c(c1[H])c1c3c(c4c5c([H])c([H])c([H])c([H])c5n5c4c1n2[C@@]1(C([H])([H])[H])O[C@]5([H])C([H])([H])[C@]([H])(N([H])C([H])([H])[H])[C@]1([H])OC([H])([H])[H])C(=O)N([H])C3([H])[H]


 37 44  0  0  0  0  0  0  0  0999 V2000
   21.6515    8.8990   55.7001 C   0  0  0  0  0  0  0  0  0  0  0  0
   20.3021    8.4957   55.1388 C   0  0  0  0  0  0  0  0  0  0  0  0
   20.3545    8.2611   53.6555 C   0  0  0  0  0  0  0  0  0  0  0  0
   21.1909    9.0016   52.9327 O   0  0  0  0  0  0  0  0  0  0  0  0
   22.4615    9.3147   53.4263 C   0  0  0  0  0  0  0  0  0  0  0  0
   22.9197   10.4062   52.4761 C   0  0  0  0  0  0  0  0  0  0  0  0
   22.2168    9.9328   54.7867 C   0  0  0  0  0  0  0  0  0  0  0  0
   23.3271    8.1583   53.4200 N   0  0  0  0  0  0  0  0  0  0  0  0
   24.6813    8.2069   53.3782 C   0  0  0  0  0  0  0  0  0  0  0  0
   25.5874    9.2232   53.4189 C   0  0  0  0  0  0  0  0  0  0  0  0
   26.9676    9.0133   53.3699 C   0  0  0  0  0  0  0  0  0  0  0  0
   27.4719    7.7452   53.2775 C   0  0  0  0  0  0  0  0  0  0  0  0
   26.5704    6.7156   53.2372 C   0  0  0  0  0  0  0  0  0  0  0  0
   25.2072    6.9109   53.2849 C   0  0  0  0  0  0  0  0  0  0  0  0
   24.1347    6.0577   53.2757 C   0  0  0  0  0  0  0  0  0  0  0  0
   24.0510    4.6829   53.2024 C   0  0  0  0  0  0  0  0  0  0  0  0
   25.1095    3.6481   53.1020 C   0  0  0  0  0  0  0  0  0  0  0  0
   24.4125    2.4065   53.0560 N   0  0  0  0  0  0  0  0  0  0  0  0
   22.9912    2.6292   53.1279 C   0  0  0  0  0  0  0  0  0  0  0  0
   22.1881    1.6882   53.1067 O   0  0  0  0  0  0  0  0  0  0  0  0
   22.7973    4.0604   53.2186 C   0  0  0  0  0  0  0  0  0  0  0  0
   21.6647    4.8684   53.3119 C   0  0  0  0  0  0  0  0  0  0  0  0
   20.2968    4.6136   53.3849 C   0  0  0  0  0  0  0  0  0  0  0  0
   19.5681    3.4730   53.3626 C   0  0  0  0  0  0  0  0  0  0  0  0
   18.1678    3.5612   53.4590 C   0  0  0  0  0  0  0  0  0  0  0  0
   17.5551    4.7785   53.5731 C   0  0  0  0  0  0  0  0  0  0  0  0
   18.2773    5.9489   53.5976 C   0  0  0  0  0  0  0  0  0  0  0  0
   19.6544    5.8481   53.5020 C   0  0  0  0  0  0  0  0  0  0  0  0
   20.5838    6.8131   53.4996 N   0  0  0  0  0  0  0  0  0  0  0  0
   21.7875    6.2478   53.3834 C   0  0  0  0  0  0  0  0  0  0  0  0
   23.0294    6.8205   53.3600 C   0  0  0  0  0  0  0  0  0  0  0  0
   24.8813    1.4816   52.9811 H   0  0  0  0  0  0  0  0  0  0  0  0
   22.7686    9.6012   57.7566 C   0  0  0  0  0  0  0  0  0  0  0  0
   21.6332    9.1386   57.0705 N   0  0  0  0  0  0  0  0  0  0  0  0
   21.1128    8.4498   57.6539 H   0  0  0  0  0  0  0  0  0  0  0  0
   21.2373   10.8914   54.5835 O   0  0  0  0  0  0  0  0  0  0  0  0
   21.4044   11.7934   53.5884 C   0  0  0  0  0  0  0  0  0  0  0  0
 33 34  1  0  0  0
 34  1  1  0  0  0
  1  2  1  0  0  0
  2  3  1  0  0  0
  3  4  1  0  0  0
  4  5  1  0  0  0
  5  6  1  0  0  0
  5  7  1  0  0  0
  7 36  1  0  0  0
 36 37  1  0  0  0
  5  8  1  0  0  0
  8  9  1  0  0  0
  9 10  2  0  0  0
 10 11  1  0  0  0
 11 12  2  0  0  0
 12 13  1  0  0  0
 13 14  2  0  0  0
 14 15  1  0  0  0
 15 16  2  0  0  0
 16 17  1  0  0  0
 17 18  1  0  0  0
 18 19  1  0  0  0
 19 20  2  0  0  0
 19 21  1  0  0  0
 21 22  2  0  0  0
 22 23  1  0  0  0
 23 24  2  0  0  0
 24 25  1  0  0  0
 25 26  2  0  0  0
 26 27  1  0  0  0
 27 28  2  0  0  0
 28 29  1  0  0  0
 29 30  1  0  0  0
 30 31  2  0  0  0
  7  1  1  0  0  0
 31  8  1  0  0  0
 29  3  1  0  0  0
 14  9  1  0  0  0
 31 15  1  0  0  0
 21 16  1  0  0  0
 30 22  1  0  0  0
 28 23  1  0  0  0
 34 35  1  0  0  0
 18 32  1  0  0  0
M  END
> <minimizedAffinity>
83.07900

> <CNNscore>
0.1843734235

> <CNNaffinity>
5.7986006737

> <CNN_VS>
1.0691078901

> <CNNaffinity_variance>
0.3392225206

$$$$
[H]c1c([H])c([H])c2c(c1[H])c1c3c(c4c5c([H])c([H])c([H])c([H])c5n5c4c1n2[C@@]1(C([H])([H])[H])O[C@]5([H])C([H])([H])[C@]([H])(N([H])C([H])([H])[H])[C@]1([H])OC([H])([H])[H])C(=O)N([H])C3([H])[H]


 37 44  0  0  0  0  0  0  0  0999 V2000
   22.5710    9.2711   55.2739 C   0  0  0  0  0  0  0  0  0  0  0  0
   23.1525   10.3848   54.4252 C   0  0  0  0  0  0  0  0  0  0  0  0
   23.4865    9.9207   53.0357 C   0  0  0  0  0  0  0  0  0  0  0  0
   23.8996    8.6660   52.8759 O   0  0  0  0  0  0  0  0  0  0  0  0
   23.3130    7.6316   53.6123 C   0  0  0  0  0  0  0  0  0  0  0  0
   24.2757    6.4810   53.3807 C   0  0  0  0  0  0  0  0  0  0  0  0
   23.4206    8.0649   55.0591 C   0  0  0  0  0  0  0  0  0  0  0  0
   21.9737    7.3514   53.1494 N   0  0  0  0  0  0  0  0  0  0  0  0
   21.3348    6.1658   53.3044 C   0  0  0  0  0  0  0  0  0  0  0  0
   21.6471    5.0063   53.9476 C   0  0  0  0  0  0  0  0  0  0  0  0
   20.7966    3.8985   53.9734 C   0  0  0  0  0  0  0  0  0  0  0  0
   19.5865    3.9402   53.3370 C   0  0  0  0  0  0  0  0  0  0  0  0
   19.2612    5.1011   52.6883 C   0  0  0  0  0  0  0  0  0  0  0  0
   20.0923    6.1998   52.6563 C   0  0  0  0  0  0  0  0  0  0  0  0
   19.9803    7.4470   52.0994 C   0  0  0  0  0  0  0  0  0  0  0  0
   18.9807    8.0376   51.3547 C   0  0  0  0  0  0  0  0  0  0  0  0
   17.6719    7.5126   50.8937 C   0  0  0  0  0  0  0  0  0  0  0  0
   17.0794    8.5816   50.1619 N   0  0  0  0  0  0  0  0  0  0  0  0
   17.9525    9.7272   50.1570 C   0  0  0  0  0  0  0  0  0  0  0  0
   17.6389   10.7759   49.5801 O   0  0  0  0  0  0  0  0  0  0  0  0
   19.1314    9.3564   50.9099 C   0  0  0  0  0  0  0  0  0  0  0  0
   20.3044   10.0319   51.2449 C   0  0  0  0  0  0  0  0  0  0  0  0
   20.7785   11.3216   51.0145 C   0  0  0  0  0  0  0  0  0  0  0  0
   20.2720   12.3857   50.3485 C   0  0  0  0  0  0  0  0  0  0  0  0
   21.0209   13.5752   50.3017 C   0  0  0  0  0  0  0  0  0  0  0  0
   22.2389   13.6535   50.9187 C   0  0  0  0  0  0  0  0  0  0  0  0
   22.7711   12.5838   51.6004 C   0  0  0  0  0  0  0  0  0  0  0  0
   22.0240   11.4193   51.6388 C   0  0  0  0  0  0  0  0  0  0  0  0
   22.3003   10.2455   52.2226 N   0  0  0  0  0  0  0  0  0  0  0  0
   21.2881    9.4054   51.9950 C   0  0  0  0  0  0  0  0  0  0  0  0
   21.1075    8.1141   52.4079 C   0  0  0  0  0  0  0  0  0  0  0  0
   16.1479    8.5235   49.7037 H   0  0  0  0  0  0  0  0  0  0  0  0
   21.2227   10.5666   56.8468 C   0  0  0  0  0  0  0  0  0  0  0  0
   22.2649    9.6652   56.5726 N   0  0  0  0  0  0  0  0  0  0  0  0
   23.0736    9.8429   57.2051 H   0  0  0  0  0  0  0  0  0  0  0  0
   24.7410    8.4481   55.2303 O   0  0  0  0  0  0  0  0  0  0  0  0
   25.7125    7.7298   54.6204 C   0  0  0  0  0  0  0  0  0  0  0  0
 33 34  1  0  0  0
 34  1  1  0  0  0
  1  2  1  0  0  0
  2  3  1  0  0  0
  3  4  1  0  0  0
  4  5  1  0  0  0
  5  6  1  0  0  0
  5  7  1  0  0  0
  7 36  1  0  0  0
 36 37  1  0  0  0
  5  8  1  0  0  0
  8  9  1  0  0  0
  9 10  2  0  0  0
 10 11  1  0  0  0
 11 12  2  0  0  0
 12 13  1  0  0  0
 13 14  2  0  0  0
 14 15  1  0  0  0
 15 16  2  0  0  0
 16 17  1  0  0  0
 17 18  1  0  0  0
 18 19  1  0  0  0
 19 20  2  0  0  0
 19 21  1  0  0  0
 21 22  2  0  0  0
 22 23  1  0  0  0
 23 24  2  0  0  0
 24 25  1  0  0  0
 25 26  2  0  0  0
 26 27  1  0  0  0
 27 28  2  0  0  0
 28 29  1  0  0  0
 29 30  1  0  0  0
 30 31  2  0  0  0
  7  1  1  0  0  0
 31  8  1  0  0  0
 29  3  1  0  0  0
 14  9  1  0  0  0
 31 15  1  0  0  0
 21 16  1  0  0  0
 30 22  1  0  0  0
 28 23  1  0  0  0
 34 35  1  0  0  0
 18 32  1  0  0  0
M  END
> <minimizedAffinity>
85.64034

> <CNNscore>
0.1407697648

> <CNNaffinity>
5.8052306175

> <CNN_VS>
0.8172009587

> <CNNaffinity_variance>
0.9810919762

$$$$
[H]c1c([H])c([H])c2c(c1[H])c1c3c(c4c5c([H])c([H])c([H])c([H])c5n5c4c1n2[C@@]1(C([H])([H])[H])O[C@]5([H])C([H])([H])[C@]([H])(N([H])C([H])([H])[H])[C@]1([H])OC([H])([H])[H])C(=O)N([H])C3([H])[H]


 37 44  0  0  0  0  0  0  0  0999 V2000
   26.1446    8.3198   52.8282 C   0  0  0  0  0  0  0  0  0  0  0  0
   26.6226    6.9077   53.1044 C   0  0  0  0  0  0  0  0  0  0  0  0
   26.0740    6.3679   54.3949 C   0  0  0  0  0  0  0  0  0  0  0  0
   25.8754    7.2201   55.3972 O   0  0  0  0  0  0  0  0  0  0  0  0
   25.3697    8.4995   55.1448 C   0  0  0  0  0  0  0  0  0  0  0  0
   25.6184    9.2131   56.4614 C   0  0  0  0  0  0  0  0  0  0  0  0
   26.2897    9.0895   54.0969 C   0  0  0  0  0  0  0  0  0  0  0  0
   23.9723    8.4500   54.7826 N   0  0  0  0  0  0  0  0  0  0  0  0
   23.0980    9.4750   54.9339 C   0  0  0  0  0  0  0  0  0  0  0  0
   23.2278   10.7701   55.3361 C   0  0  0  0  0  0  0  0  0  0  0  0
   22.1510   11.6576   55.4003 C   0  0  0  0  0  0  0  0  0  0  0  0
   20.8939   11.2468   55.0510 C   0  0  0  0  0  0  0  0  0  0  0  0
   20.7516    9.9474   54.6438 C   0  0  0  0  0  0  0  0  0  0  0  0
   21.8066    9.0634   54.5768 C   0  0  0  0  0  0  0  0  0  0  0  0
   21.9105    7.7515   54.1942 C   0  0  0  0  0  0  0  0  0  0  0  0
   20.9723    6.8447   53.7467 C   0  0  0  0  0  0  0  0  0  0  0  0
   19.5112    6.9837   53.5302 C   0  0  0  0  0  0  0  0  0  0  0  0
   19.0814    5.7081   53.0640 N   0  0  0  0  0  0  0  0  0  0  0  0
   20.1999    4.8044   52.9807 C   0  0  0  0  0  0  0  0  0  0  0  0
   20.0597    3.6369   52.5954 O   0  0  0  0  0  0  0  0  0  0  0  0
   21.3664    5.5434   53.4135 C   0  0  0  0  0  0  0  0  0  0  0  0
   22.7140    5.2113   53.5474 C   0  0  0  0  0  0  0  0  0  0  0  0
   23.4582    4.0619   53.2898 C   0  0  0  0  0  0  0  0  0  0  0  0
   23.1266    2.8301   52.8369 C   0  0  0  0  0  0  0  0  0  0  0  0
   24.1415    1.8687   52.6824 C   0  0  0  0  0  0  0  0  0  0  0  0
   25.4395    2.1748   52.9850 C   0  0  0  0  0  0  0  0  0  0  0  0
   25.7972    3.4203   53.4465 C   0  0  0  0  0  0  0  0  0  0  0  0
   24.7889    4.3571   53.5940 C   0  0  0  0  0  0  0  0  0  0  0  0
   24.8567    5.6259   54.0187 N   0  0  0  0  0  0  0  0  0  0  0  0
   23.6289    6.1494   54.0009 C   0  0  0  0  0  0  0  0  0  0  0  0
   23.2058    7.4100   54.3216 C   0  0  0  0  0  0  0  0  0  0  0  0
   18.0956    5.4814   52.8234 H   0  0  0  0  0  0  0  0  0  0  0  0
   27.9047    9.4801   51.5929 C   0  0  0  0  0  0  0  0  0  0  0  0
   26.6477    8.8548   51.6465 N   0  0  0  0  0  0  0  0  0  0  0  0
   25.9666    9.3577   51.0393 H   0  0  0  0  0  0  0  0  0  0  0  0
   27.5732    8.8738   54.5718 O   0  0  0  0  0  0  0  0  0  0  0  0
   27.9418    9.4508   55.7393 C   0  0  0  0  0  0  0  0  0  0  0  0
 33 34  1  0  0  0
 34  1  1  0  0  0
  1  2  1  0  0  0
  2  3  1  0  0  0
  3  4  1  0  0  0
  4  5  1  0  0  0
  5  6  1  0  0  0
  5  7  1  0  0  0
  7 36  1  0  0  0
 36 37  1  0  0  0
  5  8  1  0  0  0
  8  9  1  0  0  0
  9 10  2  0  0  0
 10 11  1  0  0  0
 11 12  2  0  0  0
 12 13  1  0  0  0
 13 14  2  0  0  0
 14 15  1  0  0  0
 15 16  2  0  0  0
 16 17  1  0  0  0
 17 18  1  0  0  0
 18 19  1  0  0  0
 19 20  2  0  0  0
 19 21  1  0  0  0
 21 22  2  0  0  0
 22 23  1  0  0  0
 23 24  2  0  0  0
 24 25  1  0  0  0
 25 26  2  0  0  0
 26 27  1  0  0  0
 27 28  2  0  0  0
 28 29  1  0  0  0
 29 30  1  0  0  0
 30 31  2  0  0  0
  7  1  1  0  0  0
 31  8  1  0  0  0
 29  3  1  0  0  0
 14  9  1  0  0  0
 31 15  1  0  0  0
 21 16  1  0  0  0
 30 22  1  0  0  0
 28 23  1  0  0  0
 34 35  1  0  0  0
 18 32  1  0  0  0
M  END
> <minimizedAffinity>
82.79390

> <CNNscore>
0.1066833436

> <CNNaffinity>
6.0301780701

> <CNN_VS>
0.6433195472

> <CNNaffinity_variance>
0.9505432844

$$$$
[H]c1c([H])c([H])c2c(c1[H])c1c3c(c4c5c([H])c([H])c([H])c([H])c5n5c4c1n2[C@@]1(C([H])([H])[H])O[C@]5([H])C([H])([H])[C@]([H])(N([H])C([H])([H])[H])[C@]1([H])OC([H])([H])[H])C(=O)N([H])C3([H])[H]


 37 44  0  0  0  0  0  0  0  0999 V2000
   21.1441    9.4274   53.7358 C   0  0  0  0  0  0  0  0  0  0  0  0
   20.0306    8.5077   53.2744 C   0  0  0  0  0  0  0  0  0  0  0  0
   20.5537    7.3333   52.4967 C   0  0  0  0  0  0  0  0  0  0  0  0
   21.6359    7.5117   51.7434 O   0  0  0  0  0  0  0  0  0  0  0  0
   22.6910    8.3068   52.2025 C   0  0  0  0  0  0  0  0  0  0  0  0
   23.5193    8.5053   50.9461 C   0  0  0  0  0  0  0  0  0  0  0  0
   22.0567    9.6305   52.5744 C   0  0  0  0  0  0  0  0  0  0  0  0
   23.4196    7.6513   53.2636 N   0  0  0  0  0  0  0  0  0  0  0  0
   24.7107    7.9083   53.5877 C   0  0  0  0  0  0  0  0  0  0  0  0
   25.6262    8.8182   53.1525 C   0  0  0  0  0  0  0  0  0  0  0  0
   26.9246    8.8935   53.6623 C   0  0  0  0  0  0  0  0  0  0  0  0
   27.3336    8.0333   54.6440 C   0  0  0  0  0  0  0  0  0  0  0  0
   26.4212    7.1152   55.0903 C   0  0  0  0  0  0  0  0  0  0  0  0
   25.1382    7.0319   54.5947 C   0  0  0  0  0  0  0  0  0  0  0  0
   24.0680    6.2273   54.8875 C   0  0  0  0  0  0  0  0  0  0  0  0
   23.9097    5.1960   55.7897 C   0  0  0  0  0  0  0  0  0  0  0  0
   24.8601    4.5970   56.7587 C   0  0  0  0  0  0  0  0  0  0  0  0
   24.1259    3.5641   57.4096 N   0  0  0  0  0  0  0  0  0  0  0  0
   22.7823    3.5059   56.8937 C   0  0  0  0  0  0  0  0  0  0  0  0
   21.9629    2.6814   57.3177 O   0  0  0  0  0  0  0  0  0  0  0  0
   22.6781    4.5371   55.8839 C   0  0  0  0  0  0  0  0  0  0  0  0
   21.6432    4.9583   55.0497 C   0  0  0  0  0  0  0  0  0  0  0  0
   20.3133    4.5754   54.8878 C   0  0  0  0  0  0  0  0  0  0  0  0
   19.5491    3.6238   55.4735 C   0  0  0  0  0  0  0  0  0  0  0  0
   18.2069    3.4919   55.0747 C   0  0  0  0  0  0  0  0  0  0  0  0
   17.6849    4.3112   54.1122 C   0  0  0  0  0  0  0  0  0  0  0  0
   18.4445    5.2841   53.5049 C   0  0  0  0  0  0  0  0  0  0  0  0
   19.7637    5.4034   53.9066 C   0  0  0  0  0  0  0  0  0  0  0  0
   20.7116    6.2519   53.4864 N   0  0  0  0  0  0  0  0  0  0  0  0
   21.8394    5.9987   54.1543 C   0  0  0  0  0  0  0  0  0  0  0  0
   23.0583    6.6155   54.0872 C   0  0  0  0  0  0  0  0  0  0  0  0
   24.5217    2.9503   58.1495 H   0  0  0  0  0  0  0  0  0  0  0  0
   21.0350   10.7415   55.7929 C   0  0  0  0  0  0  0  0  0  0  0  0
   20.6909   10.5343   54.4466 N   0  0  0  0  0  0  0  0  0  0  0  0
   19.7038   10.8211   54.2765 H   0  0  0  0  0  0  0  0  0  0  0  0
   21.2754    9.9820   51.4856 O   0  0  0  0  0  0  0  0  0  0  0  0
   21.2083   11.2847   51.1248 C   0  0  0  0  0  0  0  0  0  0  0  0
 33 34  1  0  0  0
 34  1  1  0  0  0
  1  2  1  0  0  0
  2  3  1  0  0  0
  3  4  1  0  0  0
  4  5  1  0  0  0
  5  6  1  0  0  0
  5  7  1  0  0  0
  7 36  1  0  0  0
 36 37  1  0  0  0
  5  8  1  0  0  0
  8  9  1  0  0  0
  9 10  2  0  0  0
 10 11  1  0  0  0
 11 12  2  0  0  0
 12 13  1  0  0  0
 13 14  2  0  0  0
 14 15  1  0  0  0
 15 16  2  0  0  0
 16 17  1  0  0  0
 17 18  1  0  0  0
 18 19  1  0  0  0
 19 20  2  0  0  0
 19 21  1  0  0  0
 21 22  2  0  0  0
 22 23  1  0  0  0
 23 24  2  0  0  0
 24 25  1  0  0  0
 25 26  2  0  0  0
 26 27  1  0  0  0
 27 28  2  0  0  0
 28 29  1  0  0  0
 29 30  1  0  0  0
 30 31  2  0  0  0
  7  1  1  0  0  0
 31  8  1  0  0  0
 29  3  1  0  0  0
 14  9  1  0  0  0
 31 15  1  0  0  0
 21 16  1  0  0  0
 30 22  1  0  0  0
 28 23  1  0  0  0
 34 35  1  0  0  0
 18 32  1  0  0  0
M  END
> <minimizedAffinity>
78.74661

> <CNNscore>
0.1065461785

> <CNNaffinity>
5.6720685959

> <CNN_VS>
0.6043372154

> <CNNaffinity_variance>
0.7818316817

$$$$
[H]c1c([H])c([H])c2c(c1[H])c1c3c(c4c5c([H])c([H])c([H])c([H])c5n5c4c1n2[C@@]1(C([H])([H])[H])O[C@]5([H])C([H])([H])[C@]([H])(N([H])C([H])([H])[H])[C@]1([H])OC([H])([H])[H])C(=O)N([H])C3([H])[H]


 37 44  0  0  0  0  0  0  0  0999 V2000
   25.5570    7.8401   54.0624 C   0  0  0  0  0  0  0  0  0  0  0  0
   25.6161    7.1143   55.3922 C   0  0  0  0  0  0  0  0  0  0  0  0
   24.4351    7.4354   56.2639 C   0  0  0  0  0  0  0  0  0  0  0  0
   23.9108    8.6558   56.1851 O   0  0  0  0  0  0  0  0  0  0  0  0
   23.7958    9.2948   54.9463 C   0  0  0  0  0  0  0  0  0  0  0  0
   23.4830   10.7254   55.3460 C   0  0  0  0  0  0  0  0  0  0  0  0
   25.1869    9.2555   54.3496 C   0  0  0  0  0  0  0  0  0  0  0  0
   22.7602    8.6930   54.1389 N   0  0  0  0  0  0  0  0  0  0  0  0
   22.0929    9.3243   53.1418 C   0  0  0  0  0  0  0  0  0  0  0  0
   22.2106   10.5509   52.5611 C   0  0  0  0  0  0  0  0  0  0  0  0
   21.3898   10.9783   51.5147 C   0  0  0  0  0  0  0  0  0  0  0  0
   20.4128   10.1576   51.0220 C   0  0  0  0  0  0  0  0  0  0  0  0
   20.2861    8.9216   51.5971 C   0  0  0  0  0  0  0  0  0  0  0  0
   21.0900    8.4896   52.6296 C   0  0  0  0  0  0  0  0  0  0  0  0
   21.1615    7.3188   53.3383 C   0  0  0  0  0  0  0  0  0  0  0  0
   20.4298    6.1517   53.2666 C   0  0  0  0  0  0  0  0  0  0  0  0
   19.2980    5.7657   52.3884 C   0  0  0  0  0  0  0  0  0  0  0  0
   18.9560    4.4405   52.7836 N   0  0  0  0  0  0  0  0  0  0  0  0
   19.8195    3.9987   53.8485 C   0  0  0  0  0  0  0  0  0  0  0  0
   19.7044    2.8727   54.3483 O   0  0  0  0  0  0  0  0  0  0  0  0
   20.7289    5.0892   54.1277 C   0  0  0  0  0  0  0  0  0  0  0  0
   21.7731    5.2553   55.0368 C   0  0  0  0  0  0  0  0  0  0  0  0
   22.3605    4.4344   55.9972 C   0  0  0  0  0  0  0  0  0  0  0  0
   22.1034    3.1727   56.4147 C   0  0  0  0  0  0  0  0  0  0  0  0
   22.9031    2.6186   57.4303 C   0  0  0  0  0  0  0  0  0  0  0  0
   23.9218    3.3431   57.9849 C   0  0  0  0  0  0  0  0  0  0  0  0
   24.1993    4.6265   57.5748 C   0  0  0  0  0  0  0  0  0  0  0  0
   23.4048    5.1599   56.5748 C   0  0  0  0  0  0  0  0  0  0  0  0
   23.4541    6.3677   55.9970 N   0  0  0  0  0  0  0  0  0  0  0  0
   22.4865    6.4435   55.0804 C   0  0  0  0  0  0  0  0  0  0  0  0
   22.1622    7.4615   54.2264 C   0  0  0  0  0  0  0  0  0  0  0  0
   18.1886    3.8873   52.3522 H   0  0  0  0  0  0  0  0  0  0  0  0
   27.3261    8.6000   52.5579 C   0  0  0  0  0  0  0  0  0  0  0  0
   26.6454    7.5756   53.2370 N   0  0  0  0  0  0  0  0  0  0  0  0
   26.5754    6.7269   52.6366 H   0  0  0  0  0  0  0  0  0  0  0  0
   26.0287    9.7125   55.3507 O   0  0  0  0  0  0  0  0  0  0  0  0
   27.2638    9.1703   55.4617 C   0  0  0  0  0  0  0  0  0  0  0  0
 33 34  1  0  0  0
 34  1  1  0  0  0
  1  2  1  0  0  0
  2  3  1  0  0  0
  3  4  1  0  0  0
  4  5  1  0  0  0
  5  6  1  0  0  0
  5  7  1  0  0  0
  7 36  1  0  0  0
 36 37  1  0  0  0
  5  8  1  0  0  0
  8  9  1  0  0  0
  9 10  2  0  0  0
 10 11  1  0  0  0
 11 12  2  0  0  0
 12 13  1  0  0  0
 13 14  2  0  0  0
 14 15  1  0  0  0
 15 16  2  0  0  0
 16 17  1  0  0  0
 17 18  1  0  0  0
 18 19  1  0  0  0
 19 20  2  0  0  0
 19 21  1  0  0  0
 21 22  2  0  0  0
 22 23  1  0  0  0
 23 24  2  0  0  0
 24 25  1  0  0  0
 25 26  2  0  0  0
 26 27  1  0  0  0
 27 28  2  0  0  0
 28 29  1  0  0  0
 29 30  1  0  0  0
 30 31  2  0  0  0
  7  1  1  0  0  0
 31  8  1  0  0  0
 29  3  1  0  0  0
 14  9  1  0  0  0
 31 15  1  0  0  0
 21 16  1  0  0  0
 30 22  1  0  0  0
 28 23  1  0  0  0
 34 35  1  0  0  0
 18 32  1  0  0  0
M  END
> <minimizedAffinity>
85.38256

> <CNNscore>
0.1033324748

> <CNNaffinity>
5.8244848251

> <CNN_VS>
0.6018584371

> <CNNaffinity_variance>
0.8287404180

$$$$
[H]OC(=O)c1c([H])c([H])c(-c2c([H])c([H])c(N3C(=O)N(c4c([H])c([H])c(C#N)c([H])c4[H])C4(C3=O)C([H])([H])C([H])([H])N(C([H])([H])c3nc([H])c([H])c([H])c3C([H])([H])[H])C([H])([H])C4([H])[H])c([H])c2[H])c([H])c1[H]


 44 49  0  0  0  0  0  0  0  0999 V2000
   25.4856    8.2154   54.3919 N   0  0  0  0  0  0  0  0  0  0  0  0
   24.9520    8.5893   53.0769 C   0  0  0  0  0  0  0  0  0  0  0  0
   23.9571    7.6294   52.5284 C   0  0  0  0  0  0  0  0  0  0  0  0
   22.7696    7.4202   53.4382 C   0  0  0  0  0  0  0  0  0  0  0  0
   23.1604    7.5338   54.8810 C   0  0  0  0  0  0  0  0  0  0  0  0
   24.6380    7.1873   54.9755 C   0  0  0  0  0  0  0  0  0  0  0  0
   21.6597    8.2988   53.1534 N   0  0  0  0  0  0  0  0  0  0  0  0
   20.4620    7.5086   53.2531 C   0  0  0  0  0  0  0  0  0  0  0  0
   19.2807    7.9168   53.3535 O   0  0  0  0  0  0  0  0  0  0  0  0
   20.7928    6.1073   53.2227 N   0  0  0  0  0  0  0  0  0  0  0  0
   22.2076    6.0627   53.1049 C   0  0  0  0  0  0  0  0  0  0  0  0
   22.9256    5.0940   52.7834 O   0  0  0  0  0  0  0  0  0  0  0  0
   19.8713    5.0279   53.2859 C   0  0  0  0  0  0  0  0  0  0  0  0
   18.6287    5.1896   53.9047 C   0  0  0  0  0  0  0  0  0  0  0  0
   17.6945    4.2100   54.0014 C   0  0  0  0  0  0  0  0  0  0  0  0
   17.9503    2.9625   53.4667 C   0  0  0  0  0  0  0  0  0  0  0  0
   19.1580    2.7573   52.8495 C   0  0  0  0  0  0  0  0  0  0  0  0
   20.1091    3.7811   52.7607 C   0  0  0  0  0  0  0  0  0  0  0  0
   16.9952    1.8730   53.5398 C   0  0  0  0  0  0  0  0  0  0  0  0
   15.6653    2.0902   53.8145 C   0  0  0  0  0  0  0  0  0  0  0  0
   14.7604    1.0377   53.8796 C   0  0  0  0  0  0  0  0  0  0  0  0
   15.1474   -0.2659   53.6744 C   0  0  0  0  0  0  0  0  0  0  0  0
   16.4998   -0.4815   53.3963 C   0  0  0  0  0  0  0  0  0  0  0  0
   17.3958    0.5583   53.3310 C   0  0  0  0  0  0  0  0  0  0  0  0
   14.2138   -1.3669   53.7382 C   0  0  0  0  0  0  0  0  0  0  0  0
   13.8366   -1.8703   54.9618 O   0  0  0  0  0  0  0  0  0  0  0  0
   13.7427   -1.8706   52.6961 O   0  0  0  0  0  0  0  0  0  0  0  0
   13.7037   -1.3077   55.7929 H   0  0  0  0  0  0  0  0  0  0  0  0
   21.6746    9.6728   52.8201 C   0  0  0  0  0  0  0  0  0  0  0  0
   21.4313   10.0566   51.5022 C   0  0  0  0  0  0  0  0  0  0  0  0
   21.4210   11.3553   51.0807 C   0  0  0  0  0  0  0  0  0  0  0  0
   21.6681   12.3714   52.0112 C   0  0  0  0  0  0  0  0  0  0  0  0
   21.9129   12.0238   53.3261 C   0  0  0  0  0  0  0  0  0  0  0  0
   21.9145   10.6846   53.7204 C   0  0  0  0  0  0  0  0  0  0  0  0
   21.6552   13.7308   51.5534 C   0  0  0  0  0  0  0  0  0  0  0  0
   21.6658   14.8408   51.1795 N   0  0  0  0  0  0  0  0  0  0  0  0
   25.6103    9.3914   55.1984 C   0  0  0  0  0  0  0  0  0  0  0  0
   28.2055    8.6868   54.3275 C   0  0  0  0  0  0  0  0  0  0  0  0
   27.9835    9.0343   55.7501 C   0  0  0  0  0  0  0  0  0  0  0  0
   28.9932    9.0168   56.6765 C   0  0  0  0  0  0  0  0  0  0  0  0
   28.8174    9.3381   58.0074 C   0  0  0  0  0  0  0  0  0  0  0  0
   27.5360    9.6928   58.3920 C   0  0  0  0  0  0  0  0  0  0  0  0
   26.5468    9.7104   57.4864 N   0  0  0  0  0  0  0  0  0  0  0  0
   26.6968    9.4016   56.1889 C   0  0  0  0  0  0  0  0  0  0  0  0
 38 39  1  0  0  0
 39 40  2  0  0  0
 40 41  1  0  0  0
 41 42  2  0  0  0
 42 43  1  0  0  0
 43 44  2  0  0  0
 44 37  1  0  0  0
 37  1  1  0  0  0
  1  2  1  0  0  0
  2  3  1  0  0  0
  3  4  1  0  0  0
  4  5  1  0  0  0
  5  6  1  0  0  0
  4  7  1  0  0  0
  7  8  1  0  0  0
  8  9  2  0  0  0
  8 10  1  0  0  0
 10 11  1  0  0  0
 11 12  2  0  0  0
 10 13  1  0  0  0
 13 14  2  0  0  0
 14 15  1  0  0  0
 15 16  2  0  0  0
 16 17  1  0  0  0
 17 18  2  0  0  0
 16 19  1  0  0  0
 19 20  2  0  0  0
 20 21  1  0  0  0
 21 22  2  0  0  0
 22 23  1  0  0  0
 23 24  2  0  0  0
 22 25  1  0  0  0
 25 26  1  0  0  0
 25 27  2  0  0  0
  7 29  1  0  0  0
 29 30  2  0  0  0
 30 31  1  0  0  0
 31 32  2  0  0  0
 32 33  1  0  0  0
 33 34  2  0  0  0
 32 35  1  0  0  0
 35 36  3  0  0  0
 44 39  1  0  0  0
  6  1  1  0  0  0
 18 13  1  0  0  0
 24 19  1  0  0  0
 34 29  1  0  0  0
 11  4  1  0  0  0
 26 28  1  0  0  0
M  END
> <minimizedAffinity>
70.03217

> <CNNscore>
0.3826492131

> <CNNaffinity>
6.6124868393

> <CNN_VS>
2.5302629471

> <CNNaffinity_variance>
0.1433769017

$$$$
[H]OC(=O)c1c([H])c([H])c(-c2c([H])c([H])c(N3C(=O)N(c4c([H])c([H])c(C#N)c([H])c4[H])C4(C3=O)C([H])([H])C([H])([H])N(C([H])([H])c3nc([H])c([H])c([H])c3C([H])([H])[H])C([H])([H])C4([H])[H])c([H])c2[H])c([H])c1[H]


 44 49  0  0  0  0  0  0  0  0999 V2000
   28.1794    9.1111   56.7891 N   0  0  0  0  0  0  0  0  0  0  0  0
   28.5625    8.4197   55.5525 C   0  0  0  0  0  0  0  0  0  0  0  0
   27.5397    7.4655   55.0468 C   0  0  0  0  0  0  0  0  0  0  0  0
   26.1998    8.1133   54.7879 C   0  0  0  0  0  0  0  0  0  0  0  0
   25.9398    9.2333   55.7498 C   0  0  0  0  0  0  0  0  0  0  0  0
   26.7502    8.9464   57.0041 C   0  0  0  0  0  0  0  0  0  0  0  0
   26.0323    8.5753   53.4303 N   0  0  0  0  0  0  0  0  0  0  0  0
   24.6922    8.2357   53.0331 C   0  0  0  0  0  0  0  0  0  0  0  0
   24.0457    8.6829   52.0563 O   0  0  0  0  0  0  0  0  0  0  0  0
   24.1416    7.2625   53.9408 N   0  0  0  0  0  0  0  0  0  0  0  0
   25.1678    7.0207   54.8927 C   0  0  0  0  0  0  0  0  0  0  0  0
   25.2591    6.0801   55.7076 O   0  0  0  0  0  0  0  0  0  0  0  0
   22.8478    6.6811   53.8610 C   0  0  0  0  0  0  0  0  0  0  0  0
   21.7058    7.4866   53.8560 C   0  0  0  0  0  0  0  0  0  0  0  0
   20.4383    7.0079   53.7777 C   0  0  0  0  0  0  0  0  0  0  0  0
   20.2228    5.6462   53.6959 C   0  0  0  0  0  0  0  0  0  0  0  0
   21.3148    4.8161   53.6978 C   0  0  0  0  0  0  0  0  0  0  0  0
   22.6149    5.3298   53.7799 C   0  0  0  0  0  0  0  0  0  0  0  0
   18.8933    5.0716   53.6132 C   0  0  0  0  0  0  0  0  0  0  0  0
   17.7621    5.8257   53.8197 C   0  0  0  0  0  0  0  0  0  0  0  0
   16.4942    5.2634   53.7355 C   0  0  0  0  0  0  0  0  0  0  0  0
   16.3086    3.9323   53.4437 C   0  0  0  0  0  0  0  0  0  0  0  0
   17.4612    3.1700   53.2354 C   0  0  0  0  0  0  0  0  0  0  0  0
   18.7156    3.7248   53.3178 C   0  0  0  0  0  0  0  0  0  0  0  0
   14.9945    3.3385   53.3521 C   0  0  0  0  0  0  0  0  0  0  0  0
   13.9060    4.1325   53.0738 O   0  0  0  0  0  0  0  0  0  0  0  0
   14.8310    2.1114   53.5225 O   0  0  0  0  0  0  0  0  0  0  0  0
   13.9264    4.9287   52.4488 H   0  0  0  0  0  0  0  0  0  0  0  0
   26.9641    9.2279   52.5905 C   0  0  0  0  0  0  0  0  0  0  0  0
   26.8215    9.1275   51.2074 C   0  0  0  0  0  0  0  0  0  0  0  0
   27.6652    9.7219   50.3134 C   0  0  0  0  0  0  0  0  0  0  0  0
   28.7403   10.4775   50.7959 C   0  0  0  0  0  0  0  0  0  0  0  0
   28.9094   10.5964   52.1623 C   0  0  0  0  0  0  0  0  0  0  0  0
   28.0254    9.9747   53.0462 C   0  0  0  0  0  0  0  0  0  0  0  0
   29.6189   11.0948   49.8449 C   0  0  0  0  0  0  0  0  0  0  0  0
   30.3203   11.6108   49.0614 N   0  0  0  0  0  0  0  0  0  0  0  0
   28.6010   10.4768   56.7119 C   0  0  0  0  0  0  0  0  0  0  0  0
   29.3461    9.1726   59.1064 C   0  0  0  0  0  0  0  0  0  0  0  0
   28.9202   10.5905   59.1510 C   0  0  0  0  0  0  0  0  0  0  0  0
   28.8596   11.3026   60.3203 C   0  0  0  0  0  0  0  0  0  0  0  0
   28.4695   12.6248   60.3927 C   0  0  0  0  0  0  0  0  0  0  0  0
   28.1273   13.2330   59.1974 C   0  0  0  0  0  0  0  0  0  0  0  0
   28.1862   12.5372   58.0523 N   0  0  0  0  0  0  0  0  0  0  0  0
   28.5623   11.2522   57.9605 C   0  0  0  0  0  0  0  0  0  0  0  0
 38 39  1  0  0  0
 39 40  2  0  0  0
 40 41  1  0  0  0
 41 42  2  0  0  0
 42 43  1  0  0  0
 43 44  2  0  0  0
 44 37  1  0  0  0
 37  1  1  0  0  0
  1  2  1  0  0  0
  2  3  1  0  0  0
  3  4  1  0  0  0
  4  5  1  0  0  0
  5  6  1  0  0  0
  4  7  1  0  0  0
  7  8  1  0  0  0
  8  9  2  0  0  0
  8 10  1  0  0  0
 10 11  1  0  0  0
 11 12  2  0  0  0
 10 13  1  0  0  0
 13 14  2  0  0  0
 14 15  1  0  0  0
 15 16  2  0  0  0
 16 17  1  0  0  0
 17 18  2  0  0  0
 16 19  1  0  0  0
 19 20  2  0  0  0
 20 21  1  0  0  0
 21 22  2  0  0  0
 22 23  1  0  0  0
 23 24  2  0  0  0
 22 25  1  0  0  0
 25 26  1  0  0  0
 25 27  2  0  0  0
  7 29  1  0  0  0
 29 30  2  0  0  0
 30 31  1  0  0  0
 31 32  2  0  0  0
 32 33  1  0  0  0
 33 34  2  0  0  0
 32 35  1  0  0  0
 35 36  3  0  0  0
 44 39  1  0  0  0
  6  1  1  0  0  0
 18 13  1  0  0  0
 24 19  1  0  0  0
 34 29  1  0  0  0
 11  4  1  0  0  0
 26 28  1  0  0  0
M  END
> <minimizedAffinity>
58.75204

> <CNNscore>
0.2597382963

> <CNNaffinity>
6.3309240341

> <CNN_VS>
1.6443834305

> <CNNaffinity_variance>
0.3680129051

$$$$
[H]OC(=O)c1c([H])c([H])c(-c2c([H])c([H])c(N3C(=O)N(c4c([H])c([H])c(C#N)c([H])c4[H])C4(C3=O)C([H])([H])C([H])([H])N(C([H])([H])c3nc([H])c([H])c([H])c3C([H])([H])[H])C([H])([H])C4([H])[H])c([H])c2[H])c([H])c1[H]


 44 49  0  0  0  0  0  0  0  0999 V2000
   30.4611    8.6973   60.7715 N   0  0  0  0  0  0  0  0  0  0  0  0
   30.9477    9.6945   59.8109 C   0  0  0  0  0  0  0  0  0  0  0  0
   30.2527    9.6630   58.4963 C   0  0  0  0  0  0  0  0  0  0  0  0
   28.7590    9.8580   58.6095 C   0  0  0  0  0  0  0  0  0  0  0  0
   28.2275    9.2769   59.8850 C   0  0  0  0  0  0  0  0  0  0  0  0
   29.1845    8.1743   60.3102 C   0  0  0  0  0  0  0  0  0  0  0  0
   28.3429   11.2345   58.4792 N   0  0  0  0  0  0  0  0  0  0  0  0
   27.1582   11.2400   57.6636 C   0  0  0  0  0  0  0  0  0  0  0  0
   26.3258   12.1678   57.5273 O   0  0  0  0  0  0  0  0  0  0  0  0
   27.0272    9.9806   56.9774 N   0  0  0  0  0  0  0  0  0  0  0  0
   28.1488    9.2139   57.3918 C   0  0  0  0  0  0  0  0  0  0  0  0
   28.6050    8.1725   56.8774 O   0  0  0  0  0  0  0  0  0  0  0  0
   25.9898    9.6227   56.0752 C   0  0  0  0  0  0  0  0  0  0  0  0
   24.6748   10.0369   56.3037 C   0  0  0  0  0  0  0  0  0  0  0  0
   23.6317    9.7403   55.4879 C   0  0  0  0  0  0  0  0  0  0  0  0
   23.8429    8.9849   54.3510 C   0  0  0  0  0  0  0  0  0  0  0  0
   25.1184    8.5555   54.0860 C   0  0  0  0  0  0  0  0  0  0  0  0
   26.1813    8.8719   54.9409 C   0  0  0  0  0  0  0  0  0  0  0  0
   22.7702    8.6312   53.4407 C   0  0  0  0  0  0  0  0  0  0  0  0
   21.8368    7.6717   53.7557 C   0  0  0  0  0  0  0  0  0  0  0  0
   20.8130    7.3438   52.8754 C   0  0  0  0  0  0  0  0  0  0  0  0
   20.6831    7.9585   51.6520 C   0  0  0  0  0  0  0  0  0  0  0  0
   21.6343    8.9323   51.3362 C   0  0  0  0  0  0  0  0  0  0  0  0
   22.6470    9.2580   52.2059 C   0  0  0  0  0  0  0  0  0  0  0  0
   19.6211    7.6260   50.7304 C   0  0  0  0  0  0  0  0  0  0  0  0
   18.3174    7.6117   51.1698 O   0  0  0  0  0  0  0  0  0  0  0  0
   19.8692    7.3501   49.5371 O   0  0  0  0  0  0  0  0  0  0  0  0
   17.9393    8.2560   51.8530 H   0  0  0  0  0  0  0  0  0  0  0  0
   28.9426   12.3999   59.0098 C   0  0  0  0  0  0  0  0  0  0  0  0
   30.2478   12.3337   59.4950 C   0  0  0  0  0  0  0  0  0  0  0  0
   30.9150   13.4015   60.0232 C   0  0  0  0  0  0  0  0  0  0  0  0
   30.2661   14.6400   60.0902 C   0  0  0  0  0  0  0  0  0  0  0  0
   28.9713   14.7387   59.6174 C   0  0  0  0  0  0  0  0  0  0  0  0
   28.3213   13.6248   59.0830 C   0  0  0  0  0  0  0  0  0  0  0  0
   30.9792   15.7522   60.6488 C   0  0  0  0  0  0  0  0  0  0  0  0
   31.5569   16.6534   61.1243 N   0  0  0  0  0  0  0  0  0  0  0  0
   30.4094    9.2882   62.0743 C   0  0  0  0  0  0  0  0  0  0  0  0
   32.0033   11.6102   62.3158 C   0  0  0  0  0  0  0  0  0  0  0  0
   30.5274   11.7356   62.3207 C   0  0  0  0  0  0  0  0  0  0  0  0
   29.8935   12.9435   62.4513 C   0  0  0  0  0  0  0  0  0  0  0  0
   28.5211   13.0918   62.4565 C   0  0  0  0  0  0  0  0  0  0  0  0
   27.7753   11.9339   62.3204 C   0  0  0  0  0  0  0  0  0  0  0  0
   28.3944   10.7509   62.1926 N   0  0  0  0  0  0  0  0  0  0  0  0
   29.7263   10.5854   62.1852 C   0  0  0  0  0  0  0  0  0  0  0  0
 38 39  1  0  0  0
 39 40  2  0  0  0
 40 41  1  0  0  0
 41 42  2  0  0  0
 42 43  1  0  0  0
 43 44  2  0  0  0
 44 37  1  0  0  0
 37  1  1  0  0  0
  1  2  1  0  0  0
  2  3  1  0  0  0
  3  4  1  0  0  0
  4  5  1  0  0  0
  5  6  1  0  0  0
  4  7  1  0  0  0
  7  8  1  0  0  0
  8  9  2  0  0  0
  8 10  1  0  0  0
 10 11  1  0  0  0
 11 12  2  0  0  0
 10 13  1  0  0  0
 13 14  2  0  0  0
 14 15  1  0  0  0
 15 16  2  0  0  0
 16 17  1  0  0  0
 17 18  2  0  0  0
 16 19  1  0  0  0
 19 20  2  0  0  0
 20 21  1  0  0  0
 21 22  2  0  0  0
 22 23  1  0  0  0
 23 24  2  0  0  0
 22 25  1  0  0  0
 25 26  1  0  0  0
 25 27  2  0  0  0
  7 29  1  0  0  0
 29 30  2  0  0  0
 30 31  1  0  0  0
 31 32  2  0  0  0
 32 33  1  0  0  0
 33 34  2  0  0  0
 32 35  1  0  0  0
 35 36  3  0  0  0
 44 39  1  0  0  0
  6  1  1  0  0  0
 18 13  1  0  0  0
 24 19  1  0  0  0
 34 29  1  0  0  0
 11  4  1  0  0  0
 26 28  1  0  0  0
M  END
> <minimizedAffinity>
39.45584

> <CNNscore>
0.2560822070

> <CNNaffinity>
6.1425986290

> <CNN_VS>
1.5730102062

> <CNNaffinity_variance>
1.2454049587

$$$$
[H]OC(=O)c1c([H])c([H])c(-c2c([H])c([H])c(N3C(=O)N(c4c([H])c([H])c(C#N)c([H])c4[H])C4(C3=O)C([H])([H])C([H])([H])N(C([H])([H])c3nc([H])c([H])c([H])c3C([H])([H])[H])C([H])([H])C4([H])[H])c([H])c2[H])c([H])c1[H]


 44 49  0  0  0  0  0  0  0  0999 V2000
   20.3265    9.2899   50.5205 N   0  0  0  0  0  0  0  0  0  0  0  0
   20.7013    7.8766   50.6471 C   0  0  0  0  0  0  0  0  0  0  0  0
   21.9803    7.6487   51.3713 C   0  0  0  0  0  0  0  0  0  0  0  0
   21.9844    8.2284   52.7662 C   0  0  0  0  0  0  0  0  0  0  0  0
   21.1559    9.4755   52.8417 C   0  0  0  0  0  0  0  0  0  0  0  0
   21.1236   10.0793   51.4465 C   0  0  0  0  0  0  0  0  0  0  0  0
   21.5676    7.2926   53.7837 N   0  0  0  0  0  0  0  0  0  0  0  0
   22.4455    7.4758   54.9082 C   0  0  0  0  0  0  0  0  0  0  0  0
   22.2777    7.0761   56.0847 O   0  0  0  0  0  0  0  0  0  0  0  0
   23.6131    8.2166   54.5055 N   0  0  0  0  0  0  0  0  0  0  0  0
   23.4266    8.4796   53.1221 C   0  0  0  0  0  0  0  0  0  0  0  0
   24.2733    8.8575   52.2869 O   0  0  0  0  0  0  0  0  0  0  0  0
   24.7047    8.5774   55.3400 C   0  0  0  0  0  0  0  0  0  0  0  0
   24.4966    9.3401   56.4924 C   0  0  0  0  0  0  0  0  0  0  0  0
   25.4850    9.7202   57.3411 C   0  0  0  0  0  0  0  0  0  0  0  0
   26.7904    9.3494   57.0843 C   0  0  0  0  0  0  0  0  0  0  0  0
   27.0426    8.6001   55.9634 C   0  0  0  0  0  0  0  0  0  0  0  0
   26.0087    8.2183   55.0997 C   0  0  0  0  0  0  0  0  0  0  0  0
   27.8918    9.7263   57.9500 C   0  0  0  0  0  0  0  0  0  0  0  0
   28.3399   11.0238   58.0322 C   0  0  0  0  0  0  0  0  0  0  0  0
   29.3946   11.3719   58.8672 C   0  0  0  0  0  0  0  0  0  0  0  0
   30.0396   10.4414   59.6479 C   0  0  0  0  0  0  0  0  0  0  0  0
   29.5811    9.1243   59.5604 C   0  0  0  0  0  0  0  0  0  0  0  0
   28.5379    8.7786   58.7356 C   0  0  0  0  0  0  0  0  0  0  0  0
   31.1361   10.7936   60.5207 C   0  0  0  0  0  0  0  0  0  0  0  0
   31.2611   12.0882   60.9692 O   0  0  0  0  0  0  0  0  0  0  0  0
   31.9750    9.9380   60.8751 O   0  0  0  0  0  0  0  0  0  0  0  0
   30.4798   12.6887   61.2016 H   0  0  0  0  0  0  0  0  0  0  0  0
   20.5203    6.3433   53.7451 C   0  0  0  0  0  0  0  0  0  0  0  0
   19.1988    6.7851   53.7859 C   0  0  0  0  0  0  0  0  0  0  0  0
   18.1191    5.9499   53.7509 C   0  0  0  0  0  0  0  0  0  0  0  0
   18.3333    4.5689   53.6710 C   0  0  0  0  0  0  0  0  0  0  0  0
   19.6321    4.0988   53.6289 C   0  0  0  0  0  0  0  0  0  0  0  0
   20.7115    4.9836   53.6658 C   0  0  0  0  0  0  0  0  0  0  0  0
   17.1895    3.7041   53.6363 C   0  0  0  0  0  0  0  0  0  0  0  0
   16.2633    2.9871   53.6244 N   0  0  0  0  0  0  0  0  0  0  0  0
   18.9142    9.4191   50.7145 C   0  0  0  0  0  0  0  0  0  0  0  0
   16.0928    9.4589   50.8827 C   0  0  0  0  0  0  0  0  0  0  0  0
   16.7669   10.1744   49.7748 C   0  0  0  0  0  0  0  0  0  0  0  0
   16.0717   10.8535   48.8085 C   0  0  0  0  0  0  0  0  0  0  0  0
   16.6719   11.5313   47.7665 C   0  0  0  0  0  0  0  0  0  0  0  0
   18.0551   11.5016   47.7272 C   0  0  0  0  0  0  0  0  0  0  0  0
   18.7368   10.8374   48.6722 N   0  0  0  0  0  0  0  0  0  0  0  0
   18.1728   10.1726   49.6926 C   0  0  0  0  0  0  0  0  0  0  0  0
 38 39  1  0  0  0
 39 40  2  0  0  0
 40 41  1  0  0  0
 41 42  2  0  0  0
 42 43  1  0  0  0
 43 44  2  0  0  0
 44 37  1  0  0  0
 37  1  1  0  0  0
  1  2  1  0  0  0
  2  3  1  0  0  0
  3  4  1  0  0  0
  4  5  1  0  0  0
  5  6  1  0  0  0
  4  7  1  0  0  0
  7  8  1  0  0  0
  8  9  2  0  0  0
  8 10  1  0  0  0
 10 11  1  0  0  0
 11 12  2  0  0  0
 10 13  1  0  0  0
 13 14  2  0  0  0
 14 15  1  0  0  0
 15 16  2  0  0  0
 16 17  1  0  0  0
 17 18  2  0  0  0
 16 19  1  0  0  0
 19 20  2  0  0  0
 20 21  1  0  0  0
 21 22  2  0  0  0
 22 23  1  0  0  0
 23 24  2  0  0  0
 22 25  1  0  0  0
 25 26  1  0  0  0
 25 27  2  0  0  0
  7 29  1  0  0  0
 29 30  2  0  0  0
 30 31  1  0  0  0
 31 32  2  0  0  0
 32 33  1  0  0  0
 33 34  2  0  0  0
 32 35  1  0  0  0
 35 36  3  0  0  0
 44 39  1  0  0  0
  6  1  1  0  0  0
 18 13  1  0  0  0
 24 19  1  0  0  0
 34 29  1  0  0  0
 11  4  1  0  0  0
 26 28  1  0  0  0
M  END
> <minimizedAffinity>
66.48729

> <CNNscore>
0.1930184364

> <CNNaffinity>
5.9440832138

> <CNN_VS>
1.1473176479

> <CNNaffinity_variance>
0.9038957357

$$$$
[H]OC(=O)c1c([H])c([H])c(-c2c([H])c([H])c(N3C(=O)N(c4c([H])c([H])c(C#N)c([H])c4[H])C4(C3=O)C([H])([H])C([H])([H])N(C([H])([H])c3nc([H])c([H])c([H])c3C([H])([H])[H])C([H])([H])C4([H])[H])c([H])c2[H])c([H])c1[H]


 44 49  0  0  0  0  0  0  0  0999 V2000
   20.4543    7.0230   53.7578 N   0  0  0  0  0  0  0  0  0  0  0  0
   21.3266    7.4573   52.6604 C   0  0  0  0  0  0  0  0  0  0  0  0
   22.4021    8.3980   53.0737 C   0  0  0  0  0  0  0  0  0  0  0  0
   23.3009    7.8364   54.1501 C   0  0  0  0  0  0  0  0  0  0  0  0
   22.5469    6.9238   55.0698 C   0  0  0  0  0  0  0  0  0  0  0  0
   21.0872    7.3473   55.0268 C   0  0  0  0  0  0  0  0  0  0  0  0
   24.4721    7.1668   53.6357 N   0  0  0  0  0  0  0  0  0  0  0  0
   25.5772    7.5507   54.4724 C   0  0  0  0  0  0  0  0  0  0  0  0
   26.7018    7.0027   54.5562 O   0  0  0  0  0  0  0  0  0  0  0  0
   25.2247    8.7089   55.2525 N   0  0  0  0  0  0  0  0  0  0  0  0
   23.8904    9.0177   54.8761 C   0  0  0  0  0  0  0  0  0  0  0  0
   23.2542   10.0714   55.0814 O   0  0  0  0  0  0  0  0  0  0  0  0
   26.0646    9.3801   56.1813 C   0  0  0  0  0  0  0  0  0  0  0  0
   25.8233   10.7135   56.5230 C   0  0  0  0  0  0  0  0  0  0  0  0
   26.5758   11.4207   57.4035 C   0  0  0  0  0  0  0  0  0  0  0  0
   27.6551   10.8198   58.0214 C   0  0  0  0  0  0  0  0  0  0  0  0
   27.9304    9.5111   57.7163 C   0  0  0  0  0  0  0  0  0  0  0  0
   27.1420    8.7988   56.8043 C   0  0  0  0  0  0  0  0  0  0  0  0
   28.5001   11.5218   58.9689 C   0  0  0  0  0  0  0  0  0  0  0  0
   28.3410   12.8626   59.2295 C   0  0  0  0  0  0  0  0  0  0  0  0
   29.1560   13.5226   60.1411 C   0  0  0  0  0  0  0  0  0  0  0  0
   30.1568   12.8717   60.8238 C   0  0  0  0  0  0  0  0  0  0  0  0
   30.3149   11.5095   60.5551 C   0  0  0  0  0  0  0  0  0  0  0  0
   29.5094   10.8553   59.6543 C   0  0  0  0  0  0  0  0  0  0  0  0
   31.0083   13.5485   61.7750 C   0  0  0  0  0  0  0  0  0  0  0  0
   31.9952   12.8455   62.4267 O   0  0  0  0  0  0  0  0  0  0  0  0
   30.8615   14.7659   62.0156 O   0  0  0  0  0  0  0  0  0  0  0  0
   32.5373   12.1013   62.0058 H   0  0  0  0  0  0  0  0  0  0  0  0
   24.5863    6.3012   52.5234 C   0  0  0  0  0  0  0  0  0  0  0  0
   23.8589    6.5786   51.3670 C   0  0  0  0  0  0  0  0  0  0  0  0
   23.9027    5.8076   50.2410 C   0  0  0  0  0  0  0  0  0  0  0  0
   24.7180    4.6697   50.2304 C   0  0  0  0  0  0  0  0  0  0  0  0
   25.4520    4.3671   51.3615 C   0  0  0  0  0  0  0  0  0  0  0  0
   25.3823    5.1799   52.4945 C   0  0  0  0  0  0  0  0  0  0  0  0
   24.7527    3.8689   49.0409 C   0  0  0  0  0  0  0  0  0  0  0  0
   24.7601    3.2159   48.0685 N   0  0  0  0  0  0  0  0  0  0  0  0
   20.1563    5.6322   53.5968 C   0  0  0  0  0  0  0  0  0  0  0  0
   19.5487    2.8729   53.5120 C   0  0  0  0  0  0  0  0  0  0  0  0
   18.4624    3.8513   53.7498 C   0  0  0  0  0  0  0  0  0  0  0  0
   17.1567    3.4718   53.9205 C   0  0  0  0  0  0  0  0  0  0  0  0
   16.1241    4.3597   54.1462 C   0  0  0  0  0  0  0  0  0  0  0  0
   16.4638    5.7005   54.1963 C   0  0  0  0  0  0  0  0  0  0  0  0
   17.7413    6.0734   54.0293 N   0  0  0  0  0  0  0  0  0  0  0  0
   18.7590    5.2267   53.8090 C   0  0  0  0  0  0  0  0  0  0  0  0
 38 39  1  0  0  0
 39 40  2  0  0  0
 40 41  1  0  0  0
 41 42  2  0  0  0
 42 43  1  0  0  0
 43 44  2  0  0  0
 44 37  1  0  0  0
 37  1  1  0  0  0
  1  2  1  0  0  0
  2  3  1  0  0  0
  3  4  1  0  0  0
  4  5  1  0  0  0
  5  6  1  0  0  0
  4  7  1  0  0  0
  7  8  1  0  0  0
  8  9  2  0  0  0
  8 10  1  0  0  0
 10 11  1  0  0  0
 11 12  2  0  0  0
 10 13  1  0  0  0
 13 14  2  0  0  0
 14 15  1  0  0  0
 15 16  2  0  0  0
 16 17  1  0  0  0
 17 18  2  0  0  0
 16 19  1  0  0  0
 19 20  2  0  0  0
 20 21  1  0  0  0
 21 22  2  0  0  0
 22 23  1  0  0  0
 23 24  2  0  0  0
 22 25  1  0  0  0
 25 26  1  0  0  0
 25 27  2  0  0  0
  7 29  1  0  0  0
 29 30  2  0  0  0
 30 31  1  0  0  0
 31 32  2  0  0  0
 32 33  1  0  0  0
 33 34  2  0  0  0
 32 35  1  0  0  0
 35 36  3  0  0  0
 44 39  1  0  0  0
  6  1  1  0  0  0
 18 13  1  0  0  0
 24 19  1  0  0  0
 34 29  1  0  0  0
 11  4  1  0  0  0
 26 28  1  0  0  0
M  END
> <minimizedAffinity>
66.33464

> <CNNscore>
0.1540528834

> <CNNaffinity>
5.6506209373

> <CNN_VS>
0.8704944253

> <CNNaffinity_variance>
1.2371752262

$$$$
[H]OC(=O)c1c([H])c([H])c(-c2c([H])c([H])c(N3C(=O)N(c4c([H])c([H])c(C#N)c([H])c4[H])C4(C3=O)C([H])([H])C([H])([H])N(C([H])([H])c3nc([H])c([H])c([H])c3C([H])([H])[H])C([H])([H])C4([H])[H])c([H])c2[H])c([H])c1[H]


 44 49  0  0  0  0  0  0  0  0999 V2000
   25.8486   11.9955   57.0160 N   0  0  0  0  0  0  0  0  0  0  0  0
   24.5633   11.6425   57.6304 C   0  0  0  0  0  0  0  0  0  0  0  0
   23.4566   11.4462   56.6563 C   0  0  0  0  0  0  0  0  0  0  0  0
   23.7546   10.3830   55.6254 C   0  0  0  0  0  0  0  0  0  0  0  0
   25.2166   10.3348   55.2976 C   0  0  0  0  0  0  0  0  0  0  0  0
   25.7891   11.7127   55.5904 C   0  0  0  0  0  0  0  0  0  0  0  0
   23.2847    9.0690   55.9959 N   0  0  0  0  0  0  0  0  0  0  0  0
   22.7171    8.4770   54.8143 C   0  0  0  0  0  0  0  0  0  0  0  0
   22.4477    7.2686   54.6161 O   0  0  0  0  0  0  0  0  0  0  0  0
   22.4776    9.4925   53.8215 N   0  0  0  0  0  0  0  0  0  0  0  0
   22.9104   10.7058   54.4200 C   0  0  0  0  0  0  0  0  0  0  0  0
   22.6672   11.8751   54.0582 O   0  0  0  0  0  0  0  0  0  0  0  0
   21.9142    9.2878   52.5334 C   0  0  0  0  0  0  0  0  0  0  0  0
   22.7370    9.1275   51.4152 C   0  0  0  0  0  0  0  0  0  0  0  0
   22.2759    8.9237   50.1552 C   0  0  0  0  0  0  0  0  0  0  0  0
   20.9156    8.8643   49.9235 C   0  0  0  0  0  0  0  0  0  0  0  0
   20.0690    9.0168   50.9918 C   0  0  0  0  0  0  0  0  0  0  0  0
   20.5647    9.2268   52.2845 C   0  0  0  0  0  0  0  0  0  0  0  0
   20.3596    8.6525   48.6004 C   0  0  0  0  0  0  0  0  0  0  0  0
   20.8325    9.3244   47.4976 C   0  0  0  0  0  0  0  0  0  0  0  0
   20.2923    9.1106   46.2354 C   0  0  0  0  0  0  0  0  0  0  0  0
   19.2634    8.2221   46.0273 C   0  0  0  0  0  0  0  0  0  0  0  0
   18.7859    7.5423   47.1510 C   0  0  0  0  0  0  0  0  0  0  0  0
   19.3194    7.7522   48.3998 C   0  0  0  0  0  0  0  0  0  0  0  0
   18.6961    7.9914   44.7186 C   0  0  0  0  0  0  0  0  0  0  0  0
   17.6263    7.1373   44.5807 O   0  0  0  0  0  0  0  0  0  0  0  0
   19.1635    8.5571   43.7072 O   0  0  0  0  0  0  0  0  0  0  0  0
   16.8801    7.0446   45.2585 H   0  0  0  0  0  0  0  0  0  0  0  0
   23.3281    8.4307   57.2569 C   0  0  0  0  0  0  0  0  0  0  0  0
   22.3444    7.4982   57.5825 C   0  0  0  0  0  0  0  0  0  0  0  0
   22.3000    6.8270   58.7707 C   0  0  0  0  0  0  0  0  0  0  0  0
   23.2898    7.0784   59.7280 C   0  0  0  0  0  0  0  0  0  0  0  0
   24.2794    7.9976   59.4358 C   0  0  0  0  0  0  0  0  0  0  0  0
   24.2927    8.6642   58.2091 C   0  0  0  0  0  0  0  0  0  0  0  0
   23.2294    6.3667   60.9720 C   0  0  0  0  0  0  0  0  0  0  0  0
   23.2010    5.7833   61.9873 N   0  0  0  0  0  0  0  0  0  0  0  0
   26.8999   11.3065   57.7009 C   0  0  0  0  0  0  0  0  0  0  0  0
   24.7693   10.9892   59.5312 C   0  0  0  0  0  0  0  0  0  0  0  0
   26.0618   11.5360   60.0050 C   0  0  0  0  0  0  0  0  0  0  0  0
   26.2674   11.9109   61.3070 C   0  0  0  0  0  0  0  0  0  0  0  0
   27.4607   12.4206   61.7780 C   0  0  0  0  0  0  0  0  0  0  0  0
   28.4846   12.5463   60.8553 C   0  0  0  0  0  0  0  0  0  0  0  0
   28.2846   12.1798   59.5806 N   0  0  0  0  0  0  0  0  0  0  0  0
   27.1332   11.6827   59.1029 C   0  0  0  0  0  0  0  0  0  0  0  0
 38 39  1  0  0  0
 39 40  2  0  0  0
 40 41  1  0  0  0
 41 42  2  0  0  0
 42 43  1  0  0  0
 43 44  2  0  0  0
 44 37  1  0  0  0
 37  1  1  0  0  0
  1  2  1  0  0  0
  2  3  1  0  0  0
  3  4  1  0  0  0
  4  5  1  0  0  0
  5  6  1  0  0  0
  4  7  1  0  0  0
  7  8  1  0  0  0
  8  9  2  0  0  0
  8 10  1  0  0  0
 10 11  1  0  0  0
 11 12  2  0  0  0
 10 13  1  0  0  0
 13 14  2  0  0  0
 14 15  1  0  0  0
 15 16  2  0  0  0
 16 17  1  0  0  0
 17 18  2  0  0  0
 16 19  1  0  0  0
 19 20  2  0  0  0
 20 21  1  0  0  0
 21 22  2  0  0  0
 22 23  1  0  0  0
 23 24  2  0  0  0
 22 25  1  0  0  0
 25 26  1  0  0  0
 25 27  2  0  0  0
  7 29  1  0  0  0
 29 30  2  0  0  0
 30 31  1  0  0  0
 31 32  2  0  0  0
 32 33  1  0  0  0
 33 34  2  0  0  0
 32 35  1  0  0  0
 35 36  3  0  0  0
 44 39  1  0  0  0
  6  1  1  0  0  0
 18 13  1  0  0  0
 24 19  1  0  0  0
 34 29  1  0  0  0
 11  4  1  0  0  0
 26 28  1  0  0  0
M  END
> <minimizedAffinity>
223.23929

> <CNNscore>
0.1410304457

> <CNNaffinity>
4.5534844398

> <CNN_VS>
0.6421799660

> <CNNaffinity_variance>
1.9274022579

$$$$
[H]OC(=O)c1c([H])c([H])c(-c2c([H])c([H])c(N3C(=O)N(c4c([H])c([H])c(C#N)c([H])c4[H])C4(C3=O)C([H])([H])C([H])([H])N(C([H])([H])c3nc([H])c([H])c([H])c3C([H])([H])[H])C([H])([H])C4([H])[H])c([H])c2[H])c([H])c1[H]


 44 49  0  0  0  0  0  0  0  0999 V2000
   30.6884    8.5320   58.2092 N   0  0  0  0  0  0  0  0  0  0  0  0
   29.6308    9.3880   57.6589 C   0  0  0  0  0  0  0  0  0  0  0  0
   28.3358    8.6903   57.4392 C   0  0  0  0  0  0  0  0  0  0  0  0
   27.7796    8.0615   58.6950 C   0  0  0  0  0  0  0  0  0  0  0  0
   28.8764    7.5883   59.6007 C   0  0  0  0  0  0  0  0  0  0  0  0
   30.0915    7.3117   58.7294 C   0  0  0  0  0  0  0  0  0  0  0  0
   26.8722    8.9196   59.4197 N   0  0  0  0  0  0  0  0  0  0  0  0
   25.7770    8.0974   59.8594 C   0  0  0  0  0  0  0  0  0  0  0  0
   24.9216    8.3649   60.7362 O   0  0  0  0  0  0  0  0  0  0  0  0
   25.7728    6.8537   59.1332 N   0  0  0  0  0  0  0  0  0  0  0  0
   26.8822    6.9360   58.2500 C   0  0  0  0  0  0  0  0  0  0  0  0
   27.1309    6.2263   57.2542 O   0  0  0  0  0  0  0  0  0  0  0  0
   24.8343    5.7982   59.2860 C   0  0  0  0  0  0  0  0  0  0  0  0
   24.9288    4.6443   58.5033 C   0  0  0  0  0  0  0  0  0  0  0  0
   24.0755    3.5928   58.5931 C   0  0  0  0  0  0  0  0  0  0  0  0
   23.0370    3.6276   59.5030 C   0  0  0  0  0  0  0  0  0  0  0  0
   22.9046    4.7411   60.2930 C   0  0  0  0  0  0  0  0  0  0  0  0
   23.7955    5.8160   60.1846 C   0  0  0  0  0  0  0  0  0  0  0  0
   22.0895    2.5383   59.6454 C   0  0  0  0  0  0  0  0  0  0  0  0
   22.4884    1.2223   59.6319 C   0  0  0  0  0  0  0  0  0  0  0  0
   21.5707    0.1883   59.7714 C   0  0  0  0  0  0  0  0  0  0  0  0
   20.2256    0.4280   59.9285 C   0  0  0  0  0  0  0  0  0  0  0  0
   19.8252    1.7668   59.9409 C   0  0  0  0  0  0  0  0  0  0  0  0
   20.7316    2.7904   59.8036 C   0  0  0  0  0  0  0  0  0  0  0  0
   19.2637   -0.6401   60.0762 C   0  0  0  0  0  0  0  0  0  0  0  0
   18.7063   -1.2145   58.9571 O   0  0  0  0  0  0  0  0  0  0  0  0
   18.9292   -1.0511   61.2078 O   0  0  0  0  0  0  0  0  0  0  0  0
   19.2024   -1.3672   58.0879 H   0  0  0  0  0  0  0  0  0  0  0  0
   26.9704   10.3072   59.6734 C   0  0  0  0  0  0  0  0  0  0  0  0
   27.9333   10.7693   60.5693 C   0  0  0  0  0  0  0  0  0  0  0  0
   28.1098   12.0874   60.8790 C   0  0  0  0  0  0  0  0  0  0  0  0
   27.2848   13.0419   60.2726 C   0  0  0  0  0  0  0  0  0  0  0  0
   26.3201   12.6160   59.3795 C   0  0  0  0  0  0  0  0  0  0  0  0
   26.1697   11.2593   59.0868 C   0  0  0  0  0  0  0  0  0  0  0  0
   27.4811   14.4225   60.6087 C   0  0  0  0  0  0  0  0  0  0  0  0
   27.6484   15.5535   60.8636 N   0  0  0  0  0  0  0  0  0  0  0  0
   31.4330    9.2738   59.1809 C   0  0  0  0  0  0  0  0  0  0  0  0
   28.8431    9.3228   60.3124 C   0  0  0  0  0  0  0  0  0  0  0  0
   29.5840   10.5928   60.1326 C   0  0  0  0  0  0  0  0  0  0  0  0
   29.0558   11.8073   60.4848 C   0  0  0  0  0  0  0  0  0  0  0  0
   29.7228   13.0061   60.3319 C   0  0  0  0  0  0  0  0  0  0  0  0
   30.9942   12.9394   59.7890 C   0  0  0  0  0  0  0  0  0  0  0  0
   31.5124   11.7514   59.4439 N   0  0  0  0  0  0  0  0  0  0  0  0
   30.8809   10.5755   59.5841 C   0  0  0  0  0  0  0  0  0  0  0  0
 38 39  1  0  0  0
 39 40  2  0  0  0
 40 41  1  0  0  0
 41 42  2  0  0  0
 42 43  1  0  0  0
 43 44  2  0  0  0
 44 37  1  0  0  0
 37  1  1  0  0  0
  1  2  1  0  0  0
  2  3  1  0  0  0
  3  4  1  0  0  0
  4  5  1  0  0  0
  5  6  1  0  0  0
  4  7  1  0  0  0
  7  8  1  0  0  0
  8  9  2  0  0  0
  8 10  1  0  0  0
 10 11  1  0  0  0
 11 12  2  0  0  0
 10 13  1  0  0  0
 13 14  2  0  0  0
 14 15  1  0  0  0
 15 16  2  0  0  0
 16 17  1  0  0  0
 17 18  2  0  0  0
 16 19  1  0  0  0
 19 20  2  0  0  0
 20 21  1  0  0  0
 21 22  2  0  0  0
 22 23  1  0  0  0
 23 24  2  0  0  0
 22 25  1  0  0  0
 25 26  1  0  0  0
 25 27  2  0  0  0
  7 29  1  0  0  0
 29 30  2  0  0  0
 30 31  1  0  0  0
 31 32  2  0  0  0
 32 33  1  0  0  0
 33 34  2  0  0  0
 32 35  1  0  0  0
 35 36  3  0  0  0
 44 39  1  0  0  0
  6  1  1  0  0  0
 18 13  1  0  0  0
 24 19  1  0  0  0
 34 29  1  0  0  0
 11  4  1  0  0  0
 26 28  1  0  0  0
M  END
> <minimizedAffinity>
243.70734

> <CNNscore>
0.0247303322

> <CNNaffinity>
3.8004593849

> <CNN_VS>
0.0939866230

> <CNNaffinity_variance>
2.2453141212

$$$$
[H]ON([H])C(=O)C([H])([H])C([H])([H])C([H])([H])C([H])([H])C([H])([H])C([H])([H])C(=O)N([H])c1c([H])c([H])c([H])c(-c2nnn(-c3c([H])c([H])c([H])c(F)c3[H])c2[H])c1[H]


 34 36  0  0  0  0  0  0  0  0999 V2000
   25.9679    8.2867   54.3751 C   0  0  0  0  0  0  0  0  0  0  0  0
   26.8987    8.4900   55.3546 C   0  0  0  0  0  0  0  0  0  0  0  0
   28.1517    8.9580   55.0100 C   0  0  0  0  0  0  0  0  0  0  0  0
   28.4583    9.2157   53.6947 C   0  0  0  0  0  0  0  0  0  0  0  0
   27.5554    9.0266   52.6711 C   0  0  0  0  0  0  0  0  0  0  0  0
   26.3179    8.5603   53.0473 C   0  0  0  0  0  0  0  0  0  0  0  0
   27.9016    9.3183   51.2852 C   0  0  0  0  0  0  0  0  0  0  0  0
   27.9313    8.5078   50.1973 C   0  0  0  0  0  0  0  0  0  0  0  0
   28.3101    9.2613   49.1450 N   0  0  0  0  0  0  0  0  0  0  0  0
   28.5181   10.5238   49.5495 N   0  0  0  0  0  0  0  0  0  0  0  0
   28.2671   10.5445   50.8479 N   0  0  0  0  0  0  0  0  0  0  0  0
   28.4741    8.8298   47.8020 C   0  0  0  0  0  0  0  0  0  0  0  0
   29.6488    8.2050   47.4024 C   0  0  0  0  0  0  0  0  0  0  0  0
   29.7779    7.7988   46.0954 C   0  0  0  0  0  0  0  0  0  0  0  0
   28.7727    7.9935   45.1640 C   0  0  0  0  0  0  0  0  0  0  0  0
   27.6208    8.6164   45.5924 C   0  0  0  0  0  0  0  0  0  0  0  0
   26.6455    8.7947   44.6487 F   0  0  0  0  0  0  0  0  0  0  0  0
   27.4723    9.0281   46.8890 C   0  0  0  0  0  0  0  0  0  0  0  0
   23.9245    6.8587   53.9526 C   0  0  0  0  0  0  0  0  0  0  0  0
   24.4415    6.2575   52.9872 O   0  0  0  0  0  0  0  0  0  0  0  0
   24.6656    7.8474   54.6334 N   0  0  0  0  0  0  0  0  0  0  0  0
   24.1620    8.3260   55.4508 H   0  0  0  0  0  0  0  0  0  0  0  0
   22.5585    6.5717   54.4138 C   0  0  0  0  0  0  0  0  0  0  0  0
   22.1594    7.1271   55.7265 C   0  0  0  0  0  0  0  0  0  0  0  0
   21.9507    8.6171   55.7582 C   0  0  0  0  0  0  0  0  0  0  0  0
   21.1399    9.2017   54.6953 C   0  0  0  0  0  0  0  0  0  0  0  0
   21.6648    9.9429   53.5524 C   0  0  0  0  0  0  0  0  0  0  0  0
   21.2163    9.6755   52.1797 C   0  0  0  0  0  0  0  0  0  0  0  0
   19.8368    6.2539   52.5352 O   0  0  0  0  0  0  0  0  0  0  0  0
   20.2779    7.4940   52.8438 N   0  0  0  0  0  0  0  0  0  0  0  0
   20.7590    8.3685   51.7874 C   0  0  0  0  0  0  0  0  0  0  0  0
   20.7330    7.9138   50.6509 O   0  0  0  0  0  0  0  0  0  0  0  0
   19.5682    6.2763   51.5749 H   0  0  0  0  0  0  0  0  0  0  0  0
   20.2825    7.8363   53.8065 H   0  0  0  0  0  0  0  0  0  0  0  0
 29 30  1  0  0  0
 30 31  1  0  0  0
 31 32  2  0  0  0
 31 28  1  0  0  0
 28 27  1  0  0  0
 27 26  1  0  0  0
 26 25  1  0  0  0
 25 24  1  0  0  0
 24 23  1  0  0  0
 23 19  1  0  0  0
 19 20  2  0  0  0
 19 21  1  0  0  0
 21  1  1  0  0  0
  1  2  2  0  0  0
  2  3  1  0  0  0
  3  4  2  0  0  0
  4  5  1  0  0  0
  5  6  2  0  0  0
  5  7  1  0  0  0
  7  8  2  0  0  0
  8  9  1  0  0  0
  9 10  1  0  0  0
 10 11  2  0  0  0
  9 12  1  0  0  0
 12 13  2  0  0  0
 13 14  1  0  0  0
 14 15  2  0  0  0
 15 16  1  0  0  0
 16 17  1  0  0  0
 16 18  2  0  0  0
  6  1  1  0  0  0
 11  7  1  0  0  0
 18 12  1  0  0  0
 29 33  1  0  0  0
 30 34  1  0  0  0
 21 22  1  0  0  0
M  END
> <minimizedAffinity>
15.00753

> <CNNscore>
0.6804572940

> <CNNaffinity>
6.8332662582

> <CNN_VS>
4.6497459412

> <CNNaffinity_variance>
0.1953316033

$$$$
[H]ON([H])C(=O)C([H])([H])C([H])([H])C([H])([H])C([H])([H])C([H])([H])C([H])([H])C(=O)N([H])c1c([H])c([H])c([H])c(-c2nnn(-c3c([H])c([H])c([H])c(F)c3[H])c2[H])c1[H]


 34 36  0  0  0  0  0  0  0  0999 V2000
   24.3221    7.4703   54.4441 C   0  0  0  0  0  0  0  0  0  0  0  0
   23.5414    6.3807   54.7102 C   0  0  0  0  0  0  0  0  0  0  0  0
   22.2307    6.3655   54.2748 C   0  0  0  0  0  0  0  0  0  0  0  0
   21.7177    7.4362   53.5813 C   0  0  0  0  0  0  0  0  0  0  0  0
   22.4636    8.5573   53.2885 C   0  0  0  0  0  0  0  0  0  0  0  0
   23.7636    8.5410   53.7356 C   0  0  0  0  0  0  0  0  0  0  0  0
   21.8993    9.6749   52.5414 C   0  0  0  0  0  0  0  0  0  0  0  0
   21.8340   10.9948   52.8498 C   0  0  0  0  0  0  0  0  0  0  0  0
   21.2200   11.6174   51.8232 N   0  0  0  0  0  0  0  0  0  0  0  0
   20.8997   10.7179   50.8804 N   0  0  0  0  0  0  0  0  0  0  0  0
   21.3168    9.5453   51.3280 N   0  0  0  0  0  0  0  0  0  0  0  0
   20.9378   13.0049   51.7131 C   0  0  0  0  0  0  0  0  0  0  0  0
   21.4090   13.7347   50.6290 C   0  0  0  0  0  0  0  0  0  0  0  0
   21.1196   15.0764   50.5506 C   0  0  0  0  0  0  0  0  0  0  0  0
   20.3726   15.7235   51.5197 C   0  0  0  0  0  0  0  0  0  0  0  0
   19.9208   14.9713   52.5820 C   0  0  0  0  0  0  0  0  0  0  0  0
   19.1853   15.6391   53.5236 F   0  0  0  0  0  0  0  0  0  0  0  0
   20.1977   13.6346   52.6786 C   0  0  0  0  0  0  0  0  0  0  0  0
   26.7258    8.1874   54.1269 C   0  0  0  0  0  0  0  0  0  0  0  0
   26.4993    8.7583   53.0390 O   0  0  0  0  0  0  0  0  0  0  0  0
   25.6672    7.5598   54.8163 N   0  0  0  0  0  0  0  0  0  0  0  0
   25.9305    7.0868   55.7425 H   0  0  0  0  0  0  0  0  0  0  0  0
   28.0681    8.1451   54.7250 C   0  0  0  0  0  0  0  0  0  0  0  0
   28.1818    8.5163   56.1533 C   0  0  0  0  0  0  0  0  0  0  0  0
   27.6204    9.8650   56.5144 C   0  0  0  0  0  0  0  0  0  0  0  0
   28.4784   10.7637   57.2791 C   0  0  0  0  0  0  0  0  0  0  0  0
   28.0146   11.6970   58.3014 C   0  0  0  0  0  0  0  0  0  0  0  0
   28.5105   11.6467   59.6828 C   0  0  0  0  0  0  0  0  0  0  0  0
   29.8380    8.2341   60.2560 O   0  0  0  0  0  0  0  0  0  0  0  0
   29.0212    9.2421   59.8757 N   0  0  0  0  0  0  0  0  0  0  0  0
   29.4234   10.6190   60.1090 C   0  0  0  0  0  0  0  0  0  0  0  0
   30.5089   10.7843   60.6507 O   0  0  0  0  0  0  0  0  0  0  0  0
   30.7589    8.6142   60.3035 H   0  0  0  0  0  0  0  0  0  0  0  0
   28.1221    9.0614   59.4252 H   0  0  0  0  0  0  0  0  0  0  0  0
 29 30  1  0  0  0
 30 31  1  0  0  0
 31 32  2  0  0  0
 31 28  1  0  0  0
 28 27  1  0  0  0
 27 26  1  0  0  0
 26 25  1  0  0  0
 25 24  1  0  0  0
 24 23  1  0  0  0
 23 19  1  0  0  0
 19 20  2  0  0  0
 19 21  1  0  0  0
 21  1  1  0  0  0
  1  2  2  0  0  0
  2  3  1  0  0  0
  3  4  2  0  0  0
  4  5  1  0  0  0
  5  6  2  0  0  0
  5  7  1  0  0  0
  7  8  2  0  0  0
  8  9  1  0  0  0
  9 10  1  0  0  0
 10 11  2  0  0  0
  9 12  1  0  0  0
 12 13  2  0  0  0
 13 14  1  0  0  0
 14 15  2  0  0  0
 15 16  1  0  0  0
 16 17  1  0  0  0
 16 18  2  0  0  0
  6  1  1  0  0  0
 11  7  1  0  0  0
 18 12  1  0  0  0
 29 33  1  0  0  0
 30 34  1  0  0  0
 21 22  1  0  0  0
M  END
> <minimizedAffinity>
10.98588

> <CNNscore>
0.6702144146

> <CNNaffinity>
6.4140424728

> <CNN_VS>
4.2987837791

> <CNNaffinity_variance>
0.3520981967

$$$$
[H]ON([H])C(=O)C([H])([H])C([H])([H])C([H])([H])C([H])([H])C([H])([H])C([H])([H])C(=O)N([H])c1c([H])c([H])c([H])c(-c2nnn(-c3c([H])c([H])c([H])c(F)c3[H])c2[H])c1[H]


 34 36  0  0  0  0  0  0  0  0999 V2000
   25.5837    8.8870   54.4763 C   0  0  0  0  0  0  0  0  0  0  0  0
   26.3521    8.0868   53.6784 C   0  0  0  0  0  0  0  0  0  0  0  0
   27.6371    7.7710   54.0745 C   0  0  0  0  0  0  0  0  0  0  0  0
   28.1370    8.2576   55.2592 C   0  0  0  0  0  0  0  0  0  0  0  0
   27.4027    9.0677   56.0980 C   0  0  0  0  0  0  0  0  0  0  0  0
   26.1283    9.3632   55.6750 C   0  0  0  0  0  0  0  0  0  0  0  0
   27.9522    9.5616   57.3549 C   0  0  0  0  0  0  0  0  0  0  0  0
   28.3261   10.8142   57.7189 C   0  0  0  0  0  0  0  0  0  0  0  0
   28.7649   10.7485   58.9923 N   0  0  0  0  0  0  0  0  0  0  0  0
   28.6745    9.4842   59.4330 N   0  0  0  0  0  0  0  0  0  0  0  0
   28.1807    8.7757   58.4313 N   0  0  0  0  0  0  0  0  0  0  0  0
   29.2529   11.8227   59.7828 C   0  0  0  0  0  0  0  0  0  0  0  0
   30.3968   11.6646   60.5552 C   0  0  0  0  0  0  0  0  0  0  0  0
   30.8443   12.7229   61.3101 C   0  0  0  0  0  0  0  0  0  0  0  0
   30.1895   13.9423   61.3247 C   0  0  0  0  0  0  0  0  0  0  0  0
   29.0582   14.0660   60.5481 C   0  0  0  0  0  0  0  0  0  0  0  0
   28.4331   15.2832   60.5836 F   0  0  0  0  0  0  0  0  0  0  0  0
   28.5963   13.0249   59.7894 C   0  0  0  0  0  0  0  0  0  0  0  0
   23.4721    8.7966   53.0887 C   0  0  0  0  0  0  0  0  0  0  0  0
   23.9528    7.9970   52.2579 O   0  0  0  0  0  0  0  0  0  0  0  0
   24.2629    9.2317   54.1728 N   0  0  0  0  0  0  0  0  0  0  0  0
   23.7902    9.9192   54.8473 H   0  0  0  0  0  0  0  0  0  0  0  0
   22.0976    9.3066   52.9807 C   0  0  0  0  0  0  0  0  0  0  0  0
   21.6469   10.2561   54.0229 C   0  0  0  0  0  0  0  0  0  0  0  0
   20.5061    9.7774   54.8797 C   0  0  0  0  0  0  0  0  0  0  0  0
   20.7570    8.6330   55.7492 C   0  0  0  0  0  0  0  0  0  0  0  0
   22.0663    8.0332   55.9879 C   0  0  0  0  0  0  0  0  0  0  0  0
   22.2782    6.5810   55.9327 C   0  0  0  0  0  0  0  0  0  0  0  0
   22.9886    5.4852   52.4640 O   0  0  0  0  0  0  0  0  0  0  0  0
   22.3664    6.0395   53.5286 N   0  0  0  0  0  0  0  0  0  0  0  0
   22.9905    5.9738   54.8394 C   0  0  0  0  0  0  0  0  0  0  0  0
   24.0728    5.4043   54.8986 O   0  0  0  0  0  0  0  0  0  0  0  0
   23.9590    5.4423   52.6901 H   0  0  0  0  0  0  0  0  0  0  0  0
   21.4625    6.5070   53.4367 H   0  0  0  0  0  0  0  0  0  0  0  0
 29 30  1  0  0  0
 30 31  1  0  0  0
 31 32  2  0  0  0
 31 28  1  0  0  0
 28 27  1  0  0  0
 27 26  1  0  0  0
 26 25  1  0  0  0
 25 24  1  0  0  0
 24 23  1  0  0  0
 23 19  1  0  0  0
 19 20  2  0  0  0
 19 21  1  0  0  0
 21  1  1  0  0  0
  1  2  2  0  0  0
  2  3  1  0  0  0
  3  4  2  0  0  0
  4  5  1  0  0  0
  5  6  2  0  0  0
  5  7  1  0  0  0
  7  8  2  0  0  0
  8  9  1  0  0  0
  9 10  1  0  0  0
 10 11  2  0  0  0
  9 12  1  0  0  0
 12 13  2  0  0  0
 13 14  1  0  0  0
 14 15  2  0  0  0
 15 16  1  0  0  0
 16 17  1  0  0  0
 16 18  2  0  0  0
  6  1  1  0  0  0
 11  7  1  0  0  0
 18 12  1  0  0  0
 29 33  1  0  0  0
 30 34  1  0  0  0
 21 22  1  0  0  0
M  END
> <minimizedAffinity>
4.34976

> <CNNscore>
0.6515722871

> <CNNaffinity>
6.4969491959

> <CNN_VS>
4.2332320213

> <CNNaffinity_variance>
0.4219445288

$$$$
[H]ON([H])C(=O)C([H])([H])C([H])([H])C([H])([H])C([H])([H])C([H])([H])C([H])([H])C(=O)N([H])c1c([H])c([H])c([H])c(-c2nnn(-c3c([H])c([H])c([H])c(F)c3[H])c2[H])c1[H]


 34 36  0  0  0  0  0  0  0  0999 V2000
   25.8960    8.1804   54.3105 C   0  0  0  0  0  0  0  0  0  0  0  0
   26.7485    8.3800   55.3597 C   0  0  0  0  0  0  0  0  0  0  0  0
   27.9983    8.9181   55.1225 C   0  0  0  0  0  0  0  0  0  0  0  0
   28.3798    9.2486   53.8436 C   0  0  0  0  0  0  0  0  0  0  0  0
   27.5574    9.0665   52.7530 C   0  0  0  0  0  0  0  0  0  0  0  0
   26.3209    8.5292   53.0229 C   0  0  0  0  0  0  0  0  0  0  0  0
   27.9815    9.4359   51.4079 C   0  0  0  0  0  0  0  0  0  0  0  0
   27.9872    8.7143   50.2587 C   0  0  0  0  0  0  0  0  0  0  0  0
   28.4688    9.5132   49.2849 N   0  0  0  0  0  0  0  0  0  0  0  0
   28.7645   10.7173   49.7983 N   0  0  0  0  0  0  0  0  0  0  0  0
   28.4646   10.6568   51.0850 N   0  0  0  0  0  0  0  0  0  0  0  0
   28.6498    9.1765   47.9172 C   0  0  0  0  0  0  0  0  0  0  0  0
   28.5677   10.1556   46.9350 C   0  0  0  0  0  0  0  0  0  0  0  0
   28.7471    9.7986   45.6196 C   0  0  0  0  0  0  0  0  0  0  0  0
   29.0073    8.4924   45.2429 C   0  0  0  0  0  0  0  0  0  0  0  0
   29.0819    7.5455   46.2411 C   0  0  0  0  0  0  0  0  0  0  0  0
   29.3402    6.2634   45.8374 F   0  0  0  0  0  0  0  0  0  0  0  0
   28.9065    7.8802   47.5564 C   0  0  0  0  0  0  0  0  0  0  0  0
   23.9728    6.6488   53.7202 C   0  0  0  0  0  0  0  0  0  0  0  0
   24.5995    6.0787   52.8020 O   0  0  0  0  0  0  0  0  0  0  0  0
   24.6015    7.6726   54.4595 N   0  0  0  0  0  0  0  0  0  0  0  0
   24.0070    8.1215   55.2315 H   0  0  0  0  0  0  0  0  0  0  0  0
   22.5900    6.2890   54.0659 C   0  0  0  0  0  0  0  0  0  0  0  0
   22.0595    6.8050   55.3477 C   0  0  0  0  0  0  0  0  0  0  0  0
   20.7609    7.5591   55.2498 C   0  0  0  0  0  0  0  0  0  0  0  0
   20.7704    8.8133   54.5042 C   0  0  0  0  0  0  0  0  0  0  0  0
   21.8096    9.8345   54.5955 C   0  0  0  0  0  0  0  0  0  0  0  0
   21.7845   11.0459   53.7657 C   0  0  0  0  0  0  0  0  0  0  0  0
   21.4478   12.2086   50.2626 O   0  0  0  0  0  0  0  0  0  0  0  0
   21.6318   12.2186   51.6019 N   0  0  0  0  0  0  0  0  0  0  0  0
   21.5823   10.9694   52.3429 C   0  0  0  0  0  0  0  0  0  0  0  0
   21.3714    9.9566   51.6880 O   0  0  0  0  0  0  0  0  0  0  0  0
   21.6752   11.2894   49.9493 H   0  0  0  0  0  0  0  0  0  0  0  0
   21.8063   13.0868   52.1118 H   0  0  0  0  0  0  0  0  0  0  0  0
 29 30  1  0  0  0
 30 31  1  0  0  0
 31 32  2  0  0  0
 31 28  1  0  0  0
 28 27  1  0  0  0
 27 26  1  0  0  0
 26 25  1  0  0  0
 25 24  1  0  0  0
 24 23  1  0  0  0
 23 19  1  0  0  0
 19 20  2  0  0  0
 19 21  1  0  0  0
 21  1  1  0  0  0
  1  2  2  0  0  0
  2  3  1  0  0  0
  3  4  2  0  0  0
  4  5  1  0  0  0
  5  6  2  0  0  0
  5  7  1  0  0  0
  7  8  2  0  0  0
  8  9  1  0  0  0
  9 10  1  0  0  0
 10 11  2  0  0  0
  9 12  1  0  0  0
 12 13  2  0  0  0
 13 14  1  0  0  0
 14 15  2  0  0  0
 15 16  1  0  0  0
 16 17  1  0  0  0
 16 18  2  0  0  0
  6  1  1  0  0  0
 11  7  1  0  0  0
 18 12  1  0  0  0
 29 33  1  0  0  0
 30 34  1  0  0  0
 21 22  1  0  0  0
M  END
> <minimizedAffinity>
17.77600

> <CNNscore>
0.6506189108

> <CNNaffinity>
6.2839231491

> <CNN_VS>
4.0884394646

> <CNNaffinity_variance>
0.2401896715

$$$$
[H]ON([H])C(=O)C([H])([H])C([H])([H])C([H])([H])C([H])([H])C([H])([H])C([H])([H])C(=O)N([H])c1c([H])c([H])c([H])c(-c2nnn(-c3c([H])c([H])c([H])c(F)c3[H])c2[H])c1[H]


 34 36  0  0  0  0  0  0  0  0999 V2000
   24.1684    7.2934   54.2332 C   0  0  0  0  0  0  0  0  0  0  0  0
   23.2740    6.3854   54.7261 C   0  0  0  0  0  0  0  0  0  0  0  0
   21.9224    6.5947   54.5338 C   0  0  0  0  0  0  0  0  0  0  0  0
   21.4824    7.7058   53.8539 C   0  0  0  0  0  0  0  0  0  0  0  0
   22.3435    8.6500   53.3383 C   0  0  0  0  0  0  0  0  0  0  0  0
   23.6816    8.4124   53.5466 C   0  0  0  0  0  0  0  0  0  0  0  0
   21.8520    9.8141   52.6110 C   0  0  0  0  0  0  0  0  0  0  0  0
   21.6268   11.0839   53.0333 C   0  0  0  0  0  0  0  0  0  0  0  0
   21.1792   11.7866   51.9729 N   0  0  0  0  0  0  0  0  0  0  0  0
   21.1191   10.9860   50.8977 N   0  0  0  0  0  0  0  0  0  0  0  0
   21.5293    9.7941   51.2980 N   0  0  0  0  0  0  0  0  0  0  0  0
   20.8185   13.1600   51.9508 C   0  0  0  0  0  0  0  0  0  0  0  0
   20.0458   13.7008   52.9708 C   0  0  0  0  0  0  0  0  0  0  0  0
   19.7125   15.0337   52.9211 C   0  0  0  0  0  0  0  0  0  0  0  0
   20.1233   15.8544   51.8850 C   0  0  0  0  0  0  0  0  0  0  0  0
   20.8879   15.2870   50.8891 C   0  0  0  0  0  0  0  0  0  0  0  0
   21.2785   16.1236   49.8787 F   0  0  0  0  0  0  0  0  0  0  0  0
   21.2307   13.9625   50.9199 C   0  0  0  0  0  0  0  0  0  0  0  0
   26.5697    7.9043   53.7301 C   0  0  0  0  0  0  0  0  0  0  0  0
   26.2584    8.8431   52.9669 O   0  0  0  0  0  0  0  0  0  0  0  0
   25.5542    7.1473   54.3510 N   0  0  0  0  0  0  0  0  0  0  0  0
   25.8900    6.3551   54.9917 H   0  0  0  0  0  0  0  0  0  0  0  0
   27.9695    7.5543   54.0112 C   0  0  0  0  0  0  0  0  0  0  0  0
   28.8714    8.6555   54.4170 C   0  0  0  0  0  0  0  0  0  0  0  0
   29.0654    8.8150   55.9007 C   0  0  0  0  0  0  0  0  0  0  0  0
   27.8772    9.0760   56.7063 C   0  0  0  0  0  0  0  0  0  0  0  0
   27.5665   10.3469   57.3539 C   0  0  0  0  0  0  0  0  0  0  0  0
   27.6356   10.5144   58.8113 C   0  0  0  0  0  0  0  0  0  0  0  0
   30.7884   11.3897   60.5522 O   0  0  0  0  0  0  0  0  0  0  0  0
   29.6207   11.5113   59.8819 N   0  0  0  0  0  0  0  0  0  0  0  0
   28.8699   10.3192   59.5252 C   0  0  0  0  0  0  0  0  0  0  0  0
   29.3563    9.2482   59.8649 O   0  0  0  0  0  0  0  0  0  0  0  0
   30.7599   10.5089   61.0193 H   0  0  0  0  0  0  0  0  0  0  0  0
   29.2483   12.4252   59.6170 H   0  0  0  0  0  0  0  0  0  0  0  0
 29 30  1  0  0  0
 30 31  1  0  0  0
 31 32  2  0  0  0
 31 28  1  0  0  0
 28 27  1  0  0  0
 27 26  1  0  0  0
 26 25  1  0  0  0
 25 24  1  0  0  0
 24 23  1  0  0  0
 23 19  1  0  0  0
 19 20  2  0  0  0
 19 21  1  0  0  0
 21  1  1  0  0  0
  1  2  2  0  0  0
  2  3  1  0  0  0
  3  4  2  0  0  0
  4  5  1  0  0  0
  5  6  2  0  0  0
  5  7  1  0  0  0
  7  8  2  0  0  0
  8  9  1  0  0  0
  9 10  1  0  0  0
 10 11  2  0  0  0
  9 12  1  0  0  0
 12 13  2  0  0  0
 13 14  1  0  0  0
 14 15  2  0  0  0
 15 16  1  0  0  0
 16 17  1  0  0  0
 16 18  2  0  0  0
  6  1  1  0  0  0
 11  7  1  0  0  0
 18 12  1  0  0  0
 29 33  1  0  0  0
 30 34  1  0  0  0
 21 22  1  0  0  0
M  END
> <minimizedAffinity>
14.76603

> <CNNscore>
0.6395382285

> <CNNaffinity>
6.3292732239

> <CNN_VS>
4.0478119850

> <CNNaffinity_variance>
0.4141349792

$$$$
[H]ON([H])C(=O)C([H])([H])C([H])([H])C([H])([H])C([H])([H])C([H])([H])C([H])([H])C(=O)N([H])c1c([H])c([H])c([H])c(-c2nnn(-c3c([H])c([H])c([H])c(F)c3[H])c2[H])c1[H]


 34 36  0  0  0  0  0  0  0  0999 V2000
   23.3255    7.0835   54.0125 C   0  0  0  0  0  0  0  0  0  0  0  0
   22.3020    6.1997   54.2094 C   0  0  0  0  0  0  0  0  0  0  0  0
   21.0253    6.5439   53.8102 C   0  0  0  0  0  0  0  0  0  0  0  0
   20.7877    7.7634   53.2215 C   0  0  0  0  0  0  0  0  0  0  0  0
   21.7851    8.6885   53.0015 C   0  0  0  0  0  0  0  0  0  0  0  0
   23.0438    8.3156   53.4100 C   0  0  0  0  0  0  0  0  0  0  0  0
   21.5090    9.9707   52.3646 C   0  0  0  0  0  0  0  0  0  0  0  0
   21.0646   11.1380   52.8950 C   0  0  0  0  0  0  0  0  0  0  0  0
   20.9786   12.0302   51.8875 N   0  0  0  0  0  0  0  0  0  0  0  0
   21.3587   11.4481   50.7396 N   0  0  0  0  0  0  0  0  0  0  0  0
   21.6773   10.2008   51.0429 N   0  0  0  0  0  0  0  0  0  0  0  0
   20.5593   13.3839   51.9804 C   0  0  0  0  0  0  0  0  0  0  0  0
   20.8854   14.2914   50.9803 C   0  0  0  0  0  0  0  0  0  0  0  0
   20.4654   15.5951   51.0989 C   0  0  0  0  0  0  0  0  0  0  0  0
   19.7271   16.0320   52.1850 C   0  0  0  0  0  0  0  0  0  0  0  0
   19.4208   15.1072   53.1593 C   0  0  0  0  0  0  0  0  0  0  0  0
   18.6900   15.5693   54.2204 F   0  0  0  0  0  0  0  0  0  0  0  0
   19.8291   13.8048   53.0602 C   0  0  0  0  0  0  0  0  0  0  0  0
   25.7969    7.6037   54.1315 C   0  0  0  0  0  0  0  0  0  0  0  0
   25.6763    8.7102   53.5641 O   0  0  0  0  0  0  0  0  0  0  0  0
   24.6534    6.8082   54.3538 N   0  0  0  0  0  0  0  0  0  0  0  0
   24.8275    5.8696   54.8433 H   0  0  0  0  0  0  0  0  0  0  0  0
   27.0991    7.0929   54.5836 C   0  0  0  0  0  0  0  0  0  0  0  0
   28.2952    7.8909   54.2325 C   0  0  0  0  0  0  0  0  0  0  0  0
   28.0713    9.3756   54.1313 C   0  0  0  0  0  0  0  0  0  0  0  0
   27.9390    9.9424   52.7934 C   0  0  0  0  0  0  0  0  0  0  0  0
   28.0343    9.1847   51.5492 C   0  0  0  0  0  0  0  0  0  0  0  0
   28.6138    9.7621   50.3295 C   0  0  0  0  0  0  0  0  0  0  0  0
   28.8745    8.1323   47.0110 O   0  0  0  0  0  0  0  0  0  0  0  0
   29.1975    8.5832   48.2439 N   0  0  0  0  0  0  0  0  0  0  0  0
   28.2091    9.3070   49.0256 C   0  0  0  0  0  0  0  0  0  0  0  0
   27.1134    9.4671   48.5031 O   0  0  0  0  0  0  0  0  0  0  0  0
   27.8807    8.0509   46.9873 H   0  0  0  0  0  0  0  0  0  0  0  0
   30.1245    8.4279   48.6447 H   0  0  0  0  0  0  0  0  0  0  0  0
 29 30  1  0  0  0
 30 31  1  0  0  0
 31 32  2  0  0  0
 31 28  1  0  0  0
 28 27  1  0  0  0
 27 26  1  0  0  0
 26 25  1  0  0  0
 25 24  1  0  0  0
 24 23  1  0  0  0
 23 19  1  0  0  0
 19 20  2  0  0  0
 19 21  1  0  0  0
 21  1  1  0  0  0
  1  2  2  0  0  0
  2  3  1  0  0  0
  3  4  2  0  0  0
  4  5  1  0  0  0
  5  6  2  0  0  0
  5  7  1  0  0  0
  7  8  2  0  0  0
  8  9  1  0  0  0
  9 10  1  0  0  0
 10 11  2  0  0  0
  9 12  1  0  0  0
 12 13  2  0  0  0
 13 14  1  0  0  0
 14 15  2  0  0  0
 15 16  1  0  0  0
 16 17  1  0  0  0
 16 18  2  0  0  0
  6  1  1  0  0  0
 11  7  1  0  0  0
 18 12  1  0  0  0
 29 33  1  0  0  0
 30 34  1  0  0  0
 21 22  1  0  0  0
M  END
> <minimizedAffinity>
23.53058

> <CNNscore>
0.6144220829

> <CNNaffinity>
6.3189229965

> <CNN_VS>
3.8824858665

> <CNNaffinity_variance>
0.3557032943

$$$$
[H]ON([H])C(=O)C([H])([H])C([H])([H])C([H])([H])C([H])([H])C([H])([H])C([H])([H])C(=O)N([H])c1c([H])c([H])c([H])c(-c2nnn(-c3c([H])c([H])c([H])c(F)c3[H])c2[H])c1[H]


 34 36  0  0  0  0  0  0  0  0999 V2000
   24.3130    7.4928   54.0135 C   0  0  0  0  0  0  0  0  0  0  0  0
   23.5246    6.4383   54.3793 C   0  0  0  0  0  0  0  0  0  0  0  0
   22.1671    6.4904   54.1296 C   0  0  0  0  0  0  0  0  0  0  0  0
   21.6158    7.5925   53.5199 C   0  0  0  0  0  0  0  0  0  0  0  0
   22.3676    8.6806   53.1326 C   0  0  0  0  0  0  0  0  0  0  0  0
   23.7146    8.5973   53.3952 C   0  0  0  0  0  0  0  0  0  0  0  0
   21.7604    9.8327   52.4772 C   0  0  0  0  0  0  0  0  0  0  0  0
   21.6782   11.1276   52.8743 C   0  0  0  0  0  0  0  0  0  0  0  0
   21.0231   11.8033   51.9085 N   0  0  0  0  0  0  0  0  0  0  0  0
   20.6936   10.9612   50.9170 N   0  0  0  0  0  0  0  0  0  0  0  0
   21.1462    9.7709   51.2742 N   0  0  0  0  0  0  0  0  0  0  0  0
   20.7107   13.1887   51.8987 C   0  0  0  0  0  0  0  0  0  0  0  0
   20.0179   13.7610   52.9581 C   0  0  0  0  0  0  0  0  0  0  0  0
   19.7299   15.1047   52.9195 C   0  0  0  0  0  0  0  0  0  0  0  0
   20.1091   15.9059   51.8565 C   0  0  0  0  0  0  0  0  0  0  0  0
   20.7944   15.3075   50.8218 C   0  0  0  0  0  0  0  0  0  0  0  0
   21.1555   16.1254   49.7854 F   0  0  0  0  0  0  0  0  0  0  0  0
   21.0910   13.9716   50.8409 C   0  0  0  0  0  0  0  0  0  0  0  0
   26.4618    8.3808   55.0069 C   0  0  0  0  0  0  0  0  0  0  0  0
   25.8850    9.2638   55.6766 O   0  0  0  0  0  0  0  0  0  0  0  0
   25.6993    7.5141   54.1962 N   0  0  0  0  0  0  0  0  0  0  0  0
   26.2567    6.7809   53.6460 H   0  0  0  0  0  0  0  0  0  0  0  0
   27.9212    8.2064   55.0321 C   0  0  0  0  0  0  0  0  0  0  0  0
   28.6655    8.5743   53.8068 C   0  0  0  0  0  0  0  0  0  0  0  0
   27.8386    8.6580   52.5522 C   0  0  0  0  0  0  0  0  0  0  0  0
   28.2017    9.6825   51.5790 C   0  0  0  0  0  0  0  0  0  0  0  0
   27.7912    9.6904   50.1780 C   0  0  0  0  0  0  0  0  0  0  0  0
   28.7673    9.7426   49.0820 C   0  0  0  0  0  0  0  0  0  0  0  0
   28.6103    8.0003   45.8144 O   0  0  0  0  0  0  0  0  0  0  0  0
   28.5283    8.9706   46.7523 N   0  0  0  0  0  0  0  0  0  0  0  0
   28.8762    8.6682   48.1306 C   0  0  0  0  0  0  0  0  0  0  0  0
   29.2328    7.5201   48.3622 O   0  0  0  0  0  0  0  0  0  0  0  0
   29.2557    7.3226   46.1594 H   0  0  0  0  0  0  0  0  0  0  0  0
   28.2263    9.9180   46.5173 H   0  0  0  0  0  0  0  0  0  0  0  0
 29 30  1  0  0  0
 30 31  1  0  0  0
 31 32  2  0  0  0
 31 28  1  0  0  0
 28 27  1  0  0  0
 27 26  1  0  0  0
 26 25  1  0  0  0
 25 24  1  0  0  0
 24 23  1  0  0  0
 23 19  1  0  0  0
 19 20  2  0  0  0
 19 21  1  0  0  0
 21  1  1  0  0  0
  1  2  2  0  0  0
  2  3  1  0  0  0
  3  4  2  0  0  0
  4  5  1  0  0  0
  5  6  2  0  0  0
  5  7  1  0  0  0
  7  8  2  0  0  0
  8  9  1  0  0  0
  9 10  1  0  0  0
 10 11  2  0  0  0
  9 12  1  0  0  0
 12 13  2  0  0  0
 13 14  1  0  0  0
 14 15  2  0  0  0
 15 16  1  0  0  0
 16 17  1  0  0  0
 16 18  2  0  0  0
  6  1  1  0  0  0
 11  7  1  0  0  0
 18 12  1  0  0  0
 29 33  1  0  0  0
 30 34  1  0  0  0
 21 22  1  0  0  0
M  END
> <minimizedAffinity>
16.55258

> <CNNscore>
0.5893819928

> <CNNaffinity>
6.4752645493

> <CNN_VS>
3.8164043427

> <CNNaffinity_variance>
0.3186307847

$$$$
[H]ON([H])C(=O)C([H])([H])C([H])([H])C([H])([H])C([H])([H])C([H])([H])C([H])([H])C(=O)N([H])c1c([H])c([H])c([H])c(-c2nnn(-c3c([H])c([H])c([H])c(F)c3[H])c2[H])c1[H]


 34 36  0  0  0  0  0  0  0  0999 V2000
   24.2319    9.3903   55.0801 C   0  0  0  0  0  0  0  0  0  0  0  0
   23.6915   10.5334   55.5987 C   0  0  0  0  0  0  0  0  0  0  0  0
   22.3301   10.7435   55.4983 C   0  0  0  0  0  0  0  0  0  0  0  0
   21.5280    9.8121   54.8824 C   0  0  0  0  0  0  0  0  0  0  0  0
   22.0244    8.6448   54.3438 C   0  0  0  0  0  0  0  0  0  0  0  0
   23.3826    8.4659   54.4602 C   0  0  0  0  0  0  0  0  0  0  0  0
   21.1507    7.6674   53.7058 C   0  0  0  0  0  0  0  0  0  0  0  0
   20.5209    6.5820   54.2222 C   0  0  0  0  0  0  0  0  0  0  0  0
   19.8239    6.0076   53.2208 N   0  0  0  0  0  0  0  0  0  0  0  0
   20.0033    6.7082   52.0904 N   0  0  0  0  0  0  0  0  0  0  0  0
   20.8091    7.7108   52.3982 N   0  0  0  0  0  0  0  0  0  0  0  0
   19.0124    4.8451   53.3039 C   0  0  0  0  0  0  0  0  0  0  0  0
   19.4891    3.6209   52.8524 C   0  0  0  0  0  0  0  0  0  0  0  0
   18.6798    2.5135   52.9458 C   0  0  0  0  0  0  0  0  0  0  0  0
   17.4031    2.5807   53.4763 C   0  0  0  0  0  0  0  0  0  0  0  0
   16.9604    3.8096   53.9146 C   0  0  0  0  0  0  0  0  0  0  0  0
   15.6944    3.8440   54.4338 F   0  0  0  0  0  0  0  0  0  0  0  0
   17.7503    4.9239   53.8307 C   0  0  0  0  0  0  0  0  0  0  0  0
   26.3660    8.2926   54.2842 C   0  0  0  0  0  0  0  0  0  0  0  0
   25.8275    7.7841   53.2781 O   0  0  0  0  0  0  0  0  0  0  0  0
   25.5924    9.0779   55.1644 N   0  0  0  0  0  0  0  0  0  0  0  0
   26.1156    9.4826   56.0091 H   0  0  0  0  0  0  0  0  0  0  0  0
   27.7915    8.1040   54.5896 C   0  0  0  0  0  0  0  0  0  0  0  0
   28.4294    9.1038   55.4752 C   0  0  0  0  0  0  0  0  0  0  0  0
   27.7834    9.2743   56.8236 C   0  0  0  0  0  0  0  0  0  0  0  0
   28.6358    9.1213   57.9978 C   0  0  0  0  0  0  0  0  0  0  0  0
   28.2892    9.5568   59.3474 C   0  0  0  0  0  0  0  0  0  0  0  0
   29.2704   10.1944   60.2348 C   0  0  0  0  0  0  0  0  0  0  0  0
   30.4749   13.5921   61.0961 O   0  0  0  0  0  0  0  0  0  0  0  0
   30.4684   12.2686   60.8206 N   0  0  0  0  0  0  0  0  0  0  0  0
   29.2117   11.6042   60.5184 C   0  0  0  0  0  0  0  0  0  0  0  0
   28.2084   12.3059   60.5322 O   0  0  0  0  0  0  0  0  0  0  0  0
   29.6522   13.9747   60.6820 H   0  0  0  0  0  0  0  0  0  0  0  0
   31.3292   11.7180   60.8188 H   0  0  0  0  0  0  0  0  0  0  0  0
 29 30  1  0  0  0
 30 31  1  0  0  0
 31 32  2  0  0  0
 31 28  1  0  0  0
 28 27  1  0  0  0
 27 26  1  0  0  0
 26 25  1  0  0  0
 25 24  1  0  0  0
 24 23  1  0  0  0
 23 19  1  0  0  0
 19 20  2  0  0  0
 19 21  1  0  0  0
 21  1  1  0  0  0
  1  2  2  0  0  0
  2  3  1  0  0  0
  3  4  2  0  0  0
  4  5  1  0  0  0
  5  6  2  0  0  0
  5  7  1  0  0  0
  7  8  2  0  0  0
  8  9  1  0  0  0
  9 10  1  0  0  0
 10 11  2  0  0  0
  9 12  1  0  0  0
 12 13  2  0  0  0
 13 14  1  0  0  0
 14 15  2  0  0  0
 15 16  1  0  0  0
 16 17  1  0  0  0
 16 18  2  0  0  0
  6  1  1  0  0  0
 11  7  1  0  0  0
 18 12  1  0  0  0
 29 33  1  0  0  0
 30 34  1  0  0  0
 21 22  1  0  0  0
M  END
> <minimizedAffinity>
13.26024

> <CNNscore>
0.5734888911

> <CNNaffinity>
6.4497818947

> <CNN_VS>
3.6988782883

> <CNNaffinity_variance>
0.4075554013

$$$$
[H]ON([H])C(=O)C([H])([H])C([H])([H])C([H])([H])C([H])([H])C([H])([H])C([H])([H])C(=O)N([H])c1c([H])c([H])c([H])c(-c2nnn(-c3c([H])c([H])c([H])c(F)c3[H])c2[H])c1[H]


 34 36  0  0  0  0  0  0  0  0999 V2000
   24.2286    6.9989   54.0294 C   0  0  0  0  0  0  0  0  0  0  0  0
   23.3792    5.9393   53.8771 C   0  0  0  0  0  0  0  0  0  0  0  0
   22.0345    6.1754   53.6675 C   0  0  0  0  0  0  0  0  0  0  0  0
   21.5566    7.4634   53.6134 C   0  0  0  0  0  0  0  0  0  0  0  0
   22.3718    8.5646   53.7613 C   0  0  0  0  0  0  0  0  0  0  0  0
   23.7041    8.2956   53.9684 C   0  0  0  0  0  0  0  0  0  0  0  0
   21.8419    9.9209   53.6885 C   0  0  0  0  0  0  0  0  0  0  0  0
   21.8416   10.8107   52.6639 C   0  0  0  0  0  0  0  0  0  0  0  0
   21.2210   11.9256   53.1001 N   0  0  0  0  0  0  0  0  0  0  0  0
   20.8334   11.7539   54.3733 N   0  0  0  0  0  0  0  0  0  0  0  0
   21.2156   10.5354   54.7174 N   0  0  0  0  0  0  0  0  0  0  0  0
   20.9895   13.1169   52.3625 C   0  0  0  0  0  0  0  0  0  0  0  0
   21.6894   13.3643   51.1882 C   0  0  0  0  0  0  0  0  0  0  0  0
   21.4435   14.5267   50.4965 C   0  0  0  0  0  0  0  0  0  0  0  0
   20.5191   15.4593   50.9344 C   0  0  0  0  0  0  0  0  0  0  0  0
   19.8423   15.1839   52.1025 C   0  0  0  0  0  0  0  0  0  0  0  0
   18.9353   16.1247   52.5096 F   0  0  0  0  0  0  0  0  0  0  0  0
   20.0723   14.0327   52.8058 C   0  0  0  0  0  0  0  0  0  0  0  0
   26.6260    7.7990   53.9573 C   0  0  0  0  0  0  0  0  0  0  0  0
   26.3237    8.9268   53.5129 O   0  0  0  0  0  0  0  0  0  0  0  0
   25.6077    6.8567   54.2123 N   0  0  0  0  0  0  0  0  0  0  0  0
   25.9359    5.9078   54.5905 H   0  0  0  0  0  0  0  0  0  0  0  0
   28.0175    7.4114   54.2298 C   0  0  0  0  0  0  0  0  0  0  0  0
   28.7940    8.2822   55.1407 C   0  0  0  0  0  0  0  0  0  0  0  0
   27.9795    9.2518   55.9537 C   0  0  0  0  0  0  0  0  0  0  0  0
   28.0520    9.1329   57.4061 C   0  0  0  0  0  0  0  0  0  0  0  0
   28.2292   10.2489   58.3304 C   0  0  0  0  0  0  0  0  0  0  0  0
   29.1239   10.1622   59.4917 C   0  0  0  0  0  0  0  0  0  0  0  0
   29.2743   13.7390   60.4516 O   0  0  0  0  0  0  0  0  0  0  0  0
   28.9054   12.5945   59.8337 N   0  0  0  0  0  0  0  0  0  0  0  0
   29.5599   11.3455   60.1853 C   0  0  0  0  0  0  0  0  0  0  0  0
   30.4295   11.4103   61.0448 O   0  0  0  0  0  0  0  0  0  0  0  0
   29.6862   13.4751   61.3207 H   0  0  0  0  0  0  0  0  0  0  0  0
   28.1734   12.5829   59.1208 H   0  0  0  0  0  0  0  0  0  0  0  0
 29 30  1  0  0  0
 30 31  1  0  0  0
 31 32  2  0  0  0
 31 28  1  0  0  0
 28 27  1  0  0  0
 27 26  1  0  0  0
 26 25  1  0  0  0
 25 24  1  0  0  0
 24 23  1  0  0  0
 23 19  1  0  0  0
 19 20  2  0  0  0
 19 21  1  0  0  0
 21  1  1  0  0  0
  1  2  2  0  0  0
  2  3  1  0  0  0
  3  4  2  0  0  0
  4  5  1  0  0  0
  5  6  2  0  0  0
  5  7  1  0  0  0
  7  8  2  0  0  0
  8  9  1  0  0  0
  9 10  1  0  0  0
 10 11  2  0  0  0
  9 12  1  0  0  0
 12 13  2  0  0  0
 13 14  1  0  0  0
 14 15  2  0  0  0
 15 16  1  0  0  0
 16 17  1  0  0  0
 16 18  2  0  0  0
  6  1  1  0  0  0
 11  7  1  0  0  0
 18 12  1  0  0  0
 29 33  1  0  0  0
 30 34  1  0  0  0
 21 22  1  0  0  0
M  END
> <minimizedAffinity>
10.92541

> <CNNscore>
0.5514228344

> <CNNaffinity>
6.1238622665

> <CNN_VS>
3.3768374920

> <CNNaffinity_variance>
0.1984556168

$$$$
[H]OC(=O)c1c([H])c([H])c(N2C([H])([H])C([H])([H])N(c3c([H])c([H])c([H])c([H])c3[H])C([H])([H])[C@@]2([H])C([H])(C([H])([H])[H])C([H])([H])[H])c([H])c1C(F)(F)F


 29 31  0  0  0  0  0  0  0  0999 V2000
   22.6061    7.6649   53.2064 C   0  0  0  0  0  0  0  0  0  0  0  0
   22.2984    6.1910   52.9310 C   0  0  0  0  0  0  0  0  0  0  0  0
   21.4650    5.6191   53.9627 N   0  0  0  0  0  0  0  0  0  0  0  0
   21.8979    5.8033   55.3259 C   0  0  0  0  0  0  0  0  0  0  0  0
   22.0444    7.3103   55.5525 C   0  0  0  0  0  0  0  0  0  0  0  0
   22.9941    7.8140   54.5767 N   0  0  0  0  0  0  0  0  0  0  0  0
   24.2078    8.3816   55.0299 C   0  0  0  0  0  0  0  0  0  0  0  0
   24.2981    9.2177   56.1215 C   0  0  0  0  0  0  0  0  0  0  0  0
   25.4804    9.7457   56.5613 C   0  0  0  0  0  0  0  0  0  0  0  0
   26.6962    9.4614   55.9129 C   0  0  0  0  0  0  0  0  0  0  0  0
   26.6189    8.6332   54.8271 C   0  0  0  0  0  0  0  0  0  0  0  0
   25.3891    8.0956   54.3862 C   0  0  0  0  0  0  0  0  0  0  0  0
   27.9197   10.0448   56.4530 C   0  0  0  0  0  0  0  0  0  0  0  0
   28.3648    9.5483   57.7191 O   0  0  0  0  0  0  0  0  0  0  0  0
   28.6507   10.9107   55.9958 O   0  0  0  0  0  0  0  0  0  0  0  0
   29.0133    8.7726   57.7571 H   0  0  0  0  0  0  0  0  0  0  0  0
   27.8565    8.2955   54.0742 C   0  0  0  0  0  0  0  0  0  0  0  0
   28.9489    9.0462   54.4574 F   0  0  0  0  0  0  0  0  0  0  0  0
   27.6303    8.7311   52.7417 F   0  0  0  0  0  0  0  0  0  0  0  0
   28.0595    6.9510   54.0805 F   0  0  0  0  0  0  0  0  0  0  0  0
   20.3029    4.8999   53.6551 C   0  0  0  0  0  0  0  0  0  0  0  0
   19.0236    5.3513   53.9182 C   0  0  0  0  0  0  0  0  0  0  0  0
   17.8811    4.6125   53.6202 C   0  0  0  0  0  0  0  0  0  0  0  0
   17.9950    3.3731   53.0369 C   0  0  0  0  0  0  0  0  0  0  0  0
   19.2623    2.9205   52.7736 C   0  0  0  0  0  0  0  0  0  0  0  0
   20.3987    3.6419   53.0640 C   0  0  0  0  0  0  0  0  0  0  0  0
   20.9075    8.0500   51.4481 C   0  0  0  0  0  0  0  0  0  0  0  0
   21.4033    8.4710   52.8159 C   0  0  0  0  0  0  0  0  0  0  0  0
   21.6064    9.9428   52.8556 C   0  0  0  0  0  0  0  0  0  0  0  0
 27 28  1  0  0  0
 28 29  1  0  0  0
 28  1  1  0  0  0
  1  2  1  0  0  0
  2  3  1  0  0  0
  3  4  1  0  0  0
  4  5  1  0  0  0
  5  6  1  0  0  0
  6  7  1  0  0  0
  7  8  2  0  0  0
  8  9  1  0  0  0
  9 10  2  0  0  0
 10 13  1  0  0  0
 13 14  1  0  0  0
 13 15  2  0  0  0
 10 11  1  0  0  0
 11 12  2  0  0  0
 11 17  1  0  0  0
 17 18  1  0  0  0
 17 19  1  0  0  0
 17 20  1  0  0  0
  3 21  1  0  0  0
 21 22  2  0  0  0
 22 23  1  0  0  0
 23 24  2  0  0  0
 24 25  1  0  0  0
 25 26  2  0  0  0
  6  1  1  0  0  0
 12  7  1  0  0  0
 26 21  1  0  0  0
 14 16  1  0  0  0
M  END
> <minimizedAffinity>
20.34198

> <CNNscore>
0.4629952013

> <CNNaffinity>
6.0954804420

> <CNN_VS>
2.8221781254

> <CNNaffinity_variance>
0.2283851206

$$$$
[H]OC(=O)c1c([H])c([H])c(N2C([H])([H])C([H])([H])N(c3c([H])c([H])c([H])c([H])c3[H])C([H])([H])[C@@]2([H])C([H])(C([H])([H])[H])C([H])([H])[H])c([H])c1C(F)(F)F


 29 31  0  0  0  0  0  0  0  0999 V2000
   21.8063    8.4660   54.0293 C   0  0  0  0  0  0  0  0  0  0  0  0
   23.0227    8.3995   54.9561 C   0  0  0  0  0  0  0  0  0  0  0  0
   24.1021    7.6438   54.3646 N   0  0  0  0  0  0  0  0  0  0  0  0
   23.7773    6.3343   53.8552 C   0  0  0  0  0  0  0  0  0  0  0  0
   22.6498    6.5145   52.8353 C   0  0  0  0  0  0  0  0  0  0  0  0
   21.5386    7.1573   53.5135 N   0  0  0  0  0  0  0  0  0  0  0  0
   20.3124    6.4622   53.6326 C   0  0  0  0  0  0  0  0  0  0  0  0
   19.1005    7.0839   53.8415 C   0  0  0  0  0  0  0  0  0  0  0  0
   17.9188    6.4024   53.9366 C   0  0  0  0  0  0  0  0  0  0  0  0
   17.8701    5.0007   53.8249 C   0  0  0  0  0  0  0  0  0  0  0  0
   19.0674    4.3724   53.6183 C   0  0  0  0  0  0  0  0  0  0  0  0
   20.2795    5.0918   53.5219 C   0  0  0  0  0  0  0  0  0  0  0  0
   16.5697    4.3454   53.9159 C   0  0  0  0  0  0  0  0  0  0  0  0
   16.2115    3.8008   55.1897 O   0  0  0  0  0  0  0  0  0  0  0  0
   15.7088    4.1767   53.0652 O   0  0  0  0  0  0  0  0  0  0  0  0
   15.6956    4.3649   55.8526 H   0  0  0  0  0  0  0  0  0  0  0  0
   19.1064    2.8897   53.5058 C   0  0  0  0  0  0  0  0  0  0  0  0
   20.0504    2.4364   52.6075 F   0  0  0  0  0  0  0  0  0  0  0  0
   17.8833    2.5157   52.8887 F   0  0  0  0  0  0  0  0  0  0  0  0
   19.1790    2.3255   54.7409 F   0  0  0  0  0  0  0  0  0  0  0  0
   25.4080    8.1475   54.3079 C   0  0  0  0  0  0  0  0  0  0  0  0
   26.1330    8.2821   53.1392 C   0  0  0  0  0  0  0  0  0  0  0  0
   27.4376    8.7691   53.1064 C   0  0  0  0  0  0  0  0  0  0  0  0
   28.0629    9.1425   54.2722 C   0  0  0  0  0  0  0  0  0  0  0  0
   27.3477    9.0110   55.4347 C   0  0  0  0  0  0  0  0  0  0  0  0
   26.0579    8.5307   55.4791 C   0  0  0  0  0  0  0  0  0  0  0  0
   21.8230   10.8881   53.5208 C   0  0  0  0  0  0  0  0  0  0  0  0
   22.0807    9.4984   52.9767 C   0  0  0  0  0  0  0  0  0  0  0  0
   21.3341    9.2997   51.7069 C   0  0  0  0  0  0  0  0  0  0  0  0
 27 28  1  0  0  0
 28 29  1  0  0  0
 28  1  1  0  0  0
  1  2  1  0  0  0
  2  3  1  0  0  0
  3  4  1  0  0  0
  4  5  1  0  0  0
  5  6  1  0  0  0
  6  7  1  0  0  0
  7  8  2  0  0  0
  8  9  1  0  0  0
  9 10  2  0  0  0
 10 13  1  0  0  0
 13 14  1  0  0  0
 13 15  2  0  0  0
 10 11  1  0  0  0
 11 12  2  0  0  0
 11 17  1  0  0  0
 17 18  1  0  0  0
 17 19  1  0  0  0
 17 20  1  0  0  0
  3 21  1  0  0  0
 21 22  2  0  0  0
 22 23  1  0  0  0
 23 24  2  0  0  0
 24 25  1  0  0  0
 25 26  2  0  0  0
  6  1  1  0  0  0
 12  7  1  0  0  0
 26 21  1  0  0  0
 14 16  1  0  0  0
M  END
> <minimizedAffinity>
19.91157

> <CNNscore>
0.4457257092

> <CNNaffinity>
5.9213867188

> <CNN_VS>
2.6393144131

> <CNNaffinity_variance>
0.1467313021

$$$$
[H]OC(=O)c1c([H])c([H])c(N2C([H])([H])C([H])([H])N(c3c([H])c([H])c([H])c([H])c3[H])C([H])([H])[C@@]2([H])C([H])(C([H])([H])[H])C([H])([H])[H])c([H])c1C(F)(F)F


 29 31  0  0  0  0  0  0  0  0999 V2000
   22.1193    7.9623   52.9012 C   0  0  0  0  0  0  0  0  0  0  0  0
   21.4562    6.6228   52.5714 C   0  0  0  0  0  0  0  0  0  0  0  0
   20.8758    6.0126   53.7448 N   0  0  0  0  0  0  0  0  0  0  0  0
   21.7266    5.8887   54.9025 C   0  0  0  0  0  0  0  0  0  0  0  0
   22.2313    7.2933   55.2434 C   0  0  0  0  0  0  0  0  0  0  0  0
   22.9234    7.8098   54.0763 N   0  0  0  0  0  0  0  0  0  0  0  0
   24.3048    8.0995   54.1699 C   0  0  0  0  0  0  0  0  0  0  0  0
   25.1932    7.9223   53.1315 C   0  0  0  0  0  0  0  0  0  0  0  0
   26.5236    8.2235   53.2282 C   0  0  0  0  0  0  0  0  0  0  0  0
   27.0735    8.7410   54.4153 C   0  0  0  0  0  0  0  0  0  0  0  0
   26.2011    8.9202   55.4535 C   0  0  0  0  0  0  0  0  0  0  0  0
   24.8291    8.6045   55.3367 C   0  0  0  0  0  0  0  0  0  0  0  0
   28.4976    9.0579   54.4359 C   0  0  0  0  0  0  0  0  0  0  0  0
   29.3783    8.0317   54.9038 O   0  0  0  0  0  0  0  0  0  0  0  0
   29.0842   10.0800   54.1129 O   0  0  0  0  0  0  0  0  0  0  0  0
   29.7868    7.3794   54.2470 H   0  0  0  0  0  0  0  0  0  0  0  0
   26.7045    9.4475   56.7501 C   0  0  0  0  0  0  0  0  0  0  0  0
   27.7864    8.7455   57.2402 F   0  0  0  0  0  0  0  0  0  0  0  0
   25.6908    9.1643   57.7033 F   0  0  0  0  0  0  0  0  0  0  0  0
   26.8869   10.7927   56.6724 F   0  0  0  0  0  0  0  0  0  0  0  0
   19.5563    5.5423   53.7530 C   0  0  0  0  0  0  0  0  0  0  0  0
   18.4445    6.3626   53.7270 C   0  0  0  0  0  0  0  0  0  0  0  0
   17.1400    5.8750   53.7535 C   0  0  0  0  0  0  0  0  0  0  0  0
   16.9118    4.5206   53.8079 C   0  0  0  0  0  0  0  0  0  0  0  0
   18.0118    3.7022   53.8337 C   0  0  0  0  0  0  0  0  0  0  0  0
   19.3057    4.1729   53.8081 C   0  0  0  0  0  0  0  0  0  0  0  0
   20.9993    9.8652   51.7835 C   0  0  0  0  0  0  0  0  0  0  0  0
   21.0404    8.9967   53.0235 C   0  0  0  0  0  0  0  0  0  0  0  0
   21.1335    9.8458   54.2399 C   0  0  0  0  0  0  0  0  0  0  0  0
 27 28  1  0  0  0
 28 29  1  0  0  0
 28  1  1  0  0  0
  1  2  1  0  0  0
  2  3  1  0  0  0
  3  4  1  0  0  0
  4  5  1  0  0  0
  5  6  1  0  0  0
  6  7  1  0  0  0
  7  8  2  0  0  0
  8  9  1  0  0  0
  9 10  2  0  0  0
 10 13  1  0  0  0
 13 14  1  0  0  0
 13 15  2  0  0  0
 10 11  1  0  0  0
 11 12  2  0  0  0
 11 17  1  0  0  0
 17 18  1  0  0  0
 17 19  1  0  0  0
 17 20  1  0  0  0
  3 21  1  0  0  0
 21 22  2  0  0  0
 22 23  1  0  0  0
 23 24  2  0  0  0
 24 25  1  0  0  0
 25 26  2  0  0  0
  6  1  1  0  0  0
 12  7  1  0  0  0
 26 21  1  0  0  0
 14 16  1  0  0  0
M  END
> <minimizedAffinity>
20.17050

> <CNNscore>
0.4160707295

> <CNNaffinity>
5.8990502357

> <CNN_VS>
2.4544222355

> <CNNaffinity_variance>
0.2544032037

$$$$
[H]OC(=O)c1c([H])c([H])c(N2C([H])([H])C([H])([H])N(c3c([H])c([H])c([H])c([H])c3[H])C([H])([H])[C@@]2([H])C([H])(C([H])([H])[H])C([H])([H])[H])c([H])c1C(F)(F)F


 29 31  0  0  0  0  0  0  0  0999 V2000
   21.5571    7.9984   53.8217 C   0  0  0  0  0  0  0  0  0  0  0  0
   22.6996    8.1339   54.8312 C   0  0  0  0  0  0  0  0  0  0  0  0
   23.8600    7.3748   54.4271 N   0  0  0  0  0  0  0  0  0  0  0  0
   23.6453    5.9909   54.0830 C   0  0  0  0  0  0  0  0  0  0  0  0
   22.5925    5.9608   52.9720 C   0  0  0  0  0  0  0  0  0  0  0  0
   21.3996    6.6179   53.4753 N   0  0  0  0  0  0  0  0  0  0  0  0
   20.2063    5.8695   53.6040 C   0  0  0  0  0  0  0  0  0  0  0  0
   20.1731    4.4940   53.6803 C   0  0  0  0  0  0  0  0  0  0  0  0
   19.0143    3.7823   53.8233 C   0  0  0  0  0  0  0  0  0  0  0  0
   17.7649    4.4244   53.9021 C   0  0  0  0  0  0  0  0  0  0  0  0
   17.7852    5.7900   53.8265 C   0  0  0  0  0  0  0  0  0  0  0  0
   18.9916    6.5102   53.6794 C   0  0  0  0  0  0  0  0  0  0  0  0
   16.5741    3.5992   54.0755 C   0  0  0  0  0  0  0  0  0  0  0  0
   15.9527    3.6292   55.3641 O   0  0  0  0  0  0  0  0  0  0  0  0
   16.0001    2.8647   53.2855 O   0  0  0  0  0  0  0  0  0  0  0  0
   15.2149    4.2953   55.5531 H   0  0  0  0  0  0  0  0  0  0  0  0
   16.5052    6.5456   53.8849 C   0  0  0  0  0  0  0  0  0  0  0  0
   16.0975    6.8274   55.1725 F   0  0  0  0  0  0  0  0  0  0  0  0
   15.5040    5.6473   53.4299 F   0  0  0  0  0  0  0  0  0  0  0  0
   16.5556    7.6219   53.0554 F   0  0  0  0  0  0  0  0  0  0  0  0
   25.1380    7.9474   54.3921 C   0  0  0  0  0  0  0  0  0  0  0  0
   25.9151    8.0312   53.2524 C   0  0  0  0  0  0  0  0  0  0  0  0
   27.1913    8.5890   53.2426 C   0  0  0  0  0  0  0  0  0  0  0  0
   27.7336    9.0889   54.4025 C   0  0  0  0  0  0  0  0  0  0  0  0
   26.9665    9.0083   55.5362 C   0  0  0  0  0  0  0  0  0  0  0  0
   25.7039    8.4589   55.5579 C   0  0  0  0  0  0  0  0  0  0  0  0
   21.7148   10.3479   53.0601 C   0  0  0  0  0  0  0  0  0  0  0  0
   21.8575    8.8949   52.6576 C   0  0  0  0  0  0  0  0  0  0  0  0
   21.0495    8.6193   51.4409 C   0  0  0  0  0  0  0  0  0  0  0  0
 27 28  1  0  0  0
 28 29  1  0  0  0
 28  1  1  0  0  0
  1  2  1  0  0  0
  2  3  1  0  0  0
  3  4  1  0  0  0
  4  5  1  0  0  0
  5  6  1  0  0  0
  6  7  1  0  0  0
  7  8  2  0  0  0
  8  9  1  0  0  0
  9 10  2  0  0  0
 10 13  1  0  0  0
 13 14  1  0  0  0
 13 15  2  0  0  0
 10 11  1  0  0  0
 11 12  2  0  0  0
 11 17  1  0  0  0
 17 18  1  0  0  0
 17 19  1  0  0  0
 17 20  1  0  0  0
  3 21  1  0  0  0
 21 22  2  0  0  0
 22 23  1  0  0  0
 23 24  2  0  0  0
 24 25  1  0  0  0
 25 26  2  0  0  0
  6  1  1  0  0  0
 12  7  1  0  0  0
 26 21  1  0  0  0
 14 16  1  0  0  0
M  END
> <minimizedAffinity>
22.99195

> <CNNscore>
0.2920178175

> <CNNaffinity>
5.6034336090

> <CNN_VS>
1.6363024712

> <CNNaffinity_variance>
0.3917858899

$$$$
[H]OC(=O)c1c([H])c([H])c(N2C([H])([H])C([H])([H])N(c3c([H])c([H])c([H])c([H])c3[H])C([H])([H])[C@@]2([H])C([H])(C([H])([H])[H])C([H])([H])[H])c([H])c1C(F)(F)F


 29 31  0  0  0  0  0  0  0  0999 V2000
   21.9424    8.7509   53.9003 C   0  0  0  0  0  0  0  0  0  0  0  0
   21.2365    9.4435   52.7320 C   0  0  0  0  0  0  0  0  0  0  0  0
   20.7609    8.4903   51.7566 N   0  0  0  0  0  0  0  0  0  0  0  0
   21.7142    7.5218   51.2741 C   0  0  0  0  0  0  0  0  0  0  0  0
   22.2641    6.7828   52.4970 C   0  0  0  0  0  0  0  0  0  0  0  0
   22.8505    7.7712   53.3843 N   0  0  0  0  0  0  0  0  0  0  0  0
   24.2377    7.7137   53.6546 C   0  0  0  0  0  0  0  0  0  0  0  0
   24.7803    7.0169   54.7124 C   0  0  0  0  0  0  0  0  0  0  0  0
   26.1249    6.9535   54.9529 C   0  0  0  0  0  0  0  0  0  0  0  0
   27.0503    7.6081   54.1193 C   0  0  0  0  0  0  0  0  0  0  0  0
   26.5231    8.3039   53.0663 C   0  0  0  0  0  0  0  0  0  0  0  0
   25.1310    8.3589   52.8317 C   0  0  0  0  0  0  0  0  0  0  0  0
   28.4704    7.4772   54.4274 C   0  0  0  0  0  0  0  0  0  0  0  0
   29.1383    6.3244   53.9054 O   0  0  0  0  0  0  0  0  0  0  0  0
   29.2087    8.2048   55.0744 O   0  0  0  0  0  0  0  0  0  0  0  0
   29.5930    6.3703   53.0027 H   0  0  0  0  0  0  0  0  0  0  0  0
   27.4317    9.0388   52.1460 C   0  0  0  0  0  0  0  0  0  0  0  0
   27.1569   10.3889   52.0726 F   0  0  0  0  0  0  0  0  0  0  0  0
   27.1110    8.5835   50.8397 F   0  0  0  0  0  0  0  0  0  0  0  0
   28.7281    8.7361   52.4231 F   0  0  0  0  0  0  0  0  0  0  0  0
   19.4427    8.5178   51.2833 C   0  0  0  0  0  0  0  0  0  0  0  0
   18.9199    9.5403   50.5148 C   0  0  0  0  0  0  0  0  0  0  0  0
   17.6005    9.5570   50.0687 C   0  0  0  0  0  0  0  0  0  0  0  0
   16.7519    8.5243   50.3893 C   0  0  0  0  0  0  0  0  0  0  0  0
   17.2658    7.5071   51.1518 C   0  0  0  0  0  0  0  0  0  0  0  0
   18.5681    7.4801   51.5985 C   0  0  0  0  0  0  0  0  0  0  0  0
   19.8284    9.2377   55.0914 C   0  0  0  0  0  0  0  0  0  0  0  0
   20.8911    8.1950   54.8140 C   0  0  0  0  0  0  0  0  0  0  0  0
   21.4122    7.6431   56.0920 C   0  0  0  0  0  0  0  0  0  0  0  0
 27 28  1  0  0  0
 28 29  1  0  0  0
 28  1  1  0  0  0
  1  2  1  0  0  0
  2  3  1  0  0  0
  3  4  1  0  0  0
  4  5  1  0  0  0
  5  6  1  0  0  0
  6  7  1  0  0  0
  7  8  2  0  0  0
  8  9  1  0  0  0
  9 10  2  0  0  0
 10 13  1  0  0  0
 13 14  1  0  0  0
 13 15  2  0  0  0
 10 11  1  0  0  0
 11 12  2  0  0  0
 11 17  1  0  0  0
 17 18  1  0  0  0
 17 19  1  0  0  0
 17 20  1  0  0  0
  3 21  1  0  0  0
 21 22  2  0  0  0
 22 23  1  0  0  0
 23 24  2  0  0  0
 24 25  1  0  0  0
 25 26  2  0  0  0
  6  1  1  0  0  0
 12  7  1  0  0  0
 26 21  1  0  0  0
 14 16  1  0  0  0
M  END
> <minimizedAffinity>
58.13380

> <CNNscore>
0.2747230828

> <CNNaffinity>
5.3272705078

> <CNN_VS>
1.4635242224

> <CNNaffinity_variance>
0.6373924017

$$$$
[H]OC(=O)c1[se]c(-c2c([H])c([H])c(C([H])([H])[H])c(C#N)c2[H])nc1C([H])([H])[H]


 19 20  0  0  0  0  0  0  0  0999 V2000
   24.4586    8.2542   53.9116 C   0  0  0  0  0  0  0  0  0  0  0  0
   25.6983    8.1115   53.7631 N   0  0  0  0  0  0  0  0  0  0  0  0
   26.7144    8.3473   54.4489 C   0  0  0  0  0  0  0  0  0  0  0  0
   28.1339    8.0374   53.9441 C   0  0  0  0  0  0  0  0  0  0  0  0
   26.7087    8.8895   55.6895 C   0  0  0  0  0  0  0  0  0  0  0  0
   24.6390    9.0990   55.8717 Se  0  0  0  0  0  0  0  0  0  0  0  0
   19.3914    7.7569   51.4306 C   0  0  0  0  0  0  0  0  0  0  0  0
   20.7186    7.8704   52.0912 C   0  0  0  0  0  0  0  0  0  0  0  0
   21.5289    8.9510   51.8447 C   0  0  0  0  0  0  0  0  0  0  0  0
   22.7470    9.0392   52.4613 C   0  0  0  0  0  0  0  0  0  0  0  0
   23.1668    8.0741   53.3135 C   0  0  0  0  0  0  0  0  0  0  0  0
   22.3492    6.9956   53.5546 C   0  0  0  0  0  0  0  0  0  0  0  0
   21.1156    6.8707   52.9530 C   0  0  0  0  0  0  0  0  0  0  0  0
   20.2830    5.7454   53.2159 C   0  0  0  0  0  0  0  0  0  0  0  0
   19.6011    4.8376   53.4416 N   0  0  0  0  0  0  0  0  0  0  0  0
   27.6558    9.2676   56.6914 C   0  0  0  0  0  0  0  0  0  0  0  0
   29.0073    9.4995   56.4321 O   0  0  0  0  0  0  0  0  0  0  0  0
   27.2823    9.4067   57.8775 O   0  0  0  0  0  0  0  0  0  0  0  0
   29.6393    8.7126   56.5768 H   0  0  0  0  0  0  0  0  0  0  0  0
  7  8  1  0  0  0
  8  9  2  0  0  0
  9 10  1  0  0  0
 10 11  2  0  0  0
 11 12  1  0  0  0
 12 13  2  0  0  0
 13 14  1  0  0  0
 14 15  3  0  0  0
 11  1  1  0  0  0
  1  2  2  0  0  0
  2  3  1  0  0  0
  3  4  1  0  0  0
  3  5  2  0  0  0
  5  6  1  0  0  0
  5 16  1  0  0  0
 16 17  1  0  0  0
 16 18  2  0  0  0
 13  8  1  0  0  0
  6  1  1  0  0  0
 17 19  1  0  0  0
M  END
> <minimizedAffinity>
5.95579

> <CNNscore>
0.6121978760

> <CNNaffinity>
5.2496814728

> <CNN_VS>
3.2138438225

> <CNNaffinity_variance>
0.0623787045

$$$$
[H]OC(=O)c1[se]c(-c2c([H])c([H])c(C([H])([H])[H])c(C#N)c2[H])nc1C([H])([H])[H]


 19 20  0  0  0  0  0  0  0  0999 V2000
   24.1184    7.6439   53.9008 C   0  0  0  0  0  0  0  0  0  0  0  0
   23.3518    6.6482   53.9137 N   0  0  0  0  0  0  0  0  0  0  0  0
   22.1651    6.4287   53.5942 C   0  0  0  0  0  0  0  0  0  0  0  0
   21.5189    5.0411   53.7454 C   0  0  0  0  0  0  0  0  0  0  0  0
   21.3114    7.3494   53.0876 C   0  0  0  0  0  0  0  0  0  0  0  0
   22.6367    8.9631   53.0932 Se  0  0  0  0  0  0  0  0  0  0  0  0
   29.3788    9.5305   54.8214 C   0  0  0  0  0  0  0  0  0  0  0  0
   27.9943    9.0365   54.5990 C   0  0  0  0  0  0  0  0  0  0  0  0
   27.5599    8.7279   53.3336 C   0  0  0  0  0  0  0  0  0  0  0  0
   26.2826    8.2745   53.1473 C   0  0  0  0  0  0  0  0  0  0  0  0
   25.4377    8.1252   54.1951 C   0  0  0  0  0  0  0  0  0  0  0  0
   25.8808    8.4365   55.4586 C   0  0  0  0  0  0  0  0  0  0  0  0
   27.1599    8.8959   55.6870 C   0  0  0  0  0  0  0  0  0  0  0  0
   27.6001    9.2131   57.0040 C   0  0  0  0  0  0  0  0  0  0  0  0
   27.9491    9.4603   58.0796 N   0  0  0  0  0  0  0  0  0  0  0  0
   19.9545    7.4127   52.6417 C   0  0  0  0  0  0  0  0  0  0  0  0
   18.8554    7.1742   53.4679 O   0  0  0  0  0  0  0  0  0  0  0  0
   19.7060    7.6958   51.4485 O   0  0  0  0  0  0  0  0  0  0  0  0
   18.4830    6.2250   53.4660 H   0  0  0  0  0  0  0  0  0  0  0  0
  7  8  1  0  0  0
  8  9  2  0  0  0
  9 10  1  0  0  0
 10 11  2  0  0  0
 11 12  1  0  0  0
 12 13  2  0  0  0
 13 14  1  0  0  0
 14 15  3  0  0  0
 11  1  1  0  0  0
  1  2  2  0  0  0
  2  3  1  0  0  0
  3  4  1  0  0  0
  3  5  2  0  0  0
  5  6  1  0  0  0
  5 16  1  0  0  0
 16 17  1  0  0  0
 16 18  2  0  0  0
 13  8  1  0  0  0
  6  1  1  0  0  0
 17 19  1  0  0  0
M  END
> <minimizedAffinity>
3.14496

> <CNNscore>
0.5909108520

> <CNNaffinity>
5.3404607773

> <CNN_VS>
3.1557362080

> <CNNaffinity_variance>
0.2601788044

$$$$
[H]OC(=O)c1[se]c(-c2c([H])c([H])c(C([H])([H])[H])c(C#N)c2[H])nc1C([H])([H])[H]


 19 20  0  0  0  0  0  0  0  0999 V2000
   20.6399    7.7078   53.3142 C   0  0  0  0  0  0  0  0  0  0  0  0
   21.0104    8.7137   53.9701 N   0  0  0  0  0  0  0  0  0  0  0  0
   21.3319    9.8892   53.6995 C   0  0  0  0  0  0  0  0  0  0  0  0
   21.7485   10.8956   54.7855 C   0  0  0  0  0  0  0  0  0  0  0  0
   21.3577   10.4236   52.4557 C   0  0  0  0  0  0  0  0  0  0  0  0
   20.7377    8.7155   51.4266 Se  0  0  0  0  0  0  0  0  0  0  0  0
   19.2819    2.2136   53.5335 C   0  0  0  0  0  0  0  0  0  0  0  0
   19.6198    3.6605   53.4805 C   0  0  0  0  0  0  0  0  0  0  0  0
   20.8963    4.0668   53.1796 C   0  0  0  0  0  0  0  0  0  0  0  0
   21.1897    5.4024   53.1352 C   0  0  0  0  0  0  0  0  0  0  0  0
   20.2372    6.3324   53.3843 C   0  0  0  0  0  0  0  0  0  0  0  0
   18.9618    5.9168   53.6846 C   0  0  0  0  0  0  0  0  0  0  0  0
   18.6271    4.5810   53.7391 C   0  0  0  0  0  0  0  0  0  0  0  0
   17.2997    4.1706   54.0523 C   0  0  0  0  0  0  0  0  0  0  0  0
   16.2231    3.8245   54.2993 N   0  0  0  0  0  0  0  0  0  0  0  0
   21.6654   11.6769   51.8406 C   0  0  0  0  0  0  0  0  0  0  0  0
   21.4430   11.9531   50.4909 O   0  0  0  0  0  0  0  0  0  0  0  0
   22.1632   12.5984   52.5251 O   0  0  0  0  0  0  0  0  0  0  0  0
   22.2314   11.8063   49.8612 H   0  0  0  0  0  0  0  0  0  0  0  0
  7  8  1  0  0  0
  8  9  2  0  0  0
  9 10  1  0  0  0
 10 11  2  0  0  0
 11 12  1  0  0  0
 12 13  2  0  0  0
 13 14  1  0  0  0
 14 15  3  0  0  0
 11  1  1  0  0  0
  1  2  2  0  0  0
  2  3  1  0  0  0
  3  4  1  0  0  0
  3  5  2  0  0  0
  5  6  1  0  0  0
  5 16  1  0  0  0
 16 17  1  0  0  0
 16 18  2  0  0  0
 13  8  1  0  0  0
  6  1  1  0  0  0
 17 19  1  0  0  0
M  END
> <minimizedAffinity>
17.35666

> <CNNscore>
0.5691044331

> <CNNaffinity>
5.4978299141

> <CNN_VS>
3.1288394928

> <CNNaffinity_variance>
0.2007829398

$$$$
[H]OC(=O)c1[se]c(-c2c([H])c([H])c(C([H])([H])[H])c(C#N)c2[H])nc1C([H])([H])[H]


 19 20  0  0  0  0  0  0  0  0999 V2000
   22.0693    8.8595   53.1866 C   0  0  0  0  0  0  0  0  0  0  0  0
   21.5962    9.3196   52.1171 N   0  0  0  0  0  0  0  0  0  0  0  0
   21.2789   10.4499   51.6926 C   0  0  0  0  0  0  0  0  0  0  0  0
   20.7082   10.6646   50.2805 C   0  0  0  0  0  0  0  0  0  0  0  0
   21.3893   11.6042   52.3917 C   0  0  0  0  0  0  0  0  0  0  0  0
   22.1734   10.7747   54.1403 Se  0  0  0  0  0  0  0  0  0  0  0  0
   23.6410    4.2790   56.1239 C   0  0  0  0  0  0  0  0  0  0  0  0
   23.2377    5.4743   55.3370 C   0  0  0  0  0  0  0  0  0  0  0  0
   22.4882    6.4685   55.9158 C   0  0  0  0  0  0  0  0  0  0  0  0
   22.1259    7.5615   55.1769 C   0  0  0  0  0  0  0  0  0  0  0  0
   22.4966    7.6779   53.8795 C   0  0  0  0  0  0  0  0  0  0  0  0
   23.2469    6.6780   53.3080 C   0  0  0  0  0  0  0  0  0  0  0  0
   23.6315    5.5618   54.0191 C   0  0  0  0  0  0  0  0  0  0  0  0
   24.4090    4.5363   53.4087 C   0  0  0  0  0  0  0  0  0  0  0  0
   25.0319    3.6928   52.9185 N   0  0  0  0  0  0  0  0  0  0  0  0
   21.1252   12.9959   52.1990 C   0  0  0  0  0  0  0  0  0  0  0  0
   20.0995   13.6869   52.8457 O   0  0  0  0  0  0  0  0  0  0  0  0
   21.8368   13.6595   51.4123 O   0  0  0  0  0  0  0  0  0  0  0  0
   19.2183   13.7701   52.3397 H   0  0  0  0  0  0  0  0  0  0  0  0
  7  8  1  0  0  0
  8  9  2  0  0  0
  9 10  1  0  0  0
 10 11  2  0  0  0
 11 12  1  0  0  0
 12 13  2  0  0  0
 13 14  1  0  0  0
 14 15  3  0  0  0
 11  1  1  0  0  0
  1  2  2  0  0  0
  2  3  1  0  0  0
  3  4  1  0  0  0
  3  5  2  0  0  0
  5  6  1  0  0  0
  5 16  1  0  0  0
 16 17  1  0  0  0
 16 18  2  0  0  0
 13  8  1  0  0  0
  6  1  1  0  0  0
 17 19  1  0  0  0
M  END
> <minimizedAffinity>
23.82797

> <CNNscore>
0.5597363710

> <CNNaffinity>
4.9245481491

> <CNN_VS>
2.7564487457

> <CNNaffinity_variance>
0.2981260419

$$$$
[H]OC(=O)c1[se]c(-c2c([H])c([H])c(C([H])([H])[H])c(C#N)c2[H])nc1C([H])([H])[H]


 19 20  0  0  0  0  0  0  0  0999 V2000
   21.8540    8.7200   52.4319 C   0  0  0  0  0  0  0  0  0  0  0  0
   20.8849    8.9103   51.6547 N   0  0  0  0  0  0  0  0  0  0  0  0
   20.4013    9.8902   51.0512 C   0  0  0  0  0  0  0  0  0  0  0  0
   19.1631    9.7665   50.1472 C   0  0  0  0  0  0  0  0  0  0  0  0
   20.8828   11.1545   51.1062 C   0  0  0  0  0  0  0  0  0  0  0  0
   22.4753   10.7696   52.4010 Se  0  0  0  0  0  0  0  0  0  0  0  0
   24.4984    4.7574   55.4952 C   0  0  0  0  0  0  0  0  0  0  0  0
   23.8202    5.8089   54.6922 C   0  0  0  0  0  0  0  0  0  0  0  0
   22.5348    5.6241   54.2465 C   0  0  0  0  0  0  0  0  0  0  0  0
   21.9260    6.6023   53.5087 C   0  0  0  0  0  0  0  0  0  0  0  0
   22.5741    7.7535   53.2105 C   0  0  0  0  0  0  0  0  0  0  0  0
   23.8608    7.9303   53.6607 C   0  0  0  0  0  0  0  0  0  0  0  0
   24.5079    6.9687   54.4063 C   0  0  0  0  0  0  0  0  0  0  0  0
   25.8416    7.1709   54.8635 C   0  0  0  0  0  0  0  0  0  0  0  0
   26.9206    7.3351   55.2491 N   0  0  0  0  0  0  0  0  0  0  0  0
   20.5715   12.4379   50.5587 C   0  0  0  0  0  0  0  0  0  0  0  0
   20.1322   12.6360   49.2490 O   0  0  0  0  0  0  0  0  0  0  0  0
   20.6896   13.4610   51.2694 O   0  0  0  0  0  0  0  0  0  0  0  0
   20.8479   12.8627   48.5591 H   0  0  0  0  0  0  0  0  0  0  0  0
  7  8  1  0  0  0
  8  9  2  0  0  0
  9 10  1  0  0  0
 10 11  2  0  0  0
 11 12  1  0  0  0
 12 13  2  0  0  0
 13 14  1  0  0  0
 14 15  3  0  0  0
 11  1  1  0  0  0
  1  2  2  0  0  0
  2  3  1  0  0  0
  3  4  1  0  0  0
  3  5  2  0  0  0
  5  6  1  0  0  0
  5 16  1  0  0  0
 16 17  1  0  0  0
 16 18  2  0  0  0
 13  8  1  0  0  0
  6  1  1  0  0  0
 17 19  1  0  0  0
M  END
> <minimizedAffinity>
27.97193

> <CNNscore>
0.5265384316

> <CNNaffinity>
4.6680426598

> <CNN_VS>
2.4579038620

> <CNNaffinity_variance>
0.2961584926

$$$$
[H]OC(=O)c1[se]c(-c2c([H])c([H])c(C([H])([H])[H])c(C#N)c2[H])nc1C([H])([H])[H]


 19 20  0  0  0  0  0  0  0  0999 V2000
   24.3715    8.4284   54.2145 C   0  0  0  0  0  0  0  0  0  0  0  0
   25.0049    8.7684   55.2452 N   0  0  0  0  0  0  0  0  0  0  0  0
   26.2048    8.9484   55.5391 C   0  0  0  0  0  0  0  0  0  0  0  0
   26.6479    9.3789   56.9476 C   0  0  0  0  0  0  0  0  0  0  0  0
   27.2470    8.7952   54.6884 C   0  0  0  0  0  0  0  0  0  0  0  0
   26.1340    8.2356   53.0125 Se  0  0  0  0  0  0  0  0  0  0  0  0
   19.2587    7.6238   51.9143 C   0  0  0  0  0  0  0  0  0  0  0  0
   20.6005    7.8166   52.5249 C   0  0  0  0  0  0  0  0  0  0  0  0
   21.2539    9.0182   52.4052 C   0  0  0  0  0  0  0  0  0  0  0  0
   22.4882    9.1781   52.9734 C   0  0  0  0  0  0  0  0  0  0  0  0
   23.0769    8.1661   53.6541 C   0  0  0  0  0  0  0  0  0  0  0  0
   22.4157    6.9664   53.7692 C   0  0  0  0  0  0  0  0  0  0  0  0
   21.1715    6.7664   53.2111 C   0  0  0  0  0  0  0  0  0  0  0  0
   20.5027    5.5157   53.3414 C   0  0  0  0  0  0  0  0  0  0  0  0
   19.9662    4.4943   53.4352 N   0  0  0  0  0  0  0  0  0  0  0  0
   28.6710    8.9186   54.7149 C   0  0  0  0  0  0  0  0  0  0  0  0
   29.3478   10.1256   54.5338 O   0  0  0  0  0  0  0  0  0  0  0  0
   29.3782    7.9049   54.9096 O   0  0  0  0  0  0  0  0  0  0  0  0
   29.6606   10.3333   53.5859 H   0  0  0  0  0  0  0  0  0  0  0  0
  7  8  1  0  0  0
  8  9  2  0  0  0
  9 10  1  0  0  0
 10 11  2  0  0  0
 11 12  1  0  0  0
 12 13  2  0  0  0
 13 14  1  0  0  0
 14 15  3  0  0  0
 11  1  1  0  0  0
  1  2  2  0  0  0
  2  3  1  0  0  0
  3  4  1  0  0  0
  3  5  2  0  0  0
  5  6  1  0  0  0
  5 16  1  0  0  0
 16 17  1  0  0  0
 16 18  2  0  0  0
 13  8  1  0  0  0
  6  1  1  0  0  0
 17 19  1  0  0  0
M  END
> <minimizedAffinity>
6.71632

> <CNNscore>
0.5129443407

> <CNNaffinity>
5.0031595230

> <CNN_VS>
2.5663423538

> <CNNaffinity_variance>
0.0234145019

$$$$
[H]OC(=O)c1[se]c(-c2c([H])c([H])c(C([H])([H])[H])c(C#N)c2[H])nc1C([H])([H])[H]


 19 20  0  0  0  0  0  0  0  0999 V2000
   24.9338    7.8487   54.4697 C   0  0  0  0  0  0  0  0  0  0  0  0
   26.1667    7.8095   54.2296 N   0  0  0  0  0  0  0  0  0  0  0  0
   27.1852    8.3689   54.6860 C   0  0  0  0  0  0  0  0  0  0  0  0
   28.5937    8.0784   54.1405 C   0  0  0  0  0  0  0  0  0  0  0  0
   27.1916    9.2773   55.6899 C   0  0  0  0  0  0  0  0  0  0  0  0
   25.1326    9.2947   56.0374 Se  0  0  0  0  0  0  0  0  0  0  0  0
   19.8574    5.6634   53.2313 C   0  0  0  0  0  0  0  0  0  0  0  0
   21.1876    6.2504   53.5421 C   0  0  0  0  0  0  0  0  0  0  0  0
   21.9617    5.7270   54.5481 C   0  0  0  0  0  0  0  0  0  0  0  0
   23.1833    6.2797   54.8205 C   0  0  0  0  0  0  0  0  0  0  0  0
   23.6417    7.3382   54.1109 C   0  0  0  0  0  0  0  0  0  0  0  0
   22.8602    7.8558   53.1055 C   0  0  0  0  0  0  0  0  0  0  0  0
   21.6245    7.3271   52.8009 C   0  0  0  0  0  0  0  0  0  0  0  0
   20.8296    7.8780   51.7552 C   0  0  0  0  0  0  0  0  0  0  0  0
   20.1840    8.3388   50.9122 N   0  0  0  0  0  0  0  0  0  0  0  0
   28.1445   10.0644   56.4085 C   0  0  0  0  0  0  0  0  0  0  0  0
   27.9815   10.4552   57.7383 O   0  0  0  0  0  0  0  0  0  0  0  0
   29.1943   10.4395   55.8403 O   0  0  0  0  0  0  0  0  0  0  0  0
   27.5715   11.3756   57.8944 H   0  0  0  0  0  0  0  0  0  0  0  0
  7  8  1  0  0  0
  8  9  2  0  0  0
  9 10  1  0  0  0
 10 11  2  0  0  0
 11 12  1  0  0  0
 12 13  2  0  0  0
 13 14  1  0  0  0
 14 15  3  0  0  0
 11  1  1  0  0  0
  1  2  2  0  0  0
  2  3  1  0  0  0
  3  4  1  0  0  0
  3  5  2  0  0  0
  5  6  1  0  0  0
  5 16  1  0  0  0
 16 17  1  0  0  0
 16 18  2  0  0  0
 13  8  1  0  0  0
  6  1  1  0  0  0
 17 19  1  0  0  0
M  END
> <minimizedAffinity>
4.13546

> <CNNscore>
0.5016309023

> <CNNaffinity>
5.2289729118

> <CNN_VS>
2.6230144501

> <CNNaffinity_variance>
0.1738652587

$$$$
[H]OC(=O)c1[se]c(-c2c([H])c([H])c(C([H])([H])[H])c(C#N)c2[H])nc1C([H])([H])[H]


 19 20  0  0  0  0  0  0  0  0999 V2000
   24.3315    8.4388   54.6902 C   0  0  0  0  0  0  0  0  0  0  0  0
   25.1750    8.8360   55.5329 N   0  0  0  0  0  0  0  0  0  0  0  0
   26.4193    8.9246   55.5796 C   0  0  0  0  0  0  0  0  0  0  0  0
   27.1559    9.4779   56.8114 C   0  0  0  0  0  0  0  0  0  0  0  0
   27.2645    8.5589   54.5871 C   0  0  0  0  0  0  0  0  0  0  0  0
   25.8113    7.9151   53.2328 Se  0  0  0  0  0  0  0  0  0  0  0  0
   18.8907    7.5318   53.4045 C   0  0  0  0  0  0  0  0  0  0  0  0
   20.3133    7.7813   53.7570 C   0  0  0  0  0  0  0  0  0  0  0  0
   21.3231    7.2097   53.0230 C   0  0  0  0  0  0  0  0  0  0  0  0
   22.6267    7.4502   53.3615 C   0  0  0  0  0  0  0  0  0  0  0  0
   22.9371    8.2458   54.4125 C   0  0  0  0  0  0  0  0  0  0  0  0
   21.9199    8.8141   55.1419 C   0  0  0  0  0  0  0  0  0  0  0  0
   20.5947    8.5960   54.8325 C   0  0  0  0  0  0  0  0  0  0  0  0
   19.5551    9.1940   55.6008 C   0  0  0  0  0  0  0  0  0  0  0  0
   18.7072    9.6891   56.2138 N   0  0  0  0  0  0  0  0  0  0  0  0
   28.6727    8.5351   54.3415 C   0  0  0  0  0  0  0  0  0  0  0  0
   29.3773    7.3855   53.9817 O   0  0  0  0  0  0  0  0  0  0  0  0
   29.3389    9.5890   54.4470 O   0  0  0  0  0  0  0  0  0  0  0  0
   29.8176    6.8662   54.7407 H   0  0  0  0  0  0  0  0  0  0  0  0
  7  8  1  0  0  0
  8  9  2  0  0  0
  9 10  1  0  0  0
 10 11  2  0  0  0
 11 12  1  0  0  0
 12 13  2  0  0  0
 13 14  1  0  0  0
 14 15  3  0  0  0
 11  1  1  0  0  0
  1  2  2  0  0  0
  2  3  1  0  0  0
  3  4  1  0  0  0
  3  5  2  0  0  0
  5  6  1  0  0  0
  5 16  1  0  0  0
 16 17  1  0  0  0
 16 18  2  0  0  0
 13  8  1  0  0  0
  6  1  1  0  0  0
 17 19  1  0  0  0
M  END
> <minimizedAffinity>
16.90171

> <CNNscore>
0.4953612089

> <CNNaffinity>
5.0823111534

> <CNN_VS>
2.5175797939

> <CNNaffinity_variance>
0.0651228055

$$$$
[H]OC(=O)c1[se]c(-c2c([H])c([H])c(C([H])([H])[H])c(C#N)c2[H])nc1C([H])([H])[H]


 19 20  0  0  0  0  0  0  0  0999 V2000
   22.1157    7.5724   53.8572 C   0  0  0  0  0  0  0  0  0  0  0  0
   21.5478    7.8041   52.7604 N   0  0  0  0  0  0  0  0  0  0  0  0
   21.2915    8.8209   52.0830 C   0  0  0  0  0  0  0  0  0  0  0  0
   20.5548    8.7433   50.7350 C   0  0  0  0  0  0  0  0  0  0  0  0
   21.6152   10.0894   52.4283 C   0  0  0  0  0  0  0  0  0  0  0  0
   22.5462    9.6352   54.2415 Se  0  0  0  0  0  0  0  0  0  0  0  0
   23.8660    3.5154   57.4006 C   0  0  0  0  0  0  0  0  0  0  0  0
   23.3921    4.5848   56.4829 C   0  0  0  0  0  0  0  0  0  0  0  0
   24.0405    4.8219   55.2962 C   0  0  0  0  0  0  0  0  0  0  0  0
   23.5907    5.8101   54.4637 C   0  0  0  0  0  0  0  0  0  0  0  0
   22.5124    6.5601   54.7936 C   0  0  0  0  0  0  0  0  0  0  0  0
   21.8690    6.3160   55.9836 C   0  0  0  0  0  0  0  0  0  0  0  0
   22.2917    5.3298   56.8486 C   0  0  0  0  0  0  0  0  0  0  0  0
   21.6115    5.0924   58.0773 C   0  0  0  0  0  0  0  0  0  0  0  0
   21.0612    4.9135   59.0799 N   0  0  0  0  0  0  0  0  0  0  0  0
   21.4702   11.4084   51.8964 C   0  0  0  0  0  0  0  0  0  0  0  0
   21.7869   12.5686   52.6043 O   0  0  0  0  0  0  0  0  0  0  0  0
   21.0374   11.5642   50.7328 O   0  0  0  0  0  0  0  0  0  0  0  0
   21.0198   13.0222   53.0998 H   0  0  0  0  0  0  0  0  0  0  0  0
  7  8  1  0  0  0
  8  9  2  0  0  0
  9 10  1  0  0  0
 10 11  2  0  0  0
 11 12  1  0  0  0
 12 13  2  0  0  0
 13 14  1  0  0  0
 14 15  3  0  0  0
 11  1  1  0  0  0
  1  2  2  0  0  0
  2  3  1  0  0  0
  3  4  1  0  0  0
  3  5  2  0  0  0
  5  6  1  0  0  0
  5 16  1  0  0  0
 16 17  1  0  0  0
 16 18  2  0  0  0
 13  8  1  0  0  0
  6  1  1  0  0  0
 17 19  1  0  0  0
M  END
> <minimizedAffinity>
22.14310

> <CNNscore>
0.4775073230

> <CNNaffinity>
4.9464616776

> <CNN_VS>
2.3619716167

> <CNNaffinity_variance>
0.1820222586

$$$$
[H]c1c([H])c([H])c2c(c1[H])c1c3c(c4c5c([H])c([H])c([H])c([H])c5n5c4c1n2[C@@]1([H])O[C@]5(C([H])([H])[H])[C@@]([H])(OC([H])([H])[H])[C@@]([H])(N([H])C([H])([H])[H])C1([H])[H])C([H])([H])N([H])C3=O


 37 44  0  0  0  0  0  0  0  0999 V2000
   20.6639    9.6097   52.7753 C   0  0  0  0  0  0  0  0  0  0  0  0
   19.7569    8.5188   53.1711 C   0  0  0  0  0  0  0  0  0  0  0  0
   20.1046    7.8347   54.4525 C   0  0  0  0  0  0  0  0  0  0  0  0
   20.9808    8.3751   55.2559 O   0  0  0  0  0  0  0  0  0  0  0  0
   22.0579    9.1253   54.8436 C   0  0  0  0  0  0  0  0  0  0  0  0
   22.4048    9.8731   56.1477 C   0  0  0  0  0  0  0  0  0  0  0  0
   21.6172   10.0955   53.8441 C   0  0  0  0  0  0  0  0  0  0  0  0
   23.1312    8.2205   54.4675 N   0  0  0  0  0  0  0  0  0  0  0  0
   24.4488    8.4463   54.4623 C   0  0  0  0  0  0  0  0  0  0  0  0
   25.1891    9.5520   54.7568 C   0  0  0  0  0  0  0  0  0  0  0  0
   26.5726    9.5155   54.6661 C   0  0  0  0  0  0  0  0  0  0  0  0
   27.2616    8.3905   54.2834 C   0  0  0  0  0  0  0  0  0  0  0  0
   26.5156    7.2505   53.9784 C   0  0  0  0  0  0  0  0  0  0  0  0
   25.1453    7.3165   54.0774 C   0  0  0  0  0  0  0  0  0  0  0  0
   24.1953    6.3413   53.8313 C   0  0  0  0  0  0  0  0  0  0  0  0
   24.2728    5.0151   53.4293 C   0  0  0  0  0  0  0  0  0  0  0  0
   25.4831    4.1987   53.1093 C   0  0  0  0  0  0  0  0  0  0  0  0
   24.9886    2.8951   52.7706 N   0  0  0  0  0  0  0  0  0  0  0  0
   23.5652    2.8903   52.8436 C   0  0  0  0  0  0  0  0  0  0  0  0
   22.9089    1.8797   52.5804 O   0  0  0  0  0  0  0  0  0  0  0  0
   23.1579    4.2214   53.2555 C   0  0  0  0  0  0  0  0  0  0  0  0
   21.9417    4.8228   53.5035 C   0  0  0  0  0  0  0  0  0  0  0  0
   20.6348    4.3888   53.4346 C   0  0  0  0  0  0  0  0  0  0  0  0
   20.0458    3.2003   53.1088 C   0  0  0  0  0  0  0  0  0  0  0  0
   18.6549    3.1088   53.1475 C   0  0  0  0  0  0  0  0  0  0  0  0
   17.8479    4.1681   53.5010 C   0  0  0  0  0  0  0  0  0  0  0  0
   18.4450    5.3676   53.8294 C   0  0  0  0  0  0  0  0  0  0  0  0
   19.7997    5.4575   53.7919 C   0  0  0  0  0  0  0  0  0  0  0  0
   20.5892    6.4979   54.0660 N   0  0  0  0  0  0  0  0  0  0  0  0
   21.8675    6.1451   53.9037 C   0  0  0  0  0  0  0  0  0  0  0  0
   23.0027    6.9146   54.0724 C   0  0  0  0  0  0  0  0  0  0  0  0
   25.6035    2.0698   52.5076 H   0  0  0  0  0  0  0  0  0  0  0  0
   20.8689    8.0603   51.0357 C   0  0  0  0  0  0  0  0  0  0  0  0
   21.4497    9.2693   51.5819 N   0  0  0  0  0  0  0  0  0  0  0  0
   21.4071    9.9902   50.8559 H   0  0  0  0  0  0  0  0  0  0  0  0
   22.5864   10.7950   53.1421 O   0  0  0  0  0  0  0  0  0  0  0  0
   22.1213   11.7422   52.2734 C   0  0  0  0  0  0  0  0  0  0  0  0
 33 34  1  0  0  0
 34  1  1  0  0  0
  1  2  1  0  0  0
  2  3  1  0  0  0
  3  4  1  0  0  0
  4  5  1  0  0  0
  5  6  1  0  0  0
  5  7  1  0  0  0
  7 36  1  0  0  0
 36 37  1  0  0  0
  5  8  1  0  0  0
  8  9  1  0  0  0
  9 10  2  0  0  0
 10 11  1  0  0  0
 11 12  2  0  0  0
 12 13  1  0  0  0
 13 14  2  0  0  0
 14 15  1  0  0  0
 15 16  2  0  0  0
 16 17  1  0  0  0
 17 18  1  0  0  0
 18 19  1  0  0  0
 19 20  2  0  0  0
 19 21  1  0  0  0
 21 22  2  0  0  0
 22 23  1  0  0  0
 23 24  2  0  0  0
 24 25  1  0  0  0
 25 26  2  0  0  0
 26 27  1  0  0  0
 27 28  2  0  0  0
 28 29  1  0  0  0
 29 30  1  0  0  0
 30 31  2  0  0  0
  7  1  1  0  0  0
 31  8  1  0  0  0
 29  3  1  0  0  0
 14  9  1  0  0  0
 31 15  1  0  0  0
 21 16  1  0  0  0
 30 22  1  0  0  0
 28 23  1  0  0  0
 34 35  1  0  0  0
 18 32  1  0  0  0
M  END
> <minimizedAffinity>
65.90274

> <CNNscore>
0.2600754499

> <CNNaffinity>
6.2999954224

> <CNN_VS>
1.6384741068

> <CNNaffinity_variance>
0.3207992315

$$$$
[H]c1c([H])c([H])c2c(c1[H])c1c3c(c4c5c([H])c([H])c([H])c([H])c5n5c4c1n2[C@@]1([H])O[C@]5(C([H])([H])[H])[C@@]([H])(OC([H])([H])[H])[C@@]([H])(N([H])C([H])([H])[H])C1([H])[H])C([H])([H])N([H])C3=O


 37 44  0  0  0  0  0  0  0  0999 V2000
   25.2869    5.2975   53.2314 C   0  0  0  0  0  0  0  0  0  0  0  0
   24.0840    5.6827   52.4737 C   0  0  0  0  0  0  0  0  0  0  0  0
   24.0654    7.0930   51.9822 C   0  0  0  0  0  0  0  0  0  0  0  0
   25.1633    7.7995   52.0055 O   0  0  0  0  0  0  0  0  0  0  0  0
   26.1542    7.6692   52.9511 C   0  0  0  0  0  0  0  0  0  0  0  0
   27.3380    8.3387   52.2228 C   0  0  0  0  0  0  0  0  0  0  0  0
   26.4560    6.2527   53.1432 C   0  0  0  0  0  0  0  0  0  0  0  0
   25.7722    8.4353   54.1257 N   0  0  0  0  0  0  0  0  0  0  0  0
   26.5600    8.9812   55.0577 C   0  0  0  0  0  0  0  0  0  0  0  0
   27.9115    8.9736   55.2324 C   0  0  0  0  0  0  0  0  0  0  0  0
   28.4840    9.6331   56.3099 C   0  0  0  0  0  0  0  0  0  0  0  0
   27.7409   10.3159   57.2418 C   0  0  0  0  0  0  0  0  0  0  0  0
   26.3548   10.3314   57.0751 C   0  0  0  0  0  0  0  0  0  0  0  0
   25.8157    9.6688   55.9971 C   0  0  0  0  0  0  0  0  0  0  0  0
   24.4924    9.5339   55.6167 C   0  0  0  0  0  0  0  0  0  0  0  0
   23.2965    9.9995   56.1454 C   0  0  0  0  0  0  0  0  0  0  0  0
   23.0680   10.8266   57.3691 C   0  0  0  0  0  0  0  0  0  0  0  0
   21.6497   11.0332   57.4339 N   0  0  0  0  0  0  0  0  0  0  0  0
   21.0191   10.3632   56.3455 C   0  0  0  0  0  0  0  0  0  0  0  0
   19.7949   10.3845   56.1966 O   0  0  0  0  0  0  0  0  0  0  0  0
   22.0717    9.7345   55.5683 C   0  0  0  0  0  0  0  0  0  0  0  0
   22.0957    8.9687   54.4213 C   0  0  0  0  0  0  0  0  0  0  0  0
   21.1162    8.4878   53.5786 C   0  0  0  0  0  0  0  0  0  0  0  0
   19.7548    8.5944   53.5480 C   0  0  0  0  0  0  0  0  0  0  0  0
   19.0561    7.9633   52.5194 C   0  0  0  0  0  0  0  0  0  0  0  0
   19.6815    7.2355   51.5308 C   0  0  0  0  0  0  0  0  0  0  0  0
   21.0565    7.1289   51.5638 C   0  0  0  0  0  0  0  0  0  0  0  0
   21.7378    7.7433   52.5654 C   0  0  0  0  0  0  0  0  0  0  0  0
   23.0510    7.7814   52.7998 N   0  0  0  0  0  0  0  0  0  0  0  0
   23.2893    8.5056   53.8969 C   0  0  0  0  0  0  0  0  0  0  0  0
   24.5015    8.7903   54.4960 C   0  0  0  0  0  0  0  0  0  0  0  0
   21.1599   11.6017   58.1858 H   0  0  0  0  0  0  0  0  0  0  0  0
   23.5826    5.3333   54.8323 C   0  0  0  0  0  0  0  0  0  0  0  0
   24.9938    5.0631   54.6515 N   0  0  0  0  0  0  0  0  0  0  0  0
   25.1647    4.0958   54.9408 H   0  0  0  0  0  0  0  0  0  0  0  0
   27.2663    5.8971   54.2103 O   0  0  0  0  0  0  0  0  0  0  0  0
   28.4756    6.5306   54.2730 C   0  0  0  0  0  0  0  0  0  0  0  0
 33 34  1  0  0  0
 34  1  1  0  0  0
  1  2  1  0  0  0
  2  3  1  0  0  0
  3  4  1  0  0  0
  4  5  1  0  0  0
  5  6  1  0  0  0
  5  7  1  0  0  0
  7 36  1  0  0  0
 36 37  1  0  0  0
  5  8  1  0  0  0
  8  9  1  0  0  0
  9 10  2  0  0  0
 10 11  1  0  0  0
 11 12  2  0  0  0
 12 13  1  0  0  0
 13 14  2  0  0  0
 14 15  1  0  0  0
 15 16  2  0  0  0
 16 17  1  0  0  0
 17 18  1  0  0  0
 18 19  1  0  0  0
 19 20  2  0  0  0
 19 21  1  0  0  0
 21 22  2  0  0  0
 22 23  1  0  0  0
 23 24  2  0  0  0
 24 25  1  0  0  0
 25 26  2  0  0  0
 26 27  1  0  0  0
 27 28  2  0  0  0
 28 29  1  0  0  0
 29 30  1  0  0  0
 30 31  2  0  0  0
  7  1  1  0  0  0
 31  8  1  0  0  0
 29  3  1  0  0  0
 14  9  1  0  0  0
 31 15  1  0  0  0
 21 16  1  0  0  0
 30 22  1  0  0  0
 28 23  1  0  0  0
 34 35  1  0  0  0
 18 32  1  0  0  0
M  END
> <minimizedAffinity>
81.19352

> <CNNscore>
0.1994384378

> <CNNaffinity>
5.4431405067

> <CNN_VS>
1.0855714083

> <CNNaffinity_variance>
1.3047893047

$$$$
[H]c1c([H])c([H])c2c(c1[H])c1c3c(c4c5c([H])c([H])c([H])c([H])c5n5c4c1n2[C@@]1([H])O[C@]5(C([H])([H])[H])[C@@]([H])(OC([H])([H])[H])[C@@]([H])(N([H])C([H])([H])[H])C1([H])[H])C([H])([H])N([H])C3=O


 37 44  0  0  0  0  0  0  0  0999 V2000
   22.5976    5.1169   54.8900 C   0  0  0  0  0  0  0  0  0  0  0  0
   21.9027    5.4365   53.6313 C   0  0  0  0  0  0  0  0  0  0  0  0
   22.7321    6.1385   52.6065 C   0  0  0  0  0  0  0  0  0  0  0  0
   24.0288    6.1919   52.7513 O   0  0  0  0  0  0  0  0  0  0  0  0
   24.6760    6.2476   53.9641 C   0  0  0  0  0  0  0  0  0  0  0  0
   26.0943    5.7986   53.5552 C   0  0  0  0  0  0  0  0  0  0  0  0
   24.1039    5.2488   54.8639 C   0  0  0  0  0  0  0  0  0  0  0  0
   24.6836    7.6283   54.4180 N   0  0  0  0  0  0  0  0  0  0  0  0
   25.5481    8.2309   55.2405 C   0  0  0  0  0  0  0  0  0  0  0  0
   26.6342    7.7711   55.9233 C   0  0  0  0  0  0  0  0  0  0  0  0
   27.3726    8.6271   56.7268 C   0  0  0  0  0  0  0  0  0  0  0  0
   27.0606    9.9561   56.8784 C   0  0  0  0  0  0  0  0  0  0  0  0
   25.9499   10.4405   56.1848 C   0  0  0  0  0  0  0  0  0  0  0  0
   25.2370    9.5683   55.3956 C   0  0  0  0  0  0  0  0  0  0  0  0
   24.1133    9.7966   54.6216 C   0  0  0  0  0  0  0  0  0  0  0  0
   23.3461   10.9243   54.3644 C   0  0  0  0  0  0  0  0  0  0  0  0
   23.5092   12.3130   54.8920 C   0  0  0  0  0  0  0  0  0  0  0  0
   22.4580   13.0797   54.2874 N   0  0  0  0  0  0  0  0  0  0  0  0
   21.6670   12.2339   53.4566 C   0  0  0  0  0  0  0  0  0  0  0  0
   20.6904   12.6660   52.8393 O   0  0  0  0  0  0  0  0  0  0  0  0
   22.2484   10.9058   53.5290 C   0  0  0  0  0  0  0  0  0  0  0  0
   21.9452    9.6891   52.9543 C   0  0  0  0  0  0  0  0  0  0  0  0
   20.9516    9.2631   52.0984 C   0  0  0  0  0  0  0  0  0  0  0  0
   19.8996    9.8807   51.4838 C   0  0  0  0  0  0  0  0  0  0  0  0
   19.0692    9.1252   50.6568 C   0  0  0  0  0  0  0  0  0  0  0  0
   19.2648    7.7799   50.4326 C   0  0  0  0  0  0  0  0  0  0  0  0
   20.3278    7.1583   51.0544 C   0  0  0  0  0  0  0  0  0  0  0  0
   21.1372    7.8934   51.8603 C   0  0  0  0  0  0  0  0  0  0  0  0
   22.2119    7.5162   52.5555 N   0  0  0  0  0  0  0  0  0  0  0  0
   22.7114    8.5665   53.2130 C   0  0  0  0  0  0  0  0  0  0  0  0
   23.8078    8.6169   54.0523 C   0  0  0  0  0  0  0  0  0  0  0  0
   22.3060   14.1191   54.4458 H   0  0  0  0  0  0  0  0  0  0  0  0
   21.3498    7.0147   55.4470 C   0  0  0  0  0  0  0  0  0  0  0  0
   22.0887    5.9079   56.0183 N   0  0  0  0  0  0  0  0  0  0  0  0
   21.4466    5.3820   56.6181 H   0  0  0  0  0  0  0  0  0  0  0  0
   24.4641    5.2933   56.2017 O   0  0  0  0  0  0  0  0  0  0  0  0
   24.0649    4.2277   56.9587 C   0  0  0  0  0  0  0  0  0  0  0  0
 33 34  1  0  0  0
 34  1  1  0  0  0
  1  2  1  0  0  0
  2  3  1  0  0  0
  3  4  1  0  0  0
  4  5  1  0  0  0
  5  6  1  0  0  0
  5  7  1  0  0  0
  7 36  1  0  0  0
 36 37  1  0  0  0
  5  8  1  0  0  0
  8  9  1  0  0  0
  9 10  2  0  0  0
 10 11  1  0  0  0
 11 12  2  0  0  0
 12 13  1  0  0  0
 13 14  2  0  0  0
 14 15  1  0  0  0
 15 16  2  0  0  0
 16 17  1  0  0  0
 17 18  1  0  0  0
 18 19  1  0  0  0
 19 20  2  0  0  0
 19 21  1  0  0  0
 21 22  2  0  0  0
 22 23  1  0  0  0
 23 24  2  0  0  0
 24 25  1  0  0  0
 25 26  2  0  0  0
 26 27  1  0  0  0
 27 28  2  0  0  0
 28 29  1  0  0  0
 29 30  1  0  0  0
 30 31  2  0  0  0
  7  1  1  0  0  0
 31  8  1  0  0  0
 29  3  1  0  0  0
 14  9  1  0  0  0
 31 15  1  0  0  0
 21 16  1  0  0  0
 30 22  1  0  0  0
 28 23  1  0  0  0
 34 35  1  0  0  0
 18 32  1  0  0  0
M  END
> <minimizedAffinity>
82.36437

> <CNNscore>
0.1967100650

> <CNNaffinity>
5.6252927780

> <CNN_VS>
1.1065517664

> <CNNaffinity_variance>
1.2556278706

$$$$
[H]c1c([H])c([H])c2c(c1[H])c1c3c(c4c5c([H])c([H])c([H])c([H])c5n5c4c1n2[C@@]1([H])O[C@]5(C([H])([H])[H])[C@@]([H])(OC([H])([H])[H])[C@@]([H])(N([H])C([H])([H])[H])C1([H])[H])C([H])([H])N([H])C3=O


 37 44  0  0  0  0  0  0  0  0999 V2000
   19.2534    7.1201   52.5123 C   0  0  0  0  0  0  0  0  0  0  0  0
   19.5421    8.3572   51.7669 C   0  0  0  0  0  0  0  0  0  0  0  0
   20.9259    8.4595   51.2143 C   0  0  0  0  0  0  0  0  0  0  0  0
   21.6878    7.3995   51.1806 O   0  0  0  0  0  0  0  0  0  0  0  0
   21.6511    6.3833   52.1074 C   0  0  0  0  0  0  0  0  0  0  0  0
   22.3463    5.2516   51.3226 C   0  0  0  0  0  0  0  0  0  0  0  0
   20.2619    6.0043   52.3546 C   0  0  0  0  0  0  0  0  0  0  0  0
   22.4491    6.7796   53.2557 N   0  0  0  0  0  0  0  0  0  0  0  0
   23.0760    6.0016   54.1439 C   0  0  0  0  0  0  0  0  0  0  0  0
   23.1453    4.6481   54.2870 C   0  0  0  0  0  0  0  0  0  0  0  0
   23.8811    4.0880   55.3206 C   0  0  0  0  0  0  0  0  0  0  0  0
   24.5666    4.8455   56.2386 C   0  0  0  0  0  0  0  0  0  0  0  0
   24.5040    6.2338   56.1041 C   0  0  0  0  0  0  0  0  0  0  0  0
   23.7666    6.7606   55.0694 C   0  0  0  0  0  0  0  0  0  0  0  0
   23.5474    8.0829   54.7265 C   0  0  0  0  0  0  0  0  0  0  0  0
   23.9749    9.2899   55.2622 C   0  0  0  0  0  0  0  0  0  0  0  0
   24.8439    9.5349   56.4531 C   0  0  0  0  0  0  0  0  0  0  0  0
   24.9806   10.9604   56.5422 N   0  0  0  0  0  0  0  0  0  0  0  0
   24.2308   11.5782   55.4995 C   0  0  0  0  0  0  0  0  0  0  0  0
   24.1829   12.8048   55.3786 O   0  0  0  0  0  0  0  0  0  0  0  0
   23.6220   10.5111   54.7263 C   0  0  0  0  0  0  0  0  0  0  0  0
   22.8073   10.4717   53.6139 C   0  0  0  0  0  0  0  0  0  0  0  0
   22.2394   11.4426   52.8165 C   0  0  0  0  0  0  0  0  0  0  0  0
   22.2751   12.8081   52.8133 C   0  0  0  0  0  0  0  0  0  0  0  0
   21.5633   13.4947   51.8302 C   0  0  0  0  0  0  0  0  0  0  0  0
   20.8242   12.8534   50.8603 C   0  0  0  0  0  0  0  0  0  0  0  0
   20.7895   11.4744   50.8656 C   0  0  0  0  0  0  0  0  0  0  0  0
   21.4825   10.8048   51.8228 C   0  0  0  0  0  0  0  0  0  0  0  0
   21.5980    9.4907   52.0244 N   0  0  0  0  0  0  0  0  0  0  0  0
   22.3824    9.2671   53.0825 C   0  0  0  0  0  0  0  0  0  0  0  0
   22.7553    8.0589   53.6398 C   0  0  0  0  0  0  0  0  0  0  0  0
   25.5569   11.4629   57.2796 H   0  0  0  0  0  0  0  0  0  0  0  0
   20.0244    8.3949   54.3150 C   0  0  0  0  0  0  0  0  0  0  0  0
   19.0689    7.3704   53.9479 N   0  0  0  0  0  0  0  0  0  0  0  0
   18.1342    7.7210   54.1759 H   0  0  0  0  0  0  0  0  0  0  0  0
   19.9967    5.1542   53.4170 O   0  0  0  0  0  0  0  0  0  0  0  0
   19.6052    3.8889   53.0801 C   0  0  0  0  0  0  0  0  0  0  0  0
 33 34  1  0  0  0
 34  1  1  0  0  0
  1  2  1  0  0  0
  2  3  1  0  0  0
  3  4  1  0  0  0
  4  5  1  0  0  0
  5  6  1  0  0  0
  5  7  1  0  0  0
  7 36  1  0  0  0
 36 37  1  0  0  0
  5  8  1  0  0  0
  8  9  1  0  0  0
  9 10  2  0  0  0
 10 11  1  0  0  0
 11 12  2  0  0  0
 12 13  1  0  0  0
 13 14  2  0  0  0
 14 15  1  0  0  0
 15 16  2  0  0  0
 16 17  1  0  0  0
 17 18  1  0  0  0
 18 19  1  0  0  0
 19 20  2  0  0  0
 19 21  1  0  0  0
 21 22  2  0  0  0
 22 23  1  0  0  0
 23 24  2  0  0  0
 24 25  1  0  0  0
 25 26  2  0  0  0
 26 27  1  0  0  0
 27 28  2  0  0  0
 28 29  1  0  0  0
 29 30  1  0  0  0
 30 31  2  0  0  0
  7  1  1  0  0  0
 31  8  1  0  0  0
 29  3  1  0  0  0
 14  9  1  0  0  0
 31 15  1  0  0  0
 21 16  1  0  0  0
 30 22  1  0  0  0
 28 23  1  0  0  0
 34 35  1  0  0  0
 18 32  1  0  0  0
M  END
> <minimizedAffinity>
83.83620

> <CNNscore>
0.1954867989

> <CNNaffinity>
5.6682748795

> <CNN_VS>
1.1080728769

> <CNNaffinity_variance>
1.2689464092

$$$$
[H]c1c([H])c([H])c2c(c1[H])c1c3c(c4c5c([H])c([H])c([H])c([H])c5n5c4c1n2[C@@]1([H])O[C@]5(C([H])([H])[H])[C@@]([H])(OC([H])([H])[H])[C@@]([H])(N([H])C([H])([H])[H])C1([H])[H])C([H])([H])N([H])C3=O


 37 44  0  0  0  0  0  0  0  0999 V2000
   21.7638   10.2076   53.4259 C   0  0  0  0  0  0  0  0  0  0  0  0
   23.2186   10.0909   53.2274 C   0  0  0  0  0  0  0  0  0  0  0  0
   23.6601    8.9034   52.4364 C   0  0  0  0  0  0  0  0  0  0  0  0
   22.7799    8.2119   51.7639 O   0  0  0  0  0  0  0  0  0  0  0  0
   21.4716    8.0305   52.1492 C   0  0  0  0  0  0  0  0  0  0  0  0
   20.8327    7.6067   50.8104 C   0  0  0  0  0  0  0  0  0  0  0  0
   20.9058    9.3136   52.5590 C   0  0  0  0  0  0  0  0  0  0  0  0
   21.4224    6.9419   53.1109 N   0  0  0  0  0  0  0  0  0  0  0  0
   20.4032    6.1244   53.3936 C   0  0  0  0  0  0  0  0  0  0  0  0
   19.1240    6.0616   52.9278 C   0  0  0  0  0  0  0  0  0  0  0  0
   18.2510    5.0934   53.4012 C   0  0  0  0  0  0  0  0  0  0  0  0
   18.6149    4.1636   54.3443 C   0  0  0  0  0  0  0  0  0  0  0  0
   19.9226    4.2167   54.8307 C   0  0  0  0  0  0  0  0  0  0  0  0
   20.7657    5.1877   54.3426 C   0  0  0  0  0  0  0  0  0  0  0  0
   22.0866    5.4494   54.6599 C   0  0  0  0  0  0  0  0  0  0  0  0
   22.9941    4.8565   55.5268 C   0  0  0  0  0  0  0  0  0  0  0  0
   22.7964    3.6929   56.4435 C   0  0  0  0  0  0  0  0  0  0  0  0
   24.0621    3.4929   57.0889 N   0  0  0  0  0  0  0  0  0  0  0  0
   24.9900    4.4751   56.6356 C   0  0  0  0  0  0  0  0  0  0  0  0
   26.1468    4.5154   57.0617 O   0  0  0  0  0  0  0  0  0  0  0  0
   24.2922    5.3019   55.6678 C   0  0  0  0  0  0  0  0  0  0  0  0
   24.6481    6.3857   54.8924 C   0  0  0  0  0  0  0  0  0  0  0  0
   25.8095    7.1160   54.7552 C   0  0  0  0  0  0  0  0  0  0  0  0
   27.0505    7.0400   55.3209 C   0  0  0  0  0  0  0  0  0  0  0  0
   28.0192    7.9674   54.9388 C   0  0  0  0  0  0  0  0  0  0  0  0
   27.7774    8.9591   54.0133 C   0  0  0  0  0  0  0  0  0  0  0  0
   26.5234    9.0342   53.4435 C   0  0  0  0  0  0  0  0  0  0  0  0
   25.5793    8.1311   53.8152 C   0  0  0  0  0  0  0  0  0  0  0  0
   24.3155    8.0069   53.4049 N   0  0  0  0  0  0  0  0  0  0  0  0
   23.7413    6.9750   54.0296 C   0  0  0  0  0  0  0  0  0  0  0  0
   22.4479    6.5041   53.9076 C   0  0  0  0  0  0  0  0  0  0  0  0
   24.2607    2.7246   57.7952 H   0  0  0  0  0  0  0  0  0  0  0  0
   22.6041    9.9979   55.5982 C   0  0  0  0  0  0  0  0  0  0  0  0
   21.3783    9.9927   54.8270 N   0  0  0  0  0  0  0  0  0  0  0  0
   20.7765   10.7351   55.1947 H   0  0  0  0  0  0  0  0  0  0  0  0
   19.6720    9.3107   53.1907 O   0  0  0  0  0  0  0  0  0  0  0  0
   19.6495    8.7675   54.4446 C   0  0  0  0  0  0  0  0  0  0  0  0
 33 34  1  0  0  0
 34  1  1  0  0  0
  1  2  1  0  0  0
  2  3  1  0  0  0
  3  4  1  0  0  0
  4  5  1  0  0  0
  5  6  1  0  0  0
  5  7  1  0  0  0
  7 36  1  0  0  0
 36 37  1  0  0  0
  5  8  1  0  0  0
  8  9  1  0  0  0
  9 10  2  0  0  0
 10 11  1  0  0  0
 11 12  2  0  0  0
 12 13  1  0  0  0
 13 14  2  0  0  0
 14 15  1  0  0  0
 15 16  2  0  0  0
 16 17  1  0  0  0
 17 18  1  0  0  0
 18 19  1  0  0  0
 19 20  2  0  0  0
 19 21  1  0  0  0
 21 22  2  0  0  0
 22 23  1  0  0  0
 23 24  2  0  0  0
 24 25  1  0  0  0
 25 26  2  0  0  0
 26 27  1  0  0  0
 27 28  2  0  0  0
 28 29  1  0  0  0
 29 30  1  0  0  0
 30 31  2  0  0  0
  7  1  1  0  0  0
 31  8  1  0  0  0
 29  3  1  0  0  0
 14  9  1  0  0  0
 31 15  1  0  0  0
 21 16  1  0  0  0
 30 22  1  0  0  0
 28 23  1  0  0  0
 34 35  1  0  0  0
 18 32  1  0  0  0
M  END
> <minimizedAffinity>
78.09068

> <CNNscore>
0.1751696765

> <CNNaffinity>
5.6777138710

> <CNN_VS>
0.9945632815

> <CNNaffinity_variance>
0.5718054175

$$$$
[H]c1c([H])c([H])c2c(c1[H])c1c3c(c4c5c([H])c([H])c([H])c([H])c5n5c4c1n2[C@@]1([H])O[C@]5(C([H])([H])[H])[C@@]([H])(OC([H])([H])[H])[C@@]([H])(N([H])C([H])([H])[H])C1([H])[H])C([H])([H])N([H])C3=O


 37 44  0  0  0  0  0  0  0  0999 V2000
   21.0097    9.6248   52.9095 C   0  0  0  0  0  0  0  0  0  0  0  0
   21.0520    8.1640   53.0930 C   0  0  0  0  0  0  0  0  0  0  0  0
   21.4492    7.7049   54.4577 C   0  0  0  0  0  0  0  0  0  0  0  0
   21.4744    8.5595   55.4447 O   0  0  0  0  0  0  0  0  0  0  0  0
   21.7873    9.8929   55.3135 C   0  0  0  0  0  0  0  0  0  0  0  0
   21.1873   10.4597   56.6168 C   0  0  0  0  0  0  0  0  0  0  0  0
   21.0602   10.4505   54.1755 C   0  0  0  0  0  0  0  0  0  0  0  0
   23.2345   10.0273   55.3114 N   0  0  0  0  0  0  0  0  0  0  0  0
   23.9745   11.0818   55.6685 C   0  0  0  0  0  0  0  0  0  0  0  0
   23.6401   12.3315   56.0971 C   0  0  0  0  0  0  0  0  0  0  0  0
   24.6273   13.2554   56.4062 C   0  0  0  0  0  0  0  0  0  0  0  0
   25.9673   12.9726   56.3012 C   0  0  0  0  0  0  0  0  0  0  0  0
   26.3241   11.6959   55.8629 C   0  0  0  0  0  0  0  0  0  0  0  0
   25.3234   10.8009   55.5638 C   0  0  0  0  0  0  0  0  0  0  0  0
   25.4131    9.4956   55.1142 C   0  0  0  0  0  0  0  0  0  0  0  0
   26.4818    8.6574   54.8282 C   0  0  0  0  0  0  0  0  0  0  0  0
   27.9470    8.9391   54.9138 C   0  0  0  0  0  0  0  0  0  0  0  0
   28.5960    7.7203   54.5243 N   0  0  0  0  0  0  0  0  0  0  0  0
   27.6147    6.7425   54.1891 C   0  0  0  0  0  0  0  0  0  0  0  0
   27.9327    5.6130   53.8089 O   0  0  0  0  0  0  0  0  0  0  0  0
   26.3163    7.3596   54.3904 C   0  0  0  0  0  0  0  0  0  0  0  0
   25.0133    6.9305   54.2467 C   0  0  0  0  0  0  0  0  0  0  0  0
   24.4428    5.7451   53.8338 C   0  0  0  0  0  0  0  0  0  0  0  0
   24.9448    4.5430   53.4231 C   0  0  0  0  0  0  0  0  0  0  0  0
   24.0539    3.5303   53.0695 C   0  0  0  0  0  0  0  0  0  0  0  0
   22.6863    3.6907   53.1167 C   0  0  0  0  0  0  0  0  0  0  0  0
   22.1816    4.9056   53.5316 C   0  0  0  0  0  0  0  0  0  0  0  0
   23.0487    5.8927   53.8763 C   0  0  0  0  0  0  0  0  0  0  0  0
   22.7980    7.1319   54.3032 N   0  0  0  0  0  0  0  0  0  0  0  0
   23.9500    7.7684   54.5321 C   0  0  0  0  0  0  0  0  0  0  0  0
   24.1475    9.0633   54.9722 C   0  0  0  0  0  0  0  0  0  0  0  0
   29.6492    7.5840   54.4953 H   0  0  0  0  0  0  0  0  0  0  0  0
   22.8218    8.9305   51.6045 C   0  0  0  0  0  0  0  0  0  0  0  0
   22.0701   10.0998   52.0109 N   0  0  0  0  0  0  0  0  0  0  0  0
   21.7066   10.5456   51.1637 H   0  0  0  0  0  0  0  0  0  0  0  0
   21.4056   11.7201   53.7392 O   0  0  0  0  0  0  0  0  0  0  0  0
   21.4147   11.8991   52.3843 C   0  0  0  0  0  0  0  0  0  0  0  0
 33 34  1  0  0  0
 34  1  1  0  0  0
  1  2  1  0  0  0
  2  3  1  0  0  0
  3  4  1  0  0  0
  4  5  1  0  0  0
  5  6  1  0  0  0
  5  7  1  0  0  0
  7 36  1  0  0  0
 36 37  1  0  0  0
  5  8  1  0  0  0
  8  9  1  0  0  0
  9 10  2  0  0  0
 10 11  1  0  0  0
 11 12  2  0  0  0
 12 13  1  0  0  0
 13 14  2  0  0  0
 14 15  1  0  0  0
 15 16  2  0  0  0
 16 17  1  0  0  0
 17 18  1  0  0  0
 18 19  1  0  0  0
 19 20  2  0  0  0
 19 21  1  0  0  0
 21 22  2  0  0  0
 22 23  1  0  0  0
 23 24  2  0  0  0
 24 25  1  0  0  0
 25 26  2  0  0  0
 26 27  1  0  0  0
 27 28  2  0  0  0
 28 29  1  0  0  0
 29 30  1  0  0  0
 30 31  2  0  0  0
  7  1  1  0  0  0
 31  8  1  0  0  0
 29  3  1  0  0  0
 14  9  1  0  0  0
 31 15  1  0  0  0
 21 16  1  0  0  0
 30 22  1  0  0  0
 28 23  1  0  0  0
 34 35  1  0  0  0
 18 32  1  0  0  0
M  END
> <minimizedAffinity>
85.74155

> <CNNscore>
0.1702271253

> <CNNaffinity>
5.8278594017

> <CNN_VS>
0.9920597672

> <CNNaffinity_variance>
1.0246448517

$$$$
[H]c1c([H])c([H])c2c(c1[H])c1c3c(c4c5c([H])c([H])c([H])c([H])c5n5c4c1n2[C@@]1([H])O[C@]5(C([H])([H])[H])[C@@]([H])(OC([H])([H])[H])[C@@]([H])(N([H])C([H])([H])[H])C1([H])[H])C([H])([H])N([H])C3=O


 37 44  0  0  0  0  0  0  0  0999 V2000
   25.0966    6.8834   55.0145 C   0  0  0  0  0  0  0  0  0  0  0  0
   25.2312    8.1846   55.6914 C   0  0  0  0  0  0  0  0  0  0  0  0
   23.9627    8.7513   56.2398 C   0  0  0  0  0  0  0  0  0  0  0  0
   22.9038    7.9929   56.3330 O   0  0  0  0  0  0  0  0  0  0  0  0
   22.5973    6.9718   55.4632 C   0  0  0  0  0  0  0  0  0  0  0  0
   21.5930    6.1630   56.3101 C   0  0  0  0  0  0  0  0  0  0  0  0
   23.7885    6.1572   55.2348 C   0  0  0  0  0  0  0  0  0  0  0  0
   21.9453    7.5422   54.2962 N   0  0  0  0  0  0  0  0  0  0  0  0
   21.0865    6.9602   53.4531 C   0  0  0  0  0  0  0  0  0  0  0  0
   20.5871    5.6940   53.3846 C   0  0  0  0  0  0  0  0  0  0  0  0
   19.6916    5.3454   52.3846 C   0  0  0  0  0  0  0  0  0  0  0  0
   19.2656    6.2337   51.4275 C   0  0  0  0  0  0  0  0  0  0  0  0
   19.7696    7.5345   51.4855 C   0  0  0  0  0  0  0  0  0  0  0  0
   20.6559    7.8511   52.4885 C   0  0  0  0  0  0  0  0  0  0  0  0
   21.2912    9.0502   52.7579 C   0  0  0  0  0  0  0  0  0  0  0  0
   21.2602   10.3012   52.1575 C   0  0  0  0  0  0  0  0  0  0  0  0
   20.4919   10.7490   50.9563 C   0  0  0  0  0  0  0  0  0  0  0  0
   20.8145   12.1370   50.7894 N   0  0  0  0  0  0  0  0  0  0  0  0
   21.7418   12.5362   51.7954 C   0  0  0  0  0  0  0  0  0  0  0  0
   22.1801   13.6880   51.8487 O   0  0  0  0  0  0  0  0  0  0  0  0
   21.9938   11.3720   52.6250 C   0  0  0  0  0  0  0  0  0  0  0  0
   22.7745   11.1321   53.7365 C   0  0  0  0  0  0  0  0  0  0  0  0
   23.6371   11.9109   54.4785 C   0  0  0  0  0  0  0  0  0  0  0  0
   24.0382   13.2146   54.4068 C   0  0  0  0  0  0  0  0  0  0  0  0
   24.9502   13.6880   55.3495 C   0  0  0  0  0  0  0  0  0  0  0  0
   25.4649   12.8953   56.3520 C   0  0  0  0  0  0  0  0  0  0  0  0
   25.0587   11.5789   56.4223 C   0  0  0  0  0  0  0  0  0  0  0  0
   24.1703   11.1170   55.5044 C   0  0  0  0  0  0  0  0  0  0  0  0
   23.6386    9.8998   55.3755 N   0  0  0  0  0  0  0  0  0  0  0  0
   22.8039    9.8839   54.3325 C   0  0  0  0  0  0  0  0  0  0  0  0
   22.0551    8.8308   53.8430 C   0  0  0  0  0  0  0  0  0  0  0  0
   20.4143   12.7585   50.0265 H   0  0  0  0  0  0  0  0  0  0  0  0
   26.0499    8.2217   53.3503 C   0  0  0  0  0  0  0  0  0  0  0  0
   25.3238    6.9874   53.5670 N   0  0  0  0  0  0  0  0  0  0  0  0
   25.8939    6.2222   53.1955 H   0  0  0  0  0  0  0  0  0  0  0  0
   23.7489    5.2135   54.2203 O   0  0  0  0  0  0  0  0  0  0  0  0
   23.7896    5.7096   52.9475 C   0  0  0  0  0  0  0  0  0  0  0  0
 33 34  1  0  0  0
 34  1  1  0  0  0
  1  2  1  0  0  0
  2  3  1  0  0  0
  3  4  1  0  0  0
  4  5  1  0  0  0
  5  6  1  0  0  0
  5  7  1  0  0  0
  7 36  1  0  0  0
 36 37  1  0  0  0
  5  8  1  0  0  0
  8  9  1  0  0  0
  9 10  2  0  0  0
 10 11  1  0  0  0
 11 12  2  0  0  0
 12 13  1  0  0  0
 13 14  2  0  0  0
 14 15  1  0  0  0
 15 16  2  0  0  0
 16 17  1  0  0  0
 17 18  1  0  0  0
 18 19  1  0  0  0
 19 20  2  0  0  0
 19 21  1  0  0  0
 21 22  2  0  0  0
 22 23  1  0  0  0
 23 24  2  0  0  0
 24 25  1  0  0  0
 25 26  2  0  0  0
 26 27  1  0  0  0
 27 28  2  0  0  0
 28 29  1  0  0  0
 29 30  1  0  0  0
 30 31  2  0  0  0
  7  1  1  0  0  0
 31  8  1  0  0  0
 29  3  1  0  0  0
 14  9  1  0  0  0
 31 15  1  0  0  0
 21 16  1  0  0  0
 30 22  1  0  0  0
 28 23  1  0  0  0
 34 35  1  0  0  0
 18 32  1  0  0  0
M  END
> <minimizedAffinity>
79.06543

> <CNNscore>
0.1653992683

> <CNNaffinity>
5.7167124748

> <CNN_VS>
0.9455400705

> <CNNaffinity_variance>
1.4269946814

$$$$
[H]c1c([H])c([H])c2c(c1[H])c1c3c(c4c5c([H])c([H])c([H])c([H])c5n5c4c1n2[C@@]1([H])O[C@]5(C([H])([H])[H])[C@@]([H])(OC([H])([H])[H])[C@@]([H])(N([H])C([H])([H])[H])C1([H])[H])C([H])([H])N([H])C3=O


 37 44  0  0  0  0  0  0  0  0999 V2000
   26.3791    6.3507   53.1958 C   0  0  0  0  0  0  0  0  0  0  0  0
   26.9790    6.9768   54.3864 C   0  0  0  0  0  0  0  0  0  0  0  0
   26.0912    7.0452   55.5855 C   0  0  0  0  0  0  0  0  0  0  0  0
   24.9881    6.3469   55.6130 O   0  0  0  0  0  0  0  0  0  0  0  0
   24.2234    6.0538   54.5075 C   0  0  0  0  0  0  0  0  0  0  0  0
   23.4008    4.8595   55.0340 C   0  0  0  0  0  0  0  0  0  0  0  0
   25.0920    5.5913   53.4275 C   0  0  0  0  0  0  0  0  0  0  0  0
   23.3615    7.1907   54.2301 N   0  0  0  0  0  0  0  0  0  0  0  0
   22.1811    7.2088   53.6029 C   0  0  0  0  0  0  0  0  0  0  0  0
   21.4437    6.2270   53.0116 C   0  0  0  0  0  0  0  0  0  0  0  0
   20.2260    6.5243   52.4181 C   0  0  0  0  0  0  0  0  0  0  0  0
   19.7038    7.7944   52.3918 C   0  0  0  0  0  0  0  0  0  0  0  0
   20.4491    8.8102   52.9937 C   0  0  0  0  0  0  0  0  0  0  0  0
   21.6529    8.4854   53.5743 C   0  0  0  0  0  0  0  0  0  0  0  0
   22.5668    9.2970   54.2225 C   0  0  0  0  0  0  0  0  0  0  0  0
   22.5967   10.6531   54.5167 C   0  0  0  0  0  0  0  0  0  0  0  0
   21.5918   11.7092   54.1873 C   0  0  0  0  0  0  0  0  0  0  0  0
   22.1147   12.9239   54.7435 N   0  0  0  0  0  0  0  0  0  0  0  0
   23.3740   12.6645   55.3585 C   0  0  0  0  0  0  0  0  0  0  0  0
   24.0270   13.5624   55.8958 O   0  0  0  0  0  0  0  0  0  0  0  0
   23.6391   11.2463   55.1984 C   0  0  0  0  0  0  0  0  0  0  0  0
   24.6685   10.4102   55.5774 C   0  0  0  0  0  0  0  0  0  0  0  0
   25.8596   10.6097   56.2427 C   0  0  0  0  0  0  0  0  0  0  0  0
   26.4688   11.7028   56.7904 C   0  0  0  0  0  0  0  0  0  0  0  0
   27.7085   11.5400   57.4077 C   0  0  0  0  0  0  0  0  0  0  0  0
   28.3464   10.3215   57.4888 C   0  0  0  0  0  0  0  0  0  0  0  0
   27.7294    9.2190   56.9348 C   0  0  0  0  0  0  0  0  0  0  0  0
   26.5218    9.3767   56.3333 C   0  0  0  0  0  0  0  0  0  0  0  0
   25.7450    8.4693   55.7383 N   0  0  0  0  0  0  0  0  0  0  0  0
   24.6363    9.0588   55.2823 C   0  0  0  0  0  0  0  0  0  0  0  0
   23.5763    8.4925   54.6003 C   0  0  0  0  0  0  0  0  0  0  0  0
   21.6250   13.8654   54.6954 H   0  0  0  0  0  0  0  0  0  0  0  0
   26.7177    8.5766   52.5635 C   0  0  0  0  0  0  0  0  0  0  0  0
   26.1497    7.3213   52.1174 N   0  0  0  0  0  0  0  0  0  0  0  0
   26.6140    7.0637   51.2419 H   0  0  0  0  0  0  0  0  0  0  0  0
   24.5440    5.4575   52.1613 O   0  0  0  0  0  0  0  0  0  0  0  0
   24.9679    4.3745   51.4435 C   0  0  0  0  0  0  0  0  0  0  0  0
 33 34  1  0  0  0
 34  1  1  0  0  0
  1  2  1  0  0  0
  2  3  1  0  0  0
  3  4  1  0  0  0
  4  5  1  0  0  0
  5  6  1  0  0  0
  5  7  1  0  0  0
  7 36  1  0  0  0
 36 37  1  0  0  0
  5  8  1  0  0  0
  8  9  1  0  0  0
  9 10  2  0  0  0
 10 11  1  0  0  0
 11 12  2  0  0  0
 12 13  1  0  0  0
 13 14  2  0  0  0
 14 15  1  0  0  0
 15 16  2  0  0  0
 16 17  1  0  0  0
 17 18  1  0  0  0
 18 19  1  0  0  0
 19 20  2  0  0  0
 19 21  1  0  0  0
 21 22  2  0  0  0
 22 23  1  0  0  0
 23 24  2  0  0  0
 24 25  1  0  0  0
 25 26  2  0  0  0
 26 27  1  0  0  0
 27 28  2  0  0  0
 28 29  1  0  0  0
 29 30  1  0  0  0
 30 31  2  0  0  0
  7  1  1  0  0  0
 31  8  1  0  0  0
 29  3  1  0  0  0
 14  9  1  0  0  0
 31 15  1  0  0  0
 21 16  1  0  0  0
 30 22  1  0  0  0
 28 23  1  0  0  0
 34 35  1  0  0  0
 18 32  1  0  0  0
M  END
> <minimizedAffinity>
90.32068

> <CNNscore>
0.1426866353

> <CNNaffinity>
5.6796865463

> <CNN_VS>
0.8104153872

> <CNNaffinity_variance>
1.3300701380

$$$$
[H]c1c([H])c([H])c2c(c1[H])c1c3c(c4c5c([H])c([H])c([H])c([H])c5n5c4c1n2[C@@]1([H])O[C@]5(C([H])([H])[H])[C@@]([H])(OC([H])([H])[H])[C@@]([H])(N([H])C([H])([H])[H])C1([H])[H])C([H])([H])N([H])C3=O


 37 44  0  0  0  0  0  0  0  0999 V2000
   21.9479    9.3494   57.0409 C   0  0  0  0  0  0  0  0  0  0  0  0
   23.1312   10.1588   57.3784 C   0  0  0  0  0  0  0  0  0  0  0  0
   23.7651   10.8704   56.2284 C   0  0  0  0  0  0  0  0  0  0  0  0
   23.1257   10.9611   55.0934 O   0  0  0  0  0  0  0  0  0  0  0  0
   22.2619   10.0071   54.6069 C   0  0  0  0  0  0  0  0  0  0  0  0
   21.4729   10.8339   53.5705 C   0  0  0  0  0  0  0  0  0  0  0  0
   21.3526    9.5901   55.6717 C   0  0  0  0  0  0  0  0  0  0  0  0
   23.0430    8.9708   53.9525 N   0  0  0  0  0  0  0  0  0  0  0  0
   22.6712    8.1388   52.9744 C   0  0  0  0  0  0  0  0  0  0  0  0
   21.4880    7.9654   52.3207 C   0  0  0  0  0  0  0  0  0  0  0  0
   21.3700    7.0080   51.3243 C   0  0  0  0  0  0  0  0  0  0  0  0
   22.4128    6.1977   50.9466 C   0  0  0  0  0  0  0  0  0  0  0  0
   23.6308    6.3644   51.6084 C   0  0  0  0  0  0  0  0  0  0  0  0
   23.7180    7.3218   52.5920 C   0  0  0  0  0  0  0  0  0  0  0  0
   24.7947    7.6753   53.3856 C   0  0  0  0  0  0  0  0  0  0  0  0
   26.1061    7.2279   53.4673 C   0  0  0  0  0  0  0  0  0  0  0  0
   26.7837    6.1530   52.6805 C   0  0  0  0  0  0  0  0  0  0  0  0
   28.1362    6.1217   53.1582 N   0  0  0  0  0  0  0  0  0  0  0  0
   28.2999    7.0883   54.1928 C   0  0  0  0  0  0  0  0  0  0  0  0
   29.3790    7.2384   54.7710 O   0  0  0  0  0  0  0  0  0  0  0  0
   27.0205    7.7546   54.3559 C   0  0  0  0  0  0  0  0  0  0  0  0
   26.5576    8.7638   55.1743 C   0  0  0  0  0  0  0  0  0  0  0  0
   27.1355    9.5180   56.1734 C   0  0  0  0  0  0  0  0  0  0  0  0
   28.3843    9.5650   56.7249 C   0  0  0  0  0  0  0  0  0  0  0  0
   28.6306   10.4787   57.7491 C   0  0  0  0  0  0  0  0  0  0  0  0
   27.6664   11.3377   58.2294 C   0  0  0  0  0  0  0  0  0  0  0  0
   26.4059   11.2883   57.6711 C   0  0  0  0  0  0  0  0  0  0  0  0
   26.1651   10.3986   56.6734 C   0  0  0  0  0  0  0  0  0  0  0  0
   25.0414   10.1737   55.9896 N   0  0  0  0  0  0  0  0  0  0  0  0
   25.2498    9.2073   55.0910 C   0  0  0  0  0  0  0  0  0  0  0  0
   24.3572    8.6620   54.1881 C   0  0  0  0  0  0  0  0  0  0  0  0
   28.8889    5.4708   52.7866 H   0  0  0  0  0  0  0  0  0  0  0  0
   21.8477    7.3011   55.9167 C   0  0  0  0  0  0  0  0  0  0  0  0
   22.2046    7.9099   57.1814 N   0  0  0  0  0  0  0  0  0  0  0  0
   23.1892    7.6951   57.3629 H   0  0  0  0  0  0  0  0  0  0  0  0
   20.5528    8.4800   55.4491 O   0  0  0  0  0  0  0  0  0  0  0  0
   19.8386    8.4881   54.2839 C   0  0  0  0  0  0  0  0  0  0  0  0
 33 34  1  0  0  0
 34  1  1  0  0  0
  1  2  1  0  0  0
  2  3  1  0  0  0
  3  4  1  0  0  0
  4  5  1  0  0  0
  5  6  1  0  0  0
  5  7  1  0  0  0
  7 36  1  0  0  0
 36 37  1  0  0  0
  5  8  1  0  0  0
  8  9  1  0  0  0
  9 10  2  0  0  0
 10 11  1  0  0  0
 11 12  2  0  0  0
 12 13  1  0  0  0
 13 14  2  0  0  0
 14 15  1  0  0  0
 15 16  2  0  0  0
 16 17  1  0  0  0
 17 18  1  0  0  0
 18 19  1  0  0  0
 19 20  2  0  0  0
 19 21  1  0  0  0
 21 22  2  0  0  0
 22 23  1  0  0  0
 23 24  2  0  0  0
 24 25  1  0  0  0
 25 26  2  0  0  0
 26 27  1  0  0  0
 27 28  2  0  0  0
 28 29  1  0  0  0
 29 30  1  0  0  0
 30 31  2  0  0  0
  7  1  1  0  0  0
 31  8  1  0  0  0
 29  3  1  0  0  0
 14  9  1  0  0  0
 31 15  1  0  0  0
 21 16  1  0  0  0
 30 22  1  0  0  0
 28 23  1  0  0  0
 34 35  1  0  0  0
 18 32  1  0  0  0
M  END
> <minimizedAffinity>
75.11401

> <CNNscore>
0.1352858841

> <CNNaffinity>
5.6187963486

> <CNN_VS>
0.7601438165

> <CNNaffinity_variance>
0.6247187257

$$$$
[H]OC(=O)[C@]([H])(N([H])C(=O)[C@@]([H])(N([H])C(=O)c1c([H])c(OC([H])([H])[H])c(OC([H])([H])[H])c(OC([H])([H])[H])c1[H])C([H])([H])c1c([H])c([H])c([H])c([H])c1[H])C([H])([H])c1c([H])c([H])c(O[H])c([H])c1[H]


 42 44  0  0  0  0  0  0  0  0999 V2000
   26.3669    8.4989   54.1300 C   0  0  0  0  0  0  0  0  0  0  0  0
   27.9338    9.4201   52.3207 C   0  0  0  0  0  0  0  0  0  0  0  0
   28.7398    9.8879   53.1357 O   0  0  0  0  0  0  0  0  0  0  0  0
   26.7855    8.7454   52.7075 N   0  0  0  0  0  0  0  0  0  0  0  0
   26.1077    8.3501   52.0365 H   0  0  0  0  0  0  0  0  0  0  0  0
   28.2952   10.9934   48.9526 C   0  0  0  0  0  0  0  0  0  0  0  0
   28.0680   10.8047   50.2905 C   0  0  0  0  0  0  0  0  0  0  0  0
   28.1914    9.5812   50.8939 C   0  0  0  0  0  0  0  0  0  0  0  0
   28.5598    8.4883   50.1110 C   0  0  0  0  0  0  0  0  0  0  0  0
   28.7953    8.6319   48.7658 C   0  0  0  0  0  0  0  0  0  0  0  0
   28.6618    9.8650   48.2095 C   0  0  0  0  0  0  0  0  0  0  0  0
   27.0595   13.0314   48.4865 C   0  0  0  0  0  0  0  0  0  0  0  0
   28.1856   12.2027   48.2935 O   0  0  0  0  0  0  0  0  0  0  0  0
   29.1636    7.5271   47.9736 O   0  0  0  0  0  0  0  0  0  0  0  0
   29.1063    6.2391   48.5948 C   0  0  0  0  0  0  0  0  0  0  0  0
   28.9057   10.0284   46.8474 O   0  0  0  0  0  0  0  0  0  0  0  0
   28.6124    8.8481   46.0639 C   0  0  0  0  0  0  0  0  0  0  0  0
   25.1086    7.8249   54.1334 C   0  0  0  0  0  0  0  0  0  0  0  0
   25.0011    6.7858   53.3026 O   0  0  0  0  0  0  0  0  0  0  0  0
   23.9430    8.0454   54.8582 N   0  0  0  0  0  0  0  0  0  0  0  0
   23.8379    8.8108   55.5377 H   0  0  0  0  0  0  0  0  0  0  0  0
   22.7688    7.1400   54.6701 C   0  0  0  0  0  0  0  0  0  0  0  0
   22.7628    6.1169   55.7030 C   0  0  0  0  0  0  0  0  0  0  0  0
   21.8507    6.0127   56.7227 O   0  0  0  0  0  0  0  0  0  0  0  0
   23.6794    5.2017   55.6966 O   0  0  0  0  0  0  0  0  0  0  0  0
   22.0438    5.6382   57.6242 H   0  0  0  0  0  0  0  0  0  0  0  0
   21.5629    8.0271   54.6958 C   0  0  0  0  0  0  0  0  0  0  0  0
   21.5703    9.1205   53.7212 C   0  0  0  0  0  0  0  0  0  0  0  0
   21.6818   10.4149   54.1589 C   0  0  0  0  0  0  0  0  0  0  0  0
   21.6671   11.4446   53.2373 C   0  0  0  0  0  0  0  0  0  0  0  0
   21.5400   11.1955   51.8783 C   0  0  0  0  0  0  0  0  0  0  0  0
   21.5306   12.2878   51.0112 O   0  0  0  0  0  0  0  0  0  0  0  0
   21.4275    9.8944   51.4487 C   0  0  0  0  0  0  0  0  0  0  0  0
   21.4467    8.8896   52.3814 C   0  0  0  0  0  0  0  0  0  0  0  0
   21.4401   12.0526   50.0127 H   0  0  0  0  0  0  0  0  0  0  0  0
   26.6422    9.7183   54.9015 C   0  0  0  0  0  0  0  0  0  0  0  0
   27.3496    9.5333   56.1576 C   0  0  0  0  0  0  0  0  0  0  0  0
   27.9300   10.6532   56.7357 C   0  0  0  0  0  0  0  0  0  0  0  0
   28.5137   10.5989   57.9785 C   0  0  0  0  0  0  0  0  0  0  0  0
   28.5387    9.4050   58.6914 C   0  0  0  0  0  0  0  0  0  0  0  0
   27.9682    8.2988   58.1224 C   0  0  0  0  0  0  0  0  0  0  0  0
   27.3793    8.3567   56.8719 C   0  0  0  0  0  0  0  0  0  0  0  0
 12 13  1  0  0  0
 13  6  1  0  0  0
  6  7  2  0  0  0
  7  8  1  0  0  0
  8  9  2  0  0  0
  9 10  1  0  0  0
 10 14  1  0  0  0
 14 15  1  0  0  0
 10 11  2  0  0  0
 11 16  1  0  0  0
 16 17  1  0  0  0
  8  2  1  0  0  0
  2  3  2  0  0  0
  2  4  1  0  0  0
  4  1  1  0  0  0
  1 36  1  0  0  0
 36 37  1  0  0  0
 37 38  2  0  0  0
 38 39  1  0  0  0
 39 40  2  0  0  0
 40 41  1  0  0  0
 41 42  2  0  0  0
  1 18  1  0  0  0
 18 19  2  0  0  0
 18 20  1  0  0  0
 20 22  1  0  0  0
 22 27  1  0  0  0
 27 28  1  0  0  0
 28 29  2  0  0  0
 29 30  1  0  0  0
 30 31  2  0  0  0
 31 32  1  0  0  0
 31 33  1  0  0  0
 33 34  2  0  0  0
 22 23  1  0  0  0
 23 24  1  0  0  0
 23 25  2  0  0  0
 11  6  1  0  0  0
 42 37  1  0  0  0
 34 28  1  0  0  0
  4  5  1  0  0  0
 20 21  1  0  0  0
 32 35  1  0  0  0
 24 26  1  0  0  0
M  END
> <minimizedAffinity>
24.22251

> <CNNscore>
0.5874550939

> <CNNaffinity>
6.3675942421

> <CNN_VS>
3.7406756878

> <CNNaffinity_variance>
0.5399927497

$$$$
[H]OC(=O)[C@]([H])(N([H])C(=O)[C@@]([H])(N([H])C(=O)c1c([H])c(OC([H])([H])[H])c(OC([H])([H])[H])c(OC([H])([H])[H])c1[H])C([H])([H])c1c([H])c([H])c([H])c([H])c1[H])C([H])([H])c1c([H])c([H])c(O[H])c([H])c1[H]


 42 44  0  0  0  0  0  0  0  0999 V2000
   28.0238    9.1806   54.7003 C   0  0  0  0  0  0  0  0  0  0  0  0
   27.4554    9.2085   52.1996 C   0  0  0  0  0  0  0  0  0  0  0  0
   26.3913    8.5930   52.3470 O   0  0  0  0  0  0  0  0  0  0  0  0
   28.2870    9.5296   53.2621 N   0  0  0  0  0  0  0  0  0  0  0  0
   29.1753   10.0437   53.1507 H   0  0  0  0  0  0  0  0  0  0  0  0
   28.0973   11.3343   49.1964 C   0  0  0  0  0  0  0  0  0  0  0  0
   27.7332   10.9163   50.4495 C   0  0  0  0  0  0  0  0  0  0  0  0
   27.8613    9.6154   50.8588 C   0  0  0  0  0  0  0  0  0  0  0  0
   28.3799    8.6841   49.9606 C   0  0  0  0  0  0  0  0  0  0  0  0
   28.7556    9.0593   48.6942 C   0  0  0  0  0  0  0  0  0  0  0  0
   28.6118   10.3613   48.3313 C   0  0  0  0  0  0  0  0  0  0  0  0
   26.7313   13.2623   48.6354 C   0  0  0  0  0  0  0  0  0  0  0  0
   27.9900   12.6310   48.7319 O   0  0  0  0  0  0  0  0  0  0  0  0
   29.2759    8.1177   47.7850 O   0  0  0  0  0  0  0  0  0  0  0  0
   28.8607    8.2392   46.4209 C   0  0  0  0  0  0  0  0  0  0  0  0
   28.9965   10.7591   47.0526 O   0  0  0  0  0  0  0  0  0  0  0  0
   29.3326   12.1634   46.9626 C   0  0  0  0  0  0  0  0  0  0  0  0
   26.7598    8.5242   54.7948 C   0  0  0  0  0  0  0  0  0  0  0  0
   26.7640    7.2122   54.5500 O   0  0  0  0  0  0  0  0  0  0  0  0
   25.4911    9.0002   55.1054 N   0  0  0  0  0  0  0  0  0  0  0  0
   25.2946    9.9890   55.3107 H   0  0  0  0  0  0  0  0  0  0  0  0
   24.3353    8.0541   55.1593 C   0  0  0  0  0  0  0  0  0  0  0  0
   23.1341    8.7636   55.5684 C   0  0  0  0  0  0  0  0  0  0  0  0
   21.9219    8.1883   55.8553 O   0  0  0  0  0  0  0  0  0  0  0  0
   23.1670   10.0528   55.6882 O   0  0  0  0  0  0  0  0  0  0  0  0
   21.0375    8.6225   55.7154 H   0  0  0  0  0  0  0  0  0  0  0  0
   24.2404    7.4499   53.7926 C   0  0  0  0  0  0  0  0  0  0  0  0
   22.9652    7.6601   53.1033 C   0  0  0  0  0  0  0  0  0  0  0  0
   22.0735    6.6239   53.0013 C   0  0  0  0  0  0  0  0  0  0  0  0
   20.8807    6.8209   52.3317 C   0  0  0  0  0  0  0  0  0  0  0  0
   20.5678    8.0453   51.7592 C   0  0  0  0  0  0  0  0  0  0  0  0
   19.3458    8.1649   51.0976 O   0  0  0  0  0  0  0  0  0  0  0  0
   21.4688    9.0784   51.8654 C   0  0  0  0  0  0  0  0  0  0  0  0
   22.6444    8.8597   52.5361 C   0  0  0  0  0  0  0  0  0  0  0  0
   19.1560    9.0933   50.6944 H   0  0  0  0  0  0  0  0  0  0  0  0
   28.4086   10.3340   55.5246 C   0  0  0  0  0  0  0  0  0  0  0  0
   28.3991   10.1229   56.9626 C   0  0  0  0  0  0  0  0  0  0  0  0
   28.2066    8.8262   57.4174 C   0  0  0  0  0  0  0  0  0  0  0  0
   28.3024    8.5115   58.7515 C   0  0  0  0  0  0  0  0  0  0  0  0
   28.5945    9.4983   59.6870 C   0  0  0  0  0  0  0  0  0  0  0  0
   28.7832   10.7782   59.2408 C   0  0  0  0  0  0  0  0  0  0  0  0
   28.6883   11.0920   57.8967 C   0  0  0  0  0  0  0  0  0  0  0  0
 12 13  1  0  0  0
 13  6  1  0  0  0
  6  7  2  0  0  0
  7  8  1  0  0  0
  8  9  2  0  0  0
  9 10  1  0  0  0
 10 14  1  0  0  0
 14 15  1  0  0  0
 10 11  2  0  0  0
 11 16  1  0  0  0
 16 17  1  0  0  0
  8  2  1  0  0  0
  2  3  2  0  0  0
  2  4  1  0  0  0
  4  1  1  0  0  0
  1 36  1  0  0  0
 36 37  1  0  0  0
 37 38  2  0  0  0
 38 39  1  0  0  0
 39 40  2  0  0  0
 40 41  1  0  0  0
 41 42  2  0  0  0
  1 18  1  0  0  0
 18 19  2  0  0  0
 18 20  1  0  0  0
 20 22  1  0  0  0
 22 27  1  0  0  0
 27 28  1  0  0  0
 28 29  2  0  0  0
 29 30  1  0  0  0
 30 31  2  0  0  0
 31 32  1  0  0  0
 31 33  1  0  0  0
 33 34  2  0  0  0
 22 23  1  0  0  0
 23 24  1  0  0  0
 23 25  2  0  0  0
 11  6  1  0  0  0
 42 37  1  0  0  0
 34 28  1  0  0  0
  4  5  1  0  0  0
 20 21  1  0  0  0
 32 35  1  0  0  0
 24 26  1  0  0  0
M  END
> <minimizedAffinity>
21.33754

> <CNNscore>
0.5859729052

> <CNNaffinity>
6.3627638817

> <CNN_VS>
3.7284071445

> <CNNaffinity_variance>
0.4278814197

$$$$
[H]OC(=O)[C@]([H])(N([H])C(=O)[C@@]([H])(N([H])C(=O)c1c([H])c(OC([H])([H])[H])c(OC([H])([H])[H])c(OC([H])([H])[H])c1[H])C([H])([H])c1c([H])c([H])c([H])c([H])c1[H])C([H])([H])c1c([H])c([H])c(O[H])c([H])c1[H]


 42 44  0  0  0  0  0  0  0  0999 V2000
   28.0070    9.1622   54.7437 C   0  0  0  0  0  0  0  0  0  0  0  0
   27.4355    9.1755   52.2436 C   0  0  0  0  0  0  0  0  0  0  0  0
   26.3765    8.5521   52.3947 O   0  0  0  0  0  0  0  0  0  0  0  0
   28.2657    9.5075   53.3038 N   0  0  0  0  0  0  0  0  0  0  0  0
   29.1498   10.0282   53.1893 H   0  0  0  0  0  0  0  0  0  0  0  0
   28.7032    9.0055   48.7345 C   0  0  0  0  0  0  0  0  0  0  0  0
   28.3110    8.6621   50.0016 C   0  0  0  0  0  0  0  0  0  0  0  0
   27.8366    9.5802   50.9007 C   0  0  0  0  0  0  0  0  0  0  0  0
   27.7546   10.9149   50.5070 C   0  0  0  0  0  0  0  0  0  0  0  0
   28.1388   11.3033   49.2471 C   0  0  0  0  0  0  0  0  0  0  0  0
   28.6026   10.3580   48.3875 C   0  0  0  0  0  0  0  0  0  0  0  0
   28.8919    8.2949   46.4199 C   0  0  0  0  0  0  0  0  0  0  0  0
   29.1882    8.1225   47.7890 O   0  0  0  0  0  0  0  0  0  0  0  0
   28.0598   12.6524   48.8503 O   0  0  0  0  0  0  0  0  0  0  0  0
   26.7564   13.1632   48.5534 C   0  0  0  0  0  0  0  0  0  0  0  0
   28.9882   10.7352   47.1028 O   0  0  0  0  0  0  0  0  0  0  0  0
   29.3333   12.1358   46.9927 C   0  0  0  0  0  0  0  0  0  0  0  0
   26.7453    8.5018   54.8431 C   0  0  0  0  0  0  0  0  0  0  0  0
   26.7598    7.1826   54.6404 O   0  0  0  0  0  0  0  0  0  0  0  0
   25.4702    8.9801   55.1224 N   0  0  0  0  0  0  0  0  0  0  0  0
   25.2659    9.9738   55.2935 H   0  0  0  0  0  0  0  0  0  0  0  0
   24.3190    8.0295   55.1918 C   0  0  0  0  0  0  0  0  0  0  0  0
   23.1093    8.7443   55.5653 C   0  0  0  0  0  0  0  0  0  0  0  0
   21.8920    8.1726   55.8368 O   0  0  0  0  0  0  0  0  0  0  0  0
   23.1391   10.0354   55.6651 O   0  0  0  0  0  0  0  0  0  0  0  0
   21.0103    8.6037   55.6722 H   0  0  0  0  0  0  0  0  0  0  0  0
   24.2432    7.3835   53.8432 C   0  0  0  0  0  0  0  0  0  0  0  0
   22.9795    7.5758   53.1280 C   0  0  0  0  0  0  0  0  0  0  0  0
   22.7173    8.7823   52.5321 C   0  0  0  0  0  0  0  0  0  0  0  0
   21.5148    8.9662   51.8765 C   0  0  0  0  0  0  0  0  0  0  0  0
   20.5666    7.9554   51.8102 C   0  0  0  0  0  0  0  0  0  0  0  0
   19.3762    8.2187   51.1329 O   0  0  0  0  0  0  0  0  0  0  0  0
   20.8378    6.7492   52.4117 C   0  0  0  0  0  0  0  0  0  0  0  0
   22.0382    6.5897   53.0545 C   0  0  0  0  0  0  0  0  0  0  0  0
   18.7065    7.4368   51.1057 H   0  0  0  0  0  0  0  0  0  0  0  0
   28.3897   10.3194   55.5635 C   0  0  0  0  0  0  0  0  0  0  0  0
   28.3931   10.1101   57.0018 C   0  0  0  0  0  0  0  0  0  0  0  0
   28.2101    8.8132   57.4598 C   0  0  0  0  0  0  0  0  0  0  0  0
   28.3182    8.5007   58.7935 C   0  0  0  0  0  0  0  0  0  0  0  0
   28.6137    9.4900   59.7253 C   0  0  0  0  0  0  0  0  0  0  0  0
   28.7930   10.7701   59.2759 C   0  0  0  0  0  0  0  0  0  0  0  0
   28.6857   11.0817   57.9322 C   0  0  0  0  0  0  0  0  0  0  0  0
 12 13  1  0  0  0
 13  6  1  0  0  0
  6  7  2  0  0  0
  7  8  1  0  0  0
  8  9  2  0  0  0
  9 10  1  0  0  0
 10 14  1  0  0  0
 14 15  1  0  0  0
 10 11  2  0  0  0
 11 16  1  0  0  0
 16 17  1  0  0  0
  8  2  1  0  0  0
  2  3  2  0  0  0
  2  4  1  0  0  0
  4  1  1  0  0  0
  1 36  1  0  0  0
 36 37  1  0  0  0
 37 38  2  0  0  0
 38 39  1  0  0  0
 39 40  2  0  0  0
 40 41  1  0  0  0
 41 42  2  0  0  0
  1 18  1  0  0  0
 18 19  2  0  0  0
 18 20  1  0  0  0
 20 22  1  0  0  0
 22 27  1  0  0  0
 27 28  1  0  0  0
 28 29  2  0  0  0
 29 30  1  0  0  0
 30 31  2  0  0  0
 31 32  1  0  0  0
 31 33  1  0  0  0
 33 34  2  0  0  0
 22 23  1  0  0  0
 23 24  1  0  0  0
 23 25  2  0  0  0
 11  6  1  0  0  0
 42 37  1  0  0  0
 34 28  1  0  0  0
  4  5  1  0  0  0
 20 21  1  0  0  0
 32 35  1  0  0  0
 24 26  1  0  0  0
M  END
> <minimizedAffinity>
21.48582

> <CNNscore>
0.5747019053

> <CNNaffinity>
6.3664846420

> <CNN_VS>
3.6588308811

> <CNNaffinity_variance>
0.4088702202

$$$$
[H]OC(=O)[C@]([H])(N([H])C(=O)[C@@]([H])(N([H])C(=O)c1c([H])c(OC([H])([H])[H])c(OC([H])([H])[H])c(OC([H])([H])[H])c1[H])C([H])([H])c1c([H])c([H])c([H])c([H])c1[H])C([H])([H])c1c([H])c([H])c(O[H])c([H])c1[H]


 42 44  0  0  0  0  0  0  0  0999 V2000
   21.4669    9.8221   54.9576 C   0  0  0  0  0  0  0  0  0  0  0  0
   23.7014    8.5634   54.9669 C   0  0  0  0  0  0  0  0  0  0  0  0
   23.1721    7.4489   54.8637 O   0  0  0  0  0  0  0  0  0  0  0  0
   22.9666    9.7386   55.0158 N   0  0  0  0  0  0  0  0  0  0  0  0
   23.3976   10.6730   55.1002 H   0  0  0  0  0  0  0  0  0  0  0  0
   27.3156    8.1458   54.1227 C   0  0  0  0  0  0  0  0  0  0  0  0
   25.9474    8.0857   54.0815 C   0  0  0  0  0  0  0  0  0  0  0  0
   25.1553    8.6554   55.0430 C   0  0  0  0  0  0  0  0  0  0  0  0
   25.7703    9.3182   56.1039 C   0  0  0  0  0  0  0  0  0  0  0  0
   27.1386    9.4007   56.1855 C   0  0  0  0  0  0  0  0  0  0  0  0
   27.8853    8.8215   55.2084 C   0  0  0  0  0  0  0  0  0  0  0  0
   28.8304    6.3745   53.4402 C   0  0  0  0  0  0  0  0  0  0  0  0
   28.1614    7.5901   53.1821 O   0  0  0  0  0  0  0  0  0  0  0  0
   27.7606   10.0668   57.2595 O   0  0  0  0  0  0  0  0  0  0  0  0
   28.1988    9.2571   58.3551 C   0  0  0  0  0  0  0  0  0  0  0  0
   29.2747    8.9041   55.2728 O   0  0  0  0  0  0  0  0  0  0  0  0
   29.8158   10.0574   54.5874 C   0  0  0  0  0  0  0  0  0  0  0  0
   20.9780    8.7950   54.0952 C   0  0  0  0  0  0  0  0  0  0  0  0
   21.0985    9.0260   52.7861 O   0  0  0  0  0  0  0  0  0  0  0  0
   20.3884    7.5648   54.3631 N   0  0  0  0  0  0  0  0  0  0  0  0
   20.2041    7.2237   55.3161 H   0  0  0  0  0  0  0  0  0  0  0  0
   19.9978    6.6667   53.2341 C   0  0  0  0  0  0  0  0  0  0  0  0
   20.8433    6.9266   52.0803 C   0  0  0  0  0  0  0  0  0  0  0  0
   22.1900    6.6763   52.0008 O   0  0  0  0  0  0  0  0  0  0  0  0
   20.3200    7.4362   51.0106 O   0  0  0  0  0  0  0  0  0  0  0  0
   22.8358    7.1998   51.4537 H   0  0  0  0  0  0  0  0  0  0  0  0
   20.1168    5.2716   53.7644 C   0  0  0  0  0  0  0  0  0  0  0  0
   18.9060    4.4550   53.6528 C   0  0  0  0  0  0  0  0  0  0  0  0
   18.9419    3.2880   52.9343 C   0  0  0  0  0  0  0  0  0  0  0  0
   17.7917    2.5315   52.8141 C   0  0  0  0  0  0  0  0  0  0  0  0
   16.6008    2.9295   53.4043 C   0  0  0  0  0  0  0  0  0  0  0  0
   15.4823    2.1136   53.2354 O   0  0  0  0  0  0  0  0  0  0  0  0
   16.5739    4.1019   54.1219 C   0  0  0  0  0  0  0  0  0  0  0  0
   17.7279    4.8344   54.2290 C   0  0  0  0  0  0  0  0  0  0  0  0
   14.6240    2.4474   53.6962 H   0  0  0  0  0  0  0  0  0  0  0  0
   21.0958   11.2379   54.8333 C   0  0  0  0  0  0  0  0  0  0  0  0
   21.1644   11.8011   53.4951 C   0  0  0  0  0  0  0  0  0  0  0  0
   20.7300   13.1082   53.3283 C   0  0  0  0  0  0  0  0  0  0  0  0
   20.8688   13.7635   52.1286 C   0  0  0  0  0  0  0  0  0  0  0  0
   21.4519   13.1221   51.0410 C   0  0  0  0  0  0  0  0  0  0  0  0
   21.8797   11.8322   51.2028 C   0  0  0  0  0  0  0  0  0  0  0  0
   21.7406   11.1755   52.4125 C   0  0  0  0  0  0  0  0  0  0  0  0
 12 13  1  0  0  0
 13  6  1  0  0  0
  6  7  2  0  0  0
  7  8  1  0  0  0
  8  9  2  0  0  0
  9 10  1  0  0  0
 10 14  1  0  0  0
 14 15  1  0  0  0
 10 11  2  0  0  0
 11 16  1  0  0  0
 16 17  1  0  0  0
  8  2  1  0  0  0
  2  3  2  0  0  0
  2  4  1  0  0  0
  4  1  1  0  0  0
  1 36  1  0  0  0
 36 37  1  0  0  0
 37 38  2  0  0  0
 38 39  1  0  0  0
 39 40  2  0  0  0
 40 41  1  0  0  0
 41 42  2  0  0  0
  1 18  1  0  0  0
 18 19  2  0  0  0
 18 20  1  0  0  0
 20 22  1  0  0  0
 22 27  1  0  0  0
 27 28  1  0  0  0
 28 29  2  0  0  0
 29 30  1  0  0  0
 30 31  2  0  0  0
 31 32  1  0  0  0
 31 33  1  0  0  0
 33 34  2  0  0  0
 22 23  1  0  0  0
 23 24  1  0  0  0
 23 25  2  0  0  0
 11  6  1  0  0  0
 42 37  1  0  0  0
 34 28  1  0  0  0
  4  5  1  0  0  0
 20 21  1  0  0  0
 32 35  1  0  0  0
 24 26  1  0  0  0
M  END
> <minimizedAffinity>
24.48220

> <CNNscore>
0.5493324995

> <CNNaffinity>
6.3765573502

> <CNN_VS>
3.5028502941

> <CNNaffinity_variance>
0.3288014829

$$$$
[H]OC(=O)[C@]([H])(N([H])C(=O)[C@@]([H])(N([H])C(=O)c1c([H])c(OC([H])([H])[H])c(OC([H])([H])[H])c(OC([H])([H])[H])c1[H])C([H])([H])c1c([H])c([H])c([H])c([H])c1[H])C([H])([H])c1c([H])c([H])c(O[H])c([H])c1[H]


 42 44  0  0  0  0  0  0  0  0999 V2000
   26.3818    8.4624   54.1383 C   0  0  0  0  0  0  0  0  0  0  0  0
   27.9009    9.4312   52.3132 C   0  0  0  0  0  0  0  0  0  0  0  0
   28.6456   10.0061   53.1180 O   0  0  0  0  0  0  0  0  0  0  0  0
   26.8076    8.6772   52.7128 N   0  0  0  0  0  0  0  0  0  0  0  0
   26.1813    8.1926   52.0504 H   0  0  0  0  0  0  0  0  0  0  0  0
   28.7396    8.5102   48.7920 C   0  0  0  0  0  0  0  0  0  0  0  0
   28.4712    8.4402   50.1338 C   0  0  0  0  0  0  0  0  0  0  0  0
   28.1740    9.5467   50.8848 C   0  0  0  0  0  0  0  0  0  0  0  0
   28.1480   10.7899   50.2550 C   0  0  0  0  0  0  0  0  0  0  0  0
   28.4127   10.9060   48.9126 C   0  0  0  0  0  0  0  0  0  0  0  0
   28.7018    9.7812   48.2063 C   0  0  0  0  0  0  0  0  0  0  0  0
   29.2267    6.1441   48.5432 C   0  0  0  0  0  0  0  0  0  0  0  0
   29.0446    7.4289   47.9880 O   0  0  0  0  0  0  0  0  0  0  0  0
   28.3904   12.1626   48.2767 O   0  0  0  0  0  0  0  0  0  0  0  0
   27.2110   12.9542   48.4513 C   0  0  0  0  0  0  0  0  0  0  0  0
   28.9643    9.8817   46.8416 O   0  0  0  0  0  0  0  0  0  0  0  0
   28.3816    8.8111   46.0623 C   0  0  0  0  0  0  0  0  0  0  0  0
   25.1298    7.7768   54.1504 C   0  0  0  0  0  0  0  0  0  0  0  0
   25.1087    6.5900   53.5399 O   0  0  0  0  0  0  0  0  0  0  0  0
   23.8956    8.1140   54.6941 N   0  0  0  0  0  0  0  0  0  0  0  0
   23.7209    8.9979   55.1908 H   0  0  0  0  0  0  0  0  0  0  0  0
   22.7471    7.1650   54.5748 C   0  0  0  0  0  0  0  0  0  0  0  0
   22.8132    6.1730   55.6356 C   0  0  0  0  0  0  0  0  0  0  0  0
   23.7631    5.1903   55.7561 O   0  0  0  0  0  0  0  0  0  0  0  0
   21.9180    6.1829   56.5718 O   0  0  0  0  0  0  0  0  0  0  0  0
   23.6107    4.2977   56.1688 H   0  0  0  0  0  0  0  0  0  0  0  0
   21.5133    8.0120   54.6199 C   0  0  0  0  0  0  0  0  0  0  0  0
   21.4963    9.1419   53.6880 C   0  0  0  0  0  0  0  0  0  0  0  0
   21.3925    8.9058   52.3416 C   0  0  0  0  0  0  0  0  0  0  0  0
   21.3980    9.9739   51.4647 C   0  0  0  0  0  0  0  0  0  0  0  0
   21.5082   11.2802   51.9188 C   0  0  0  0  0  0  0  0  0  0  0  0
   21.5092   12.3041   50.9717 O   0  0  0  0  0  0  0  0  0  0  0  0
   21.6130   11.5074   53.2707 C   0  0  0  0  0  0  0  0  0  0  0  0
   21.6031   10.4322   54.1212 C   0  0  0  0  0  0  0  0  0  0  0  0
   21.5872   13.2559   51.3569 H   0  0  0  0  0  0  0  0  0  0  0  0
   26.6404    9.7032   54.8808 C   0  0  0  0  0  0  0  0  0  0  0  0
   27.3372    9.5560   56.1477 C   0  0  0  0  0  0  0  0  0  0  0  0
   27.8990   10.6958   56.7049 C   0  0  0  0  0  0  0  0  0  0  0  0
   28.4707   10.6775   57.9543 C   0  0  0  0  0  0  0  0  0  0  0  0
   28.5022    9.5010   58.6954 C   0  0  0  0  0  0  0  0  0  0  0  0
   27.9501    8.3752   58.1471 C   0  0  0  0  0  0  0  0  0  0  0  0
   27.3731    8.3969   56.8898 C   0  0  0  0  0  0  0  0  0  0  0  0
 12 13  1  0  0  0
 13  6  1  0  0  0
  6  7  2  0  0  0
  7  8  1  0  0  0
  8  9  2  0  0  0
  9 10  1  0  0  0
 10 14  1  0  0  0
 14 15  1  0  0  0
 10 11  2  0  0  0
 11 16  1  0  0  0
 16 17  1  0  0  0
  8  2  1  0  0  0
  2  3  2  0  0  0
  2  4  1  0  0  0
  4  1  1  0  0  0
  1 36  1  0  0  0
 36 37  1  0  0  0
 37 38  2  0  0  0
 38 39  1  0  0  0
 39 40  2  0  0  0
 40 41  1  0  0  0
 41 42  2  0  0  0
  1 18  1  0  0  0
 18 19  2  0  0  0
 18 20  1  0  0  0
 20 22  1  0  0  0
 22 27  1  0  0  0
 27 28  1  0  0  0
 28 29  2  0  0  0
 29 30  1  0  0  0
 30 31  2  0  0  0
 31 32  1  0  0  0
 31 33  1  0  0  0
 33 34  2  0  0  0
 22 23  1  0  0  0
 23 24  1  0  0  0
 23 25  2  0  0  0
 11  6  1  0  0  0
 42 37  1  0  0  0
 34 28  1  0  0  0
  4  5  1  0  0  0
 20 21  1  0  0  0
 32 35  1  0  0  0
 24 26  1  0  0  0
M  END
> <minimizedAffinity>
24.29460

> <CNNscore>
0.5473437309

> <CNNaffinity>
6.3809037209

> <CNN_VS>
3.4925477505

> <CNNaffinity_variance>
0.5302578807

$$$$
[H]OC(=O)[C@]([H])(N([H])C(=O)[C@@]([H])(N([H])C(=O)c1c([H])c(OC([H])([H])[H])c(OC([H])([H])[H])c(OC([H])([H])[H])c1[H])C([H])([H])c1c([H])c([H])c([H])c([H])c1[H])C([H])([H])c1c([H])c([H])c(O[H])c([H])c1[H]


 42 44  0  0  0  0  0  0  0  0999 V2000
   21.5191    9.7131   54.9156 C   0  0  0  0  0  0  0  0  0  0  0  0
   23.7653    8.4768   54.9710 C   0  0  0  0  0  0  0  0  0  0  0  0
   23.2472    7.3548   54.8960 O   0  0  0  0  0  0  0  0  0  0  0  0
   23.0192    9.6458   54.9836 N   0  0  0  0  0  0  0  0  0  0  0  0
   23.4409   10.5862   55.0443 H   0  0  0  0  0  0  0  0  0  0  0  0
   27.1779    9.3600   56.2055 C   0  0  0  0  0  0  0  0  0  0  0  0
   25.8178    9.2328   56.0990 C   0  0  0  0  0  0  0  0  0  0  0  0
   25.2179    8.5848   55.0518 C   0  0  0  0  0  0  0  0  0  0  0  0
   26.0271    8.0382   54.0571 C   0  0  0  0  0  0  0  0  0  0  0  0
   27.3946    8.1442   54.1232 C   0  0  0  0  0  0  0  0  0  0  0  0
   27.9468    8.7950   55.1812 C   0  0  0  0  0  0  0  0  0  0  0  0
   28.2495    9.2899   58.3837 C   0  0  0  0  0  0  0  0  0  0  0  0
   27.8347   10.0018   57.2378 O   0  0  0  0  0  0  0  0  0  0  0  0
   28.2124    7.5955   53.1162 O   0  0  0  0  0  0  0  0  0  0  0  0
   28.8592    6.3542   53.4144 C   0  0  0  0  0  0  0  0  0  0  0  0
   29.3333    8.9034   55.2667 O   0  0  0  0  0  0  0  0  0  0  0  0
   29.8664   10.0483   54.5611 C   0  0  0  0  0  0  0  0  0  0  0  0
   21.0465    8.6772   54.0547 C   0  0  0  0  0  0  0  0  0  0  0  0
   21.5345    8.6830   52.8124 O   0  0  0  0  0  0  0  0  0  0  0  0
   20.1549    7.6320   54.2678 N   0  0  0  0  0  0  0  0  0  0  0  0
   19.6707    7.4777   55.1624 H   0  0  0  0  0  0  0  0  0  0  0  0
   19.8692    6.6631   53.1663 C   0  0  0  0  0  0  0  0  0  0  0  0
   20.7866    6.8867   52.0608 C   0  0  0  0  0  0  0  0  0  0  0  0
   22.1035    6.5033   52.0219 O   0  0  0  0  0  0  0  0  0  0  0  0
   20.3650    7.4953   50.9980 O   0  0  0  0  0  0  0  0  0  0  0  0
   22.8222    6.9819   51.5272 H   0  0  0  0  0  0  0  0  0  0  0  0
   19.9881    5.3027   53.7802 C   0  0  0  0  0  0  0  0  0  0  0  0
   18.7980    4.4571   53.6614 C   0  0  0  0  0  0  0  0  0  0  0  0
   18.8697    3.2855   52.9532 C   0  0  0  0  0  0  0  0  0  0  0  0
   17.7389    2.5013   52.8260 C   0  0  0  0  0  0  0  0  0  0  0  0
   16.5322    2.8761   53.3990 C   0  0  0  0  0  0  0  0  0  0  0  0
   15.4351    2.0328   53.2240 O   0  0  0  0  0  0  0  0  0  0  0  0
   16.4695    4.0533   54.1065 C   0  0  0  0  0  0  0  0  0  0  0  0
   17.6047    4.8134   54.2208 C   0  0  0  0  0  0  0  0  0  0  0  0
   14.5639    2.3502   53.6721 H   0  0  0  0  0  0  0  0  0  0  0  0
   21.1340   11.1244   54.7826 C   0  0  0  0  0  0  0  0  0  0  0  0
   21.3153   11.7147   53.4669 C   0  0  0  0  0  0  0  0  0  0  0  0
   21.5370   10.8513   52.4036 C   0  0  0  0  0  0  0  0  0  0  0  0
   21.5992   11.3077   51.1090 C   0  0  0  0  0  0  0  0  0  0  0  0
   21.4428   12.6618   50.8330 C   0  0  0  0  0  0  0  0  0  0  0  0
   21.2257   13.5154   51.8805 C   0  0  0  0  0  0  0  0  0  0  0  0
   21.1613   13.0530   53.1828 C   0  0  0  0  0  0  0  0  0  0  0  0
 12 13  1  0  0  0
 13  6  1  0  0  0
  6  7  2  0  0  0
  7  8  1  0  0  0
  8  9  2  0  0  0
  9 10  1  0  0  0
 10 14  1  0  0  0
 14 15  1  0  0  0
 10 11  2  0  0  0
 11 16  1  0  0  0
 16 17  1  0  0  0
  8  2  1  0  0  0
  2  3  2  0  0  0
  2  4  1  0  0  0
  4  1  1  0  0  0
  1 36  1  0  0  0
 36 37  1  0  0  0
 37 38  2  0  0  0
 38 39  1  0  0  0
 39 40  2  0  0  0
 40 41  1  0  0  0
 41 42  2  0  0  0
  1 18  1  0  0  0
 18 19  2  0  0  0
 18 20  1  0  0  0
 20 22  1  0  0  0
 22 27  1  0  0  0
 27 28  1  0  0  0
 28 29  2  0  0  0
 29 30  1  0  0  0
 30 31  2  0  0  0
 31 32  1  0  0  0
 31 33  1  0  0  0
 33 34  2  0  0  0
 22 23  1  0  0  0
 23 24  1  0  0  0
 23 25  2  0  0  0
 11  6  1  0  0  0
 42 37  1  0  0  0
 34 28  1  0  0  0
  4  5  1  0  0  0
 20 21  1  0  0  0
 32 35  1  0  0  0
 24 26  1  0  0  0
M  END
> <minimizedAffinity>
23.62856

> <CNNscore>
0.5419514179

> <CNNaffinity>
6.4001512527

> <CNN_VS>
3.4685709476

> <CNNaffinity_variance>
0.3373095393

$$$$
[H]OC(=O)[C@]([H])(N([H])C(=O)[C@@]([H])(N([H])C(=O)c1c([H])c(OC([H])([H])[H])c(OC([H])([H])[H])c(OC([H])([H])[H])c1[H])C([H])([H])c1c([H])c([H])c([H])c([H])c1[H])C([H])([H])c1c([H])c([H])c(O[H])c([H])c1[H]


 42 44  0  0  0  0  0  0  0  0999 V2000
   22.5584    9.5138   56.1813 C   0  0  0  0  0  0  0  0  0  0  0  0
   25.1108    9.7637   56.1831 C   0  0  0  0  0  0  0  0  0  0  0  0
   25.2195    9.5400   54.9702 O   0  0  0  0  0  0  0  0  0  0  0  0
   23.8869    9.7725   56.8353 N   0  0  0  0  0  0  0  0  0  0  0  0
   23.7848    9.9593   57.8455 H   0  0  0  0  0  0  0  0  0  0  0  0
   28.2641    9.2128   58.1076 C   0  0  0  0  0  0  0  0  0  0  0  0
   27.1316    9.0044   57.3650 C   0  0  0  0  0  0  0  0  0  0  0  0
   26.3122   10.0276   56.9675 C   0  0  0  0  0  0  0  0  0  0  0  0
   26.6465   11.3291   57.3382 C   0  0  0  0  0  0  0  0  0  0  0  0
   27.7713   11.5830   58.0838 C   0  0  0  0  0  0  0  0  0  0  0  0
   28.5560   10.5370   58.4553 C   0  0  0  0  0  0  0  0  0  0  0  0
   29.0108    7.6735   59.8312 C   0  0  0  0  0  0  0  0  0  0  0  0
   29.1246    8.2199   58.5349 O   0  0  0  0  0  0  0  0  0  0  0  0
   28.1073   12.8975   58.4620 O   0  0  0  0  0  0  0  0  0  0  0  0
   28.2433   13.1516   59.8638 C   0  0  0  0  0  0  0  0  0  0  0  0
   29.7053   10.7794   59.2048 O   0  0  0  0  0  0  0  0  0  0  0  0
   29.5971   10.3483   60.5815 C   0  0  0  0  0  0  0  0  0  0  0  0
   22.5977    8.2396   55.5390 C   0  0  0  0  0  0  0  0  0  0  0  0
   21.8339    7.2890   56.0816 O   0  0  0  0  0  0  0  0  0  0  0  0
   23.2938    7.7867   54.4241 N   0  0  0  0  0  0  0  0  0  0  0  0
   23.9409    8.3776   53.8851 H   0  0  0  0  0  0  0  0  0  0  0  0
   23.1102    6.3796   53.9549 C   0  0  0  0  0  0  0  0  0  0  0  0
   21.9293    6.2897   53.1115 C   0  0  0  0  0  0  0  0  0  0  0  0
   20.7117    5.7819   53.4888 O   0  0  0  0  0  0  0  0  0  0  0  0
   21.9863    6.7175   51.8903 O   0  0  0  0  0  0  0  0  0  0  0  0
   20.0698    5.3278   52.8789 H   0  0  0  0  0  0  0  0  0  0  0  0
   24.3807    6.0166   53.2508 C   0  0  0  0  0  0  0  0  0  0  0  0
   25.5091    6.9186   53.4925 C   0  0  0  0  0  0  0  0  0  0  0  0
   25.6454    8.0496   52.7299 C   0  0  0  0  0  0  0  0  0  0  0  0
   26.7233    8.8867   52.9474 C   0  0  0  0  0  0  0  0  0  0  0  0
   27.6712    8.6052   53.9206 C   0  0  0  0  0  0  0  0  0  0  0  0
   28.7319    9.4971   54.0780 O   0  0  0  0  0  0  0  0  0  0  0  0
   27.5270    7.4681   54.6798 C   0  0  0  0  0  0  0  0  0  0  0  0
   26.4486    6.6541   54.4471 C   0  0  0  0  0  0  0  0  0  0  0  0
   29.4061    9.2489   54.8158 H   0  0  0  0  0  0  0  0  0  0  0  0
   22.1323   10.7515   55.5147 C   0  0  0  0  0  0  0  0  0  0  0  0
   21.6889   10.6150   54.1373 C   0  0  0  0  0  0  0  0  0  0  0  0
   21.8864   11.6972   53.2917 C   0  0  0  0  0  0  0  0  0  0  0  0
   21.6109   11.6182   51.9478 C   0  0  0  0  0  0  0  0  0  0  0  0
   21.1189   10.4384   51.3997 C   0  0  0  0  0  0  0  0  0  0  0  0
   20.9218    9.3703   52.2322 C   0  0  0  0  0  0  0  0  0  0  0  0
   21.2021    9.4519   53.5846 C   0  0  0  0  0  0  0  0  0  0  0  0
 12 13  1  0  0  0
 13  6  1  0  0  0
  6  7  2  0  0  0
  7  8  1  0  0  0
  8  9  2  0  0  0
  9 10  1  0  0  0
 10 14  1  0  0  0
 14 15  1  0  0  0
 10 11  2  0  0  0
 11 16  1  0  0  0
 16 17  1  0  0  0
  8  2  1  0  0  0
  2  3  2  0  0  0
  2  4  1  0  0  0
  4  1  1  0  0  0
  1 36  1  0  0  0
 36 37  1  0  0  0
 37 38  2  0  0  0
 38 39  1  0  0  0
 39 40  2  0  0  0
 40 41  1  0  0  0
 41 42  2  0  0  0
  1 18  1  0  0  0
 18 19  2  0  0  0
 18 20  1  0  0  0
 20 22  1  0  0  0
 22 27  1  0  0  0
 27 28  1  0  0  0
 28 29  2  0  0  0
 29 30  1  0  0  0
 30 31  2  0  0  0
 31 32  1  0  0  0
 31 33  1  0  0  0
 33 34  2  0  0  0
 22 23  1  0  0  0
 23 24  1  0  0  0
 23 25  2  0  0  0
 11  6  1  0  0  0
 42 37  1  0  0  0
 34 28  1  0  0  0
  4  5  1  0  0  0
 20 21  1  0  0  0
 32 35  1  0  0  0
 24 26  1  0  0  0
M  END
> <minimizedAffinity>
20.01715

> <CNNscore>
0.5191544890

> <CNNaffinity>
6.3505539894

> <CNN_VS>
3.2969186306

> <CNNaffinity_variance>
0.2427651435

$$$$
[H]OC(=O)[C@]([H])(N([H])C(=O)[C@@]([H])(N([H])C(=O)c1c([H])c(OC([H])([H])[H])c(OC([H])([H])[H])c(OC([H])([H])[H])c1[H])C([H])([H])c1c([H])c([H])c([H])c([H])c1[H])C([H])([H])c1c([H])c([H])c(O[H])c([H])c1[H]


 42 44  0  0  0  0  0  0  0  0999 V2000
   21.5397    9.7751   54.5735 C   0  0  0  0  0  0  0  0  0  0  0  0
   23.7799    9.4615   55.7821 C   0  0  0  0  0  0  0  0  0  0  0  0
   23.2727    9.4914   56.9112 O   0  0  0  0  0  0  0  0  0  0  0  0
   23.0302    9.5861   54.6220 N   0  0  0  0  0  0  0  0  0  0  0  0
   23.4425    9.5611   53.6758 H   0  0  0  0  0  0  0  0  0  0  0  0
   27.4236    9.4794   56.6021 C   0  0  0  0  0  0  0  0  0  0  0  0
   26.0633    9.6196   56.6864 C   0  0  0  0  0  0  0  0  0  0  0  0
   25.2232    9.2910   55.6556 C   0  0  0  0  0  0  0  0  0  0  0  0
   25.7793    8.7982   54.4762 C   0  0  0  0  0  0  0  0  0  0  0  0
   27.1377    8.6436   54.3480 C   0  0  0  0  0  0  0  0  0  0  0  0
   27.9333    8.9815   55.3971 C   0  0  0  0  0  0  0  0  0  0  0  0
   28.3890    9.0121   58.7810 C   0  0  0  0  0  0  0  0  0  0  0  0
   28.3161    9.7946   57.6086 O   0  0  0  0  0  0  0  0  0  0  0  0
   27.7004    8.1495   53.1550 O   0  0  0  0  0  0  0  0  0  0  0  0
   27.5031    8.9339   51.9744 C   0  0  0  0  0  0  0  0  0  0  0  0
   29.3130    8.8222   55.2853 O   0  0  0  0  0  0  0  0  0  0  0  0
   29.9601    9.8947   54.5614 C   0  0  0  0  0  0  0  0  0  0  0  0
   20.9790    8.8144   53.6790 C   0  0  0  0  0  0  0  0  0  0  0  0
   21.5622    8.7215   52.4820 O   0  0  0  0  0  0  0  0  0  0  0  0
   19.9160    7.9294   53.8195 N   0  0  0  0  0  0  0  0  0  0  0  0
   19.3412    7.8694   54.6707 H   0  0  0  0  0  0  0  0  0  0  0  0
   19.5696    7.0009   52.7007 C   0  0  0  0  0  0  0  0  0  0  0  0
   19.9418    7.5988   51.4288 C   0  0  0  0  0  0  0  0  0  0  0  0
   21.1123    7.3735   50.7492 O   0  0  0  0  0  0  0  0  0  0  0  0
   19.1251    8.4202   50.8493 O   0  0  0  0  0  0  0  0  0  0  0  0
   21.5661    8.0352   50.1606 H   0  0  0  0  0  0  0  0  0  0  0  0
   20.2886    5.7214   52.9966 C   0  0  0  0  0  0  0  0  0  0  0  0
   21.6435    5.8749   53.5316 C   0  0  0  0  0  0  0  0  0  0  0  0
   21.8378    5.8771   54.8886 C   0  0  0  0  0  0  0  0  0  0  0  0
   23.1152    6.0434   55.3892 C   0  0  0  0  0  0  0  0  0  0  0  0
   24.2048    6.2097   54.5466 C   0  0  0  0  0  0  0  0  0  0  0  0
   25.4619    6.3745   55.1278 O   0  0  0  0  0  0  0  0  0  0  0  0
   24.0002    6.2073   53.1870 C   0  0  0  0  0  0  0  0  0  0  0  0
   22.7245    6.0387   52.7140 C   0  0  0  0  0  0  0  0  0  0  0  0
   26.2397    6.4885   54.4624 H   0  0  0  0  0  0  0  0  0  0  0  0
   21.2675   11.2167   54.4989 C   0  0  0  0  0  0  0  0  0  0  0  0
   21.3812   11.8208   53.1819 C   0  0  0  0  0  0  0  0  0  0  0  0
   21.5160   10.9674   52.0962 C   0  0  0  0  0  0  0  0  0  0  0  0
   21.5089   11.4401   50.8060 C   0  0  0  0  0  0  0  0  0  0  0  0
   21.3681   12.8012   50.5571 C   0  0  0  0  0  0  0  0  0  0  0  0
   21.2366   13.6449   51.6265 C   0  0  0  0  0  0  0  0  0  0  0  0
   21.2419   13.1661   52.9245 C   0  0  0  0  0  0  0  0  0  0  0  0
 12 13  1  0  0  0
 13  6  1  0  0  0
  6  7  2  0  0  0
  7  8  1  0  0  0
  8  9  2  0  0  0
  9 10  1  0  0  0
 10 14  1  0  0  0
 14 15  1  0  0  0
 10 11  2  0  0  0
 11 16  1  0  0  0
 16 17  1  0  0  0
  8  2  1  0  0  0
  2  3  2  0  0  0
  2  4  1  0  0  0
  4  1  1  0  0  0
  1 36  1  0  0  0
 36 37  1  0  0  0
 37 38  2  0  0  0
 38 39  1  0  0  0
 39 40  2  0  0  0
 40 41  1  0  0  0
 41 42  2  0  0  0
  1 18  1  0  0  0
 18 19  2  0  0  0
 18 20  1  0  0  0
 20 22  1  0  0  0
 22 27  1  0  0  0
 27 28  1  0  0  0
 28 29  2  0  0  0
 29 30  1  0  0  0
 30 31  2  0  0  0
 31 32  1  0  0  0
 31 33  1  0  0  0
 33 34  2  0  0  0
 22 23  1  0  0  0
 23 24  1  0  0  0
 23 25  2  0  0  0
 11  6  1  0  0  0
 42 37  1  0  0  0
 34 28  1  0  0  0
  4  5  1  0  0  0
 20 21  1  0  0  0
 32 35  1  0  0  0
 24 26  1  0  0  0
M  END
> <minimizedAffinity>
21.16370

> <CNNscore>
0.4861826599

> <CNNaffinity>
6.2790679932

> <CNN_VS>
3.0527739525

> <CNNaffinity_variance>
1.0166919231

$$$$
[H]OC(=O)[C@]([H])(N([H])C(=O)[C@@]([H])(N([H])C(=O)c1c([H])c(OC([H])([H])[H])c(OC([H])([H])[H])c(OC([H])([H])[H])c1[H])C([H])([H])c1c([H])c([H])c([H])c([H])c1[H])C([H])([H])c1c([H])c([H])c(O[H])c([H])c1[H]


 42 44  0  0  0  0  0  0  0  0999 V2000
   21.5107    9.7522   54.5896 C   0  0  0  0  0  0  0  0  0  0  0  0
   23.7712    9.4727   55.7683 C   0  0  0  0  0  0  0  0  0  0  0  0
   23.2809    9.5149   56.9045 O   0  0  0  0  0  0  0  0  0  0  0  0
   23.0031    9.5750   54.6181 N   0  0  0  0  0  0  0  0  0  0  0  0
   23.4013    9.5395   53.6662 H   0  0  0  0  0  0  0  0  0  0  0  0
   27.1018    8.6594   54.2868 C   0  0  0  0  0  0  0  0  0  0  0  0
   25.7534    8.8307   54.4585 C   0  0  0  0  0  0  0  0  0  0  0  0
   25.2137    9.3111   55.6223 C   0  0  0  0  0  0  0  0  0  0  0  0
   26.0741    9.6336   56.6704 C   0  0  0  0  0  0  0  0  0  0  0  0
   27.4321    9.4755   56.5420 C   0  0  0  0  0  0  0  0  0  0  0  0
   27.9237    8.9966   55.3687 C   0  0  0  0  0  0  0  0  0  0  0  0
   27.6151    8.8983   51.9252 C   0  0  0  0  0  0  0  0  0  0  0  0
   27.6990    8.1796   53.1370 O   0  0  0  0  0  0  0  0  0  0  0  0
   28.3015    9.7975   57.6023 O   0  0  0  0  0  0  0  0  0  0  0  0
   28.2874    8.9253   58.7369 C   0  0  0  0  0  0  0  0  0  0  0  0
   29.3001    8.8387   55.2201 O   0  0  0  0  0  0  0  0  0  0  0  0
   29.9412    9.9581   54.5652 C   0  0  0  0  0  0  0  0  0  0  0  0
   20.9469    8.7965   53.6916 C   0  0  0  0  0  0  0  0  0  0  0  0
   21.5217    8.7155   52.4897 O   0  0  0  0  0  0  0  0  0  0  0  0
   19.8884    7.9064   53.8328 N   0  0  0  0  0  0  0  0  0  0  0  0
   19.3201    7.8374   54.6876 H   0  0  0  0  0  0  0  0  0  0  0  0
   19.5373    6.9857   52.7090 C   0  0  0  0  0  0  0  0  0  0  0  0
   19.8998    7.5943   51.4394 C   0  0  0  0  0  0  0  0  0  0  0  0
   21.0675    7.3790   50.7518 O   0  0  0  0  0  0  0  0  0  0  0  0
   19.0762    8.4162   50.8703 O   0  0  0  0  0  0  0  0  0  0  0  0
   21.5151    8.0469   50.1654 H   0  0  0  0  0  0  0  0  0  0  0  0
   20.2614    5.7058   52.9905 C   0  0  0  0  0  0  0  0  0  0  0  0
   21.6109    5.8586   53.5391 C   0  0  0  0  0  0  0  0  0  0  0  0
   21.7875    5.8971   54.8979 C   0  0  0  0  0  0  0  0  0  0  0  0
   23.0602    6.0626   55.4107 C   0  0  0  0  0  0  0  0  0  0  0  0
   24.1626    6.1923   54.5783 C   0  0  0  0  0  0  0  0  0  0  0  0
   25.4139    6.3589   55.1714 O   0  0  0  0  0  0  0  0  0  0  0  0
   23.9758    6.1538   53.2168 C   0  0  0  0  0  0  0  0  0  0  0  0
   22.7044    5.9866   52.7317 C   0  0  0  0  0  0  0  0  0  0  0  0
   26.2016    6.4450   54.5135 H   0  0  0  0  0  0  0  0  0  0  0  0
   21.2258   11.1922   54.5340 C   0  0  0  0  0  0  0  0  0  0  0  0
   21.3555   11.8190   53.2292 C   0  0  0  0  0  0  0  0  0  0  0  0
   21.5384   10.9859   52.1348 C   0  0  0  0  0  0  0  0  0  0  0  0
   21.5502   11.4778   50.8518 C   0  0  0  0  0  0  0  0  0  0  0  0
   21.3803   12.8385   50.6194 C   0  0  0  0  0  0  0  0  0  0  0  0
   21.2013   13.6622   51.6975 C   0  0  0  0  0  0  0  0  0  0  0  0
   21.1877   13.1640   52.9881 C   0  0  0  0  0  0  0  0  0  0  0  0
 12 13  1  0  0  0
 13  6  1  0  0  0
  6  7  2  0  0  0
  7  8  1  0  0  0
  8  9  2  0  0  0
  9 10  1  0  0  0
 10 14  1  0  0  0
 14 15  1  0  0  0
 10 11  2  0  0  0
 11 16  1  0  0  0
 16 17  1  0  0  0
  8  2  1  0  0  0
  2  3  2  0  0  0
  2  4  1  0  0  0
  4  1  1  0  0  0
  1 36  1  0  0  0
 36 37  1  0  0  0
 37 38  2  0  0  0
 38 39  1  0  0  0
 39 40  2  0  0  0
 40 41  1  0  0  0
 41 42  2  0  0  0
  1 18  1  0  0  0
 18 19  2  0  0  0
 18 20  1  0  0  0
 20 22  1  0  0  0
 22 27  1  0  0  0
 27 28  1  0  0  0
 28 29  2  0  0  0
 29 30  1  0  0  0
 30 31  2  0  0  0
 31 32  1  0  0  0
 31 33  1  0  0  0
 33 34  2  0  0  0
 22 23  1  0  0  0
 23 24  1  0  0  0
 23 25  2  0  0  0
 11  6  1  0  0  0
 42 37  1  0  0  0
 34 28  1  0  0  0
  4  5  1  0  0  0
 20 21  1  0  0  0
 32 35  1  0  0  0
 24 26  1  0  0  0
M  END
> <minimizedAffinity>
21.63371

> <CNNscore>
0.4820162058

> <CNNaffinity>
6.2555503845

> <CNN_VS>
3.0152766705

> <CNNaffinity_variance>
1.0277576447

$$$$
[H]c1c([H])c([H])c(-c2c([H])c([H])c([H])c(-c3c([H])c([H])c([H])c([H])c3N([H])S(=O)(=O)c3c([H])c([H])c(OC([H])([H])[H])c([H])c3[H])c2[H])c([H])c1[H]


 31 34  0  0  0  0  0  0  0  0999 V2000
   20.2056    6.1556   53.3443 C   0  0  0  0  0  0  0  0  0  0  0  0
   19.5177    4.9960   53.0525 C   0  0  0  0  0  0  0  0  0  0  0  0
   19.6184    3.8574   53.8199 C   0  0  0  0  0  0  0  0  0  0  0  0
   20.4302    3.8499   54.9273 C   0  0  0  0  0  0  0  0  0  0  0  0
   21.1084    4.9788   55.2245 C   0  0  0  0  0  0  0  0  0  0  0  0
   21.0223    6.1536   54.4571 C   0  0  0  0  0  0  0  0  0  0  0  0
   21.7651    7.3311   54.8484 C   0  0  0  0  0  0  0  0  0  0  0  0
   21.0957    8.4157   55.3526 C   0  0  0  0  0  0  0  0  0  0  0  0
   21.7793    9.5856   55.7165 C   0  0  0  0  0  0  0  0  0  0  0  0
   23.1487    9.6218   55.5550 C   0  0  0  0  0  0  0  0  0  0  0  0
   23.8398    8.5376   55.0477 C   0  0  0  0  0  0  0  0  0  0  0  0
   23.1209    7.3855   54.6948 C   0  0  0  0  0  0  0  0  0  0  0  0
   25.2819    8.5702   54.8760 C   0  0  0  0  0  0  0  0  0  0  0  0
   26.1177    8.9511   55.8982 C   0  0  0  0  0  0  0  0  0  0  0  0
   27.4803    8.9722   55.7047 C   0  0  0  0  0  0  0  0  0  0  0  0
   28.0444    8.6136   54.4855 C   0  0  0  0  0  0  0  0  0  0  0  0
   27.2107    8.2313   53.4587 C   0  0  0  0  0  0  0  0  0  0  0  0
   25.8340    8.2100   53.6540 C   0  0  0  0  0  0  0  0  0  0  0  0
   20.0385    7.2846   52.4891 N   0  0  0  0  0  0  0  0  0  0  0  0
   19.0795    7.6867   52.4383 H   0  0  0  0  0  0  0  0  0  0  0  0
   21.2651    7.9996   51.5486 S   0  0  0  0  0  0  0  0  0  0  0  0
   22.5993    7.4128   51.9847 O   0  0  0  0  0  0  0  0  0  0  0  0
   21.0535    7.6525   50.0849 O   0  0  0  0  0  0  0  0  0  0  0  0
   21.4526   12.5217   51.7359 C   0  0  0  0  0  0  0  0  0  0  0  0
   21.6991   11.7731   52.8669 C   0  0  0  0  0  0  0  0  0  0  0  0
   21.6412   10.3847   52.8079 C   0  0  0  0  0  0  0  0  0  0  0  0
   21.3400    9.7298   51.6338 C   0  0  0  0  0  0  0  0  0  0  0  0
   21.0966   10.4892   50.5148 C   0  0  0  0  0  0  0  0  0  0  0  0
   21.1456   11.8768   50.5365 C   0  0  0  0  0  0  0  0  0  0  0  0
   20.3003   14.6255   51.8532 C   0  0  0  0  0  0  0  0  0  0  0  0
   21.5098   13.9022   51.7930 O   0  0  0  0  0  0  0  0  0  0  0  0
 30 31  1  0  0  0
 31 24  1  0  0  0
 24 25  2  0  0  0
 25 26  1  0  0  0
 26 27  2  0  0  0
 27 28  1  0  0  0
 28 29  2  0  0  0
 27 21  1  0  0  0
 21 22  2  0  0  0
 21 23  2  0  0  0
 21 19  1  0  0  0
 19  1  1  0  0  0
  1  2  2  0  0  0
  2  3  1  0  0  0
  3  4  2  0  0  0
  4  5  1  0  0  0
  5  6  2  0  0  0
  6  7  1  0  0  0
  7  8  2  0  0  0
  8  9  1  0  0  0
  9 10  2  0  0  0
 10 11  1  0  0  0
 11 12  2  0  0  0
 11 13  1  0  0  0
 13 14  2  0  0  0
 14 15  1  0  0  0
 15 16  2  0  0  0
 16 17  1  0  0  0
 17 18  2  0  0  0
 29 24  1  0  0  0
  6  1  1  0  0  0
 12  7  1  0  0  0
 18 13  1  0  0  0
 19 20  1  0  0  0
M  END
> <minimizedAffinity>
25.70779

> <CNNscore>
0.5846151710

> <CNNaffinity>
6.2830657959

> <CNN_VS>
3.6731755733

> <CNNaffinity_variance>
0.3136411905

$$$$
[H]c1c([H])c([H])c(-c2c([H])c([H])c([H])c(-c3c([H])c([H])c([H])c([H])c3N([H])S(=O)(=O)c3c([H])c([H])c(OC([H])([H])[H])c([H])c3[H])c2[H])c([H])c1[H]


 31 34  0  0  0  0  0  0  0  0999 V2000
   21.5105   10.3920   51.6186 C   0  0  0  0  0  0  0  0  0  0  0  0
   21.0272   11.1222   50.5526 C   0  0  0  0  0  0  0  0  0  0  0  0
   20.8282   12.4832   50.6117 C   0  0  0  0  0  0  0  0  0  0  0  0
   21.1154   13.1658   51.7679 C   0  0  0  0  0  0  0  0  0  0  0  0
   21.5899   12.4629   52.8184 C   0  0  0  0  0  0  0  0  0  0  0  0
   21.8017   11.0736   52.7830 C   0  0  0  0  0  0  0  0  0  0  0  0
   22.3306   10.3911   53.9431 C   0  0  0  0  0  0  0  0  0  0  0  0
   21.5070   10.1292   55.0069 C   0  0  0  0  0  0  0  0  0  0  0  0
   21.9911    9.4944   56.1606 C   0  0  0  0  0  0  0  0  0  0  0  0
   23.3227    9.1368   56.2023 C   0  0  0  0  0  0  0  0  0  0  0  0
   24.1676    9.3936   55.1389 C   0  0  0  0  0  0  0  0  0  0  0  0
   23.6464   10.0306   54.0026 C   0  0  0  0  0  0  0  0  0  0  0  0
   25.5706    9.0187   55.1773 C   0  0  0  0  0  0  0  0  0  0  0  0
   26.1556    8.3222   54.1473 C   0  0  0  0  0  0  0  0  0  0  0  0
   27.4874    7.9811   54.2130 C   0  0  0  0  0  0  0  0  0  0  0  0
   28.2703    8.3263   55.3089 C   0  0  0  0  0  0  0  0  0  0  0  0
   27.6883    9.0241   56.3432 C   0  0  0  0  0  0  0  0  0  0  0  0
   26.3427    9.3689   56.2770 C   0  0  0  0  0  0  0  0  0  0  0  0
   21.6821    8.9847   51.4629 N   0  0  0  0  0  0  0  0  0  0  0  0
   22.3801    8.6810   50.7527 H   0  0  0  0  0  0  0  0  0  0  0  0
   20.8327    7.7863   52.3247 S   0  0  0  0  0  0  0  0  0  0  0  0
   19.6507    8.4486   53.0169 O   0  0  0  0  0  0  0  0  0  0  0  0
   20.2909    6.7489   51.3562 O   0  0  0  0  0  0  0  0  0  0  0  0
   23.2642    5.5209   55.4029 C   0  0  0  0  0  0  0  0  0  0  0  0
   23.7845    5.7544   54.1478 C   0  0  0  0  0  0  0  0  0  0  0  0
   23.0368    6.4501   53.2037 C   0  0  0  0  0  0  0  0  0  0  0  0
   21.7737    6.9178   53.4937 C   0  0  0  0  0  0  0  0  0  0  0  0
   21.2684    6.6775   54.7487 C   0  0  0  0  0  0  0  0  0  0  0  0
   21.9861    5.9867   55.7162 C   0  0  0  0  0  0  0  0  0  0  0  0
   23.3234    4.1119   57.3467 C   0  0  0  0  0  0  0  0  0  0  0  0
   24.0065    4.8294   56.3426 O   0  0  0  0  0  0  0  0  0  0  0  0
 30 31  1  0  0  0
 31 24  1  0  0  0
 24 25  2  0  0  0
 25 26  1  0  0  0
 26 27  2  0  0  0
 27 28  1  0  0  0
 28 29  2  0  0  0
 27 21  1  0  0  0
 21 22  2  0  0  0
 21 23  2  0  0  0
 21 19  1  0  0  0
 19  1  1  0  0  0
  1  2  2  0  0  0
  2  3  1  0  0  0
  3  4  2  0  0  0
  4  5  1  0  0  0
  5  6  2  0  0  0
  6  7  1  0  0  0
  7  8  2  0  0  0
  8  9  1  0  0  0
  9 10  2  0  0  0
 10 11  1  0  0  0
 11 12  2  0  0  0
 11 13  1  0  0  0
 13 14  2  0  0  0
 14 15  1  0  0  0
 15 16  2  0  0  0
 16 17  1  0  0  0
 17 18  2  0  0  0
 29 24  1  0  0  0
  6  1  1  0  0  0
 12  7  1  0  0  0
 18 13  1  0  0  0
 19 20  1  0  0  0
M  END
> <minimizedAffinity>
22.79158

> <CNNscore>
0.5413078070

> <CNNaffinity>
6.4574913979

> <CNN_VS>
3.4954905510

> <CNNaffinity_variance>
0.3445154130

$$$$
[H]c1c([H])c([H])c(-c2c([H])c([H])c([H])c(-c3c([H])c([H])c([H])c([H])c3N([H])S(=O)(=O)c3c([H])c([H])c(OC([H])([H])[H])c([H])c3[H])c2[H])c([H])c1[H]


 31 34  0  0  0  0  0  0  0  0999 V2000
   21.8561    6.2427   53.9273 C   0  0  0  0  0  0  0  0  0  0  0  0
   21.4450    4.9815   53.5485 C   0  0  0  0  0  0  0  0  0  0  0  0
   20.1689    4.7165   53.1048 C   0  0  0  0  0  0  0  0  0  0  0  0
   19.2484    5.7323   53.0265 C   0  0  0  0  0  0  0  0  0  0  0  0
   19.6384    6.9716   53.3935 C   0  0  0  0  0  0  0  0  0  0  0  0
   20.9349    7.2675   53.8495 C   0  0  0  0  0  0  0  0  0  0  0  0
   21.2852    8.6241   54.2079 C   0  0  0  0  0  0  0  0  0  0  0  0
   21.7263    8.8953   55.4770 C   0  0  0  0  0  0  0  0  0  0  0  0
   22.0484   10.2032   55.8694 C   0  0  0  0  0  0  0  0  0  0  0  0
   21.9111   11.2176   54.9449 C   0  0  0  0  0  0  0  0  0  0  0  0
   21.4674   10.9624   53.6610 C   0  0  0  0  0  0  0  0  0  0  0  0
   21.1547    9.6414   53.3062 C   0  0  0  0  0  0  0  0  0  0  0  0
   21.3215   12.0268   52.6833 C   0  0  0  0  0  0  0  0  0  0  0  0
   21.7956   11.8927   51.4004 C   0  0  0  0  0  0  0  0  0  0  0  0
   21.6425   12.9195   50.4967 C   0  0  0  0  0  0  0  0  0  0  0  0
   21.0120   14.1073   50.8499 C   0  0  0  0  0  0  0  0  0  0  0  0
   20.5355   14.2460   52.1341 C   0  0  0  0  0  0  0  0  0  0  0  0
   20.6901   13.2087   53.0474 C   0  0  0  0  0  0  0  0  0  0  0  0
   23.1986    6.4194   54.3753 N   0  0  0  0  0  0  0  0  0  0  0  0
   23.4182    6.0600   55.3274 H   0  0  0  0  0  0  0  0  0  0  0  0
   24.4417    7.1767   53.4912 S   0  0  0  0  0  0  0  0  0  0  0  0
   25.1405    6.1165   52.6532 O   0  0  0  0  0  0  0  0  0  0  0  0
   23.8427    8.2047   52.5468 O   0  0  0  0  0  0  0  0  0  0  0  0
   27.4793    9.3909   56.0190 C   0  0  0  0  0  0  0  0  0  0  0  0
   27.8849    8.7094   54.8915 C   0  0  0  0  0  0  0  0  0  0  0  0
   26.9512    8.0299   54.1163 C   0  0  0  0  0  0  0  0  0  0  0  0
   25.6145    8.0201   54.4501 C   0  0  0  0  0  0  0  0  0  0  0  0
   25.2251    8.7038   55.5766 C   0  0  0  0  0  0  0  0  0  0  0  0
   26.1292    9.3930   56.3741 C   0  0  0  0  0  0  0  0  0  0  0  0
   28.3366    9.9409   58.1939 C   0  0  0  0  0  0  0  0  0  0  0  0
   28.4065   10.0669   56.7907 O   0  0  0  0  0  0  0  0  0  0  0  0
 30 31  1  0  0  0
 31 24  1  0  0  0
 24 25  2  0  0  0
 25 26  1  0  0  0
 26 27  2  0  0  0
 27 28  1  0  0  0
 28 29  2  0  0  0
 27 21  1  0  0  0
 21 22  2  0  0  0
 21 23  2  0  0  0
 21 19  1  0  0  0
 19  1  1  0  0  0
  1  2  2  0  0  0
  2  3  1  0  0  0
  3  4  2  0  0  0
  4  5  1  0  0  0
  5  6  2  0  0  0
  6  7  1  0  0  0
  7  8  2  0  0  0
  8  9  1  0  0  0
  9 10  2  0  0  0
 10 11  1  0  0  0
 11 12  2  0  0  0
 11 13  1  0  0  0
 13 14  2  0  0  0
 14 15  1  0  0  0
 15 16  2  0  0  0
 16 17  1  0  0  0
 17 18  2  0  0  0
 29 24  1  0  0  0
  6  1  1  0  0  0
 12  7  1  0  0  0
 18 13  1  0  0  0
 19 20  1  0  0  0
M  END
> <minimizedAffinity>
19.21008

> <CNNscore>
0.5411213040

> <CNNaffinity>
6.2739520073

> <CNN_VS>
3.3949689865

> <CNNaffinity_variance>
0.3606458306

$$$$
[H]c1c([H])c([H])c(-c2c([H])c([H])c([H])c(-c3c([H])c([H])c([H])c([H])c3N([H])S(=O)(=O)c3c([H])c([H])c(OC([H])([H])[H])c([H])c3[H])c2[H])c([H])c1[H]


 31 34  0  0  0  0  0  0  0  0999 V2000
   22.4527    8.7467   53.7982 C   0  0  0  0  0  0  0  0  0  0  0  0
   22.5833   10.0741   54.1501 C   0  0  0  0  0  0  0  0  0  0  0  0
   21.6137   10.7580   54.8485 C   0  0  0  0  0  0  0  0  0  0  0  0
   20.4597   10.1147   55.2224 C   0  0  0  0  0  0  0  0  0  0  0  0
   20.3198    8.8150   54.8848 C   0  0  0  0  0  0  0  0  0  0  0  0
   21.2949    8.0951   54.1726 C   0  0  0  0  0  0  0  0  0  0  0  0
   21.0825    6.6986   53.8625 C   0  0  0  0  0  0  0  0  0  0  0  0
   22.1496    5.9158   53.5057 C   0  0  0  0  0  0  0  0  0  0  0  0
   21.9782    4.5641   53.1708 C   0  0  0  0  0  0  0  0  0  0  0  0
   20.7047    4.0358   53.2084 C   0  0  0  0  0  0  0  0  0  0  0  0
   19.6172    4.8107   53.5656 C   0  0  0  0  0  0  0  0  0  0  0  0
   19.8287    6.1585   53.8934 C   0  0  0  0  0  0  0  0  0  0  0  0
   18.2739    4.2592   53.6074 C   0  0  0  0  0  0  0  0  0  0  0  0
   17.9665    3.0711   52.9890 C   0  0  0  0  0  0  0  0  0  0  0  0
   16.6842    2.5744   53.0460 C   0  0  0  0  0  0  0  0  0  0  0  0
   15.6748    3.2508   53.7220 C   0  0  0  0  0  0  0  0  0  0  0  0
   15.9783    4.4415   54.3430 C   0  0  0  0  0  0  0  0  0  0  0  0
   17.2739    4.9435   54.2854 C   0  0  0  0  0  0  0  0  0  0  0  0
   23.5108    8.1234   53.0728 N   0  0  0  0  0  0  0  0  0  0  0  0
   23.4573    8.1851   52.0349 H   0  0  0  0  0  0  0  0  0  0  0  0
   24.8218    7.2858   53.7657 S   0  0  0  0  0  0  0  0  0  0  0  0
   24.2671    6.1186   54.5687 O   0  0  0  0  0  0  0  0  0  0  0  0
   25.7063    6.7234   52.6661 O   0  0  0  0  0  0  0  0  0  0  0  0
   27.5426    9.7802   56.3915 C   0  0  0  0  0  0  0  0  0  0  0  0
   26.1816    9.7799   56.6110 C   0  0  0  0  0  0  0  0  0  0  0  0
   25.3474    9.0136   55.8040 C   0  0  0  0  0  0  0  0  0  0  0  0
   25.8522    8.2450   54.7779 C   0  0  0  0  0  0  0  0  0  0  0  0
   27.2105    8.2554   54.5712 C   0  0  0  0  0  0  0  0  0  0  0  0
   28.0735    9.0081   55.3568 C   0  0  0  0  0  0  0  0  0  0  0  0
   28.6669   10.0783   58.4926 C   0  0  0  0  0  0  0  0  0  0  0  0
   28.3732   10.5417   57.1931 O   0  0  0  0  0  0  0  0  0  0  0  0
 30 31  1  0  0  0
 31 24  1  0  0  0
 24 25  2  0  0  0
 25 26  1  0  0  0
 26 27  2  0  0  0
 27 28  1  0  0  0
 28 29  2  0  0  0
 27 21  1  0  0  0
 21 22  2  0  0  0
 21 23  2  0  0  0
 21 19  1  0  0  0
 19  1  1  0  0  0
  1  2  2  0  0  0
  2  3  1  0  0  0
  3  4  2  0  0  0
  4  5  1  0  0  0
  5  6  2  0  0  0
  6  7  1  0  0  0
  7  8  2  0  0  0
  8  9  1  0  0  0
  9 10  2  0  0  0
 10 11  1  0  0  0
 11 12  2  0  0  0
 11 13  1  0  0  0
 13 14  2  0  0  0
 14 15  1  0  0  0
 15 16  2  0  0  0
 16 17  1  0  0  0
 17 18  2  0  0  0
 29 24  1  0  0  0
  6  1  1  0  0  0
 12  7  1  0  0  0
 18 13  1  0  0  0
 19 20  1  0  0  0
M  END
> <minimizedAffinity>
24.19275

> <CNNscore>
0.5398965478

> <CNNaffinity>
6.2261934280

> <CNN_VS>
3.3615002632

> <CNNaffinity_variance>
0.2371407449

$$$$
[H]c1c([H])c([H])c(-c2c([H])c([H])c([H])c(-c3c([H])c([H])c([H])c([H])c3N([H])S(=O)(=O)c3c([H])c([H])c(OC([H])([H])[H])c([H])c3[H])c2[H])c([H])c1[H]


 31 34  0  0  0  0  0  0  0  0999 V2000
   22.2831    8.8376   53.3924 C   0  0  0  0  0  0  0  0  0  0  0  0
   22.3618   10.1625   53.0164 C   0  0  0  0  0  0  0  0  0  0  0  0
   21.5320   10.7180   52.0684 C   0  0  0  0  0  0  0  0  0  0  0  0
   20.5778    9.9423   51.4575 C   0  0  0  0  0  0  0  0  0  0  0  0
   20.4898    8.6440   51.8171 C   0  0  0  0  0  0  0  0  0  0  0  0
   21.3249    8.0539   52.7818 C   0  0  0  0  0  0  0  0  0  0  0  0
   21.1590    6.6597   53.1289 C   0  0  0  0  0  0  0  0  0  0  0  0
   22.2641    5.8928   53.3918 C   0  0  0  0  0  0  0  0  0  0  0  0
   22.1443    4.5302   53.7043 C   0  0  0  0  0  0  0  0  0  0  0  0
   20.8823    3.9748   53.7415 C   0  0  0  0  0  0  0  0  0  0  0  0
   19.7570    4.7332   53.4787 C   0  0  0  0  0  0  0  0  0  0  0  0
   19.9176    6.0924   53.1696 C   0  0  0  0  0  0  0  0  0  0  0  0
   18.4256    4.1534   53.5170 C   0  0  0  0  0  0  0  0  0  0  0  0
   17.4159    4.7230   54.2548 C   0  0  0  0  0  0  0  0  0  0  0  0
   16.1647    4.1498   54.2715 C   0  0  0  0  0  0  0  0  0  0  0  0
   15.8885    2.9926   53.5519 C   0  0  0  0  0  0  0  0  0  0  0  0
   16.8972    2.4185   52.8113 C   0  0  0  0  0  0  0  0  0  0  0  0
   18.1614    2.9975   52.7944 C   0  0  0  0  0  0  0  0  0  0  0  0
   23.1873    8.3520   54.3826 N   0  0  0  0  0  0  0  0  0  0  0  0
   22.8254    8.3125   55.3580 H   0  0  0  0  0  0  0  0  0  0  0  0
   24.7917    7.8578   54.0958 S   0  0  0  0  0  0  0  0  0  0  0  0
   24.8604    6.3478   54.2695 O   0  0  0  0  0  0  0  0  0  0  0  0
   25.1781    8.1855   52.6636 O   0  0  0  0  0  0  0  0  0  0  0  0
   27.8766    9.8364   56.7580 C   0  0  0  0  0  0  0  0  0  0  0  0
   28.2790    9.1004   55.6641 C   0  0  0  0  0  0  0  0  0  0  0  0
   27.3307    8.4934   54.8476 C   0  0  0  0  0  0  0  0  0  0  0  0
   25.9826    8.6100   55.1067 C   0  0  0  0  0  0  0  0  0  0  0  0
   25.5966    9.3467   56.2005 C   0  0  0  0  0  0  0  0  0  0  0  0
   26.5151    9.9664   57.0375 C   0  0  0  0  0  0  0  0  0  0  0  0
   28.7382   10.2351   58.9639 C   0  0  0  0  0  0  0  0  0  0  0  0
   28.8183   10.4405   57.5707 O   0  0  0  0  0  0  0  0  0  0  0  0
 30 31  1  0  0  0
 31 24  1  0  0  0
 24 25  2  0  0  0
 25 26  1  0  0  0
 26 27  2  0  0  0
 27 28  1  0  0  0
 28 29  2  0  0  0
 27 21  1  0  0  0
 21 22  2  0  0  0
 21 23  2  0  0  0
 21 19  1  0  0  0
 19  1  1  0  0  0
  1  2  2  0  0  0
  2  3  1  0  0  0
  3  4  2  0  0  0
  4  5  1  0  0  0
  5  6  2  0  0  0
  6  7  1  0  0  0
  7  8  2  0  0  0
  8  9  1  0  0  0
  9 10  2  0  0  0
 10 11  1  0  0  0
 11 12  2  0  0  0
 11 13  1  0  0  0
 13 14  2  0  0  0
 14 15  1  0  0  0
 15 16  2  0  0  0
 16 17  1  0  0  0
 17 18  2  0  0  0
 29 24  1  0  0  0
  6  1  1  0  0  0
 12  7  1  0  0  0
 18 13  1  0  0  0
 19 20  1  0  0  0
M  END
> <minimizedAffinity>
23.16183

> <CNNscore>
0.5376181602

> <CNNaffinity>
6.0748319626

> <CNN_VS>
3.2659399509

> <CNNaffinity_variance>
0.1841918677

$$$$
[H]c1c([H])c([H])c(-c2c([H])c([H])c([H])c(-c3c([H])c([H])c([H])c([H])c3N([H])S(=O)(=O)c3c([H])c([H])c(OC([H])([H])[H])c([H])c3[H])c2[H])c([H])c1[H]


 31 34  0  0  0  0  0  0  0  0999 V2000
   24.2875    7.6045   54.0271 C   0  0  0  0  0  0  0  0  0  0  0  0
   24.8429    6.4003   53.6472 C   0  0  0  0  0  0  0  0  0  0  0  0
   24.0857    5.3340   53.2166 C   0  0  0  0  0  0  0  0  0  0  0  0
   22.7189    5.4486   53.1531 C   0  0  0  0  0  0  0  0  0  0  0  0
   22.1628    6.6224   53.5214 C   0  0  0  0  0  0  0  0  0  0  0  0
   22.9140    7.7251   53.9641 C   0  0  0  0  0  0  0  0  0  0  0  0
   22.2488    8.9576   54.3247 C   0  0  0  0  0  0  0  0  0  0  0  0
   21.7497    9.1103   55.5921 C   0  0  0  0  0  0  0  0  0  0  0  0
   21.0737   10.2803   55.9698 C   0  0  0  0  0  0  0  0  0  0  0  0
   20.9208   11.2807   55.0326 C   0  0  0  0  0  0  0  0  0  0  0  0
   21.4173   11.1435   53.7499 C   0  0  0  0  0  0  0  0  0  0  0  0
   22.0872    9.9584   53.4098 C   0  0  0  0  0  0  0  0  0  0  0  0
   21.2596   12.1940   52.7591 C   0  0  0  0  0  0  0  0  0  0  0  0
   21.8091   12.0853   51.5043 C   0  0  0  0  0  0  0  0  0  0  0  0
   21.6425   13.0980   50.5872 C   0  0  0  0  0  0  0  0  0  0  0  0
   20.9228   14.2461   50.8987 C   0  0  0  0  0  0  0  0  0  0  0  0
   20.3705   14.3593   52.1548 C   0  0  0  0  0  0  0  0  0  0  0  0
   20.5388   13.3362   53.0815 C   0  0  0  0  0  0  0  0  0  0  0  0
   25.1535    8.6514   54.4608 N   0  0  0  0  0  0  0  0  0  0  0  0
   24.7046    9.5704   54.6553 H   0  0  0  0  0  0  0  0  0  0  0  0
   26.8391    8.5167   54.6635 S   0  0  0  0  0  0  0  0  0  0  0  0
   27.2055    7.0408   54.6160 O   0  0  0  0  0  0  0  0  0  0  0  0
   27.5484    9.2156   53.5162 O   0  0  0  0  0  0  0  0  0  0  0  0
   28.4606   10.3197   58.4897 C   0  0  0  0  0  0  0  0  0  0  0  0
   28.2964   11.1077   57.3706 C   0  0  0  0  0  0  0  0  0  0  0  0
   27.7985   10.5528   56.1965 C   0  0  0  0  0  0  0  0  0  0  0  0
   27.4608    9.2192   56.1217 C   0  0  0  0  0  0  0  0  0  0  0  0
   27.6299    8.4462   57.2451 C   0  0  0  0  0  0  0  0  0  0  0  0
   28.1242    8.9660   58.4341 C   0  0  0  0  0  0  0  0  0  0  0  0
   28.8768   12.2676   59.8312 C   0  0  0  0  0  0  0  0  0  0  0  0
   28.9556   10.8700   59.6578 O   0  0  0  0  0  0  0  0  0  0  0  0
 30 31  1  0  0  0
 31 24  1  0  0  0
 24 25  2  0  0  0
 25 26  1  0  0  0
 26 27  2  0  0  0
 27 28  1  0  0  0
 28 29  2  0  0  0
 27 21  1  0  0  0
 21 22  2  0  0  0
 21 23  2  0  0  0
 21 19  1  0  0  0
 19  1  1  0  0  0
  1  2  2  0  0  0
  2  3  1  0  0  0
  3  4  2  0  0  0
  4  5  1  0  0  0
  5  6  2  0  0  0
  6  7  1  0  0  0
  7  8  2  0  0  0
  8  9  1  0  0  0
  9 10  2  0  0  0
 10 11  1  0  0  0
 11 12  2  0  0  0
 11 13  1  0  0  0
 13 14  2  0  0  0
 14 15  1  0  0  0
 15 16  2  0  0  0
 16 17  1  0  0  0
 17 18  2  0  0  0
 29 24  1  0  0  0
  6  1  1  0  0  0
 12  7  1  0  0  0
 18 13  1  0  0  0
 19 20  1  0  0  0
M  END
> <minimizedAffinity>
20.43980

> <CNNscore>
0.5315072536

> <CNNaffinity>
5.8399038315

> <CNN_VS>
3.1039512157

> <CNNaffinity_variance>
0.2513944209

$$$$
[H]c1c([H])c([H])c(-c2c([H])c([H])c([H])c(-c3c([H])c([H])c([H])c([H])c3N([H])S(=O)(=O)c3c([H])c([H])c(OC([H])([H])[H])c([H])c3[H])c2[H])c([H])c1[H]


 31 34  0  0  0  0  0  0  0  0999 V2000
   23.5207    7.5270   54.6158 C   0  0  0  0  0  0  0  0  0  0  0  0
   22.4430    6.6933   54.4004 C   0  0  0  0  0  0  0  0  0  0  0  0
   22.5366    5.5287   53.6721 C   0  0  0  0  0  0  0  0  0  0  0  0
   23.7415    5.1590   53.1273 C   0  0  0  0  0  0  0  0  0  0  0  0
   24.8044    5.9659   53.3315 C   0  0  0  0  0  0  0  0  0  0  0  0
   24.7345    7.1594   54.0711 C   0  0  0  0  0  0  0  0  0  0  0  0
   25.9209    7.9637   54.2632 C   0  0  0  0  0  0  0  0  0  0  0  0
   26.6551    8.3558   53.1742 C   0  0  0  0  0  0  0  0  0  0  0  0
   27.8271    9.1127   53.3234 C   0  0  0  0  0  0  0  0  0  0  0  0
   28.2277    9.4563   54.5977 C   0  0  0  0  0  0  0  0  0  0  0  0
   27.4998    9.0691   55.7071 C   0  0  0  0  0  0  0  0  0  0  0  0
   26.3335    8.3126   55.5174 C   0  0  0  0  0  0  0  0  0  0  0  0
   27.9170    9.4287   57.0513 C   0  0  0  0  0  0  0  0  0  0  0  0
   28.0160    8.4876   58.0478 C   0  0  0  0  0  0  0  0  0  0  0  0
   28.4138    8.8594   59.3118 C   0  0  0  0  0  0  0  0  0  0  0  0
   28.7233   10.1807   59.6145 C   0  0  0  0  0  0  0  0  0  0  0  0
   28.6255   11.1269   58.6192 C   0  0  0  0  0  0  0  0  0  0  0  0
   28.2235   10.7514   57.3420 C   0  0  0  0  0  0  0  0  0  0  0  0
   23.3259    8.7137   55.3826 N   0  0  0  0  0  0  0  0  0  0  0  0
   24.0875    8.9638   56.0468 H   0  0  0  0  0  0  0  0  0  0  0  0
   21.9568    9.7238   55.3060 S   0  0  0  0  0  0  0  0  0  0  0  0
   20.7354    8.8949   55.6750 O   0  0  0  0  0  0  0  0  0  0  0  0
   22.0914   10.8436   56.3236 O   0  0  0  0  0  0  0  0  0  0  0  0
   21.2669   11.6869   51.2824 C   0  0  0  0  0  0  0  0  0  0  0  0
   21.4892   12.4627   52.4000 C   0  0  0  0  0  0  0  0  0  0  0  0
   21.7008   11.8586   53.6348 C   0  0  0  0  0  0  0  0  0  0  0  0
   21.6940   10.4877   53.7719 C   0  0  0  0  0  0  0  0  0  0  0  0
   21.4711    9.7275   52.6491 C   0  0  0  0  0  0  0  0  0  0  0  0
   21.2561   10.2960   51.4006 C   0  0  0  0  0  0  0  0  0  0  0  0
   20.7349   13.6592   50.0196 C   0  0  0  0  0  0  0  0  0  0  0  0
   21.0563   12.2862   50.0540 O   0  0  0  0  0  0  0  0  0  0  0  0
 30 31  1  0  0  0
 31 24  1  0  0  0
 24 25  2  0  0  0
 25 26  1  0  0  0
 26 27  2  0  0  0
 27 28  1  0  0  0
 28 29  2  0  0  0
 27 21  1  0  0  0
 21 22  2  0  0  0
 21 23  2  0  0  0
 21 19  1  0  0  0
 19  1  1  0  0  0
  1  2  2  0  0  0
  2  3  1  0  0  0
  3  4  2  0  0  0
  4  5  1  0  0  0
  5  6  2  0  0  0
  6  7  1  0  0  0
  7  8  2  0  0  0
  8  9  1  0  0  0
  9 10  2  0  0  0
 10 11  1  0  0  0
 11 12  2  0  0  0
 11 13  1  0  0  0
 13 14  2  0  0  0
 14 15  1  0  0  0
 15 16  2  0  0  0
 16 17  1  0  0  0
 17 18  2  0  0  0
 29 24  1  0  0  0
  6  1  1  0  0  0
 12  7  1  0  0  0
 18 13  1  0  0  0
 19 20  1  0  0  0
M  END
> <minimizedAffinity>
15.89078

> <CNNscore>
0.5312852859

> <CNNaffinity>
6.0949544907

> <CNN_VS>
3.2381596565

> <CNNaffinity_variance>
0.2601073384

$$$$
[H]c1c([H])c([H])c(-c2c([H])c([H])c([H])c(-c3c([H])c([H])c([H])c([H])c3N([H])S(=O)(=O)c3c([H])c([H])c(OC([H])([H])[H])c([H])c3[H])c2[H])c([H])c1[H]


 31 34  0  0  0  0  0  0  0  0999 V2000
   21.8656   11.0238   53.1903 C   0  0  0  0  0  0  0  0  0  0  0  0
   21.0578   12.0573   52.7634 C   0  0  0  0  0  0  0  0  0  0  0  0
   20.6299   12.1783   51.4603 C   0  0  0  0  0  0  0  0  0  0  0  0
   21.0087   11.2444   50.5277 C   0  0  0  0  0  0  0  0  0  0  0  0
   21.7987   10.2274   50.9329 C   0  0  0  0  0  0  0  0  0  0  0  0
   22.2484   10.0818   52.2568 C   0  0  0  0  0  0  0  0  0  0  0  0
   23.0782    8.9546   52.6208 C   0  0  0  0  0  0  0  0  0  0  0  0
   22.6816    7.6868   52.2834 C   0  0  0  0  0  0  0  0  0  0  0  0
   23.4462    6.5670   52.6441 C   0  0  0  0  0  0  0  0  0  0  0  0
   24.6135    6.7702   53.3502 C   0  0  0  0  0  0  0  0  0  0  0  0
   25.0284    8.0417   53.6991 C   0  0  0  0  0  0  0  0  0  0  0  0
   24.2365    9.1364   53.3208 C   0  0  0  0  0  0  0  0  0  0  0  0
   26.2572    8.2613   54.4422 C   0  0  0  0  0  0  0  0  0  0  0  0
   27.4781    7.8824   53.9381 C   0  0  0  0  0  0  0  0  0  0  0  0
   28.6248    8.1036   54.6664 C   0  0  0  0  0  0  0  0  0  0  0  0
   28.5829    8.7092   55.9173 C   0  0  0  0  0  0  0  0  0  0  0  0
   27.3618    9.0905   56.4262 C   0  0  0  0  0  0  0  0  0  0  0  0
   26.2031    8.8670   55.6905 C   0  0  0  0  0  0  0  0  0  0  0  0
   22.2591   10.9835   54.5606 N   0  0  0  0  0  0  0  0  0  0  0  0
   22.9185   11.7260   54.8731 H   0  0  0  0  0  0  0  0  0  0  0  0
   21.7531    9.8215   55.6982 S   0  0  0  0  0  0  0  0  0  0  0  0
   22.8906    9.5962   56.6831 O   0  0  0  0  0  0  0  0  0  0  0  0
   20.5580   10.3516   56.4718 O   0  0  0  0  0  0  0  0  0  0  0  0
   20.4483    5.8660   53.9176 C   0  0  0  0  0  0  0  0  0  0  0  0
   21.4285    5.8971   54.8864 C   0  0  0  0  0  0  0  0  0  0  0  0
   21.8282    7.1123   55.4322 C   0  0  0  0  0  0  0  0  0  0  0  0
   21.2628    8.3009   55.0248 C   0  0  0  0  0  0  0  0  0  0  0  0
   20.2871    8.2541   54.0584 C   0  0  0  0  0  0  0  0  0  0  0  0
   19.8632    7.0596   53.4912 C   0  0  0  0  0  0  0  0  0  0  0  0
   18.8730    4.0541   53.8631 C   0  0  0  0  0  0  0  0  0  0  0  0
   20.0499    4.6585   53.3739 O   0  0  0  0  0  0  0  0  0  0  0  0
 30 31  1  0  0  0
 31 24  1  0  0  0
 24 25  2  0  0  0
 25 26  1  0  0  0
 26 27  2  0  0  0
 27 28  1  0  0  0
 28 29  2  0  0  0
 27 21  1  0  0  0
 21 22  2  0  0  0
 21 23  2  0  0  0
 21 19  1  0  0  0
 19  1  1  0  0  0
  1  2  2  0  0  0
  2  3  1  0  0  0
  3  4  2  0  0  0
  4  5  1  0  0  0
  5  6  2  0  0  0
  6  7  1  0  0  0
  7  8  2  0  0  0
  8  9  1  0  0  0
  9 10  2  0  0  0
 10 11  1  0  0  0
 11 12  2  0  0  0
 11 13  1  0  0  0
 13 14  2  0  0  0
 14 15  1  0  0  0
 15 16  2  0  0  0
 16 17  1  0  0  0
 17 18  2  0  0  0
 29 24  1  0  0  0
  6  1  1  0  0  0
 12  7  1  0  0  0
 18 13  1  0  0  0
 19 20  1  0  0  0
M  END
> <minimizedAffinity>
22.88544

> <CNNscore>
0.5271757245

> <CNNaffinity>
6.5132474899

> <CNN_VS>
3.4336259365

> <CNNaffinity_variance>
0.4678236842

$$$$
[H]c1c([H])c([H])c(-c2c([H])c([H])c([H])c(-c3c([H])c([H])c([H])c([H])c3N([H])S(=O)(=O)c3c([H])c([H])c(OC([H])([H])[H])c([H])c3[H])c2[H])c([H])c1[H]


 31 34  0  0  0  0  0  0  0  0999 V2000
   21.8876    7.8729   52.1342 C   0  0  0  0  0  0  0  0  0  0  0  0
   21.1282    7.8174   50.9840 C   0  0  0  0  0  0  0  0  0  0  0  0
   20.4234    8.8986   50.5044 C   0  0  0  0  0  0  0  0  0  0  0  0
   20.4619   10.0931   51.1803 C   0  0  0  0  0  0  0  0  0  0  0  0
   21.2023   10.1609   52.3072 C   0  0  0  0  0  0  0  0  0  0  0  0
   21.9305    9.0717   52.8169 C   0  0  0  0  0  0  0  0  0  0  0  0
   22.7167    9.2252   54.0210 C   0  0  0  0  0  0  0  0  0  0  0  0
   22.1133    9.6644   55.1706 C   0  0  0  0  0  0  0  0  0  0  0  0
   22.8491    9.8523   56.3504 C   0  0  0  0  0  0  0  0  0  0  0  0
   24.2018    9.5837   56.3290 C   0  0  0  0  0  0  0  0  0  0  0  0
   24.8268    9.1405   55.1786 C   0  0  0  0  0  0  0  0  0  0  0  0
   24.0573    8.9651   54.0185 C   0  0  0  0  0  0  0  0  0  0  0  0
   26.2510    8.8557   55.1507 C   0  0  0  0  0  0  0  0  0  0  0  0
   27.0762    9.2209   56.1871 C   0  0  0  0  0  0  0  0  0  0  0  0
   28.4219    8.9375   56.1314 C   0  0  0  0  0  0  0  0  0  0  0  0
   28.9793    8.2818   55.0393 C   0  0  0  0  0  0  0  0  0  0  0  0
   28.1563    7.9141   53.9987 C   0  0  0  0  0  0  0  0  0  0  0  0
   26.7966    8.2004   54.0549 C   0  0  0  0  0  0  0  0  0  0  0  0
   22.5819    6.6997   52.5535 N   0  0  0  0  0  0  0  0  0  0  0  0
   23.4604    6.4760   52.0417 H   0  0  0  0  0  0  0  0  0  0  0  0
   22.0801    5.6474   53.7951 S   0  0  0  0  0  0  0  0  0  0  0  0
   22.8635    4.3500   53.6619 O   0  0  0  0  0  0  0  0  0  0  0  0
   22.4080    6.2595   55.1462 O   0  0  0  0  0  0  0  0  0  0  0  0
   17.6370    4.7670   53.8514 C   0  0  0  0  0  0  0  0  0  0  0  0
   18.5465    3.7336   53.9232 C   0  0  0  0  0  0  0  0  0  0  0  0
   19.9104    4.0054   53.9058 C   0  0  0  0  0  0  0  0  0  0  0  0
   20.3822    5.2968   53.8175 C   0  0  0  0  0  0  0  0  0  0  0  0
   19.4638    6.3164   53.7466 C   0  0  0  0  0  0  0  0  0  0  0  0
   18.0951    6.0826   53.7614 C   0  0  0  0  0  0  0  0  0  0  0  0
   15.8503    3.1816   53.6022 C   0  0  0  0  0  0  0  0  0  0  0  0
   16.2806    4.4983   53.8686 O   0  0  0  0  0  0  0  0  0  0  0  0
 30 31  1  0  0  0
 31 24  1  0  0  0
 24 25  2  0  0  0
 25 26  1  0  0  0
 26 27  2  0  0  0
 27 28  1  0  0  0
 28 29  2  0  0  0
 27 21  1  0  0  0
 21 22  2  0  0  0
 21 23  2  0  0  0
 21 19  1  0  0  0
 19  1  1  0  0  0
  1  2  2  0  0  0
  2  3  1  0  0  0
  3  4  2  0  0  0
  4  5  1  0  0  0
  5  6  2  0  0  0
  6  7  1  0  0  0
  7  8  2  0  0  0
  8  9  1  0  0  0
  9 10  2  0  0  0
 10 11  1  0  0  0
 11 12  2  0  0  0
 11 13  1  0  0  0
 13 14  2  0  0  0
 14 15  1  0  0  0
 15 16  2  0  0  0
 16 17  1  0  0  0
 17 18  2  0  0  0
 29 24  1  0  0  0
  6  1  1  0  0  0
 12  7  1  0  0  0
 18 13  1  0  0  0
 19 20  1  0  0  0
M  END
> <minimizedAffinity>
25.50192

> <CNNscore>
0.5184304118

> <CNNaffinity>
6.4926314354

> <CNN_VS>
3.3659775257

> <CNNaffinity_variance>
0.5215661526

$$$$
[H]C([H])=C([H])C(=O)N([H])[C@@]1([H])C([H])([H])N(c2nc(N([H])c3c([H])c([H])c(C4([H])C([H])([H])C([H])([H])N(C5([H])C([H])([H])C([H])([H])C([H])([H])C5([H])[H])C([H])([H])C4([H])[H])c([H])c3[H])c(C(=O)N([H])[H])nc2[H])C([H])([H])C([H])([H])C1([H])[H]


 42 46  0  0  0  0  0  0  0  0999 V2000
   26.9389    8.2052   54.4734 C   0  0  0  0  0  0  0  0  0  0  0  0
   25.8926    8.2241   53.5833 N   0  0  0  0  0  0  0  0  0  0  0  0
   24.6533    8.5321   53.9587 C   0  0  0  0  0  0  0  0  0  0  0  0
   24.3762    8.8450   55.2687 C   0  0  0  0  0  0  0  0  0  0  0  0
   25.3797    8.8330   56.1515 N   0  0  0  0  0  0  0  0  0  0  0  0
   26.6648    8.5190   55.7906 C   0  0  0  0  0  0  0  0  0  0  0  0
   23.0582    9.1534   55.6878 N   0  0  0  0  0  0  0  0  0  0  0  0
   22.6257   10.5465   55.8723 C   0  0  0  0  0  0  0  0  0  0  0  0
   21.5870   10.7641   54.7633 C   0  0  0  0  0  0  0  0  0  0  0  0
   20.4621    9.7864   54.8653 C   0  0  0  0  0  0  0  0  0  0  0  0
   20.8823    8.3557   55.0275 C   0  0  0  0  0  0  0  0  0  0  0  0
   22.0395    8.1726   55.9892 C   0  0  0  0  0  0  0  0  0  0  0  0
   21.0811    7.6815   53.7698 N   0  0  0  0  0  0  0  0  0  0  0  0
   21.3026    8.4141   52.5714 C   0  0  0  0  0  0  0  0  0  0  0  0
   21.3225    9.6709   52.6301 O   0  0  0  0  0  0  0  0  0  0  0  0
   21.0634    6.6227   53.7317 H   0  0  0  0  0  0  0  0  0  0  0  0
   21.5067    7.7776   51.2885 C   0  0  0  0  0  0  0  0  0  0  0  0
   20.5771    7.8165   50.3554 C   0  0  0  0  0  0  0  0  0  0  0  0
   29.2473    8.9441   54.1043 N   0  0  0  0  0  0  0  0  0  0  0  0
   28.2666    7.8813   53.9788 C   0  0  0  0  0  0  0  0  0  0  0  0
   28.7007    6.8570   53.4704 O   0  0  0  0  0  0  0  0  0  0  0  0
   28.9929    9.8719   53.7315 H   0  0  0  0  0  0  0  0  0  0  0  0
   30.1705    8.8041   54.5435 H   0  0  0  0  0  0  0  0  0  0  0  0
   27.6695    8.4604   56.7618 N   0  0  0  0  0  0  0  0  0  0  0  0
   28.2292    7.6014   56.9214 H   0  0  0  0  0  0  0  0  0  0  0  0
   28.0322    9.5480   57.6372 C   0  0  0  0  0  0  0  0  0  0  0  0
   28.6281    9.3903   58.8555 C   0  0  0  0  0  0  0  0  0  0  0  0
   28.9835   10.4984   59.6313 C   0  0  0  0  0  0  0  0  0  0  0  0
   28.7436   11.7799   59.1925 C   0  0  0  0  0  0  0  0  0  0  0  0
   28.1414   11.9332   57.9638 C   0  0  0  0  0  0  0  0  0  0  0  0
   27.7896   10.8585   57.1957 C   0  0  0  0  0  0  0  0  0  0  0  0
   29.1313   12.9655   60.0304 C   0  0  0  0  0  0  0  0  0  0  0  0
   27.9912   13.4066   60.9004 C   0  0  0  0  0  0  0  0  0  0  0  0
   28.3986   13.7356   62.3055 C   0  0  0  0  0  0  0  0  0  0  0  0
   29.6678   14.3835   62.3940 N   0  0  0  0  0  0  0  0  0  0  0  0
   30.6865   13.4782   61.9700 C   0  0  0  0  0  0  0  0  0  0  0  0
   30.3961   12.6876   60.7596 C   0  0  0  0  0  0  0  0  0  0  0  0
   29.7515   15.6891   61.8296 C   0  0  0  0  0  0  0  0  0  0  0  0
   28.6853   15.8502   60.7774 C   0  0  0  0  0  0  0  0  0  0  0  0
   29.3347   16.3049   59.5060 C   0  0  0  0  0  0  0  0  0  0  0  0
   30.7507   16.6485   59.8560 C   0  0  0  0  0  0  0  0  0  0  0  0
   31.0736   15.8629   61.1196 C   0  0  0  0  0  0  0  0  0  0  0  0
 19 20  1  0  0  0
 20 21  2  0  0  0
 20  1  1  0  0  0
  1  2  2  0  0  0
  2  3  1  0  0  0
  3  4  2  0  0  0
  4  5  1  0  0  0
  5  6  2  0  0  0
  6 24  1  0  0  0
 24 26  1  0  0  0
 26 27  2  0  0  0
 27 28  1  0  0  0
 28 29  2  0  0  0
 29 30  1  0  0  0
 30 31  2  0  0  0
 29 32  1  0  0  0
 32 33  1  0  0  0
 33 34  1  0  0  0
 34 35  1  0  0  0
 35 36  1  0  0  0
 36 37  1  0  0  0
 35 38  1  0  0  0
 38 39  1  0  0  0
 39 40  1  0  0  0
 40 41  1  0  0  0
 41 42  1  0  0  0
  4  7  1  0  0  0
  7  8  1  0  0  0
  8  9  1  0  0  0
  9 10  1  0  0  0
 10 11  1  0  0  0
 11 12  1  0  0  0
 11 13  1  0  0  0
 13 14  1  0  0  0
 14 15  2  0  0  0
 14 17  1  0  0  0
 17 18  2  0  0  0
  6  1  1  0  0  0
 31 26  1  0  0  0
 37 32  1  0  0  0
 42 38  1  0  0  0
 12  7  1  0  0  0
 19 22  1  0  0  0
 19 23  1  0  0  0
 24 25  1  0  0  0
 13 16  1  0  0  0
M  END
> <minimizedAffinity>
13.13754

> <CNNscore>
0.7116017342

> <CNNaffinity>
7.0072312355

> <CNN_VS>
4.9863576889

> <CNNaffinity_variance>
0.6479111910

$$$$
[H]C([H])=C([H])C(=O)N([H])[C@@]1([H])C([H])([H])N(c2nc(N([H])c3c([H])c([H])c(C4([H])C([H])([H])C([H])([H])N(C5([H])C([H])([H])C([H])([H])C([H])([H])C5([H])[H])C([H])([H])C4([H])[H])c([H])c3[H])c(C(=O)N([H])[H])nc2[H])C([H])([H])C([H])([H])C1([H])[H]


 42 46  0  0  0  0  0  0  0  0999 V2000
   27.6333    8.5392   54.1020 C   0  0  0  0  0  0  0  0  0  0  0  0
   27.3246    8.5407   52.7632 N   0  0  0  0  0  0  0  0  0  0  0  0
   26.1370    8.1423   52.3133 C   0  0  0  0  0  0  0  0  0  0  0  0
   25.1670    7.7093   53.1864 C   0  0  0  0  0  0  0  0  0  0  0  0
   25.4461    7.7000   54.4935 N   0  0  0  0  0  0  0  0  0  0  0  0
   26.6614    8.1049   54.9827 C   0  0  0  0  0  0  0  0  0  0  0  0
   23.9059    7.2613   52.7208 N   0  0  0  0  0  0  0  0  0  0  0  0
   23.4733    5.8699   52.9182 C   0  0  0  0  0  0  0  0  0  0  0  0
   22.3004    5.9806   53.9022 C   0  0  0  0  0  0  0  0  0  0  0  0
   21.2159    6.8577   53.3671 C   0  0  0  0  0  0  0  0  0  0  0  0
   21.6803    8.1786   52.8293 C   0  0  0  0  0  0  0  0  0  0  0  0
   22.9517    8.0825   52.0097 C   0  0  0  0  0  0  0  0  0  0  0  0
   21.7336    9.2086   53.8355 N   0  0  0  0  0  0  0  0  0  0  0  0
   21.9402    8.8866   55.2050 C   0  0  0  0  0  0  0  0  0  0  0  0
   22.0772    7.6772   55.5241 O   0  0  0  0  0  0  0  0  0  0  0  0
   21.6180   10.2241   53.5557 H   0  0  0  0  0  0  0  0  0  0  0  0
   22.0003    9.8886   56.2466 C   0  0  0  0  0  0  0  0  0  0  0  0
   22.5683   11.0582   56.0320 C   0  0  0  0  0  0  0  0  0  0  0  0
   29.2678   10.3665   54.1046 N   0  0  0  0  0  0  0  0  0  0  0  0
   28.9445    9.0118   54.5136 C   0  0  0  0  0  0  0  0  0  0  0  0
   29.8288    8.4568   55.1509 O   0  0  0  0  0  0  0  0  0  0  0  0
   29.1496   10.6028   53.1072 H   0  0  0  0  0  0  0  0  0  0  0  0
   29.6056   11.0843   54.7645 H   0  0  0  0  0  0  0  0  0  0  0  0
   26.9275    8.0194   56.3531 N   0  0  0  0  0  0  0  0  0  0  0  0
   26.7423    7.1543   56.8952 H   0  0  0  0  0  0  0  0  0  0  0  0
   27.4655    9.0907   57.1553 C   0  0  0  0  0  0  0  0  0  0  0  0
   28.2124    8.9079   58.2835 C   0  0  0  0  0  0  0  0  0  0  0  0
   28.7307    9.9995   58.9878 C   0  0  0  0  0  0  0  0  0  0  0  0
   28.5040   11.2894   58.5673 C   0  0  0  0  0  0  0  0  0  0  0  0
   27.7491   11.4681   57.4297 C   0  0  0  0  0  0  0  0  0  0  0  0
   27.2372   10.4098   56.7321 C   0  0  0  0  0  0  0  0  0  0  0  0
   29.0669   12.4570   59.3276 C   0  0  0  0  0  0  0  0  0  0  0  0
   27.9994   13.1449   60.1267 C   0  0  0  0  0  0  0  0  0  0  0  0
   28.4293   13.5108   61.5159 C   0  0  0  0  0  0  0  0  0  0  0  0
   29.7864   13.9469   61.5963 N   0  0  0  0  0  0  0  0  0  0  0  0
   30.6488   12.8569   61.2720 C   0  0  0  0  0  0  0  0  0  0  0  0
   30.2542   12.0331   60.1144 C   0  0  0  0  0  0  0  0  0  0  0  0
   30.0958   15.1735   60.9405 C   0  0  0  0  0  0  0  0  0  0  0  0
   31.5900   15.3034   60.7984 C   0  0  0  0  0  0  0  0  0  0  0  0
   32.0115   16.6197   61.3768 C   0  0  0  0  0  0  0  0  0  0  0  0
   30.7510   17.3837   61.6474 C   0  0  0  0  0  0  0  0  0  0  0  0
   29.6503   16.3414   61.7890 C   0  0  0  0  0  0  0  0  0  0  0  0
 19 20  1  0  0  0
 20 21  2  0  0  0
 20  1  1  0  0  0
  1  2  2  0  0  0
  2  3  1  0  0  0
  3  4  2  0  0  0
  4  5  1  0  0  0
  5  6  2  0  0  0
  6 24  1  0  0  0
 24 26  1  0  0  0
 26 27  2  0  0  0
 27 28  1  0  0  0
 28 29  2  0  0  0
 29 30  1  0  0  0
 30 31  2  0  0  0
 29 32  1  0  0  0
 32 33  1  0  0  0
 33 34  1  0  0  0
 34 35  1  0  0  0
 35 36  1  0  0  0
 36 37  1  0  0  0
 35 38  1  0  0  0
 38 39  1  0  0  0
 39 40  1  0  0  0
 40 41  1  0  0  0
 41 42  1  0  0  0
  4  7  1  0  0  0
  7  8  1  0  0  0
  8  9  1  0  0  0
  9 10  1  0  0  0
 10 11  1  0  0  0
 11 12  1  0  0  0
 11 13  1  0  0  0
 13 14  1  0  0  0
 14 15  2  0  0  0
 14 17  1  0  0  0
 17 18  2  0  0  0
  6  1  1  0  0  0
 31 26  1  0  0  0
 37 32  1  0  0  0
 42 38  1  0  0  0
 12  7  1  0  0  0
 19 22  1  0  0  0
 19 23  1  0  0  0
 24 25  1  0  0  0
 13 16  1  0  0  0
M  END
> <minimizedAffinity>
15.77902

> <CNNscore>
0.7044388056

> <CNNaffinity>
6.9964852333

> <CNN_VS>
4.9285955429

> <CNNaffinity_variance>
0.6792674661

$$$$
[H]C([H])=C([H])C(=O)N([H])[C@@]1([H])C([H])([H])N(c2nc(N([H])c3c([H])c([H])c(C4([H])C([H])([H])C([H])([H])N(C5([H])C([H])([H])C([H])([H])C([H])([H])C5([H])[H])C([H])([H])C4([H])[H])c([H])c3[H])c(C(=O)N([H])[H])nc2[H])C([H])([H])C([H])([H])C1([H])[H]


 42 46  0  0  0  0  0  0  0  0999 V2000
   27.2551    8.5106   54.3057 C   0  0  0  0  0  0  0  0  0  0  0  0
   26.6374    8.4788   53.0789 N   0  0  0  0  0  0  0  0  0  0  0  0
   25.3613    8.1265   52.9412 C   0  0  0  0  0  0  0  0  0  0  0  0
   24.6094    7.7770   54.0382 C   0  0  0  0  0  0  0  0  0  0  0  0
   25.1906    7.8014   55.2416 N   0  0  0  0  0  0  0  0  0  0  0  0
   26.5032    8.1602   55.4105 C   0  0  0  0  0  0  0  0  0  0  0  0
   23.2562    7.3784   53.9051 N   0  0  0  0  0  0  0  0  0  0  0  0
   22.5958    6.5722   54.9423 C   0  0  0  0  0  0  0  0  0  0  0  0
   21.5412    7.5178   55.5339 C   0  0  0  0  0  0  0  0  0  0  0  0
   20.5952    8.0087   54.4870 C   0  0  0  0  0  0  0  0  0  0  0  0
   21.2479    8.5339   53.2429 C   0  0  0  0  0  0  0  0  0  0  0  0
   22.4143    7.6885   52.7712 C   0  0  0  0  0  0  0  0  0  0  0  0
   21.5635    9.9375   53.3224 N   0  0  0  0  0  0  0  0  0  0  0  0
   21.4225   10.7866   52.1906 C   0  0  0  0  0  0  0  0  0  0  0  0
   21.0136   10.2862   51.1108 O   0  0  0  0  0  0  0  0  0  0  0  0
   21.9060   10.3489   54.2369 H   0  0  0  0  0  0  0  0  0  0  0  0
   21.7278   12.2001   52.2267 C   0  0  0  0  0  0  0  0  0  0  0  0
   21.6193   12.9463   51.1461 C   0  0  0  0  0  0  0  0  0  0  0  0
   29.5960    7.8672   54.6480 N   0  0  0  0  0  0  0  0  0  0  0  0
   28.6452    8.9291   54.3733 C   0  0  0  0  0  0  0  0  0  0  0  0
   29.1536   10.0333   54.2374 O   0  0  0  0  0  0  0  0  0  0  0  0
   29.4115    7.2635   55.4641 H   0  0  0  0  0  0  0  0  0  0  0  0
   30.4323    7.7012   54.0667 H   0  0  0  0  0  0  0  0  0  0  0  0
   27.0836    8.1115   56.6820 N   0  0  0  0  0  0  0  0  0  0  0  0
   27.1263    7.2331   57.2326 H   0  0  0  0  0  0  0  0  0  0  0  0
   27.6664    9.2409   57.3644 C   0  0  0  0  0  0  0  0  0  0  0  0
   27.5353   10.5378   56.9583 C   0  0  0  0  0  0  0  0  0  0  0  0
   28.1005   11.5832   57.6959 C   0  0  0  0  0  0  0  0  0  0  0  0
   28.8057   11.3380   58.8512 C   0  0  0  0  0  0  0  0  0  0  0  0
   28.9359   10.0282   59.2555 C   0  0  0  0  0  0  0  0  0  0  0  0
   28.3881    8.9976   58.5440 C   0  0  0  0  0  0  0  0  0  0  0  0
   29.4073   12.4668   59.6399 C   0  0  0  0  0  0  0  0  0  0  0  0
   28.3434   13.3896   60.1575 C   0  0  0  0  0  0  0  0  0  0  0  0
   28.5533   13.8116   61.5810 C   0  0  0  0  0  0  0  0  0  0  0  0
   29.9242   14.0301   61.9145 N   0  0  0  0  0  0  0  0  0  0  0  0
   30.6273   12.7900   61.8423 C   0  0  0  0  0  0  0  0  0  0  0  0
   30.3258   11.9344   60.6798 C   0  0  0  0  0  0  0  0  0  0  0  0
   30.5662   15.1234   61.2644 C   0  0  0  0  0  0  0  0  0  0  0  0
   31.9769   15.2539   61.7772 C   0  0  0  0  0  0  0  0  0  0  0  0
   32.1849   16.6609   62.2483 C   0  0  0  0  0  0  0  0  0  0  0  0
   30.9841   17.4371   61.7994 C   0  0  0  0  0  0  0  0  0  0  0  0
   29.8691   16.4168   61.6156 C   0  0  0  0  0  0  0  0  0  0  0  0
 19 20  1  0  0  0
 20 21  2  0  0  0
 20  1  1  0  0  0
  1  2  2  0  0  0
  2  3  1  0  0  0
  3  4  2  0  0  0
  4  5  1  0  0  0
  5  6  2  0  0  0
  6 24  1  0  0  0
 24 26  1  0  0  0
 26 27  2  0  0  0
 27 28  1  0  0  0
 28 29  2  0  0  0
 29 30  1  0  0  0
 30 31  2  0  0  0
 29 32  1  0  0  0
 32 33  1  0  0  0
 33 34  1  0  0  0
 34 35  1  0  0  0
 35 36  1  0  0  0
 36 37  1  0  0  0
 35 38  1  0  0  0
 38 39  1  0  0  0
 39 40  1  0  0  0
 40 41  1  0  0  0
 41 42  1  0  0  0
  4  7  1  0  0  0
  7  8  1  0  0  0
  8  9  1  0  0  0
  9 10  1  0  0  0
 10 11  1  0  0  0
 11 12  1  0  0  0
 11 13  1  0  0  0
 13 14  1  0  0  0
 14 15  2  0  0  0
 14 17  1  0  0  0
 17 18  2  0  0  0
  6  1  1  0  0  0
 31 26  1  0  0  0
 37 32  1  0  0  0
 42 38  1  0  0  0
 12  7  1  0  0  0
 19 22  1  0  0  0
 19 23  1  0  0  0
 24 25  1  0  0  0
 13 16  1  0  0  0
M  END
> <minimizedAffinity>
8.51176

> <CNNscore>
0.7010087967

> <CNNaffinity>
7.0331373215

> <CNN_VS>
4.9302911758

> <CNNaffinity_variance>
0.5843377709

$$$$
[H]C([H])=C([H])C(=O)N([H])[C@@]1([H])C([H])([H])N(c2nc(N([H])c3c([H])c([H])c(C4([H])C([H])([H])C([H])([H])N(C5([H])C([H])([H])C([H])([H])C([H])([H])C5([H])[H])C([H])([H])C4([H])[H])c([H])c3[H])c(C(=O)N([H])[H])nc2[H])C([H])([H])C([H])([H])C1([H])[H]


 42 46  0  0  0  0  0  0  0  0999 V2000
   26.9527    8.4773   54.3994 C   0  0  0  0  0  0  0  0  0  0  0  0
   26.2325    8.6517   53.2425 N   0  0  0  0  0  0  0  0  0  0  0  0
   24.9168    8.8527   53.2548 C   0  0  0  0  0  0  0  0  0  0  0  0
   24.2258    8.8919   54.4430 C   0  0  0  0  0  0  0  0  0  0  0  0
   24.9071    8.7248   55.5808 N   0  0  0  0  0  0  0  0  0  0  0  0
   26.2623    8.5160   55.5954 C   0  0  0  0  0  0  0  0  0  0  0  0
   22.8221    9.0828   54.4710 N   0  0  0  0  0  0  0  0  0  0  0  0
   22.1958   10.2201   53.7809 C   0  0  0  0  0  0  0  0  0  0  0  0
   21.3928    9.5704   52.6454 C   0  0  0  0  0  0  0  0  0  0  0  0
   20.3977    8.5872   53.1696 C   0  0  0  0  0  0  0  0  0  0  0  0
   20.9442    7.6046   54.1624 C   0  0  0  0  0  0  0  0  0  0  0  0
   21.8888    8.2283   55.1705 C   0  0  0  0  0  0  0  0  0  0  0  0
   21.4809    6.4191   53.5438 N   0  0  0  0  0  0  0  0  0  0  0  0
   22.5526    5.7006   54.1414 C   0  0  0  0  0  0  0  0  0  0  0  0
   23.0266    6.1219   55.2283 O   0  0  0  0  0  0  0  0  0  0  0  0
   21.0736    6.0724   52.6290 H   0  0  0  0  0  0  0  0  0  0  0  0
   23.1208    4.5067   53.5547 C   0  0  0  0  0  0  0  0  0  0  0  0
   24.1513    4.5763   52.7363 C   0  0  0  0  0  0  0  0  0  0  0  0
   28.8110    6.9412   53.9544 N   0  0  0  0  0  0  0  0  0  0  0  0
   28.3901    8.2865   54.3013 C   0  0  0  0  0  0  0  0  0  0  0  0
   29.3123    9.0734   54.4631 O   0  0  0  0  0  0  0  0  0  0  0  0
   28.4304    6.1644   54.5168 H   0  0  0  0  0  0  0  0  0  0  0  0
   29.4648    6.7417   53.1814 H   0  0  0  0  0  0  0  0  0  0  0  0
   26.9214    8.2857   56.8072 N   0  0  0  0  0  0  0  0  0  0  0  0
   26.9583    7.3441   57.2417 H   0  0  0  0  0  0  0  0  0  0  0  0
   27.6001    9.2970   57.5800 C   0  0  0  0  0  0  0  0  0  0  0  0
   28.3010    9.0501   58.7254 C   0  0  0  0  0  0  0  0  0  0  0  0
   28.9642   10.0807   59.3993 C   0  0  0  0  0  0  0  0  0  0  0  0
   28.9307   11.3736   58.9306 C   0  0  0  0  0  0  0  0  0  0  0  0
   28.2215   11.6172   57.7758 C   0  0  0  0  0  0  0  0  0  0  0  0
   27.5693   10.6188   57.1076 C   0  0  0  0  0  0  0  0  0  0  0  0
   29.6484   12.4750   59.6585 C   0  0  0  0  0  0  0  0  0  0  0  0
   28.6890   13.5353   60.1129 C   0  0  0  0  0  0  0  0  0  0  0  0
   28.9395   14.0141   61.5117 C   0  0  0  0  0  0  0  0  0  0  0  0
   30.3251   14.1029   61.8442 N   0  0  0  0  0  0  0  0  0  0  0  0
   30.8905   12.7924   61.8494 C   0  0  0  0  0  0  0  0  0  0  0  0
   30.5015   11.9081   60.7353 C   0  0  0  0  0  0  0  0  0  0  0  0
   31.0830   15.0813   61.1380 C   0  0  0  0  0  0  0  0  0  0  0  0
   31.9333   15.8557   62.1112 C   0  0  0  0  0  0  0  0  0  0  0  0
   31.6680   17.3176   61.9183 C   0  0  0  0  0  0  0  0  0  0  0  0
   30.8433   17.4350   60.6725 C   0  0  0  0  0  0  0  0  0  0  0  0
   30.1580   16.0872   60.4938 C   0  0  0  0  0  0  0  0  0  0  0  0
 19 20  1  0  0  0
 20 21  2  0  0  0
 20  1  1  0  0  0
  1  2  2  0  0  0
  2  3  1  0  0  0
  3  4  2  0  0  0
  4  5  1  0  0  0
  5  6  2  0  0  0
  6 24  1  0  0  0
 24 26  1  0  0  0
 26 27  2  0  0  0
 27 28  1  0  0  0
 28 29  2  0  0  0
 29 30  1  0  0  0
 30 31  2  0  0  0
 29 32  1  0  0  0
 32 33  1  0  0  0
 33 34  1  0  0  0
 34 35  1  0  0  0
 35 36  1  0  0  0
 36 37  1  0  0  0
 35 38  1  0  0  0
 38 39  1  0  0  0
 39 40  1  0  0  0
 40 41  1  0  0  0
 41 42  1  0  0  0
  4  7  1  0  0  0
  7  8  1  0  0  0
  8  9  1  0  0  0
  9 10  1  0  0  0
 10 11  1  0  0  0
 11 12  1  0  0  0
 11 13  1  0  0  0
 13 14  1  0  0  0
 14 15  2  0  0  0
 14 17  1  0  0  0
 17 18  2  0  0  0
  6  1  1  0  0  0
 31 26  1  0  0  0
 37 32  1  0  0  0
 42 38  1  0  0  0
 12  7  1  0  0  0
 19 22  1  0  0  0
 19 23  1  0  0  0
 24 25  1  0  0  0
 13 16  1  0  0  0
M  END
> <minimizedAffinity>
13.25274

> <CNNscore>
0.6749042273

> <CNNaffinity>
7.1587691307

> <CNN_VS>
4.8314833641

> <CNNaffinity_variance>
0.6484953761

$$$$
[H]C([H])=C([H])C(=O)N([H])[C@@]1([H])C([H])([H])N(c2nc(N([H])c3c([H])c([H])c(C4([H])C([H])([H])C([H])([H])N(C5([H])C([H])([H])C([H])([H])C([H])([H])C5([H])[H])C([H])([H])C4([H])[H])c([H])c3[H])c(C(=O)N([H])[H])nc2[H])C([H])([H])C([H])([H])C1([H])[H]


 42 46  0  0  0  0  0  0  0  0999 V2000
   27.2959    8.4433   54.9631 C   0  0  0  0  0  0  0  0  0  0  0  0
   26.3831    8.3756   53.9385 N   0  0  0  0  0  0  0  0  0  0  0  0
   25.1095    8.7246   54.1050 C   0  0  0  0  0  0  0  0  0  0  0  0
   24.6596    9.1698   55.3257 C   0  0  0  0  0  0  0  0  0  0  0  0
   25.5311    9.2438   56.3364 N   0  0  0  0  0  0  0  0  0  0  0  0
   26.8480    8.8901   56.1913 C   0  0  0  0  0  0  0  0  0  0  0  0
   23.3020    9.5239   55.5242 N   0  0  0  0  0  0  0  0  0  0  0  0
   22.8205   10.8824   55.2334 C   0  0  0  0  0  0  0  0  0  0  0  0
   21.8810   10.6958   54.0339 C   0  0  0  0  0  0  0  0  0  0  0  0
   20.7759    9.7401   54.3458 C   0  0  0  0  0  0  0  0  0  0  0  0
   21.2147    8.4517   54.9759 C   0  0  0  0  0  0  0  0  0  0  0  0
   22.2847    8.6320   56.0343 C   0  0  0  0  0  0  0  0  0  0  0  0
   21.5427    7.4353   54.0087 N   0  0  0  0  0  0  0  0  0  0  0  0
   22.3890    6.3444   54.3489 C   0  0  0  0  0  0  0  0  0  0  0  0
   22.8489    6.2824   55.5185 O   0  0  0  0  0  0  0  0  0  0  0  0
   21.1491    7.4966   53.0268 H   0  0  0  0  0  0  0  0  0  0  0  0
   22.7434    5.3031   53.4094 C   0  0  0  0  0  0  0  0  0  0  0  0
   23.8878    5.3375   52.7571 C   0  0  0  0  0  0  0  0  0  0  0  0
   28.8473    7.0779   53.6442 N   0  0  0  0  0  0  0  0  0  0  0  0
   28.6732    8.0661   54.6931 C   0  0  0  0  0  0  0  0  0  0  0  0
   29.7186    8.4430   55.2042 O   0  0  0  0  0  0  0  0  0  0  0  0
   28.2934    6.2100   53.7122 H   0  0  0  0  0  0  0  0  0  0  0  0
   29.4937    7.2122   52.8511 H   0  0  0  0  0  0  0  0  0  0  0  0
   27.7076    8.9267   57.2938 N   0  0  0  0  0  0  0  0  0  0  0  0
   28.1378    8.0665   57.6832 H   0  0  0  0  0  0  0  0  0  0  0  0
   28.0818   10.1239   58.0062 C   0  0  0  0  0  0  0  0  0  0  0  0
   28.8348   10.1390   59.1451 C   0  0  0  0  0  0  0  0  0  0  0  0
   29.1875   11.3456   59.7582 C   0  0  0  0  0  0  0  0  0  0  0  0
   28.7871   12.5530   59.2346 C   0  0  0  0  0  0  0  0  0  0  0  0
   28.0270   12.5319   58.0867 C   0  0  0  0  0  0  0  0  0  0  0  0
   27.6757   11.3596   57.4775 C   0  0  0  0  0  0  0  0  0  0  0  0
   29.1729   13.8453   59.8973 C   0  0  0  0  0  0  0  0  0  0  0  0
   28.0203   14.4221   60.6654 C   0  0  0  0  0  0  0  0  0  0  0  0
   28.4014   14.9509   62.0159 C   0  0  0  0  0  0  0  0  0  0  0  0
   29.6773   15.5912   62.0379 N   0  0  0  0  0  0  0  0  0  0  0  0
   30.6923   14.6224   61.7763 C   0  0  0  0  0  0  0  0  0  0  0  0
   30.4174   13.6648   60.6892 C   0  0  0  0  0  0  0  0  0  0  0  0
   29.7916   16.7982   61.2892 C   0  0  0  0  0  0  0  0  0  0  0  0
   28.4258   17.2304   60.8227 C   0  0  0  0  0  0  0  0  0  0  0  0
   28.4717   17.4374   59.3395 C   0  0  0  0  0  0  0  0  0  0  0  0
   29.9166   17.3645   58.9488 C   0  0  0  0  0  0  0  0  0  0  0  0
   30.6067   16.5578   60.0402 C   0  0  0  0  0  0  0  0  0  0  0  0
 19 20  1  0  0  0
 20 21  2  0  0  0
 20  1  1  0  0  0
  1  2  2  0  0  0
  2  3  1  0  0  0
  3  4  2  0  0  0
  4  5  1  0  0  0
  5  6  2  0  0  0
  6 24  1  0  0  0
 24 26  1  0  0  0
 26 27  2  0  0  0
 27 28  1  0  0  0
 28 29  2  0  0  0
 29 30  1  0  0  0
 30 31  2  0  0  0
 29 32  1  0  0  0
 32 33  1  0  0  0
 33 34  1  0  0  0
 34 35  1  0  0  0
 35 36  1  0  0  0
 36 37  1  0  0  0
 35 38  1  0  0  0
 38 39  1  0  0  0
 39 40  1  0  0  0
 40 41  1  0  0  0
 41 42  1  0  0  0
  4  7  1  0  0  0
  7  8  1  0  0  0
  8  9  1  0  0  0
  9 10  1  0  0  0
 10 11  1  0  0  0
 11 12  1  0  0  0
 11 13  1  0  0  0
 13 14  1  0  0  0
 14 15  2  0  0  0
 14 17  1  0  0  0
 17 18  2  0  0  0
  6  1  1  0  0  0
 31 26  1  0  0  0
 37 32  1  0  0  0
 42 38  1  0  0  0
 12  7  1  0  0  0
 19 22  1  0  0  0
 19 23  1  0  0  0
 24 25  1  0  0  0
 13 16  1  0  0  0
M  END
> <minimizedAffinity>
12.54863

> <CNNscore>
0.6583548188

> <CNNaffinity>
7.1292595863

> <CNN_VS>
4.6935825348

> <CNNaffinity_variance>
0.7000545859

$$$$
[H]C([H])=C([H])C(=O)N([H])[C@@]1([H])C([H])([H])N(c2nc(N([H])c3c([H])c([H])c(C4([H])C([H])([H])C([H])([H])N(C5([H])C([H])([H])C([H])([H])C([H])([H])C5([H])[H])C([H])([H])C4([H])[H])c([H])c3[H])c(C(=O)N([H])[H])nc2[H])C([H])([H])C([H])([H])C1([H])[H]


 42 46  0  0  0  0  0  0  0  0999 V2000
   28.1994    8.8497   55.8935 C   0  0  0  0  0  0  0  0  0  0  0  0
   29.3189    8.4219   56.5652 N   0  0  0  0  0  0  0  0  0  0  0  0
   29.4963    8.6598   57.8627 C   0  0  0  0  0  0  0  0  0  0  0  0
   28.5515    9.3523   58.5829 C   0  0  0  0  0  0  0  0  0  0  0  0
   27.4543    9.7775   57.9490 N   0  0  0  0  0  0  0  0  0  0  0  0
   27.2476    9.5458   56.6134 C   0  0  0  0  0  0  0  0  0  0  0  0
   28.7365    9.6326   59.9595 N   0  0  0  0  0  0  0  0  0  0  0  0
   29.7636    8.9337   60.7461 C   0  0  0  0  0  0  0  0  0  0  0  0
   30.7791   10.0317   61.0917 C   0  0  0  0  0  0  0  0  0  0  0  0
   30.1388   11.1564   61.8379 C   0  0  0  0  0  0  0  0  0  0  0  0
   28.8704   11.6764   61.2291 C   0  0  0  0  0  0  0  0  0  0  0  0
   27.9539   10.5821   60.7188 C   0  0  0  0  0  0  0  0  0  0  0  0
   29.0969   12.7201   60.2619 N   0  0  0  0  0  0  0  0  0  0  0  0
   29.1658   14.0843   60.6571 C   0  0  0  0  0  0  0  0  0  0  0  0
   29.0249   14.3651   61.8755 O   0  0  0  0  0  0  0  0  0  0  0  0
   29.2152   12.4725   59.2385 H   0  0  0  0  0  0  0  0  0  0  0  0
   29.3914   15.1626   59.7196 C   0  0  0  0  0  0  0  0  0  0  0  0
   29.4541   16.4144   60.1265 C   0  0  0  0  0  0  0  0  0  0  0  0
   28.3568    7.1486   54.1350 N   0  0  0  0  0  0  0  0  0  0  0  0
   28.0707    8.5288   54.4819 C   0  0  0  0  0  0  0  0  0  0  0  0
   27.7600    9.2303   53.5293 O   0  0  0  0  0  0  0  0  0  0  0  0
   29.2496    6.7509   54.4656 H   0  0  0  0  0  0  0  0  0  0  0  0
   27.7109    6.5661   53.5798 H   0  0  0  0  0  0  0  0  0  0  0  0
   26.1126   10.0635   55.9811 N   0  0  0  0  0  0  0  0  0  0  0  0
   26.0590   11.0530   55.6735 H   0  0  0  0  0  0  0  0  0  0  0  0
   24.9143    9.3124   55.6969 C   0  0  0  0  0  0  0  0  0  0  0  0
   23.6507    9.7378   55.9909 C   0  0  0  0  0  0  0  0  0  0  0  0
   22.5346    8.9671   55.6496 C   0  0  0  0  0  0  0  0  0  0  0  0
   22.6745    7.7580   55.0088 C   0  0  0  0  0  0  0  0  0  0  0  0
   23.9511    7.3332   54.7157 C   0  0  0  0  0  0  0  0  0  0  0  0
   25.0501    8.0771   55.0435 C   0  0  0  0  0  0  0  0  0  0  0  0
   21.4704    6.9371   54.6425 C   0  0  0  0  0  0  0  0  0  0  0  0
   20.3301    7.8139   54.2154 C   0  0  0  0  0  0  0  0  0  0  0  0
   19.6083    7.3132   53.0001 C   0  0  0  0  0  0  0  0  0  0  0  0
   19.4822    5.8916   52.9575 N   0  0  0  0  0  0  0  0  0  0  0  0
   20.7785    5.3102   52.8209 C   0  0  0  0  0  0  0  0  0  0  0  0
   21.8448    5.8853   53.6616 C   0  0  0  0  0  0  0  0  0  0  0  0
   18.6608    5.2998   53.9602 C   0  0  0  0  0  0  0  0  0  0  0  0
   18.6800    3.8014   53.8044 C   0  0  0  0  0  0  0  0  0  0  0  0
   17.2663    3.3124   53.7197 C   0  0  0  0  0  0  0  0  0  0  0  0
   16.3950    4.4818   54.0648 C   0  0  0  0  0  0  0  0  0  0  0  0
   17.2236    5.7246   53.7698 C   0  0  0  0  0  0  0  0  0  0  0  0
 19 20  1  0  0  0
 20 21  2  0  0  0
 20  1  1  0  0  0
  1  2  2  0  0  0
  2  3  1  0  0  0
  3  4  2  0  0  0
  4  5  1  0  0  0
  5  6  2  0  0  0
  6 24  1  0  0  0
 24 26  1  0  0  0
 26 27  2  0  0  0
 27 28  1  0  0  0
 28 29  2  0  0  0
 29 30  1  0  0  0
 30 31  2  0  0  0
 29 32  1  0  0  0
 32 33  1  0  0  0
 33 34  1  0  0  0
 34 35  1  0  0  0
 35 36  1  0  0  0
 36 37  1  0  0  0
 35 38  1  0  0  0
 38 39  1  0  0  0
 39 40  1  0  0  0
 40 41  1  0  0  0
 41 42  1  0  0  0
  4  7  1  0  0  0
  7  8  1  0  0  0
  8  9  1  0  0  0
  9 10  1  0  0  0
 10 11  1  0  0  0
 11 12  1  0  0  0
 11 13  1  0  0  0
 13 14  1  0  0  0
 14 15  2  0  0  0
 14 17  1  0  0  0
 17 18  2  0  0  0
  6  1  1  0  0  0
 31 26  1  0  0  0
 37 32  1  0  0  0
 42 38  1  0  0  0
 12  7  1  0  0  0
 19 22  1  0  0  0
 19 23  1  0  0  0
 24 25  1  0  0  0
 13 16  1  0  0  0
M  END
> <minimizedAffinity>
24.91856

> <CNNscore>
0.6490421891

> <CNNaffinity>
6.8624544144

> <CNN_VS>
4.4540224075

> <CNNaffinity_variance>
0.9986281395

$$$$
[H]C([H])=C([H])C(=O)N([H])[C@@]1([H])C([H])([H])N(c2nc(N([H])c3c([H])c([H])c(C4([H])C([H])([H])C([H])([H])N(C5([H])C([H])([H])C([H])([H])C([H])([H])C5([H])[H])C([H])([H])C4([H])[H])c([H])c3[H])c(C(=O)N([H])[H])nc2[H])C([H])([H])C([H])([H])C1([H])[H]


 42 46  0  0  0  0  0  0  0  0999 V2000
   27.4287    9.1583   55.9626 C   0  0  0  0  0  0  0  0  0  0  0  0
   28.6246    8.8727   56.5757 N   0  0  0  0  0  0  0  0  0  0  0  0
   29.0672    9.5725   57.6178 C   0  0  0  0  0  0  0  0  0  0  0  0
   28.3315   10.6196   58.1211 C   0  0  0  0  0  0  0  0  0  0  0  0
   27.1646   10.9144   57.5398 N   0  0  0  0  0  0  0  0  0  0  0  0
   26.6864   10.2095   56.4653 C   0  0  0  0  0  0  0  0  0  0  0  0
   28.7999   11.3877   59.2159 N   0  0  0  0  0  0  0  0  0  0  0  0
   27.9822   12.4643   59.7941 C   0  0  0  0  0  0  0  0  0  0  0  0
   27.6252   11.9493   61.1954 C   0  0  0  0  0  0  0  0  0  0  0  0
   28.8489   11.6514   61.9989 C   0  0  0  0  0  0  0  0  0  0  0  0
   29.8798   10.8205   61.2941 C   0  0  0  0  0  0  0  0  0  0  0  0
   30.0899   11.2202   59.8471 C   0  0  0  0  0  0  0  0  0  0  0  0
   29.6741    9.4046   61.4647 N   0  0  0  0  0  0  0  0  0  0  0  0
   30.6401    8.5972   62.1256 C   0  0  0  0  0  0  0  0  0  0  0  0
   31.6849    9.1460   62.5622 O   0  0  0  0  0  0  0  0  0  0  0  0
   28.7902    8.9529   61.0941 H   0  0  0  0  0  0  0  0  0  0  0  0
   30.4736    7.1732   62.3183 C   0  0  0  0  0  0  0  0  0  0  0  0
   29.4429    6.5340   61.8029 C   0  0  0  0  0  0  0  0  0  0  0  0
   27.4219    8.8035   53.5368 N   0  0  0  0  0  0  0  0  0  0  0  0
   27.0057    8.3314   54.8448 C   0  0  0  0  0  0  0  0  0  0  0  0
   26.3531    7.2973   54.8194 O   0  0  0  0  0  0  0  0  0  0  0  0
   27.2116    9.7847   53.2966 H   0  0  0  0  0  0  0  0  0  0  0  0
   27.9094    8.2023   52.8544 H   0  0  0  0  0  0  0  0  0  0  0  0
   25.4894   10.5944   55.8529 N   0  0  0  0  0  0  0  0  0  0  0  0
   25.3153   11.5729   55.5546 H   0  0  0  0  0  0  0  0  0  0  0  0
   24.3837    9.7096   55.5786 C   0  0  0  0  0  0  0  0  0  0  0  0
   23.0697   10.0731   55.6520 C   0  0  0  0  0  0  0  0  0  0  0  0
   22.0536    9.1660   55.3343 C   0  0  0  0  0  0  0  0  0  0  0  0
   22.3455    7.8810   54.9394 C   0  0  0  0  0  0  0  0  0  0  0  0
   23.6722    7.5195   54.8682 C   0  0  0  0  0  0  0  0  0  0  0  0
   24.6747    8.3965   55.1756 C   0  0  0  0  0  0  0  0  0  0  0  0
   21.2483    6.9132   54.5966 C   0  0  0  0  0  0  0  0  0  0  0  0
   20.0266    7.6344   54.1082 C   0  0  0  0  0  0  0  0  0  0  0  0
   19.3907    6.9973   52.9089 C   0  0  0  0  0  0  0  0  0  0  0  0
   19.4249    5.5702   52.9363 N   0  0  0  0  0  0  0  0  0  0  0  0
   20.7805    5.1323   52.8493 C   0  0  0  0  0  0  0  0  0  0  0  0
   21.7582    5.8638   53.6761 C   0  0  0  0  0  0  0  0  0  0  0  0
   18.6539    4.9391   53.9549 C   0  0  0  0  0  0  0  0  0  0  0  0
   18.4975    3.4759   53.6318 C   0  0  0  0  0  0  0  0  0  0  0  0
   17.0387    3.1351   53.6571 C   0  0  0  0  0  0  0  0  0  0  0  0
   16.3371    4.3295   54.2288 C   0  0  0  0  0  0  0  0  0  0  0  0
   17.2580    5.5163   53.9805 C   0  0  0  0  0  0  0  0  0  0  0  0
 19 20  1  0  0  0
 20 21  2  0  0  0
 20  1  1  0  0  0
  1  2  2  0  0  0
  2  3  1  0  0  0
  3  4  2  0  0  0
  4  5  1  0  0  0
  5  6  2  0  0  0
  6 24  1  0  0  0
 24 26  1  0  0  0
 26 27  2  0  0  0
 27 28  1  0  0  0
 28 29  2  0  0  0
 29 30  1  0  0  0
 30 31  2  0  0  0
 29 32  1  0  0  0
 32 33  1  0  0  0
 33 34  1  0  0  0
 34 35  1  0  0  0
 35 36  1  0  0  0
 36 37  1  0  0  0
 35 38  1  0  0  0
 38 39  1  0  0  0
 39 40  1  0  0  0
 40 41  1  0  0  0
 41 42  1  0  0  0
  4  7  1  0  0  0
  7  8  1  0  0  0
  8  9  1  0  0  0
  9 10  1  0  0  0
 10 11  1  0  0  0
 11 12  1  0  0  0
 11 13  1  0  0  0
 13 14  1  0  0  0
 14 15  2  0  0  0
 14 17  1  0  0  0
 17 18  2  0  0  0
  6  1  1  0  0  0
 31 26  1  0  0  0
 37 32  1  0  0  0
 42 38  1  0  0  0
 12  7  1  0  0  0
 19 22  1  0  0  0
 19 23  1  0  0  0
 24 25  1  0  0  0
 13 16  1  0  0  0
M  END
> <minimizedAffinity>
25.31477

> <CNNscore>
0.6395087242

> <CNNaffinity>
7.0796408653

> <CNN_VS>
4.5274920464

> <CNNaffinity_variance>
0.9147125483

$$$$
[H]C([H])=C([H])C(=O)N([H])[C@@]1([H])C([H])([H])N(c2nc(N([H])c3c([H])c([H])c(C4([H])C([H])([H])C([H])([H])N(C5([H])C([H])([H])C([H])([H])C([H])([H])C5([H])[H])C([H])([H])C4([H])[H])c([H])c3[H])c(C(=O)N([H])[H])nc2[H])C([H])([H])C([H])([H])C1([H])[H]


 42 46  0  0  0  0  0  0  0  0999 V2000
   24.1275    5.7492   52.7613 C   0  0  0  0  0  0  0  0  0  0  0  0
   22.7749    5.5231   52.6772 N   0  0  0  0  0  0  0  0  0  0  0  0
   21.8837    6.4076   53.1187 C   0  0  0  0  0  0  0  0  0  0  0  0
   22.2939    7.5930   53.6821 C   0  0  0  0  0  0  0  0  0  0  0  0
   23.6056    7.8335   53.7734 N   0  0  0  0  0  0  0  0  0  0  0  0
   24.5439    6.9390   53.3266 C   0  0  0  0  0  0  0  0  0  0  0  0
   21.3577    8.5346   54.1766 N   0  0  0  0  0  0  0  0  0  0  0  0
   21.2098    8.7733   55.6199 C   0  0  0  0  0  0  0  0  0  0  0  0
   21.7184   10.2085   55.8141 C   0  0  0  0  0  0  0  0  0  0  0  0
   20.9491   11.1810   54.9809 C   0  0  0  0  0  0  0  0  0  0  0  0
   20.7840   10.7877   53.5429 C   0  0  0  0  0  0  0  0  0  0  0  0
   20.4645    9.3182   53.3526 C   0  0  0  0  0  0  0  0  0  0  0  0
   21.8657   11.2432   52.7071 N   0  0  0  0  0  0  0  0  0  0  0  0
   21.7743   12.4687   51.9918 C   0  0  0  0  0  0  0  0  0  0  0  0
   20.7243   13.1531   52.1033 O   0  0  0  0  0  0  0  0  0  0  0  0
   22.7460   10.6597   52.6211 H   0  0  0  0  0  0  0  0  0  0  0  0
   22.8359   12.9629   51.1424 C   0  0  0  0  0  0  0  0  0  0  0  0
   22.6936   14.0797   50.4576 C   0  0  0  0  0  0  0  0  0  0  0  0
   25.4607    4.9546   50.8634 N   0  0  0  0  0  0  0  0  0  0  0  0
   25.0345    4.7430   52.2347 C   0  0  0  0  0  0  0  0  0  0  0  0
   25.5028    3.7402   52.7554 O   0  0  0  0  0  0  0  0  0  0  0  0
   24.7261    5.1134   50.1565 H   0  0  0  0  0  0  0  0  0  0  0  0
   26.4527    4.9503   50.5791 H   0  0  0  0  0  0  0  0  0  0  0  0
   25.9053    7.2086   53.4995 N   0  0  0  0  0  0  0  0  0  0  0  0
   26.6157    6.9161   52.8021 H   0  0  0  0  0  0  0  0  0  0  0  0
   26.4704    7.8953   54.6352 C   0  0  0  0  0  0  0  0  0  0  0  0
   27.8087    8.0694   54.8424 C   0  0  0  0  0  0  0  0  0  0  0  0
   28.2784    8.7804   55.9515 C   0  0  0  0  0  0  0  0  0  0  0  0
   27.4085    9.3252   56.8673 C   0  0  0  0  0  0  0  0  0  0  0  0
   26.0600    9.1457   56.6541 C   0  0  0  0  0  0  0  0  0  0  0  0
   25.5881    8.4533   55.5741 C   0  0  0  0  0  0  0  0  0  0  0  0
   27.9207   10.0906   58.0546 C   0  0  0  0  0  0  0  0  0  0  0  0
   28.2759    9.1646   59.1804 C   0  0  0  0  0  0  0  0  0  0  0  0
   29.5711    9.5059   59.8547 C   0  0  0  0  0  0  0  0  0  0  0  0
   29.7980   10.9103   59.9753 N   0  0  0  0  0  0  0  0  0  0  0  0
   29.9582   11.4725   58.6732 C   0  0  0  0  0  0  0  0  0  0  0  0
   29.0121   11.0106   57.6408 C   0  0  0  0  0  0  0  0  0  0  0  0
   28.9099   11.6227   60.8321 C   0  0  0  0  0  0  0  0  0  0  0  0
   28.4429   12.8767   60.1398 C   0  0  0  0  0  0  0  0  0  0  0  0
   28.7097   14.0453   61.0386 C   0  0  0  0  0  0  0  0  0  0  0  0
   29.1135   13.4738   62.3637 C   0  0  0  0  0  0  0  0  0  0  0  0
   29.6403   12.0748   62.0748 C   0  0  0  0  0  0  0  0  0  0  0  0
 19 20  1  0  0  0
 20 21  2  0  0  0
 20  1  1  0  0  0
  1  2  2  0  0  0
  2  3  1  0  0  0
  3  4  2  0  0  0
  4  5  1  0  0  0
  5  6  2  0  0  0
  6 24  1  0  0  0
 24 26  1  0  0  0
 26 27  2  0  0  0
 27 28  1  0  0  0
 28 29  2  0  0  0
 29 30  1  0  0  0
 30 31  2  0  0  0
 29 32  1  0  0  0
 32 33  1  0  0  0
 33 34  1  0  0  0
 34 35  1  0  0  0
 35 36  1  0  0  0
 36 37  1  0  0  0
 35 38  1  0  0  0
 38 39  1  0  0  0
 39 40  1  0  0  0
 40 41  1  0  0  0
 41 42  1  0  0  0
  4  7  1  0  0  0
  7  8  1  0  0  0
  8  9  1  0  0  0
  9 10  1  0  0  0
 10 11  1  0  0  0
 11 12  1  0  0  0
 11 13  1  0  0  0
 13 14  1  0  0  0
 14 15  2  0  0  0
 14 17  1  0  0  0
 17 18  2  0  0  0
  6  1  1  0  0  0
 31 26  1  0  0  0
 37 32  1  0  0  0
 42 38  1  0  0  0
 12  7  1  0  0  0
 19 22  1  0  0  0
 19 23  1  0  0  0
 24 25  1  0  0  0
 13 16  1  0  0  0
M  END
> <minimizedAffinity>
32.85189

> <CNNscore>
0.6247327328

> <CNNaffinity>
7.0325622559

> <CNN_VS>
4.3934717178

> <CNNaffinity_variance>
2.1391000748

$$$$
[H]C([H])=C([H])C(=O)N([H])[C@@]1([H])C([H])([H])N(c2nc(N([H])c3c([H])c([H])c(C4([H])C([H])([H])C([H])([H])N(C5([H])C([H])([H])C([H])([H])C([H])([H])C5([H])[H])C([H])([H])C4([H])[H])c([H])c3[H])c(C(=O)N([H])[H])nc2[H])C([H])([H])C([H])([H])C1([H])[H]


 42 46  0  0  0  0  0  0  0  0999 V2000
   21.7380    7.0890   52.7256 C   0  0  0  0  0  0  0  0  0  0  0  0
   20.6213    7.6388   52.1439 N   0  0  0  0  0  0  0  0  0  0  0  0
   20.6257    8.8673   51.6319 C   0  0  0  0  0  0  0  0  0  0  0  0
   21.7643    9.6374   51.6700 C   0  0  0  0  0  0  0  0  0  0  0  0
   22.8624    9.1218   52.2311 N   0  0  0  0  0  0  0  0  0  0  0  0
   22.8841    7.8593   52.7659 C   0  0  0  0  0  0  0  0  0  0  0  0
   21.7783   10.9550   51.1489 N   0  0  0  0  0  0  0  0  0  0  0  0
   21.0312   11.2983   49.9299 C   0  0  0  0  0  0  0  0  0  0  0  0
   19.9262   12.2424   50.4237 C   0  0  0  0  0  0  0  0  0  0  0  0
   20.4946   13.4386   51.1150 C   0  0  0  0  0  0  0  0  0  0  0  0
   21.5360   13.1334   52.1503 C   0  0  0  0  0  0  0  0  0  0  0  0
   22.5156   12.0590   51.7217 C   0  0  0  0  0  0  0  0  0  0  0  0
   20.9781   12.8997   53.4580 N   0  0  0  0  0  0  0  0  0  0  0  0
   21.1986   11.6724   54.1413 C   0  0  0  0  0  0  0  0  0  0  0  0
   21.8954   10.7882   53.5791 O   0  0  0  0  0  0  0  0  0  0  0  0
   20.3936   13.6515   53.9228 H   0  0  0  0  0  0  0  0  0  0  0  0
   20.6575   11.3966   55.4542 C   0  0  0  0  0  0  0  0  0  0  0  0
   20.8446   10.2283   56.0343 C   0  0  0  0  0  0  0  0  0  0  0  0
   20.3579    5.0988   53.1067 N   0  0  0  0  0  0  0  0  0  0  0  0
   21.6571    5.7323   53.2403 C   0  0  0  0  0  0  0  0  0  0  0  0
   22.5049    5.0286   53.7715 O   0  0  0  0  0  0  0  0  0  0  0  0
   19.5382    5.6163   53.4602 H   0  0  0  0  0  0  0  0  0  0  0  0
   20.2310    4.1678   52.6801 H   0  0  0  0  0  0  0  0  0  0  0  0
   24.0393    7.3868   53.3968 N   0  0  0  0  0  0  0  0  0  0  0  0
   24.4817    6.4870   53.1296 H   0  0  0  0  0  0  0  0  0  0  0  0
   24.7290    8.0655   54.4665 C   0  0  0  0  0  0  0  0  0  0  0  0
   24.1092    8.7757   55.4542 C   0  0  0  0  0  0  0  0  0  0  0  0
   24.8468    9.3760   56.4798 C   0  0  0  0  0  0  0  0  0  0  0  0
   26.2176    9.2706   56.5252 C   0  0  0  0  0  0  0  0  0  0  0  0
   26.8377    8.5543   55.5260 C   0  0  0  0  0  0  0  0  0  0  0  0
   26.1284    7.9626   54.5183 C   0  0  0  0  0  0  0  0  0  0  0  0
   27.0029    9.9157   57.6322 C   0  0  0  0  0  0  0  0  0  0  0  0
   27.5970    8.8830   58.5441 C   0  0  0  0  0  0  0  0  0  0  0  0
   29.0182    9.1664   58.9295 C   0  0  0  0  0  0  0  0  0  0  0  0
   29.2869   10.5533   59.1360 N   0  0  0  0  0  0  0  0  0  0  0  0
   29.1478   11.2472   57.8966 C   0  0  0  0  0  0  0  0  0  0  0  0
   27.9810   10.8839   57.0714 C   0  0  0  0  0  0  0  0  0  0  0  0
   28.6327   11.1655   60.2440 C   0  0  0  0  0  0  0  0  0  0  0  0
   28.7157   12.6639   60.1104 C   0  0  0  0  0  0  0  0  0  0  0  0
   29.2931   13.2242   61.3742 C   0  0  0  0  0  0  0  0  0  0  0  0
   29.3332   12.0932   62.3565 C   0  0  0  0  0  0  0  0  0  0  0  0
   29.3503   10.8167   61.5268 C   0  0  0  0  0  0  0  0  0  0  0  0
 19 20  1  0  0  0
 20 21  2  0  0  0
 20  1  1  0  0  0
  1  2  2  0  0  0
  2  3  1  0  0  0
  3  4  2  0  0  0
  4  5  1  0  0  0
  5  6  2  0  0  0
  6 24  1  0  0  0
 24 26  1  0  0  0
 26 27  2  0  0  0
 27 28  1  0  0  0
 28 29  2  0  0  0
 29 30  1  0  0  0
 30 31  2  0  0  0
 29 32  1  0  0  0
 32 33  1  0  0  0
 33 34  1  0  0  0
 34 35  1  0  0  0
 35 36  1  0  0  0
 36 37  1  0  0  0
 35 38  1  0  0  0
 38 39  1  0  0  0
 39 40  1  0  0  0
 40 41  1  0  0  0
 41 42  1  0  0  0
  4  7  1  0  0  0
  7  8  1  0  0  0
  8  9  1  0  0  0
  9 10  1  0  0  0
 10 11  1  0  0  0
 11 12  1  0  0  0
 11 13  1  0  0  0
 13 14  1  0  0  0
 14 15  2  0  0  0
 14 17  1  0  0  0
 17 18  2  0  0  0
  6  1  1  0  0  0
 31 26  1  0  0  0
 37 32  1  0  0  0
 42 38  1  0  0  0
 12  7  1  0  0  0
 19 22  1  0  0  0
 19 23  1  0  0  0
 24 25  1  0  0  0
 13 16  1  0  0  0
M  END
> <minimizedAffinity>
36.62022

> <CNNscore>
0.6185601354

> <CNNaffinity>
7.1804475784

> <CNN_VS>
4.4415388107

> <CNNaffinity_variance>
1.5288043022

$$$$
[H]c1nc([H])c(-c2c([H])c([H])c([H])c([H])c2[H])c([H])c1C#Cc1nc(C([H])([H])[H])sc1[H]


 20 22  0  0  0  0  0  0  0  0999 V2000
   21.6756    7.8366   54.3394 C   0  0  0  0  0  0  0  0  0  0  0  0
   21.1289    9.0825   54.5701 C   0  0  0  0  0  0  0  0  0  0  0  0
   21.8623   10.1620   54.8484 N   0  0  0  0  0  0  0  0  0  0  0  0
   23.2040   10.0231   54.9056 C   0  0  0  0  0  0  0  0  0  0  0  0
   23.8321    8.8142   54.6882 C   0  0  0  0  0  0  0  0  0  0  0  0
   23.0478    7.7230   54.4043 C   0  0  0  0  0  0  0  0  0  0  0  0
   25.2812    8.7317   54.7565 C   0  0  0  0  0  0  0  0  0  0  0  0
   25.9588    9.1242   55.8974 C   0  0  0  0  0  0  0  0  0  0  0  0
   27.3471    9.0526   55.9912 C   0  0  0  0  0  0  0  0  0  0  0  0
   28.0673    8.5801   54.9249 C   0  0  0  0  0  0  0  0  0  0  0  0
   27.3990    8.1891   53.7906 C   0  0  0  0  0  0  0  0  0  0  0  0
   26.0187    8.2600   53.6959 C   0  0  0  0  0  0  0  0  0  0  0  0
   20.1428    5.7419   53.7976 C   0  0  0  0  0  0  0  0  0  0  0  0
   20.8474    6.6891   54.0346 C   0  0  0  0  0  0  0  0  0  0  0  0
   15.8031    3.3241   53.9693 C   0  0  0  0  0  0  0  0  0  0  0  0
   17.2596    3.5439   53.6469 C   0  0  0  0  0  0  0  0  0  0  0  0
   18.0195    4.5930   53.8962 N   0  0  0  0  0  0  0  0  0  0  0  0
   19.2681    4.5925   53.5337 C   0  0  0  0  0  0  0  0  0  0  0  0
   19.7346    3.4688   52.8955 C   0  0  0  0  0  0  0  0  0  0  0  0
   18.3375    2.4850   52.8598 S   0  0  0  0  0  0  0  0  0  0  0  0
 15 16  1  0  0  0
 16 17  2  0  0  0
 17 18  1  0  0  0
 18 19  2  0  0  0
 19 20  1  0  0  0
 18 13  1  0  0  0
 13 14  3  0  0  0
 14  1  1  0  0  0
  1  2  2  0  0  0
  2  3  1  0  0  0
  3  4  2  0  0  0
  4  5  1  0  0  0
  5  6  2  0  0  0
  5  7  1  0  0  0
  7  8  2  0  0  0
  8  9  1  0  0  0
  9 10  2  0  0  0
 10 11  1  0  0  0
 11 12  2  0  0  0
 20 16  1  0  0  0
  6  1  1  0  0  0
 12  7  1  0  0  0
M  END
> <minimizedAffinity>
13.67243

> <CNNscore>
0.6514731646

> <CNNaffinity>
5.6849412918

> <CNN_VS>
3.7035865784

> <CNNaffinity_variance>
0.1983465254

$$$$
[H]c1nc([H])c(-c2c([H])c([H])c([H])c([H])c2[H])c([H])c1C#Cc1nc(C([H])([H])[H])sc1[H]


 20 22  0  0  0  0  0  0  0  0999 V2000
   21.5974    7.8548   54.3813 C   0  0  0  0  0  0  0  0  0  0  0  0
   21.0774    9.1059   54.6437 C   0  0  0  0  0  0  0  0  0  0  0  0
   21.8358   10.1726   54.9037 N   0  0  0  0  0  0  0  0  0  0  0  0
   23.1767   10.0148   54.9089 C   0  0  0  0  0  0  0  0  0  0  0  0
   23.7791    8.7995   54.6571 C   0  0  0  0  0  0  0  0  0  0  0  0
   22.9694    7.7218   54.3933 C   0  0  0  0  0  0  0  0  0  0  0  0
   25.2284    8.6965   54.6698 C   0  0  0  0  0  0  0  0  0  0  0  0
   25.9160    8.2587   53.5516 C   0  0  0  0  0  0  0  0  0  0  0  0
   27.3053    8.1536   53.5352 C   0  0  0  0  0  0  0  0  0  0  0  0
   28.0163    8.4925   54.6570 C   0  0  0  0  0  0  0  0  0  0  0  0
   27.3381    8.9278   55.7691 C   0  0  0  0  0  0  0  0  0  0  0  0
   25.9567    9.0326   55.7868 C   0  0  0  0  0  0  0  0  0  0  0  0
   20.0504    5.7664   53.8561 C   0  0  0  0  0  0  0  0  0  0  0  0
   20.7423    6.7218   54.0977 C   0  0  0  0  0  0  0  0  0  0  0  0
   15.7986    3.1916   53.8287 C   0  0  0  0  0  0  0  0  0  0  0  0
   17.2583    3.4666   53.5695 C   0  0  0  0  0  0  0  0  0  0  0  0
   17.9683    4.5406   53.8575 N   0  0  0  0  0  0  0  0  0  0  0  0
   19.2301    4.5882   53.5481 C   0  0  0  0  0  0  0  0  0  0  0  0
   19.7637    3.4874   52.9229 C   0  0  0  0  0  0  0  0  0  0  0  0
   18.4063    2.4539   52.8218 S   0  0  0  0  0  0  0  0  0  0  0  0
 15 16  1  0  0  0
 16 17  2  0  0  0
 17 18  1  0  0  0
 18 19  2  0  0  0
 19 20  1  0  0  0
 18 13  1  0  0  0
 13 14  3  0  0  0
 14  1  1  0  0  0
  1  2  2  0  0  0
  2  3  1  0  0  0
  3  4  2  0  0  0
  4  5  1  0  0  0
  5  6  2  0  0  0
  5  7  1  0  0  0
  7  8  2  0  0  0
  8  9  1  0  0  0
  9 10  2  0  0  0
 10 11  1  0  0  0
 11 12  2  0  0  0
 20 16  1  0  0  0
  6  1  1  0  0  0
 12  7  1  0  0  0
M  END
> <minimizedAffinity>
14.44316

> <CNNscore>
0.6356145740

> <CNNaffinity>
5.6769733429

> <CNN_VS>
3.6083669662

> <CNNaffinity_variance>
0.2033398449

$$$$
[H]c1nc([H])c(-c2c([H])c([H])c([H])c([H])c2[H])c([H])c1C#Cc1nc(C([H])([H])[H])sc1[H]


 20 22  0  0  0  0  0  0  0  0999 V2000
   21.6899    7.4776   53.0063 C   0  0  0  0  0  0  0  0  0  0  0  0
   21.2822    8.6817   52.4694 C   0  0  0  0  0  0  0  0  0  0  0  0
   22.0982    9.7259   52.3135 N   0  0  0  0  0  0  0  0  0  0  0  0
   23.3845    9.5925   52.7013 C   0  0  0  0  0  0  0  0  0  0  0  0
   23.8747    8.4244   53.2474 C   0  0  0  0  0  0  0  0  0  0  0  0
   23.0082    7.3689   53.3942 C   0  0  0  0  0  0  0  0  0  0  0  0
   25.2718    8.3415   53.6382 C   0  0  0  0  0  0  0  0  0  0  0  0
   25.6389    7.7345   54.8263 C   0  0  0  0  0  0  0  0  0  0  0  0
   26.9709    7.6383   55.2237 C   0  0  0  0  0  0  0  0  0  0  0  0
   27.9500    8.1585   54.4178 C   0  0  0  0  0  0  0  0  0  0  0  0
   27.5903    8.7616   53.2375 C   0  0  0  0  0  0  0  0  0  0  0  0
   26.2663    8.8582   52.8412 C   0  0  0  0  0  0  0  0  0  0  0  0
   19.9980    5.4537   53.2747 C   0  0  0  0  0  0  0  0  0  0  0  0
   20.7763    6.3646   53.1546 C   0  0  0  0  0  0  0  0  0  0  0  0
   15.5078    3.6141   54.3527 C   0  0  0  0  0  0  0  0  0  0  0  0
   16.9555    3.5887   53.9318 C   0  0  0  0  0  0  0  0  0  0  0  0
   17.8044    4.5904   53.8048 N   0  0  0  0  0  0  0  0  0  0  0  0
   19.0264    4.3629   53.4238 C   0  0  0  0  0  0  0  0  0  0  0  0
   19.3704    3.0574   53.1693 C   0  0  0  0  0  0  0  0  0  0  0  0
   17.9044    2.2423   53.4967 S   0  0  0  0  0  0  0  0  0  0  0  0
 15 16  1  0  0  0
 16 17  2  0  0  0
 17 18  1  0  0  0
 18 19  2  0  0  0
 19 20  1  0  0  0
 18 13  1  0  0  0
 13 14  3  0  0  0
 14  1  1  0  0  0
  1  2  2  0  0  0
  2  3  1  0  0  0
  3  4  2  0  0  0
  4  5  1  0  0  0
  5  6  2  0  0  0
  5  7  1  0  0  0
  7  8  2  0  0  0
  8  9  1  0  0  0
  9 10  2  0  0  0
 10 11  1  0  0  0
 11 12  2  0  0  0
 20 16  1  0  0  0
  6  1  1  0  0  0
 12  7  1  0  0  0
M  END
> <minimizedAffinity>
20.39826

> <CNNscore>
0.6095303297

> <CNNaffinity>
5.8837876320

> <CNN_VS>
3.5863471031

> <CNNaffinity_variance>
0.4065091610

$$$$
[H]c1nc([H])c(-c2c([H])c([H])c([H])c([H])c2[H])c([H])c1C#Cc1nc(C([H])([H])[H])sc1[H]


 20 22  0  0  0  0  0  0  0  0999 V2000
   22.6090    8.1546   53.9520 C   0  0  0  0  0  0  0  0  0  0  0  0
   21.7983    9.2271   53.6405 C   0  0  0  0  0  0  0  0  0  0  0  0
   20.5174    9.0972   53.2900 N   0  0  0  0  0  0  0  0  0  0  0  0
   19.9938    7.8538   53.2393 C   0  0  0  0  0  0  0  0  0  0  0  0
   20.7335    6.7275   53.5348 C   0  0  0  0  0  0  0  0  0  0  0  0
   22.0490    6.8964   53.8918 C   0  0  0  0  0  0  0  0  0  0  0  0
   20.1095    5.4169   53.4690 C   0  0  0  0  0  0  0  0  0  0  0  0
   18.7316    5.2889   53.4715 C   0  0  0  0  0  0  0  0  0  0  0  0
   18.1071    4.0451   53.4060 C   0  0  0  0  0  0  0  0  0  0  0  0
   18.8755    2.9122   53.3369 C   0  0  0  0  0  0  0  0  0  0  0  0
   20.2434    3.0344   53.3338 C   0  0  0  0  0  0  0  0  0  0  0  0
   20.8658    4.2704   53.3991 C   0  0  0  0  0  0  0  0  0  0  0  0
   25.1391    8.4825   54.6741 C   0  0  0  0  0  0  0  0  0  0  0  0
   23.9935    8.3355   54.3337 C   0  0  0  0  0  0  0  0  0  0  0  0
   28.6183    9.7245   57.9999 C   0  0  0  0  0  0  0  0  0  0  0  0
   28.0635    9.2483   56.6811 C   0  0  0  0  0  0  0  0  0  0  0  0
   26.8063    9.0930   56.3129 N   0  0  0  0  0  0  0  0  0  0  0  0
   26.5269    8.6643   55.1178 C   0  0  0  0  0  0  0  0  0  0  0  0
   27.5863    8.3913   54.2867 C   0  0  0  0  0  0  0  0  0  0  0  0
   28.9189    8.7714   55.2870 S   0  0  0  0  0  0  0  0  0  0  0  0
 15 16  1  0  0  0
 16 17  2  0  0  0
 17 18  1  0  0  0
 18 19  2  0  0  0
 19 20  1  0  0  0
 18 13  1  0  0  0
 13 14  3  0  0  0
 14  1  1  0  0  0
  1  2  2  0  0  0
  2  3  1  0  0  0
  3  4  2  0  0  0
  4  5  1  0  0  0
  5  6  2  0  0  0
  5  7  1  0  0  0
  7  8  2  0  0  0
  8  9  1  0  0  0
  9 10  2  0  0  0
 10 11  1  0  0  0
 11 12  2  0  0  0
 20 16  1  0  0  0
  6  1  1  0  0  0
 12  7  1  0  0  0
M  END
> <minimizedAffinity>
16.32895

> <CNNscore>
0.5479479432

> <CNNaffinity>
5.6487832069

> <CNN_VS>
3.0952391624

> <CNNaffinity_variance>
0.0392032899

$$$$
[H]c1nc([H])c(-c2c([H])c([H])c([H])c([H])c2[H])c([H])c1C#Cc1nc(C([H])([H])[H])sc1[H]


 20 22  0  0  0  0  0  0  0  0999 V2000
   26.5026    8.6497   52.7802 C   0  0  0  0  0  0  0  0  0  0  0  0
   27.2560    8.3822   53.9050 C   0  0  0  0  0  0  0  0  0  0  0  0
   26.7225    8.0136   55.0712 N   0  0  0  0  0  0  0  0  0  0  0  0
   25.3795    7.8981   55.1490 C   0  0  0  0  0  0  0  0  0  0  0  0
   24.5525    8.1467   54.0733 C   0  0  0  0  0  0  0  0  0  0  0  0
   25.1341    8.5243   52.8877 C   0  0  0  0  0  0  0  0  0  0  0  0
   23.1146    7.9971   54.2192 C   0  0  0  0  0  0  0  0  0  0  0  0
   22.4205    7.0660   53.4668 C   0  0  0  0  0  0  0  0  0  0  0  0
   21.0426    6.8994   53.5890 C   0  0  0  0  0  0  0  0  0  0  0  0
   20.3497    7.6781   54.4791 C   0  0  0  0  0  0  0  0  0  0  0  0
   21.0344    8.6034   55.2282 C   0  0  0  0  0  0  0  0  0  0  0  0
   22.4044    8.7703   55.1076 C   0  0  0  0  0  0  0  0  0  0  0  0
   27.6386    9.3459   50.4877 C   0  0  0  0  0  0  0  0  0  0  0  0
   27.1181    9.0419   51.5301 C   0  0  0  0  0  0  0  0  0  0  0  0
   29.3737   12.5495   47.1063 C   0  0  0  0  0  0  0  0  0  0  0  0
   29.0584   11.2064   47.7147 C   0  0  0  0  0  0  0  0  0  0  0  0
   28.4728   10.9285   48.8637 N   0  0  0  0  0  0  0  0  0  0  0  0
   28.2892    9.6910   49.2174 C   0  0  0  0  0  0  0  0  0  0  0  0
   28.7278    8.7199   48.3502 C   0  0  0  0  0  0  0  0  0  0  0  0
   29.3783    9.6586   47.0787 S   0  0  0  0  0  0  0  0  0  0  0  0
 15 16  1  0  0  0
 16 17  2  0  0  0
 17 18  1  0  0  0
 18 19  2  0  0  0
 19 20  1  0  0  0
 18 13  1  0  0  0
 13 14  3  0  0  0
 14  1  1  0  0  0
  1  2  2  0  0  0
  2  3  1  0  0  0
  3  4  2  0  0  0
  4  5  1  0  0  0
  5  6  2  0  0  0
  5  7  1  0  0  0
  7  8  2  0  0  0
  8  9  1  0  0  0
  9 10  2  0  0  0
 10 11  1  0  0  0
 11 12  2  0  0  0
 20 16  1  0  0  0
  6  1  1  0  0  0
 12  7  1  0  0  0
M  END
> <minimizedAffinity>
16.41086

> <CNNscore>
0.5404422879

> <CNNaffinity>
5.2710852623

> <CNN_VS>
2.8487174511

> <CNNaffinity_variance>
0.0789557844

$$$$
[H]c1nc([H])c(-c2c([H])c([H])c([H])c([H])c2[H])c([H])c1C#Cc1nc(C([H])([H])[H])sc1[H]


 20 22  0  0  0  0  0  0  0  0999 V2000
   25.7366    8.1571   53.1005 C   0  0  0  0  0  0  0  0  0  0  0  0
   26.1443    7.0677   53.8431 C   0  0  0  0  0  0  0  0  0  0  0  0
   25.4411    6.5753   54.8647 N   0  0  0  0  0  0  0  0  0  0  0  0
   24.2746    7.1757   55.1831 C   0  0  0  0  0  0  0  0  0  0  0  0
   23.7935    8.2693   54.4934 C   0  0  0  0  0  0  0  0  0  0  0  0
   24.5420    8.7512   53.4474 C   0  0  0  0  0  0  0  0  0  0  0  0
   22.5266    8.8661   54.8806 C   0  0  0  0  0  0  0  0  0  0  0  0
   22.2761   10.2070   54.6479 C   0  0  0  0  0  0  0  0  0  0  0  0
   21.0692   10.8041   55.0059 C   0  0  0  0  0  0  0  0  0  0  0  0
   20.0983   10.0454   55.6064 C   0  0  0  0  0  0  0  0  0  0  0  0
   20.3423    8.7141   55.8391 C   0  0  0  0  0  0  0  0  0  0  0  0
   21.5420    8.1191   55.4839 C   0  0  0  0  0  0  0  0  0  0  0  0
   27.1632    9.0687   51.0598 C   0  0  0  0  0  0  0  0  0  0  0  0
   26.5242    8.6596   51.9949 C   0  0  0  0  0  0  0  0  0  0  0  0
   28.5477   12.5338   47.7760 C   0  0  0  0  0  0  0  0  0  0  0  0
   28.5133   11.1773   48.4336 C   0  0  0  0  0  0  0  0  0  0  0  0
   27.8165   10.7751   49.4790 N   0  0  0  0  0  0  0  0  0  0  0  0
   27.9258    9.5504   49.9013 C   0  0  0  0  0  0  0  0  0  0  0  0
   28.7837    8.7254   49.2150 C   0  0  0  0  0  0  0  0  0  0  0  0
   29.3779    9.7739   48.0032 S   0  0  0  0  0  0  0  0  0  0  0  0
 15 16  1  0  0  0
 16 17  2  0  0  0
 17 18  1  0  0  0
 18 19  2  0  0  0
 19 20  1  0  0  0
 18 13  1  0  0  0
 13 14  3  0  0  0
 14  1  1  0  0  0
  1  2  2  0  0  0
  2  3  1  0  0  0
  3  4  2  0  0  0
  4  5  1  0  0  0
  5  6  2  0  0  0
  5  7  1  0  0  0
  7  8  2  0  0  0
  8  9  1  0  0  0
  9 10  2  0  0  0
 10 11  1  0  0  0
 11 12  2  0  0  0
 20 16  1  0  0  0
  6  1  1  0  0  0
 12  7  1  0  0  0
M  END
> <minimizedAffinity>
26.69860

> <CNNscore>
0.5252709389

> <CNNaffinity>
5.1608676910

> <CNN_VS>
2.7108538151

> <CNNaffinity_variance>
0.1679667234

$$$$
[H]c1nc([H])c(-c2c([H])c([H])c([H])c([H])c2[H])c([H])c1C#Cc1nc(C([H])([H])[H])sc1[H]


 20 22  0  0  0  0  0  0  0  0999 V2000
   25.3561    8.1384   54.0785 C   0  0  0  0  0  0  0  0  0  0  0  0
   26.1980    8.3214   53.0004 C   0  0  0  0  0  0  0  0  0  0  0  0
   27.4316    8.8176   53.1127 N   0  0  0  0  0  0  0  0  0  0  0  0
   27.8729    9.1552   54.3432 C   0  0  0  0  0  0  0  0  0  0  0  0
   27.0968    9.0051   55.4738 C   0  0  0  0  0  0  0  0  0  0  0  0
   25.8318    8.4918   55.3231 C   0  0  0  0  0  0  0  0  0  0  0  0
   27.6325    9.3802   56.7714 C   0  0  0  0  0  0  0  0  0  0  0  0
   28.2962   10.5824   56.9417 C   0  0  0  0  0  0  0  0  0  0  0  0
   28.8167   10.9685   58.1751 C   0  0  0  0  0  0  0  0  0  0  0  0
   28.6696   10.1367   59.2546 C   0  0  0  0  0  0  0  0  0  0  0  0
   28.0113    8.9426   59.0904 C   0  0  0  0  0  0  0  0  0  0  0  0
   27.4934    8.5574   57.8645 C   0  0  0  0  0  0  0  0  0  0  0  0
   22.9101    7.1592   53.7812 C   0  0  0  0  0  0  0  0  0  0  0  0
   24.0255    7.5918   53.9180 C   0  0  0  0  0  0  0  0  0  0  0  0
   18.0132    7.7339   53.1496 C   0  0  0  0  0  0  0  0  0  0  0  0
   19.3134    6.9920   53.3305 C   0  0  0  0  0  0  0  0  0  0  0  0
   20.5340    7.4716   53.4734 N   0  0  0  0  0  0  0  0  0  0  0  0
   21.5391    6.6597   53.6172 C   0  0  0  0  0  0  0  0  0  0  0  0
   21.2629    5.3139   53.6119 C   0  0  0  0  0  0  0  0  0  0  0  0
   19.5672    5.3087   53.3987 S   0  0  0  0  0  0  0  0  0  0  0  0
 15 16  1  0  0  0
 16 17  2  0  0  0
 17 18  1  0  0  0
 18 19  2  0  0  0
 19 20  1  0  0  0
 18 13  1  0  0  0
 13 14  3  0  0  0
 14  1  1  0  0  0
  1  2  2  0  0  0
  2  3  1  0  0  0
  3  4  2  0  0  0
  4  5  1  0  0  0
  5  6  2  0  0  0
  5  7  1  0  0  0
  7  8  2  0  0  0
  8  9  1  0  0  0
  9 10  2  0  0  0
 10 11  1  0  0  0
 11 12  2  0  0  0
 20 16  1  0  0  0
  6  1  1  0  0  0
 12  7  1  0  0  0
M  END
> <minimizedAffinity>
17.23019

> <CNNscore>
0.5228978992

> <CNNaffinity>
5.3750562668

> <CNN_VS>
2.8106055260

> <CNNaffinity_variance>
0.1874875128

$$$$
[H]c1nc([H])c(-c2c([H])c([H])c([H])c([H])c2[H])c([H])c1C#Cc1nc(C([H])([H])[H])sc1[H]


 20 22  0  0  0  0  0  0  0  0999 V2000
   21.9550    7.8241   53.9157 C   0  0  0  0  0  0  0  0  0  0  0  0
   21.1141    8.8816   53.6345 C   0  0  0  0  0  0  0  0  0  0  0  0
   19.8317    8.7265   53.3001 N   0  0  0  0  0  0  0  0  0  0  0  0
   19.3376    7.4717   53.2353 C   0  0  0  0  0  0  0  0  0  0  0  0
   20.1086    6.3590   53.5006 C   0  0  0  0  0  0  0  0  0  0  0  0
   21.4248    6.5539   53.8417 C   0  0  0  0  0  0  0  0  0  0  0  0
   19.5156    5.0349   53.4210 C   0  0  0  0  0  0  0  0  0  0  0  0
   18.2918    4.7715   54.0109 C   0  0  0  0  0  0  0  0  0  0  0  0
   17.6989    3.5123   53.9471 C   0  0  0  0  0  0  0  0  0  0  0  0
   18.3424    2.5014   53.2817 C   0  0  0  0  0  0  0  0  0  0  0  0
   19.5571    2.7582   52.6944 C   0  0  0  0  0  0  0  0  0  0  0  0
   20.1479    4.0097   52.7572 C   0  0  0  0  0  0  0  0  0  0  0  0
   24.4939    8.2228   54.5680 C   0  0  0  0  0  0  0  0  0  0  0  0
   23.3402    8.0322   54.2807 C   0  0  0  0  0  0  0  0  0  0  0  0
   29.3787    7.4617   54.0510 C   0  0  0  0  0  0  0  0  0  0  0  0
   28.1193    8.0749   54.6090 C   0  0  0  0  0  0  0  0  0  0  0  0
   26.8621    7.8305   54.2927 N   0  0  0  0  0  0  0  0  0  0  0  0
   25.9039    8.4718   54.8934 C   0  0  0  0  0  0  0  0  0  0  0  0
   26.2674    9.3906   55.8479 C   0  0  0  0  0  0  0  0  0  0  0  0
   27.9718    9.2690   55.8153 S   0  0  0  0  0  0  0  0  0  0  0  0
 15 16  1  0  0  0
 16 17  2  0  0  0
 17 18  1  0  0  0
 18 19  2  0  0  0
 19 20  1  0  0  0
 18 13  1  0  0  0
 13 14  3  0  0  0
 14  1  1  0  0  0
  1  2  2  0  0  0
  2  3  1  0  0  0
  3  4  2  0  0  0
  4  5  1  0  0  0
  5  6  2  0  0  0
  5  7  1  0  0  0
  7  8  2  0  0  0
  8  9  1  0  0  0
  9 10  2  0  0  0
 10 11  1  0  0  0
 11 12  2  0  0  0
 20 16  1  0  0  0
  6  1  1  0  0  0
 12  7  1  0  0  0
M  END
> <minimizedAffinity>
21.76825

> <CNNscore>
0.5203565359

> <CNNaffinity>
5.7038135529

> <CNN_VS>
2.9680166245

> <CNNaffinity_variance>
0.3161380887

$$$$
[H]c1nc([H])c(-c2c([H])c([H])c([H])c([H])c2[H])c([H])c1C#Cc1nc(C([H])([H])[H])sc1[H]


 20 22  0  0  0  0  0  0  0  0999 V2000
   22.5548    5.7868   53.4368 C   0  0  0  0  0  0  0  0  0  0  0  0
   23.5937    5.2972   52.6717 C   0  0  0  0  0  0  0  0  0  0  0  0
   24.8031    5.8598   52.6360 N   0  0  0  0  0  0  0  0  0  0  0  0
   25.0155    6.9614   53.3872 C   0  0  0  0  0  0  0  0  0  0  0  0
   24.0325    7.5164   54.1802 C   0  0  0  0  0  0  0  0  0  0  0  0
   22.7989    6.9127   54.1937 C   0  0  0  0  0  0  0  0  0  0  0  0
   24.3264    8.6990   54.9716 C   0  0  0  0  0  0  0  0  0  0  0  0
   25.6029    8.9277   55.4543 C   0  0  0  0  0  0  0  0  0  0  0  0
   25.9131   10.0546   56.2126 C   0  0  0  0  0  0  0  0  0  0  0  0
   24.9285   10.9666   56.4913 C   0  0  0  0  0  0  0  0  0  0  0  0
   23.6601   10.7440   56.0141 C   0  0  0  0  0  0  0  0  0  0  0  0
   23.3502    9.6238   55.2601 C   0  0  0  0  0  0  0  0  0  0  0  0
   20.1871    4.5932   53.4565 C   0  0  0  0  0  0  0  0  0  0  0  0
   21.2572    5.1454   53.4540 C   0  0  0  0  0  0  0  0  0  0  0  0
   15.5059    3.8770   54.9667 C   0  0  0  0  0  0  0  0  0  0  0  0
   16.7640    3.6268   54.1743 C   0  0  0  0  0  0  0  0  0  0  0  0
   17.9146    4.2712   54.2112 N   0  0  0  0  0  0  0  0  0  0  0  0
   18.8927    3.9003   53.4393 C   0  0  0  0  0  0  0  0  0  0  0  0
   18.6640    2.8303   52.6085 C   0  0  0  0  0  0  0  0  0  0  0  0
   17.0485    2.4292   52.9964 S   0  0  0  0  0  0  0  0  0  0  0  0
 15 16  1  0  0  0
 16 17  2  0  0  0
 17 18  1  0  0  0
 18 19  2  0  0  0
 19 20  1  0  0  0
 18 13  1  0  0  0
 13 14  3  0  0  0
 14  1  1  0  0  0
  1  2  2  0  0  0
  2  3  1  0  0  0
  3  4  2  0  0  0
  4  5  1  0  0  0
  5  6  2  0  0  0
  5  7  1  0  0  0
  7  8  2  0  0  0
  8  9  1  0  0  0
  9 10  2  0  0  0
 10 11  1  0  0  0
 11 12  2  0  0  0
 20 16  1  0  0  0
  6  1  1  0  0  0
 12  7  1  0  0  0
M  END
> <minimizedAffinity>
30.59642

> <CNNscore>
0.4914467633

> <CNNaffinity>
5.4492583275

> <CNN_VS>
2.6780204773

> <CNNaffinity_variance>
0.4094496667

$$$$
[H]OC(=O)c1c([H])c([H])c(-c2c([H])c([H])c(C([H])([H])[H])c(C#N)c2[H])c(C#N)c1[H]


 21 22  0  0  0  0  0  0  0  0999 V2000
   24.7734    8.8994   55.0951 C   0  0  0  0  0  0  0  0  0  0  0  0
   24.5868    9.2747   56.4288 C   0  0  0  0  0  0  0  0  0  0  0  0
   25.6381    9.5547   57.2737 C   0  0  0  0  0  0  0  0  0  0  0  0
   26.9320    9.4681   56.8085 C   0  0  0  0  0  0  0  0  0  0  0  0
   27.1251    9.0990   55.4968 C   0  0  0  0  0  0  0  0  0  0  0  0
   26.0664    8.8125   54.6316 C   0  0  0  0  0  0  0  0  0  0  0  0
   20.3945    7.7455   51.6876 C   0  0  0  0  0  0  0  0  0  0  0  0
   21.5446    8.0484   52.5873 C   0  0  0  0  0  0  0  0  0  0  0  0
   22.1173    9.2840   52.5016 C   0  0  0  0  0  0  0  0  0  0  0  0
   23.1926    9.5773   53.3379 C   0  0  0  0  0  0  0  0  0  0  0  0
   23.6474    8.6243   54.2210 C   0  0  0  0  0  0  0  0  0  0  0  0
   23.0253    7.3708   54.2708 C   0  0  0  0  0  0  0  0  0  0  0  0
   21.9613    7.0647   53.4515 C   0  0  0  0  0  0  0  0  0  0  0  0
   21.3020    5.7761   53.4847 C   0  0  0  0  0  0  0  0  0  0  0  0
   20.7731    4.7577   53.5231 N   0  0  0  0  0  0  0  0  0  0  0  0
   28.0884    9.7528   57.6557 C   0  0  0  0  0  0  0  0  0  0  0  0
   28.6124   11.0279   57.7825 O   0  0  0  0  0  0  0  0  0  0  0  0
   28.6409    8.8256   58.2988 O   0  0  0  0  0  0  0  0  0  0  0  0
   29.6058   11.2040   57.9288 H   0  0  0  0  0  0  0  0  0  0  0  0
   26.3707    8.4143   53.2628 C   0  0  0  0  0  0  0  0  0  0  0  0
   26.6293    8.1131   52.1788 N   0  0  0  0  0  0  0  0  0  0  0  0
  7  8  1  0  0  0
  8  9  2  0  0  0
  9 10  1  0  0  0
 10 11  2  0  0  0
 11 12  1  0  0  0
 12 13  2  0  0  0
 13 14  1  0  0  0
 14 15  3  0  0  0
 11  1  1  0  0  0
  1  2  2  0  0  0
  2  3  1  0  0  0
  3  4  2  0  0  0
  4  5  1  0  0  0
  5  6  2  0  0  0
  6 20  1  0  0  0
 20 21  3  0  0  0
  4 16  1  0  0  0
 16 17  1  0  0  0
 16 18  2  0  0  0
 13  8  1  0  0  0
  6  1  1  0  0  0
 17 19  1  0  0  0
M  END
> <minimizedAffinity>
12.19299

> <CNNscore>
0.6957513094

> <CNNaffinity>
5.2473030090

> <CNN_VS>
3.6508178711

> <CNNaffinity_variance>
0.5718398690

$$$$
[H]OC(=O)c1c([H])c([H])c(-c2c([H])c([H])c(C([H])([H])[H])c(C#N)c2[H])c(C#N)c1[H]


 21 22  0  0  0  0  0  0  0  0999 V2000
   22.3433    9.2142   53.5147 C   0  0  0  0  0  0  0  0  0  0  0  0
   22.6681   10.4054   54.1703 C   0  0  0  0  0  0  0  0  0  0  0  0
   22.2789   11.6402   53.6995 C   0  0  0  0  0  0  0  0  0  0  0  0
   21.5405   11.7289   52.5397 C   0  0  0  0  0  0  0  0  0  0  0  0
   21.2165   10.5611   51.8876 C   0  0  0  0  0  0  0  0  0  0  0  0
   21.6062    9.3040   52.3559 C   0  0  0  0  0  0  0  0  0  0  0  0
   23.9197    4.2030   55.6410 C   0  0  0  0  0  0  0  0  0  0  0  0
   23.5013    5.5204   55.0812 C   0  0  0  0  0  0  0  0  0  0  0  0
   24.0988    5.9470   53.9309 C   0  0  0  0  0  0  0  0  0  0  0  0
   23.7150    7.1766   53.3995 C   0  0  0  0  0  0  0  0  0  0  0  0
   22.7531    7.9244   54.0403 C   0  0  0  0  0  0  0  0  0  0  0  0
   22.1696    7.4424   55.2184 C   0  0  0  0  0  0  0  0  0  0  0  0
   22.5373    6.2291   55.7570 C   0  0  0  0  0  0  0  0  0  0  0  0
   21.9486    5.7099   56.9735 C   0  0  0  0  0  0  0  0  0  0  0  0
   21.4909    5.3055   57.9458 N   0  0  0  0  0  0  0  0  0  0  0  0
   21.0980   13.0088   51.9903 C   0  0  0  0  0  0  0  0  0  0  0  0
   20.0026   13.6880   52.4958 O   0  0  0  0  0  0  0  0  0  0  0  0
   21.7167   13.5282   51.0280 O   0  0  0  0  0  0  0  0  0  0  0  0
   19.3920   14.2607   51.9139 H   0  0  0  0  0  0  0  0  0  0  0  0
   21.2289    8.1242   51.5876 C   0  0  0  0  0  0  0  0  0  0  0  0
   20.9181    7.1824   50.9967 N   0  0  0  0  0  0  0  0  0  0  0  0
  7  8  1  0  0  0
  8  9  2  0  0  0
  9 10  1  0  0  0
 10 11  2  0  0  0
 11 12  1  0  0  0
 12 13  2  0  0  0
 13 14  1  0  0  0
 14 15  3  0  0  0
 11  1  1  0  0  0
  1  2  2  0  0  0
  2  3  1  0  0  0
  3  4  2  0  0  0
  4  5  1  0  0  0
  5  6  2  0  0  0
  6 20  1  0  0  0
 20 21  3  0  0  0
  4 16  1  0  0  0
 16 17  1  0  0  0
 16 18  2  0  0  0
 13  8  1  0  0  0
  6  1  1  0  0  0
 17 19  1  0  0  0
M  END
> <minimizedAffinity>
17.88156

> <CNNscore>
0.6375522614

> <CNNaffinity>
5.4678525925

> <CNN_VS>
3.4860417843

> <CNNaffinity_variance>
0.3168126643

$$$$
[H]OC(=O)c1c([H])c([H])c(-c2c([H])c([H])c(C([H])([H])[H])c(C#N)c2[H])c(C#N)c1[H]


 21 22  0  0  0  0  0  0  0  0999 V2000
   24.2288    8.3995   53.8770 C   0  0  0  0  0  0  0  0  0  0  0  0
   25.4081    7.9281   53.2927 C   0  0  0  0  0  0  0  0  0  0  0  0
   26.6415    8.0794   53.8872 C   0  0  0  0  0  0  0  0  0  0  0  0
   26.7411    8.7168   55.1046 C   0  0  0  0  0  0  0  0  0  0  0  0
   25.5851    9.1844   55.6870 C   0  0  0  0  0  0  0  0  0  0  0  0
   24.3295    9.0367   55.0929 C   0  0  0  0  0  0  0  0  0  0  0  0
   19.2031    7.5933   51.3852 C   0  0  0  0  0  0  0  0  0  0  0  0
   20.5239    7.8052   52.0444 C   0  0  0  0  0  0  0  0  0  0  0  0
   21.2054    8.9527   51.7600 C   0  0  0  0  0  0  0  0  0  0  0  0
   22.4405    9.1605   52.3706 C   0  0  0  0  0  0  0  0  0  0  0  0
   22.9393    8.2137   53.2366 C   0  0  0  0  0  0  0  0  0  0  0  0
   22.2010    7.0524   53.4958 C   0  0  0  0  0  0  0  0  0  0  0  0
   20.9786    6.8316   52.9009 C   0  0  0  0  0  0  0  0  0  0  0  0
   20.1971    5.6392   53.1530 C   0  0  0  0  0  0  0  0  0  0  0  0
   19.5854    4.6906   53.3639 N   0  0  0  0  0  0  0  0  0  0  0  0
   28.0202    8.9077   55.7851 C   0  0  0  0  0  0  0  0  0  0  0  0
   28.1149    9.5470   57.0094 O   0  0  0  0  0  0  0  0  0  0  0  0
   29.0813    8.4862   55.2606 O   0  0  0  0  0  0  0  0  0  0  0  0
   28.9226   10.1083   57.2777 H   0  0  0  0  0  0  0  0  0  0  0  0
   23.1635    9.5795   55.7788 C   0  0  0  0  0  0  0  0  0  0  0  0
   22.2268   10.0008   56.3059 N   0  0  0  0  0  0  0  0  0  0  0  0
  7  8  1  0  0  0
  8  9  2  0  0  0
  9 10  1  0  0  0
 10 11  2  0  0  0
 11 12  1  0  0  0
 12 13  2  0  0  0
 13 14  1  0  0  0
 14 15  3  0  0  0
 11  1  1  0  0  0
  1  2  2  0  0  0
  2  3  1  0  0  0
  3  4  2  0  0  0
  4  5  1  0  0  0
  5  6  2  0  0  0
  6 20  1  0  0  0
 20 21  3  0  0  0
  4 16  1  0  0  0
 16 17  1  0  0  0
 16 18  2  0  0  0
 13  8  1  0  0  0
  6  1  1  0  0  0
 17 19  1  0  0  0
M  END
> <minimizedAffinity>
4.67772

> <CNNscore>
0.6294590235

> <CNNaffinity>
5.3973388672

> <CNN_VS>
3.3974037170

> <CNNaffinity_variance>
0.1024570018

$$$$
[H]OC(=O)c1c([H])c([H])c(-c2c([H])c([H])c(C([H])([H])[H])c(C#N)c2[H])c(C#N)c1[H]


 21 22  0  0  0  0  0  0  0  0999 V2000
   22.0479    9.1554   53.2571 C   0  0  0  0  0  0  0  0  0  0  0  0
   22.2429   10.2800   54.0643 C   0  0  0  0  0  0  0  0  0  0  0  0
   21.9013   11.5514   53.6587 C   0  0  0  0  0  0  0  0  0  0  0  0
   21.3445   11.7463   52.4136 C   0  0  0  0  0  0  0  0  0  0  0  0
   21.1492   10.6447   51.6121 C   0  0  0  0  0  0  0  0  0  0  0  0
   21.4922    9.3513   52.0132 C   0  0  0  0  0  0  0  0  0  0  0  0
   23.3539    3.9409   55.0516 C   0  0  0  0  0  0  0  0  0  0  0  0
   23.0097    5.3117   54.5758 C   0  0  0  0  0  0  0  0  0  0  0  0
   23.9417    6.2964   54.7297 C   0  0  0  0  0  0  0  0  0  0  0  0
   23.6301    7.5809   54.2885 C   0  0  0  0  0  0  0  0  0  0  0  0
   22.4028    7.8241   53.7144 C   0  0  0  0  0  0  0  0  0  0  0  0
   21.4804    6.7792   53.5788 C   0  0  0  0  0  0  0  0  0  0  0  0
   21.7725    5.5039   54.0094 C   0  0  0  0  0  0  0  0  0  0  0  0
   20.8357    4.4077   53.8801 C   0  0  0  0  0  0  0  0  0  0  0  0
   20.0824    3.5474   53.7752 N   0  0  0  0  0  0  0  0  0  0  0  0
   20.9611   13.0699   51.9269 C   0  0  0  0  0  0  0  0  0  0  0  0
   21.6165   13.6859   50.8744 O   0  0  0  0  0  0  0  0  0  0  0  0
   20.0088   13.6873   52.4661 O   0  0  0  0  0  0  0  0  0  0  0  0
   21.7335   14.6968   50.8134 H   0  0  0  0  0  0  0  0  0  0  0  0
   21.2620    8.2486   51.0882 C   0  0  0  0  0  0  0  0  0  0  0  0
   21.0583    7.3737   50.3630 N   0  0  0  0  0  0  0  0  0  0  0  0
  7  8  1  0  0  0
  8  9  2  0  0  0
  9 10  1  0  0  0
 10 11  2  0  0  0
 11 12  1  0  0  0
 12 13  2  0  0  0
 13 14  1  0  0  0
 14 15  3  0  0  0
 11  1  1  0  0  0
  1  2  2  0  0  0
  2  3  1  0  0  0
  3  4  2  0  0  0
  4  5  1  0  0  0
  5  6  2  0  0  0
  6 20  1  0  0  0
 20 21  3  0  0  0
  4 16  1  0  0  0
 16 17  1  0  0  0
 16 18  2  0  0  0
 13  8  1  0  0  0
  6  1  1  0  0  0
 17 19  1  0  0  0
M  END
> <minimizedAffinity>
21.39772

> <CNNscore>
0.6089607477

> <CNNaffinity>
5.3309650421

> <CNN_VS>
3.2463483810

> <CNNaffinity_variance>
0.2969323695

$$$$
[H]OC(=O)c1c([H])c([H])c(-c2c([H])c([H])c(C([H])([H])[H])c(C#N)c2[H])c(C#N)c1[H]


 21 22  0  0  0  0  0  0  0  0999 V2000
   25.0428    8.7199   55.1614 C   0  0  0  0  0  0  0  0  0  0  0  0
   24.7930    9.0258   56.5025 C   0  0  0  0  0  0  0  0  0  0  0  0
   25.7939    9.3778   57.3811 C   0  0  0  0  0  0  0  0  0  0  0  0
   27.0990    9.4373   56.9437 C   0  0  0  0  0  0  0  0  0  0  0  0
   27.3542    9.1374   55.6250 C   0  0  0  0  0  0  0  0  0  0  0  0
   26.3471    8.7790   54.7258 C   0  0  0  0  0  0  0  0  0  0  0  0
   20.8145    7.4149   51.6209 C   0  0  0  0  0  0  0  0  0  0  0  0
   21.9291    7.7599   52.5496 C   0  0  0  0  0  0  0  0  0  0  0  0
   22.5456    6.7419   53.2172 C   0  0  0  0  0  0  0  0  0  0  0  0
   23.5882    7.0534   54.0875 C   0  0  0  0  0  0  0  0  0  0  0  0
   23.9677    8.3664   54.2521 C   0  0  0  0  0  0  0  0  0  0  0  0
   23.3035    9.3752   53.5437 C   0  0  0  0  0  0  0  0  0  0  0  0
   22.2711    9.0844   52.6795 C   0  0  0  0  0  0  0  0  0  0  0  0
   21.5694   10.1097   51.9362 C   0  0  0  0  0  0  0  0  0  0  0  0
   21.0160   10.9163   51.3348 N   0  0  0  0  0  0  0  0  0  0  0  0
   28.2038    9.8043   57.8271 C   0  0  0  0  0  0  0  0  0  0  0  0
   28.8036    8.8893   58.6755 O   0  0  0  0  0  0  0  0  0  0  0  0
   28.6397   10.9827   57.8337 O   0  0  0  0  0  0  0  0  0  0  0  0
   29.1892    9.1487   59.5829 H   0  0  0  0  0  0  0  0  0  0  0  0
   26.7170    8.4632   53.3517 C   0  0  0  0  0  0  0  0  0  0  0  0
   27.0144    8.2351   52.2598 N   0  0  0  0  0  0  0  0  0  0  0  0
  7  8  1  0  0  0
  8  9  2  0  0  0
  9 10  1  0  0  0
 10 11  2  0  0  0
 11 12  1  0  0  0
 12 13  2  0  0  0
 13 14  1  0  0  0
 14 15  3  0  0  0
 11  1  1  0  0  0
  1  2  2  0  0  0
  2  3  1  0  0  0
  3  4  2  0  0  0
  4  5  1  0  0  0
  5  6  2  0  0  0
  6 20  1  0  0  0
 20 21  3  0  0  0
  4 16  1  0  0  0
 16 17  1  0  0  0
 16 18  2  0  0  0
 13  8  1  0  0  0
  6  1  1  0  0  0
 17 19  1  0  0  0
M  END
> <minimizedAffinity>
9.91053

> <CNNscore>
0.6056959629

> <CNNaffinity>
5.0609364510

> <CNN_VS>
3.0653886795

> <CNNaffinity_variance>
0.2885419428

$$$$
[H]OC(=O)c1c([H])c([H])c(-c2c([H])c([H])c(C([H])([H])[H])c(C#N)c2[H])c(C#N)c1[H]


 21 22  0  0  0  0  0  0  0  0999 V2000
   23.9105    8.5732   54.3752 C   0  0  0  0  0  0  0  0  0  0  0  0
   24.0844    9.6424   55.2590 C   0  0  0  0  0  0  0  0  0  0  0  0
   25.2566    9.8468   55.9531 C   0  0  0  0  0  0  0  0  0  0  0  0
   26.3117    8.9768   55.7859 C   0  0  0  0  0  0  0  0  0  0  0  0
   26.1492    7.9212   54.9180 C   0  0  0  0  0  0  0  0  0  0  0  0
   24.9650    7.7044   54.2094 C   0  0  0  0  0  0  0  0  0  0  0  0
   19.0770    7.7725   51.5267 C   0  0  0  0  0  0  0  0  0  0  0  0
   20.3470    7.9828   52.2796 C   0  0  0  0  0  0  0  0  0  0  0  0
   21.0165    9.1569   52.0920 C   0  0  0  0  0  0  0  0  0  0  0  0
   22.2043    9.3635   52.7907 C   0  0  0  0  0  0  0  0  0  0  0  0
   22.6698    8.3889   53.6442 C   0  0  0  0  0  0  0  0  0  0  0  0
   21.9457    7.2008   53.8024 C   0  0  0  0  0  0  0  0  0  0  0  0
   20.7699    6.9808   53.1196 C   0  0  0  0  0  0  0  0  0  0  0  0
   20.0038    5.7612   53.2665 C   0  0  0  0  0  0  0  0  0  0  0  0
   19.3980    4.7912   53.3695 N   0  0  0  0  0  0  0  0  0  0  0  0
   27.5800    9.1405   56.4934 C   0  0  0  0  0  0  0  0  0  0  0  0
   27.6566    9.1469   57.8757 O   0  0  0  0  0  0  0  0  0  0  0  0
   28.6478    9.2818   55.8466 O   0  0  0  0  0  0  0  0  0  0  0  0
   28.3426    9.7008   58.3876 H   0  0  0  0  0  0  0  0  0  0  0  0
   24.8815    6.5491   53.3246 C   0  0  0  0  0  0  0  0  0  0  0  0
   24.8119    5.6208   52.6418 N   0  0  0  0  0  0  0  0  0  0  0  0
  7  8  1  0  0  0
  8  9  2  0  0  0
  9 10  1  0  0  0
 10 11  2  0  0  0
 11 12  1  0  0  0
 12 13  2  0  0  0
 13 14  1  0  0  0
 14 15  3  0  0  0
 11  1  1  0  0  0
  1  2  2  0  0  0
  2  3  1  0  0  0
  3  4  2  0  0  0
  4  5  1  0  0  0
  5  6  2  0  0  0
  6 20  1  0  0  0
 20 21  3  0  0  0
  4 16  1  0  0  0
 16 17  1  0  0  0
 16 18  2  0  0  0
 13  8  1  0  0  0
  6  1  1  0  0  0
 17 19  1  0  0  0
M  END
> <minimizedAffinity>
8.89686

> <CNNscore>
0.6014604568

> <CNNaffinity>
5.2628717422

> <CNN_VS>
3.1654093266

> <CNNaffinity_variance>
0.3331541419

$$$$
[H]OC(=O)c1c([H])c([H])c(-c2c([H])c([H])c(C([H])([H])[H])c(C#N)c2[H])c(C#N)c1[H]


 21 22  0  0  0  0  0  0  0  0999 V2000
   24.9230    8.7864   54.6988 C   0  0  0  0  0  0  0  0  0  0  0  0
   26.2193    8.2717   54.6034 C   0  0  0  0  0  0  0  0  0  0  0  0
   27.1969    8.5493   55.5334 C   0  0  0  0  0  0  0  0  0  0  0  0
   26.9090    9.3631   56.6072 C   0  0  0  0  0  0  0  0  0  0  0  0
   25.6354    9.8745   56.7088 C   0  0  0  0  0  0  0  0  0  0  0  0
   24.6367    9.5998   55.7715 C   0  0  0  0  0  0  0  0  0  0  0  0
   20.9107    7.6001   50.8763 C   0  0  0  0  0  0  0  0  0  0  0  0
   21.9680    7.9149   51.8798 C   0  0  0  0  0  0  0  0  0  0  0  0
   22.7749    6.8982   52.3010 C   0  0  0  0  0  0  0  0  0  0  0  0
   23.7661    7.1816   53.2385 C   0  0  0  0  0  0  0  0  0  0  0  0
   23.9065    8.4662   53.7130 C   0  0  0  0  0  0  0  0  0  0  0  0
   23.0532    9.4749   53.2490 C   0  0  0  0  0  0  0  0  0  0  0  0
   22.0686    9.2119   52.3224 C   0  0  0  0  0  0  0  0  0  0  0  0
   21.1746   10.2377   51.8278 C   0  0  0  0  0  0  0  0  0  0  0  0
   20.4702   11.0488   51.4225 N   0  0  0  0  0  0  0  0  0  0  0  0
   27.9029    9.6939   57.6263 C   0  0  0  0  0  0  0  0  0  0  0  0
   28.6880   10.8314   57.5474 O   0  0  0  0  0  0  0  0  0  0  0  0
   28.0672    8.9359   58.6147 O   0  0  0  0  0  0  0  0  0  0  0  0
   29.6431   10.8682   57.9022 H   0  0  0  0  0  0  0  0  0  0  0  0
   23.3214   10.2006   55.9553 C   0  0  0  0  0  0  0  0  0  0  0  0
   22.2868   10.6854   56.1205 N   0  0  0  0  0  0  0  0  0  0  0  0
  7  8  1  0  0  0
  8  9  2  0  0  0
  9 10  1  0  0  0
 10 11  2  0  0  0
 11 12  1  0  0  0
 12 13  2  0  0  0
 13 14  1  0  0  0
 14 15  3  0  0  0
 11  1  1  0  0  0
  1  2  2  0  0  0
  2  3  1  0  0  0
  3  4  2  0  0  0
  4  5  1  0  0  0
  5  6  2  0  0  0
  6 20  1  0  0  0
 20 21  3  0  0  0
  4 16  1  0  0  0
 16 17  1  0  0  0
 16 18  2  0  0  0
 13  8  1  0  0  0
  6  1  1  0  0  0
 17 19  1  0  0  0
M  END
> <minimizedAffinity>
11.42680

> <CNNscore>
0.5800060630

> <CNNaffinity>
5.1657171249

> <CNN_VS>
2.9961471558

> <CNNaffinity_variance>
0.1352859885

$$$$
[H]OC(=O)c1c([H])c([H])c(-c2c([H])c([H])c(C([H])([H])[H])c(C#N)c2[H])c(C#N)c1[H]


 21 22  0  0  0  0  0  0  0  0999 V2000
   23.8672    8.1054   53.5703 C   0  0  0  0  0  0  0  0  0  0  0  0
   23.1913    9.0255   52.7635 C   0  0  0  0  0  0  0  0  0  0  0  0
   21.8660    8.8754   52.4187 C   0  0  0  0  0  0  0  0  0  0  0  0
   21.1594    7.7843   52.8749 C   0  0  0  0  0  0  0  0  0  0  0  0
   21.8170    6.8732   53.6696 C   0  0  0  0  0  0  0  0  0  0  0  0
   23.1604    7.0154   54.0250 C   0  0  0  0  0  0  0  0  0  0  0  0
   29.2828    8.8914   55.0436 C   0  0  0  0  0  0  0  0  0  0  0  0
   27.8574    8.6817   54.6584 C   0  0  0  0  0  0  0  0  0  0  0  0
   27.5828    8.3831   53.3556 C   0  0  0  0  0  0  0  0  0  0  0  0
   26.2541    8.1852   52.9852 C   0  0  0  0  0  0  0  0  0  0  0  0
   25.2605    8.2948   53.9315 C   0  0  0  0  0  0  0  0  0  0  0  0
   25.5941    8.6031   55.2561 C   0  0  0  0  0  0  0  0  0  0  0  0
   26.9022    8.8015   55.6390 C   0  0  0  0  0  0  0  0  0  0  0  0
   27.2718    9.1210   57.0018 C   0  0  0  0  0  0  0  0  0  0  0  0
   27.5783    9.3714   58.0797 N   0  0  0  0  0  0  0  0  0  0  0  0
   19.7521    7.5698   52.5440 C   0  0  0  0  0  0  0  0  0  0  0  0
   18.8502    7.0557   53.4598 O   0  0  0  0  0  0  0  0  0  0  0  0
   19.3249    7.8541   51.3971 O   0  0  0  0  0  0  0  0  0  0  0  0
   18.0638    6.4664   53.1884 H   0  0  0  0  0  0  0  0  0  0  0  0
   23.7753    5.9895   54.8582 C   0  0  0  0  0  0  0  0  0  0  0  0
   24.2416    5.1696   55.5238 N   0  0  0  0  0  0  0  0  0  0  0  0
  7  8  1  0  0  0
  8  9  2  0  0  0
  9 10  1  0  0  0
 10 11  2  0  0  0
 11 12  1  0  0  0
 12 13  2  0  0  0
 13 14  1  0  0  0
 14 15  3  0  0  0
 11  1  1  0  0  0
  1  2  2  0  0  0
  2  3  1  0  0  0
  3  4  2  0  0  0
  4  5  1  0  0  0
  5  6  2  0  0  0
  6 20  1  0  0  0
 20 21  3  0  0  0
  4 16  1  0  0  0
 16 17  1  0  0  0
 16 18  2  0  0  0
 13  8  1  0  0  0
  6  1  1  0  0  0
 17 19  1  0  0  0
M  END
> <minimizedAffinity>
3.15334

> <CNNscore>
0.5533103943

> <CNNaffinity>
5.4369487762

> <CNN_VS>
3.0083203316

> <CNNaffinity_variance>
0.4077581763

$$$$
[H]OC(=O)c1c([H])c([H])c(-c2c([H])c([H])c(C([H])([H])[H])c(C#N)c2[H])c(C#N)c1[H]


 21 22  0  0  0  0  0  0  0  0999 V2000
   24.4010    8.2778   54.4602 C   0  0  0  0  0  0  0  0  0  0  0  0
   24.8976    9.3279   55.2380 C   0  0  0  0  0  0  0  0  0  0  0  0
   26.2448    9.5157   55.4560 C   0  0  0  0  0  0  0  0  0  0  0  0
   27.1564    8.6476   54.8961 C   0  0  0  0  0  0  0  0  0  0  0  0
   26.6763    7.6106   54.1291 C   0  0  0  0  0  0  0  0  0  0  0  0
   25.3126    7.4108   53.9019 C   0  0  0  0  0  0  0  0  0  0  0  0
   18.8271    7.6477   53.6526 C   0  0  0  0  0  0  0  0  0  0  0  0
   20.2935    7.8173   53.8645 C   0  0  0  0  0  0  0  0  0  0  0  0
   21.1429    7.1162   53.0587 C   0  0  0  0  0  0  0  0  0  0  0  0
   22.5150    7.2675   53.2484 C   0  0  0  0  0  0  0  0  0  0  0  0
   22.9768    8.1109   54.2335 C   0  0  0  0  0  0  0  0  0  0  0  0
   22.0642    8.8085   55.0343 C   0  0  0  0  0  0  0  0  0  0  0  0
   20.7049    8.6706   54.8599 C   0  0  0  0  0  0  0  0  0  0  0  0
   19.7421    9.3810   55.6750 C   0  0  0  0  0  0  0  0  0  0  0  0
   18.9814    9.9562   56.3146 N   0  0  0  0  0  0  0  0  0  0  0  0
   28.5974    8.7943   55.0905 C   0  0  0  0  0  0  0  0  0  0  0  0
   29.1518    9.9260   55.6638 O   0  0  0  0  0  0  0  0  0  0  0  0
   29.3774    7.8763   54.7332 O   0  0  0  0  0  0  0  0  0  0  0  0
   30.0688   10.2851   55.4002 H   0  0  0  0  0  0  0  0  0  0  0  0
   24.8988    6.2743   53.0882 C   0  0  0  0  0  0  0  0  0  0  0  0
   24.5712    5.3876   52.4255 N   0  0  0  0  0  0  0  0  0  0  0  0
  7  8  1  0  0  0
  8  9  2  0  0  0
  9 10  1  0  0  0
 10 11  2  0  0  0
 11 12  1  0  0  0
 12 13  2  0  0  0
 13 14  1  0  0  0
 14 15  3  0  0  0
 11  1  1  0  0  0
  1  2  2  0  0  0
  2  3  1  0  0  0
  3  4  2  0  0  0
  4  5  1  0  0  0
  5  6  2  0  0  0
  6 20  1  0  0  0
 20 21  3  0  0  0
  4 16  1  0  0  0
 16 17  1  0  0  0
 16 18  2  0  0  0
 13  8  1  0  0  0
  6  1  1  0  0  0
 17 19  1  0  0  0
M  END
> <minimizedAffinity>
18.10220

> <CNNscore>
0.5295580626

> <CNNaffinity>
5.0796737671

> <CNN_VS>
2.6899821758

> <CNNaffinity_variance>
0.2950908244

$$$$
[H]OC(=O)c1c(O[H])c([H])c2c([H])c(O[H])c(O[H])c([H])c2c1[H]


 20 21  0  0  0  0  0  0  0  0999 V2000
   21.6573   10.0487   52.1024 C   0  0  0  0  0  0  0  0  0  0  0  0
   22.7707    9.7799   52.9182 C   0  0  0  0  0  0  0  0  0  0  0  0
   22.9938    8.4811   53.3151 C   0  0  0  0  0  0  0  0  0  0  0  0
   24.1049    8.2354   54.1251 C   0  0  0  0  0  0  0  0  0  0  0  0
   24.3485    6.9504   54.5335 C   0  0  0  0  0  0  0  0  0  0  0  0
   25.4398    6.6532   55.3395 O   0  0  0  0  0  0  0  0  0  0  0  0
   23.5028    5.9103   54.1472 C   0  0  0  0  0  0  0  0  0  0  0  0
   23.7573    4.6050   54.5670 O   0  0  0  0  0  0  0  0  0  0  0  0
   22.4157    6.1503   53.3549 C   0  0  0  0  0  0  0  0  0  0  0  0
   22.1614    7.4515   52.9361 C   0  0  0  0  0  0  0  0  0  0  0  0
   21.0703    7.7044   52.1386 C   0  0  0  0  0  0  0  0  0  0  0  0
   20.8357    9.0304   51.7286 C   0  0  0  0  0  0  0  0  0  0  0  0
   19.7341    9.1886   50.9416 O   0  0  0  0  0  0  0  0  0  0  0  0
   26.0779    7.3743   55.6429 H   0  0  0  0  0  0  0  0  0  0  0  0
   23.1232    3.8830   54.2665 H   0  0  0  0  0  0  0  0  0  0  0  0
   19.2719    9.9005   50.4904 H   0  0  0  0  0  0  0  0  0  0  0  0
   21.1435   11.8195   50.4001 O   0  0  0  0  0  0  0  0  0  0  0  0
   21.4258   11.4197   51.6861 C   0  0  0  0  0  0  0  0  0  0  0  0
   21.4813   12.3594   52.5616 O   0  0  0  0  0  0  0  0  0  0  0  0
   21.9497   12.0498   49.8098 H   0  0  0  0  0  0  0  0  0  0  0  0
 17 18  1  0  0  0
 18 19  2  0  0  0
 18  1  1  0  0  0
  1  2  2  0  0  0
  2  3  1  0  0  0
  3  4  2  0  0  0
  4  5  1  0  0  0
  5  6  1  0  0  0
  5  7  2  0  0  0
  7  8  1  0  0  0
  7  9  1  0  0  0
  9 10  2  0  0  0
 10 11  1  0  0  0
 11 12  2  0  0  0
 12 13  1  0  0  0
 12  1  1  0  0  0
 10  3  1  0  0  0
 17 20  1  0  0  0
  6 14  1  0  0  0
  8 15  1  0  0  0
 13 16  1  0  0  0
M  END
> <minimizedAffinity>
2.78568

> <CNNscore>
0.7134457827

> <CNNaffinity>
5.4507994652

> <CNN_VS>
3.8888499737

> <CNNaffinity_variance>
0.3242819309

$$$$
[H]OC(=O)c1c(O[H])c([H])c2c([H])c(O[H])c(O[H])c([H])c2c1[H]


 20 21  0  0  0  0  0  0  0  0999 V2000
   25.9638    8.3330   54.9221 C   0  0  0  0  0  0  0  0  0  0  0  0
   24.7267    8.6486   55.5115 C   0  0  0  0  0  0  0  0  0  0  0  0
   23.5750    8.3169   54.8349 C   0  0  0  0  0  0  0  0  0  0  0  0
   22.3568    8.6391   55.4376 C   0  0  0  0  0  0  0  0  0  0  0  0
   21.1959    8.3192   54.7838 C   0  0  0  0  0  0  0  0  0  0  0  0
   19.9589    8.6179   55.3400 O   0  0  0  0  0  0  0  0  0  0  0  0
   21.2322    7.6848   53.5418 C   0  0  0  0  0  0  0  0  0  0  0  0
   20.0463    7.3624   52.8826 O   0  0  0  0  0  0  0  0  0  0  0  0
   22.4238    7.3695   52.9520 C   0  0  0  0  0  0  0  0  0  0  0  0
   23.6065    7.6907   53.6088 C   0  0  0  0  0  0  0  0  0  0  0  0
   24.8111    7.3781   53.0245 C   0  0  0  0  0  0  0  0  0  0  0  0
   25.9934    7.7142   53.7106 C   0  0  0  0  0  0  0  0  0  0  0  0
   27.1392    7.3677   53.0587 O   0  0  0  0  0  0  0  0  0  0  0  0
   19.8852    9.0764   56.2364 H   0  0  0  0  0  0  0  0  0  0  0  0
   20.1156    6.9050   51.9883 H   0  0  0  0  0  0  0  0  0  0  0  0
   28.0885    7.4271   53.1971 H   0  0  0  0  0  0  0  0  0  0  0  0
   27.2204    9.1919   56.9174 O   0  0  0  0  0  0  0  0  0  0  0  0
   27.1758    8.6845   55.6391 C   0  0  0  0  0  0  0  0  0  0  0  0
   28.3143    8.5220   55.0647 O   0  0  0  0  0  0  0  0  0  0  0  0
   27.1839   10.2132   57.0011 H   0  0  0  0  0  0  0  0  0  0  0  0
 17 18  1  0  0  0
 18 19  2  0  0  0
 18  1  1  0  0  0
  1  2  2  0  0  0
  2  3  1  0  0  0
  3  4  2  0  0  0
  4  5  1  0  0  0
  5  6  1  0  0  0
  5  7  2  0  0  0
  7  8  1  0  0  0
  7  9  1  0  0  0
  9 10  2  0  0  0
 10 11  1  0  0  0
 11 12  2  0  0  0
 12 13  1  0  0  0
 12  1  1  0  0  0
 10  3  1  0  0  0
 17 20  1  0  0  0
  6 14  1  0  0  0
  8 15  1  0  0  0
 13 16  1  0  0  0
M  END
> <minimizedAffinity>
0.31960

> <CNNscore>
0.6969963312

> <CNNaffinity>
5.1109571457

> <CNN_VS>
3.5623183250

> <CNNaffinity_variance>
0.2254851609

$$$$
[H]OC(=O)c1c(O[H])c([H])c2c([H])c(O[H])c(O[H])c([H])c2c1[H]


 20 21  0  0  0  0  0  0  0  0999 V2000
   21.7363   10.3401   52.7392 C   0  0  0  0  0  0  0  0  0  0  0  0
   22.3443    9.1417   52.3253 C   0  0  0  0  0  0  0  0  0  0  0  0
   22.6047    8.1779   53.2726 C   0  0  0  0  0  0  0  0  0  0  0  0
   23.2090    6.9949   52.8408 C   0  0  0  0  0  0  0  0  0  0  0  0
   23.4786    6.0199   53.7651 C   0  0  0  0  0  0  0  0  0  0  0  0
   24.0783    4.8256   53.3873 O   0  0  0  0  0  0  0  0  0  0  0  0
   23.1553    6.2070   55.1093 C   0  0  0  0  0  0  0  0  0  0  0  0
   23.4328    5.2100   56.0440 O   0  0  0  0  0  0  0  0  0  0  0  0
   22.5641    7.3641   55.5320 C   0  0  0  0  0  0  0  0  0  0  0  0
   22.2872    8.3586   54.6004 C   0  0  0  0  0  0  0  0  0  0  0  0
   21.6925    9.5269   55.0148 C   0  0  0  0  0  0  0  0  0  0  0  0
   21.4231   10.5173   54.0515 C   0  0  0  0  0  0  0  0  0  0  0  0
   20.8334   11.6405   54.5502 O   0  0  0  0  0  0  0  0  0  0  0  0
   24.3294    4.6474   52.4258 H   0  0  0  0  0  0  0  0  0  0  0  0
   23.1839    5.3839   57.0040 H   0  0  0  0  0  0  0  0  0  0  0  0
   20.5142   12.4869   54.2253 H   0  0  0  0  0  0  0  0  0  0  0  0
   21.8069   12.6822   51.8406 O   0  0  0  0  0  0  0  0  0  0  0  0
   21.4634   11.3538   51.7369 C   0  0  0  0  0  0  0  0  0  0  0  0
   20.8547   11.0191   50.6552 O   0  0  0  0  0  0  0  0  0  0  0  0
   21.1123   13.2971   52.2776 H   0  0  0  0  0  0  0  0  0  0  0  0
 17 18  1  0  0  0
 18 19  2  0  0  0
 18  1  1  0  0  0
  1  2  2  0  0  0
  2  3  1  0  0  0
  3  4  2  0  0  0
  4  5  1  0  0  0
  5  6  1  0  0  0
  5  7  2  0  0  0
  7  8  1  0  0  0
  7  9  1  0  0  0
  9 10  2  0  0  0
 10 11  1  0  0  0
 11 12  2  0  0  0
 12 13  1  0  0  0
 12  1  1  0  0  0
 10  3  1  0  0  0
 17 20  1  0  0  0
  6 14  1  0  0  0
  8 15  1  0  0  0
 13 16  1  0  0  0
M  END
> <minimizedAffinity>
0.39509

> <CNNscore>
0.6716951132

> <CNNaffinity>
5.3943367004

> <CNN_VS>
3.6233496666

> <CNNaffinity_variance>
0.2745519578

$$$$
[H]OC(=O)c1c(O[H])c([H])c2c([H])c(O[H])c(O[H])c([H])c2c1[H]


 20 21  0  0  0  0  0  0  0  0999 V2000
   26.2764    8.4236   54.5370 C   0  0  0  0  0  0  0  0  0  0  0  0
   25.4274    7.8809   53.5562 C   0  0  0  0  0  0  0  0  0  0  0  0
   24.0674    8.0114   53.7219 C   0  0  0  0  0  0  0  0  0  0  0  0
   23.2417    7.4653   52.7365 C   0  0  0  0  0  0  0  0  0  0  0  0
   21.8839    7.5822   52.8787 C   0  0  0  0  0  0  0  0  0  0  0  0
   21.0195    7.0567   51.9272 O   0  0  0  0  0  0  0  0  0  0  0  0
   21.3394    8.2335   53.9858 C   0  0  0  0  0  0  0  0  0  0  0  0
   19.9565    8.3484   54.1235 O   0  0  0  0  0  0  0  0  0  0  0  0
   22.1470    8.7678   54.9500 C   0  0  0  0  0  0  0  0  0  0  0  0
   23.5259    8.6535   54.8133 C   0  0  0  0  0  0  0  0  0  0  0  0
   24.3478    9.1874   55.7775 C   0  0  0  0  0  0  0  0  0  0  0  0
   25.7400    9.0579   55.6148 C   0  0  0  0  0  0  0  0  0  0  0  0
   26.4771    9.6157   56.6166 O   0  0  0  0  0  0  0  0  0  0  0  0
   21.3694    6.5774   51.1103 H   0  0  0  0  0  0  0  0  0  0  0  0
   19.6036    8.8257   54.9368 H   0  0  0  0  0  0  0  0  0  0  0  0
   27.4032    9.7256   56.8491 H   0  0  0  0  0  0  0  0  0  0  0  0
   28.3416    7.1610   53.8746 O   0  0  0  0  0  0  0  0  0  0  0  0
   27.7100    8.2838   54.3583 C   0  0  0  0  0  0  0  0  0  0  0  0
   28.4796    9.2664   54.6659 O   0  0  0  0  0  0  0  0  0  0  0  0
   28.6218    6.4630   54.5716 H   0  0  0  0  0  0  0  0  0  0  0  0
 17 18  1  0  0  0
 18 19  2  0  0  0
 18  1  1  0  0  0
  1  2  2  0  0  0
  2  3  1  0  0  0
  3  4  2  0  0  0
  4  5  1  0  0  0
  5  6  1  0  0  0
  5  7  2  0  0  0
  7  8  1  0  0  0
  7  9  1  0  0  0
  9 10  2  0  0  0
 10 11  1  0  0  0
 11 12  2  0  0  0
 12 13  1  0  0  0
 12  1  1  0  0  0
 10  3  1  0  0  0
 17 20  1  0  0  0
  6 14  1  0  0  0
  8 15  1  0  0  0
 13 16  1  0  0  0
M  END
> <minimizedAffinity>
-2.86183

> <CNNscore>
0.5780693889

> <CNNaffinity>
4.8909940720

> <CNN_VS>
2.8273339272

> <CNNaffinity_variance>
0.2944897413

$$$$
[H]OC(=O)c1c(O[H])c([H])c2c([H])c(O[H])c(O[H])c([H])c2c1[H]


 20 21  0  0  0  0  0  0  0  0999 V2000
   21.4054   11.2472   52.4354 C   0  0  0  0  0  0  0  0  0  0  0  0
   21.6417   10.6118   53.6674 C   0  0  0  0  0  0  0  0  0  0  0  0
   21.5994    9.2370   53.7143 C   0  0  0  0  0  0  0  0  0  0  0  0
   21.8367    8.6255   54.9476 C   0  0  0  0  0  0  0  0  0  0  0  0
   21.8001    7.2577   55.0202 C   0  0  0  0  0  0  0  0  0  0  0  0
   22.0292    6.6012   56.2223 O   0  0  0  0  0  0  0  0  0  0  0  0
   21.5309    6.4934   53.8845 C   0  0  0  0  0  0  0  0  0  0  0  0
   21.4953    5.1018   53.9664 O   0  0  0  0  0  0  0  0  0  0  0  0
   21.2987    7.0913   52.6780 C   0  0  0  0  0  0  0  0  0  0  0  0
   21.3340    8.4789   52.5957 C   0  0  0  0  0  0  0  0  0  0  0  0
   21.1017    9.0910   51.3867 C   0  0  0  0  0  0  0  0  0  0  0  0
   21.1434   10.4969   51.3309 C   0  0  0  0  0  0  0  0  0  0  0  0
   20.9020   11.0176   50.0946 O   0  0  0  0  0  0  0  0  0  0  0  0
   22.2277    7.1140   57.0691 H   0  0  0  0  0  0  0  0  0  0  0  0
   21.2977    4.5867   53.1241 H   0  0  0  0  0  0  0  0  0  0  0  0
   20.8471   11.8828   49.6796 H   0  0  0  0  0  0  0  0  0  0  0  0
   20.6706   13.5377   53.1507 O   0  0  0  0  0  0  0  0  0  0  0  0
   21.4511   12.6972   52.3905 C   0  0  0  0  0  0  0  0  0  0  0  0
   22.2735   13.2747   51.5889 O   0  0  0  0  0  0  0  0  0  0  0  0
   19.7703   13.8118   52.7436 H   0  0  0  0  0  0  0  0  0  0  0  0
 17 18  1  0  0  0
 18 19  2  0  0  0
 18  1  1  0  0  0
  1  2  2  0  0  0
  2  3  1  0  0  0
  3  4  2  0  0  0
  4  5  1  0  0  0
  5  6  1  0  0  0
  5  7  2  0  0  0
  7  8  1  0  0  0
  7  9  1  0  0  0
  9 10  2  0  0  0
 10 11  1  0  0  0
 11 12  2  0  0  0
 12 13  1  0  0  0
 12  1  1  0  0  0
 10  3  1  0  0  0
 17 20  1  0  0  0
  6 14  1  0  0  0
  8 15  1  0  0  0
 13 16  1  0  0  0
M  END
> <minimizedAffinity>
5.65902

> <CNNscore>
0.5677384138

> <CNNaffinity>
5.2492618561

> <CNN_VS>
2.9802076817

> <CNNaffinity_variance>
0.2089437544

$$$$
[H]OC(=O)c1c(O[H])c([H])c2c([H])c(O[H])c(O[H])c([H])c2c1[H]


 20 21  0  0  0  0  0  0  0  0999 V2000
   21.7797    7.3210   53.9657 C   0  0  0  0  0  0  0  0  0  0  0  0
   21.7196    7.9663   52.7178 C   0  0  0  0  0  0  0  0  0  0  0  0
   21.5912    9.3363   52.6941 C   0  0  0  0  0  0  0  0  0  0  0  0
   21.5333    9.9578   51.4445 C   0  0  0  0  0  0  0  0  0  0  0  0
   21.4055   11.3211   51.3944 C   0  0  0  0  0  0  0  0  0  0  0  0
   21.3434   11.9872   50.1774 O   0  0  0  0  0  0  0  0  0  0  0  0
   21.3348   12.0712   52.5687 C   0  0  0  0  0  0  0  0  0  0  0  0
   21.2048   13.4583   52.5096 O   0  0  0  0  0  0  0  0  0  0  0  0
   21.3915   11.4635   53.7913 C   0  0  0  0  0  0  0  0  0  0  0  0
   21.5211   10.0804   53.8509 C   0  0  0  0  0  0  0  0  0  0  0  0
   21.5790    9.4586   55.0757 C   0  0  0  0  0  0  0  0  0  0  0  0
   21.7103    8.0575   55.1079 C   0  0  0  0  0  0  0  0  0  0  0  0
   21.7599    7.5264   56.3622 O   0  0  0  0  0  0  0  0  0  0  0  0
   21.3907   11.4848   49.3030 H   0  0  0  0  0  0  0  0  0  0  0  0
   21.1573   13.9630   53.3795 H   0  0  0  0  0  0  0  0  0  0  0  0
   21.8409    6.6603   56.7711 H   0  0  0  0  0  0  0  0  0  0  0  0
   20.9353    4.9839   53.6155 O   0  0  0  0  0  0  0  0  0  0  0  0
   21.9152    5.8761   53.9861 C   0  0  0  0  0  0  0  0  0  0  0  0
   23.0240    5.3550   54.3753 O   0  0  0  0  0  0  0  0  0  0  0  0
   20.2990    4.6753   54.3580 H   0  0  0  0  0  0  0  0  0  0  0  0
 17 18  1  0  0  0
 18 19  2  0  0  0
 18  1  1  0  0  0
  1  2  2  0  0  0
  2  3  1  0  0  0
  3  4  2  0  0  0
  4  5  1  0  0  0
  5  6  1  0  0  0
  5  7  2  0  0  0
  7  8  1  0  0  0
  7  9  1  0  0  0
  9 10  2  0  0  0
 10 11  1  0  0  0
 11 12  2  0  0  0
 12 13  1  0  0  0
 12  1  1  0  0  0
 10  3  1  0  0  0
 17 20  1  0  0  0
  6 14  1  0  0  0
  8 15  1  0  0  0
 13 16  1  0  0  0
M  END
> <minimizedAffinity>
1.96563

> <CNNscore>
0.5621230602

> <CNNaffinity>
5.3336753845

> <CNN_VS>
2.9981818199

> <CNNaffinity_variance>
0.3521504402

$$$$
[H]OC(=O)c1c(O[H])c([H])c2c([H])c(O[H])c(O[H])c([H])c2c1[H]


 20 21  0  0  0  0  0  0  0  0999 V2000
   23.3369    8.3479   54.1269 C   0  0  0  0  0  0  0  0  0  0  0  0
   23.0847    8.8287   52.8298 C   0  0  0  0  0  0  0  0  0  0  0  0
   22.3466    9.9819   52.6905 C   0  0  0  0  0  0  0  0  0  0  0  0
   22.1074   10.4426   51.3937 C   0  0  0  0  0  0  0  0  0  0  0  0
   21.3749   11.5888   51.2287 C   0  0  0  0  0  0  0  0  0  0  0  0
   21.1091   12.0886   49.9606 O   0  0  0  0  0  0  0  0  0  0  0  0
   20.8792   12.2799   52.3346 C   0  0  0  0  0  0  0  0  0  0  0  0
   20.1346   13.4458   52.1585 O   0  0  0  0  0  0  0  0  0  0  0  0
   21.1131   11.8295   53.6033 C   0  0  0  0  0  0  0  0  0  0  0  0
   21.8554   10.6671   53.7794 C   0  0  0  0  0  0  0  0  0  0  0  0
   22.0968   10.2049   55.0516 C   0  0  0  0  0  0  0  0  0  0  0  0
   22.8510    9.0259   55.2020 C   0  0  0  0  0  0  0  0  0  0  0  0
   23.0411    8.6417   56.4959 O   0  0  0  0  0  0  0  0  0  0  0  0
   21.4479   11.6213   49.1323 H   0  0  0  0  0  0  0  0  0  0  0  0
   19.7949   13.9149   52.9821 H   0  0  0  0  0  0  0  0  0  0  0  0
   23.4772    7.9325   56.9762 H   0  0  0  0  0  0  0  0  0  0  0  0
   23.7495    5.8960   53.7864 O   0  0  0  0  0  0  0  0  0  0  0  0
   24.1157    7.1314   54.2692 C   0  0  0  0  0  0  0  0  0  0  0  0
   25.2409    7.1755   54.8893 O   0  0  0  0  0  0  0  0  0  0  0  0
   23.1966    5.3080   54.4189 H   0  0  0  0  0  0  0  0  0  0  0  0
 17 18  1  0  0  0
 18 19  2  0  0  0
 18  1  1  0  0  0
  1  2  2  0  0  0
  2  3  1  0  0  0
  3  4  2  0  0  0
  4  5  1  0  0  0
  5  6  1  0  0  0
  5  7  2  0  0  0
  7  8  1  0  0  0
  7  9  1  0  0  0
  9 10  2  0  0  0
 10 11  1  0  0  0
 11 12  2  0  0  0
 12 13  1  0  0  0
 12  1  1  0  0  0
 10  3  1  0  0  0
 17 20  1  0  0  0
  6 14  1  0  0  0
  8 15  1  0  0  0
 13 16  1  0  0  0
M  END
> <minimizedAffinity>
13.10332

> <CNNscore>
0.5510122180

> <CNNaffinity>
4.9857950211

> <CNN_VS>
2.7472338676

> <CNNaffinity_variance>
0.2057172954

$$$$
[H]OC(=O)c1c(O[H])c([H])c2c([H])c(O[H])c(O[H])c([H])c2c1[H]


 20 21  0  0  0  0  0  0  0  0999 V2000
   21.9593    7.4248   52.8734 C   0  0  0  0  0  0  0  0  0  0  0  0
   23.0655    8.2428   52.5828 C   0  0  0  0  0  0  0  0  0  0  0  0
   24.2570    7.9849   53.2217 C   0  0  0  0  0  0  0  0  0  0  0  0
   25.3434    8.8091   52.9189 C   0  0  0  0  0  0  0  0  0  0  0  0
   26.5406    8.5727   53.5420 C   0  0  0  0  0  0  0  0  0  0  0  0
   27.6511    9.3630   53.2761 O   0  0  0  0  0  0  0  0  0  0  0  0
   26.6696    7.5297   54.4597 C   0  0  0  0  0  0  0  0  0  0  0  0
   27.8914    7.2954   55.0898 O   0  0  0  0  0  0  0  0  0  0  0  0
   25.6070    6.7234   54.7560 C   0  0  0  0  0  0  0  0  0  0  0  0
   24.3885    6.9565   54.1281 C   0  0  0  0  0  0  0  0  0  0  0  0
   23.3127    6.1513   54.4188 C   0  0  0  0  0  0  0  0  0  0  0  0
   22.0908    6.4090   53.7693 C   0  0  0  0  0  0  0  0  0  0  0  0
   21.0802    5.5630   54.1171 O   0  0  0  0  0  0  0  0  0  0  0  0
   27.6034   10.1284   52.6194 H   0  0  0  0  0  0  0  0  0  0  0  0
   27.9430    6.5330   55.7454 H   0  0  0  0  0  0  0  0  0  0  0  0
   20.1534    5.4268   53.9017 H   0  0  0  0  0  0  0  0  0  0  0  0
   20.5380    8.6095   51.1781 O   0  0  0  0  0  0  0  0  0  0  0  0
   20.7049    7.7002   52.1974 C   0  0  0  0  0  0  0  0  0  0  0  0
   19.6469    7.0628   52.5534 O   0  0  0  0  0  0  0  0  0  0  0  0
   20.2979    9.5660   51.4590 H   0  0  0  0  0  0  0  0  0  0  0  0
 17 18  1  0  0  0
 18 19  2  0  0  0
 18  1  1  0  0  0
  1  2  2  0  0  0
  2  3  1  0  0  0
  3  4  2  0  0  0
  4  5  1  0  0  0
  5  6  1  0  0  0
  5  7  2  0  0  0
  7  8  1  0  0  0
  7  9  1  0  0  0
  9 10  2  0  0  0
 10 11  1  0  0  0
 11 12  2  0  0  0
 12 13  1  0  0  0
 12  1  1  0  0  0
 10  3  1  0  0  0
 17 20  1  0  0  0
  6 14  1  0  0  0
  8 15  1  0  0  0
 13 16  1  0  0  0
M  END
> <minimizedAffinity>
3.27004

> <CNNscore>
0.5504290462

> <CNNaffinity>
4.9847450256

> <CNN_VS>
2.7437484264

> <CNNaffinity_variance>
0.2409348190

$$$$
[H]OC(=O)c1c(O[H])c([H])c2c([H])c(O[H])c(O[H])c([H])c2c1[H]


 20 21  0  0  0  0  0  0  0  0999 V2000
   22.1211    7.0816   54.7796 C   0  0  0  0  0  0  0  0  0  0  0  0
   22.0614    8.4786   54.9286 C   0  0  0  0  0  0  0  0  0  0  0  0
   21.8169    9.2466   53.8130 C   0  0  0  0  0  0  0  0  0  0  0  0
   21.7616   10.6320   53.9824 C   0  0  0  0  0  0  0  0  0  0  0  0
   21.5196   11.4184   52.8868 C   0  0  0  0  0  0  0  0  0  0  0  0
   21.4549   12.8009   53.0017 O   0  0  0  0  0  0  0  0  0  0  0  0
   21.3326   10.8451   51.6287 C   0  0  0  0  0  0  0  0  0  0  0  0
   21.0867   11.6521   50.5183 O   0  0  0  0  0  0  0  0  0  0  0  0
   21.3866    9.4899   51.4626 C   0  0  0  0  0  0  0  0  0  0  0  0
   21.6318    8.6847   52.5694 C   0  0  0  0  0  0  0  0  0  0  0  0
   21.6883    7.3198   52.4137 C   0  0  0  0  0  0  0  0  0  0  0  0
   21.9379    6.5278   53.5503 C   0  0  0  0  0  0  0  0  0  0  0  0
   21.9768    5.1878   53.3038 O   0  0  0  0  0  0  0  0  0  0  0  0
   21.5841   13.2585   53.8924 H   0  0  0  0  0  0  0  0  0  0  0  0
   20.9573   11.1996   49.6283 H   0  0  0  0  0  0  0  0  0  0  0  0
   22.1137    4.3725   53.7942 H   0  0  0  0  0  0  0  0  0  0  0  0
   21.5898    6.2460   57.0855 O   0  0  0  0  0  0  0  0  0  0  0  0
   22.3790    6.2755   55.9587 C   0  0  0  0  0  0  0  0  0  0  0  0
   23.4174    5.5183   55.9864 O   0  0  0  0  0  0  0  0  0  0  0  0
   21.8198    6.9259   57.8179 H   0  0  0  0  0  0  0  0  0  0  0  0
 17 18  1  0  0  0
 18 19  2  0  0  0
 18  1  1  0  0  0
  1  2  2  0  0  0
  2  3  1  0  0  0
  3  4  2  0  0  0
  4  5  1  0  0  0
  5  6  1  0  0  0
  5  7  2  0  0  0
  7  8  1  0  0  0
  7  9  1  0  0  0
  9 10  2  0  0  0
 10 11  1  0  0  0
 11 12  2  0  0  0
 12 13  1  0  0  0
 12  1  1  0  0  0
 10  3  1  0  0  0
 17 20  1  0  0  0
  6 14  1  0  0  0
  8 15  1  0  0  0
 13 16  1  0  0  0
M  END
> <minimizedAffinity>
0.38422

> <CNNscore>
0.5347064734

> <CNNaffinity>
5.5012426376

> <CNN_VS>
2.9415500164

> <CNNaffinity_variance>
0.3482353389

$$$$
[H]c1c(OC([H])([H])[H])c(OC([H])([H])[H])c(OC([H])([H])[H])c([H])c1C(=O)N([H])[C@@]1([H])C([H])([H])[C@@]2([H])N([H])[C@]([H])(C([H])([H])C2([H])[H])C1([H])[H]


 25 27  0  0  0  0  0  0  0  0999 V2000
   24.3501    8.5515   54.5295 C   0  0  0  0  0  0  0  0  0  0  0  0
   24.4520    7.7250   53.5961 O   0  0  0  0  0  0  0  0  0  0  0  0
   23.0827    9.0355   54.8758 N   0  0  0  0  0  0  0  0  0  0  0  0
   22.9288    9.7319   55.6518 H   0  0  0  0  0  0  0  0  0  0  0  0
   21.8528    8.6133   54.1863 C   0  0  0  0  0  0  0  0  0  0  0  0
   21.9862    9.0789   52.7628 C   0  0  0  0  0  0  0  0  0  0  0  0
   21.3079    8.1814   51.7716 C   0  0  0  0  0  0  0  0  0  0  0  0
   19.8777    8.0083   52.1915 C   0  0  0  0  0  0  0  0  0  0  0  0
   19.8165    6.6062   52.7591 C   0  0  0  0  0  0  0  0  0  0  0  0
   21.2869    6.3952   53.1272 C   0  0  0  0  0  0  0  0  0  0  0  0
   21.5678    7.1767   54.3546 C   0  0  0  0  0  0  0  0  0  0  0  0
   21.9410    6.8638   51.9414 N   0  0  0  0  0  0  0  0  0  0  0  0
   22.9668    7.0015   52.0556 H   0  0  0  0  0  0  0  0  0  0  0  0
   27.9254    8.7648   55.6023 C   0  0  0  0  0  0  0  0  0  0  0  0
   26.7764    8.3670   54.9536 C   0  0  0  0  0  0  0  0  0  0  0  0
   25.5373    8.9700   55.2075 C   0  0  0  0  0  0  0  0  0  0  0  0
   25.4862    9.9824   56.1302 C   0  0  0  0  0  0  0  0  0  0  0  0
   26.6628   10.3655   56.7722 C   0  0  0  0  0  0  0  0  0  0  0  0
   27.8844    9.7822   56.5321 C   0  0  0  0  0  0  0  0  0  0  0  0
   29.3125    7.3716   54.1288 C   0  0  0  0  0  0  0  0  0  0  0  0
   29.1078    8.1188   55.2948 O   0  0  0  0  0  0  0  0  0  0  0  0
   26.6173   11.3856   57.7035 O   0  0  0  0  0  0  0  0  0  0  0  0
   27.4730   12.5040   57.5838 C   0  0  0  0  0  0  0  0  0  0  0  0
   29.0120   10.2086   57.2020 O   0  0  0  0  0  0  0  0  0  0  0  0
   29.1431   10.1726   58.6092 C   0  0  0  0  0  0  0  0  0  0  0  0
 20 21  1  0  0  0
 21 14  1  0  0  0
 14 15  2  0  0  0
 15 16  1  0  0  0
 16 17  2  0  0  0
 17 18  1  0  0  0
 18 22  1  0  0  0
 22 23  1  0  0  0
 18 19  2  0  0  0
 19 24  1  0  0  0
 24 25  1  0  0  0
 16  1  1  0  0  0
  1  2  2  0  0  0
  1  3  1  0  0  0
  3  5  1  0  0  0
  5  6  1  0  0  0
  6  7  1  0  0  0
  7  8  1  0  0  0
  8  9  1  0  0  0
  9 10  1  0  0  0
 10 11  1  0  0  0
 10 12  1  0  0  0
 19 14  1  0  0  0
 11  5  1  0  0  0
 12  7  1  0  0  0
  3  4  1  0  0  0
 12 13  1  0  0  0
M  END
> <minimizedAffinity>
15.46571

> <CNNscore>
0.5890614390

> <CNNaffinity>
5.4136824608

> <CNN_VS>
3.1889915466

> <CNNaffinity_variance>
0.3081467152

$$$$
[H]c1c(OC([H])([H])[H])c(OC([H])([H])[H])c(OC([H])([H])[H])c([H])c1C(=O)N([H])[C@@]1([H])C([H])([H])[C@@]2([H])N([H])[C@]([H])(C([H])([H])C2([H])[H])C1([H])[H]


 25 27  0  0  0  0  0  0  0  0999 V2000
   24.2334    8.4892   54.3368 C   0  0  0  0  0  0  0  0  0  0  0  0
   24.2659    7.6205   53.4373 O   0  0  0  0  0  0  0  0  0  0  0  0
   23.0143    9.1046   54.6460 N   0  0  0  0  0  0  0  0  0  0  0  0
   22.9193    9.8425   55.3925 H   0  0  0  0  0  0  0  0  0  0  0  0
   21.7572    8.7741   53.9556 C   0  0  0  0  0  0  0  0  0  0  0  0
   21.9432    9.1845   52.5211 C   0  0  0  0  0  0  0  0  0  0  0  0
   21.1954    8.3228   51.5483 C   0  0  0  0  0  0  0  0  0  0  0  0
   19.7520    8.2903   51.9577 C   0  0  0  0  0  0  0  0  0  0  0  0
   19.5609    6.9163   52.5637 C   0  0  0  0  0  0  0  0  0  0  0  0
   21.0035    6.5856   52.9532 C   0  0  0  0  0  0  0  0  0  0  0  0
   21.3433    7.3741   54.1612 C   0  0  0  0  0  0  0  0  0  0  0  0
   21.7066    6.9594   51.7618 N   0  0  0  0  0  0  0  0  0  0  0  0
   22.7396    7.0083   51.8830 H   0  0  0  0  0  0  0  0  0  0  0  0
   26.6547   10.1403   56.6584 C   0  0  0  0  0  0  0  0  0  0  0  0
   25.4886    9.8162   55.9994 C   0  0  0  0  0  0  0  0  0  0  0  0
   25.4478    8.8196   55.0153 C   0  0  0  0  0  0  0  0  0  0  0  0
   26.6104    8.1593   54.7131 C   0  0  0  0  0  0  0  0  0  0  0  0
   27.7760    8.5064   55.3943 C   0  0  0  0  0  0  0  0  0  0  0  0
   27.8293    9.4819   56.3615 C   0  0  0  0  0  0  0  0  0  0  0  0
   27.3906   12.2972   57.5762 C   0  0  0  0  0  0  0  0  0  0  0  0
   26.6104   11.1356   57.6162 O   0  0  0  0  0  0  0  0  0  0  0  0
   28.9512    7.8440   55.0936 O   0  0  0  0  0  0  0  0  0  0  0  0
   29.3758    7.7110   53.7523 C   0  0  0  0  0  0  0  0  0  0  0  0
   29.0163    9.7774   56.9987 O   0  0  0  0  0  0  0  0  0  0  0  0
   29.2360   10.9713   57.7231 C   0  0  0  0  0  0  0  0  0  0  0  0
 20 21  1  0  0  0
 21 14  1  0  0  0
 14 15  2  0  0  0
 15 16  1  0  0  0
 16 17  2  0  0  0
 17 18  1  0  0  0
 18 22  1  0  0  0
 22 23  1  0  0  0
 18 19  2  0  0  0
 19 24  1  0  0  0
 24 25  1  0  0  0
 16  1  1  0  0  0
  1  2  2  0  0  0
  1  3  1  0  0  0
  3  5  1  0  0  0
  5  6  1  0  0  0
  6  7  1  0  0  0
  7  8  1  0  0  0
  8  9  1  0  0  0
  9 10  1  0  0  0
 10 11  1  0  0  0
 10 12  1  0  0  0
 19 14  1  0  0  0
 11  5  1  0  0  0
 12  7  1  0  0  0
  3  4  1  0  0  0
 12 13  1  0  0  0
M  END
> <minimizedAffinity>
18.02282

> <CNNscore>
0.5813720226

> <CNNaffinity>
5.3586874008

> <CNN_VS>
3.1153910160

> <CNNaffinity_variance>
0.3260902464

$$$$
[H]c1c(OC([H])([H])[H])c(OC([H])([H])[H])c(OC([H])([H])[H])c([H])c1C(=O)N([H])[C@@]1([H])C([H])([H])[C@@]2([H])N([H])[C@]([H])(C([H])([H])C2([H])[H])C1([H])[H]


 25 27  0  0  0  0  0  0  0  0999 V2000
   24.2518    9.4860   55.8827 C   0  0  0  0  0  0  0  0  0  0  0  0
   23.6306    9.8821   56.8937 O   0  0  0  0  0  0  0  0  0  0  0  0
   25.6499    9.4217   55.9238 N   0  0  0  0  0  0  0  0  0  0  0  0
   26.2317    9.0967   55.1074 H   0  0  0  0  0  0  0  0  0  0  0  0
   26.4304    9.8019   57.1124 C   0  0  0  0  0  0  0  0  0  0  0  0
   27.6363    8.9041   57.1302 C   0  0  0  0  0  0  0  0  0  0  0  0
   28.8555    9.5479   57.7192 C   0  0  0  0  0  0  0  0  0  0  0  0
   28.5034   10.0699   59.0814 C   0  0  0  0  0  0  0  0  0  0  0  0
   28.4046   11.5694   58.8986 C   0  0  0  0  0  0  0  0  0  0  0  0
   28.1295   11.6446   57.3951 C   0  0  0  0  0  0  0  0  0  0  0  0
   26.7202   11.2464   57.1675 C   0  0  0  0  0  0  0  0  0  0  0  0
   29.1116   10.7336   56.8861 N   0  0  0  0  0  0  0  0  0  0  0  0
   28.9655   10.4749   55.8881 H   0  0  0  0  0  0  0  0  0  0  0  0
   22.8619    7.4529   53.0696 C   0  0  0  0  0  0  0  0  0  0  0  0
   23.5785    7.8200   54.1881 C   0  0  0  0  0  0  0  0  0  0  0  0
   23.5054    9.1137   54.7215 C   0  0  0  0  0  0  0  0  0  0  0  0
   22.6931   10.0261   54.0997 C   0  0  0  0  0  0  0  0  0  0  0  0
   21.9793    9.6291   52.9700 C   0  0  0  0  0  0  0  0  0  0  0  0
   22.0422    8.3634   52.4370 C   0  0  0  0  0  0  0  0  0  0  0  0
   24.0102    5.2821   52.9971 C   0  0  0  0  0  0  0  0  0  0  0  0
   22.9895    6.1570   52.6066 O   0  0  0  0  0  0  0  0  0  0  0  0
   21.1587   10.5449   52.3390 O   0  0  0  0  0  0  0  0  0  0  0  0
   21.6855   11.7620   51.8507 C   0  0  0  0  0  0  0  0  0  0  0  0
   21.3094    8.0345   51.3158 O   0  0  0  0  0  0  0  0  0  0  0  0
   19.9138    7.8103   51.3347 C   0  0  0  0  0  0  0  0  0  0  0  0
 20 21  1  0  0  0
 21 14  1  0  0  0
 14 15  2  0  0  0
 15 16  1  0  0  0
 16 17  2  0  0  0
 17 18  1  0  0  0
 18 22  1  0  0  0
 22 23  1  0  0  0
 18 19  2  0  0  0
 19 24  1  0  0  0
 24 25  1  0  0  0
 16  1  1  0  0  0
  1  2  2  0  0  0
  1  3  1  0  0  0
  3  5  1  0  0  0
  5  6  1  0  0  0
  6  7  1  0  0  0
  7  8  1  0  0  0
  8  9  1  0  0  0
  9 10  1  0  0  0
 10 11  1  0  0  0
 10 12  1  0  0  0
 19 14  1  0  0  0
 11  5  1  0  0  0
 12  7  1  0  0  0
  3  4  1  0  0  0
 12 13  1  0  0  0
M  END
> <minimizedAffinity>
17.67827

> <CNNscore>
0.5452353954

> <CNNaffinity>
5.4892525673

> <CNN_VS>
2.9929347038

> <CNNaffinity_variance>
0.1346616298

$$$$
[H]c1c(OC([H])([H])[H])c(OC([H])([H])[H])c(OC([H])([H])[H])c([H])c1C(=O)N([H])[C@@]1([H])C([H])([H])[C@@]2([H])N([H])[C@]([H])(C([H])([H])C2([H])[H])C1([H])[H]


 25 27  0  0  0  0  0  0  0  0999 V2000
   24.4582    8.7621   54.7368 C   0  0  0  0  0  0  0  0  0  0  0  0
   23.3834    9.1914   55.2115 O   0  0  0  0  0  0  0  0  0  0  0  0
   24.4272    7.9900   53.5692 N   0  0  0  0  0  0  0  0  0  0  0  0
   25.2961    7.5993   53.1186 H   0  0  0  0  0  0  0  0  0  0  0  0
   23.1771    7.6567   52.8673 C   0  0  0  0  0  0  0  0  0  0  0  0
   22.4367    6.6970   53.7570 C   0  0  0  0  0  0  0  0  0  0  0  0
   20.9454    6.8132   53.6559 C   0  0  0  0  0  0  0  0  0  0  0  0
   20.5573    6.6799   52.2124 C   0  0  0  0  0  0  0  0  0  0  0  0
   20.2017    8.0877   51.7841 C   0  0  0  0  0  0  0  0  0  0  0  0
   20.9805    8.8956   52.8247 C   0  0  0  0  0  0  0  0  0  0  0  0
   22.4157    8.8509   52.4580 C   0  0  0  0  0  0  0  0  0  0  0  0
   20.6361    8.2024   54.0307 N   0  0  0  0  0  0  0  0  0  0  0  0
   21.2264    8.4642   54.8475 H   0  0  0  0  0  0  0  0  0  0  0  0
   26.9065   10.3745   57.0573 C   0  0  0  0  0  0  0  0  0  0  0  0
   25.7335   10.0638   56.4041 C   0  0  0  0  0  0  0  0  0  0  0  0
   25.6797    9.0787   55.4091 C   0  0  0  0  0  0  0  0  0  0  0  0
   26.8364    8.4161   55.0900 C   0  0  0  0  0  0  0  0  0  0  0  0
   28.0093    8.7496   55.7656 C   0  0  0  0  0  0  0  0  0  0  0  0
   28.0753    9.7137   56.7434 C   0  0  0  0  0  0  0  0  0  0  0  0
   27.6443   12.5278   57.9822 C   0  0  0  0  0  0  0  0  0  0  0  0
   26.8750   11.3590   58.0266 O   0  0  0  0  0  0  0  0  0  0  0  0
   29.1786    8.0848   55.4479 O   0  0  0  0  0  0  0  0  0  0  0  0
   29.3628    7.5347   54.1592 C   0  0  0  0  0  0  0  0  0  0  0  0
   29.2689    9.9960   57.3742 O   0  0  0  0  0  0  0  0  0  0  0  0
   29.3742   10.2684   58.7574 C   0  0  0  0  0  0  0  0  0  0  0  0
 20 21  1  0  0  0
 21 14  1  0  0  0
 14 15  2  0  0  0
 15 16  1  0  0  0
 16 17  2  0  0  0
 17 18  1  0  0  0
 18 22  1  0  0  0
 22 23  1  0  0  0
 18 19  2  0  0  0
 19 24  1  0  0  0
 24 25  1  0  0  0
 16  1  1  0  0  0
  1  2  2  0  0  0
  1  3  1  0  0  0
  3  5  1  0  0  0
  5  6  1  0  0  0
  6  7  1  0  0  0
  7  8  1  0  0  0
  8  9  1  0  0  0
  9 10  1  0  0  0
 10 11  1  0  0  0
 10 12  1  0  0  0
 19 14  1  0  0  0
 11  5  1  0  0  0
 12  7  1  0  0  0
  3  4  1  0  0  0
 12 13  1  0  0  0
M  END
> <minimizedAffinity>
15.77871

> <CNNscore>
0.5442653298

> <CNNaffinity>
5.4015069008

> <CNN_VS>
2.9398529530

> <CNNaffinity_variance>
0.3130131960

$$$$
[H]c1c(OC([H])([H])[H])c(OC([H])([H])[H])c(OC([H])([H])[H])c([H])c1C(=O)N([H])[C@@]1([H])C([H])([H])[C@@]2([H])N([H])[C@]([H])(C([H])([H])C2([H])[H])C1([H])[H]


 25 27  0  0  0  0  0  0  0  0999 V2000
   24.3940    8.2374   53.7165 C   0  0  0  0  0  0  0  0  0  0  0  0
   23.9480    9.1825   53.0290 O   0  0  0  0  0  0  0  0  0  0  0  0
   23.6809    7.0333   53.7636 N   0  0  0  0  0  0  0  0  0  0  0  0
   24.0024    6.1997   54.3228 H   0  0  0  0  0  0  0  0  0  0  0  0
   22.4190    6.8255   53.0351 C   0  0  0  0  0  0  0  0  0  0  0  0
   21.3204    6.9272   54.0566 C   0  0  0  0  0  0  0  0  0  0  0  0
   20.0415    7.4863   53.5093 C   0  0  0  0  0  0  0  0  0  0  0  0
   19.6441    6.6736   52.3120 C   0  0  0  0  0  0  0  0  0  0  0  0
   19.9626    7.5619   51.1283 C   0  0  0  0  0  0  0  0  0  0  0  0
   21.0150    8.4818   51.7514 C   0  0  0  0  0  0  0  0  0  0  0  0
   22.2789    7.7169   51.8692 C   0  0  0  0  0  0  0  0  0  0  0  0
   20.3879    8.8208   52.9946 N   0  0  0  0  0  0  0  0  0  0  0  0
   21.0278    9.2821   53.6743 H   0  0  0  0  0  0  0  0  0  0  0  0
   28.0313    8.1836   54.5805 C   0  0  0  0  0  0  0  0  0  0  0  0
   26.8461    8.0048   53.9003 C   0  0  0  0  0  0  0  0  0  0  0  0
   25.6189    8.4262   54.4293 C   0  0  0  0  0  0  0  0  0  0  0  0
   25.6171    9.0314   55.6592 C   0  0  0  0  0  0  0  0  0  0  0  0
   26.8295    9.2000   56.3262 C   0  0  0  0  0  0  0  0  0  0  0  0
   28.0398    8.7912   55.8182 C   0  0  0  0  0  0  0  0  0  0  0  0
   29.3598    6.4652   53.4322 C   0  0  0  0  0  0  0  0  0  0  0  0
   29.1988    7.7394   53.9893 O   0  0  0  0  0  0  0  0  0  0  0  0
   26.8336    9.8095   57.5667 O   0  0  0  0  0  0  0  0  0  0  0  0
   27.4075    9.1594   58.6826 C   0  0  0  0  0  0  0  0  0  0  0  0
   29.2047    8.9881   56.5299 O   0  0  0  0  0  0  0  0  0  0  0  0
   29.3402    8.6821   57.9034 C   0  0  0  0  0  0  0  0  0  0  0  0
 20 21  1  0  0  0
 21 14  1  0  0  0
 14 15  2  0  0  0
 15 16  1  0  0  0
 16 17  2  0  0  0
 17 18  1  0  0  0
 18 22  1  0  0  0
 22 23  1  0  0  0
 18 19  2  0  0  0
 19 24  1  0  0  0
 24 25  1  0  0  0
 16  1  1  0  0  0
  1  2  2  0  0  0
  1  3  1  0  0  0
  3  5  1  0  0  0
  5  6  1  0  0  0
  6  7  1  0  0  0
  7  8  1  0  0  0
  8  9  1  0  0  0
  9 10  1  0  0  0
 10 11  1  0  0  0
 10 12  1  0  0  0
 19 14  1  0  0  0
 11  5  1  0  0  0
 12  7  1  0  0  0
  3  4  1  0  0  0
 12 13  1  0  0  0
M  END
> <minimizedAffinity>
19.49170

> <CNNscore>
0.5395254493

> <CNNaffinity>
5.1826744080

> <CNN_VS>
2.7961847782

> <CNNaffinity_variance>
0.1941481382

$$$$
[H]c1c(OC([H])([H])[H])c(OC([H])([H])[H])c(OC([H])([H])[H])c([H])c1C(=O)N([H])[C@@]1([H])C([H])([H])[C@@]2([H])N([H])[C@]([H])(C([H])([H])C2([H])[H])C1([H])[H]


 25 27  0  0  0  0  0  0  0  0999 V2000
   20.3747    6.6026   53.1174 C   0  0  0  0  0  0  0  0  0  0  0  0
   19.8550    6.9344   52.0290 O   0  0  0  0  0  0  0  0  0  0  0  0
   19.7969    5.5662   53.8605 N   0  0  0  0  0  0  0  0  0  0  0  0
   20.1857    5.2387   54.7837 H   0  0  0  0  0  0  0  0  0  0  0  0
   18.5949    4.8418   53.4169 C   0  0  0  0  0  0  0  0  0  0  0  0
   18.6700    3.4767   54.0427 C   0  0  0  0  0  0  0  0  0  0  0  0
   17.3285    2.8884   54.3628 C   0  0  0  0  0  0  0  0  0  0  0  0
   16.4940    2.9074   53.1157 C   0  0  0  0  0  0  0  0  0  0  0  0
   15.5047    4.0313   53.3389 C   0  0  0  0  0  0  0  0  0  0  0  0
   16.2627    4.8613   54.3774 C   0  0  0  0  0  0  0  0  0  0  0  0
   17.3497    5.5866   53.6784 C   0  0  0  0  0  0  0  0  0  0  0  0
   16.6949    3.8421   55.2873 N   0  0  0  0  0  0  0  0  0  0  0  0
   17.4107    4.1665   55.9703 H   0  0  0  0  0  0  0  0  0  0  0  0
   23.9604    7.4806   53.7099 C   0  0  0  0  0  0  0  0  0  0  0  0
   22.8296    6.8157   53.2876 C   0  0  0  0  0  0  0  0  0  0  0  0
   21.5427    7.2985   53.5599 C   0  0  0  0  0  0  0  0  0  0  0  0
   21.4251    8.4666   54.2675 C   0  0  0  0  0  0  0  0  0  0  0  0
   22.5846    9.1193   54.6831 C   0  0  0  0  0  0  0  0  0  0  0  0
   23.8526    8.6562   54.4224 C   0  0  0  0  0  0  0  0  0  0  0  0
   26.4161    7.5003   53.7842 C   0  0  0  0  0  0  0  0  0  0  0  0
   25.1930    6.9378   53.4003 O   0  0  0  0  0  0  0  0  0  0  0  0
   22.4721   10.2974   55.3970 O   0  0  0  0  0  0  0  0  0  0  0  0
   21.2228   10.9475   55.5146 C   0  0  0  0  0  0  0  0  0  0  0  0
   24.9600    9.3507   54.8624 O   0  0  0  0  0  0  0  0  0  0  0  0
   25.6039    9.0918   56.0939 C   0  0  0  0  0  0  0  0  0  0  0  0
 20 21  1  0  0  0
 21 14  1  0  0  0
 14 15  2  0  0  0
 15 16  1  0  0  0
 16 17  2  0  0  0
 17 18  1  0  0  0
 18 22  1  0  0  0
 22 23  1  0  0  0
 18 19  2  0  0  0
 19 24  1  0  0  0
 24 25  1  0  0  0
 16  1  1  0  0  0
  1  2  2  0  0  0
  1  3  1  0  0  0
  3  5  1  0  0  0
  5  6  1  0  0  0
  6  7  1  0  0  0
  7  8  1  0  0  0
  8  9  1  0  0  0
  9 10  1  0  0  0
 10 11  1  0  0  0
 10 12  1  0  0  0
 19 14  1  0  0  0
 11  5  1  0  0  0
 12  7  1  0  0  0
  3  4  1  0  0  0
 12 13  1  0  0  0
M  END
> <minimizedAffinity>
17.69576

> <CNNscore>
0.5271156430

> <CNNaffinity>
5.7435531616

> <CNN_VS>
3.0275166035

> <CNNaffinity_variance>
0.4017979503

$$$$
[H]c1c(OC([H])([H])[H])c(OC([H])([H])[H])c(OC([H])([H])[H])c([H])c1C(=O)N([H])[C@@]1([H])C([H])([H])[C@@]2([H])N([H])[C@]([H])(C([H])([H])C2([H])[H])C1([H])[H]


 25 27  0  0  0  0  0  0  0  0999 V2000
   20.3484    6.5251   53.1433 C   0  0  0  0  0  0  0  0  0  0  0  0
   19.7732    6.9109   52.1015 O   0  0  0  0  0  0  0  0  0  0  0  0
   19.8213    5.4372   53.8497 N   0  0  0  0  0  0  0  0  0  0  0  0
   20.2578    5.0631   54.7330 H   0  0  0  0  0  0  0  0  0  0  0  0
   18.6104    4.7193   53.4198 C   0  0  0  0  0  0  0  0  0  0  0  0
   18.6464    3.3823   54.1068 C   0  0  0  0  0  0  0  0  0  0  0  0
   17.2879    2.8374   54.4316 C   0  0  0  0  0  0  0  0  0  0  0  0
   16.4724    2.8183   53.1720 C   0  0  0  0  0  0  0  0  0  0  0  0
   15.5047    3.9717   53.3296 C   0  0  0  0  0  0  0  0  0  0  0  0
   16.2654    4.8311   54.3420 C   0  0  0  0  0  0  0  0  0  0  0  0
   17.3781    5.5012   53.6285 C   0  0  0  0  0  0  0  0  0  0  0  0
   16.6617    3.8446   55.3029 N   0  0  0  0  0  0  0  0  0  0  0  0
   17.3744    4.1840   55.9819 H   0  0  0  0  0  0  0  0  0  0  0  0
   22.5801    9.0612   54.7453 C   0  0  0  0  0  0  0  0  0  0  0  0
   21.4503    8.3915   54.3278 C   0  0  0  0  0  0  0  0  0  0  0  0
   21.5256    7.2141   53.5718 C   0  0  0  0  0  0  0  0  0  0  0  0
   22.7665    6.7300   53.2482 C   0  0  0  0  0  0  0  0  0  0  0  0
   23.8931    7.4266   53.6828 C   0  0  0  0  0  0  0  0  0  0  0  0
   23.8328    8.5824   54.4248 C   0  0  0  0  0  0  0  0  0  0  0  0
   21.3520   11.1074   55.3296 C   0  0  0  0  0  0  0  0  0  0  0  0
   22.4197   10.2159   55.4876 O   0  0  0  0  0  0  0  0  0  0  0  0
   25.1468    6.9432   53.3594 O   0  0  0  0  0  0  0  0  0  0  0  0
   26.2487    7.8220   53.2549 C   0  0  0  0  0  0  0  0  0  0  0  0
   24.9867    9.2238   54.8239 O   0  0  0  0  0  0  0  0  0  0  0  0
   25.5480    9.0874   56.1141 C   0  0  0  0  0  0  0  0  0  0  0  0
 20 21  1  0  0  0
 21 14  1  0  0  0
 14 15  2  0  0  0
 15 16  1  0  0  0
 16 17  2  0  0  0
 17 18  1  0  0  0
 18 22  1  0  0  0
 22 23  1  0  0  0
 18 19  2  0  0  0
 19 24  1  0  0  0
 24 25  1  0  0  0
 16  1  1  0  0  0
  1  2  2  0  0  0
  1  3  1  0  0  0
  3  5  1  0  0  0
  5  6  1  0  0  0
  6  7  1  0  0  0
  7  8  1  0  0  0
  8  9  1  0  0  0
  9 10  1  0  0  0
 10 11  1  0  0  0
 10 12  1  0  0  0
 19 14  1  0  0  0
 11  5  1  0  0  0
 12  7  1  0  0  0
  3  4  1  0  0  0
 12 13  1  0  0  0
M  END
> <minimizedAffinity>
17.77996

> <CNNscore>
0.5166581869

> <CNNaffinity>
5.7558479309

> <CNN_VS>
2.9738059044

> <CNNaffinity_variance>
0.3591545224

$$$$
[H]c1c(OC([H])([H])[H])c(OC([H])([H])[H])c(OC([H])([H])[H])c([H])c1C(=O)N([H])[C@@]1([H])C([H])([H])[C@@]2([H])N([H])[C@]([H])(C([H])([H])C2([H])[H])C1([H])[H]


 25 27  0  0  0  0  0  0  0  0999 V2000
   24.2735    7.4053   54.4730 C   0  0  0  0  0  0  0  0  0  0  0  0
   24.2545    6.1558   54.4156 O   0  0  0  0  0  0  0  0  0  0  0  0
   23.0617    8.1067   54.4571 N   0  0  0  0  0  0  0  0  0  0  0  0
   23.0089    9.1582   54.5032 H   0  0  0  0  0  0  0  0  0  0  0  0
   21.7540    7.4361   54.3753 C   0  0  0  0  0  0  0  0  0  0  0  0
   20.8376    8.3852   53.6540 C   0  0  0  0  0  0  0  0  0  0  0  0
   19.7911    7.6986   52.8287 C   0  0  0  0  0  0  0  0  0  0  0  0
   19.0495    6.7367   53.7100 C   0  0  0  0  0  0  0  0  0  0  0  0
   19.5633    5.3732   53.2993 C   0  0  0  0  0  0  0  0  0  0  0  0
   20.9115    5.7613   52.6879 C   0  0  0  0  0  0  0  0  0  0  0  0
   21.8409    6.0829   53.7965 C   0  0  0  0  0  0  0  0  0  0  0  0
   20.5348    6.8721   51.8646 N   0  0  0  0  0  0  0  0  0  0  0  0
   21.3435    7.4238   51.5100 H   0  0  0  0  0  0  0  0  0  0  0  0
   27.5819    8.8480   53.4971 C   0  0  0  0  0  0  0  0  0  0  0  0
   26.3626    8.2091   53.4289 C   0  0  0  0  0  0  0  0  0  0  0  0
   25.5373    8.0690   54.5526 C   0  0  0  0  0  0  0  0  0  0  0  0
   25.9717    8.5883   55.7445 C   0  0  0  0  0  0  0  0  0  0  0  0
   27.2088    9.2295   55.7862 C   0  0  0  0  0  0  0  0  0  0  0  0
   28.0277    9.3736   54.6913 C   0  0  0  0  0  0  0  0  0  0  0  0
   27.8835    9.5368   51.1581 C   0  0  0  0  0  0  0  0  0  0  0  0
   28.3359    8.9441   52.3429 O   0  0  0  0  0  0  0  0  0  0  0  0
   27.6519    9.7550   56.9853 O   0  0  0  0  0  0  0  0  0  0  0  0
   27.9631    8.9035   58.0695 C   0  0  0  0  0  0  0  0  0  0  0  0
   29.2413   10.0196   54.8000 O   0  0  0  0  0  0  0  0  0  0  0  0
   29.3783   11.4267   54.7987 C   0  0  0  0  0  0  0  0  0  0  0  0
 20 21  1  0  0  0
 21 14  1  0  0  0
 14 15  2  0  0  0
 15 16  1  0  0  0
 16 17  2  0  0  0
 17 18  1  0  0  0
 18 22  1  0  0  0
 22 23  1  0  0  0
 18 19  2  0  0  0
 19 24  1  0  0  0
 24 25  1  0  0  0
 16  1  1  0  0  0
  1  2  2  0  0  0
  1  3  1  0  0  0
  3  5  1  0  0  0
  5  6  1  0  0  0
  6  7  1  0  0  0
  7  8  1  0  0  0
  8  9  1  0  0  0
  9 10  1  0  0  0
 10 11  1  0  0  0
 10 12  1  0  0  0
 19 14  1  0  0  0
 11  5  1  0  0  0
 12  7  1  0  0  0
  3  4  1  0  0  0
 12 13  1  0  0  0
M  END
> <minimizedAffinity>
16.28778

> <CNNscore>
0.5074470043

> <CNNaffinity>
5.3814291954

> <CNN_VS>
2.7307901382

> <CNNaffinity_variance>
0.4123248160

$$$$
[H]c1c(OC([H])([H])[H])c(OC([H])([H])[H])c(OC([H])([H])[H])c([H])c1C(=O)N([H])[C@@]1([H])C([H])([H])[C@@]2([H])N([H])[C@]([H])(C([H])([H])C2([H])[H])C1([H])[H]


 25 27  0  0  0  0  0  0  0  0999 V2000
   19.8152    6.8736   52.9351 C   0  0  0  0  0  0  0  0  0  0  0  0
   20.2282    6.1164   52.0291 O   0  0  0  0  0  0  0  0  0  0  0  0
   18.6541    6.5269   53.6366 N   0  0  0  0  0  0  0  0  0  0  0  0
   18.2546    7.1205   54.4103 H   0  0  0  0  0  0  0  0  0  0  0  0
   17.8892    5.3013   53.3551 C   0  0  0  0  0  0  0  0  0  0  0  0
   18.6117    4.1832   54.0540 C   0  0  0  0  0  0  0  0  0  0  0  0
   17.7046    3.0911   54.5362 C   0  0  0  0  0  0  0  0  0  0  0  0
   16.8829    2.6118   53.3756 C   0  0  0  0  0  0  0  0  0  0  0  0
   15.5055    3.1897   53.6222 C   0  0  0  0  0  0  0  0  0  0  0  0
   15.8617    4.3687   54.5305 C   0  0  0  0  0  0  0  0  0  0  0  0
   16.4588    5.4314   53.6876 C   0  0  0  0  0  0  0  0  0  0  0  0
   16.7608    3.7457   55.4563 N   0  0  0  0  0  0  0  0  0  0  0  0
   17.2889    4.4217   56.0466 H   0  0  0  0  0  0  0  0  0  0  0  0
   21.7384    9.4912   54.7868 C   0  0  0  0  0  0  0  0  0  0  0  0
   21.0298    8.3432   54.5055 C   0  0  0  0  0  0  0  0  0  0  0  0
   20.5491    8.0676   53.2185 C   0  0  0  0  0  0  0  0  0  0  0  0
   20.8005    8.9771   52.2243 C   0  0  0  0  0  0  0  0  0  0  0  0
   21.5194   10.1301   52.5354 C   0  0  0  0  0  0  0  0  0  0  0  0
   21.9963   10.4122   53.7936 C   0  0  0  0  0  0  0  0  0  0  0  0
   23.3336    9.1058   56.6152 C   0  0  0  0  0  0  0  0  0  0  0  0
   22.1777    9.6884   56.0822 O   0  0  0  0  0  0  0  0  0  0  0  0
   21.7758   11.0507   51.5369 O   0  0  0  0  0  0  0  0  0  0  0  0
   21.4359   12.4113   51.7122 C   0  0  0  0  0  0  0  0  0  0  0  0
   22.7016   11.5725   54.0353 O   0  0  0  0  0  0  0  0  0  0  0  0
   23.6164   11.7207   55.1029 C   0  0  0  0  0  0  0  0  0  0  0  0
 20 21  1  0  0  0
 21 14  1  0  0  0
 14 15  2  0  0  0
 15 16  1  0  0  0
 16 17  2  0  0  0
 17 18  1  0  0  0
 18 22  1  0  0  0
 22 23  1  0  0  0
 18 19  2  0  0  0
 19 24  1  0  0  0
 24 25  1  0  0  0
 16  1  1  0  0  0
  1  2  2  0  0  0
  1  3  1  0  0  0
  3  5  1  0  0  0
  5  6  1  0  0  0
  6  7  1  0  0  0
  7  8  1  0  0  0
  8  9  1  0  0  0
  9 10  1  0  0  0
 10 11  1  0  0  0
 10 12  1  0  0  0
 19 14  1  0  0  0
 11  5  1  0  0  0
 12  7  1  0  0  0
  3  4  1  0  0  0
 12 13  1  0  0  0
M  END
> <minimizedAffinity>
28.16690

> <CNNscore>
0.4971455038

> <CNNaffinity>
5.5703186989

> <CNN_VS>
2.7692589760

> <CNNaffinity_variance>
0.4039759636

$$$$
[H]O[C@@]([H])(C([H])([H])C(=O)N([H])[C@]([H])(C([H])(C([H])([H])[H])C([H])([H])[H])[C@@]([H])(C([H])([H])[H])C([H])([H])C([H])([H])[H])[C@@]([H])(N([H])C(=O)[C@@]([H])(N([H])C(=O)C([H])([H])C([H])(C([H])([H])[H])C([H])([H])[H])C([H])(C([H])([H])[H])C([H])([H])[H])C([H])([H])C([H])(C([H])([H])[H])C([H])([H])[H]


 37 36  0  0  0  0  0  0  0  0999 V2000
   24.6160    8.9245   55.0652 C   0  0  0  0  0  0  0  0  0  0  0  0
   24.1644    7.7470   54.4736 N   0  0  0  0  0  0  0  0  0  0  0  0
   23.1575    6.8285   54.7534 C   0  0  0  0  0  0  0  0  0  0  0  0
   22.4139    7.0034   55.7330 O   0  0  0  0  0  0  0  0  0  0  0  0
   24.7570    7.4380   53.6072 H   0  0  0  0  0  0  0  0  0  0  0  0
   22.8732    5.6009   53.9585 C   0  0  0  0  0  0  0  0  0  0  0  0
   21.4464    5.3090   54.0262 N   0  0  0  0  0  0  0  0  0  0  0  0
   20.4468    6.0879   53.3831 C   0  0  0  0  0  0  0  0  0  0  0  0
   20.7501    7.0970   52.7066 O   0  0  0  0  0  0  0  0  0  0  0  0
   21.1050    4.4855   54.5676 H   0  0  0  0  0  0  0  0  0  0  0  0
   19.0010    5.7457   53.4777 C   0  0  0  0  0  0  0  0  0  0  0  0
   18.8074    4.3190   53.9561 C   0  0  0  0  0  0  0  0  0  0  0  0
   19.5055    3.3351   53.0493 C   0  0  0  0  0  0  0  0  0  0  0  0
   17.3628    3.9751   54.1106 C   0  0  0  0  0  0  0  0  0  0  0  0
   23.3736    5.6328   52.5563 C   0  0  0  0  0  0  0  0  0  0  0  0
   23.3618    7.1057   52.1277 C   0  0  0  0  0  0  0  0  0  0  0  0
   24.7799    5.1401   52.3879 C   0  0  0  0  0  0  0  0  0  0  0  0
   25.9394    8.8050   55.8765 C   0  0  0  0  0  0  0  0  0  0  0  0
   26.9163    8.6226   54.9142 O   0  0  0  0  0  0  0  0  0  0  0  0
   27.6459    8.0849   55.2377 H   0  0  0  0  0  0  0  0  0  0  0  0
   26.1967   10.0068   56.6885 C   0  0  0  0  0  0  0  0  0  0  0  0
   27.6440   10.1314   58.7618 N   0  0  0  0  0  0  0  0  0  0  0  0
   27.5142    9.9780   57.3324 C   0  0  0  0  0  0  0  0  0  0  0  0
   28.5673    9.8250   56.7090 O   0  0  0  0  0  0  0  0  0  0  0  0
   26.7454   10.2516   59.2717 H   0  0  0  0  0  0  0  0  0  0  0  0
   28.9142   10.1236   59.4349 C   0  0  0  0  0  0  0  0  0  0  0  0
   29.0949    8.8717   60.2856 C   0  0  0  0  0  0  0  0  0  0  0  0
   29.1055    7.6743   59.3346 C   0  0  0  0  0  0  0  0  0  0  0  0
   30.4539    8.8758   60.9553 C   0  0  0  0  0  0  0  0  0  0  0  0
   29.0198   11.3737   60.2714 C   0  0  0  0  0  0  0  0  0  0  0  0
   30.5038   11.7410   60.3292 C   0  0  0  0  0  0  0  0  0  0  0  0
   28.6910   13.8102   60.4289 C   0  0  0  0  0  0  0  0  0  0  0  0
   28.2972   12.5471   59.6737 C   0  0  0  0  0  0  0  0  0  0  0  0
   23.6947    9.7712   55.8347 C   0  0  0  0  0  0  0  0  0  0  0  0
   22.5394   10.4318   55.1789 C   0  0  0  0  0  0  0  0  0  0  0  0
   22.2738   10.0900   53.7480 C   0  0  0  0  0  0  0  0  0  0  0  0
   21.2480   10.0971   55.9641 C   0  0  0  0  0  0  0  0  0  0  0  0
 32 33  1  0  0  0
 33 30  1  0  0  0
 30 31  1  0  0  0
 30 26  1  0  0  0
 26 22  1  0  0  0
 22 23  1  0  0  0
 23 24  2  0  0  0
 23 21  1  0  0  0
 21 18  1  0  0  0
 18 19  1  0  0  0
 18  1  1  0  0  0
  1 34  1  0  0  0
 34 35  1  0  0  0
 35 36  1  0  0  0
 35 37  1  0  0  0
  1  2  1  0  0  0
  2  3  1  0  0  0
  3  4  2  0  0  0
  3  6  1  0  0  0
  6  7  1  0  0  0
  7  8  1  0  0  0
  8  9  2  0  0  0
  8 11  1  0  0  0
 11 12  1  0  0  0
 12 13  1  0  0  0
 12 14  1  0  0  0
  6 15  1  0  0  0
 15 16  1  0  0  0
 15 17  1  0  0  0
 26 27  1  0  0  0
 27 28  1  0  0  0
 27 29  1  0  0  0
 22 25  1  0  0  0
 19 20  1  0  0  0
  2  5  1  0  0  0
  7 10  1  0  0  0
M  END
> <minimizedAffinity>
14.05892

> <CNNscore>
0.5372955799

> <CNNaffinity>
6.4208040237

> <CNN_VS>
3.4498696327

> <CNNaffinity_variance>
0.5869098902

$$$$
[H]O[C@@]([H])(C([H])([H])C(=O)N([H])[C@]([H])(C([H])(C([H])([H])[H])C([H])([H])[H])[C@@]([H])(C([H])([H])[H])C([H])([H])C([H])([H])[H])[C@@]([H])(N([H])C(=O)[C@@]([H])(N([H])C(=O)C([H])([H])C([H])(C([H])([H])[H])C([H])([H])[H])C([H])(C([H])([H])[H])C([H])([H])[H])C([H])([H])C([H])(C([H])([H])[H])C([H])([H])[H]


 37 36  0  0  0  0  0  0  0  0999 V2000
   22.9800    8.1951   54.0926 C   0  0  0  0  0  0  0  0  0  0  0  0
   24.3350    8.3480   54.3771 N   0  0  0  0  0  0  0  0  0  0  0  0
   25.0710    9.1052   55.2830 C   0  0  0  0  0  0  0  0  0  0  0  0
   24.4864    9.8507   56.0865 O   0  0  0  0  0  0  0  0  0  0  0  0
   24.9884    7.7739   53.7132 H   0  0  0  0  0  0  0  0  0  0  0  0
   26.5573    9.1107   55.3862 C   0  0  0  0  0  0  0  0  0  0  0  0
   26.9385    8.9576   56.7850 N   0  0  0  0  0  0  0  0  0  0  0  0
   27.8383    9.8256   57.4607 C   0  0  0  0  0  0  0  0  0  0  0  0
   28.3674   10.7945   56.8699 O   0  0  0  0  0  0  0  0  0  0  0  0
   26.5437    8.1774   57.3534 H   0  0  0  0  0  0  0  0  0  0  0  0
   28.1927    9.6306   58.8935 C   0  0  0  0  0  0  0  0  0  0  0  0
   29.1497   10.7067   59.3709 C   0  0  0  0  0  0  0  0  0  0  0  0
   30.0533   10.1933   60.4652 C   0  0  0  0  0  0  0  0  0  0  0  0
   28.4288   11.9400   59.8045 C   0  0  0  0  0  0  0  0  0  0  0  0
   27.2499    8.1300   54.5052 C   0  0  0  0  0  0  0  0  0  0  0  0
   26.9773    8.5779   53.0635 C   0  0  0  0  0  0  0  0  0  0  0  0
   28.7392    8.0869   54.6749 C   0  0  0  0  0  0  0  0  0  0  0  0
   22.4855    6.7263   53.9443 C   0  0  0  0  0  0  0  0  0  0  0  0
   22.5991    6.1960   55.2170 O   0  0  0  0  0  0  0  0  0  0  0  0
   22.7915    5.2532   55.1995 H   0  0  0  0  0  0  0  0  0  0  0  0
   21.0987    6.6602   53.4520 C   0  0  0  0  0  0  0  0  0  0  0  0
   19.0822    5.1552   53.7297 N   0  0  0  0  0  0  0  0  0  0  0  0
   20.5104    5.3258   53.6080 C   0  0  0  0  0  0  0  0  0  0  0  0
   21.1816    4.2918   53.6444 O   0  0  0  0  0  0  0  0  0  0  0  0
   18.5318    6.0369   53.6891 H   0  0  0  0  0  0  0  0  0  0  0  0
   18.4619    3.8694   53.8981 C   0  0  0  0  0  0  0  0  0  0  0  0
   18.4994    3.0515   52.6122 C   0  0  0  0  0  0  0  0  0  0  0  0
   19.7889    2.2298   52.6345 C   0  0  0  0  0  0  0  0  0  0  0  0
   17.3699    2.0420   52.5913 C   0  0  0  0  0  0  0  0  0  0  0  0
   17.0459    4.0799   54.3716 C   0  0  0  0  0  0  0  0  0  0  0  0
   16.6972    5.5411   54.0821 C   0  0  0  0  0  0  0  0  0  0  0  0
   14.7912    4.0580   53.3788 C   0  0  0  0  0  0  0  0  0  0  0  0
   16.0457    3.2332   53.6375 C   0  0  0  0  0  0  0  0  0  0  0  0
   22.3488    8.9888   53.0299 C   0  0  0  0  0  0  0  0  0  0  0  0
   21.3666   10.0523   53.3545 C   0  0  0  0  0  0  0  0  0  0  0  0
   21.3750   10.5932   54.7481 C   0  0  0  0  0  0  0  0  0  0  0  0
   21.5882   11.2567   52.4077 C   0  0  0  0  0  0  0  0  0  0  0  0
 32 33  1  0  0  0
 33 30  1  0  0  0
 30 31  1  0  0  0
 30 26  1  0  0  0
 26 22  1  0  0  0
 22 23  1  0  0  0
 23 24  2  0  0  0
 23 21  1  0  0  0
 21 18  1  0  0  0
 18 19  1  0  0  0
 18  1  1  0  0  0
  1 34  1  0  0  0
 34 35  1  0  0  0
 35 36  1  0  0  0
 35 37  1  0  0  0
  1  2  1  0  0  0
  2  3  1  0  0  0
  3  4  2  0  0  0
  3  6  1  0  0  0
  6  7  1  0  0  0
  7  8  1  0  0  0
  8  9  2  0  0  0
  8 11  1  0  0  0
 11 12  1  0  0  0
 12 13  1  0  0  0
 12 14  1  0  0  0
  6 15  1  0  0  0
 15 16  1  0  0  0
 15 17  1  0  0  0
 26 27  1  0  0  0
 27 28  1  0  0  0
 27 29  1  0  0  0
 22 25  1  0  0  0
 19 20  1  0  0  0
  2  5  1  0  0  0
  7 10  1  0  0  0
M  END
> <minimizedAffinity>
12.08250

> <CNNscore>
0.5098346472

> <CNNaffinity>
7.0266504288

> <CNN_VS>
3.5824298859

> <CNNaffinity_variance>
0.4135597348

$$$$
[H]O[C@@]([H])(C([H])([H])C(=O)N([H])[C@]([H])(C([H])(C([H])([H])[H])C([H])([H])[H])[C@@]([H])(C([H])([H])[H])C([H])([H])C([H])([H])[H])[C@@]([H])(N([H])C(=O)[C@@]([H])(N([H])C(=O)C([H])([H])C([H])(C([H])([H])[H])C([H])([H])[H])C([H])(C([H])([H])[H])C([H])([H])[H])C([H])([H])C([H])(C([H])([H])[H])C([H])([H])[H]


 37 36  0  0  0  0  0  0  0  0999 V2000
   23.6335    7.1540   55.4605 C   0  0  0  0  0  0  0  0  0  0  0  0
   24.8831    7.7638   55.5453 N   0  0  0  0  0  0  0  0  0  0  0  0
   25.7258    8.4099   54.6464 C   0  0  0  0  0  0  0  0  0  0  0  0
   25.3811    8.5439   53.4605 O   0  0  0  0  0  0  0  0  0  0  0  0
   25.3390    7.6898   56.5373 H   0  0  0  0  0  0  0  0  0  0  0  0
   27.0608    8.9799   54.9822 C   0  0  0  0  0  0  0  0  0  0  0  0
   27.3327    8.7555   56.3968 N   0  0  0  0  0  0  0  0  0  0  0  0
   27.8487    9.7491   57.2720 C   0  0  0  0  0  0  0  0  0  0  0  0
   28.1061   10.9029   56.8590 O   0  0  0  0  0  0  0  0  0  0  0  0
   27.1460    7.8229   56.8249 H   0  0  0  0  0  0  0  0  0  0  0  0
   28.1051    9.4725   58.7121 C   0  0  0  0  0  0  0  0  0  0  0  0
   29.1361   10.4312   59.2776 C   0  0  0  0  0  0  0  0  0  0  0  0
   29.8271    9.8465   60.4852 C   0  0  0  0  0  0  0  0  0  0  0  0
   28.5428   11.7646   59.5918 C   0  0  0  0  0  0  0  0  0  0  0  0
   28.1774    8.5124   54.1149 C   0  0  0  0  0  0  0  0  0  0  0  0
   29.4747    8.8804   54.8465 C   0  0  0  0  0  0  0  0  0  0  0  0
   28.2090    7.0303   53.8888 C   0  0  0  0  0  0  0  0  0  0  0  0
   23.5084    6.0216   54.3994 C   0  0  0  0  0  0  0  0  0  0  0  0
   22.1502    5.7698   54.3251 O   0  0  0  0  0  0  0  0  0  0  0  0
   21.9646    4.8501   54.1106 H   0  0  0  0  0  0  0  0  0  0  0  0
   24.0560    6.4287   53.0939 C   0  0  0  0  0  0  0  0  0  0  0  0
   22.7258    8.5273   52.6096 N   0  0  0  0  0  0  0  0  0  0  0  0
   23.0829    7.1675   52.2825 C   0  0  0  0  0  0  0  0  0  0  0  0
   22.5226    6.6859   51.2950 O   0  0  0  0  0  0  0  0  0  0  0  0
   23.2136    8.9195   53.4404 H   0  0  0  0  0  0  0  0  0  0  0  0
   21.7676    9.2857   51.8523 C   0  0  0  0  0  0  0  0  0  0  0  0
   21.9455   10.7857   52.0576 C   0  0  0  0  0  0  0  0  0  0  0  0
   21.1617   11.4915   50.9503 C   0  0  0  0  0  0  0  0  0  0  0  0
   21.3033   11.2240   53.3581 C   0  0  0  0  0  0  0  0  0  0  0  0
   20.3832    8.8394   52.2492 C   0  0  0  0  0  0  0  0  0  0  0  0
   19.8065    8.0776   51.0543 C   0  0  0  0  0  0  0  0  0  0  0  0
   19.6352    6.6252   53.0285 C   0  0  0  0  0  0  0  0  0  0  0  0
   20.3791    7.8962   53.4182 C   0  0  0  0  0  0  0  0  0  0  0  0
   22.4120    7.9673   55.3926 C   0  0  0  0  0  0  0  0  0  0  0  0
   22.4852    9.4475   55.3248 C   0  0  0  0  0  0  0  0  0  0  0  0
   21.2622   10.2145   55.7132 C   0  0  0  0  0  0  0  0  0  0  0  0
   23.6313    9.9434   56.2395 C   0  0  0  0  0  0  0  0  0  0  0  0
 32 33  1  0  0  0
 33 30  1  0  0  0
 30 31  1  0  0  0
 30 26  1  0  0  0
 26 22  1  0  0  0
 22 23  1  0  0  0
 23 24  2  0  0  0
 23 21  1  0  0  0
 21 18  1  0  0  0
 18 19  1  0  0  0
 18  1  1  0  0  0
  1 34  1  0  0  0
 34 35  1  0  0  0
 35 36  1  0  0  0
 35 37  1  0  0  0
  1  2  1  0  0  0
  2  3  1  0  0  0
  3  4  2  0  0  0
  3  6  1  0  0  0
  6  7  1  0  0  0
  7  8  1  0  0  0
  8  9  2  0  0  0
  8 11  1  0  0  0
 11 12  1  0  0  0
 12 13  1  0  0  0
 12 14  1  0  0  0
  6 15  1  0  0  0
 15 16  1  0  0  0
 15 17  1  0  0  0
 26 27  1  0  0  0
 27 28  1  0  0  0
 27 29  1  0  0  0
 22 25  1  0  0  0
 19 20  1  0  0  0
  2  5  1  0  0  0
  7 10  1  0  0  0
M  END
> <minimizedAffinity>
10.87593

> <CNNscore>
0.5012810826

> <CNNaffinity>
6.6408920288

> <CNN_VS>
3.3289535046

> <CNNaffinity_variance>
0.3126780987

$$$$
[H]O[C@@]([H])(C([H])([H])C(=O)N([H])[C@]([H])(C([H])(C([H])([H])[H])C([H])([H])[H])[C@@]([H])(C([H])([H])[H])C([H])([H])C([H])([H])[H])[C@@]([H])(N([H])C(=O)[C@@]([H])(N([H])C(=O)C([H])([H])C([H])(C([H])([H])[H])C([H])([H])[H])C([H])(C([H])([H])[H])C([H])([H])[H])C([H])([H])C([H])(C([H])([H])[H])C([H])([H])[H]


 37 36  0  0  0  0  0  0  0  0999 V2000
   25.3901    8.2321   54.5342 C   0  0  0  0  0  0  0  0  0  0  0  0
   24.0259    8.1911   54.2551 N   0  0  0  0  0  0  0  0  0  0  0  0
   23.0015    7.2781   54.4848 C   0  0  0  0  0  0  0  0  0  0  0  0
   23.2407    6.2159   55.0828 O   0  0  0  0  0  0  0  0  0  0  0  0
   23.6701    9.0556   53.6865 H   0  0  0  0  0  0  0  0  0  0  0  0
   21.5839    7.4576   54.0629 C   0  0  0  0  0  0  0  0  0  0  0  0
   21.3819    8.8402   53.6467 N   0  0  0  0  0  0  0  0  0  0  0  0
   21.6390    9.9637   54.4781 C   0  0  0  0  0  0  0  0  0  0  0  0
   22.0631    9.8184   55.6473 O   0  0  0  0  0  0  0  0  0  0  0  0
   21.0318    9.0529   52.6876 H   0  0  0  0  0  0  0  0  0  0  0  0
   21.4217   11.3584   54.0050 C   0  0  0  0  0  0  0  0  0  0  0  0
   21.8764   11.5248   52.5671 C   0  0  0  0  0  0  0  0  0  0  0  0
   21.5332   12.8952   52.0365 C   0  0  0  0  0  0  0  0  0  0  0  0
   21.3284   10.4540   51.6828 C   0  0  0  0  0  0  0  0  0  0  0  0
   21.1078    6.4878   53.0381 C   0  0  0  0  0  0  0  0  0  0  0  0
   20.1388    5.5409   53.7578 C   0  0  0  0  0  0  0  0  0  0  0  0
   20.3500    7.1073   51.9020 C   0  0  0  0  0  0  0  0  0  0  0  0
   25.8359    9.3229   55.5516 C   0  0  0  0  0  0  0  0  0  0  0  0
   24.6549    9.9229   55.9506 O   0  0  0  0  0  0  0  0  0  0  0  0
   24.7782   10.8515   56.1711 H   0  0  0  0  0  0  0  0  0  0  0  0
   26.5626    8.7442   56.6949 C   0  0  0  0  0  0  0  0  0  0  0  0
   27.8820    9.8712   58.5381 N   0  0  0  0  0  0  0  0  0  0  0  0
   27.6771    9.5887   57.1375 C   0  0  0  0  0  0  0  0  0  0  0  0
   28.4886   10.0978   56.3608 O   0  0  0  0  0  0  0  0  0  0  0  0
   27.1930    9.4274   59.1787 H   0  0  0  0  0  0  0  0  0  0  0  0
   28.9513   10.7039   59.0175 C   0  0  0  0  0  0  0  0  0  0  0  0
   29.9907    9.8995   59.7898 C   0  0  0  0  0  0  0  0  0  0  0  0
   30.5041   10.7898   60.9221 C   0  0  0  0  0  0  0  0  0  0  0  0
   29.3451    8.7072   60.4658 C   0  0  0  0  0  0  0  0  0  0  0  0
   28.3601   11.7969   59.8715 C   0  0  0  0  0  0  0  0  0  0  0  0
   29.3916   12.1154   60.9556 C   0  0  0  0  0  0  0  0  0  0  0  0
   28.8778   14.2038   59.7781 C   0  0  0  0  0  0  0  0  0  0  0  0
   28.1096   13.0689   59.1129 C   0  0  0  0  0  0  0  0  0  0  0  0
   26.3736    8.2094   53.4433 C   0  0  0  0  0  0  0  0  0  0  0  0
   27.7128    8.8251   53.6121 C   0  0  0  0  0  0  0  0  0  0  0  0
   28.7812    7.9859   54.2359 C   0  0  0  0  0  0  0  0  0  0  0  0
   28.2467    9.2707   52.2292 C   0  0  0  0  0  0  0  0  0  0  0  0
 32 33  1  0  0  0
 33 30  1  0  0  0
 30 31  1  0  0  0
 30 26  1  0  0  0
 26 22  1  0  0  0
 22 23  1  0  0  0
 23 24  2  0  0  0
 23 21  1  0  0  0
 21 18  1  0  0  0
 18 19  1  0  0  0
 18  1  1  0  0  0
  1 34  1  0  0  0
 34 35  1  0  0  0
 35 36  1  0  0  0
 35 37  1  0  0  0
  1  2  1  0  0  0
  2  3  1  0  0  0
  3  4  2  0  0  0
  3  6  1  0  0  0
  6  7  1  0  0  0
  7  8  1  0  0  0
  8  9  2  0  0  0
  8 11  1  0  0  0
 11 12  1  0  0  0
 12 13  1  0  0  0
 12 14  1  0  0  0
  6 15  1  0  0  0
 15 16  1  0  0  0
 15 17  1  0  0  0
 26 27  1  0  0  0
 27 28  1  0  0  0
 27 29  1  0  0  0
 22 25  1  0  0  0
 19 20  1  0  0  0
  2  5  1  0  0  0
  7 10  1  0  0  0
M  END
> <minimizedAffinity>
8.10040

> <CNNscore>
0.4940865338

> <CNNaffinity>
6.6512908936

> <CNN_VS>
3.2863132954

> <CNNaffinity_variance>
1.0774574280

$$$$
[H]O[C@@]([H])(C([H])([H])C(=O)N([H])[C@]([H])(C([H])(C([H])([H])[H])C([H])([H])[H])[C@@]([H])(C([H])([H])[H])C([H])([H])C([H])([H])[H])[C@@]([H])(N([H])C(=O)[C@@]([H])(N([H])C(=O)C([H])([H])C([H])(C([H])([H])[H])C([H])([H])[H])C([H])(C([H])([H])[H])C([H])([H])[H])C([H])([H])C([H])(C([H])([H])[H])C([H])([H])[H]


 37 36  0  0  0  0  0  0  0  0999 V2000
   24.8580    8.9804   55.1435 C   0  0  0  0  0  0  0  0  0  0  0  0
   24.2474    8.1083   54.2451 N   0  0  0  0  0  0  0  0  0  0  0  0
   23.4471    6.9763   54.3621 C   0  0  0  0  0  0  0  0  0  0  0  0
   23.1268    6.5574   55.4869 O   0  0  0  0  0  0  0  0  0  0  0  0
   24.4746    8.3299   53.1979 H   0  0  0  0  0  0  0  0  0  0  0  0
   22.9153    6.1816   53.2195 C   0  0  0  0  0  0  0  0  0  0  0  0
   22.4215    7.0927   52.1941 N   0  0  0  0  0  0  0  0  0  0  0  0
   21.1815    7.7821   52.2772 C   0  0  0  0  0  0  0  0  0  0  0  0
   20.4259    7.6355   53.2648 O   0  0  0  0  0  0  0  0  0  0  0  0
   22.9880    7.2743   51.3376 H   0  0  0  0  0  0  0  0  0  0  0  0
   20.7227    8.7074   51.2050 C   0  0  0  0  0  0  0  0  0  0  0  0
   20.7058   10.1438   51.6932 C   0  0  0  0  0  0  0  0  0  0  0  0
   21.3216   11.0768   50.6795 C   0  0  0  0  0  0  0  0  0  0  0  0
   21.3656   10.2867   53.0248 C   0  0  0  0  0  0  0  0  0  0  0  0
   23.8595    5.1720   52.6656 C   0  0  0  0  0  0  0  0  0  0  0  0
   25.2178    5.8743   52.5416 C   0  0  0  0  0  0  0  0  0  0  0  0
   24.0670    3.9711   53.5396 C   0  0  0  0  0  0  0  0  0  0  0  0
   26.2440    8.5246   55.6867 C   0  0  0  0  0  0  0  0  0  0  0  0
   26.7537    7.7137   54.6885 O   0  0  0  0  0  0  0  0  0  0  0  0
   27.3198    7.0197   55.0409 H   0  0  0  0  0  0  0  0  0  0  0  0
   27.1304    9.6688   55.9604 C   0  0  0  0  0  0  0  0  0  0  0  0
   28.6264   10.6235   57.7657 N   0  0  0  0  0  0  0  0  0  0  0  0
   27.6085    9.6898   57.3468 C   0  0  0  0  0  0  0  0  0  0  0  0
   27.1820    8.9301   58.2198 O   0  0  0  0  0  0  0  0  0  0  0  0
   28.9686   11.2611   57.0184 H   0  0  0  0  0  0  0  0  0  0  0  0
   29.1356   10.6715   59.1092 C   0  0  0  0  0  0  0  0  0  0  0  0
   28.9253    9.3504   59.8402 C   0  0  0  0  0  0  0  0  0  0  0  0
   29.2229    8.2284   58.8447 C   0  0  0  0  0  0  0  0  0  0  0  0
   29.9409    9.1914   60.9532 C   0  0  0  0  0  0  0  0  0  0  0  0
   28.4651   11.8108   59.8343 C   0  0  0  0  0  0  0  0  0  0  0  0
   27.6194   11.1882   60.9468 C   0  0  0  0  0  0  0  0  0  0  0  0
   28.7748   14.1062   60.6739 C   0  0  0  0  0  0  0  0  0  0  0  0
   29.4387   12.7473   60.4911 C   0  0  0  0  0  0  0  0  0  0  0  0
   24.0986    9.5403   56.2694 C   0  0  0  0  0  0  0  0  0  0  0  0
   22.7677   10.1607   56.0571 C   0  0  0  0  0  0  0  0  0  0  0  0
   22.5436   10.8818   54.7669 C   0  0  0  0  0  0  0  0  0  0  0  0
   21.6752    9.0682   56.1526 C   0  0  0  0  0  0  0  0  0  0  0  0
 32 33  1  0  0  0
 33 30  1  0  0  0
 30 31  1  0  0  0
 30 26  1  0  0  0
 26 22  1  0  0  0
 22 23  1  0  0  0
 23 24  2  0  0  0
 23 21  1  0  0  0
 21 18  1  0  0  0
 18 19  1  0  0  0
 18  1  1  0  0  0
  1 34  1  0  0  0
 34 35  1  0  0  0
 35 36  1  0  0  0
 35 37  1  0  0  0
  1  2  1  0  0  0
  2  3  1  0  0  0
  3  4  2  0  0  0
  3  6  1  0  0  0
  6  7  1  0  0  0
  7  8  1  0  0  0
  8  9  2  0  0  0
  8 11  1  0  0  0
 11 12  1  0  0  0
 12 13  1  0  0  0
 12 14  1  0  0  0
  6 15  1  0  0  0
 15 16  1  0  0  0
 15 17  1  0  0  0
 26 27  1  0  0  0
 27 28  1  0  0  0
 27 29  1  0  0  0
 22 25  1  0  0  0
 19 20  1  0  0  0
  2  5  1  0  0  0
  7 10  1  0  0  0
M  END
> <minimizedAffinity>
13.75293

> <CNNscore>
0.4879915416

> <CNNaffinity>
6.5405488014

> <CNN_VS>
3.1917324066

> <CNNaffinity_variance>
0.7743371725

$$$$
[H]O[C@@]([H])(C([H])([H])C(=O)N([H])[C@]([H])(C([H])(C([H])([H])[H])C([H])([H])[H])[C@@]([H])(C([H])([H])[H])C([H])([H])C([H])([H])[H])[C@@]([H])(N([H])C(=O)[C@@]([H])(N([H])C(=O)C([H])([H])C([H])(C([H])([H])[H])C([H])([H])[H])C([H])(C([H])([H])[H])C([H])([H])[H])C([H])([H])C([H])(C([H])([H])[H])C([H])([H])[H]


 37 36  0  0  0  0  0  0  0  0999 V2000
   20.4375    5.7472   52.6802 C   0  0  0  0  0  0  0  0  0  0  0  0
   21.5896    5.6102   53.4512 N   0  0  0  0  0  0  0  0  0  0  0  0
   22.9391    5.8908   53.2624 C   0  0  0  0  0  0  0  0  0  0  0  0
   23.3235    6.3960   52.1946 O   0  0  0  0  0  0  0  0  0  0  0  0
   21.4126    5.1346   54.4206 H   0  0  0  0  0  0  0  0  0  0  0  0
   24.0155    5.6309   54.2593 C   0  0  0  0  0  0  0  0  0  0  0  0
   25.2227    6.3401   53.8530 N   0  0  0  0  0  0  0  0  0  0  0  0
   25.3730    7.7517   53.9200 C   0  0  0  0  0  0  0  0  0  0  0  0
   24.4465    8.4806   54.3423 O   0  0  0  0  0  0  0  0  0  0  0  0
   26.0446    5.8106   53.4901 H   0  0  0  0  0  0  0  0  0  0  0  0
   26.6293    8.4299   53.4977 C   0  0  0  0  0  0  0  0  0  0  0  0
   27.4861    8.7890   54.6971 C   0  0  0  0  0  0  0  0  0  0  0  0
   28.6444    7.8340   54.8516 C   0  0  0  0  0  0  0  0  0  0  0  0
   26.6820    8.8650   55.9527 C   0  0  0  0  0  0  0  0  0  0  0  0
   23.6436    5.9195   55.6721 C   0  0  0  0  0  0  0  0  0  0  0  0
   22.2999    6.6580   55.6221 C   0  0  0  0  0  0  0  0  0  0  0  0
   23.4407    4.7006   56.5218 C   0  0  0  0  0  0  0  0  0  0  0  0
   19.9123    7.2027   52.5086 C   0  0  0  0  0  0  0  0  0  0  0  0
   20.0428    7.7649   53.7658 O   0  0  0  0  0  0  0  0  0  0  0  0
   19.3676    8.4292   53.9362 H   0  0  0  0  0  0  0  0  0  0  0  0
   20.6821    7.9494   51.4988 C   0  0  0  0  0  0  0  0  0  0  0  0
   20.4231   10.1861   52.6557 N   0  0  0  0  0  0  0  0  0  0  0  0
   21.2592    9.1868   52.0345 C   0  0  0  0  0  0  0  0  0  0  0  0
   22.4643    9.4449   51.9891 O   0  0  0  0  0  0  0  0  0  0  0  0
   19.4112    9.9481   52.6920 H   0  0  0  0  0  0  0  0  0  0  0  0
   20.9417   11.4193   53.1821 C   0  0  0  0  0  0  0  0  0  0  0  0
   21.9053   12.0880   52.2084 C   0  0  0  0  0  0  0  0  0  0  0  0
   21.5392   11.6057   50.8042 C   0  0  0  0  0  0  0  0  0  0  0  0
   21.6921   13.5880   52.1956 C   0  0  0  0  0  0  0  0  0  0  0  0
   21.6099   11.1320   54.5029 C   0  0  0  0  0  0  0  0  0  0  0  0
   20.5420   10.5234   55.4137 C   0  0  0  0  0  0  0  0  0  0  0  0
   23.3375    9.9199   55.7740 C   0  0  0  0  0  0  0  0  0  0  0  0
   22.7230   10.1291   54.3958 C   0  0  0  0  0  0  0  0  0  0  0  0
   19.2770    4.8779   52.9158 C   0  0  0  0  0  0  0  0  0  0  0  0
   19.3287    3.7966   53.9304 C   0  0  0  0  0  0  0  0  0  0  0  0
   18.1081    3.5792   54.7657 C   0  0  0  0  0  0  0  0  0  0  0  0
   19.6324    2.4518   53.2266 C   0  0  0  0  0  0  0  0  0  0  0  0
 32 33  1  0  0  0
 33 30  1  0  0  0
 30 31  1  0  0  0
 30 26  1  0  0  0
 26 22  1  0  0  0
 22 23  1  0  0  0
 23 24  2  0  0  0
 23 21  1  0  0  0
 21 18  1  0  0  0
 18 19  1  0  0  0
 18  1  1  0  0  0
  1 34  1  0  0  0
 34 35  1  0  0  0
 35 36  1  0  0  0
 35 37  1  0  0  0
  1  2  1  0  0  0
  2  3  1  0  0  0
  3  4  2  0  0  0
  3  6  1  0  0  0
  6  7  1  0  0  0
  7  8  1  0  0  0
  8  9  2  0  0  0
  8 11  1  0  0  0
 11 12  1  0  0  0
 12 13  1  0  0  0
 12 14  1  0  0  0
  6 15  1  0  0  0
 15 16  1  0  0  0
 15 17  1  0  0  0
 26 27  1  0  0  0
 27 28  1  0  0  0
 27 29  1  0  0  0
 22 25  1  0  0  0
 19 20  1  0  0  0
  2  5  1  0  0  0
  7 10  1  0  0  0
M  END
> <minimizedAffinity>
18.87695

> <CNNscore>
0.4817036688

> <CNNaffinity>
6.7047681808

> <CNN_VS>
3.2297115326

> <CNNaffinity_variance>
0.6619682312

$$$$
[H]O[C@@]([H])(C([H])([H])C(=O)N([H])[C@]([H])(C([H])(C([H])([H])[H])C([H])([H])[H])[C@@]([H])(C([H])([H])[H])C([H])([H])C([H])([H])[H])[C@@]([H])(N([H])C(=O)[C@@]([H])(N([H])C(=O)C([H])([H])C([H])(C([H])([H])[H])C([H])([H])[H])C([H])(C([H])([H])[H])C([H])([H])[H])C([H])([H])C([H])(C([H])([H])[H])C([H])([H])[H]


 37 36  0  0  0  0  0  0  0  0999 V2000
   24.2184    6.8884   54.3352 C   0  0  0  0  0  0  0  0  0  0  0  0
   25.3050    7.6339   54.7867 N   0  0  0  0  0  0  0  0  0  0  0  0
   26.2971    8.3957   54.1774 C   0  0  0  0  0  0  0  0  0  0  0  0
   26.3104    8.5216   52.9416 O   0  0  0  0  0  0  0  0  0  0  0  0
   25.4481    7.5854   55.8704 H   0  0  0  0  0  0  0  0  0  0  0  0
   27.3941    9.1045   54.8942 C   0  0  0  0  0  0  0  0  0  0  0  0
   27.4654    8.6107   56.2641 N   0  0  0  0  0  0  0  0  0  0  0  0
   27.8540    9.4077   57.3746 C   0  0  0  0  0  0  0  0  0  0  0  0
   28.1668   10.6113   57.2278 O   0  0  0  0  0  0  0  0  0  0  0  0
   27.2204    7.6196   56.4773 H   0  0  0  0  0  0  0  0  0  0  0  0
   27.9063    8.8582   58.7573 C   0  0  0  0  0  0  0  0  0  0  0  0
   29.1548    9.3230   59.4831 C   0  0  0  0  0  0  0  0  0  0  0  0
   29.7635    8.2092   60.2995 C   0  0  0  0  0  0  0  0  0  0  0  0
   28.8922   10.5258   60.3276 C   0  0  0  0  0  0  0  0  0  0  0  0
   28.7175    9.0620   54.2127 C   0  0  0  0  0  0  0  0  0  0  0  0
   29.3926   10.4098   54.4974 C   0  0  0  0  0  0  0  0  0  0  0  0
   29.6420    7.9950   54.7184 C   0  0  0  0  0  0  0  0  0  0  0  0
   23.9875    6.9008   52.7955 C   0  0  0  0  0  0  0  0  0  0  0  0
   24.8489    5.9324   52.3119 O   0  0  0  0  0  0  0  0  0  0  0  0
   25.1649    6.1397   51.4268 H   0  0  0  0  0  0  0  0  0  0  0  0
   22.5875    6.6032   52.4472 C   0  0  0  0  0  0  0  0  0  0  0  0
   22.2673    9.0799   52.8617 N   0  0  0  0  0  0  0  0  0  0  0  0
   21.7186    7.7793   52.5598 C   0  0  0  0  0  0  0  0  0  0  0  0
   20.4956    7.7325   52.4079 O   0  0  0  0  0  0  0  0  0  0  0  0
   23.3006    9.1017   52.9789 H   0  0  0  0  0  0  0  0  0  0  0  0
   21.4539   10.2577   52.9954 C   0  0  0  0  0  0  0  0  0  0  0  0
   21.8689   11.3452   52.0112 C   0  0  0  0  0  0  0  0  0  0  0  0
   21.0395   11.1489   50.7415 C   0  0  0  0  0  0  0  0  0  0  0  0
   21.4909   12.7135   52.5406 C   0  0  0  0  0  0  0  0  0  0  0  0
   21.5469   10.7440   54.4196 C   0  0  0  0  0  0  0  0  0  0  0  0
   20.6344    9.8425   55.2534 C   0  0  0  0  0  0  0  0  0  0  0  0
   22.8946    9.6704   56.1805 C   0  0  0  0  0  0  0  0  0  0  0  0
   22.9295   10.6262   54.9947 C   0  0  0  0  0  0  0  0  0  0  0  0
   22.9071    7.0163   54.9849 C   0  0  0  0  0  0  0  0  0  0  0  0
   22.1946    5.8230   55.5040 C   0  0  0  0  0  0  0  0  0  0  0  0
   21.6005    5.9187   56.8725 C   0  0  0  0  0  0  0  0  0  0  0  0
   21.0383    5.4610   54.5406 C   0  0  0  0  0  0  0  0  0  0  0  0
 32 33  1  0  0  0
 33 30  1  0  0  0
 30 31  1  0  0  0
 30 26  1  0  0  0
 26 22  1  0  0  0
 22 23  1  0  0  0
 23 24  2  0  0  0
 23 21  1  0  0  0
 21 18  1  0  0  0
 18 19  1  0  0  0
 18  1  1  0  0  0
  1 34  1  0  0  0
 34 35  1  0  0  0
 35 36  1  0  0  0
 35 37  1  0  0  0
  1  2  1  0  0  0
  2  3  1  0  0  0
  3  4  2  0  0  0
  3  6  1  0  0  0
  6  7  1  0  0  0
  7  8  1  0  0  0
  8  9  2  0  0  0
  8 11  1  0  0  0
 11 12  1  0  0  0
 12 13  1  0  0  0
 12 14  1  0  0  0
  6 15  1  0  0  0
 15 16  1  0  0  0
 15 17  1  0  0  0
 26 27  1  0  0  0
 27 28  1  0  0  0
 27 29  1  0  0  0
 22 25  1  0  0  0
 19 20  1  0  0  0
  2  5  1  0  0  0
  7 10  1  0  0  0
M  END
> <minimizedAffinity>
12.33130

> <CNNscore>
0.4767430723

> <CNNaffinity>
6.4304552078

> <CNN_VS>
3.0656750202

> <CNNaffinity_variance>
0.6203443408

$$$$
[H]O[C@@]([H])(C([H])([H])C(=O)N([H])[C@]([H])(C([H])(C([H])([H])[H])C([H])([H])[H])[C@@]([H])(C([H])([H])[H])C([H])([H])C([H])([H])[H])[C@@]([H])(N([H])C(=O)[C@@]([H])(N([H])C(=O)C([H])([H])C([H])(C([H])([H])[H])C([H])([H])[H])C([H])(C([H])([H])[H])C([H])([H])[H])C([H])([H])C([H])(C([H])([H])[H])C([H])([H])[H]


 37 36  0  0  0  0  0  0  0  0999 V2000
   26.3521    8.6771   55.5703 C   0  0  0  0  0  0  0  0  0  0  0  0
   25.0728    8.2902   55.1775 N   0  0  0  0  0  0  0  0  0  0  0  0
   23.7914    8.8013   55.3580 C   0  0  0  0  0  0  0  0  0  0  0  0
   23.6286    9.8551   55.9953 O   0  0  0  0  0  0  0  0  0  0  0  0
   25.0511    7.3419   54.6321 H   0  0  0  0  0  0  0  0  0  0  0  0
   22.5405    8.1791   54.8403 C   0  0  0  0  0  0  0  0  0  0  0  0
   22.2718    8.6914   53.5021 N   0  0  0  0  0  0  0  0  0  0  0  0
   21.4998    9.8553   53.2394 C   0  0  0  0  0  0  0  0  0  0  0  0
   20.9936   10.5189   54.1729 O   0  0  0  0  0  0  0  0  0  0  0  0
   22.6564    8.2008   52.6661 H   0  0  0  0  0  0  0  0  0  0  0  0
   21.2575   10.3421   51.8535 C   0  0  0  0  0  0  0  0  0  0  0  0
   21.7591   11.7632   51.6781 C   0  0  0  0  0  0  0  0  0  0  0  0
   21.4502   12.6091   52.8891 C   0  0  0  0  0  0  0  0  0  0  0  0
   21.2254   12.3921   50.4337 C   0  0  0  0  0  0  0  0  0  0  0  0
   22.5155    6.6909   54.8870 C   0  0  0  0  0  0  0  0  0  0  0  0
   21.4989    6.2433   53.8288 C   0  0  0  0  0  0  0  0  0  0  0  0
   23.8205    6.0371   54.5429 C   0  0  0  0  0  0  0  0  0  0  0  0
   26.4249    9.5543   56.8545 C   0  0  0  0  0  0  0  0  0  0  0  0
   26.8944    8.6942   57.8310 O   0  0  0  0  0  0  0  0  0  0  0  0
   26.5553    8.9187   58.7033 H   0  0  0  0  0  0  0  0  0  0  0  0
   27.3173   10.7130   56.6787 C   0  0  0  0  0  0  0  0  0  0  0  0
   28.2080   11.3154   58.9705 N   0  0  0  0  0  0  0  0  0  0  0  0
   28.4051   10.7383   57.6621 C   0  0  0  0  0  0  0  0  0  0  0  0
   29.5282   10.2801   57.4389 O   0  0  0  0  0  0  0  0  0  0  0  0
   27.2531   11.6897   59.1436 H   0  0  0  0  0  0  0  0  0  0  0  0
   29.2479   11.3751   59.9613 C   0  0  0  0  0  0  0  0  0  0  0  0
   29.2268   10.1559   60.8762 C   0  0  0  0  0  0  0  0  0  0  0  0
   27.7780    9.6730   60.9556 C   0  0  0  0  0  0  0  0  0  0  0  0
   30.0067    9.0137   60.2577 C   0  0  0  0  0  0  0  0  0  0  0  0
   29.0870   12.6518   60.7471 C   0  0  0  0  0  0  0  0  0  0  0  0
   30.4918   13.2206   60.9559 C   0  0  0  0  0  0  0  0  0  0  0  0
   29.0471   15.0187   60.0645 C   0  0  0  0  0  0  0  0  0  0  0  0
   28.2909   13.6970   60.0192 C   0  0  0  0  0  0  0  0  0  0  0  0
   27.2929    9.2382   54.5915 C   0  0  0  0  0  0  0  0  0  0  0  0
   28.3661    8.4017   54.0002 C   0  0  0  0  0  0  0  0  0  0  0  0
   29.7379    8.5336   54.5793 C   0  0  0  0  0  0  0  0  0  0  0  0
   27.9733    6.9092   54.1203 C   0  0  0  0  0  0  0  0  0  0  0  0
 32 33  1  0  0  0
 33 30  1  0  0  0
 30 31  1  0  0  0
 30 26  1  0  0  0
 26 22  1  0  0  0
 22 23  1  0  0  0
 23 24  2  0  0  0
 23 21  1  0  0  0
 21 18  1  0  0  0
 18 19  1  0  0  0
 18  1  1  0  0  0
  1 34  1  0  0  0
 34 35  1  0  0  0
 35 36  1  0  0  0
 35 37  1  0  0  0
  1  2  1  0  0  0
  2  3  1  0  0  0
  3  4  2  0  0  0
  3  6  1  0  0  0
  6  7  1  0  0  0
  7  8  1  0  0  0
  8  9  2  0  0  0
  8 11  1  0  0  0
 11 12  1  0  0  0
 12 13  1  0  0  0
 12 14  1  0  0  0
  6 15  1  0  0  0
 15 16  1  0  0  0
 15 17  1  0  0  0
 26 27  1  0  0  0
 27 28  1  0  0  0
 27 29  1  0  0  0
 22 25  1  0  0  0
 19 20  1  0  0  0
  2  5  1  0  0  0
  7 10  1  0  0  0
M  END
> <minimizedAffinity>
12.89475

> <CNNscore>
0.4692376852

> <CNNaffinity>
6.4252371788

> <CNN_VS>
3.0149633884

> <CNNaffinity_variance>
0.8550178409

$$$$
[H]O[C@@]([H])(C([H])([H])C(=O)N([H])[C@]([H])(C([H])(C([H])([H])[H])C([H])([H])[H])[C@@]([H])(C([H])([H])[H])C([H])([H])C([H])([H])[H])[C@@]([H])(N([H])C(=O)[C@@]([H])(N([H])C(=O)C([H])([H])C([H])(C([H])([H])[H])C([H])([H])[H])C([H])(C([H])([H])[H])C([H])([H])[H])C([H])([H])C([H])(C([H])([H])[H])C([H])([H])[H]


 37 36  0  0  0  0  0  0  0  0999 V2000
   22.8539    9.0125   55.4933 C   0  0  0  0  0  0  0  0  0  0  0  0
   24.1848    9.4055   55.6137 N   0  0  0  0  0  0  0  0  0  0  0  0
   25.4151    8.7755   55.4542 C   0  0  0  0  0  0  0  0  0  0  0  0
   25.4605    7.5816   55.1143 O   0  0  0  0  0  0  0  0  0  0  0  0
   24.3065   10.4391   55.9512 H   0  0  0  0  0  0  0  0  0  0  0  0
   26.7414    9.4215   55.6628 C   0  0  0  0  0  0  0  0  0  0  0  0
   27.2496    9.0525   56.9784 N   0  0  0  0  0  0  0  0  0  0  0  0
   28.0343    9.9116   57.7944 C   0  0  0  0  0  0  0  0  0  0  0  0
   28.3403   11.0640   57.4117 O   0  0  0  0  0  0  0  0  0  0  0  0
   27.0410    8.1110   57.3757 H   0  0  0  0  0  0  0  0  0  0  0  0
   28.5262    9.4903   59.1349 C   0  0  0  0  0  0  0  0  0  0  0  0
   29.4131   10.5558   59.7512 C   0  0  0  0  0  0  0  0  0  0  0  0
   30.4859    9.9444   60.6189 C   0  0  0  0  0  0  0  0  0  0  0  0
   28.6210   11.5684   60.5102 C   0  0  0  0  0  0  0  0  0  0  0  0
   27.7375    9.1686   54.5851 C   0  0  0  0  0  0  0  0  0  0  0  0
   28.7122    8.1199   55.1363 C   0  0  0  0  0  0  0  0  0  0  0  0
   27.1567    8.6043   53.3230 C   0  0  0  0  0  0  0  0  0  0  0  0
   21.8048   10.1608   55.5620 C   0  0  0  0  0  0  0  0  0  0  0  0
   22.1427   10.8663   56.7030 O   0  0  0  0  0  0  0  0  0  0  0  0
   21.3734   11.2637   57.1230 H   0  0  0  0  0  0  0  0  0  0  0  0
   21.8472   11.0165   54.3637 C   0  0  0  0  0  0  0  0  0  0  0  0
   21.9174    8.8089   53.1267 N   0  0  0  0  0  0  0  0  0  0  0  0
   21.7671   10.2445   53.1193 C   0  0  0  0  0  0  0  0  0  0  0  0
   21.5715   10.7601   52.0161 O   0  0  0  0  0  0  0  0  0  0  0  0
   22.0739    8.3909   54.0663 H   0  0  0  0  0  0  0  0  0  0  0  0
   21.8603    8.0125   51.9313 C   0  0  0  0  0  0  0  0  0  0  0  0
   20.5178    7.3047   51.7880 C   0  0  0  0  0  0  0  0  0  0  0  0
   19.8830    7.2496   53.1781 C   0  0  0  0  0  0  0  0  0  0  0  0
   19.5716    8.1270   50.9372 C   0  0  0  0  0  0  0  0  0  0  0  0
   22.9993    7.0249   51.9597 C   0  0  0  0  0  0  0  0  0  0  0  0
   24.1941    7.7483   52.5840 C   0  0  0  0  0  0  0  0  0  0  0  0
   24.0156    5.0605   53.0450 C   0  0  0  0  0  0  0  0  0  0  0  0
   22.7165    5.8215   52.8130 C   0  0  0  0  0  0  0  0  0  0  0  0
   22.3365    7.8864   56.2821 C   0  0  0  0  0  0  0  0  0  0  0  0
   22.2307    6.5288   55.6932 C   0  0  0  0  0  0  0  0  0  0  0  0
   23.5058    5.8225   55.3615 C   0  0  0  0  0  0  0  0  0  0  0  0
   21.4528    5.6104   56.6666 C   0  0  0  0  0  0  0  0  0  0  0  0
 32 33  1  0  0  0
 33 30  1  0  0  0
 30 31  1  0  0  0
 30 26  1  0  0  0
 26 22  1  0  0  0
 22 23  1  0  0  0
 23 24  2  0  0  0
 23 21  1  0  0  0
 21 18  1  0  0  0
 18 19  1  0  0  0
 18  1  1  0  0  0
  1 34  1  0  0  0
 34 35  1  0  0  0
 35 36  1  0  0  0
 35 37  1  0  0  0
  1  2  1  0  0  0
  2  3  1  0  0  0
  3  4  2  0  0  0
  3  6  1  0  0  0
  6  7  1  0  0  0
  7  8  1  0  0  0
  8  9  2  0  0  0
  8 11  1  0  0  0
 11 12  1  0  0  0
 12 13  1  0  0  0
 12 14  1  0  0  0
  6 15  1  0  0  0
 15 16  1  0  0  0
 15 17  1  0  0  0
 26 27  1  0  0  0
 27 28  1  0  0  0
 27 29  1  0  0  0
 22 25  1  0  0  0
 19 20  1  0  0  0
  2  5  1  0  0  0
  7 10  1  0  0  0
M  END
> <minimizedAffinity>
12.15635

> <CNNscore>
0.4651948810

> <CNNaffinity>
6.8180909157

> <CNN_VS>
3.1717410088

> <CNNaffinity_variance>
0.5524497628

$$$$
[H]OC(=O)[C@@]([H])(N([H])C(=O)[C@@]([H])(N([H])C(=O)[C@@]([H])(N([H])C(=O)[C@@]1([H])N(C(=O)[C@@]([H])(N([H])[H])C([H])([H])c2c([H])c([H])c(O[H])c([H])c2[H])C([H])([H])C([H])([H])C1([H])[H])C([H])([H])c1c([H])c([H])c([H])c([H])c1[H])C([H])([H])C([H])(C([H])([H])[H])C([H])([H])[H])C([H])([H])c1c([H])n([H])c2c([H])c([H])c([H])c([H])c12


 61 65  0  0  0  0  0  0  0  0999 V2000
   29.2463   10.2041   59.3697 C   0  0  0  0  0  0  0  0  0  0  0  0
   28.8550   11.1219   60.4313 N   0  0  0  0  0  0  0  0  0  0  0  0
   29.8286   11.9897   60.9671 C   0  0  0  0  0  0  0  0  0  0  0  0
   31.0023   11.9587   60.5309 O   0  0  0  0  0  0  0  0  0  0  0  0
   27.8872   11.1359   60.7826 H   0  0  0  0  0  0  0  0  0  0  0  0
   29.5398   12.9748   62.0556 C   0  0  0  0  0  0  0  0  0  0  0  0
   28.5885   12.2521   63.0160 C   0  0  0  0  0  0  0  0  0  0  0  0
   27.2474   12.4849   62.3315 C   0  0  0  0  0  0  0  0  0  0  0  0
   27.4431   13.6168   61.3816 C   0  0  0  0  0  0  0  0  0  0  0  0
   28.8274   14.1135   61.5857 N   0  0  0  0  0  0  0  0  0  0  0  0
   29.1692   15.4463   61.3214 C   0  0  0  0  0  0  0  0  0  0  0  0
   28.2338   16.2297   60.8936 O   0  0  0  0  0  0  0  0  0  0  0  0
   30.4739   16.1073   61.4644 C   0  0  0  0  0  0  0  0  0  0  0  0
   31.4251   15.8300   60.4456 N   0  0  0  0  0  0  0  0  0  0  0  0
   32.4066   15.9196   60.7205 H   0  0  0  0  0  0  0  0  0  0  0  0
   31.1603   16.2624   59.5503 H   0  0  0  0  0  0  0  0  0  0  0  0
   30.2552   17.6285   61.4600 C   0  0  0  0  0  0  0  0  0  0  0  0
   29.7707   18.0806   60.1292 C   0  0  0  0  0  0  0  0  0  0  0  0
   28.5409   18.6525   59.9107 C   0  0  0  0  0  0  0  0  0  0  0  0
   28.1114   19.0649   58.6524 C   0  0  0  0  0  0  0  0  0  0  0  0
   28.9464   18.9005   57.5571 C   0  0  0  0  0  0  0  0  0  0  0  0
   28.5199   19.3109   56.3017 O   0  0  0  0  0  0  0  0  0  0  0  0
   30.1755   18.3312   57.7655 C   0  0  0  0  0  0  0  0  0  0  0  0
   30.5979   17.9246   59.0081 C   0  0  0  0  0  0  0  0  0  0  0  0
   28.0206   18.6176   55.7390 H   0  0  0  0  0  0  0  0  0  0  0  0
   27.8926    9.3893   57.3651 N   0  0  0  0  0  0  0  0  0  0  0  0
   28.4580   10.4204   58.1594 C   0  0  0  0  0  0  0  0  0  0  0  0
   28.2545   11.5988   57.7651 O   0  0  0  0  0  0  0  0  0  0  0  0
   28.0619    8.4209   57.6897 H   0  0  0  0  0  0  0  0  0  0  0  0
   27.1242    9.6104   56.1810 C   0  0  0  0  0  0  0  0  0  0  0  0
   26.1728    8.5326   55.8810 C   0  0  0  0  0  0  0  0  0  0  0  0
   26.5862    7.3444   55.8853 O   0  0  0  0  0  0  0  0  0  0  0  0
   24.8164    8.7315   55.5847 N   0  0  0  0  0  0  0  0  0  0  0  0
   24.4297    9.6921   55.5680 H   0  0  0  0  0  0  0  0  0  0  0  0
   23.8944    7.6456   55.2899 C   0  0  0  0  0  0  0  0  0  0  0  0
   24.1970    6.8803   54.0898 C   0  0  0  0  0  0  0  0  0  0  0  0
   23.9521    5.4918   54.1232 O   0  0  0  0  0  0  0  0  0  0  0  0
   24.6650    7.3206   53.0105 O   0  0  0  0  0  0  0  0  0  0  0  0
   23.5241    5.0347   54.9318 H   0  0  0  0  0  0  0  0  0  0  0  0
   22.4878    8.1822   55.3056 C   0  0  0  0  0  0  0  0  0  0  0  0
   21.8848    8.3781   53.9932 C   0  0  0  0  0  0  0  0  0  0  0  0
   21.2670    7.3498   53.2634 C   0  0  0  0  0  0  0  0  0  0  0  0
   20.7671    7.8325   52.1448 N   0  0  0  0  0  0  0  0  0  0  0  0
   21.0178    9.1431   52.0797 C   0  0  0  0  0  0  0  0  0  0  0  0
   20.7142   10.0663   51.1173 C   0  0  0  0  0  0  0  0  0  0  0  0
   21.1205   11.3777   51.3046 C   0  0  0  0  0  0  0  0  0  0  0  0
   21.8112   11.7443   52.4265 C   0  0  0  0  0  0  0  0  0  0  0  0
   22.1064   10.8100   53.3789 C   0  0  0  0  0  0  0  0  0  0  0  0
   21.7190    9.4947   53.2333 C   0  0  0  0  0  0  0  0  0  0  0  0
   20.2524    7.2934   51.4108 H   0  0  0  0  0  0  0  0  0  0  0  0
   27.9543   10.0368   55.0000 C   0  0  0  0  0  0  0  0  0  0  0  0
   27.2464    8.5859   53.0423 C   0  0  0  0  0  0  0  0  0  0  0  0
   28.2964    9.0499   53.9829 C   0  0  0  0  0  0  0  0  0  0  0  0
   29.0571    7.8566   54.5635 C   0  0  0  0  0  0  0  0  0  0  0  0
   29.0426    8.7865   59.8596 C   0  0  0  0  0  0  0  0  0  0  0  0
   29.9962    8.3922   60.8914 C   0  0  0  0  0  0  0  0  0  0  0  0
   31.2164    9.0317   60.9877 C   0  0  0  0  0  0  0  0  0  0  0  0
   32.1437    8.6898   61.9185 C   0  0  0  0  0  0  0  0  0  0  0  0
   31.9039    7.6817   62.8149 C   0  0  0  0  0  0  0  0  0  0  0  0
   30.6931    7.0295   62.7390 C   0  0  0  0  0  0  0  0  0  0  0  0
   29.7524    7.3756   61.7951 C   0  0  0  0  0  0  0  0  0  0  0  0
 52 53  1  0  0  0
 53 54  1  0  0  0
 53 51  1  0  0  0
 51 30  1  0  0  0
 30 26  1  0  0  0
 26 27  1  0  0  0
 27 28  2  0  0  0
 27  1  1  0  0  0
  1 55  1  0  0  0
 55 56  1  0  0  0
 56 57  2  0  0  0
 57 58  1  0  0  0
 58 59  2  0  0  0
 59 60  1  0  0  0
 60 61  2  0  0  0
  1  2  1  0  0  0
  2  3  1  0  0  0
  3  4  2  0  0  0
  3  6  1  0  0  0
  6  7  1  0  0  0
  7  8  1  0  0  0
  8  9  1  0  0  0
  9 10  1  0  0  0
 10 11  1  0  0  0
 11 12  2  0  0  0
 11 13  1  0  0  0
 13 14  1  0  0  0
 13 17  1  0  0  0
 17 18  1  0  0  0
 18 19  2  0  0  0
 19 20  1  0  0  0
 20 21  2  0  0  0
 21 22  1  0  0  0
 21 23  1  0  0  0
 23 24  2  0  0  0
 30 31  1  0  0  0
 31 32  2  0  0  0
 31 33  1  0  0  0
 33 35  1  0  0  0
 35 40  1  0  0  0
 40 41  1  0  0  0
 41 42  2  0  0  0
 42 43  1  0  0  0
 43 44  1  0  0  0
 44 45  2  0  0  0
 45 46  1  0  0  0
 46 47  2  0  0  0
 47 48  1  0  0  0
 48 49  2  0  0  0
 35 36  1  0  0  0
 36 37  1  0  0  0
 36 38  2  0  0  0
 61 56  1  0  0  0
 10  6  1  0  0  0
 24 18  1  0  0  0
 49 41  1  0  0  0
 49 44  1  0  0  0
 26 29  1  0  0  0
  2  5  1  0  0  0
 14 15  1  0  0  0
 14 16  1  0  0  0
 22 25  1  0  0  0
 33 34  1  0  0  0
 43 50  1  0  0  0
 37 39  1  0  0  0
M  END
> <minimizedAffinity>
4.75284

> <CNNscore>
0.5280296206

> <CNNaffinity>
7.6240530014

> <CNN_VS>
4.0257258415

> <CNNaffinity_variance>
0.6551743746

$$$$
[H]OC(=O)[C@@]([H])(N([H])C(=O)[C@@]([H])(N([H])C(=O)[C@@]([H])(N([H])C(=O)[C@@]1([H])N(C(=O)[C@@]([H])(N([H])[H])C([H])([H])c2c([H])c([H])c(O[H])c([H])c2[H])C([H])([H])C([H])([H])C1([H])[H])C([H])([H])c1c([H])c([H])c([H])c([H])c1[H])C([H])([H])C([H])(C([H])([H])[H])C([H])([H])[H])C([H])([H])c1c([H])n([H])c2c([H])c([H])c([H])c([H])c12


 61 65  0  0  0  0  0  0  0  0999 V2000
   29.3646   10.4246   60.5031 C   0  0  0  0  0  0  0  0  0  0  0  0
   30.6635   11.0673   60.6515 N   0  0  0  0  0  0  0  0  0  0  0  0
   31.6445   10.4336   61.4416 C   0  0  0  0  0  0  0  0  0  0  0  0
   31.3888    9.3422   62.0002 O   0  0  0  0  0  0  0  0  0  0  0  0
   30.8603   11.9658   60.1888 H   0  0  0  0  0  0  0  0  0  0  0  0
   33.0123   10.9990   61.6609 C   0  0  0  0  0  0  0  0  0  0  0  0
   33.8601    9.8269   62.1679 C   0  0  0  0  0  0  0  0  0  0  0  0
   33.5222    9.8411   63.6535 C   0  0  0  0  0  0  0  0  0  0  0  0
   32.9392   11.1813   63.9466 C   0  0  0  0  0  0  0  0  0  0  0  0
   33.0395   11.9752   62.6959 N   0  0  0  0  0  0  0  0  0  0  0  0
   33.1343   13.3728   62.7263 C   0  0  0  0  0  0  0  0  0  0  0  0
   33.1325   13.9470   63.8847 O   0  0  0  0  0  0  0  0  0  0  0  0
   33.2407   14.3125   61.6014 C   0  0  0  0  0  0  0  0  0  0  0  0
   32.5366   13.9501   60.4214 N   0  0  0  0  0  0  0  0  0  0  0  0
   32.9112   14.3303   59.5483 H   0  0  0  0  0  0  0  0  0  0  0  0
   31.5182   14.0194   60.5498 H   0  0  0  0  0  0  0  0  0  0  0  0
   32.6829   15.6737   62.0461 C   0  0  0  0  0  0  0  0  0  0  0  0
   32.6555   16.6234   60.9025 C   0  0  0  0  0  0  0  0  0  0  0  0
   31.5070   17.1653   60.3788 C   0  0  0  0  0  0  0  0  0  0  0  0
   31.5101   18.0512   59.3048 C   0  0  0  0  0  0  0  0  0  0  0  0
   32.7152   18.4162   58.7232 C   0  0  0  0  0  0  0  0  0  0  0  0
   32.7205   19.2991   57.6524 O   0  0  0  0  0  0  0  0  0  0  0  0
   33.8664   17.8808   59.2394 C   0  0  0  0  0  0  0  0  0  0  0  0
   33.8615   17.0066   60.2993 C   0  0  0  0  0  0  0  0  0  0  0  0
   32.6549   18.8862   56.7187 H   0  0  0  0  0  0  0  0  0  0  0  0
   28.4637    9.5052   58.2990 N   0  0  0  0  0  0  0  0  0  0  0  0
   28.8451   10.5775   59.1467 C   0  0  0  0  0  0  0  0  0  0  0  0
   28.7218   11.7349   58.6663 O   0  0  0  0  0  0  0  0  0  0  0  0
   28.5669    8.5541   58.6947 H   0  0  0  0  0  0  0  0  0  0  0  0
   27.9581    9.6643   56.9721 C   0  0  0  0  0  0  0  0  0  0  0  0
   26.6302    9.0713   56.7679 C   0  0  0  0  0  0  0  0  0  0  0  0
   25.9390    8.7773   57.7771 O   0  0  0  0  0  0  0  0  0  0  0  0
   26.0658    8.8031   55.5122 N   0  0  0  0  0  0  0  0  0  0  0  0
   26.5971    9.0267   54.6517 H   0  0  0  0  0  0  0  0  0  0  0  0
   24.7474    8.2137   55.3371 C   0  0  0  0  0  0  0  0  0  0  0  0
   24.6836    7.0956   54.4080 C   0  0  0  0  0  0  0  0  0  0  0  0
   24.0774    5.9055   54.8611 O   0  0  0  0  0  0  0  0  0  0  0  0
   25.1191    7.0656   53.2302 O   0  0  0  0  0  0  0  0  0  0  0  0
   23.6427    5.8342   55.7841 H   0  0  0  0  0  0  0  0  0  0  0  0
   23.7642    9.3061   55.0103 C   0  0  0  0  0  0  0  0  0  0  0  0
   22.4143    8.8524   54.7005 C   0  0  0  0  0  0  0  0  0  0  0  0
   21.3910    8.7555   55.6572 C   0  0  0  0  0  0  0  0  0  0  0  0
   20.2719    8.3723   55.0788 N   0  0  0  0  0  0  0  0  0  0  0  0
   20.4874    8.2027   53.7713 C   0  0  0  0  0  0  0  0  0  0  0  0
   19.6464    7.8034   52.7694 C   0  0  0  0  0  0  0  0  0  0  0  0
   20.1514    7.6940   51.4836 C   0  0  0  0  0  0  0  0  0  0  0  0
   21.4627    7.9779   51.2189 C   0  0  0  0  0  0  0  0  0  0  0  0
   22.2899    8.3761   52.2310 C   0  0  0  0  0  0  0  0  0  0  0  0
   21.8277    8.5002   53.5241 C   0  0  0  0  0  0  0  0  0  0  0  0
   19.3502    8.2191   55.5492 H   0  0  0  0  0  0  0  0  0  0  0  0
   28.9565    9.3056   55.9044 C   0  0  0  0  0  0  0  0  0  0  0  0
   28.3203    7.9588   53.8500 C   0  0  0  0  0  0  0  0  0  0  0  0
   28.5223    9.2712   54.5130 C   0  0  0  0  0  0  0  0  0  0  0  0
   29.3526   10.1965   53.6219 C   0  0  0  0  0  0  0  0  0  0  0  0
   28.4014   11.0525   61.4875 C   0  0  0  0  0  0  0  0  0  0  0  0
   28.4122   12.5113   61.4515 C   0  0  0  0  0  0  0  0  0  0  0  0
   27.2293   13.2156   61.5593 C   0  0  0  0  0  0  0  0  0  0  0  0
   27.1851   14.5718   61.5136 C   0  0  0  0  0  0  0  0  0  0  0  0
   28.3294   15.3092   61.3573 C   0  0  0  0  0  0  0  0  0  0  0  0
   29.5220   14.6287   61.2484 C   0  0  0  0  0  0  0  0  0  0  0  0
   29.5673   13.2534   61.2943 C   0  0  0  0  0  0  0  0  0  0  0  0
 52 53  1  0  0  0
 53 54  1  0  0  0
 53 51  1  0  0  0
 51 30  1  0  0  0
 30 26  1  0  0  0
 26 27  1  0  0  0
 27 28  2  0  0  0
 27  1  1  0  0  0
  1 55  1  0  0  0
 55 56  1  0  0  0
 56 57  2  0  0  0
 57 58  1  0  0  0
 58 59  2  0  0  0
 59 60  1  0  0  0
 60 61  2  0  0  0
  1  2  1  0  0  0
  2  3  1  0  0  0
  3  4  2  0  0  0
  3  6  1  0  0  0
  6  7  1  0  0  0
  7  8  1  0  0  0
  8  9  1  0  0  0
  9 10  1  0  0  0
 10 11  1  0  0  0
 11 12  2  0  0  0
 11 13  1  0  0  0
 13 14  1  0  0  0
 13 17  1  0  0  0
 17 18  1  0  0  0
 18 19  2  0  0  0
 19 20  1  0  0  0
 20 21  2  0  0  0
 21 22  1  0  0  0
 21 23  1  0  0  0
 23 24  2  0  0  0
 30 31  1  0  0  0
 31 32  2  0  0  0
 31 33  1  0  0  0
 33 35  1  0  0  0
 35 40  1  0  0  0
 40 41  1  0  0  0
 41 42  2  0  0  0
 42 43  1  0  0  0
 43 44  1  0  0  0
 44 45  2  0  0  0
 45 46  1  0  0  0
 46 47  2  0  0  0
 47 48  1  0  0  0
 48 49  2  0  0  0
 35 36  1  0  0  0
 36 37  1  0  0  0
 36 38  2  0  0  0
 61 56  1  0  0  0
 10  6  1  0  0  0
 24 18  1  0  0  0
 49 41  1  0  0  0
 49 44  1  0  0  0
 26 29  1  0  0  0
  2  5  1  0  0  0
 14 15  1  0  0  0
 14 16  1  0  0  0
 22 25  1  0  0  0
 33 34  1  0  0  0
 43 50  1  0  0  0
 37 39  1  0  0  0
M  END
> <minimizedAffinity>
5.81948

> <CNNscore>
0.5271792412

> <CNNaffinity>
7.2567567825

> <CNN_VS>
3.8256115913

> <CNNaffinity_variance>
1.2690839767

$$$$
[H]OC(=O)[C@@]([H])(N([H])C(=O)[C@@]([H])(N([H])C(=O)[C@@]([H])(N([H])C(=O)[C@@]1([H])N(C(=O)[C@@]([H])(N([H])[H])C([H])([H])c2c([H])c([H])c(O[H])c([H])c2[H])C([H])([H])C([H])([H])C1([H])[H])C([H])([H])c1c([H])c([H])c([H])c([H])c1[H])C([H])([H])C([H])(C([H])([H])[H])C([H])([H])[H])C([H])([H])c1c([H])n([H])c2c([H])c([H])c([H])c([H])c12


 61 65  0  0  0  0  0  0  0  0999 V2000
   25.8890    8.8941   55.8995 C   0  0  0  0  0  0  0  0  0  0  0  0
   24.7156    9.7555   55.8438 N   0  0  0  0  0  0  0  0  0  0  0  0
   23.6245    9.3601   55.0431 C   0  0  0  0  0  0  0  0  0  0  0  0
   23.6787    8.2886   54.3968 O   0  0  0  0  0  0  0  0  0  0  0  0
   24.6845   10.6351   56.3783 H   0  0  0  0  0  0  0  0  0  0  0  0
   22.3684   10.1627   54.9134 C   0  0  0  0  0  0  0  0  0  0  0  0
   21.5042    9.7621   56.1143 C   0  0  0  0  0  0  0  0  0  0  0  0
   20.8475    8.4904   55.5923 C   0  0  0  0  0  0  0  0  0  0  0  0
   20.9944    8.5111   54.1091 C   0  0  0  0  0  0  0  0  0  0  0  0
   21.6149    9.8135   53.7579 N   0  0  0  0  0  0  0  0  0  0  0  0
   21.3901   10.4149   52.5126 C   0  0  0  0  0  0  0  0  0  0  0  0
   20.6207    9.7942   51.6792 O   0  0  0  0  0  0  0  0  0  0  0  0
   21.9142   11.6875   51.9973 C   0  0  0  0  0  0  0  0  0  0  0  0
   21.9427   11.8197   50.5827 N   0  0  0  0  0  0  0  0  0  0  0  0
   22.6465   12.4637   50.2126 H   0  0  0  0  0  0  0  0  0  0  0  0
   20.9956   11.9030   50.1894 H   0  0  0  0  0  0  0  0  0  0  0  0
   21.0346   12.8303   52.5284 C   0  0  0  0  0  0  0  0  0  0  0  0
   21.2885   14.0803   51.7645 C   0  0  0  0  0  0  0  0  0  0  0  0
   22.3947   14.2909   50.9777 C   0  0  0  0  0  0  0  0  0  0  0  0
   22.6086   15.4731   50.2745 C   0  0  0  0  0  0  0  0  0  0  0  0
   21.6761   16.4965   50.3579 C   0  0  0  0  0  0  0  0  0  0  0  0
   21.8876   17.6760   49.6577 O   0  0  0  0  0  0  0  0  0  0  0  0
   20.5690   16.2952   51.1402 C   0  0  0  0  0  0  0  0  0  0  0  0
   20.3594   15.1278   51.8337 C   0  0  0  0  0  0  0  0  0  0  0  0
   22.4032   18.4121   50.1466 H   0  0  0  0  0  0  0  0  0  0  0  0
   27.1828   10.1477   57.7077 N   0  0  0  0  0  0  0  0  0  0  0  0
   27.0573    9.6146   56.3985 C   0  0  0  0  0  0  0  0  0  0  0  0
   28.0378    9.7960   55.6297 O   0  0  0  0  0  0  0  0  0  0  0  0
   26.3752    9.9990   58.3383 H   0  0  0  0  0  0  0  0  0  0  0  0
   28.3292   10.8532   58.1867 C   0  0  0  0  0  0  0  0  0  0  0  0
   29.1373   10.0902   59.1467 C   0  0  0  0  0  0  0  0  0  0  0  0
   30.1808   10.6179   59.6106 O   0  0  0  0  0  0  0  0  0  0  0  0
   28.8286    8.7964   59.5918 N   0  0  0  0  0  0  0  0  0  0  0  0
   27.9801    8.3199   59.2374 H   0  0  0  0  0  0  0  0  0  0  0  0
   29.6470    8.0613   60.5436 C   0  0  0  0  0  0  0  0  0  0  0  0
   29.2403    6.6846   60.7818 C   0  0  0  0  0  0  0  0  0  0  0  0
   29.1664    6.2492   62.1212 O   0  0  0  0  0  0  0  0  0  0  0  0
   28.9480    5.8223   59.9165 O   0  0  0  0  0  0  0  0  0  0  0  0
   29.3326    6.8811   62.9080 H   0  0  0  0  0  0  0  0  0  0  0  0
   29.7646    8.8668   61.8101 C   0  0  0  0  0  0  0  0  0  0  0  0
   31.1174    9.0011   62.3357 C   0  0  0  0  0  0  0  0  0  0  0  0
   31.9915    7.9163   62.5110 C   0  0  0  0  0  0  0  0  0  0  0  0
   33.1571    8.3463   62.9474 N   0  0  0  0  0  0  0  0  0  0  0  0
   33.1155    9.6752   63.0781 C   0  0  0  0  0  0  0  0  0  0  0  0
   34.0638   10.5631   63.5060 C   0  0  0  0  0  0  0  0  0  0  0  0
   33.7362   11.9084   63.5603 C   0  0  0  0  0  0  0  0  0  0  0  0
   32.4919   12.3423   63.1951 C   0  0  0  0  0  0  0  0  0  0  0  0
   31.5558   11.4426   62.7694 C   0  0  0  0  0  0  0  0  0  0  0  0
   31.8407   10.0953   62.6981 C   0  0  0  0  0  0  0  0  0  0  0  0
   33.9950    7.7585   63.1634 H   0  0  0  0  0  0  0  0  0  0  0  0
   28.0248   12.2596   58.6284 C   0  0  0  0  0  0  0  0  0  0  0  0
   27.5373   12.4035   61.1145 C   0  0  0  0  0  0  0  0  0  0  0  0
   28.4300   12.6850   59.9627 C   0  0  0  0  0  0  0  0  0  0  0  0
   28.8947   14.1420   59.9921 C   0  0  0  0  0  0  0  0  0  0  0  0
   26.1719    8.3751   54.5060 C   0  0  0  0  0  0  0  0  0  0  0  0
   25.1648    7.4336   54.0277 C   0  0  0  0  0  0  0  0  0  0  0  0
   24.5891    7.6072   52.7846 C   0  0  0  0  0  0  0  0  0  0  0  0
   23.6358    6.7693   52.3025 C   0  0  0  0  0  0  0  0  0  0  0  0
   23.1992    5.7001   53.0399 C   0  0  0  0  0  0  0  0  0  0  0  0
   23.7595    5.5058   54.2831 C   0  0  0  0  0  0  0  0  0  0  0  0
   24.7260    6.3555   54.7726 C   0  0  0  0  0  0  0  0  0  0  0  0
 52 53  1  0  0  0
 53 54  1  0  0  0
 53 51  1  0  0  0
 51 30  1  0  0  0
 30 26  1  0  0  0
 26 27  1  0  0  0
 27 28  2  0  0  0
 27  1  1  0  0  0
  1 55  1  0  0  0
 55 56  1  0  0  0
 56 57  2  0  0  0
 57 58  1  0  0  0
 58 59  2  0  0  0
 59 60  1  0  0  0
 60 61  2  0  0  0
  1  2  1  0  0  0
  2  3  1  0  0  0
  3  4  2  0  0  0
  3  6  1  0  0  0
  6  7  1  0  0  0
  7  8  1  0  0  0
  8  9  1  0  0  0
  9 10  1  0  0  0
 10 11  1  0  0  0
 11 12  2  0  0  0
 11 13  1  0  0  0
 13 14  1  0  0  0
 13 17  1  0  0  0
 17 18  1  0  0  0
 18 19  2  0  0  0
 19 20  1  0  0  0
 20 21  2  0  0  0
 21 22  1  0  0  0
 21 23  1  0  0  0
 23 24  2  0  0  0
 30 31  1  0  0  0
 31 32  2  0  0  0
 31 33  1  0  0  0
 33 35  1  0  0  0
 35 40  1  0  0  0
 40 41  1  0  0  0
 41 42  2  0  0  0
 42 43  1  0  0  0
 43 44  1  0  0  0
 44 45  2  0  0  0
 45 46  1  0  0  0
 46 47  2  0  0  0
 47 48  1  0  0  0
 48 49  2  0  0  0
 35 36  1  0  0  0
 36 37  1  0  0  0
 36 38  2  0  0  0
 61 56  1  0  0  0
 10  6  1  0  0  0
 24 18  1  0  0  0
 49 41  1  0  0  0
 49 44  1  0  0  0
 26 29  1  0  0  0
  2  5  1  0  0  0
 14 15  1  0  0  0
 14 16  1  0  0  0
 22 25  1  0  0  0
 33 34  1  0  0  0
 43 50  1  0  0  0
 37 39  1  0  0  0
M  END
> <minimizedAffinity>
15.33343

> <CNNscore>
0.5224852562

> <CNNaffinity>
7.2198181152

> <CNN_VS>
3.7722485065

> <CNNaffinity_variance>
0.8575043678

$$$$
[H]OC(=O)[C@@]([H])(N([H])C(=O)[C@@]([H])(N([H])C(=O)[C@@]([H])(N([H])C(=O)[C@@]1([H])N(C(=O)[C@@]([H])(N([H])[H])C([H])([H])c2c([H])c([H])c(O[H])c([H])c2[H])C([H])([H])C([H])([H])C1([H])[H])C([H])([H])c1c([H])c([H])c([H])c([H])c1[H])C([H])([H])C([H])(C([H])([H])[H])C([H])([H])[H])C([H])([H])c1c([H])n([H])c2c([H])c([H])c([H])c([H])c12


 61 65  0  0  0  0  0  0  0  0999 V2000
   28.8006   10.5572   59.5200 C   0  0  0  0  0  0  0  0  0  0  0  0
   30.2047   10.9445   59.5431 N   0  0  0  0  0  0  0  0  0  0  0  0
   30.9167   10.8326   60.7550 C   0  0  0  0  0  0  0  0  0  0  0  0
   30.3395   10.4097   61.7829 O   0  0  0  0  0  0  0  0  0  0  0  0
   30.6671   11.2928   58.6915 H   0  0  0  0  0  0  0  0  0  0  0  0
   32.3610   11.1973   60.8947 C   0  0  0  0  0  0  0  0  0  0  0  0
   33.0869    9.8789   61.1857 C   0  0  0  0  0  0  0  0  0  0  0  0
   32.8831    9.7574   62.6906 C   0  0  0  0  0  0  0  0  0  0  0  0
   32.5099   11.1141   63.1824 C   0  0  0  0  0  0  0  0  0  0  0  0
   32.6061   12.0330   62.0201 N   0  0  0  0  0  0  0  0  0  0  0  0
   32.8873   13.3950   62.1900 C   0  0  0  0  0  0  0  0  0  0  0  0
   33.0612   13.8234   63.3975 O   0  0  0  0  0  0  0  0  0  0  0  0
   33.0196   14.4418   61.1671 C   0  0  0  0  0  0  0  0  0  0  0  0
   31.9748   14.5059   60.2059 N   0  0  0  0  0  0  0  0  0  0  0  0
   32.2316   14.9051   59.2993 H   0  0  0  0  0  0  0  0  0  0  0  0
   31.0962   14.8437   60.6213 H   0  0  0  0  0  0  0  0  0  0  0  0
   33.0576   15.8092   61.8677 C   0  0  0  0  0  0  0  0  0  0  0  0
   31.9631   16.6813   61.3659 C   0  0  0  0  0  0  0  0  0  0  0  0
   31.7297   16.9364   60.0364 C   0  0  0  0  0  0  0  0  0  0  0  0
   30.6981   17.7599   59.5940 C   0  0  0  0  0  0  0  0  0  0  0  0
   29.8569   18.3592   60.5198 C   0  0  0  0  0  0  0  0  0  0  0  0
   28.8279   19.1806   60.0808 O   0  0  0  0  0  0  0  0  0  0  0  0
   30.0819   18.1101   61.8485 C   0  0  0  0  0  0  0  0  0  0  0  0
   31.1005   17.2972   62.2835 C   0  0  0  0  0  0  0  0  0  0  0  0
   29.0485   20.1741   59.9765 H   0  0  0  0  0  0  0  0  0  0  0  0
   27.7317   10.4722   57.2037 N   0  0  0  0  0  0  0  0  0  0  0  0
   28.4536    9.8810   58.2729 C   0  0  0  0  0  0  0  0  0  0  0  0
   28.8029    8.6823   58.1100 O   0  0  0  0  0  0  0  0  0  0  0  0
   27.4438   11.4574   57.3397 H   0  0  0  0  0  0  0  0  0  0  0  0
   27.3949    9.8021   55.9877 C   0  0  0  0  0  0  0  0  0  0  0  0
   26.2930    8.8411   56.1251 C   0  0  0  0  0  0  0  0  0  0  0  0
   26.0570    8.3521   57.2599 O   0  0  0  0  0  0  0  0  0  0  0  0
   25.4712    8.4201   55.0692 N   0  0  0  0  0  0  0  0  0  0  0  0
   25.6274    8.7939   54.1161 H   0  0  0  0  0  0  0  0  0  0  0  0
   24.3859    7.4653   55.2320 C   0  0  0  0  0  0  0  0  0  0  0  0
   24.1355    6.6057   54.0849 C   0  0  0  0  0  0  0  0  0  0  0  0
   24.5477    7.0714   52.8191 O   0  0  0  0  0  0  0  0  0  0  0  0
   23.5794    5.4794   54.0913 O   0  0  0  0  0  0  0  0  0  0  0  0
   25.0566    7.9510   52.7029 H   0  0  0  0  0  0  0  0  0  0  0  0
   23.1559    8.1993   55.6959 C   0  0  0  0  0  0  0  0  0  0  0  0
   22.5005    9.0136   54.6802 C   0  0  0  0  0  0  0  0  0  0  0  0
   22.4267   10.4146   54.7395 C   0  0  0  0  0  0  0  0  0  0  0  0
   21.8276   10.8775   53.6621 N   0  0  0  0  0  0  0  0  0  0  0  0
   21.4891    9.8545   52.8724 C   0  0  0  0  0  0  0  0  0  0  0  0
   20.8437    9.8293   51.6668 C   0  0  0  0  0  0  0  0  0  0  0  0
   20.6025    8.6025   51.0692 C   0  0  0  0  0  0  0  0  0  0  0  0
   20.9996    7.4399   51.6699 C   0  0  0  0  0  0  0  0  0  0  0  0
   21.6438    7.4823   52.8741 C   0  0  0  0  0  0  0  0  0  0  0  0
   21.9057    8.6816   53.5022 C   0  0  0  0  0  0  0  0  0  0  0  0
   21.6371   11.8819   53.4403 H   0  0  0  0  0  0  0  0  0  0  0  0
   28.5908    9.2574   55.2537 C   0  0  0  0  0  0  0  0  0  0  0  0
   27.1566    8.8501   53.2003 C   0  0  0  0  0  0  0  0  0  0  0  0
   28.3891    8.5761   53.9805 C   0  0  0  0  0  0  0  0  0  0  0  0
   28.6313    7.0693   54.0828 C   0  0  0  0  0  0  0  0  0  0  0  0
   27.9549   11.8033   59.6722 C   0  0  0  0  0  0  0  0  0  0  0  0
   28.0148   12.3786   61.0119 C   0  0  0  0  0  0  0  0  0  0  0  0
   28.6843   13.5672   61.2261 C   0  0  0  0  0  0  0  0  0  0  0  0
   28.7832   14.1334   62.4561 C   0  0  0  0  0  0  0  0  0  0  0  0
   28.2137   13.5407   63.5524 C   0  0  0  0  0  0  0  0  0  0  0  0
   27.5396   12.3544   63.3636 C   0  0  0  0  0  0  0  0  0  0  0  0
   27.4394   11.7797   62.1165 C   0  0  0  0  0  0  0  0  0  0  0  0
 52 53  1  0  0  0
 53 54  1  0  0  0
 53 51  1  0  0  0
 51 30  1  0  0  0
 30 26  1  0  0  0
 26 27  1  0  0  0
 27 28  2  0  0  0
 27  1  1  0  0  0
  1 55  1  0  0  0
 55 56  1  0  0  0
 56 57  2  0  0  0
 57 58  1  0  0  0
 58 59  2  0  0  0
 59 60  1  0  0  0
 60 61  2  0  0  0
  1  2  1  0  0  0
  2  3  1  0  0  0
  3  4  2  0  0  0
  3  6  1  0  0  0
  6  7  1  0  0  0
  7  8  1  0  0  0
  8  9  1  0  0  0
  9 10  1  0  0  0
 10 11  1  0  0  0
 11 12  2  0  0  0
 11 13  1  0  0  0
 13 14  1  0  0  0
 13 17  1  0  0  0
 17 18  1  0  0  0
 18 19  2  0  0  0
 19 20  1  0  0  0
 20 21  2  0  0  0
 21 22  1  0  0  0
 21 23  1  0  0  0
 23 24  2  0  0  0
 30 31  1  0  0  0
 31 32  2  0  0  0
 31 33  1  0  0  0
 33 35  1  0  0  0
 35 40  1  0  0  0
 40 41  1  0  0  0
 41 42  2  0  0  0
 42 43  1  0  0  0
 43 44  1  0  0  0
 44 45  2  0  0  0
 45 46  1  0  0  0
 46 47  2  0  0  0
 47 48  1  0  0  0
 48 49  2  0  0  0
 35 36  1  0  0  0
 36 37  1  0  0  0
 36 38  2  0  0  0
 61 56  1  0  0  0
 10  6  1  0  0  0
 24 18  1  0  0  0
 49 41  1  0  0  0
 49 44  1  0  0  0
 26 29  1  0  0  0
  2  5  1  0  0  0
 14 15  1  0  0  0
 14 16  1  0  0  0
 22 25  1  0  0  0
 33 34  1  0  0  0
 43 50  1  0  0  0
 37 39  1  0  0  0
M  END
> <minimizedAffinity>
8.52132

> <CNNscore>
0.5139155984

> <CNNaffinity>
7.3073463440

> <CNN_VS>
3.7553591728

> <CNNaffinity_variance>
1.3184826374

$$$$
[H]OC(=O)[C@@]([H])(N([H])C(=O)[C@@]([H])(N([H])C(=O)[C@@]([H])(N([H])C(=O)[C@@]1([H])N(C(=O)[C@@]([H])(N([H])[H])C([H])([H])c2c([H])c([H])c(O[H])c([H])c2[H])C([H])([H])C([H])([H])C1([H])[H])C([H])([H])c1c([H])c([H])c([H])c([H])c1[H])C([H])([H])C([H])(C([H])([H])[H])C([H])([H])[H])C([H])([H])c1c([H])n([H])c2c([H])c([H])c([H])c([H])c12


 61 65  0  0  0  0  0  0  0  0999 V2000
   28.2807   10.2570   59.0408 C   0  0  0  0  0  0  0  0  0  0  0  0
   28.5853   11.4413   59.8325 N   0  0  0  0  0  0  0  0  0  0  0  0
   28.2675   11.4358   61.2062 C   0  0  0  0  0  0  0  0  0  0  0  0
   27.7321   10.4270   61.7204 O   0  0  0  0  0  0  0  0  0  0  0  0
   29.0237   12.2650   59.3972 H   0  0  0  0  0  0  0  0  0  0  0  0
   28.5379   12.5928   62.1155 C   0  0  0  0  0  0  0  0  0  0  0  0
   27.8623   12.2327   63.4435 C   0  0  0  0  0  0  0  0  0  0  0  0
   26.4285   12.6704   63.1717 C   0  0  0  0  0  0  0  0  0  0  0  0
   26.4782   13.5969   62.0051 C   0  0  0  0  0  0  0  0  0  0  0  0
   27.9122   13.7919   61.6733 N   0  0  0  0  0  0  0  0  0  0  0  0
   28.3644   14.9683   61.0611 C   0  0  0  0  0  0  0  0  0  0  0  0
   27.4866   15.8798   60.7960 O   0  0  0  0  0  0  0  0  0  0  0  0
   29.7319   15.3320   60.6645 C   0  0  0  0  0  0  0  0  0  0  0  0
   30.1023   14.9965   59.3341 N   0  0  0  0  0  0  0  0  0  0  0  0
   31.1032   14.8534   59.1762 H   0  0  0  0  0  0  0  0  0  0  0  0
   29.6098   15.5793   58.6439 H   0  0  0  0  0  0  0  0  0  0  0  0
   29.8908   16.8551   60.7946 C   0  0  0  0  0  0  0  0  0  0  0  0
   30.9084   17.3560   59.8334 C   0  0  0  0  0  0  0  0  0  0  0  0
   30.6335   17.7069   58.5340 C   0  0  0  0  0  0  0  0  0  0  0  0
   31.6071   18.1712   57.6539 C   0  0  0  0  0  0  0  0  0  0  0  0
   32.9190   18.2927   58.0877 C   0  0  0  0  0  0  0  0  0  0  0  0
   33.8911   18.7553   57.2118 O   0  0  0  0  0  0  0  0  0  0  0  0
   33.2025   17.9453   59.3828 C   0  0  0  0  0  0  0  0  0  0  0  0
   32.2405   17.4872   60.2501 C   0  0  0  0  0  0  0  0  0  0  0  0
   34.3792   18.0489   56.6557 H   0  0  0  0  0  0  0  0  0  0  0  0
   29.8603    8.9803   60.5867 N   0  0  0  0  0  0  0  0  0  0  0  0
   28.7599    9.0411   59.6927 C   0  0  0  0  0  0  0  0  0  0  0  0
   28.1759    7.9507   59.4574 O   0  0  0  0  0  0  0  0  0  0  0  0
   30.3405    9.8773   60.7781 H   0  0  0  0  0  0  0  0  0  0  0  0
   30.3235    7.7854   61.2184 C   0  0  0  0  0  0  0  0  0  0  0  0
   29.2632    7.0153   61.8815 C   0  0  0  0  0  0  0  0  0  0  0  0
   28.5265    7.5990   62.7177 O   0  0  0  0  0  0  0  0  0  0  0  0
   29.0065    5.6560   61.6495 N   0  0  0  0  0  0  0  0  0  0  0  0
   29.5873    5.1322   60.9706 H   0  0  0  0  0  0  0  0  0  0  0  0
   27.9496    4.9156   62.3208 C   0  0  0  0  0  0  0  0  0  0  0  0
   28.1211    4.7490   63.7562 C   0  0  0  0  0  0  0  0  0  0  0  0
   27.0000    4.3298   64.5023 O   0  0  0  0  0  0  0  0  0  0  0  0
   29.1694    4.9445   64.4199 O   0  0  0  0  0  0  0  0  0  0  0  0
   26.1098    4.0920   64.0584 H   0  0  0  0  0  0  0  0  0  0  0  0
   27.7335    3.6118   61.5995 C   0  0  0  0  0  0  0  0  0  0  0  0
   27.5956    2.4434   62.4597 C   0  0  0  0  0  0  0  0  0  0  0  0
   28.6873    1.7600   63.0190 C   0  0  0  0  0  0  0  0  0  0  0  0
   28.2569    0.7847   63.7919 N   0  0  0  0  0  0  0  0  0  0  0  0
   26.9210    0.7725   63.7831 C   0  0  0  0  0  0  0  0  0  0  0  0
   26.0287   -0.0518   64.4117 C   0  0  0  0  0  0  0  0  0  0  0  0
   24.6744    0.1566   64.2056 C   0  0  0  0  0  0  0  0  0  0  0  0
   24.2360    1.1638   63.3911 C   0  0  0  0  0  0  0  0  0  0  0  0
   25.1402    1.9789   62.7707 C   0  0  0  0  0  0  0  0  0  0  0  0
   26.4967    1.8079   62.9501 C   0  0  0  0  0  0  0  0  0  0  0  0
   28.8491    0.1149   64.3350 H   0  0  0  0  0  0  0  0  0  0  0  0
   31.5479    7.9941   62.0687 C   0  0  0  0  0  0  0  0  0  0  0  0
   30.9664    7.1530   64.3911 C   0  0  0  0  0  0  0  0  0  0  0  0
   31.8081    7.0761   63.1711 C   0  0  0  0  0  0  0  0  0  0  0  0
   33.2897    7.0254   63.5480 C   0  0  0  0  0  0  0  0  0  0  0  0
   28.9424   10.3996   57.6869 C   0  0  0  0  0  0  0  0  0  0  0  0
   28.2184    9.7185   56.6186 C   0  0  0  0  0  0  0  0  0  0  0  0
   26.8487    9.5633   56.6997 C   0  0  0  0  0  0  0  0  0  0  0  0
   26.1327    8.9220   55.7408 C   0  0  0  0  0  0  0  0  0  0  0  0
   26.7482    8.3950   54.6359 C   0  0  0  0  0  0  0  0  0  0  0  0
   28.1143    8.5381   54.5324 C   0  0  0  0  0  0  0  0  0  0  0  0
   28.8409    9.1881   55.5046 C   0  0  0  0  0  0  0  0  0  0  0  0
 52 53  1  0  0  0
 53 54  1  0  0  0
 53 51  1  0  0  0
 51 30  1  0  0  0
 30 26  1  0  0  0
 26 27  1  0  0  0
 27 28  2  0  0  0
 27  1  1  0  0  0
  1 55  1  0  0  0
 55 56  1  0  0  0
 56 57  2  0  0  0
 57 58  1  0  0  0
 58 59  2  0  0  0
 59 60  1  0  0  0
 60 61  2  0  0  0
  1  2  1  0  0  0
  2  3  1  0  0  0
  3  4  2  0  0  0
  3  6  1  0  0  0
  6  7  1  0  0  0
  7  8  1  0  0  0
  8  9  1  0  0  0
  9 10  1  0  0  0
 10 11  1  0  0  0
 11 12  2  0  0  0
 11 13  1  0  0  0
 13 14  1  0  0  0
 13 17  1  0  0  0
 17 18  1  0  0  0
 18 19  2  0  0  0
 19 20  1  0  0  0
 20 21  2  0  0  0
 21 22  1  0  0  0
 21 23  1  0  0  0
 23 24  2  0  0  0
 30 31  1  0  0  0
 31 32  2  0  0  0
 31 33  1  0  0  0
 33 35  1  0  0  0
 35 40  1  0  0  0
 40 41  1  0  0  0
 41 42  2  0  0  0
 42 43  1  0  0  0
 43 44  1  0  0  0
 44 45  2  0  0  0
 45 46  1  0  0  0
 46 47  2  0  0  0
 47 48  1  0  0  0
 48 49  2  0  0  0
 35 36  1  0  0  0
 36 37  1  0  0  0
 36 38  2  0  0  0
 61 56  1  0  0  0
 10  6  1  0  0  0
 24 18  1  0  0  0
 49 41  1  0  0  0
 49 44  1  0  0  0
 26 29  1  0  0  0
  2  5  1  0  0  0
 14 15  1  0  0  0
 14 16  1  0  0  0
 22 25  1  0  0  0
 33 34  1  0  0  0
 43 50  1  0  0  0
 37 39  1  0  0  0
M  END
> <minimizedAffinity>
4.76969

> <CNNscore>
0.5117298961

> <CNNaffinity>
6.9530334473

> <CNN_VS>
3.5580751896

> <CNNaffinity_variance>
0.5921942592

$$$$
[H]OC(=O)[C@@]([H])(N([H])C(=O)[C@@]([H])(N([H])C(=O)[C@@]([H])(N([H])C(=O)[C@@]1([H])N(C(=O)[C@@]([H])(N([H])[H])C([H])([H])c2c([H])c([H])c(O[H])c([H])c2[H])C([H])([H])C([H])([H])C1([H])[H])C([H])([H])c1c([H])c([H])c([H])c([H])c1[H])C([H])([H])C([H])(C([H])([H])[H])C([H])([H])[H])C([H])([H])c1c([H])n([H])c2c([H])c([H])c([H])c([H])c12


 61 65  0  0  0  0  0  0  0  0999 V2000
   28.4378   11.5537   59.4323 C   0  0  0  0  0  0  0  0  0  0  0  0
   29.5762   11.1167   60.2293 N   0  0  0  0  0  0  0  0  0  0  0  0
   29.4346   11.0512   61.6306 C   0  0  0  0  0  0  0  0  0  0  0  0
   28.3470   11.3679   62.1650 O   0  0  0  0  0  0  0  0  0  0  0  0
   30.4657   10.8612   59.7779 H   0  0  0  0  0  0  0  0  0  0  0  0
   30.5336   10.6137   62.5468 C   0  0  0  0  0  0  0  0  0  0  0  0
   31.2408   11.9034   62.9781 C   0  0  0  0  0  0  0  0  0  0  0  0
   32.1890   12.1244   61.8062 C   0  0  0  0  0  0  0  0  0  0  0  0
   32.2917   10.8224   61.0880 C   0  0  0  0  0  0  0  0  0  0  0  0
   31.5199    9.8329   61.8816 N   0  0  0  0  0  0  0  0  0  0  0  0
   31.8412    8.4694   61.8564 C   0  0  0  0  0  0  0  0  0  0  0  0
   32.8365    8.1034   61.1167 O   0  0  0  0  0  0  0  0  0  0  0  0
   31.1956    7.3586   62.5698 C   0  0  0  0  0  0  0  0  0  0  0  0
   31.3035    7.3846   63.9865 N   0  0  0  0  0  0  0  0  0  0  0  0
   31.2463    6.4748   64.4514 H   0  0  0  0  0  0  0  0  0  0  0  0
   30.7423    8.1432   64.3967 H   0  0  0  0  0  0  0  0  0  0  0  0
   29.6941    7.3733   62.2425 C   0  0  0  0  0  0  0  0  0  0  0  0
   29.0401    6.1362   62.7445 C   0  0  0  0  0  0  0  0  0  0  0  0
   28.9087    5.8199   64.0749 C   0  0  0  0  0  0  0  0  0  0  0  0
   28.2933    4.6522   64.5175 C   0  0  0  0  0  0  0  0  0  0  0  0
   27.7831    3.7548   63.5911 C   0  0  0  0  0  0  0  0  0  0  0  0
   27.1694    2.5901   64.0304 O   0  0  0  0  0  0  0  0  0  0  0  0
   27.9092    4.0622   62.2615 C   0  0  0  0  0  0  0  0  0  0  0  0
   28.5170    5.2150   61.8263 C   0  0  0  0  0  0  0  0  0  0  0  0
   27.7727    1.7728   64.1516 H   0  0  0  0  0  0  0  0  0  0  0  0
   27.5558   10.9908   57.1042 N   0  0  0  0  0  0  0  0  0  0  0  0
   28.1713   10.6318   58.3314 C   0  0  0  0  0  0  0  0  0  0  0  0
   28.4957    9.4215   58.4558 O   0  0  0  0  0  0  0  0  0  0  0  0
   27.2883   11.9859   57.0039 H   0  0  0  0  0  0  0  0  0  0  0  0
   27.2971   10.0812   56.0331 C   0  0  0  0  0  0  0  0  0  0  0  0
   26.1770    9.1666   56.2887 C   0  0  0  0  0  0  0  0  0  0  0  0
   26.0321    8.6990   57.4475 O   0  0  0  0  0  0  0  0  0  0  0  0
   25.2418    8.7682   55.3222 N   0  0  0  0  0  0  0  0  0  0  0  0
   25.3202    9.1257   54.3533 H   0  0  0  0  0  0  0  0  0  0  0  0
   24.1407    7.8594   55.6012 C   0  0  0  0  0  0  0  0  0  0  0  0
   23.9476    6.7971   54.6256 C   0  0  0  0  0  0  0  0  0  0  0  0
   24.5680    6.9465   53.3679 O   0  0  0  0  0  0  0  0  0  0  0  0
   23.2753    5.7466   54.7751 O   0  0  0  0  0  0  0  0  0  0  0  0
   25.1808    7.7371   53.1547 H   0  0  0  0  0  0  0  0  0  0  0  0
   22.8932    8.6656   55.8469 C   0  0  0  0  0  0  0  0  0  0  0  0
   22.3098    9.2810   54.6615 C   0  0  0  0  0  0  0  0  0  0  0  0
   22.2920   10.6671   54.4375 C   0  0  0  0  0  0  0  0  0  0  0  0
   21.7526   10.9242   53.2641 N   0  0  0  0  0  0  0  0  0  0  0  0
   21.4012    9.7755   52.6795 C   0  0  0  0  0  0  0  0  0  0  0  0
   20.8000    9.5305   51.4757 C   0  0  0  0  0  0  0  0  0  0  0  0
   20.5302    8.2176   51.1241 C   0  0  0  0  0  0  0  0  0  0  0  0
   20.8565    7.1864   51.9611 C   0  0  0  0  0  0  0  0  0  0  0  0
   21.4572    7.4480   53.1601 C   0  0  0  0  0  0  0  0  0  0  0  0
   21.7454    8.7395   53.5479 C   0  0  0  0  0  0  0  0  0  0  0  0
   21.6122   11.8695   52.8386 H   0  0  0  0  0  0  0  0  0  0  0  0
   28.5350    9.3991   55.5153 C   0  0  0  0  0  0  0  0  0  0  0  0
   27.3420    8.9706   53.3171 C   0  0  0  0  0  0  0  0  0  0  0  0
   28.4753    8.7010   54.2367 C   0  0  0  0  0  0  0  0  0  0  0  0
   28.6937    7.1944   54.3863 C   0  0  0  0  0  0  0  0  0  0  0  0
   28.7380   12.9300   58.8782 C   0  0  0  0  0  0  0  0  0  0  0  0
   28.9017   13.9439   59.9149 C   0  0  0  0  0  0  0  0  0  0  0  0
   30.1139   14.5870   60.0694 C   0  0  0  0  0  0  0  0  0  0  0  0
   30.3213   15.5241   61.0297 C   0  0  0  0  0  0  0  0  0  0  0  0
   29.3215   15.8767   61.8978 C   0  0  0  0  0  0  0  0  0  0  0  0
   28.1028   15.2493   61.7626 C   0  0  0  0  0  0  0  0  0  0  0  0
   27.8921   14.2986   60.7892 C   0  0  0  0  0  0  0  0  0  0  0  0
 52 53  1  0  0  0
 53 54  1  0  0  0
 53 51  1  0  0  0
 51 30  1  0  0  0
 30 26  1  0  0  0
 26 27  1  0  0  0
 27 28  2  0  0  0
 27  1  1  0  0  0
  1 55  1  0  0  0
 55 56  1  0  0  0
 56 57  2  0  0  0
 57 58  1  0  0  0
 58 59  2  0  0  0
 59 60  1  0  0  0
 60 61  2  0  0  0
  1  2  1  0  0  0
  2  3  1  0  0  0
  3  4  2  0  0  0
  3  6  1  0  0  0
  6  7  1  0  0  0
  7  8  1  0  0  0
  8  9  1  0  0  0
  9 10  1  0  0  0
 10 11  1  0  0  0
 11 12  2  0  0  0
 11 13  1  0  0  0
 13 14  1  0  0  0
 13 17  1  0  0  0
 17 18  1  0  0  0
 18 19  2  0  0  0
 19 20  1  0  0  0
 20 21  2  0  0  0
 21 22  1  0  0  0
 21 23  1  0  0  0
 23 24  2  0  0  0
 30 31  1  0  0  0
 31 32  2  0  0  0
 31 33  1  0  0  0
 33 35  1  0  0  0
 35 40  1  0  0  0
 40 41  1  0  0  0
 41 42  2  0  0  0
 42 43  1  0  0  0
 43 44  1  0  0  0
 44 45  2  0  0  0
 45 46  1  0  0  0
 46 47  2  0  0  0
 47 48  1  0  0  0
 48 49  2  0  0  0
 35 36  1  0  0  0
 36 37  1  0  0  0
 36 38  2  0  0  0
 61 56  1  0  0  0
 10  6  1  0  0  0
 24 18  1  0  0  0
 49 41  1  0  0  0
 49 44  1  0  0  0
 26 29  1  0  0  0
  2  5  1  0  0  0
 14 15  1  0  0  0
 14 16  1  0  0  0
 22 25  1  0  0  0
 33 34  1  0  0  0
 43 50  1  0  0  0
 37 39  1  0  0  0
M  END
> <minimizedAffinity>
7.89370

> <CNNscore>
0.5024484396

> <CNNaffinity>
7.3422708511

> <CNN_VS>
3.6891124249

> <CNNaffinity_variance>
1.4499595165

$$$$
[H]OC(=O)[C@@]([H])(N([H])C(=O)[C@@]([H])(N([H])C(=O)[C@@]([H])(N([H])C(=O)[C@@]1([H])N(C(=O)[C@@]([H])(N([H])[H])C([H])([H])c2c([H])c([H])c(O[H])c([H])c2[H])C([H])([H])C([H])([H])C1([H])[H])C([H])([H])c1c([H])c([H])c([H])c([H])c1[H])C([H])([H])C([H])(C([H])([H])[H])C([H])([H])[H])C([H])([H])c1c([H])n([H])c2c([H])c([H])c([H])c([H])c12


 61 65  0  0  0  0  0  0  0  0999 V2000
   28.0102    4.6365   62.1565 C   0  0  0  0  0  0  0  0  0  0  0  0
   26.6212    4.9600   61.8593 N   0  0  0  0  0  0  0  0  0  0  0  0
   25.9000    4.1115   60.9944 C   0  0  0  0  0  0  0  0  0  0  0  0
   26.4564    3.1055   60.4975 O   0  0  0  0  0  0  0  0  0  0  0  0
   26.1760    5.7914   62.2726 H   0  0  0  0  0  0  0  0  0  0  0  0
   24.4695    4.3435   60.6222 C   0  0  0  0  0  0  0  0  0  0  0  0
   23.6800    4.1905   61.9271 C   0  0  0  0  0  0  0  0  0  0  0  0
   23.5079    2.6781   61.9907 C   0  0  0  0  0  0  0  0  0  0  0  0
   23.7644    2.1605   60.6166 C   0  0  0  0  0  0  0  0  0  0  0  0
   23.9657    3.3441   59.7432 N   0  0  0  0  0  0  0  0  0  0  0  0
   23.6666    3.2989   58.3752 C   0  0  0  0  0  0  0  0  0  0  0  0
   23.2072    2.1876   57.9002 O   0  0  0  0  0  0  0  0  0  0  0  0
   23.8002    4.3611   57.3685 C   0  0  0  0  0  0  0  0  0  0  0  0
   24.4363    3.9884   56.1536 N   0  0  0  0  0  0  0  0  0  0  0  0
   24.8983    4.7469   55.6452 H   0  0  0  0  0  0  0  0  0  0  0  0
   23.8478    3.3561   55.5947 H   0  0  0  0  0  0  0  0  0  0  0  0
   22.3958    4.8608   56.9945 C   0  0  0  0  0  0  0  0  0  0  0  0
   22.4745    5.8606   55.8971 C   0  0  0  0  0  0  0  0  0  0  0  0
   21.8123    7.0642   55.9027 C   0  0  0  0  0  0  0  0  0  0  0  0
   21.9021    7.9817   54.8595 C   0  0  0  0  0  0  0  0  0  0  0  0
   22.6895    7.6875   53.7561 C   0  0  0  0  0  0  0  0  0  0  0  0
   22.7801    8.6008   52.7150 O   0  0  0  0  0  0  0  0  0  0  0  0
   23.3542    6.4891   53.7419 C   0  0  0  0  0  0  0  0  0  0  0  0
   23.2645    5.5847   54.7723 C   0  0  0  0  0  0  0  0  0  0  0  0
   22.0914    8.5084   51.9642 H   0  0  0  0  0  0  0  0  0  0  0  0
   28.6173    6.9097   61.1671 N   0  0  0  0  0  0  0  0  0  0  0  0
   28.9269    5.5657   61.5013 C   0  0  0  0  0  0  0  0  0  0  0  0
   30.0818    5.1697   61.1933 O   0  0  0  0  0  0  0  0  0  0  0  0
   27.6669    7.2335   61.4196 H   0  0  0  0  0  0  0  0  0  0  0  0
   29.5202    7.8112   60.5241 C   0  0  0  0  0  0  0  0  0  0  0  0
   30.5270    8.3863   61.4254 C   0  0  0  0  0  0  0  0  0  0  0  0
   30.5339    8.0260   62.6307 O   0  0  0  0  0  0  0  0  0  0  0  0
   31.4966    9.3227   61.0374 N   0  0  0  0  0  0  0  0  0  0  0  0
   31.5301    9.6507   60.0556 H   0  0  0  0  0  0  0  0  0  0  0  0
   32.4830    9.8781   61.9509 C   0  0  0  0  0  0  0  0  0  0  0  0
   33.1425    8.9126   62.8172 C   0  0  0  0  0  0  0  0  0  0  0  0
   33.8158    9.4089   63.9527 O   0  0  0  0  0  0  0  0  0  0  0  0
   33.1871    7.6666   62.6644 O   0  0  0  0  0  0  0  0  0  0  0  0
   33.8009   10.4005   64.2031 H   0  0  0  0  0  0  0  0  0  0  0  0
   31.8575   11.0178   62.7102 C   0  0  0  0  0  0  0  0  0  0  0  0
   31.7389   12.2660   61.9672 C   0  0  0  0  0  0  0  0  0  0  0  0
   32.8095   12.8664   61.2854 C   0  0  0  0  0  0  0  0  0  0  0  0
   32.3930   13.9495   60.6628 N   0  0  0  0  0  0  0  0  0  0  0  0
   31.0870   14.1142   60.8911 C   0  0  0  0  0  0  0  0  0  0  0  0
   30.2211   15.0879   60.4757 C   0  0  0  0  0  0  0  0  0  0  0  0
   28.8993   15.0190   60.8860 C   0  0  0  0  0  0  0  0  0  0  0  0
   28.4668   14.0005   61.6896 C   0  0  0  0  0  0  0  0  0  0  0  0
   29.3445   13.0351   62.0955 C   0  0  0  0  0  0  0  0  0  0  0  0
   30.6676   13.0645   61.7087 C   0  0  0  0  0  0  0  0  0  0  0  0
   32.9750   14.5924   60.0778 H   0  0  0  0  0  0  0  0  0  0  0  0
   28.8319    8.8267   59.6519 C   0  0  0  0  0  0  0  0  0  0  0  0
   27.9392   10.6724   61.1470 C   0  0  0  0  0  0  0  0  0  0  0  0
   28.8411   10.2277   60.0554 C   0  0  0  0  0  0  0  0  0  0  0  0
   28.7406   11.1774   58.8606 C   0  0  0  0  0  0  0  0  0  0  0  0
   28.2895    3.2280   61.6775 C   0  0  0  0  0  0  0  0  0  0  0  0
   27.9211    2.2059   62.6517 C   0  0  0  0  0  0  0  0  0  0  0  0
   26.6423    1.6847   62.6589 C   0  0  0  0  0  0  0  0  0  0  0  0
   26.2461    0.7456   63.5558 C   0  0  0  0  0  0  0  0  0  0  0  0
   27.1115    0.2681   64.5048 C   0  0  0  0  0  0  0  0  0  0  0  0
   28.3932    0.7725   64.5169 C   0  0  0  0  0  0  0  0  0  0  0  0
   28.7954    1.7251   63.6078 C   0  0  0  0  0  0  0  0  0  0  0  0
 52 53  1  0  0  0
 53 54  1  0  0  0
 53 51  1  0  0  0
 51 30  1  0  0  0
 30 26  1  0  0  0
 26 27  1  0  0  0
 27 28  2  0  0  0
 27  1  1  0  0  0
  1 55  1  0  0  0
 55 56  1  0  0  0
 56 57  2  0  0  0
 57 58  1  0  0  0
 58 59  2  0  0  0
 59 60  1  0  0  0
 60 61  2  0  0  0
  1  2  1  0  0  0
  2  3  1  0  0  0
  3  4  2  0  0  0
  3  6  1  0  0  0
  6  7  1  0  0  0
  7  8  1  0  0  0
  8  9  1  0  0  0
  9 10  1  0  0  0
 10 11  1  0  0  0
 11 12  2  0  0  0
 11 13  1  0  0  0
 13 14  1  0  0  0
 13 17  1  0  0  0
 17 18  1  0  0  0
 18 19  2  0  0  0
 19 20  1  0  0  0
 20 21  2  0  0  0
 21 22  1  0  0  0
 21 23  1  0  0  0
 23 24  2  0  0  0
 30 31  1  0  0  0
 31 32  2  0  0  0
 31 33  1  0  0  0
 33 35  1  0  0  0
 35 40  1  0  0  0
 40 41  1  0  0  0
 41 42  2  0  0  0
 42 43  1  0  0  0
 43 44  1  0  0  0
 44 45  2  0  0  0
 45 46  1  0  0  0
 46 47  2  0  0  0
 47 48  1  0  0  0
 48 49  2  0  0  0
 35 36  1  0  0  0
 36 37  1  0  0  0
 36 38  2  0  0  0
 61 56  1  0  0  0
 10  6  1  0  0  0
 24 18  1  0  0  0
 49 41  1  0  0  0
 49 44  1  0  0  0
 26 29  1  0  0  0
  2  5  1  0  0  0
 14 15  1  0  0  0
 14 16  1  0  0  0
 22 25  1  0  0  0
 33 34  1  0  0  0
 43 50  1  0  0  0
 37 39  1  0  0  0
M  END
> <minimizedAffinity>
16.09519

> <CNNscore>
0.5019761920

> <CNNaffinity>
6.9390563965

> <CNN_VS>
3.4832410812

> <CNNaffinity_variance>
0.2574708462

$$$$
[H]OC(=O)[C@@]([H])(N([H])C(=O)[C@@]([H])(N([H])C(=O)[C@@]([H])(N([H])C(=O)[C@@]1([H])N(C(=O)[C@@]([H])(N([H])[H])C([H])([H])c2c([H])c([H])c(O[H])c([H])c2[H])C([H])([H])C([H])([H])C1([H])[H])C([H])([H])c1c([H])c([H])c([H])c([H])c1[H])C([H])([H])C([H])(C([H])([H])[H])C([H])([H])[H])C([H])([H])c1c([H])n([H])c2c([H])c([H])c([H])c([H])c12


 61 65  0  0  0  0  0  0  0  0999 V2000
   25.9452    8.9395   55.8962 C   0  0  0  0  0  0  0  0  0  0  0  0
   24.7999    9.8110   55.6703 N   0  0  0  0  0  0  0  0  0  0  0  0
   23.5420    9.2235   55.4240 C   0  0  0  0  0  0  0  0  0  0  0  0
   23.4278    7.9765   55.4004 O   0  0  0  0  0  0  0  0  0  0  0  0
   24.9076   10.8349   55.6901 H   0  0  0  0  0  0  0  0  0  0  0  0
   22.2981   10.0191   55.1824 C   0  0  0  0  0  0  0  0  0  0  0  0
   21.3805    9.7094   56.3706 C   0  0  0  0  0  0  0  0  0  0  0  0
   20.7384    8.4055   55.9137 C   0  0  0  0  0  0  0  0  0  0  0  0
   20.9490    8.3184   54.4407 C   0  0  0  0  0  0  0  0  0  0  0  0
   21.5925    9.5897   54.0236 N   0  0  0  0  0  0  0  0  0  0  0  0
   21.4253   10.1002   52.7295 C   0  0  0  0  0  0  0  0  0  0  0  0
   20.6884    9.4235   51.9107 O   0  0  0  0  0  0  0  0  0  0  0  0
   21.9795   11.3303   52.1470 C   0  0  0  0  0  0  0  0  0  0  0  0
   21.7241   11.5316   50.7636 N   0  0  0  0  0  0  0  0  0  0  0  0
   22.4068   12.1102   50.2673 H   0  0  0  0  0  0  0  0  0  0  0  0
   20.7327   11.7419   50.5866 H   0  0  0  0  0  0  0  0  0  0  0  0
   21.3777   12.5362   52.8856 C   0  0  0  0  0  0  0  0  0  0  0  0
   21.3871   13.7390   52.0118 C   0  0  0  0  0  0  0  0  0  0  0  0
   22.3772   14.0230   51.1029 C   0  0  0  0  0  0  0  0  0  0  0  0
   22.3621   15.1590   50.2983 C   0  0  0  0  0  0  0  0  0  0  0  0
   21.3101   16.0569   50.4027 C   0  0  0  0  0  0  0  0  0  0  0  0
   21.2932   17.1900   49.6015 O   0  0  0  0  0  0  0  0  0  0  0  0
   20.3174   15.7815   51.3066 C   0  0  0  0  0  0  0  0  0  0  0  0
   20.3338   14.6600   52.1001 C   0  0  0  0  0  0  0  0  0  0  0  0
   21.7459   18.0252   49.9810 H   0  0  0  0  0  0  0  0  0  0  0  0
   27.2498   10.0670   57.7782 N   0  0  0  0  0  0  0  0  0  0  0  0
   27.0869    9.6835   56.4216 C   0  0  0  0  0  0  0  0  0  0  0  0
   28.0065   10.0284   55.6337 O   0  0  0  0  0  0  0  0  0  0  0  0
   26.4922    9.7840   58.4246 H   0  0  0  0  0  0  0  0  0  0  0  0
   28.3697   10.7968   58.2830 C   0  0  0  0  0  0  0  0  0  0  0  0
   29.1509   10.0647   59.2882 C   0  0  0  0  0  0  0  0  0  0  0  0
   30.3815   10.3057   59.3888 O   0  0  0  0  0  0  0  0  0  0  0  0
   28.6197    9.1010   60.1580 N   0  0  0  0  0  0  0  0  0  0  0  0
   27.6118    8.8675   60.1123 H   0  0  0  0  0  0  0  0  0  0  0  0
   29.4162    8.3888   61.1453 C   0  0  0  0  0  0  0  0  0  0  0  0
   30.7879    8.8525   61.2906 C   0  0  0  0  0  0  0  0  0  0  0  0
   31.7801    8.2018   60.5282 O   0  0  0  0  0  0  0  0  0  0  0  0
   31.1982    9.7779   62.0343 O   0  0  0  0  0  0  0  0  0  0  0  0
   31.5524    7.4696   59.8514 H   0  0  0  0  0  0  0  0  0  0  0  0
   29.3210    6.9109   60.8746 C   0  0  0  0  0  0  0  0  0  0  0  0
   28.9748    6.0907   62.0286 C   0  0  0  0  0  0  0  0  0  0  0  0
   29.4026    6.3729   63.3358 C   0  0  0  0  0  0  0  0  0  0  0  0
   28.8913    5.4951   64.1737 N   0  0  0  0  0  0  0  0  0  0  0  0
   28.1355    4.6270   63.4954 C   0  0  0  0  0  0  0  0  0  0  0  0
   27.4187    3.5419   63.9189 C   0  0  0  0  0  0  0  0  0  0  0  0
   26.7289    2.7944   62.9779 C   0  0  0  0  0  0  0  0  0  0  0  0
   26.7627    3.1314   61.6530 C   0  0  0  0  0  0  0  0  0  0  0  0
   27.4831    4.2189   61.2461 C   0  0  0  0  0  0  0  0  0  0  0  0
   28.1820    4.9912   62.1496 C   0  0  0  0  0  0  0  0  0  0  0  0
   29.0404    5.4641   65.2087 H   0  0  0  0  0  0  0  0  0  0  0  0
   28.0331   12.2085   58.6822 C   0  0  0  0  0  0  0  0  0  0  0  0
   27.6046   12.5025   61.1660 C   0  0  0  0  0  0  0  0  0  0  0  0
   28.4761   12.7007   59.9811 C   0  0  0  0  0  0  0  0  0  0  0  0
   28.9683   14.1476   59.9174 C   0  0  0  0  0  0  0  0  0  0  0  0
   26.3246    8.2925   54.5815 C   0  0  0  0  0  0  0  0  0  0  0  0
   25.2400    7.5173   53.9881 C   0  0  0  0  0  0  0  0  0  0  0  0
   24.5900    7.9842   52.8627 C   0  0  0  0  0  0  0  0  0  0  0  0
   23.5641    7.3088   52.2843 C   0  0  0  0  0  0  0  0  0  0  0  0
   23.1248    6.1178   52.8000 C   0  0  0  0  0  0  0  0  0  0  0  0
   23.7585    5.6313   53.9221 C   0  0  0  0  0  0  0  0  0  0  0  0
   24.7987    6.3159   54.5093 C   0  0  0  0  0  0  0  0  0  0  0  0
 52 53  1  0  0  0
 53 54  1  0  0  0
 53 51  1  0  0  0
 51 30  1  0  0  0
 30 26  1  0  0  0
 26 27  1  0  0  0
 27 28  2  0  0  0
 27  1  1  0  0  0
  1 55  1  0  0  0
 55 56  1  0  0  0
 56 57  2  0  0  0
 57 58  1  0  0  0
 58 59  2  0  0  0
 59 60  1  0  0  0
 60 61  2  0  0  0
  1  2  1  0  0  0
  2  3  1  0  0  0
  3  4  2  0  0  0
  3  6  1  0  0  0
  6  7  1  0  0  0
  7  8  1  0  0  0
  8  9  1  0  0  0
  9 10  1  0  0  0
 10 11  1  0  0  0
 11 12  2  0  0  0
 11 13  1  0  0  0
 13 14  1  0  0  0
 13 17  1  0  0  0
 17 18  1  0  0  0
 18 19  2  0  0  0
 19 20  1  0  0  0
 20 21  2  0  0  0
 21 22  1  0  0  0
 21 23  1  0  0  0
 23 24  2  0  0  0
 30 31  1  0  0  0
 31 32  2  0  0  0
 31 33  1  0  0  0
 33 35  1  0  0  0
 35 40  1  0  0  0
 40 41  1  0  0  0
 41 42  2  0  0  0
 42 43  1  0  0  0
 43 44  1  0  0  0
 44 45  2  0  0  0
 45 46  1  0  0  0
 46 47  2  0  0  0
 47 48  1  0  0  0
 48 49  2  0  0  0
 35 36  1  0  0  0
 36 37  1  0  0  0
 36 38  2  0  0  0
 61 56  1  0  0  0
 10  6  1  0  0  0
 24 18  1  0  0  0
 49 41  1  0  0  0
 49 44  1  0  0  0
 26 29  1  0  0  0
  2  5  1  0  0  0
 14 15  1  0  0  0
 14 16  1  0  0  0
 22 25  1  0  0  0
 33 34  1  0  0  0
 43 50  1  0  0  0
 37 39  1  0  0  0
M  END
> <minimizedAffinity>
15.35528

> <CNNscore>
0.5004675984

> <CNNaffinity>
7.3970146179

> <CNN_VS>
3.7019660473

> <CNNaffinity_variance>
1.0905463696

$$$$
[H]OC(=O)[C@@]([H])(N([H])C(=O)[C@@]([H])(N([H])C(=O)[C@@]([H])(N([H])C(=O)[C@@]1([H])N(C(=O)[C@@]([H])(N([H])[H])C([H])([H])c2c([H])c([H])c(O[H])c([H])c2[H])C([H])([H])C([H])([H])C1([H])[H])C([H])([H])c1c([H])c([H])c([H])c([H])c1[H])C([H])([H])C([H])(C([H])([H])[H])C([H])([H])[H])C([H])([H])c1c([H])n([H])c2c([H])c([H])c([H])c([H])c12


 61 65  0  0  0  0  0  0  0  0999 V2000
   27.8296    4.6324   62.6238 C   0  0  0  0  0  0  0  0  0  0  0  0
   26.4371    4.8902   62.2824 N   0  0  0  0  0  0  0  0  0  0  0  0
   25.8996    4.2797   61.1306 C   0  0  0  0  0  0  0  0  0  0  0  0
   26.6178    3.5355   60.4241 O   0  0  0  0  0  0  0  0  0  0  0  0
   25.8579    5.5058   62.8704 H   0  0  0  0  0  0  0  0  0  0  0  0
   24.4836    4.4696   60.6863 C   0  0  0  0  0  0  0  0  0  0  0  0
   23.6412    4.3797   61.9637 C   0  0  0  0  0  0  0  0  0  0  0  0
   23.4846    2.8710   62.1067 C   0  0  0  0  0  0  0  0  0  0  0  0
   23.8054    2.2799   60.7765 C   0  0  0  0  0  0  0  0  0  0  0  0
   24.0296    3.4148   59.8458 N   0  0  0  0  0  0  0  0  0  0  0  0
   23.7895    3.2876   58.4713 C   0  0  0  0  0  0  0  0  0  0  0  0
   23.3640    2.1446   58.0421 O   0  0  0  0  0  0  0  0  0  0  0  0
   23.9531    4.2928   57.4118 C   0  0  0  0  0  0  0  0  0  0  0  0
   24.5355    3.8293   56.2012 N   0  0  0  0  0  0  0  0  0  0  0  0
   25.0238    4.5366   55.6459 H   0  0  0  0  0  0  0  0  0  0  0  0
   23.8990    3.2049   55.6877 H   0  0  0  0  0  0  0  0  0  0  0  0
   22.5682    4.8511   57.0484 C   0  0  0  0  0  0  0  0  0  0  0  0
   22.6745    5.8109   55.9180 C   0  0  0  0  0  0  0  0  0  0  0  0
   21.8837    6.9253   55.7768 C   0  0  0  0  0  0  0  0  0  0  0  0
   22.0032    7.8067   54.7059 C   0  0  0  0  0  0  0  0  0  0  0  0
   22.9565    7.5681   53.7271 C   0  0  0  0  0  0  0  0  0  0  0  0
   23.0771    8.4455   52.6586 O   0  0  0  0  0  0  0  0  0  0  0  0
   23.7504    6.4588   53.8598 C   0  0  0  0  0  0  0  0  0  0  0  0
   23.6311    5.5898   54.9173 C   0  0  0  0  0  0  0  0  0  0  0  0
   22.5076    8.2425   51.8334 H   0  0  0  0  0  0  0  0  0  0  0  0
   29.2034    6.7589   62.9487 N   0  0  0  0  0  0  0  0  0  0  0  0
   28.7032    5.7009   62.1461 C   0  0  0  0  0  0  0  0  0  0  0  0
   29.0489    5.7122   60.9354 O   0  0  0  0  0  0  0  0  0  0  0  0
   28.9171    6.7491   63.9436 H   0  0  0  0  0  0  0  0  0  0  0  0
   30.0562    7.8014   62.4721 C   0  0  0  0  0  0  0  0  0  0  0  0
   29.5340    8.5025   61.2921 C   0  0  0  0  0  0  0  0  0  0  0  0
   29.6754    7.9689   60.1616 O   0  0  0  0  0  0  0  0  0  0  0  0
   28.8797    9.7426   61.3312 N   0  0  0  0  0  0  0  0  0  0  0  0
   28.7405   10.2216   62.2387 H   0  0  0  0  0  0  0  0  0  0  0  0
   28.3721   10.4169   60.1463 C   0  0  0  0  0  0  0  0  0  0  0  0
   28.2176    9.5755   58.9692 C   0  0  0  0  0  0  0  0  0  0  0  0
   28.9346    9.9382   57.8101 O   0  0  0  0  0  0  0  0  0  0  0  0
   27.5021    8.5486   58.8627 O   0  0  0  0  0  0  0  0  0  0  0  0
   29.5871   10.7257   57.7989 H   0  0  0  0  0  0  0  0  0  0  0  0
   29.2072   11.6424   59.8872 C   0  0  0  0  0  0  0  0  0  0  0  0
   28.6990   12.8746   60.4770 C   0  0  0  0  0  0  0  0  0  0  0  0
   27.4617   12.9658   61.1345 C   0  0  0  0  0  0  0  0  0  0  0  0
   27.2958   14.1825   61.6099 N   0  0  0  0  0  0  0  0  0  0  0  0
   28.3642   14.9242   61.3047 C   0  0  0  0  0  0  0  0  0  0  0  0
   28.6478   16.2364   61.5664 C   0  0  0  0  0  0  0  0  0  0  0  0
   29.8453   16.7605   61.1065 C   0  0  0  0  0  0  0  0  0  0  0  0
   30.7266   15.9851   60.4051 C   0  0  0  0  0  0  0  0  0  0  0  0
   30.4286   14.6758   60.1524 C   0  0  0  0  0  0  0  0  0  0  0  0
   29.2493   14.1137   60.5936 C   0  0  0  0  0  0  0  0  0  0  0  0
   26.4675   14.5332   62.1441 H   0  0  0  0  0  0  0  0  0  0  0  0
   31.4971    7.3848   62.3454 C   0  0  0  0  0  0  0  0  0  0  0  0
   33.3242    9.1021   62.7353 C   0  0  0  0  0  0  0  0  0  0  0  0
   32.4867    7.9827   63.2337 C   0  0  0  0  0  0  0  0  0  0  0  0
   33.3576    6.9320   63.9247 C   0  0  0  0  0  0  0  0  0  0  0  0
   28.2447    3.3199   61.9942 C   0  0  0  0  0  0  0  0  0  0  0  0
   27.8067    2.1538   62.7542 C   0  0  0  0  0  0  0  0  0  0  0  0
   26.5452    1.6295   62.5527 C   0  0  0  0  0  0  0  0  0  0  0  0
   26.0852    0.5573   63.2471 C   0  0  0  0  0  0  0  0  0  0  0  0
   26.8653   -0.0588   64.1902 C   0  0  0  0  0  0  0  0  0  0  0  0
   28.1282    0.4458   64.4083 C   0  0  0  0  0  0  0  0  0  0  0  0
   28.5951    1.5333   63.7046 C   0  0  0  0  0  0  0  0  0  0  0  0
 52 53  1  0  0  0
 53 54  1  0  0  0
 53 51  1  0  0  0
 51 30  1  0  0  0
 30 26  1  0  0  0
 26 27  1  0  0  0
 27 28  2  0  0  0
 27  1  1  0  0  0
  1 55  1  0  0  0
 55 56  1  0  0  0
 56 57  2  0  0  0
 57 58  1  0  0  0
 58 59  2  0  0  0
 59 60  1  0  0  0
 60 61  2  0  0  0
  1  2  1  0  0  0
  2  3  1  0  0  0
  3  4  2  0  0  0
  3  6  1  0  0  0
  6  7  1  0  0  0
  7  8  1  0  0  0
  8  9  1  0  0  0
  9 10  1  0  0  0
 10 11  1  0  0  0
 11 12  2  0  0  0
 11 13  1  0  0  0
 13 14  1  0  0  0
 13 17  1  0  0  0
 17 18  1  0  0  0
 18 19  2  0  0  0
 19 20  1  0  0  0
 20 21  2  0  0  0
 21 22  1  0  0  0
 21 23  1  0  0  0
 23 24  2  0  0  0
 30 31  1  0  0  0
 31 32  2  0  0  0
 31 33  1  0  0  0
 33 35  1  0  0  0
 35 40  1  0  0  0
 40 41  1  0  0  0
 41 42  2  0  0  0
 42 43  1  0  0  0
 43 44  1  0  0  0
 44 45  2  0  0  0
 45 46  1  0  0  0
 46 47  2  0  0  0
 47 48  1  0  0  0
 48 49  2  0  0  0
 35 36  1  0  0  0
 36 37  1  0  0  0
 36 38  2  0  0  0
 61 56  1  0  0  0
 10  6  1  0  0  0
 24 18  1  0  0  0
 49 41  1  0  0  0
 49 44  1  0  0  0
 26 29  1  0  0  0
  2  5  1  0  0  0
 14 15  1  0  0  0
 14 16  1  0  0  0
 22 25  1  0  0  0
 33 34  1  0  0  0
 43 50  1  0  0  0
 37 39  1  0  0  0
M  END
> <minimizedAffinity>
14.62711

> <CNNscore>
0.4960181117

> <CNNaffinity>
7.0401139259

> <CNN_VS>
3.4920239449

> <CNNaffinity_variance>
0.2969454527

$$$$
[H]c1c([H])c([H])c2c(c1[H])c1c3c(c4c5c([H])c([H])c([H])c([H])c5n5c4c1n2[C@@]1(C([H])([H])[H])O[C@]5([H])C([H])([H])[C@]([H])(N([H])C([H])([H])[H])[C@]1([H])OC([H])([H])[H])C(=O)N([H])C3([H])[H]


 37 44  0  0  0  0  0  0  0  0999 V2000
   22.1018   10.5314   53.7326 C   0  0  0  0  0  0  0  0  0  0  0  0
   22.6698   11.3375   54.8843 C   0  0  0  0  0  0  0  0  0  0  0  0
   22.9923   10.4756   56.0721 C   0  0  0  0  0  0  0  0  0  0  0  0
   22.2214    9.4167   56.3064 O   0  0  0  0  0  0  0  0  0  0  0  0
   21.7551    8.6355   55.2441 C   0  0  0  0  0  0  0  0  0  0  0  0
   20.6869    7.7864   55.9092 C   0  0  0  0  0  0  0  0  0  0  0  0
   21.0782    9.6098   54.3032 C   0  0  0  0  0  0  0  0  0  0  0  0
   22.8196    7.8523   54.6612 N   0  0  0  0  0  0  0  0  0  0  0  0
   22.6419    6.6974   53.9737 C   0  0  0  0  0  0  0  0  0  0  0  0
   21.5415    6.0085   53.5610 C   0  0  0  0  0  0  0  0  0  0  0  0
   21.6185    4.8156   52.8382 C   0  0  0  0  0  0  0  0  0  0  0  0
   22.8347    4.2829   52.5094 C   0  0  0  0  0  0  0  0  0  0  0  0
   23.9478    4.9675   52.9178 C   0  0  0  0  0  0  0  0  0  0  0  0
   23.8837    6.1447   53.6311 C   0  0  0  0  0  0  0  0  0  0  0  0
   24.8362    6.9979   54.1241 C   0  0  0  0  0  0  0  0  0  0  0  0
   26.2146    6.9631   54.0839 C   0  0  0  0  0  0  0  0  0  0  0  0
   27.1455    5.9728   53.4891 C   0  0  0  0  0  0  0  0  0  0  0  0
   28.4495    6.4730   53.7698 N   0  0  0  0  0  0  0  0  0  0  0  0
   28.3623    7.7132   54.4970 C   0  0  0  0  0  0  0  0  0  0  0  0
   29.3767    8.3301   54.8459 O   0  0  0  0  0  0  0  0  0  0  0  0
   26.9540    7.9928   54.6777 C   0  0  0  0  0  0  0  0  0  0  0  0
   26.2560    9.0306   55.2942 C   0  0  0  0  0  0  0  0  0  0  0  0
   26.6378   10.2041   55.9409 C   0  0  0  0  0  0  0  0  0  0  0  0
   27.8431   10.7485   56.2296 C   0  0  0  0  0  0  0  0  0  0  0  0
   27.8860   11.9782   56.9107 C   0  0  0  0  0  0  0  0  0  0  0  0
   26.7295   12.6112   57.2740 C   0  0  0  0  0  0  0  0  0  0  0  0
   25.4950   12.0749   56.9902 C   0  0  0  0  0  0  0  0  0  0  0  0
   25.4669   10.8644   56.3196 C   0  0  0  0  0  0  0  0  0  0  0  0
   24.4180   10.1301   55.9251 N   0  0  0  0  0  0  0  0  0  0  0  0
   24.8695    9.0318   55.3154 C   0  0  0  0  0  0  0  0  0  0  0  0
   24.1811    8.0058   54.7287 C   0  0  0  0  0  0  0  0  0  0  0  0
   29.3272    5.9957   53.4820 H   0  0  0  0  0  0  0  0  0  0  0  0
   21.1272   10.7559   51.5032 C   0  0  0  0  0  0  0  0  0  0  0  0
   21.7780   11.3035   52.6214 N   0  0  0  0  0  0  0  0  0  0  0  0
   22.4897   12.0025   52.3203 H   0  0  0  0  0  0  0  0  0  0  0  0
   20.2346   10.3652   55.1016 O   0  0  0  0  0  0  0  0  0  0  0  0
   20.7769   11.2691   55.9505 C   0  0  0  0  0  0  0  0  0  0  0  0
 33 34  1  0  0  0
 34  1  1  0  0  0
  1  2  1  0  0  0
  2  3  1  0  0  0
  3  4  1  0  0  0
  4  5  1  0  0  0
  5  6  1  0  0  0
  5  7  1  0  0  0
  7 36  1  0  0  0
 36 37  1  0  0  0
  5  8  1  0  0  0
  8  9  1  0  0  0
  9 10  2  0  0  0
 10 11  1  0  0  0
 11 12  2  0  0  0
 12 13  1  0  0  0
 13 14  2  0  0  0
 14 15  1  0  0  0
 15 16  2  0  0  0
 16 17  1  0  0  0
 17 18  1  0  0  0
 18 19  1  0  0  0
 19 20  2  0  0  0
 19 21  1  0  0  0
 21 22  2  0  0  0
 22 23  1  0  0  0
 23 24  2  0  0  0
 24 25  1  0  0  0
 25 26  2  0  0  0
 26 27  1  0  0  0
 27 28  2  0  0  0
 28 29  1  0  0  0
 29 30  1  0  0  0
 30 31  2  0  0  0
  7  1  1  0  0  0
 31  8  1  0  0  0
 29  3  1  0  0  0
 14  9  1  0  0  0
 31 15  1  0  0  0
 21 16  1  0  0  0
 30 22  1  0  0  0
 28 23  1  0  0  0
 34 35  1  0  0  0
 18 32  1  0  0  0
M  END
> <minimizedAffinity>
71.97575

> <CNNscore>
0.2129410952

> <CNNaffinity>
6.1340818405

> <CNN_VS>
1.3061981201

> <CNNaffinity_variance>
0.3865490854

$$$$
[H]c1c([H])c([H])c2c(c1[H])c1c3c(c4c5c([H])c([H])c([H])c([H])c5n5c4c1n2[C@@]1(C([H])([H])[H])O[C@]5([H])C([H])([H])[C@]([H])(N([H])C([H])([H])[H])[C@]1([H])OC([H])([H])[H])C(=O)N([H])C3([H])[H]


 37 44  0  0  0  0  0  0  0  0999 V2000
   26.8853    8.8538   57.4098 C   0  0  0  0  0  0  0  0  0  0  0  0
   25.8595    9.9702   57.4164 C   0  0  0  0  0  0  0  0  0  0  0  0
   25.5956   10.5030   56.0364 C   0  0  0  0  0  0  0  0  0  0  0  0
   26.6026   10.5184   55.1669 O   0  0  0  0  0  0  0  0  0  0  0  0
   27.5079    9.4534   55.1180 C   0  0  0  0  0  0  0  0  0  0  0  0
   28.6313   10.0201   54.2688 C   0  0  0  0  0  0  0  0  0  0  0  0
   28.0108    9.2955   56.5374 C   0  0  0  0  0  0  0  0  0  0  0  0
   26.9022    8.2750   54.5427 N   0  0  0  0  0  0  0  0  0  0  0  0
   27.5849    7.2726   53.9370 C   0  0  0  0  0  0  0  0  0  0  0  0
   28.9099    7.0081   53.7635 C   0  0  0  0  0  0  0  0  0  0  0  0
   29.3775    5.8740   53.0954 C   0  0  0  0  0  0  0  0  0  0  0  0
   28.4974    4.9634   52.5782 C   0  0  0  0  0  0  0  0  0  0  0  0
   27.1629    5.2182   52.7477 C   0  0  0  0  0  0  0  0  0  0  0  0
   26.6906    6.3334   53.4049 C   0  0  0  0  0  0  0  0  0  0  0  0
   25.4317    6.7842   53.7056 C   0  0  0  0  0  0  0  0  0  0  0  0
   24.1801    6.2705   53.4373 C   0  0  0  0  0  0  0  0  0  0  0  0
   23.7674    5.0406   52.7174 C   0  0  0  0  0  0  0  0  0  0  0  0
   22.3434    5.0462   52.7579 N   0  0  0  0  0  0  0  0  0  0  0  0
   21.8689    6.2072   53.4660 C   0  0  0  0  0  0  0  0  0  0  0  0
   20.6600    6.4169   53.6260 O   0  0  0  0  0  0  0  0  0  0  0  0
   23.0394    6.9519   53.8778 C   0  0  0  0  0  0  0  0  0  0  0  0
   23.2172    8.1413   54.5837 C   0  0  0  0  0  0  0  0  0  0  0  0
   22.3486    9.0483   55.1871 C   0  0  0  0  0  0  0  0  0  0  0  0
   20.9996    9.1123   55.2797 C   0  0  0  0  0  0  0  0  0  0  0  0
   20.4182   10.1862   55.9773 C   0  0  0  0  0  0  0  0  0  0  0  0
   21.2034   11.1476   56.5512 C   0  0  0  0  0  0  0  0  0  0  0  0
   22.5756   11.1009   56.4685 C   0  0  0  0  0  0  0  0  0  0  0  0
   23.1350   10.0389   55.7792 C   0  0  0  0  0  0  0  0  0  0  0  0
   24.4235    9.7534   55.5487 N   0  0  0  0  0  0  0  0  0  0  0  0
   24.4913    8.6277   54.8344 C   0  0  0  0  0  0  0  0  0  0  0  0
   25.5823    7.9366   54.3839 C   0  0  0  0  0  0  0  0  0  0  0  0
   21.7490    4.3077   52.3310 H   0  0  0  0  0  0  0  0  0  0  0  0
   28.4682    8.0001   59.0638 C   0  0  0  0  0  0  0  0  0  0  0  0
   27.1636    8.3485   58.6758 N   0  0  0  0  0  0  0  0  0  0  0  0
   26.4762    7.6685   59.0642 H   0  0  0  0  0  0  0  0  0  0  0  0
   28.3770   10.5693   56.9410 O   0  0  0  0  0  0  0  0  0  0  0  0
   28.7881   10.7559   58.2169 C   0  0  0  0  0  0  0  0  0  0  0  0
 33 34  1  0  0  0
 34  1  1  0  0  0
  1  2  1  0  0  0
  2  3  1  0  0  0
  3  4  1  0  0  0
  4  5  1  0  0  0
  5  6  1  0  0  0
  5  7  1  0  0  0
  7 36  1  0  0  0
 36 37  1  0  0  0
  5  8  1  0  0  0
  8  9  1  0  0  0
  9 10  2  0  0  0
 10 11  1  0  0  0
 11 12  2  0  0  0
 12 13  1  0  0  0
 13 14  2  0  0  0
 14 15  1  0  0  0
 15 16  2  0  0  0
 16 17  1  0  0  0
 17 18  1  0  0  0
 18 19  1  0  0  0
 19 20  2  0  0  0
 19 21  1  0  0  0
 21 22  2  0  0  0
 22 23  1  0  0  0
 23 24  2  0  0  0
 24 25  1  0  0  0
 25 26  2  0  0  0
 26 27  1  0  0  0
 27 28  2  0  0  0
 28 29  1  0  0  0
 29 30  1  0  0  0
 30 31  2  0  0  0
  7  1  1  0  0  0
 31  8  1  0  0  0
 29  3  1  0  0  0
 14  9  1  0  0  0
 31 15  1  0  0  0
 21 16  1  0  0  0
 30 22  1  0  0  0
 28 23  1  0  0  0
 34 35  1  0  0  0
 18 32  1  0  0  0
M  END
> <minimizedAffinity>
78.84701

> <CNNscore>
0.2061259598

> <CNNaffinity>
5.8299641609

> <CNN_VS>
1.2017070055

> <CNNaffinity_variance>
0.4582876563

$$$$
[H]c1c([H])c([H])c2c(c1[H])c1c3c(c4c5c([H])c([H])c([H])c([H])c5n5c4c1n2[C@@]1(C([H])([H])[H])O[C@]5([H])C([H])([H])[C@]([H])(N([H])C([H])([H])[H])[C@]1([H])OC([H])([H])[H])C(=O)N([H])C3([H])[H]


 37 44  0  0  0  0  0  0  0  0999 V2000
   23.5408    5.4751   55.4932 C   0  0  0  0  0  0  0  0  0  0  0  0
   24.9996    5.7900   55.7601 C   0  0  0  0  0  0  0  0  0  0  0  0
   25.6386    6.5214   54.6136 C   0  0  0  0  0  0  0  0  0  0  0  0
   25.2248    6.2391   53.3810 O   0  0  0  0  0  0  0  0  0  0  0  0
   23.8677    6.0160   53.1268 C   0  0  0  0  0  0  0  0  0  0  0  0
   23.8921    5.4178   51.7318 C   0  0  0  0  0  0  0  0  0  0  0  0
   23.4535    4.9373   54.1053 C   0  0  0  0  0  0  0  0  0  0  0  0
   23.1102    7.2435   53.2035 N   0  0  0  0  0  0  0  0  0  0  0  0
   21.9275    7.4621   52.5778 C   0  0  0  0  0  0  0  0  0  0  0  0
   21.0980    6.6780   51.8344 C   0  0  0  0  0  0  0  0  0  0  0  0
   19.8974    7.1421   51.2918 C   0  0  0  0  0  0  0  0  0  0  0  0
   19.5008    8.4355   51.4941 C   0  0  0  0  0  0  0  0  0  0  0  0
   20.3261    9.2326   52.2411 C   0  0  0  0  0  0  0  0  0  0  0  0
   21.5124    8.7854   52.7809 C   0  0  0  0  0  0  0  0  0  0  0  0
   22.4739    9.3778   53.5574 C   0  0  0  0  0  0  0  0  0  0  0  0
   22.5910   10.6549   54.0653 C   0  0  0  0  0  0  0  0  0  0  0  0
   21.7050   11.8379   53.9362 C   0  0  0  0  0  0  0  0  0  0  0  0
   22.3528   12.8699   54.6741 N   0  0  0  0  0  0  0  0  0  0  0  0
   23.5793   12.3786   55.2477 C   0  0  0  0  0  0  0  0  0  0  0  0
   24.3079   13.1057   55.9345 O   0  0  0  0  0  0  0  0  0  0  0  0
   23.7002   10.9926   54.8497 C   0  0  0  0  0  0  0  0  0  0  0  0
   24.6568   10.0074   55.0922 C   0  0  0  0  0  0  0  0  0  0  0  0
   25.8385    9.9658   55.8290 C   0  0  0  0  0  0  0  0  0  0  0  0
   26.5029   10.8909   56.5607 C   0  0  0  0  0  0  0  0  0  0  0  0
   27.7004   10.5191   57.1976 C   0  0  0  0  0  0  0  0  0  0  0  0
   28.1834    9.2452   57.0788 C   0  0  0  0  0  0  0  0  0  0  0  0
   27.5236    8.2906   56.3401 C   0  0  0  0  0  0  0  0  0  0  0  0
   26.3464    8.6696   55.7185 C   0  0  0  0  0  0  0  0  0  0  0  0
   25.5165    7.9517   54.9497 N   0  0  0  0  0  0  0  0  0  0  0  0
   24.5057    8.7340   54.5645 C   0  0  0  0  0  0  0  0  0  0  0  0
   23.4108    8.4425   53.7984 C   0  0  0  0  0  0  0  0  0  0  0  0
   21.9775   13.8345   54.7728 H   0  0  0  0  0  0  0  0  0  0  0  0
   21.8314    5.3212   57.2324 C   0  0  0  0  0  0  0  0  0  0  0  0
   22.9235    4.7836   56.5308 N   0  0  0  0  0  0  0  0  0  0  0  0
   23.5523    4.2659   57.1805 H   0  0  0  0  0  0  0  0  0  0  0  0
   24.4100    3.9427   53.9818 O   0  0  0  0  0  0  0  0  0  0  0  0
   24.4874    3.2534   52.8196 C   0  0  0  0  0  0  0  0  0  0  0  0
 33 34  1  0  0  0
 34  1  1  0  0  0
  1  2  1  0  0  0
  2  3  1  0  0  0
  3  4  1  0  0  0
  4  5  1  0  0  0
  5  6  1  0  0  0
  5  7  1  0  0  0
  7 36  1  0  0  0
 36 37  1  0  0  0
  5  8  1  0  0  0
  8  9  1  0  0  0
  9 10  2  0  0  0
 10 11  1  0  0  0
 11 12  2  0  0  0
 12 13  1  0  0  0
 13 14  2  0  0  0
 14 15  1  0  0  0
 15 16  2  0  0  0
 16 17  1  0  0  0
 17 18  1  0  0  0
 18 19  1  0  0  0
 19 20  2  0  0  0
 19 21  1  0  0  0
 21 22  2  0  0  0
 22 23  1  0  0  0
 23 24  2  0  0  0
 24 25  1  0  0  0
 25 26  2  0  0  0
 26 27  1  0  0  0
 27 28  2  0  0  0
 28 29  1  0  0  0
 29 30  1  0  0  0
 30 31  2  0  0  0
  7  1  1  0  0  0
 31  8  1  0  0  0
 29  3  1  0  0  0
 14  9  1  0  0  0
 31 15  1  0  0  0
 21 16  1  0  0  0
 30 22  1  0  0  0
 28 23  1  0  0  0
 34 35  1  0  0  0
 18 32  1  0  0  0
M  END
> <minimizedAffinity>
84.33033

> <CNNscore>
0.1989923716

> <CNNaffinity>
5.4307627678

> <CNN_VS>
1.0806803703

> <CNNaffinity_variance>
1.1568338871

$$$$
[H]c1c([H])c([H])c2c(c1[H])c1c3c(c4c5c([H])c([H])c([H])c([H])c5n5c4c1n2[C@@]1(C([H])([H])[H])O[C@]5([H])C([H])([H])[C@]([H])(N([H])C([H])([H])[H])[C@]1([H])OC([H])([H])[H])C(=O)N([H])C3([H])[H]


 37 44  0  0  0  0  0  0  0  0999 V2000
   27.1918    8.3926   53.0467 C   0  0  0  0  0  0  0  0  0  0  0  0
   26.5855    7.0033   53.0756 C   0  0  0  0  0  0  0  0  0  0  0  0
   26.0940    6.6299   54.4455 C   0  0  0  0  0  0  0  0  0  0  0  0
   26.7587    7.0971   55.4993 O   0  0  0  0  0  0  0  0  0  0  0  0
   27.2580    8.4036   55.4951 C   0  0  0  0  0  0  0  0  0  0  0  0
   28.1952    8.3974   56.6891 C   0  0  0  0  0  0  0  0  0  0  0  0
   28.0879    8.5065   54.2328 C   0  0  0  0  0  0  0  0  0  0  0  0
   26.1938    9.3729   55.6154 N   0  0  0  0  0  0  0  0  0  0  0  0
   26.3446   10.6297   56.1008 C   0  0  0  0  0  0  0  0  0  0  0  0
   27.4224   11.3594   56.5030 C   0  0  0  0  0  0  0  0  0  0  0  0
   27.3206   12.6732   56.9664 C   0  0  0  0  0  0  0  0  0  0  0  0
   26.1020   13.2908   57.0339 C   0  0  0  0  0  0  0  0  0  0  0  0
   25.0116   12.5675   56.6309 C   0  0  0  0  0  0  0  0  0  0  0  0
   25.1003   11.2712   56.1721 C   0  0  0  0  0  0  0  0  0  0  0  0
   24.1746   10.3725   55.7100 C   0  0  0  0  0  0  0  0  0  0  0  0
   22.8067   10.4561   55.5535 C   0  0  0  0  0  0  0  0  0  0  0  0
   21.8607   11.5621   55.8419 C   0  0  0  0  0  0  0  0  0  0  0  0
   20.5783   11.0582   55.4801 N   0  0  0  0  0  0  0  0  0  0  0  0
   20.6933    9.7109   54.9839 C   0  0  0  0  0  0  0  0  0  0  0  0
   19.7013    9.0742   54.6076 O   0  0  0  0  0  0  0  0  0  0  0  0
   22.0969    9.3633   55.0421 C   0  0  0  0  0  0  0  0  0  0  0  0
   22.8133    8.2159   54.7036 C   0  0  0  0  0  0  0  0  0  0  0  0
   22.4647    6.9835   54.1550 C   0  0  0  0  0  0  0  0  0  0  0  0
   21.2830    6.4434   53.7753 C   0  0  0  0  0  0  0  0  0  0  0  0
   21.2723    5.1415   53.2435 C   0  0  0  0  0  0  0  0  0  0  0  0
   22.4361    4.4353   53.1132 C   0  0  0  0  0  0  0  0  0  0  0  0
   23.6470    4.9658   53.4930 C   0  0  0  0  0  0  0  0  0  0  0  0
   23.6436    6.2479   54.0147 C   0  0  0  0  0  0  0  0  0  0  0  0
   24.6652    6.9931   54.4574 N   0  0  0  0  0  0  0  0  0  0  0  0
   24.1884    8.1680   54.8752 C   0  0  0  0  0  0  0  0  0  0  0  0
   24.8472    9.2540   55.3823 C   0  0  0  0  0  0  0  0  0  0  0  0
   19.6963   11.6015   55.5691 H   0  0  0  0  0  0  0  0  0  0  0  0
   28.2621   10.0175   51.5684 C   0  0  0  0  0  0  0  0  0  0  0  0
   27.6710    8.7630   51.7940 N   0  0  0  0  0  0  0  0  0  0  0  0
   27.0905    8.4833   50.9753 H   0  0  0  0  0  0  0  0  0  0  0  0
   28.9112    7.3922   54.2429 O   0  0  0  0  0  0  0  0  0  0  0  0
   29.0326    6.6612   53.1104 C   0  0  0  0  0  0  0  0  0  0  0  0
 33 34  1  0  0  0
 34  1  1  0  0  0
  1  2  1  0  0  0
  2  3  1  0  0  0
  3  4  1  0  0  0
  4  5  1  0  0  0
  5  6  1  0  0  0
  5  7  1  0  0  0
  7 36  1  0  0  0
 36 37  1  0  0  0
  5  8  1  0  0  0
  8  9  1  0  0  0
  9 10  2  0  0  0
 10 11  1  0  0  0
 11 12  2  0  0  0
 12 13  1  0  0  0
 13 14  2  0  0  0
 14 15  1  0  0  0
 15 16  2  0  0  0
 16 17  1  0  0  0
 17 18  1  0  0  0
 18 19  1  0  0  0
 19 20  2  0  0  0
 19 21  1  0  0  0
 21 22  2  0  0  0
 22 23  1  0  0  0
 23 24  2  0  0  0
 24 25  1  0  0  0
 25 26  2  0  0  0
 26 27  1  0  0  0
 27 28  2  0  0  0
 28 29  1  0  0  0
 29 30  1  0  0  0
 30 31  2  0  0  0
  7  1  1  0  0  0
 31  8  1  0  0  0
 29  3  1  0  0  0
 14  9  1  0  0  0
 31 15  1  0  0  0
 21 16  1  0  0  0
 30 22  1  0  0  0
 28 23  1  0  0  0
 34 35  1  0  0  0
 18 32  1  0  0  0
M  END
> <minimizedAffinity>
83.90450

> <CNNscore>
0.1963936985

> <CNNaffinity>
5.8815078735

> <CNN_VS>
1.1550910473

> <CNNaffinity_variance>
0.5672052503

$$$$
[H]c1c([H])c([H])c2c(c1[H])c1c3c(c4c5c([H])c([H])c([H])c([H])c5n5c4c1n2[C@@]1(C([H])([H])[H])O[C@]5([H])C([H])([H])[C@]([H])(N([H])C([H])([H])[H])[C@]1([H])OC([H])([H])[H])C(=O)N([H])C3([H])[H]


 37 44  0  0  0  0  0  0  0  0999 V2000
   21.6515    8.8990   55.7001 C   0  0  0  0  0  0  0  0  0  0  0  0
   20.3021    8.4957   55.1388 C   0  0  0  0  0  0  0  0  0  0  0  0
   20.3545    8.2611   53.6555 C   0  0  0  0  0  0  0  0  0  0  0  0
   21.1909    9.0016   52.9327 O   0  0  0  0  0  0  0  0  0  0  0  0
   22.4615    9.3147   53.4263 C   0  0  0  0  0  0  0  0  0  0  0  0
   22.9197   10.4062   52.4761 C   0  0  0  0  0  0  0  0  0  0  0  0
   22.2168    9.9328   54.7867 C   0  0  0  0  0  0  0  0  0  0  0  0
   23.3271    8.1583   53.4200 N   0  0  0  0  0  0  0  0  0  0  0  0
   24.6813    8.2069   53.3782 C   0  0  0  0  0  0  0  0  0  0  0  0
   25.5874    9.2232   53.4189 C   0  0  0  0  0  0  0  0  0  0  0  0
   26.9676    9.0133   53.3699 C   0  0  0  0  0  0  0  0  0  0  0  0
   27.4719    7.7452   53.2775 C   0  0  0  0  0  0  0  0  0  0  0  0
   26.5704    6.7156   53.2372 C   0  0  0  0  0  0  0  0  0  0  0  0
   25.2072    6.9109   53.2849 C   0  0  0  0  0  0  0  0  0  0  0  0
   24.1347    6.0577   53.2757 C   0  0  0  0  0  0  0  0  0  0  0  0
   24.0510    4.6829   53.2024 C   0  0  0  0  0  0  0  0  0  0  0  0
   25.1095    3.6481   53.1020 C   0  0  0  0  0  0  0  0  0  0  0  0
   24.4125    2.4065   53.0560 N   0  0  0  0  0  0  0  0  0  0  0  0
   22.9912    2.6292   53.1279 C   0  0  0  0  0  0  0  0  0  0  0  0
   22.1881    1.6882   53.1067 O   0  0  0  0  0  0  0  0  0  0  0  0
   22.7973    4.0604   53.2186 C   0  0  0  0  0  0  0  0  0  0  0  0
   21.6647    4.8684   53.3119 C   0  0  0  0  0  0  0  0  0  0  0  0
   20.2968    4.6136   53.3849 C   0  0  0  0  0  0  0  0  0  0  0  0
   19.5681    3.4730   53.3626 C   0  0  0  0  0  0  0  0  0  0  0  0
   18.1678    3.5612   53.4590 C   0  0  0  0  0  0  0  0  0  0  0  0
   17.5551    4.7785   53.5731 C   0  0  0  0  0  0  0  0  0  0  0  0
   18.2773    5.9489   53.5976 C   0  0  0  0  0  0  0  0  0  0  0  0
   19.6544    5.8481   53.5020 C   0  0  0  0  0  0  0  0  0  0  0  0
   20.5838    6.8131   53.4996 N   0  0  0  0  0  0  0  0  0  0  0  0
   21.7875    6.2478   53.3834 C   0  0  0  0  0  0  0  0  0  0  0  0
   23.0294    6.8205   53.3600 C   0  0  0  0  0  0  0  0  0  0  0  0
   24.8813    1.4816   52.9811 H   0  0  0  0  0  0  0  0  0  0  0  0
   22.7686    9.6012   57.7566 C   0  0  0  0  0  0  0  0  0  0  0  0
   21.6332    9.1386   57.0705 N   0  0  0  0  0  0  0  0  0  0  0  0
   21.1128    8.4498   57.6539 H   0  0  0  0  0  0  0  0  0  0  0  0
   21.2373   10.8914   54.5835 O   0  0  0  0  0  0  0  0  0  0  0  0
   21.4044   11.7934   53.5884 C   0  0  0  0  0  0  0  0  0  0  0  0
 33 34  1  0  0  0
 34  1  1  0  0  0
  1  2  1  0  0  0
  2  3  1  0  0  0
  3  4  1  0  0  0
  4  5  1  0  0  0
  5  6  1  0  0  0
  5  7  1  0  0  0
  7 36  1  0  0  0
 36 37  1  0  0  0
  5  8  1  0  0  0
  8  9  1  0  0  0
  9 10  2  0  0  0
 10 11  1  0  0  0
 11 12  2  0  0  0
 12 13  1  0  0  0
 13 14  2  0  0  0
 14 15  1  0  0  0
 15 16  2  0  0  0
 16 17  1  0  0  0
 17 18  1  0  0  0
 18 19  1  0  0  0
 19 20  2  0  0  0
 19 21  1  0  0  0
 21 22  2  0  0  0
 22 23  1  0  0  0
 23 24  2  0  0  0
 24 25  1  0  0  0
 25 26  2  0  0  0
 26 27  1  0  0  0
 27 28  2  0  0  0
 28 29  1  0  0  0
 29 30  1  0  0  0
 30 31  2  0  0  0
  7  1  1  0  0  0
 31  8  1  0  0  0
 29  3  1  0  0  0
 14  9  1  0  0  0
 31 15  1  0  0  0
 21 16  1  0  0  0
 30 22  1  0  0  0
 28 23  1  0  0  0
 34 35  1  0  0  0
 18 32  1  0  0  0
M  END
> <minimizedAffinity>
83.07900

> <CNNscore>
0.1843734235

> <CNNaffinity>
5.7986006737

> <CNN_VS>
1.0691078901

> <CNNaffinity_variance>
0.3392225206

$$$$
[H]c1c([H])c([H])c2c(c1[H])c1c3c(c4c5c([H])c([H])c([H])c([H])c5n5c4c1n2[C@@]1(C([H])([H])[H])O[C@]5([H])C([H])([H])[C@]([H])(N([H])C([H])([H])[H])[C@]1([H])OC([H])([H])[H])C(=O)N([H])C3([H])[H]


 37 44  0  0  0  0  0  0  0  0999 V2000
   22.5710    9.2711   55.2739 C   0  0  0  0  0  0  0  0  0  0  0  0
   23.1525   10.3848   54.4252 C   0  0  0  0  0  0  0  0  0  0  0  0
   23.4865    9.9207   53.0357 C   0  0  0  0  0  0  0  0  0  0  0  0
   23.8996    8.6660   52.8759 O   0  0  0  0  0  0  0  0  0  0  0  0
   23.3130    7.6316   53.6123 C   0  0  0  0  0  0  0  0  0  0  0  0
   24.2757    6.4810   53.3807 C   0  0  0  0  0  0  0  0  0  0  0  0
   23.4206    8.0649   55.0591 C   0  0  0  0  0  0  0  0  0  0  0  0
   21.9737    7.3514   53.1494 N   0  0  0  0  0  0  0  0  0  0  0  0
   21.3348    6.1658   53.3044 C   0  0  0  0  0  0  0  0  0  0  0  0
   21.6471    5.0063   53.9476 C   0  0  0  0  0  0  0  0  0  0  0  0
   20.7966    3.8985   53.9734 C   0  0  0  0  0  0  0  0  0  0  0  0
   19.5865    3.9402   53.3370 C   0  0  0  0  0  0  0  0  0  0  0  0
   19.2612    5.1011   52.6883 C   0  0  0  0  0  0  0  0  0  0  0  0
   20.0923    6.1998   52.6563 C   0  0  0  0  0  0  0  0  0  0  0  0
   19.9803    7.4470   52.0994 C   0  0  0  0  0  0  0  0  0  0  0  0
   18.9807    8.0376   51.3547 C   0  0  0  0  0  0  0  0  0  0  0  0
   17.6719    7.5126   50.8937 C   0  0  0  0  0  0  0  0  0  0  0  0
   17.0794    8.5816   50.1619 N   0  0  0  0  0  0  0  0  0  0  0  0
   17.9525    9.7272   50.1570 C   0  0  0  0  0  0  0  0  0  0  0  0
   17.6389   10.7759   49.5801 O   0  0  0  0  0  0  0  0  0  0  0  0
   19.1314    9.3564   50.9099 C   0  0  0  0  0  0  0  0  0  0  0  0
   20.3044   10.0319   51.2449 C   0  0  0  0  0  0  0  0  0  0  0  0
   20.7785   11.3216   51.0145 C   0  0  0  0  0  0  0  0  0  0  0  0
   20.2720   12.3857   50.3485 C   0  0  0  0  0  0  0  0  0  0  0  0
   21.0209   13.5752   50.3017 C   0  0  0  0  0  0  0  0  0  0  0  0
   22.2389   13.6535   50.9187 C   0  0  0  0  0  0  0  0  0  0  0  0
   22.7711   12.5838   51.6004 C   0  0  0  0  0  0  0  0  0  0  0  0
   22.0240   11.4193   51.6388 C   0  0  0  0  0  0  0  0  0  0  0  0
   22.3003   10.2455   52.2226 N   0  0  0  0  0  0  0  0  0  0  0  0
   21.2881    9.4054   51.9950 C   0  0  0  0  0  0  0  0  0  0  0  0
   21.1075    8.1141   52.4079 C   0  0  0  0  0  0  0  0  0  0  0  0
   16.1479    8.5235   49.7037 H   0  0  0  0  0  0  0  0  0  0  0  0
   21.2227   10.5666   56.8468 C   0  0  0  0  0  0  0  0  0  0  0  0
   22.2649    9.6652   56.5726 N   0  0  0  0  0  0  0  0  0  0  0  0
   23.0736    9.8429   57.2051 H   0  0  0  0  0  0  0  0  0  0  0  0
   24.7410    8.4481   55.2303 O   0  0  0  0  0  0  0  0  0  0  0  0
   25.7125    7.7298   54.6204 C   0  0  0  0  0  0  0  0  0  0  0  0
 33 34  1  0  0  0
 34  1  1  0  0  0
  1  2  1  0  0  0
  2  3  1  0  0  0
  3  4  1  0  0  0
  4  5  1  0  0  0
  5  6  1  0  0  0
  5  7  1  0  0  0
  7 36  1  0  0  0
 36 37  1  0  0  0
  5  8  1  0  0  0
  8  9  1  0  0  0
  9 10  2  0  0  0
 10 11  1  0  0  0
 11 12  2  0  0  0
 12 13  1  0  0  0
 13 14  2  0  0  0
 14 15  1  0  0  0
 15 16  2  0  0  0
 16 17  1  0  0  0
 17 18  1  0  0  0
 18 19  1  0  0  0
 19 20  2  0  0  0
 19 21  1  0  0  0
 21 22  2  0  0  0
 22 23  1  0  0  0
 23 24  2  0  0  0
 24 25  1  0  0  0
 25 26  2  0  0  0
 26 27  1  0  0  0
 27 28  2  0  0  0
 28 29  1  0  0  0
 29 30  1  0  0  0
 30 31  2  0  0  0
  7  1  1  0  0  0
 31  8  1  0  0  0
 29  3  1  0  0  0
 14  9  1  0  0  0
 31 15  1  0  0  0
 21 16  1  0  0  0
 30 22  1  0  0  0
 28 23  1  0  0  0
 34 35  1  0  0  0
 18 32  1  0  0  0
M  END
> <minimizedAffinity>
85.64034

> <CNNscore>
0.1407697648

> <CNNaffinity>
5.8052306175

> <CNN_VS>
0.8172009587

> <CNNaffinity_variance>
0.9810919762

$$$$
[H]c1c([H])c([H])c2c(c1[H])c1c3c(c4c5c([H])c([H])c([H])c([H])c5n5c4c1n2[C@@]1(C([H])([H])[H])O[C@]5([H])C([H])([H])[C@]([H])(N([H])C([H])([H])[H])[C@]1([H])OC([H])([H])[H])C(=O)N([H])C3([H])[H]


 37 44  0  0  0  0  0  0  0  0999 V2000
   26.1446    8.3198   52.8282 C   0  0  0  0  0  0  0  0  0  0  0  0
   26.6226    6.9077   53.1044 C   0  0  0  0  0  0  0  0  0  0  0  0
   26.0740    6.3679   54.3949 C   0  0  0  0  0  0  0  0  0  0  0  0
   25.8754    7.2201   55.3972 O   0  0  0  0  0  0  0  0  0  0  0  0
   25.3697    8.4995   55.1448 C   0  0  0  0  0  0  0  0  0  0  0  0
   25.6184    9.2131   56.4614 C   0  0  0  0  0  0  0  0  0  0  0  0
   26.2897    9.0895   54.0969 C   0  0  0  0  0  0  0  0  0  0  0  0
   23.9723    8.4500   54.7826 N   0  0  0  0  0  0  0  0  0  0  0  0
   23.0980    9.4750   54.9339 C   0  0  0  0  0  0  0  0  0  0  0  0
   23.2278   10.7701   55.3361 C   0  0  0  0  0  0  0  0  0  0  0  0
   22.1510   11.6576   55.4003 C   0  0  0  0  0  0  0  0  0  0  0  0
   20.8939   11.2468   55.0510 C   0  0  0  0  0  0  0  0  0  0  0  0
   20.7516    9.9474   54.6438 C   0  0  0  0  0  0  0  0  0  0  0  0
   21.8066    9.0634   54.5768 C   0  0  0  0  0  0  0  0  0  0  0  0
   21.9105    7.7515   54.1942 C   0  0  0  0  0  0  0  0  0  0  0  0
   20.9723    6.8447   53.7467 C   0  0  0  0  0  0  0  0  0  0  0  0
   19.5112    6.9837   53.5302 C   0  0  0  0  0  0  0  0  0  0  0  0
   19.0814    5.7081   53.0640 N   0  0  0  0  0  0  0  0  0  0  0  0
   20.1999    4.8044   52.9807 C   0  0  0  0  0  0  0  0  0  0  0  0
   20.0597    3.6369   52.5954 O   0  0  0  0  0  0  0  0  0  0  0  0
   21.3664    5.5434   53.4135 C   0  0  0  0  0  0  0  0  0  0  0  0
   22.7140    5.2113   53.5474 C   0  0  0  0  0  0  0  0  0  0  0  0
   23.4582    4.0619   53.2898 C   0  0  0  0  0  0  0  0  0  0  0  0
   23.1266    2.8301   52.8369 C   0  0  0  0  0  0  0  0  0  0  0  0
   24.1415    1.8687   52.6824 C   0  0  0  0  0  0  0  0  0  0  0  0
   25.4395    2.1748   52.9850 C   0  0  0  0  0  0  0  0  0  0  0  0
   25.7972    3.4203   53.4465 C   0  0  0  0  0  0  0  0  0  0  0  0
   24.7889    4.3571   53.5940 C   0  0  0  0  0  0  0  0  0  0  0  0
   24.8567    5.6259   54.0187 N   0  0  0  0  0  0  0  0  0  0  0  0
   23.6289    6.1494   54.0009 C   0  0  0  0  0  0  0  0  0  0  0  0
   23.2058    7.4100   54.3216 C   0  0  0  0  0  0  0  0  0  0  0  0
   18.0956    5.4814   52.8234 H   0  0  0  0  0  0  0  0  0  0  0  0
   27.9047    9.4801   51.5929 C   0  0  0  0  0  0  0  0  0  0  0  0
   26.6477    8.8548   51.6465 N   0  0  0  0  0  0  0  0  0  0  0  0
   25.9666    9.3577   51.0393 H   0  0  0  0  0  0  0  0  0  0  0  0
   27.5732    8.8738   54.5718 O   0  0  0  0  0  0  0  0  0  0  0  0
   27.9418    9.4508   55.7393 C   0  0  0  0  0  0  0  0  0  0  0  0
 33 34  1  0  0  0
 34  1  1  0  0  0
  1  2  1  0  0  0
  2  3  1  0  0  0
  3  4  1  0  0  0
  4  5  1  0  0  0
  5  6  1  0  0  0
  5  7  1  0  0  0
  7 36  1  0  0  0
 36 37  1  0  0  0
  5  8  1  0  0  0
  8  9  1  0  0  0
  9 10  2  0  0  0
 10 11  1  0  0  0
 11 12  2  0  0  0
 12 13  1  0  0  0
 13 14  2  0  0  0
 14 15  1  0  0  0
 15 16  2  0  0  0
 16 17  1  0  0  0
 17 18  1  0  0  0
 18 19  1  0  0  0
 19 20  2  0  0  0
 19 21  1  0  0  0
 21 22  2  0  0  0
 22 23  1  0  0  0
 23 24  2  0  0  0
 24 25  1  0  0  0
 25 26  2  0  0  0
 26 27  1  0  0  0
 27 28  2  0  0  0
 28 29  1  0  0  0
 29 30  1  0  0  0
 30 31  2  0  0  0
  7  1  1  0  0  0
 31  8  1  0  0  0
 29  3  1  0  0  0
 14  9  1  0  0  0
 31 15  1  0  0  0
 21 16  1  0  0  0
 30 22  1  0  0  0
 28 23  1  0  0  0
 34 35  1  0  0  0
 18 32  1  0  0  0
M  END
> <minimizedAffinity>
82.79390

> <CNNscore>
0.1066833436

> <CNNaffinity>
6.0301780701

> <CNN_VS>
0.6433195472

> <CNNaffinity_variance>
0.9505432844

$$$$
[H]c1c([H])c([H])c2c(c1[H])c1c3c(c4c5c([H])c([H])c([H])c([H])c5n5c4c1n2[C@@]1(C([H])([H])[H])O[C@]5([H])C([H])([H])[C@]([H])(N([H])C([H])([H])[H])[C@]1([H])OC([H])([H])[H])C(=O)N([H])C3([H])[H]


 37 44  0  0  0  0  0  0  0  0999 V2000
   21.1441    9.4274   53.7358 C   0  0  0  0  0  0  0  0  0  0  0  0
   20.0306    8.5077   53.2744 C   0  0  0  0  0  0  0  0  0  0  0  0
   20.5537    7.3333   52.4967 C   0  0  0  0  0  0  0  0  0  0  0  0
   21.6359    7.5117   51.7434 O   0  0  0  0  0  0  0  0  0  0  0  0
   22.6910    8.3068   52.2025 C   0  0  0  0  0  0  0  0  0  0  0  0
   23.5193    8.5053   50.9461 C   0  0  0  0  0  0  0  0  0  0  0  0
   22.0567    9.6305   52.5744 C   0  0  0  0  0  0  0  0  0  0  0  0
   23.4196    7.6513   53.2636 N   0  0  0  0  0  0  0  0  0  0  0  0
   24.7107    7.9083   53.5877 C   0  0  0  0  0  0  0  0  0  0  0  0
   25.6262    8.8182   53.1525 C   0  0  0  0  0  0  0  0  0  0  0  0
   26.9246    8.8935   53.6623 C   0  0  0  0  0  0  0  0  0  0  0  0
   27.3336    8.0333   54.6440 C   0  0  0  0  0  0  0  0  0  0  0  0
   26.4212    7.1152   55.0903 C   0  0  0  0  0  0  0  0  0  0  0  0
   25.1382    7.0319   54.5947 C   0  0  0  0  0  0  0  0  0  0  0  0
   24.0680    6.2273   54.8875 C   0  0  0  0  0  0  0  0  0  0  0  0
   23.9097    5.1960   55.7897 C   0  0  0  0  0  0  0  0  0  0  0  0
   24.8601    4.5970   56.7587 C   0  0  0  0  0  0  0  0  0  0  0  0
   24.1259    3.5641   57.4096 N   0  0  0  0  0  0  0  0  0  0  0  0
   22.7823    3.5059   56.8937 C   0  0  0  0  0  0  0  0  0  0  0  0
   21.9629    2.6814   57.3177 O   0  0  0  0  0  0  0  0  0  0  0  0
   22.6781    4.5371   55.8839 C   0  0  0  0  0  0  0  0  0  0  0  0
   21.6432    4.9583   55.0497 C   0  0  0  0  0  0  0  0  0  0  0  0
   20.3133    4.5754   54.8878 C   0  0  0  0  0  0  0  0  0  0  0  0
   19.5491    3.6238   55.4735 C   0  0  0  0  0  0  0  0  0  0  0  0
   18.2069    3.4919   55.0747 C   0  0  0  0  0  0  0  0  0  0  0  0
   17.6849    4.3112   54.1122 C   0  0  0  0  0  0  0  0  0  0  0  0
   18.4445    5.2841   53.5049 C   0  0  0  0  0  0  0  0  0  0  0  0
   19.7637    5.4034   53.9066 C   0  0  0  0  0  0  0  0  0  0  0  0
   20.7116    6.2519   53.4864 N   0  0  0  0  0  0  0  0  0  0  0  0
   21.8394    5.9987   54.1543 C   0  0  0  0  0  0  0  0  0  0  0  0
   23.0583    6.6155   54.0872 C   0  0  0  0  0  0  0  0  0  0  0  0
   24.5217    2.9503   58.1495 H   0  0  0  0  0  0  0  0  0  0  0  0
   21.0350   10.7415   55.7929 C   0  0  0  0  0  0  0  0  0  0  0  0
   20.6909   10.5343   54.4466 N   0  0  0  0  0  0  0  0  0  0  0  0
   19.7038   10.8211   54.2765 H   0  0  0  0  0  0  0  0  0  0  0  0
   21.2754    9.9820   51.4856 O   0  0  0  0  0  0  0  0  0  0  0  0
   21.2083   11.2847   51.1248 C   0  0  0  0  0  0  0  0  0  0  0  0
 33 34  1  0  0  0
 34  1  1  0  0  0
  1  2  1  0  0  0
  2  3  1  0  0  0
  3  4  1  0  0  0
  4  5  1  0  0  0
  5  6  1  0  0  0
  5  7  1  0  0  0
  7 36  1  0  0  0
 36 37  1  0  0  0
  5  8  1  0  0  0
  8  9  1  0  0  0
  9 10  2  0  0  0
 10 11  1  0  0  0
 11 12  2  0  0  0
 12 13  1  0  0  0
 13 14  2  0  0  0
 14 15  1  0  0  0
 15 16  2  0  0  0
 16 17  1  0  0  0
 17 18  1  0  0  0
 18 19  1  0  0  0
 19 20  2  0  0  0
 19 21  1  0  0  0
 21 22  2  0  0  0
 22 23  1  0  0  0
 23 24  2  0  0  0
 24 25  1  0  0  0
 25 26  2  0  0  0
 26 27  1  0  0  0
 27 28  2  0  0  0
 28 29  1  0  0  0
 29 30  1  0  0  0
 30 31  2  0  0  0
  7  1  1  0  0  0
 31  8  1  0  0  0
 29  3  1  0  0  0
 14  9  1  0  0  0
 31 15  1  0  0  0
 21 16  1  0  0  0
 30 22  1  0  0  0
 28 23  1  0  0  0
 34 35  1  0  0  0
 18 32  1  0  0  0
M  END
> <minimizedAffinity>
78.74661

> <CNNscore>
0.1065461785

> <CNNaffinity>
5.6720685959

> <CNN_VS>
0.6043372154

> <CNNaffinity_variance>
0.7818316817

$$$$
[H]c1c([H])c([H])c2c(c1[H])c1c3c(c4c5c([H])c([H])c([H])c([H])c5n5c4c1n2[C@@]1(C([H])([H])[H])O[C@]5([H])C([H])([H])[C@]([H])(N([H])C([H])([H])[H])[C@]1([H])OC([H])([H])[H])C(=O)N([H])C3([H])[H]


 37 44  0  0  0  0  0  0  0  0999 V2000
   25.5570    7.8401   54.0624 C   0  0  0  0  0  0  0  0  0  0  0  0
   25.6161    7.1143   55.3922 C   0  0  0  0  0  0  0  0  0  0  0  0
   24.4351    7.4354   56.2639 C   0  0  0  0  0  0  0  0  0  0  0  0
   23.9108    8.6558   56.1851 O   0  0  0  0  0  0  0  0  0  0  0  0
   23.7958    9.2948   54.9463 C   0  0  0  0  0  0  0  0  0  0  0  0
   23.4830   10.7254   55.3460 C   0  0  0  0  0  0  0  0  0  0  0  0
   25.1869    9.2555   54.3496 C   0  0  0  0  0  0  0  0  0  0  0  0
   22.7602    8.6930   54.1389 N   0  0  0  0  0  0  0  0  0  0  0  0
   22.0929    9.3243   53.1418 C   0  0  0  0  0  0  0  0  0  0  0  0
   22.2106   10.5509   52.5611 C   0  0  0  0  0  0  0  0  0  0  0  0
   21.3898   10.9783   51.5147 C   0  0  0  0  0  0  0  0  0  0  0  0
   20.4128   10.1576   51.0220 C   0  0  0  0  0  0  0  0  0  0  0  0
   20.2861    8.9216   51.5971 C   0  0  0  0  0  0  0  0  0  0  0  0
   21.0900    8.4896   52.6296 C   0  0  0  0  0  0  0  0  0  0  0  0
   21.1615    7.3188   53.3383 C   0  0  0  0  0  0  0  0  0  0  0  0
   20.4298    6.1517   53.2666 C   0  0  0  0  0  0  0  0  0  0  0  0
   19.2980    5.7657   52.3884 C   0  0  0  0  0  0  0  0  0  0  0  0
   18.9560    4.4405   52.7836 N   0  0  0  0  0  0  0  0  0  0  0  0
   19.8195    3.9987   53.8485 C   0  0  0  0  0  0  0  0  0  0  0  0
   19.7044    2.8727   54.3483 O   0  0  0  0  0  0  0  0  0  0  0  0
   20.7289    5.0892   54.1277 C   0  0  0  0  0  0  0  0  0  0  0  0
   21.7731    5.2553   55.0368 C   0  0  0  0  0  0  0  0  0  0  0  0
   22.3605    4.4344   55.9972 C   0  0  0  0  0  0  0  0  0  0  0  0
   22.1034    3.1727   56.4147 C   0  0  0  0  0  0  0  0  0  0  0  0
   22.9031    2.6186   57.4303 C   0  0  0  0  0  0  0  0  0  0  0  0
   23.9218    3.3431   57.9849 C   0  0  0  0  0  0  0  0  0  0  0  0
   24.1993    4.6265   57.5748 C   0  0  0  0  0  0  0  0  0  0  0  0
   23.4048    5.1599   56.5748 C   0  0  0  0  0  0  0  0  0  0  0  0
   23.4541    6.3677   55.9970 N   0  0  0  0  0  0  0  0  0  0  0  0
   22.4865    6.4435   55.0804 C   0  0  0  0  0  0  0  0  0  0  0  0
   22.1622    7.4615   54.2264 C   0  0  0  0  0  0  0  0  0  0  0  0
   18.1886    3.8873   52.3522 H   0  0  0  0  0  0  0  0  0  0  0  0
   27.3261    8.6000   52.5579 C   0  0  0  0  0  0  0  0  0  0  0  0
   26.6454    7.5756   53.2370 N   0  0  0  0  0  0  0  0  0  0  0  0
   26.5754    6.7269   52.6366 H   0  0  0  0  0  0  0  0  0  0  0  0
   26.0287    9.7125   55.3507 O   0  0  0  0  0  0  0  0  0  0  0  0
   27.2638    9.1703   55.4617 C   0  0  0  0  0  0  0  0  0  0  0  0
 33 34  1  0  0  0
 34  1  1  0  0  0
  1  2  1  0  0  0
  2  3  1  0  0  0
  3  4  1  0  0  0
  4  5  1  0  0  0
  5  6  1  0  0  0
  5  7  1  0  0  0
  7 36  1  0  0  0
 36 37  1  0  0  0
  5  8  1  0  0  0
  8  9  1  0  0  0
  9 10  2  0  0  0
 10 11  1  0  0  0
 11 12  2  0  0  0
 12 13  1  0  0  0
 13 14  2  0  0  0
 14 15  1  0  0  0
 15 16  2  0  0  0
 16 17  1  0  0  0
 17 18  1  0  0  0
 18 19  1  0  0  0
 19 20  2  0  0  0
 19 21  1  0  0  0
 21 22  2  0  0  0
 22 23  1  0  0  0
 23 24  2  0  0  0
 24 25  1  0  0  0
 25 26  2  0  0  0
 26 27  1  0  0  0
 27 28  2  0  0  0
 28 29  1  0  0  0
 29 30  1  0  0  0
 30 31  2  0  0  0
  7  1  1  0  0  0
 31  8  1  0  0  0
 29  3  1  0  0  0
 14  9  1  0  0  0
 31 15  1  0  0  0
 21 16  1  0  0  0
 30 22  1  0  0  0
 28 23  1  0  0  0
 34 35  1  0  0  0
 18 32  1  0  0  0
M  END
> <minimizedAffinity>
85.38256

> <CNNscore>
0.1033324748

> <CNNaffinity>
5.8244848251

> <CNN_VS>
0.6018584371

> <CNNaffinity_variance>
0.8287404180

$$$$
[H]c1c([H])c(S(=O)(=O)N([H])C(=O)N2C([H])([H])C([H])([H])N(c3c([H])c([H])c([N+](=O)[O-])c([H])c3[H])C([H])([H])C2([H])[H])c([H])c([H])c1Br


 29 31  0  0  0  0  0  0  0  0999 V2000
   27.5761    9.4547   57.2330 N   0  0  0  0  0  0  0  0  0  0  0  0
   26.1273    9.3130   57.4154 C   0  0  0  0  0  0  0  0  0  0  0  0
   25.6797    8.2406   56.4133 C   0  0  0  0  0  0  0  0  0  0  0  0
   26.0881    8.6018   55.0773 N   0  0  0  0  0  0  0  0  0  0  0  0
   27.4553    9.1059   54.8718 C   0  0  0  0  0  0  0  0  0  0  0  0
   28.2601    8.8485   56.1310 C   0  0  0  0  0  0  0  0  0  0  0  0
   25.2559    8.5037   53.9566 C   0  0  0  0  0  0  0  0  0  0  0  0
   25.7424    8.8631   52.8248 O   0  0  0  0  0  0  0  0  0  0  0  0
   23.9364    8.0320   54.0572 N   0  0  0  0  0  0  0  0  0  0  0  0
   23.5443    7.7371   54.9575 H   0  0  0  0  0  0  0  0  0  0  0  0
   29.6500   11.6909   60.1067 C   0  0  0  0  0  0  0  0  0  0  0  0
   28.8528   12.3256   59.1779 C   0  0  0  0  0  0  0  0  0  0  0  0
   28.1725   11.5777   58.2249 C   0  0  0  0  0  0  0  0  0  0  0  0
   28.2697   10.2210   58.1802 C   0  0  0  0  0  0  0  0  0  0  0  0
   29.0695    9.5775   59.1109 C   0  0  0  0  0  0  0  0  0  0  0  0
   29.7527   10.3020   60.0643 C   0  0  0  0  0  0  0  0  0  0  0  0
   31.3072   11.8422   61.8651 O   0  0  0  0  0  0  0  0  0  0  0  0
   30.3553   12.4377   61.0896 N   0  0  0  0  0  0  0  0  0  0  0  0
   30.1086   13.6303   61.2457 O   0  0  0  0  0  0  0  0  0  0  0  0
   22.8816    7.9064   52.6886 S   0  0  0  0  0  0  0  0  0  0  0  0
   23.6348    7.4769   51.4637 O   0  0  0  0  0  0  0  0  0  0  0  0
   22.3790    9.3038   52.4146 O   0  0  0  0  0  0  0  0  0  0  0  0
   21.5717    6.8165   53.0585 C   0  0  0  0  0  0  0  0  0  0  0  0
   20.2650    7.1357   52.7390 C   0  0  0  0  0  0  0  0  0  0  0  0
   19.2032    6.2986   53.0112 C   0  0  0  0  0  0  0  0  0  0  0  0
   19.4151    5.0811   53.6283 C   0  0  0  0  0  0  0  0  0  0  0  0
   17.9529    3.9059   54.0106 Br  0  0  0  0  0  0  0  0  0  0  0  0
   20.7119    4.7471   53.9536 C   0  0  0  0  0  0  0  0  0  0  0  0
   21.7612    5.5968   53.6740 C   0  0  0  0  0  0  0  0  0  0  0  0
 17 18  1  0  0  0
 18 19  2  0  0  0
 18 11  1  0  0  0
 11 12  2  0  0  0
 12 13  1  0  0  0
 13 14  2  0  0  0
 14 15  1  0  0  0
 15 16  2  0  0  0
 14  1  1  0  0  0
  1  2  1  0  0  0
  2  3  1  0  0  0
  3  4  1  0  0  0
  4  5  1  0  0  0
  5  6  1  0  0  0
  4  7  1  0  0  0
  7  8  2  0  0  0
  7  9  1  0  0  0
  9 20  1  0  0  0
 20 21  2  0  0  0
 20 22  2  0  0  0
 20 23  1  0  0  0
 23 24  2  0  0  0
 24 25  1  0  0  0
 25 26  2  0  0  0
 26 27  1  0  0  0
 26 28  1  0  0  0
 28 29  2  0  0  0
 16 11  1  0  0  0
  6  1  1  0  0  0
 29 23  1  0  0  0
  9 10  1  0  0  0
M  CHG 1  17  -1
M  CHG 1  18   1
M  END
> <minimizedAffinity>
23.93779

> <CNNscore>
0.4713664949

> <CNNaffinity>
5.4816484451

> <CNN_VS>
2.5838654041

> <CNNaffinity_variance>
0.2033596486

$$$$
[H]c1c([H])c(S(=O)(=O)N([H])C(=O)N2C([H])([H])C([H])([H])N(c3c([H])c([H])c([N+](=O)[O-])c([H])c3[H])C([H])([H])C2([H])[H])c([H])c([H])c1Br


 29 31  0  0  0  0  0  0  0  0999 V2000
   28.5119    9.5154   52.2116 N   0  0  0  0  0  0  0  0  0  0  0  0
   29.4954    9.9579   53.2062 C   0  0  0  0  0  0  0  0  0  0  0  0
   29.3346    9.0148   54.4058 C   0  0  0  0  0  0  0  0  0  0  0  0
   27.9668    9.0179   54.8656 N   0  0  0  0  0  0  0  0  0  0  0  0
   26.8890    8.9353   53.8672 C   0  0  0  0  0  0  0  0  0  0  0  0
   27.4962    8.5579   52.5299 C   0  0  0  0  0  0  0  0  0  0  0  0
   27.5998    9.0978   56.2136 C   0  0  0  0  0  0  0  0  0  0  0  0
   26.3460    9.0962   56.4868 O   0  0  0  0  0  0  0  0  0  0  0  0
   28.5604    9.1784   57.2356 N   0  0  0  0  0  0  0  0  0  0  0  0
   29.5636    9.1734   57.0241 H   0  0  0  0  0  0  0  0  0  0  0  0
   28.7340   11.2509   48.4038 C   0  0  0  0  0  0  0  0  0  0  0  0
   28.8174    9.8821   48.5473 C   0  0  0  0  0  0  0  0  0  0  0  0
   28.7483    9.3145   49.8135 C   0  0  0  0  0  0  0  0  0  0  0  0
   28.5982   10.0777   50.9302 C   0  0  0  0  0  0  0  0  0  0  0  0
   28.5139   11.4539   50.7924 C   0  0  0  0  0  0  0  0  0  0  0  0
   28.5806   12.0361   49.5445 C   0  0  0  0  0  0  0  0  0  0  0  0
   28.6802   13.2030   46.9731 O   0  0  0  0  0  0  0  0  0  0  0  0
   28.8035   11.8518   47.1172 N   0  0  0  0  0  0  0  0  0  0  0  0
   28.9758   11.1516   46.1234 O   0  0  0  0  0  0  0  0  0  0  0  0
   28.1353    9.2854   58.9117 S   0  0  0  0  0  0  0  0  0  0  0  0
   28.5654    8.0562   59.6576 O   0  0  0  0  0  0  0  0  0  0  0  0
   26.6264    9.3117   58.9628 O   0  0  0  0  0  0  0  0  0  0  0  0
   28.8238   10.7331   59.5979 C   0  0  0  0  0  0  0  0  0  0  0  0
   28.2529   11.9719   59.3723 C   0  0  0  0  0  0  0  0  0  0  0  0
   28.7652   13.1382   59.9008 C   0  0  0  0  0  0  0  0  0  0  0  0
   29.8956   13.1072   60.6941 C   0  0  0  0  0  0  0  0  0  0  0  0
   30.6181   14.7166   61.4381 Br  0  0  0  0  0  0  0  0  0  0  0  0
   30.4774   11.8803   60.9291 C   0  0  0  0  0  0  0  0  0  0  0  0
   29.9514   10.7244   60.3922 C   0  0  0  0  0  0  0  0  0  0  0  0
 17 18  1  0  0  0
 18 19  2  0  0  0
 18 11  1  0  0  0
 11 12  2  0  0  0
 12 13  1  0  0  0
 13 14  2  0  0  0
 14 15  1  0  0  0
 15 16  2  0  0  0
 14  1  1  0  0  0
  1  2  1  0  0  0
  2  3  1  0  0  0
  3  4  1  0  0  0
  4  5  1  0  0  0
  5  6  1  0  0  0
  4  7  1  0  0  0
  7  8  2  0  0  0
  7  9  1  0  0  0
  9 20  1  0  0  0
 20 21  2  0  0  0
 20 22  2  0  0  0
 20 23  1  0  0  0
 23 24  2  0  0  0
 24 25  1  0  0  0
 25 26  2  0  0  0
 26 27  1  0  0  0
 26 28  1  0  0  0
 28 29  2  0  0  0
 16 11  1  0  0  0
  6  1  1  0  0  0
 29 23  1  0  0  0
  9 10  1  0  0  0
M  CHG 1  17  -1
M  CHG 1  18   1
M  END
> <minimizedAffinity>
38.13289

> <CNNscore>
0.4651071429

> <CNNaffinity>
5.3569450378

> <CNN_VS>
2.4915533066

> <CNNaffinity_variance>
0.0913847536

$$$$
[H]c1c([H])c(S(=O)(=O)N([H])C(=O)N2C([H])([H])C([H])([H])N(c3c([H])c([H])c([N+](=O)[O-])c([H])c3[H])C([H])([H])C2([H])[H])c([H])c([H])c1Br


 29 31  0  0  0  0  0  0  0  0999 V2000
   22.7557    7.5642   54.1014 N   0  0  0  0  0  0  0  0  0  0  0  0
   23.0791    7.9191   55.4877 C   0  0  0  0  0  0  0  0  0  0  0  0
   24.1012    9.0603   55.4027 C   0  0  0  0  0  0  0  0  0  0  0  0
   25.2329    8.6606   54.6016 N   0  0  0  0  0  0  0  0  0  0  0  0
   24.9834    7.9601   53.3318 C   0  0  0  0  0  0  0  0  0  0  0  0
   23.5090    8.0763   52.9968 C   0  0  0  0  0  0  0  0  0  0  0  0
   26.5638    8.8980   54.9627 C   0  0  0  0  0  0  0  0  0  0  0  0
   27.4772    8.4855   54.1613 O   0  0  0  0  0  0  0  0  0  0  0  0
   26.8970    9.5609   56.1558 N   0  0  0  0  0  0  0  0  0  0  0  0
   26.1716    9.8987   56.7969 H   0  0  0  0  0  0  0  0  0  0  0  0
   19.5823    4.9014   53.4702 C   0  0  0  0  0  0  0  0  0  0  0  0
   19.3603    6.2620   53.4455 C   0  0  0  0  0  0  0  0  0  0  0  0
   20.4166    7.1385   53.6610 C   0  0  0  0  0  0  0  0  0  0  0  0
   21.6793    6.6894   53.8978 C   0  0  0  0  0  0  0  0  0  0  0  0
   21.9085    5.3231   53.9239 C   0  0  0  0  0  0  0  0  0  0  0  0
   20.8735    4.4373   53.7126 C   0  0  0  0  0  0  0  0  0  0  0  0
   17.3565    4.0888   53.9669 O   0  0  0  0  0  0  0  0  0  0  0  0
   18.5150    3.9875   53.2531 N   0  0  0  0  0  0  0  0  0  0  0  0
   18.6328    3.0968   52.4162 O   0  0  0  0  0  0  0  0  0  0  0  0
   28.5353    9.8622   56.6317 S   0  0  0  0  0  0  0  0  0  0  0  0
   29.3321   10.4318   55.4945 O   0  0  0  0  0  0  0  0  0  0  0  0
   29.1381    8.5134   56.9441 O   0  0  0  0  0  0  0  0  0  0  0  0
   28.5556   10.9103   58.0252 C   0  0  0  0  0  0  0  0  0  0  0  0
   28.9553   10.4439   59.2639 C   0  0  0  0  0  0  0  0  0  0  0  0
   28.9890   11.2426   60.3878 C   0  0  0  0  0  0  0  0  0  0  0  0
   28.6149   12.5702   60.3117 C   0  0  0  0  0  0  0  0  0  0  0  0
   28.6589   13.6934   61.8615 Br  0  0  0  0  0  0  0  0  0  0  0  0
   28.2139   13.0513   59.0843 C   0  0  0  0  0  0  0  0  0  0  0  0
   28.1862   12.2380   57.9713 C   0  0  0  0  0  0  0  0  0  0  0  0
 17 18  1  0  0  0
 18 19  2  0  0  0
 18 11  1  0  0  0
 11 12  2  0  0  0
 12 13  1  0  0  0
 13 14  2  0  0  0
 14 15  1  0  0  0
 15 16  2  0  0  0
 14  1  1  0  0  0
  1  2  1  0  0  0
  2  3  1  0  0  0
  3  4  1  0  0  0
  4  5  1  0  0  0
  5  6  1  0  0  0
  4  7  1  0  0  0
  7  8  2  0  0  0
  7  9  1  0  0  0
  9 20  1  0  0  0
 20 21  2  0  0  0
 20 22  2  0  0  0
 20 23  1  0  0  0
 23 24  2  0  0  0
 24 25  1  0  0  0
 25 26  2  0  0  0
 26 27  1  0  0  0
 26 28  1  0  0  0
 28 29  2  0  0  0
 16 11  1  0  0  0
  6  1  1  0  0  0
 29 23  1  0  0  0
  9 10  1  0  0  0
M  CHG 1  17  -1
M  CHG 1  18   1
M  END
> <minimizedAffinity>
19.91683

> <CNNscore>
0.4509329796

> <CNNaffinity>
5.6244492531

> <CNN_VS>
2.5362496376

> <CNNaffinity_variance>
0.3254330456

$$$$
[H]c1c([H])c(S(=O)(=O)N([H])C(=O)N2C([H])([H])C([H])([H])N(c3c([H])c([H])c([N+](=O)[O-])c([H])c3[H])C([H])([H])C2([H])[H])c([H])c([H])c1Br


 29 31  0  0  0  0  0  0  0  0999 V2000
   22.1758    7.1928   53.8134 N   0  0  0  0  0  0  0  0  0  0  0  0
   22.5971    7.6529   55.1412 C   0  0  0  0  0  0  0  0  0  0  0  0
   23.6765    8.7154   54.8957 C   0  0  0  0  0  0  0  0  0  0  0  0
   24.7361    8.1739   54.0794 N   0  0  0  0  0  0  0  0  0  0  0  0
   24.3751    7.3764   52.8966 C   0  0  0  0  0  0  0  0  0  0  0  0
   22.8932    7.5530   52.6279 C   0  0  0  0  0  0  0  0  0  0  0  0
   26.0968    8.3600   54.3477 C   0  0  0  0  0  0  0  0  0  0  0  0
   26.9381    7.8193   53.5435 O   0  0  0  0  0  0  0  0  0  0  0  0
   26.5346    9.1078   55.4535 N   0  0  0  0  0  0  0  0  0  0  0  0
   25.8674    9.5478   56.0958 H   0  0  0  0  0  0  0  0  0  0  0  0
   18.7469    4.7894   53.6506 C   0  0  0  0  0  0  0  0  0  0  0  0
   19.9970    4.2102   53.7031 C   0  0  0  0  0  0  0  0  0  0  0  0
   21.1294    5.0137   53.7515 C   0  0  0  0  0  0  0  0  0  0  0  0
   21.0411    6.3718   53.7494 C   0  0  0  0  0  0  0  0  0  0  0  0
   19.7875    6.9596   53.6967 C   0  0  0  0  0  0  0  0  0  0  0  0
   18.6519    6.1795   53.6480 C   0  0  0  0  0  0  0  0  0  0  0  0
   16.4467    4.3572   54.2699 O   0  0  0  0  0  0  0  0  0  0  0  0
   17.5756    3.9852   53.5996 N   0  0  0  0  0  0  0  0  0  0  0  0
   17.5754    2.9449   52.9474 O   0  0  0  0  0  0  0  0  0  0  0  0
   28.2119    9.3489   55.8140 S   0  0  0  0  0  0  0  0  0  0  0  0
   28.8447   10.2934   54.8344 O   0  0  0  0  0  0  0  0  0  0  0  0
   28.8824    8.0108   55.6137 O   0  0  0  0  0  0  0  0  0  0  0  0
   28.3818    9.9099   57.4564 C   0  0  0  0  0  0  0  0  0  0  0  0
   28.3871   11.2603   57.7530 C   0  0  0  0  0  0  0  0  0  0  0  0
   28.5148   11.7425   59.0388 C   0  0  0  0  0  0  0  0  0  0  0  0
   28.6452   10.8696   60.1014 C   0  0  0  0  0  0  0  0  0  0  0  0
   28.8203   11.5222   61.8928 Br  0  0  0  0  0  0  0  0  0  0  0  0
   28.6418    9.5200   59.8234 C   0  0  0  0  0  0  0  0  0  0  0  0
   28.5133    9.0559   58.5314 C   0  0  0  0  0  0  0  0  0  0  0  0
 17 18  1  0  0  0
 18 19  2  0  0  0
 18 11  1  0  0  0
 11 12  2  0  0  0
 12 13  1  0  0  0
 13 14  2  0  0  0
 14 15  1  0  0  0
 15 16  2  0  0  0
 14  1  1  0  0  0
  1  2  1  0  0  0
  2  3  1  0  0  0
  3  4  1  0  0  0
  4  5  1  0  0  0
  5  6  1  0  0  0
  4  7  1  0  0  0
  7  8  2  0  0  0
  7  9  1  0  0  0
  9 20  1  0  0  0
 20 21  2  0  0  0
 20 22  2  0  0  0
 20 23  1  0  0  0
 23 24  2  0  0  0
 24 25  1  0  0  0
 25 26  2  0  0  0
 26 27  1  0  0  0
 26 28  1  0  0  0
 28 29  2  0  0  0
 16 11  1  0  0  0
  6  1  1  0  0  0
 29 23  1  0  0  0
  9 10  1  0  0  0
M  CHG 1  17  -1
M  CHG 1  18   1
M  END
> <minimizedAffinity>
17.89607

> <CNNscore>
0.4467462599

> <CNNaffinity>
5.7963666916

> <CNN_VS>
2.5895051956

> <CNNaffinity_variance>
0.4217258394

$$$$
[H]c1c([H])c(S(=O)(=O)N([H])C(=O)N2C([H])([H])C([H])([H])N(c3c([H])c([H])c([N+](=O)[O-])c([H])c3[H])C([H])([H])C2([H])[H])c([H])c([H])c1Br


 29 31  0  0  0  0  0  0  0  0999 V2000
   22.2279    7.2110   53.7764 N   0  0  0  0  0  0  0  0  0  0  0  0
   22.6024    7.8170   55.0590 C   0  0  0  0  0  0  0  0  0  0  0  0
   23.7408    8.7968   54.7452 C   0  0  0  0  0  0  0  0  0  0  0  0
   24.8141    8.1157   54.0624 N   0  0  0  0  0  0  0  0  0  0  0  0
   24.4769    7.1911   52.9684 C   0  0  0  0  0  0  0  0  0  0  0  0
   23.0202    7.3911   52.5976 C   0  0  0  0  0  0  0  0  0  0  0  0
   26.1666    8.2801   54.3814 C   0  0  0  0  0  0  0  0  0  0  0  0
   27.0216    7.6099   53.6982 O   0  0  0  0  0  0  0  0  0  0  0  0
   26.5821    9.1427   55.4094 N   0  0  0  0  0  0  0  0  0  0  0  0
   25.9043    9.6858   55.9544 H   0  0  0  0  0  0  0  0  0  0  0  0
   18.7770    4.8360   53.6734 C   0  0  0  0  0  0  0  0  0  0  0  0
   18.6743    6.2100   53.6200 C   0  0  0  0  0  0  0  0  0  0  0  0
   19.8227    6.9909   53.6600 C   0  0  0  0  0  0  0  0  0  0  0  0
   21.0612    6.4340   53.7507 C   0  0  0  0  0  0  0  0  0  0  0  0
   21.1708    5.0538   53.8048 C   0  0  0  0  0  0  0  0  0  0  0  0
   20.0431    4.2618   53.7666 C   0  0  0  0  0  0  0  0  0  0  0  0
   17.6115    2.8456   52.9381 O   0  0  0  0  0  0  0  0  0  0  0  0
   17.6142    4.0189   53.6348 N   0  0  0  0  0  0  0  0  0  0  0  0
   16.6004    4.3686   54.2325 O   0  0  0  0  0  0  0  0  0  0  0  0
   28.2483    9.3606   55.8308 S   0  0  0  0  0  0  0  0  0  0  0  0
   28.9454   10.2444   54.8382 O   0  0  0  0  0  0  0  0  0  0  0  0
   28.8925    7.9994   55.7192 O   0  0  0  0  0  0  0  0  0  0  0  0
   28.3633    9.9917   57.4523 C   0  0  0  0  0  0  0  0  0  0  0  0
   28.4796    9.1473   58.5408 C   0  0  0  0  0  0  0  0  0  0  0  0
   28.5773    9.6081   59.8370 C   0  0  0  0  0  0  0  0  0  0  0  0
   28.5619   10.9645   60.0983 C   0  0  0  0  0  0  0  0  0  0  0  0
   28.6997   11.6211   61.8914 Br  0  0  0  0  0  0  0  0  0  0  0  0
   28.4467   11.8203   59.0244 C   0  0  0  0  0  0  0  0  0  0  0  0
   28.3499   11.3416   57.7351 C   0  0  0  0  0  0  0  0  0  0  0  0
 17 18  1  0  0  0
 18 19  2  0  0  0
 18 11  1  0  0  0
 11 12  2  0  0  0
 12 13  1  0  0  0
 13 14  2  0  0  0
 14 15  1  0  0  0
 15 16  2  0  0  0
 14  1  1  0  0  0
  1  2  1  0  0  0
  2  3  1  0  0  0
  3  4  1  0  0  0
  4  5  1  0  0  0
  5  6  1  0  0  0
  4  7  1  0  0  0
  7  8  2  0  0  0
  7  9  1  0  0  0
  9 20  1  0  0  0
 20 21  2  0  0  0
 20 22  2  0  0  0
 20 23  1  0  0  0
 23 24  2  0  0  0
 24 25  1  0  0  0
 25 26  2  0  0  0
 26 27  1  0  0  0
 26 28  1  0  0  0
 28 29  2  0  0  0
 16 11  1  0  0  0
  6  1  1  0  0  0
 29 23  1  0  0  0
  9 10  1  0  0  0
M  CHG 1  17  -1
M  CHG 1  18   1
M  END
> <minimizedAffinity>
18.10994

> <CNNscore>
0.4415791631

> <CNNaffinity>
5.7981429100

> <CNN_VS>
2.5603392124

> <CNNaffinity_variance>
0.4372669160

$$$$
[H]c1c([H])c(S(=O)(=O)N([H])C(=O)N2C([H])([H])C([H])([H])N(c3c([H])c([H])c([N+](=O)[O-])c([H])c3[H])C([H])([H])C2([H])[H])c([H])c([H])c1Br


 29 31  0  0  0  0  0  0  0  0999 V2000
   28.6186    8.7870   50.8637 N   0  0  0  0  0  0  0  0  0  0  0  0
   28.9180   10.0460   51.5549 C   0  0  0  0  0  0  0  0  0  0  0  0
   29.1671    9.6719   53.0220 C   0  0  0  0  0  0  0  0  0  0  0  0
   28.0390    8.9450   53.5522 N   0  0  0  0  0  0  0  0  0  0  0  0
   27.4448    7.8751   52.7351 C   0  0  0  0  0  0  0  0  0  0  0  0
   28.3807    7.5711   51.5812 C   0  0  0  0  0  0  0  0  0  0  0  0
   27.4693    9.1992   54.8047 C   0  0  0  0  0  0  0  0  0  0  0  0
   26.4642    8.4820   55.1544 O   0  0  0  0  0  0  0  0  0  0  0  0
   27.9709   10.2001   55.6534 N   0  0  0  0  0  0  0  0  0  0  0  0
   28.7777   10.7719   55.3824 H   0  0  0  0  0  0  0  0  0  0  0  0
   28.4019    8.9361   46.6815 C   0  0  0  0  0  0  0  0  0  0  0  0
   28.9071    7.8174   47.3096 C   0  0  0  0  0  0  0  0  0  0  0  0
   28.9807    7.7776   48.6965 C   0  0  0  0  0  0  0  0  0  0  0  0
   28.5635    8.8217   49.4633 C   0  0  0  0  0  0  0  0  0  0  0  0
   28.0550    9.9487   48.8377 C   0  0  0  0  0  0  0  0  0  0  0  0
   27.9739   10.0075   47.4628 C   0  0  0  0  0  0  0  0  0  0  0  0
   27.4248    8.2213   44.5850 O   0  0  0  0  0  0  0  0  0  0  0  0
   28.3188    8.9974   45.2636 N   0  0  0  0  0  0  0  0  0  0  0  0
   29.0569    9.7546   44.6395 O   0  0  0  0  0  0  0  0  0  0  0  0
   27.2817   10.5415   57.2057 S   0  0  0  0  0  0  0  0  0  0  0  0
   25.9105    9.9445   57.3311 O   0  0  0  0  0  0  0  0  0  0  0  0
   27.1041   12.0398   57.2675 O   0  0  0  0  0  0  0  0  0  0  0  0
   28.3527    9.9722   58.4586 C   0  0  0  0  0  0  0  0  0  0  0  0
   29.1297   10.8525   59.1886 C   0  0  0  0  0  0  0  0  0  0  0  0
   29.9848   10.4414   60.1895 C   0  0  0  0  0  0  0  0  0  0  0  0
   30.0968    9.1011   60.5046 C   0  0  0  0  0  0  0  0  0  0  0  0
   31.2768    8.5137   61.8932 Br  0  0  0  0  0  0  0  0  0  0  0  0
   29.3292    8.2100   59.7866 C   0  0  0  0  0  0  0  0  0  0  0  0
   28.4796    8.6391   58.7890 C   0  0  0  0  0  0  0  0  0  0  0  0
 17 18  1  0  0  0
 18 19  2  0  0  0
 18 11  1  0  0  0
 11 12  2  0  0  0
 12 13  1  0  0  0
 13 14  2  0  0  0
 14 15  1  0  0  0
 15 16  2  0  0  0
 14  1  1  0  0  0
  1  2  1  0  0  0
  2  3  1  0  0  0
  3  4  1  0  0  0
  4  5  1  0  0  0
  5  6  1  0  0  0
  4  7  1  0  0  0
  7  8  2  0  0  0
  7  9  1  0  0  0
  9 20  1  0  0  0
 20 21  2  0  0  0
 20 22  2  0  0  0
 20 23  1  0  0  0
 23 24  2  0  0  0
 24 25  1  0  0  0
 25 26  2  0  0  0
 26 27  1  0  0  0
 26 28  1  0  0  0
 28 29  2  0  0  0
 16 11  1  0  0  0
  6  1  1  0  0  0
 29 23  1  0  0  0
  9 10  1  0  0  0
M  CHG 1  17  -1
M  CHG 1  18   1
M  END
> <minimizedAffinity>
46.26853

> <CNNscore>
0.4338248670

> <CNNaffinity>
5.2751846313

> <CNN_VS>
2.2885062695

> <CNNaffinity_variance>
0.2717843652

$$$$
[H]c1c([H])c(S(=O)(=O)N([H])C(=O)N2C([H])([H])C([H])([H])N(c3c([H])c([H])c([N+](=O)[O-])c([H])c3[H])C([H])([H])C2([H])[H])c([H])c([H])c1Br


 29 31  0  0  0  0  0  0  0  0999 V2000
   20.8736    6.7607   53.6219 N   0  0  0  0  0  0  0  0  0  0  0  0
   21.6424    6.9619   54.8552 C   0  0  0  0  0  0  0  0  0  0  0  0
   22.6785    8.0468   54.5330 C   0  0  0  0  0  0  0  0  0  0  0  0
   23.4657    7.6630   53.3862 N   0  0  0  0  0  0  0  0  0  0  0  0
   22.7743    7.1029   52.2142 C   0  0  0  0  0  0  0  0  0  0  0  0
   21.2842    7.3333   52.3756 C   0  0  0  0  0  0  0  0  0  0  0  0
   24.8578    7.7896   53.3210 C   0  0  0  0  0  0  0  0  0  0  0  0
   25.4372    7.4053   52.2424 O   0  0  0  0  0  0  0  0  0  0  0  0
   25.6012    8.3150   54.3911 N   0  0  0  0  0  0  0  0  0  0  0  0
   25.1434    8.6298   55.2528 H   0  0  0  0  0  0  0  0  0  0  0  0
   17.4533    4.3502   53.8473 C   0  0  0  0  0  0  0  0  0  0  0  0
   17.3349    5.7238   53.8615 C   0  0  0  0  0  0  0  0  0  0  0  0
   18.4740    6.5163   53.7919 C   0  0  0  0  0  0  0  0  0  0  0  0
   19.7182    5.9713   53.7081 C   0  0  0  0  0  0  0  0  0  0  0  0
   19.8435    4.5914   53.6935 C   0  0  0  0  0  0  0  0  0  0  0  0
   18.7253    3.7879   53.7620 C   0  0  0  0  0  0  0  0  0  0  0  0
   16.1012    2.5269   53.0056 O   0  0  0  0  0  0  0  0  0  0  0  0
   16.3004    3.5212   53.9186 N   0  0  0  0  0  0  0  0  0  0  0  0
   15.4735    3.6984   54.8087 O   0  0  0  0  0  0  0  0  0  0  0  0
   27.3253    8.4767   54.3411 S   0  0  0  0  0  0  0  0  0  0  0  0
   27.9980    7.1465   54.5154 O   0  0  0  0  0  0  0  0  0  0  0  0
   27.7052    9.3096   55.5420 O   0  0  0  0  0  0  0  0  0  0  0  0
   27.7968    9.2503   52.8511 C   0  0  0  0  0  0  0  0  0  0  0  0
   27.2475    8.8661   51.6419 C   0  0  0  0  0  0  0  0  0  0  0  0
   27.5913    9.4564   50.4438 C   0  0  0  0  0  0  0  0  0  0  0  0
   28.5203   10.4781   50.4107 C   0  0  0  0  0  0  0  0  0  0  0  0
   29.0066   11.3104   48.7565 Br  0  0  0  0  0  0  0  0  0  0  0  0
   29.0776   10.8736   51.6073 C   0  0  0  0  0  0  0  0  0  0  0  0
   28.7220   10.2717   52.7958 C   0  0  0  0  0  0  0  0  0  0  0  0
 17 18  1  0  0  0
 18 19  2  0  0  0
 18 11  1  0  0  0
 11 12  2  0  0  0
 12 13  1  0  0  0
 13 14  2  0  0  0
 14 15  1  0  0  0
 15 16  2  0  0  0
 14  1  1  0  0  0
  1  2  1  0  0  0
  2  3  1  0  0  0
  3  4  1  0  0  0
  4  5  1  0  0  0
  5  6  1  0  0  0
  4  7  1  0  0  0
  7  8  2  0  0  0
  7  9  1  0  0  0
  9 20  1  0  0  0
 20 21  2  0  0  0
 20 22  2  0  0  0
 20 23  1  0  0  0
 23 24  2  0  0  0
 24 25  1  0  0  0
 25 26  2  0  0  0
 26 27  1  0  0  0
 26 28  1  0  0  0
 28 29  2  0  0  0
 16 11  1  0  0  0
  6  1  1  0  0  0
 29 23  1  0  0  0
  9 10  1  0  0  0
M  CHG 1  17  -1
M  CHG 1  18   1
M  END
> <minimizedAffinity>
38.58152

> <CNNscore>
0.4294145703

> <CNNaffinity>
5.7650651932

> <CNN_VS>
2.4756031036

> <CNNaffinity_variance>
0.7286771536

$$$$
[H]c1c([H])c(S(=O)(=O)N([H])C(=O)N2C([H])([H])C([H])([H])N(c3c([H])c([H])c([N+](=O)[O-])c([H])c3[H])C([H])([H])C2([H])[H])c([H])c([H])c1Br


 29 31  0  0  0  0  0  0  0  0999 V2000
   27.4525   10.1510   57.0265 N   0  0  0  0  0  0  0  0  0  0  0  0
   27.8770    8.8607   56.4723 C   0  0  0  0  0  0  0  0  0  0  0  0
   27.0772    8.6757   55.1760 C   0  0  0  0  0  0  0  0  0  0  0  0
   25.6627    8.7839   55.4403 N   0  0  0  0  0  0  0  0  0  0  0  0
   25.1905    9.8761   56.3059 C   0  0  0  0  0  0  0  0  0  0  0  0
   26.3255   10.8622   56.5032 C   0  0  0  0  0  0  0  0  0  0  0  0
   24.7054    7.9049   54.9216 C   0  0  0  0  0  0  0  0  0  0  0  0
   23.4792    8.1107   55.2393 O   0  0  0  0  0  0  0  0  0  0  0  0
   25.0637    6.8345   54.0853 N   0  0  0  0  0  0  0  0  0  0  0  0
   26.0408    6.6688   53.8226 H   0  0  0  0  0  0  0  0  0  0  0  0
   29.6559   11.6132   60.2773 C   0  0  0  0  0  0  0  0  0  0  0  0
   28.9448   12.4811   59.4757 C   0  0  0  0  0  0  0  0  0  0  0  0
   28.2210   11.9893   58.3966 C   0  0  0  0  0  0  0  0  0  0  0  0
   28.1915   10.6606   58.1035 C   0  0  0  0  0  0  0  0  0  0  0  0
   28.9042    9.7836   58.9053 C   0  0  0  0  0  0  0  0  0  0  0  0
   29.6286   10.2521   59.9805 C   0  0  0  0  0  0  0  0  0  0  0  0
   30.1693   13.3406   61.8939 O   0  0  0  0  0  0  0  0  0  0  0  0
   30.4037   12.0961   61.3858 N   0  0  0  0  0  0  0  0  0  0  0  0
   31.2700   11.3897   61.8938 O   0  0  0  0  0  0  0  0  0  0  0  0
   23.9013    5.7268   53.4346 S   0  0  0  0  0  0  0  0  0  0  0  0
   23.4838    4.7162   54.4626 O   0  0  0  0  0  0  0  0  0  0  0  0
   24.6130    4.9610   52.3451 O   0  0  0  0  0  0  0  0  0  0  0  0
   22.5371    6.6133   52.8069 C   0  0  0  0  0  0  0  0  0  0  0  0
   21.2498    6.3358   53.2283 C   0  0  0  0  0  0  0  0  0  0  0  0
   20.1466    7.0174   52.7588 C   0  0  0  0  0  0  0  0  0  0  0  0
   20.2944    8.0266   51.8272 C   0  0  0  0  0  0  0  0  0  0  0  0
   18.7739    8.9848   51.1673 Br  0  0  0  0  0  0  0  0  0  0  0  0
   21.5709    8.3162   51.3965 C   0  0  0  0  0  0  0  0  0  0  0  0
   22.6624    7.6240   51.8768 C   0  0  0  0  0  0  0  0  0  0  0  0
 17 18  1  0  0  0
 18 19  2  0  0  0
 18 11  1  0  0  0
 11 12  2  0  0  0
 12 13  1  0  0  0
 13 14  2  0  0  0
 14 15  1  0  0  0
 15 16  2  0  0  0
 14  1  1  0  0  0
  1  2  1  0  0  0
  2  3  1  0  0  0
  3  4  1  0  0  0
  4  5  1  0  0  0
  5  6  1  0  0  0
  4  7  1  0  0  0
  7  8  2  0  0  0
  7  9  1  0  0  0
  9 20  1  0  0  0
 20 21  2  0  0  0
 20 22  2  0  0  0
 20 23  1  0  0  0
 23 24  2  0  0  0
 24 25  1  0  0  0
 25 26  2  0  0  0
 26 27  1  0  0  0
 26 28  1  0  0  0
 28 29  2  0  0  0
 16 11  1  0  0  0
  6  1  1  0  0  0
 29 23  1  0  0  0
  9 10  1  0  0  0
M  CHG 1  17  -1
M  CHG 1  18   1
M  END
> <minimizedAffinity>
20.51104

> <CNNscore>
0.4242676795

> <CNNaffinity>
5.6956005096

> <CNN_VS>
2.4164593220

> <CNNaffinity_variance>
0.3622007668

$$$$
[H]c1c([H])c(S(=O)(=O)N([H])C(=O)N2C([H])([H])C([H])([H])N(c3c([H])c([H])c([N+](=O)[O-])c([H])c3[H])C([H])([H])C2([H])[H])c([H])c([H])c1Br


 29 31  0  0  0  0  0  0  0  0999 V2000
   21.3973    9.8770   52.5607 N   0  0  0  0  0  0  0  0  0  0  0  0
   20.6192    9.3812   53.7014 C   0  0  0  0  0  0  0  0  0  0  0  0
   21.0661    7.9291   53.9165 C   0  0  0  0  0  0  0  0  0  0  0  0
   20.9056    7.1700   52.6999 N   0  0  0  0  0  0  0  0  0  0  0  0
   21.3500    7.7709   51.4323 C   0  0  0  0  0  0  0  0  0  0  0  0
   22.1814    9.0000   51.7447 C   0  0  0  0  0  0  0  0  0  0  0  0
   20.3463    5.8883   52.6512 C   0  0  0  0  0  0  0  0  0  0  0  0
   20.2568    5.3248   51.5018 O   0  0  0  0  0  0  0  0  0  0  0  0
   19.8959    5.2359   53.8111 N   0  0  0  0  0  0  0  0  0  0  0  0
   19.9707    5.6782   54.7331 H   0  0  0  0  0  0  0  0  0  0  0  0
   21.1655   13.9922   51.8052 C   0  0  0  0  0  0  0  0  0  0  0  0
   21.5578   13.1256   50.8071 C   0  0  0  0  0  0  0  0  0  0  0  0
   21.6374   11.7631   51.0668 C   0  0  0  0  0  0  0  0  0  0  0  0
   21.3354   11.2514   52.2912 C   0  0  0  0  0  0  0  0  0  0  0  0
   20.9406   12.1174   53.2983 C   0  0  0  0  0  0  0  0  0  0  0  0
   20.8557   13.4727   53.0604 C   0  0  0  0  0  0  0  0  0  0  0  0
   19.9864   16.1005   51.9662 O   0  0  0  0  0  0  0  0  0  0  0  0
   21.0784   15.3901   51.5605 N   0  0  0  0  0  0  0  0  0  0  0  0
   21.9925   15.9675   50.9786 O   0  0  0  0  0  0  0  0  0  0  0  0
   19.1931    3.6527   53.7800 S   0  0  0  0  0  0  0  0  0  0  0  0
   20.2425    2.5926   53.9450 O   0  0  0  0  0  0  0  0  0  0  0  0
   18.6177    3.4744   52.3954 O   0  0  0  0  0  0  0  0  0  0  0  0
   17.9581    3.5375   55.0057 C   0  0  0  0  0  0  0  0  0  0  0  0
   18.2744    3.2020   56.3091 C   0  0  0  0  0  0  0  0  0  0  0  0
   17.3271    3.1052   57.3067 C   0  0  0  0  0  0  0  0  0  0  0  0
   15.9954    3.3465   57.0301 C   0  0  0  0  0  0  0  0  0  0  0  0
   14.6680    3.2195   58.4039 Br  0  0  0  0  0  0  0  0  0  0  0  0
   15.6627    3.6823   55.7357 C   0  0  0  0  0  0  0  0  0  0  0  0
   16.6234    3.7742   54.7509 C   0  0  0  0  0  0  0  0  0  0  0  0
 17 18  1  0  0  0
 18 19  2  0  0  0
 18 11  1  0  0  0
 11 12  2  0  0  0
 12 13  1  0  0  0
 13 14  2  0  0  0
 14 15  1  0  0  0
 15 16  2  0  0  0
 14  1  1  0  0  0
  1  2  1  0  0  0
  2  3  1  0  0  0
  3  4  1  0  0  0
  4  5  1  0  0  0
  5  6  1  0  0  0
  4  7  1  0  0  0
  7  8  2  0  0  0
  7  9  1  0  0  0
  9 20  1  0  0  0
 20 21  2  0  0  0
 20 22  2  0  0  0
 20 23  1  0  0  0
 23 24  2  0  0  0
 24 25  1  0  0  0
 25 26  2  0  0  0
 26 27  1  0  0  0
 26 28  1  0  0  0
 28 29  2  0  0  0
 16 11  1  0  0  0
  6  1  1  0  0  0
 29 23  1  0  0  0
  9 10  1  0  0  0
M  CHG 1  17  -1
M  CHG 1  18   1
M  END
> <minimizedAffinity>
45.70065

> <CNNscore>
0.4101887345

> <CNNaffinity>
5.8113489151

> <CNN_VS>
2.3837499619

> <CNNaffinity_variance>
0.5499968529

$$$$
[H]c1nc2c([H])c(OC([H])([H])[H])c(OC([H])([H])[H])c([H])c2c(Oc2c([H])c([H])c(N([H])C(=O)N([H])c3c([H])c([H])c([H])c(Cl)c3[H])c([H])c2[H])c1[H]


 34 37  0  0  0  0  0  0  0  0999 V2000
   25.5011    7.8587   53.8311 C   0  0  0  0  0  0  0  0  0  0  0  0
   24.9179    8.0277   55.0567 C   0  0  0  0  0  0  0  0  0  0  0  0
   25.6132    8.5470   56.1245 C   0  0  0  0  0  0  0  0  0  0  0  0
   26.9128    8.9274   56.0511 C   0  0  0  0  0  0  0  0  0  0  0  0
   27.5235    8.7459   54.7633 C   0  0  0  0  0  0  0  0  0  0  0  0
   26.8252    8.2352   53.7245 C   0  0  0  0  0  0  0  0  0  0  0  0
   27.6739    9.4915   57.0181 N   0  0  0  0  0  0  0  0  0  0  0  0
   28.4383   10.0576   57.9890 C   0  0  0  0  0  0  0  0  0  0  0  0
   29.3858    9.5000   58.6657 O   0  0  0  0  0  0  0  0  0  0  0  0
   28.2502   11.4368   58.3824 N   0  0  0  0  0  0  0  0  0  0  0  0
   28.2277    8.2918   57.3180 H   0  0  0  0  0  0  0  0  0  0  0  0
   27.4526   11.9156   57.8483 H   0  0  0  0  0  0  0  0  0  0  0  0
   28.9611   12.1526   59.3338 C   0  0  0  0  0  0  0  0  0  0  0  0
   30.0431   11.4851   59.9521 C   0  0  0  0  0  0  0  0  0  0  0  0
   30.8016   12.0725   60.9266 C   0  0  0  0  0  0  0  0  0  0  0  0
   30.5171   13.3533   61.3316 C   0  0  0  0  0  0  0  0  0  0  0  0
   29.4791   14.0499   60.7676 C   0  0  0  0  0  0  0  0  0  0  0  0
   29.1193   15.6702   61.2877 Cl  0  0  0  0  0  0  0  0  0  0  0  0
   28.7275   13.4195   59.7768 C   0  0  0  0  0  0  0  0  0  0  0  0
   24.7623    7.3491   52.8241 O   0  0  0  0  0  0  0  0  0  0  0  0
   20.9108    9.9874   54.6601 C   0  0  0  0  0  0  0  0  0  0  0  0
   20.4624    9.1751   53.6583 C   0  0  0  0  0  0  0  0  0  0  0  0
   21.2701    8.3113   52.9375 C   0  0  0  0  0  0  0  0  0  0  0  0
   20.7672    7.5392   51.9587 N   0  0  0  0  0  0  0  0  0  0  0  0
   21.5122    6.6891   51.2289 C   0  0  0  0  0  0  0  0  0  0  0  0
   22.8477    6.6442   51.5388 C   0  0  0  0  0  0  0  0  0  0  0  0
   23.4226    7.4302   52.5520 C   0  0  0  0  0  0  0  0  0  0  0  0
   22.6199    8.2880   53.2758 C   0  0  0  0  0  0  0  0  0  0  0  0
   23.0725    9.1082   54.2925 C   0  0  0  0  0  0  0  0  0  0  0  0
   22.2694    9.9719   55.0114 C   0  0  0  0  0  0  0  0  0  0  0  0
   19.8316   10.6998   56.7738 C   0  0  0  0  0  0  0  0  0  0  0  0
   20.1191   10.8606   55.3929 O   0  0  0  0  0  0  0  0  0  0  0  0
   22.7025   10.7971   56.0222 O   0  0  0  0  0  0  0  0  0  0  0  0
   23.9981   11.2863   56.1801 C   0  0  0  0  0  0  0  0  0  0  0  0
 31 32  1  0  0  0
 32 21  1  0  0  0
 21 22  2  0  0  0
 22 23  1  0  0  0
 23 24  2  0  0  0
 24 25  1  0  0  0
 25 26  2  0  0  0
 26 27  1  0  0  0
 27 20  1  0  0  0
 20  1  1  0  0  0
  1  2  2  0  0  0
  2  3  1  0  0  0
  3  4  2  0  0  0
  4  7  1  0  0  0
  7  8  1  0  0  0
  8  9  2  0  0  0
  8 10  1  0  0  0
 10 13  1  0  0  0
 13 14  2  0  0  0
 14 15  1  0  0  0
 15 16  2  0  0  0
 16 17  1  0  0  0
 17 18  1  0  0  0
 17 19  2  0  0  0
  4  5  1  0  0  0
  5  6  2  0  0  0
 27 28  2  0  0  0
 28 29  1  0  0  0
 29 30  2  0  0  0
 30 33  1  0  0  0
 33 34  1  0  0  0
 30 21  1  0  0  0
 28 23  1  0  0  0
  6  1  1  0  0  0
 19 13  1  0  0  0
  7 11  1  0  0  0
 10 12  1  0  0  0
M  END
> <minimizedAffinity>
20.56812

> <CNNscore>
0.5844291449

> <CNNaffinity>
6.1853723526

> <CNN_VS>
3.6149117947

> <CNNaffinity_variance>
0.2616309524

$$$$
[H]c1nc2c([H])c(OC([H])([H])[H])c(OC([H])([H])[H])c([H])c2c(Oc2c([H])c([H])c(N([H])C(=O)N([H])c3c([H])c([H])c([H])c(Cl)c3[H])c([H])c2[H])c1[H]


 34 37  0  0  0  0  0  0  0  0999 V2000
   24.7387    8.0979   54.1293 C   0  0  0  0  0  0  0  0  0  0  0  0
   26.0807    7.9099   53.9431 C   0  0  0  0  0  0  0  0  0  0  0  0
   27.0098    8.3813   54.8419 C   0  0  0  0  0  0  0  0  0  0  0  0
   26.6773    9.0604   55.9676 C   0  0  0  0  0  0  0  0  0  0  0  0
   25.2671    9.2590   56.1588 C   0  0  0  0  0  0  0  0  0  0  0  0
   24.3678    8.7880   55.2661 C   0  0  0  0  0  0  0  0  0  0  0  0
   27.5001    9.5230   56.9378 N   0  0  0  0  0  0  0  0  0  0  0  0
   28.3264    9.9874   57.9119 C   0  0  0  0  0  0  0  0  0  0  0  0
   29.2350    9.3280   58.5493 O   0  0  0  0  0  0  0  0  0  0  0  0
   28.2626   11.3623   58.3568 N   0  0  0  0  0  0  0  0  0  0  0  0
   27.9556    8.2710   57.1845 H   0  0  0  0  0  0  0  0  0  0  0  0
   27.4992   11.9254   57.8561 H   0  0  0  0  0  0  0  0  0  0  0  0
   29.0480   11.9809   59.3178 C   0  0  0  0  0  0  0  0  0  0  0  0
   30.0513   11.1895   59.9225 C   0  0  0  0  0  0  0  0  0  0  0  0
   30.8700   11.6749   60.9044 C   0  0  0  0  0  0  0  0  0  0  0  0
   30.7271   12.9723   61.3306 C   0  0  0  0  0  0  0  0  0  0  0  0
   29.7708   13.7870   60.7804 C   0  0  0  0  0  0  0  0  0  0  0  0
   29.5901   15.4282   61.3274 Cl  0  0  0  0  0  0  0  0  0  0  0  0
   28.9542   13.2584   59.7816 C   0  0  0  0  0  0  0  0  0  0  0  0
   23.8799    7.6058   53.2128 O   0  0  0  0  0  0  0  0  0  0  0  0
   19.2973    5.5780   52.9816 C   0  0  0  0  0  0  0  0  0  0  0  0
   19.2460    6.8597   52.5136 C   0  0  0  0  0  0  0  0  0  0  0  0
   20.3408    7.7047   52.4392 C   0  0  0  0  0  0  0  0  0  0  0  0
   20.2230    8.9596   51.9715 N   0  0  0  0  0  0  0  0  0  0  0  0
   21.2556    9.8177   51.8846 C   0  0  0  0  0  0  0  0  0  0  0  0
   22.4701    9.3396   52.3068 C   0  0  0  0  0  0  0  0  0  0  0  0
   22.6462    8.0369   52.8037 C   0  0  0  0  0  0  0  0  0  0  0  0
   21.5586    7.1905   52.8742 C   0  0  0  0  0  0  0  0  0  0  0  0
   21.6105    5.8916   53.3446 C   0  0  0  0  0  0  0  0  0  0  0  0
   20.5198    5.0476   53.4216 C   0  0  0  0  0  0  0  0  0  0  0  0
   17.6696    4.2439   54.2895 C   0  0  0  0  0  0  0  0  0  0  0  0
   18.2127    4.7161   53.0659 O   0  0  0  0  0  0  0  0  0  0  0  0
   20.5519    3.7555   53.8900 O   0  0  0  0  0  0  0  0  0  0  0  0
   20.4731    2.6014   53.1122 C   0  0  0  0  0  0  0  0  0  0  0  0
 31 32  1  0  0  0
 32 21  1  0  0  0
 21 22  2  0  0  0
 22 23  1  0  0  0
 23 24  2  0  0  0
 24 25  1  0  0  0
 25 26  2  0  0  0
 26 27  1  0  0  0
 27 20  1  0  0  0
 20  1  1  0  0  0
  1  2  2  0  0  0
  2  3  1  0  0  0
  3  4  2  0  0  0
  4  7  1  0  0  0
  7  8  1  0  0  0
  8  9  2  0  0  0
  8 10  1  0  0  0
 10 13  1  0  0  0
 13 14  2  0  0  0
 14 15  1  0  0  0
 15 16  2  0  0  0
 16 17  1  0  0  0
 17 18  1  0  0  0
 17 19  2  0  0  0
  4  5  1  0  0  0
  5  6  2  0  0  0
 27 28  2  0  0  0
 28 29  1  0  0  0
 29 30  2  0  0  0
 30 33  1  0  0  0
 33 34  1  0  0  0
 30 21  1  0  0  0
 28 23  1  0  0  0
  6  1  1  0  0  0
 19 13  1  0  0  0
  7 11  1  0  0  0
 10 12  1  0  0  0
M  END
> <minimizedAffinity>
17.44106

> <CNNscore>
0.5044179559

> <CNNaffinity>
6.2123003006

> <CNN_VS>
3.1335957050

> <CNNaffinity_variance>
0.0796850100

$$$$
[H]c1nc2c([H])c(OC([H])([H])[H])c(OC([H])([H])[H])c([H])c2c(Oc2c([H])c([H])c(N([H])C(=O)N([H])c3c([H])c([H])c([H])c(Cl)c3[H])c([H])c2[H])c1[H]


 34 37  0  0  0  0  0  0  0  0999 V2000
   23.7464    7.5620   54.5053 C   0  0  0  0  0  0  0  0  0  0  0  0
   25.0378    7.2555   54.1749 C   0  0  0  0  0  0  0  0  0  0  0  0
   26.1072    7.8526   54.8018 C   0  0  0  0  0  0  0  0  0  0  0  0
   25.9714    8.7794   55.7825 C   0  0  0  0  0  0  0  0  0  0  0  0
   24.6138    9.1015   56.1251 C   0  0  0  0  0  0  0  0  0  0  0  0
   23.5747    8.5043   55.4997 C   0  0  0  0  0  0  0  0  0  0  0  0
   26.9466    9.3901   56.4955 N   0  0  0  0  0  0  0  0  0  0  0  0
   27.9258   10.0035   57.2112 C   0  0  0  0  0  0  0  0  0  0  0  0
   28.8568   10.7775   56.7629 O   0  0  0  0  0  0  0  0  0  0  0  0
   28.0233    9.8366   58.6447 N   0  0  0  0  0  0  0  0  0  0  0  0
   27.5551    9.8039   55.3577 H   0  0  0  0  0  0  0  0  0  0  0  0
   27.2724    9.1793   59.0379 H   0  0  0  0  0  0  0  0  0  0  0  0
   28.9469   10.4105   59.5053 C   0  0  0  0  0  0  0  0  0  0  0  0
   29.8805    9.5366   60.1081 C   0  0  0  0  0  0  0  0  0  0  0  0
   30.8214    9.9758   60.9979 C   0  0  0  0  0  0  0  0  0  0  0  0
   30.8761   11.3071   61.3295 C   0  0  0  0  0  0  0  0  0  0  0  0
   29.9958   12.2015   60.7764 C   0  0  0  0  0  0  0  0  0  0  0  0
   30.0657   13.8861   61.2037 Cl  0  0  0  0  0  0  0  0  0  0  0  0
   29.0503   11.7181   59.8730 C   0  0  0  0  0  0  0  0  0  0  0  0
   22.7431    6.9365   53.8559 O   0  0  0  0  0  0  0  0  0  0  0  0
   21.3030   11.3954   52.0641 C   0  0  0  0  0  0  0  0  0  0  0  0
   20.6912   10.4051   51.3504 C   0  0  0  0  0  0  0  0  0  0  0  0
   20.8696    9.0522   51.5871 C   0  0  0  0  0  0  0  0  0  0  0  0
   20.2401    8.1251   50.8446 N   0  0  0  0  0  0  0  0  0  0  0  0
   20.3852    6.8009   51.0337 C   0  0  0  0  0  0  0  0  0  0  0  0
   21.2293    6.4289   52.0490 C   0  0  0  0  0  0  0  0  0  0  0  0
   21.9108    7.3580   52.8535 C   0  0  0  0  0  0  0  0  0  0  0  0
   21.7312    8.7068   52.6240 C   0  0  0  0  0  0  0  0  0  0  0  0
   22.3476    9.7100   53.3484 C   0  0  0  0  0  0  0  0  0  0  0  0
   22.1728   11.0597   53.1131 C   0  0  0  0  0  0  0  0  0  0  0  0
   21.9767   13.5262   50.9938 C   0  0  0  0  0  0  0  0  0  0  0  0
   21.1392   12.7556   51.8423 O   0  0  0  0  0  0  0  0  0  0  0  0
   22.7801   12.0704   53.8201 O   0  0  0  0  0  0  0  0  0  0  0  0
   23.4111   11.9391   55.0561 C   0  0  0  0  0  0  0  0  0  0  0  0
 31 32  1  0  0  0
 32 21  1  0  0  0
 21 22  2  0  0  0
 22 23  1  0  0  0
 23 24  2  0  0  0
 24 25  1  0  0  0
 25 26  2  0  0  0
 26 27  1  0  0  0
 27 20  1  0  0  0
 20  1  1  0  0  0
  1  2  2  0  0  0
  2  3  1  0  0  0
  3  4  2  0  0  0
  4  7  1  0  0  0
  7  8  1  0  0  0
  8  9  2  0  0  0
  8 10  1  0  0  0
 10 13  1  0  0  0
 13 14  2  0  0  0
 14 15  1  0  0  0
 15 16  2  0  0  0
 16 17  1  0  0  0
 17 18  1  0  0  0
 17 19  2  0  0  0
  4  5  1  0  0  0
  5  6  2  0  0  0
 27 28  2  0  0  0
 28 29  1  0  0  0
 29 30  2  0  0  0
 30 33  1  0  0  0
 33 34  1  0  0  0
 30 21  1  0  0  0
 28 23  1  0  0  0
  6  1  1  0  0  0
 19 13  1  0  0  0
  7 11  1  0  0  0
 10 12  1  0  0  0
M  END
> <minimizedAffinity>
22.22665

> <CNNscore>
0.4977871776

> <CNNaffinity>
5.9763402939

> <CNN_VS>
2.9749455452

> <CNNaffinity_variance>
0.1295168251

$$$$
[H]c1nc2c([H])c(OC([H])([H])[H])c(OC([H])([H])[H])c([H])c2c(Oc2c([H])c([H])c(N([H])C(=O)N([H])c3c([H])c([H])c([H])c(Cl)c3[H])c([H])c2[H])c1[H]


 34 37  0  0  0  0  0  0  0  0999 V2000
   24.9216    7.2870   54.3140 C   0  0  0  0  0  0  0  0  0  0  0  0
   26.2592    7.3226   54.0306 C   0  0  0  0  0  0  0  0  0  0  0  0
   27.1153    8.1802   54.6823 C   0  0  0  0  0  0  0  0  0  0  0  0
   26.7101    9.0471   55.6433 C   0  0  0  0  0  0  0  0  0  0  0  0
   25.3041    9.0095   55.9366 C   0  0  0  0  0  0  0  0  0  0  0  0
   24.4772    8.1596   55.2874 C   0  0  0  0  0  0  0  0  0  0  0  0
   27.4687    9.8941   56.3779 N   0  0  0  0  0  0  0  0  0  0  0  0
   28.2303   10.7447   57.1152 C   0  0  0  0  0  0  0  0  0  0  0  0
   28.9286   11.7428   56.6875 O   0  0  0  0  0  0  0  0  0  0  0  0
   28.3366   10.6031   58.5508 N   0  0  0  0  0  0  0  0  0  0  0  0
   27.9690   10.4618   55.2539 H   0  0  0  0  0  0  0  0  0  0  0  0
   27.7815    9.7661   58.9275 H   0  0  0  0  0  0  0  0  0  0  0  0
   29.0520   11.4000   59.4318 C   0  0  0  0  0  0  0  0  0  0  0  0
   30.1034   10.7756   60.1413 C   0  0  0  0  0  0  0  0  0  0  0  0
   30.8622   11.4461   61.0603 C   0  0  0  0  0  0  0  0  0  0  0  0
   30.6087   12.7710   61.3162 C   0  0  0  0  0  0  0  0  0  0  0  0
   29.6013   13.4292   60.6583 C   0  0  0  0  0  0  0  0  0  0  0  0
   29.2806   15.1063   60.9897 Cl  0  0  0  0  0  0  0  0  0  0  0  0
   28.8484   12.7140   59.7280 C   0  0  0  0  0  0  0  0  0  0  0  0
   24.1374    6.4189   53.6424 O   0  0  0  0  0  0  0  0  0  0  0  0
   20.9517    9.9026   51.9451 C   0  0  0  0  0  0  0  0  0  0  0  0
   20.2768    8.7311   52.1362 C   0  0  0  0  0  0  0  0  0  0  0  0
   20.8607    7.5643   52.6007 C   0  0  0  0  0  0  0  0  0  0  0  0
   20.1407    6.4408   52.7637 N   0  0  0  0  0  0  0  0  0  0  0  0
   20.6641    5.2833   53.2072 C   0  0  0  0  0  0  0  0  0  0  0  0
   22.0052    5.3026   53.4946 C   0  0  0  0  0  0  0  0  0  0  0  0
   22.8019    6.4501   53.3414 C   0  0  0  0  0  0  0  0  0  0  0  0
   22.2223    7.6158   52.8840 C   0  0  0  0  0  0  0  0  0  0  0  0
   22.9042    8.8033   52.6935 C   0  0  0  0  0  0  0  0  0  0  0  0
   22.3246    9.9676   52.2287 C   0  0  0  0  0  0  0  0  0  0  0  0
   20.7606   11.7137   50.2648 C   0  0  0  0  0  0  0  0  0  0  0  0
   20.3863   11.0815   51.4795 O   0  0  0  0  0  0  0  0  0  0  0  0
   22.9874   11.1555   52.0295 O   0  0  0  0  0  0  0  0  0  0  0  0
   22.4321   12.4297   52.1357 C   0  0  0  0  0  0  0  0  0  0  0  0
 31 32  1  0  0  0
 32 21  1  0  0  0
 21 22  2  0  0  0
 22 23  1  0  0  0
 23 24  2  0  0  0
 24 25  1  0  0  0
 25 26  2  0  0  0
 26 27  1  0  0  0
 27 20  1  0  0  0
 20  1  1  0  0  0
  1  2  2  0  0  0
  2  3  1  0  0  0
  3  4  2  0  0  0
  4  7  1  0  0  0
  7  8  1  0  0  0
  8  9  2  0  0  0
  8 10  1  0  0  0
 10 13  1  0  0  0
 13 14  2  0  0  0
 14 15  1  0  0  0
 15 16  2  0  0  0
 16 17  1  0  0  0
 17 18  1  0  0  0
 17 19  2  0  0  0
  4  5  1  0  0  0
  5  6  2  0  0  0
 27 28  2  0  0  0
 28 29  1  0  0  0
 29 30  2  0  0  0
 30 33  1  0  0  0
 33 34  1  0  0  0
 30 21  1  0  0  0
 28 23  1  0  0  0
  6  1  1  0  0  0
 19 13  1  0  0  0
  7 11  1  0  0  0
 10 12  1  0  0  0
M  END
> <minimizedAffinity>
20.59999

> <CNNscore>
0.4856796265

> <CNNaffinity>
5.9705266953

> <CNN_VS>
2.8997631073

> <CNNaffinity_variance>
0.1184188128

$$$$
[H]c1nc2c([H])c(OC([H])([H])[H])c(OC([H])([H])[H])c([H])c2c(Oc2c([H])c([H])c(N([H])C(=O)N([H])c3c([H])c([H])c([H])c(Cl)c3[H])c([H])c2[H])c1[H]


 34 37  0  0  0  0  0  0  0  0999 V2000
   24.4581    8.9281   54.9578 C   0  0  0  0  0  0  0  0  0  0  0  0
   23.2855    9.4198   55.4618 C   0  0  0  0  0  0  0  0  0  0  0  0
   22.0661    8.8891   55.1088 C   0  0  0  0  0  0  0  0  0  0  0  0
   21.9285    7.8520   54.2458 C   0  0  0  0  0  0  0  0  0  0  0  0
   23.1618    7.3397   53.7158 C   0  0  0  0  0  0  0  0  0  0  0  0
   24.3514    7.8725   54.0744 C   0  0  0  0  0  0  0  0  0  0  0  0
   20.7899    7.2243   53.8691 N   0  0  0  0  0  0  0  0  0  0  0  0
   19.6466    6.5942   53.4906 C   0  0  0  0  0  0  0  0  0  0  0  0
   18.8356    6.9410   52.5479 O   0  0  0  0  0  0  0  0  0  0  0  0
   19.1999    5.3890   54.1541 N   0  0  0  0  0  0  0  0  0  0  0  0
   20.4727    8.2444   53.0356 H   0  0  0  0  0  0  0  0  0  0  0  0
   19.8472    5.0928   54.9565 H   0  0  0  0  0  0  0  0  0  0  0  0
   18.0755    4.6294   53.8680 C   0  0  0  0  0  0  0  0  0  0  0  0
   16.8300    5.1635   54.2706 C   0  0  0  0  0  0  0  0  0  0  0  0
   15.6525    4.4969   54.0730 C   0  0  0  0  0  0  0  0  0  0  0  0
   15.6605    3.2659   53.4650 C   0  0  0  0  0  0  0  0  0  0  0  0
   16.8390    2.6979   53.0532 C   0  0  0  0  0  0  0  0  0  0  0  0
   16.8446    1.1358   52.2883 Cl  0  0  0  0  0  0  0  0  0  0  0  0
   18.0200    3.4062   53.2709 C   0  0  0  0  0  0  0  0  0  0  0  0
   25.6203    9.4903   55.3487 O   0  0  0  0  0  0  0  0  0  0  0  0
   29.1853    9.1583   58.8624 C   0  0  0  0  0  0  0  0  0  0  0  0
   29.6487    8.6141   57.6990 C   0  0  0  0  0  0  0  0  0  0  0  0
   28.9146    8.5447   56.5266 C   0  0  0  0  0  0  0  0  0  0  0  0
   29.4277    7.9917   55.4139 N   0  0  0  0  0  0  0  0  0  0  0  0
   28.7522    7.8976   54.2541 C   0  0  0  0  0  0  0  0  0  0  0  0
   27.4787    8.4073   54.2587 C   0  0  0  0  0  0  0  0  0  0  0  0
   26.8962    8.9950   55.3946 C   0  0  0  0  0  0  0  0  0  0  0  0
   27.6267    9.0707   56.5628 C   0  0  0  0  0  0  0  0  0  0  0  0
   27.1594    9.6246   57.7402 C   0  0  0  0  0  0  0  0  0  0  0  0
   27.8888    9.6932   58.9111 C   0  0  0  0  0  0  0  0  0  0  0  0
   29.4461    9.9147   61.2076 C   0  0  0  0  0  0  0  0  0  0  0  0
   29.9034    9.2362   60.0476 O   0  0  0  0  0  0  0  0  0  0  0  0
   27.4394   10.2364   60.0914 O   0  0  0  0  0  0  0  0  0  0  0  0
   27.7118   11.5220   60.5562 C   0  0  0  0  0  0  0  0  0  0  0  0
 31 32  1  0  0  0
 32 21  1  0  0  0
 21 22  2  0  0  0
 22 23  1  0  0  0
 23 24  2  0  0  0
 24 25  1  0  0  0
 25 26  2  0  0  0
 26 27  1  0  0  0
 27 20  1  0  0  0
 20  1  1  0  0  0
  1  2  2  0  0  0
  2  3  1  0  0  0
  3  4  2  0  0  0
  4  7  1  0  0  0
  7  8  1  0  0  0
  8  9  2  0  0  0
  8 10  1  0  0  0
 10 13  1  0  0  0
 13 14  2  0  0  0
 14 15  1  0  0  0
 15 16  2  0  0  0
 16 17  1  0  0  0
 17 18  1  0  0  0
 17 19  2  0  0  0
  4  5  1  0  0  0
  5  6  2  0  0  0
 27 28  2  0  0  0
 28 29  1  0  0  0
 29 30  2  0  0  0
 30 33  1  0  0  0
 33 34  1  0  0  0
 30 21  1  0  0  0
 28 23  1  0  0  0
  6  1  1  0  0  0
 19 13  1  0  0  0
  7 11  1  0  0  0
 10 12  1  0  0  0
M  END
> <minimizedAffinity>
34.41491

> <CNNscore>
0.4603687227

> <CNNaffinity>
6.0937099457

> <CNN_VS>
2.8053534031

> <CNNaffinity_variance>
0.1083542854

$$$$
[H]c1nc2c([H])c(OC([H])([H])[H])c(OC([H])([H])[H])c([H])c2c(Oc2c([H])c([H])c(N([H])C(=O)N([H])c3c([H])c([H])c([H])c(Cl)c3[H])c([H])c2[H])c1[H]


 34 37  0  0  0  0  0  0  0  0999 V2000
   24.4965    8.7167   55.2238 C   0  0  0  0  0  0  0  0  0  0  0  0
   24.6526    7.5207   54.5787 C   0  0  0  0  0  0  0  0  0  0  0  0
   23.5747    6.7989   54.1200 C   0  0  0  0  0  0  0  0  0  0  0  0
   22.2898    7.2067   54.2675 C   0  0  0  0  0  0  0  0  0  0  0  0
   22.1289    8.4618   54.9482 C   0  0  0  0  0  0  0  0  0  0  0  0
   23.1992    9.1586   55.3914 C   0  0  0  0  0  0  0  0  0  0  0  0
   21.1651    6.6042   53.8154 N   0  0  0  0  0  0  0  0  0  0  0  0
   20.0358    5.9994   53.3612 C   0  0  0  0  0  0  0  0  0  0  0  0
   19.3012    6.3594   52.3625 O   0  0  0  0  0  0  0  0  0  0  0  0
   19.5144    4.8099   53.9979 N   0  0  0  0  0  0  0  0  0  0  0  0
   20.9320    7.6260   52.9566 H   0  0  0  0  0  0  0  0  0  0  0  0
   20.0968    4.5035   54.8451 H   0  0  0  0  0  0  0  0  0  0  0  0
   18.3943    4.0759   53.6379 C   0  0  0  0  0  0  0  0  0  0  0  0
   18.6213    2.8987   52.8887 C   0  0  0  0  0  0  0  0  0  0  0  0
   17.5979    2.1059   52.4481 C   0  0  0  0  0  0  0  0  0  0  0  0
   16.2994    2.4492   52.7330 C   0  0  0  0  0  0  0  0  0  0  0  0
   16.0184    3.5801   53.4561 C   0  0  0  0  0  0  0  0  0  0  0  0
   14.3716    4.0136   53.8100 Cl  0  0  0  0  0  0  0  0  0  0  0  0
   17.0868    4.3643   53.8891 C   0  0  0  0  0  0  0  0  0  0  0  0
   25.5950    9.3771   55.6441 O   0  0  0  0  0  0  0  0  0  0  0  0
   29.1912    9.2101   59.1376 C   0  0  0  0  0  0  0  0  0  0  0  0
   29.7045    8.7912   57.9436 C   0  0  0  0  0  0  0  0  0  0  0  0
   28.9765    8.7166   56.7678 C   0  0  0  0  0  0  0  0  0  0  0  0
   29.5404    8.2911   55.6240 N   0  0  0  0  0  0  0  0  0  0  0  0
   28.8734    8.1974   54.4593 C   0  0  0  0  0  0  0  0  0  0  0  0
   27.5529    8.5673   54.4929 C   0  0  0  0  0  0  0  0  0  0  0  0
   26.9165    9.0185   55.6617 C   0  0  0  0  0  0  0  0  0  0  0  0
   27.6402    9.0993   56.8339 C   0  0  0  0  0  0  0  0  0  0  0  0
   27.1221    9.5266   58.0423 C   0  0  0  0  0  0  0  0  0  0  0  0
   27.8455    9.6000   59.2167 C   0  0  0  0  0  0  0  0  0  0  0  0
   30.3396    8.1606   61.0662 C   0  0  0  0  0  0  0  0  0  0  0  0
   29.9025    9.2907   60.3267 O   0  0  0  0  0  0  0  0  0  0  0  0
   27.3463   10.0184   60.4275 O   0  0  0  0  0  0  0  0  0  0  0  0
   27.7833   11.1249   61.1540 C   0  0  0  0  0  0  0  0  0  0  0  0
 31 32  1  0  0  0
 32 21  1  0  0  0
 21 22  2  0  0  0
 22 23  1  0  0  0
 23 24  2  0  0  0
 24 25  1  0  0  0
 25 26  2  0  0  0
 26 27  1  0  0  0
 27 20  1  0  0  0
 20  1  1  0  0  0
  1  2  2  0  0  0
  2  3  1  0  0  0
  3  4  2  0  0  0
  4  7  1  0  0  0
  7  8  1  0  0  0
  8  9  2  0  0  0
  8 10  1  0  0  0
 10 13  1  0  0  0
 13 14  2  0  0  0
 14 15  1  0  0  0
 15 16  2  0  0  0
 16 17  1  0  0  0
 17 18  1  0  0  0
 17 19  2  0  0  0
  4  5  1  0  0  0
  5  6  2  0  0  0
 27 28  2  0  0  0
 28 29  1  0  0  0
 29 30  2  0  0  0
 30 33  1  0  0  0
 33 34  1  0  0  0
 30 21  1  0  0  0
 28 23  1  0  0  0
  6  1  1  0  0  0
 19 13  1  0  0  0
  7 11  1  0  0  0
 10 12  1  0  0  0
M  END
> <minimizedAffinity>
30.55715

> <CNNscore>
0.4523324072

> <CNNaffinity>
6.1512556076

> <CNN_VS>
2.7824122906

> <CNNaffinity_variance>
0.0668982714

$$$$
[H]c1nc2c([H])c(OC([H])([H])[H])c(OC([H])([H])[H])c([H])c2c(Oc2c([H])c([H])c(N([H])C(=O)N([H])c3c([H])c([H])c([H])c(Cl)c3[H])c([H])c2[H])c1[H]


 34 37  0  0  0  0  0  0  0  0999 V2000
   25.2645    7.0922   54.3767 C   0  0  0  0  0  0  0  0  0  0  0  0
   24.3240    8.0011   54.7768 C   0  0  0  0  0  0  0  0  0  0  0  0
   22.9838    7.8141   54.5276 C   0  0  0  0  0  0  0  0  0  0  0  0
   22.4929    6.7313   53.8752 C   0  0  0  0  0  0  0  0  0  0  0  0
   23.4836    5.7799   53.4536 C   0  0  0  0  0  0  0  0  0  0  0  0
   24.7964    5.9789   53.7077 C   0  0  0  0  0  0  0  0  0  0  0  0
   21.1991    6.4247   53.6212 N   0  0  0  0  0  0  0  0  0  0  0  0
   19.9001    6.1169   53.3659 C   0  0  0  0  0  0  0  0  0  0  0  0
   19.1012    6.7095   52.5429 O   0  0  0  0  0  0  0  0  0  0  0  0
   19.2439    5.0173   54.0386 N   0  0  0  0  0  0  0  0  0  0  0  0
   21.0553    7.5418   52.8680 H   0  0  0  0  0  0  0  0  0  0  0  0
   19.8823    4.5223   54.7444 H   0  0  0  0  0  0  0  0  0  0  0  0
   17.9411    4.5738   53.8683 C   0  0  0  0  0  0  0  0  0  0  0  0
   16.9130    5.5012   54.1540 C   0  0  0  0  0  0  0  0  0  0  0  0
   15.5886    5.1756   54.0542 C   0  0  0  0  0  0  0  0  0  0  0  0
   15.2261    3.9097   53.6651 C   0  0  0  0  0  0  0  0  0  0  0  0
   16.1800    2.9680   53.3751 C   0  0  0  0  0  0  0  0  0  0  0  0
   15.7157    1.3641   52.8879 Cl  0  0  0  0  0  0  0  0  0  0  0  0
   17.5202    3.3354   53.4877 C   0  0  0  0  0  0  0  0  0  0  0  0
   26.5619    7.3328   54.6570 O   0  0  0  0  0  0  0  0  0  0  0  0
   28.7635   10.5156   57.8489 C   0  0  0  0  0  0  0  0  0  0  0  0
   29.0094   10.9211   56.5683 C   0  0  0  0  0  0  0  0  0  0  0  0
   28.5439   10.2636   55.4418 C   0  0  0  0  0  0  0  0  0  0  0  0
   28.8248   10.7125   54.2061 N   0  0  0  0  0  0  0  0  0  0  0  0
   28.3993   10.1059   53.0831 C   0  0  0  0  0  0  0  0  0  0  0  0
   27.6428    8.9756   53.2616 C   0  0  0  0  0  0  0  0  0  0  0  0
   27.3213    8.4654   54.5309 C   0  0  0  0  0  0  0  0  0  0  0  0
   27.7788    9.1209   55.6556 C   0  0  0  0  0  0  0  0  0  0  0  0
   27.5275    8.7130   56.9524 C   0  0  0  0  0  0  0  0  0  0  0  0
   27.9922    9.3658   58.0774 C   0  0  0  0  0  0  0  0  0  0  0  0
   28.5865   12.2870   59.5725 C   0  0  0  0  0  0  0  0  0  0  0  0
   29.2215   11.1586   58.9904 O   0  0  0  0  0  0  0  0  0  0  0  0
   27.7557    8.9727   59.3735 O   0  0  0  0  0  0  0  0  0  0  0  0
   28.7083    8.8799   60.3868 C   0  0  0  0  0  0  0  0  0  0  0  0
 31 32  1  0  0  0
 32 21  1  0  0  0
 21 22  2  0  0  0
 22 23  1  0  0  0
 23 24  2  0  0  0
 24 25  1  0  0  0
 25 26  2  0  0  0
 26 27  1  0  0  0
 27 20  1  0  0  0
 20  1  1  0  0  0
  1  2  2  0  0  0
  2  3  1  0  0  0
  3  4  2  0  0  0
  4  7  1  0  0  0
  7  8  1  0  0  0
  8  9  2  0  0  0
  8 10  1  0  0  0
 10 13  1  0  0  0
 13 14  2  0  0  0
 14 15  1  0  0  0
 15 16  2  0  0  0
 16 17  1  0  0  0
 17 18  1  0  0  0
 17 19  2  0  0  0
  4  5  1  0  0  0
  5  6  2  0  0  0
 27 28  2  0  0  0
 28 29  1  0  0  0
 29 30  2  0  0  0
 30 33  1  0  0  0
 33 34  1  0  0  0
 30 21  1  0  0  0
 28 23  1  0  0  0
  6  1  1  0  0  0
 19 13  1  0  0  0
  7 11  1  0  0  0
 10 12  1  0  0  0
M  END
> <minimizedAffinity>
33.03885

> <CNNscore>
0.4098598361

> <CNNaffinity>
5.9138860703

> <CNN_VS>
2.4238643646

> <CNNaffinity_variance>
0.1668931842

$$$$
[H]c1nc2c([H])c(OC([H])([H])[H])c(OC([H])([H])[H])c([H])c2c(Oc2c([H])c([H])c(N([H])C(=O)N([H])c3c([H])c([H])c([H])c(Cl)c3[H])c([H])c2[H])c1[H]


 34 37  0  0  0  0  0  0  0  0999 V2000
   25.7702    7.0812   54.3964 C   0  0  0  0  0  0  0  0  0  0  0  0
   24.8495    8.0779   54.2238 C   0  0  0  0  0  0  0  0  0  0  0  0
   23.5253    7.8047   53.9687 C   0  0  0  0  0  0  0  0  0  0  0  0
   23.0319    6.5455   53.8686 C   0  0  0  0  0  0  0  0  0  0  0  0
   24.0020    5.5008   54.0474 C   0  0  0  0  0  0  0  0  0  0  0  0
   25.2991    5.7871   54.2985 C   0  0  0  0  0  0  0  0  0  0  0  0
   21.7481    6.1647   53.6708 N   0  0  0  0  0  0  0  0  0  0  0  0
   20.4589    5.7825   53.4719 C   0  0  0  0  0  0  0  0  0  0  0  0
   19.4733    6.5208   53.0845 O   0  0  0  0  0  0  0  0  0  0  0  0
   20.0402    4.4152   53.6895 N   0  0  0  0  0  0  0  0  0  0  0  0
   21.3673    7.4521   53.4876 H   0  0  0  0  0  0  0  0  0  0  0  0
   20.8385    3.7865   54.0333 H   0  0  0  0  0  0  0  0  0  0  0  0
   18.7754    3.8759   53.5097 C   0  0  0  0  0  0  0  0  0  0  0  0
   18.6680    2.8006   52.5982 C   0  0  0  0  0  0  0  0  0  0  0  0
   17.4714    2.2039   52.3119 C   0  0  0  0  0  0  0  0  0  0  0  0
   16.3246    2.6511   52.9203 C   0  0  0  0  0  0  0  0  0  0  0  0
   16.3676    3.6910   53.8134 C   0  0  0  0  0  0  0  0  0  0  0  0
   14.9114    4.2575   54.5776 Cl  0  0  0  0  0  0  0  0  0  0  0  0
   17.6050    4.2751   54.0812 C   0  0  0  0  0  0  0  0  0  0  0  0
   27.0521    7.4167   54.6490 O   0  0  0  0  0  0  0  0  0  0  0  0
   28.7552   10.6033   58.1290 C   0  0  0  0  0  0  0  0  0  0  0  0
   29.0166   11.1105   56.8884 C   0  0  0  0  0  0  0  0  0  0  0  0
   28.6759   10.4802   55.7032 C   0  0  0  0  0  0  0  0  0  0  0  0
   28.9655   11.0314   54.5117 N   0  0  0  0  0  0  0  0  0  0  0  0
   28.6590   10.4555   53.3350 C   0  0  0  0  0  0  0  0  0  0  0  0
   28.0181    9.2449   53.4085 C   0  0  0  0  0  0  0  0  0  0  0  0
   27.6932    8.6266   54.6279 C   0  0  0  0  0  0  0  0  0  0  0  0
   28.0262    9.2542   55.8108 C   0  0  0  0  0  0  0  0  0  0  0  0
   27.7589    8.7429   57.0671 C   0  0  0  0  0  0  0  0  0  0  0  0
   28.0993    9.3686   58.2505 C   0  0  0  0  0  0  0  0  0  0  0  0
   28.4964   12.4204   59.7936 C   0  0  0  0  0  0  0  0  0  0  0  0
   29.0892   11.2175   59.3279 O   0  0  0  0  0  0  0  0  0  0  0  0
   27.8452    8.8736   59.5077 O   0  0  0  0  0  0  0  0  0  0  0  0
   28.7038    8.0748   60.2612 C   0  0  0  0  0  0  0  0  0  0  0  0
 31 32  1  0  0  0
 32 21  1  0  0  0
 21 22  2  0  0  0
 22 23  1  0  0  0
 23 24  2  0  0  0
 24 25  1  0  0  0
 25 26  2  0  0  0
 26 27  1  0  0  0
 27 20  1  0  0  0
 20  1  1  0  0  0
  1  2  2  0  0  0
  2  3  1  0  0  0
  3  4  2  0  0  0
  4  7  1  0  0  0
  7  8  1  0  0  0
  8  9  2  0  0  0
  8 10  1  0  0  0
 10 13  1  0  0  0
 13 14  2  0  0  0
 14 15  1  0  0  0
 15 16  2  0  0  0
 16 17  1  0  0  0
 17 18  1  0  0  0
 17 19  2  0  0  0
  4  5  1  0  0  0
  5  6  2  0  0  0
 27 28  2  0  0  0
 28 29  1  0  0  0
 29 30  2  0  0  0
 30 33  1  0  0  0
 33 34  1  0  0  0
 30 21  1  0  0  0
 28 23  1  0  0  0
  6  1  1  0  0  0
 19 13  1  0  0  0
  7 11  1  0  0  0
 10 12  1  0  0  0
M  END
> <minimizedAffinity>
33.60607

> <CNNscore>
0.4053560793

> <CNNaffinity>
5.9696869850

> <CNN_VS>
2.4198489189

> <CNNaffinity_variance>
0.1050675139

$$$$
[H]c1nc2c([H])c(OC([H])([H])[H])c(OC([H])([H])[H])c([H])c2c(Oc2c([H])c([H])c(N([H])C(=O)N([H])c3c([H])c([H])c([H])c(Cl)c3[H])c([H])c2[H])c1[H]


 34 37  0  0  0  0  0  0  0  0999 V2000
   23.0784    8.7951   54.5507 C   0  0  0  0  0  0  0  0  0  0  0  0
   22.8399    8.3877   53.2670 C   0  0  0  0  0  0  0  0  0  0  0  0
   23.8328    8.3755   52.3145 C   0  0  0  0  0  0  0  0  0  0  0  0
   25.1087    8.7605   52.5657 C   0  0  0  0  0  0  0  0  0  0  0  0
   25.3553    9.1908   53.9142 C   0  0  0  0  0  0  0  0  0  0  0  0
   24.3682    9.1954   54.8378 C   0  0  0  0  0  0  0  0  0  0  0  0
   26.1679    8.7423   51.7230 N   0  0  0  0  0  0  0  0  0  0  0  0
   27.2316    8.7239   50.8770 C   0  0  0  0  0  0  0  0  0  0  0  0
   28.4465    8.3852   51.1525 O   0  0  0  0  0  0  0  0  0  0  0  0
   27.0926    9.1076   49.4893 N   0  0  0  0  0  0  0  0  0  0  0  0
   27.0140    8.4893   52.7506 H   0  0  0  0  0  0  0  0  0  0  0  0
   26.0950    9.4143   49.2415 H   0  0  0  0  0  0  0  0  0  0  0  0
   28.0737    9.1193   48.5095 C   0  0  0  0  0  0  0  0  0  0  0  0
   28.8014    7.9212   48.3261 C   0  0  0  0  0  0  0  0  0  0  0  0
   29.8139    7.8153   47.4131 C   0  0  0  0  0  0  0  0  0  0  0  0
   30.1496    8.8989   46.6397 C   0  0  0  0  0  0  0  0  0  0  0  0
   29.4785   10.0875   46.7737 C   0  0  0  0  0  0  0  0  0  0  0  0
   29.9110   11.4591   45.7954 Cl  0  0  0  0  0  0  0  0  0  0  0  0
   28.4519   10.1588   47.7143 C   0  0  0  0  0  0  0  0  0  0  0  0
   22.0622    8.7781   55.4377 O   0  0  0  0  0  0  0  0  0  0  0  0
   20.4387   13.0146   53.2973 C   0  0  0  0  0  0  0  0  0  0  0  0
   19.7155   12.7779   54.4311 C   0  0  0  0  0  0  0  0  0  0  0  0
   19.9088   11.6878   55.2631 C   0  0  0  0  0  0  0  0  0  0  0  0
   19.1592   11.5093   56.3647 N   0  0  0  0  0  0  0  0  0  0  0  0
   19.3068   10.4649   57.2000 C   0  0  0  0  0  0  0  0  0  0  0  0
   20.2864    9.5642   56.8669 C   0  0  0  0  0  0  0  0  0  0  0  0
   21.0965    9.7048   55.7273 C   0  0  0  0  0  0  0  0  0  0  0  0
   20.9103   10.7926   54.8990 C   0  0  0  0  0  0  0  0  0  0  0  0
   21.6444   11.0348   53.7528 C   0  0  0  0  0  0  0  0  0  0  0  0
   21.4522   12.1201   52.9204 C   0  0  0  0  0  0  0  0  0  0  0  0
   19.5157   15.2581   52.7927 C   0  0  0  0  0  0  0  0  0  0  0  0
   20.2600   14.0990   52.4497 O   0  0  0  0  0  0  0  0  0  0  0  0
   22.1694   12.3747   51.7755 O   0  0  0  0  0  0  0  0  0  0  0  0
   21.8186   11.9793   50.4856 C   0  0  0  0  0  0  0  0  0  0  0  0
 31 32  1  0  0  0
 32 21  1  0  0  0
 21 22  2  0  0  0
 22 23  1  0  0  0
 23 24  2  0  0  0
 24 25  1  0  0  0
 25 26  2  0  0  0
 26 27  1  0  0  0
 27 20  1  0  0  0
 20  1  1  0  0  0
  1  2  2  0  0  0
  2  3  1  0  0  0
  3  4  2  0  0  0
  4  7  1  0  0  0
  7  8  1  0  0  0
  8  9  2  0  0  0
  8 10  1  0  0  0
 10 13  1  0  0  0
 13 14  2  0  0  0
 14 15  1  0  0  0
 15 16  2  0  0  0
 16 17  1  0  0  0
 17 18  1  0  0  0
 17 19  2  0  0  0
  4  5  1  0  0  0
  5  6  2  0  0  0
 27 28  2  0  0  0
 28 29  1  0  0  0
 29 30  2  0  0  0
 30 33  1  0  0  0
 33 34  1  0  0  0
 30 21  1  0  0  0
 28 23  1  0  0  0
  6  1  1  0  0  0
 19 13  1  0  0  0
  7 11  1  0  0  0
 10 12  1  0  0  0
M  END
> <minimizedAffinity>
81.23981

> <CNNscore>
0.3273839951

> <CNNaffinity>
5.0632309914

> <CNN_VS>
1.6576207876

> <CNNaffinity_variance>
0.1443584859

$$$$
[H]c1c([H])c([H])c2c(c1[H])C([H])([H])N(C1([H])C([H])([H])C([H])([H])N(C(=O)c3c([H])c(OC([H])([H])[H])c(OC([H])([H])[H])c(OC([H])([H])[H])c3[H])C([H])([H])C1([H])[H])C([H])([H])C2([H])[H]


 30 33  0  0  0  0  0  0  0  0999 V2000
   23.4218    9.4939   54.9766 C   0  0  0  0  0  0  0  0  0  0  0  0
   23.1157   10.7276   54.6610 O   0  0  0  0  0  0  0  0  0  0  0  0
   22.3581    8.6253   55.1913 N   0  0  0  0  0  0  0  0  0  0  0  0
   22.3256    7.2562   55.5648 C   0  0  0  0  0  0  0  0  0  0  0  0
   20.9297    6.8073   56.0223 C   0  0  0  0  0  0  0  0  0  0  0  0
   19.8588    7.1060   55.0332 C   0  0  0  0  0  0  0  0  0  0  0  0
   20.3041    8.1988   54.0585 C   0  0  0  0  0  0  0  0  0  0  0  0
   21.0031    9.2189   54.9871 C   0  0  0  0  0  0  0  0  0  0  0  0
   19.4261    5.9454   54.3432 N   0  0  0  0  0  0  0  0  0  0  0  0
   20.2451    5.7094   53.1902 C   0  0  0  0  0  0  0  0  0  0  0  0
   20.2484    4.2310   52.8439 C   0  0  0  0  0  0  0  0  0  0  0  0
   18.8512    3.7130   52.9749 C   0  0  0  0  0  0  0  0  0  0  0  0
   18.6098    2.4440   52.4727 C   0  0  0  0  0  0  0  0  0  0  0  0
   17.3383    1.9077   52.5614 C   0  0  0  0  0  0  0  0  0  0  0  0
   16.3013    2.5856   53.1299 C   0  0  0  0  0  0  0  0  0  0  0  0
   16.5717    3.8579   53.6263 C   0  0  0  0  0  0  0  0  0  0  0  0
   17.8305    4.4071   53.5464 C   0  0  0  0  0  0  0  0  0  0  0  0
   18.0475    5.7725   54.0983 C   0  0  0  0  0  0  0  0  0  0  0  0
   26.9106    8.6433   53.8888 C   0  0  0  0  0  0  0  0  0  0  0  0
   25.5700    8.8842   53.8985 C   0  0  0  0  0  0  0  0  0  0  0  0
   24.8459    9.2760   55.0417 C   0  0  0  0  0  0  0  0  0  0  0  0
   25.6041    9.3998   56.1718 C   0  0  0  0  0  0  0  0  0  0  0  0
   26.9810    9.1697   56.2351 C   0  0  0  0  0  0  0  0  0  0  0  0
   27.6073    8.7897   55.0649 C   0  0  0  0  0  0  0  0  0  0  0  0
   27.6241    9.1555   51.6581 C   0  0  0  0  0  0  0  0  0  0  0  0
   27.5940    8.2606   52.7524 O   0  0  0  0  0  0  0  0  0  0  0  0
   27.7068    9.3090   57.4081 O   0  0  0  0  0  0  0  0  0  0  0  0
   28.2012   10.5994   57.7148 C   0  0  0  0  0  0  0  0  0  0  0  0
   28.9793    8.5531   55.0934 O   0  0  0  0  0  0  0  0  0  0  0  0
   29.5665    7.4323   54.4700 C   0  0  0  0  0  0  0  0  0  0  0  0
 25 26  1  0  0  0
 26 19  1  0  0  0
 19 20  2  0  0  0
 20 21  1  0  0  0
 21 22  2  0  0  0
 22 23  1  0  0  0
 23 27  1  0  0  0
 27 28  1  0  0  0
 23 24  2  0  0  0
 24 29  1  0  0  0
 29 30  1  0  0  0
 21  1  1  0  0  0
  1  2  2  0  0  0
  1  3  1  0  0  0
  3  4  1  0  0  0
  4  5  1  0  0  0
  5  6  1  0  0  0
  6  7  1  0  0  0
  7  8  1  0  0  0
  6  9  1  0  0  0
  9 10  1  0  0  0
 10 11  1  0  0  0
 11 12  1  0  0  0
 12 13  2  0  0  0
 13 14  1  0  0  0
 14 15  2  0  0  0
 15 16  1  0  0  0
 16 17  2  0  0  0
 17 18  1  0  0  0
 24 19  1  0  0  0
  8  3  1  0  0  0
 18  9  1  0  0  0
 17 12  1  0  0  0
M  END
> <minimizedAffinity>
44.59930

> <CNNscore>
0.4866363406

> <CNNaffinity>
5.5527563095

> <CNN_VS>
2.7021729946

> <CNNaffinity_variance>
0.6003186703

$$$$
[H]c1c([H])c([H])c2c(c1[H])C([H])([H])N(C1([H])C([H])([H])C([H])([H])N(C(=O)c3c([H])c(OC([H])([H])[H])c(OC([H])([H])[H])c(OC([H])([H])[H])c3[H])C([H])([H])C1([H])[H])C([H])([H])C2([H])[H]


 30 33  0  0  0  0  0  0  0  0999 V2000
   24.8027    8.7970   53.2373 C   0  0  0  0  0  0  0  0  0  0  0  0
   25.2308    9.0934   52.0355 O   0  0  0  0  0  0  0  0  0  0  0  0
   23.4347    8.5948   53.3772 N   0  0  0  0  0  0  0  0  0  0  0  0
   22.6429    8.2903   54.5154 C   0  0  0  0  0  0  0  0  0  0  0  0
   21.1433    8.5015   54.2587 C   0  0  0  0  0  0  0  0  0  0  0  0
   20.6403    7.7753   53.0613 C   0  0  0  0  0  0  0  0  0  0  0  0
   21.7900    7.4148   52.1175 C   0  0  0  0  0  0  0  0  0  0  0  0
   22.6448    8.7036   52.1145 C   0  0  0  0  0  0  0  0  0  0  0  0
   19.8800    6.6299   53.4079 N   0  0  0  0  0  0  0  0  0  0  0  0
   20.5424    5.4345   52.9740 C   0  0  0  0  0  0  0  0  0  0  0  0
   20.1378    4.2635   53.8518 C   0  0  0  0  0  0  0  0  0  0  0  0
   18.6632    4.3409   54.0908 C   0  0  0  0  0  0  0  0  0  0  0  0
   18.0692    3.2314   54.6713 C   0  0  0  0  0  0  0  0  0  0  0  0
   16.7084    3.2388   54.9175 C   0  0  0  0  0  0  0  0  0  0  0  0
   15.9194    4.3065   54.6083 C   0  0  0  0  0  0  0  0  0  0  0  0
   16.5419    5.4075   54.0264 C   0  0  0  0  0  0  0  0  0  0  0  0
   17.8943    5.4174   53.7742 C   0  0  0  0  0  0  0  0  0  0  0  0
   18.4930    6.6290   53.1500 C   0  0  0  0  0  0  0  0  0  0  0  0
   26.7015    9.3487   56.4261 C   0  0  0  0  0  0  0  0  0  0  0  0
   25.7320    9.3475   55.4694 C   0  0  0  0  0  0  0  0  0  0  0  0
   25.8692    8.7388   54.2063 C   0  0  0  0  0  0  0  0  0  0  0  0
   27.0774    8.1338   54.0024 C   0  0  0  0  0  0  0  0  0  0  0  0
   28.1156    8.0955   54.9371 C   0  0  0  0  0  0  0  0  0  0  0  0
   27.8913    8.7184   56.1487 C   0  0  0  0  0  0  0  0  0  0  0  0
   27.4170   11.0054   58.0043 C   0  0  0  0  0  0  0  0  0  0  0  0
   26.5386    9.9536   57.6559 O   0  0  0  0  0  0  0  0  0  0  0  0
   29.3251    7.4677   54.6822 O   0  0  0  0  0  0  0  0  0  0  0  0
   29.3557    6.5233   53.6284 C   0  0  0  0  0  0  0  0  0  0  0  0
   28.9056    8.6981   57.1027 O   0  0  0  0  0  0  0  0  0  0  0  0
   28.6512    8.4753   58.4721 C   0  0  0  0  0  0  0  0  0  0  0  0
 25 26  1  0  0  0
 26 19  1  0  0  0
 19 20  2  0  0  0
 20 21  1  0  0  0
 21 22  2  0  0  0
 22 23  1  0  0  0
 23 27  1  0  0  0
 27 28  1  0  0  0
 23 24  2  0  0  0
 24 29  1  0  0  0
 29 30  1  0  0  0
 21  1  1  0  0  0
  1  2  2  0  0  0
  1  3  1  0  0  0
  3  4  1  0  0  0
  4  5  1  0  0  0
  5  6  1  0  0  0
  6  7  1  0  0  0
  7  8  1  0  0  0
  6  9  1  0  0  0
  9 10  1  0  0  0
 10 11  1  0  0  0
 11 12  1  0  0  0
 12 13  2  0  0  0
 13 14  1  0  0  0
 14 15  2  0  0  0
 15 16  1  0  0  0
 16 17  2  0  0  0
 17 18  1  0  0  0
 24 19  1  0  0  0
  8  3  1  0  0  0
 18  9  1  0  0  0
 17 12  1  0  0  0
M  END
> <minimizedAffinity>
38.60023

> <CNNscore>
0.4742164314

> <CNNaffinity>
5.6061182022

> <CNN_VS>
2.6585133076

> <CNNaffinity_variance>
0.5599079728

$$$$
[H]c1c([H])c([H])c2c(c1[H])C([H])([H])N(C1([H])C([H])([H])C([H])([H])N(C(=O)c3c([H])c(OC([H])([H])[H])c(OC([H])([H])[H])c(OC([H])([H])[H])c3[H])C([H])([H])C1([H])[H])C([H])([H])C2([H])[H]


 30 33  0  0  0  0  0  0  0  0999 V2000
   24.7603    8.7914   53.2554 C   0  0  0  0  0  0  0  0  0  0  0  0
   25.2211    9.0361   52.0541 O   0  0  0  0  0  0  0  0  0  0  0  0
   23.3898    8.5875   53.3656 N   0  0  0  0  0  0  0  0  0  0  0  0
   22.5674    8.3295   54.4935 C   0  0  0  0  0  0  0  0  0  0  0  0
   21.0747    8.5200   54.1853 C   0  0  0  0  0  0  0  0  0  0  0  0
   20.6095    7.7378   53.0081 C   0  0  0  0  0  0  0  0  0  0  0  0
   21.7873    7.3422   52.1143 C   0  0  0  0  0  0  0  0  0  0  0  0
   22.6357    8.6347   52.0775 C   0  0  0  0  0  0  0  0  0  0  0  0
   19.8451    6.6046   53.3842 N   0  0  0  0  0  0  0  0  0  0  0  0
   20.5018    5.3960   52.9791 C   0  0  0  0  0  0  0  0  0  0  0  0
   20.0938    4.2488   53.8863 C   0  0  0  0  0  0  0  0  0  0  0  0
   18.6199    4.3383   54.1257 C   0  0  0  0  0  0  0  0  0  0  0  0
   18.0223    3.2460   54.7345 C   0  0  0  0  0  0  0  0  0  0  0  0
   16.6620    3.2653   54.9826 C   0  0  0  0  0  0  0  0  0  0  0  0
   15.8770    4.3282   54.6483 C   0  0  0  0  0  0  0  0  0  0  0  0
   16.5030    5.4119   54.0383 C   0  0  0  0  0  0  0  0  0  0  0  0
   17.8550    5.4098   53.7837 C   0  0  0  0  0  0  0  0  0  0  0  0
   18.4576    6.6031   53.1287 C   0  0  0  0  0  0  0  0  0  0  0  0
   28.0124    8.0039   54.9531 C   0  0  0  0  0  0  0  0  0  0  0  0
   26.9971    8.0717   54.0477 C   0  0  0  0  0  0  0  0  0  0  0  0
   25.7990    8.7830   54.2558 C   0  0  0  0  0  0  0  0  0  0  0  0
   25.7246    9.4170   55.4641 C   0  0  0  0  0  0  0  0  0  0  0  0
   26.7257    9.3912   56.4388 C   0  0  0  0  0  0  0  0  0  0  0  0
   27.8657    8.6689   56.1474 C   0  0  0  0  0  0  0  0  0  0  0  0
   29.2473    6.4898   53.5640 C   0  0  0  0  0  0  0  0  0  0  0  0
   29.1760    7.2988   54.7214 O   0  0  0  0  0  0  0  0  0  0  0  0
   26.6026   10.0520   57.6513 O   0  0  0  0  0  0  0  0  0  0  0  0
   27.5129   11.1043   57.9113 C   0  0  0  0  0  0  0  0  0  0  0  0
   28.8830    8.6234   57.0972 O   0  0  0  0  0  0  0  0  0  0  0  0
   28.6413    8.3024   58.4493 C   0  0  0  0  0  0  0  0  0  0  0  0
 25 26  1  0  0  0
 26 19  1  0  0  0
 19 20  2  0  0  0
 20 21  1  0  0  0
 21 22  2  0  0  0
 22 23  1  0  0  0
 23 27  1  0  0  0
 27 28  1  0  0  0
 23 24  2  0  0  0
 24 29  1  0  0  0
 29 30  1  0  0  0
 21  1  1  0  0  0
  1  2  2  0  0  0
  1  3  1  0  0  0
  3  4  1  0  0  0
  4  5  1  0  0  0
  5  6  1  0  0  0
  6  7  1  0  0  0
  7  8  1  0  0  0
  6  9  1  0  0  0
  9 10  1  0  0  0
 10 11  1  0  0  0
 11 12  1  0  0  0
 12 13  2  0  0  0
 13 14  1  0  0  0
 14 15  2  0  0  0
 15 16  1  0  0  0
 16 17  2  0  0  0
 17 18  1  0  0  0
 24 19  1  0  0  0
  8  3  1  0  0  0
 18  9  1  0  0  0
 17 12  1  0  0  0
M  END
> <minimizedAffinity>
39.33784

> <CNNscore>
0.4637096226

> <CNNaffinity>
5.5840883255

> <CNN_VS>
2.5893955231

> <CNNaffinity_variance>
0.5641840696

$$$$
[H]c1c([H])c([H])c2c(c1[H])C([H])([H])N(C1([H])C([H])([H])C([H])([H])N(C(=O)c3c([H])c(OC([H])([H])[H])c(OC([H])([H])[H])c(OC([H])([H])[H])c3[H])C([H])([H])C1([H])[H])C([H])([H])C2([H])[H]


 30 33  0  0  0  0  0  0  0  0999 V2000
   19.7357    7.1928   53.7031 C   0  0  0  0  0  0  0  0  0  0  0  0
   18.8243    8.0041   54.1791 O   0  0  0  0  0  0  0  0  0  0  0  0
   20.9783    7.7496   53.4238 N   0  0  0  0  0  0  0  0  0  0  0  0
   22.1622    7.1798   52.8865 C   0  0  0  0  0  0  0  0  0  0  0  0
   23.1699    8.2456   52.4304 C   0  0  0  0  0  0  0  0  0  0  0  0
   23.4999    9.2386   53.4883 C   0  0  0  0  0  0  0  0  0  0  0  0
   22.4196    9.2621   54.5723 C   0  0  0  0  0  0  0  0  0  0  0  0
   21.1112    9.2008   53.7503 C   0  0  0  0  0  0  0  0  0  0  0  0
   24.7850    9.0218   54.0465 N   0  0  0  0  0  0  0  0  0  0  0  0
   25.4451    7.9340   53.3853 C   0  0  0  0  0  0  0  0  0  0  0  0
   26.9514    8.0996   53.4808 C   0  0  0  0  0  0  0  0  0  0  0  0
   27.2902    8.5394   54.8698 C   0  0  0  0  0  0  0  0  0  0  0  0
   28.6312    8.5147   55.2192 C   0  0  0  0  0  0  0  0  0  0  0  0
   29.0107    8.9080   56.4895 C   0  0  0  0  0  0  0  0  0  0  0  0
   28.1076    9.3236   57.4221 C   0  0  0  0  0  0  0  0  0  0  0  0
   26.7676    9.3388   57.0445 C   0  0  0  0  0  0  0  0  0  0  0  0
   26.3721    8.9509   55.7853 C   0  0  0  0  0  0  0  0  0  0  0  0
   24.9223    8.9927   55.4503 C   0  0  0  0  0  0  0  0  0  0  0  0
   17.4563    4.2211   53.9294 C   0  0  0  0  0  0  0  0  0  0  0  0
   17.9710    5.4792   54.0161 C   0  0  0  0  0  0  0  0  0  0  0  0
   19.2530    5.8416   53.5582 C   0  0  0  0  0  0  0  0  0  0  0  0
   19.9642    4.8132   53.0067 C   0  0  0  0  0  0  0  0  0  0  0  0
   19.5002    3.5007   52.8849 C   0  0  0  0  0  0  0  0  0  0  0  0
   18.2310    3.2380   53.3608 C   0  0  0  0  0  0  0  0  0  0  0  0
   16.0493    3.5442   55.7486 C   0  0  0  0  0  0  0  0  0  0  0  0
   16.1955    3.8951   54.3867 O   0  0  0  0  0  0  0  0  0  0  0  0
   20.2613    2.4908   52.3167 O   0  0  0  0  0  0  0  0  0  0  0  0
   20.6699    1.4327   53.1635 C   0  0  0  0  0  0  0  0  0  0  0  0
   17.7381    1.9400   53.2541 O   0  0  0  0  0  0  0  0  0  0  0  0
   16.5632    1.6339   52.5361 C   0  0  0  0  0  0  0  0  0  0  0  0
 25 26  1  0  0  0
 26 19  1  0  0  0
 19 20  2  0  0  0
 20 21  1  0  0  0
 21 22  2  0  0  0
 22 23  1  0  0  0
 23 27  1  0  0  0
 27 28  1  0  0  0
 23 24  2  0  0  0
 24 29  1  0  0  0
 29 30  1  0  0  0
 21  1  1  0  0  0
  1  2  2  0  0  0
  1  3  1  0  0  0
  3  4  1  0  0  0
  4  5  1  0  0  0
  5  6  1  0  0  0
  6  7  1  0  0  0
  7  8  1  0  0  0
  6  9  1  0  0  0
  9 10  1  0  0  0
 10 11  1  0  0  0
 11 12  1  0  0  0
 12 13  2  0  0  0
 13 14  1  0  0  0
 14 15  2  0  0  0
 15 16  1  0  0  0
 16 17  2  0  0  0
 17 18  1  0  0  0
 24 19  1  0  0  0
  8  3  1  0  0  0
 18  9  1  0  0  0
 17 12  1  0  0  0
M  END
> <minimizedAffinity>
37.82181

> <CNNscore>
0.4442811608

> <CNNaffinity>
5.8787260056

> <CNN_VS>
2.6118071079

> <CNNaffinity_variance>
0.3782726526

$$$$
[H]c1c([H])c([H])c2c(c1[H])C([H])([H])N(C1([H])C([H])([H])C([H])([H])N(C(=O)c3c([H])c(OC([H])([H])[H])c(OC([H])([H])[H])c(OC([H])([H])[H])c3[H])C([H])([H])C1([H])[H])C([H])([H])C2([H])[H]


 30 33  0  0  0  0  0  0  0  0999 V2000
   20.8674    9.6288   51.3920 C   0  0  0  0  0  0  0  0  0  0  0  0
   20.3835    8.5926   50.7535 O   0  0  0  0  0  0  0  0  0  0  0  0
   21.5601    9.3659   52.5680 N   0  0  0  0  0  0  0  0  0  0  0  0
   22.1812   10.2331   53.5047 C   0  0  0  0  0  0  0  0  0  0  0  0
   22.5202    9.5232   54.8240 C   0  0  0  0  0  0  0  0  0  0  0  0
   23.3272    8.2866   54.6398 C   0  0  0  0  0  0  0  0  0  0  0  0
   23.2026    7.7606   53.2079 C   0  0  0  0  0  0  0  0  0  0  0  0
   21.6921    7.9200   52.9170 C   0  0  0  0  0  0  0  0  0  0  0  0
   24.6848    8.4720   55.0041 N   0  0  0  0  0  0  0  0  0  0  0  0
   24.8264    9.6156   55.8573 C   0  0  0  0  0  0  0  0  0  0  0  0
   26.0483    9.4588   56.7449 C   0  0  0  0  0  0  0  0  0  0  0  0
   27.1671    8.9138   55.9149 C   0  0  0  0  0  0  0  0  0  0  0  0
   28.4285    8.9247   56.4889 C   0  0  0  0  0  0  0  0  0  0  0  0
   29.5061    8.4360   55.7730 C   0  0  0  0  0  0  0  0  0  0  0  0
   29.3749    7.9382   54.5109 C   0  0  0  0  0  0  0  0  0  0  0  0
   28.0969    7.9389   53.9586 C   0  0  0  0  0  0  0  0  0  0  0  0
   27.0137    8.4213   54.6562 C   0  0  0  0  0  0  0  0  0  0  0  0
   25.6761    8.3911   54.0035 C   0  0  0  0  0  0  0  0  0  0  0  0
   19.6753   12.0264   48.7636 C   0  0  0  0  0  0  0  0  0  0  0  0
   19.9645   10.8908   49.4579 C   0  0  0  0  0  0  0  0  0  0  0  0
   20.5748   10.8748   50.7274 C   0  0  0  0  0  0  0  0  0  0  0  0
   20.8656   12.1132   51.2267 C   0  0  0  0  0  0  0  0  0  0  0  0
   20.5975   13.3180   50.5715 C   0  0  0  0  0  0  0  0  0  0  0  0
   19.9966   13.2366   49.3312 C   0  0  0  0  0  0  0  0  0  0  0  0
   17.6906   11.7375   47.4503 C   0  0  0  0  0  0  0  0  0  0  0  0
   19.0760   12.0115   47.5204 O   0  0  0  0  0  0  0  0  0  0  0  0
   20.9122   14.5513   51.1210 O   0  0  0  0  0  0  0  0  0  0  0  0
   20.4541   14.8114   52.4348 C   0  0  0  0  0  0  0  0  0  0  0  0
   19.7152   14.4191   48.6515 O   0  0  0  0  0  0  0  0  0  0  0  0
   20.4184   14.8113   47.4934 C   0  0  0  0  0  0  0  0  0  0  0  0
 25 26  1  0  0  0
 26 19  1  0  0  0
 19 20  2  0  0  0
 20 21  1  0  0  0
 21 22  2  0  0  0
 22 23  1  0  0  0
 23 27  1  0  0  0
 27 28  1  0  0  0
 23 24  2  0  0  0
 24 29  1  0  0  0
 29 30  1  0  0  0
 21  1  1  0  0  0
  1  2  2  0  0  0
  1  3  1  0  0  0
  3  4  1  0  0  0
  4  5  1  0  0  0
  5  6  1  0  0  0
  6  7  1  0  0  0
  7  8  1  0  0  0
  6  9  1  0  0  0
  9 10  1  0  0  0
 10 11  1  0  0  0
 11 12  1  0  0  0
 12 13  2  0  0  0
 13 14  1  0  0  0
 14 15  2  0  0  0
 15 16  1  0  0  0
 16 17  2  0  0  0
 17 18  1  0  0  0
 24 19  1  0  0  0
  8  3  1  0  0  0
 18  9  1  0  0  0
 17 12  1  0  0  0
M  END
> <minimizedAffinity>
52.85134

> <CNNscore>
0.4273801148

> <CNNaffinity>
5.4782166481

> <CNN_VS>
2.3412809372

> <CNNaffinity_variance>
0.3439190388

$$$$
[H]c1c([H])c([H])c2c(c1[H])C([H])([H])N(C1([H])C([H])([H])C([H])([H])N(C(=O)c3c([H])c(OC([H])([H])[H])c(OC([H])([H])[H])c(OC([H])([H])[H])c3[H])C([H])([H])C1([H])[H])C([H])([H])C2([H])[H]


 30 33  0  0  0  0  0  0  0  0999 V2000
   19.6399    7.2074   53.6507 C   0  0  0  0  0  0  0  0  0  0  0  0
   18.7426    8.0654   54.0680 O   0  0  0  0  0  0  0  0  0  0  0  0
   20.8958    7.7200   53.3473 N   0  0  0  0  0  0  0  0  0  0  0  0
   22.0710    7.0935   52.8560 C   0  0  0  0  0  0  0  0  0  0  0  0
   23.1040    8.1078   52.3427 C   0  0  0  0  0  0  0  0  0  0  0  0
   23.4477    9.1577   53.3395 C   0  0  0  0  0  0  0  0  0  0  0  0
   22.3610    9.2709   54.4112 C   0  0  0  0  0  0  0  0  0  0  0  0
   21.0570    9.1856   53.5841 C   0  0  0  0  0  0  0  0  0  0  0  0
   24.7242    8.9496   53.9203 N   0  0  0  0  0  0  0  0  0  0  0  0
   25.3821    7.8336   53.3057 C   0  0  0  0  0  0  0  0  0  0  0  0
   26.8886    7.9894   53.4135 C   0  0  0  0  0  0  0  0  0  0  0  0
   27.2151    8.4748   54.7902 C   0  0  0  0  0  0  0  0  0  0  0  0
   28.5516    8.4509   55.1564 C   0  0  0  0  0  0  0  0  0  0  0  0
   28.9197    8.8852   56.4166 C   0  0  0  0  0  0  0  0  0  0  0  0
   28.0095    9.3412   57.3231 C   0  0  0  0  0  0  0  0  0  0  0  0
   26.6743    9.3546   56.9291 C   0  0  0  0  0  0  0  0  0  0  0  0
   26.2901    8.9261   55.6795 C   0  0  0  0  0  0  0  0  0  0  0  0
   24.8447    8.9686   55.3259 C   0  0  0  0  0  0  0  0  0  0  0  0
   19.4461    3.5466   52.8511 C   0  0  0  0  0  0  0  0  0  0  0  0
   19.8713    4.8356   52.9654 C   0  0  0  0  0  0  0  0  0  0  0  0
   19.1297    5.8601   53.5861 C   0  0  0  0  0  0  0  0  0  0  0  0
   17.9196    5.4588   54.0779 C   0  0  0  0  0  0  0  0  0  0  0  0
   17.4204    4.1561   53.9969 C   0  0  0  0  0  0  0  0  0  0  0  0
   18.2169    3.2176   53.3716 C   0  0  0  0  0  0  0  0  0  0  0  0
   20.8154    1.5894   53.0537 C   0  0  0  0  0  0  0  0  0  0  0  0
   20.1950    2.5631   52.2375 O   0  0  0  0  0  0  0  0  0  0  0  0
   16.1842    3.7982   54.5124 O   0  0  0  0  0  0  0  0  0  0  0  0
   16.1153    3.5236   55.8993 C   0  0  0  0  0  0  0  0  0  0  0  0
   17.7491    1.9095   53.2745 O   0  0  0  0  0  0  0  0  0  0  0  0
   16.5969    1.5715   52.5344 C   0  0  0  0  0  0  0  0  0  0  0  0
 25 26  1  0  0  0
 26 19  1  0  0  0
 19 20  2  0  0  0
 20 21  1  0  0  0
 21 22  2  0  0  0
 22 23  1  0  0  0
 23 27  1  0  0  0
 27 28  1  0  0  0
 23 24  2  0  0  0
 24 29  1  0  0  0
 29 30  1  0  0  0
 21  1  1  0  0  0
  1  2  2  0  0  0
  1  3  1  0  0  0
  3  4  1  0  0  0
  4  5  1  0  0  0
  5  6  1  0  0  0
  6  7  1  0  0  0
  7  8  1  0  0  0
  6  9  1  0  0  0
  9 10  1  0  0  0
 10 11  1  0  0  0
 11 12  1  0  0  0
 12 13  2  0  0  0
 13 14  1  0  0  0
 14 15  2  0  0  0
 15 16  1  0  0  0
 16 17  2  0  0  0
 17 18  1  0  0  0
 24 19  1  0  0  0
  8  3  1  0  0  0
 18  9  1  0  0  0
 17 12  1  0  0  0
M  END
> <minimizedAffinity>
38.28121

> <CNNscore>
0.4033206105

> <CNNaffinity>
5.8048954010

> <CNN_VS>
2.3412339687

> <CNNaffinity_variance>
0.3923059702

$$$$
[H]c1c([H])c([H])c2c(c1[H])C([H])([H])N(C1([H])C([H])([H])C([H])([H])N(C(=O)c3c([H])c(OC([H])([H])[H])c(OC([H])([H])[H])c(OC([H])([H])[H])c3[H])C([H])([H])C1([H])[H])C([H])([H])C2([H])[H]


 30 33  0  0  0  0  0  0  0  0999 V2000
   20.7608    9.7347   51.2705 C   0  0  0  0  0  0  0  0  0  0  0  0
   20.1819    8.7053   50.7043 O   0  0  0  0  0  0  0  0  0  0  0  0
   21.4812    9.4811   52.4319 N   0  0  0  0  0  0  0  0  0  0  0  0
   22.1976   10.3468   53.2993 C   0  0  0  0  0  0  0  0  0  0  0  0
   22.5407    9.6797   54.6397 C   0  0  0  0  0  0  0  0  0  0  0  0
   23.2532    8.3820   54.4891 C   0  0  0  0  0  0  0  0  0  0  0  0
   23.0349    7.7974   53.0916 C   0  0  0  0  0  0  0  0  0  0  0  0
   21.5282    8.0480   52.8492 C   0  0  0  0  0  0  0  0  0  0  0  0
   24.6339    8.4891   54.7928 N   0  0  0  0  0  0  0  0  0  0  0  0
   25.3700    7.4239   54.1767 C   0  0  0  0  0  0  0  0  0  0  0  0
   26.8054    7.8531   53.9305 C   0  0  0  0  0  0  0  0  0  0  0  0
   27.2904    8.5912   55.1378 C   0  0  0  0  0  0  0  0  0  0  0  0
   28.6496    8.8553   55.1996 C   0  0  0  0  0  0  0  0  0  0  0  0
   29.1620    9.5332   56.2906 C   0  0  0  0  0  0  0  0  0  0  0  0
   28.3741    9.9567   57.3191 C   0  0  0  0  0  0  0  0  0  0  0  0
   27.0128    9.6784   57.2312 C   0  0  0  0  0  0  0  0  0  0  0  0
   26.4858    9.0050   56.1535 C   0  0  0  0  0  0  0  0  0  0  0  0
   25.0209    8.7420   56.1257 C   0  0  0  0  0  0  0  0  0  0  0  0
   20.9546   13.3657   50.3453 C   0  0  0  0  0  0  0  0  0  0  0  0
   21.1420   12.1652   50.9608 C   0  0  0  0  0  0  0  0  0  0  0  0
   20.5273   10.9645   50.5545 C   0  0  0  0  0  0  0  0  0  0  0  0
   19.7060   11.0928   49.4699 C   0  0  0  0  0  0  0  0  0  0  0  0
   19.4675   12.2901   48.7899 C   0  0  0  0  0  0  0  0  0  0  0  0
   20.1139   13.4165   49.2587 C   0  0  0  0  0  0  0  0  0  0  0  0
   22.7141   14.4148   51.5906 C   0  0  0  0  0  0  0  0  0  0  0  0
   21.5711   14.5267   50.7658 O   0  0  0  0  0  0  0  0  0  0  0  0
   18.6239   12.3688   47.6926 O   0  0  0  0  0  0  0  0  0  0  0  0
   18.6455   11.2873   46.7796 C   0  0  0  0  0  0  0  0  0  0  0  0
   19.8984   14.6261   48.6031 O   0  0  0  0  0  0  0  0  0  0  0  0
   20.1676   14.8000   47.2295 C   0  0  0  0  0  0  0  0  0  0  0  0
 25 26  1  0  0  0
 26 19  1  0  0  0
 19 20  2  0  0  0
 20 21  1  0  0  0
 21 22  2  0  0  0
 22 23  1  0  0  0
 23 27  1  0  0  0
 27 28  1  0  0  0
 23 24  2  0  0  0
 24 29  1  0  0  0
 29 30  1  0  0  0
 21  1  1  0  0  0
  1  2  2  0  0  0
  1  3  1  0  0  0
  3  4  1  0  0  0
  4  5  1  0  0  0
  5  6  1  0  0  0
  6  7  1  0  0  0
  7  8  1  0  0  0
  6  9  1  0  0  0
  9 10  1  0  0  0
 10 11  1  0  0  0
 11 12  1  0  0  0
 12 13  2  0  0  0
 13 14  1  0  0  0
 14 15  2  0  0  0
 15 16  1  0  0  0
 16 17  2  0  0  0
 17 18  1  0  0  0
 24 19  1  0  0  0
  8  3  1  0  0  0
 18  9  1  0  0  0
 17 12  1  0  0  0
M  END
> <minimizedAffinity>
56.14058

> <CNNscore>
0.3974238038

> <CNNaffinity>
5.4878673553

> <CNN_VS>
2.1810090542

> <CNNaffinity_variance>
0.3021024466

$$$$
[H]c1c([H])c([H])c2c(c1[H])C([H])([H])N(C1([H])C([H])([H])C([H])([H])N(C(=O)c3c([H])c(OC([H])([H])[H])c(OC([H])([H])[H])c(OC([H])([H])[H])c3[H])C([H])([H])C1([H])[H])C([H])([H])C2([H])[H]


 30 33  0  0  0  0  0  0  0  0999 V2000
   21.6880    5.5638   53.8334 C   0  0  0  0  0  0  0  0  0  0  0  0
   22.8438    4.9891   53.6116 O   0  0  0  0  0  0  0  0  0  0  0  0
   21.7201    6.9072   54.1888 N   0  0  0  0  0  0  0  0  0  0  0  0
   20.6802    7.8156   54.5180 C   0  0  0  0  0  0  0  0  0  0  0  0
   21.2098    9.0964   55.1802 C   0  0  0  0  0  0  0  0  0  0  0  0
   22.2689    9.7776   54.3873 C   0  0  0  0  0  0  0  0  0  0  0  0
   22.9116    8.8113   53.3895 C   0  0  0  0  0  0  0  0  0  0  0  0
   23.0808    7.5214   54.2256 C   0  0  0  0  0  0  0  0  0  0  0  0
   21.7884   10.9433   53.7390 N   0  0  0  0  0  0  0  0  0  0  0  0
   20.6563   11.4787   54.4375 C   0  0  0  0  0  0  0  0  0  0  0  0
   20.5483   12.9732   54.1922 C   0  0  0  0  0  0  0  0  0  0  0  0
   20.8136   13.2335   52.7432 C   0  0  0  0  0  0  0  0  0  0  0  0
   20.5280   14.5077   52.2789 C   0  0  0  0  0  0  0  0  0  0  0  0
   20.7496   14.8125   50.9483 C   0  0  0  0  0  0  0  0  0  0  0  0
   21.2435   13.8988   50.0656 C   0  0  0  0  0  0  0  0  0  0  0  0
   21.5217   12.6268   50.5587 C   0  0  0  0  0  0  0  0  0  0  0  0
   21.3073   12.3061   51.8792 C   0  0  0  0  0  0  0  0  0  0  0  0
   21.6275   10.9264   52.3375 C   0  0  0  0  0  0  0  0  0  0  0  0
   18.1681    4.2642   53.8317 C   0  0  0  0  0  0  0  0  0  0  0  0
   19.2615    5.0673   53.9536 C   0  0  0  0  0  0  0  0  0  0  0  0
   20.5778    4.6598   53.6604 C   0  0  0  0  0  0  0  0  0  0  0  0
   20.6836    3.3656   53.2345 C   0  0  0  0  0  0  0  0  0  0  0  0
   19.6074    2.4866   53.0859 C   0  0  0  0  0  0  0  0  0  0  0  0
   18.3532    2.9735   53.3960 C   0  0  0  0  0  0  0  0  0  0  0  0
   16.6172    6.0775   54.0637 C   0  0  0  0  0  0  0  0  0  0  0  0
   16.8892    4.6914   54.1262 O   0  0  0  0  0  0  0  0  0  0  0  0
   19.7667    1.1804   52.6495 O   0  0  0  0  0  0  0  0  0  0  0  0
   21.0438    0.5929   52.8155 C   0  0  0  0  0  0  0  0  0  0  0  0
   17.2589    2.1233   53.2582 O   0  0  0  0  0  0  0  0  0  0  0  0
   16.6631    1.8542   52.0084 C   0  0  0  0  0  0  0  0  0  0  0  0
 25 26  1  0  0  0
 26 19  1  0  0  0
 19 20  2  0  0  0
 20 21  1  0  0  0
 21 22  2  0  0  0
 22 23  1  0  0  0
 23 27  1  0  0  0
 27 28  1  0  0  0
 23 24  2  0  0  0
 24 29  1  0  0  0
 29 30  1  0  0  0
 21  1  1  0  0  0
  1  2  2  0  0  0
  1  3  1  0  0  0
  3  4  1  0  0  0
  4  5  1  0  0  0
  5  6  1  0  0  0
  6  7  1  0  0  0
  7  8  1  0  0  0
  6  9  1  0  0  0
  9 10  1  0  0  0
 10 11  1  0  0  0
 11 12  1  0  0  0
 12 13  2  0  0  0
 13 14  1  0  0  0
 14 15  2  0  0  0
 15 16  1  0  0  0
 16 17  2  0  0  0
 17 18  1  0  0  0
 24 19  1  0  0  0
  8  3  1  0  0  0
 18  9  1  0  0  0
 17 12  1  0  0  0
M  END
> <minimizedAffinity>
52.62547

> <CNNscore>
0.3593906462

> <CNNaffinity>
5.9594893456

> <CNN_VS>
2.1417846680

> <CNNaffinity_variance>
0.6098533869

$$$$
[H]c1c([H])c([H])c2c(c1[H])C([H])([H])N(C1([H])C([H])([H])C([H])([H])N(C(=O)c3c([H])c(OC([H])([H])[H])c(OC([H])([H])[H])c(OC([H])([H])[H])c3[H])C([H])([H])C1([H])[H])C([H])([H])C2([H])[H]


 30 33  0  0  0  0  0  0  0  0999 V2000
   24.1142    6.8650   54.2817 C   0  0  0  0  0  0  0  0  0  0  0  0
   24.4948    5.8228   54.9778 O   0  0  0  0  0  0  0  0  0  0  0  0
   25.1232    7.6731   53.7710 N   0  0  0  0  0  0  0  0  0  0  0  0
   25.0714    8.8701   53.0097 C   0  0  0  0  0  0  0  0  0  0  0  0
   26.4241    9.5966   52.9686 C   0  0  0  0  0  0  0  0  0  0  0  0
   27.5458    8.7326   52.5106 C   0  0  0  0  0  0  0  0  0  0  0  0
   27.1944    7.2513   52.6680 C   0  0  0  0  0  0  0  0  0  0  0  0
   26.5136    7.2086   54.0559 C   0  0  0  0  0  0  0  0  0  0  0  0
   27.9445    9.0292   51.1828 N   0  0  0  0  0  0  0  0  0  0  0  0
   28.7843    7.9891   50.6641 C   0  0  0  0  0  0  0  0  0  0  0  0
   28.6796    7.9375   49.1502 C   0  0  0  0  0  0  0  0  0  0  0  0
   28.6966    9.3394   48.6284 C   0  0  0  0  0  0  0  0  0  0  0  0
   28.8490    9.4904   47.2592 C   0  0  0  0  0  0  0  0  0  0  0  0
   28.8742   10.7609   46.7135 C   0  0  0  0  0  0  0  0  0  0  0  0
   28.7537   11.8830   47.4779 C   0  0  0  0  0  0  0  0  0  0  0  0
   28.6017   11.7023   48.8499 C   0  0  0  0  0  0  0  0  0  0  0  0
   28.5746   10.4460   49.4100 C   0  0  0  0  0  0  0  0  0  0  0  0
   28.4089   10.3276   50.8846 C   0  0  0  0  0  0  0  0  0  0  0  0
   20.5786    6.0510   53.3250 C   0  0  0  0  0  0  0  0  0  0  0  0
   21.9316    6.0071   53.4763 C   0  0  0  0  0  0  0  0  0  0  0  0
   22.6794    6.9702   54.1818 C   0  0  0  0  0  0  0  0  0  0  0  0
   21.9313    7.9804   54.7177 C   0  0  0  0  0  0  0  0  0  0  0  0
   20.5428    8.0889   54.6029 C   0  0  0  0  0  0  0  0  0  0  0  0
   19.8932    7.0982   53.8938 C   0  0  0  0  0  0  0  0  0  0  0  0
   19.3751    3.9778   53.3426 C   0  0  0  0  0  0  0  0  0  0  0  0
   19.8719    5.0921   52.6280 O   0  0  0  0  0  0  0  0  0  0  0  0
   19.8279    9.1350   55.1657 O   0  0  0  0  0  0  0  0  0  0  0  0
   20.5509   10.3013   55.5127 C   0  0  0  0  0  0  0  0  0  0  0  0
   18.5092    7.1763   53.7610 O   0  0  0  0  0  0  0  0  0  0  0  0
   17.6455    6.1699   54.2415 C   0  0  0  0  0  0  0  0  0  0  0  0
 25 26  1  0  0  0
 26 19  1  0  0  0
 19 20  2  0  0  0
 20 21  1  0  0  0
 21 22  2  0  0  0
 22 23  1  0  0  0
 23 27  1  0  0  0
 27 28  1  0  0  0
 23 24  2  0  0  0
 24 29  1  0  0  0
 29 30  1  0  0  0
 21  1  1  0  0  0
  1  2  2  0  0  0
  1  3  1  0  0  0
  3  4  1  0  0  0
  4  5  1  0  0  0
  5  6  1  0  0  0
  6  7  1  0  0  0
  7  8  1  0  0  0
  6  9  1  0  0  0
  9 10  1  0  0  0
 10 11  1  0  0  0
 11 12  1  0  0  0
 12 13  2  0  0  0
 13 14  1  0  0  0
 14 15  2  0  0  0
 15 16  1  0  0  0
 16 17  2  0  0  0
 17 18  1  0  0  0
 24 19  1  0  0  0
  8  3  1  0  0  0
 18  9  1  0  0  0
 17 12  1  0  0  0
M  END
> <minimizedAffinity>
50.13826

> <CNNscore>
0.3558450043

> <CNNaffinity>
5.4086141586

> <CNN_VS>
1.9246283770

> <CNNaffinity_variance>
0.3028933406

$$$$
[H]c1nc(N([H])c2c([H])c(OC([H])([H])[H])c(OC([H])([H])[H])c(OC([H])([H])[H])c2[H])nc(N([H])c2nc3c(c([H])c2[H])OC(C([H])([H])[H])(C([H])([H])[H])C(=O)N3[H])c1F


 37 40  0  0  0  0  0  0  0  0999 V2000
   27.5092    8.8203   53.0699 C   0  0  0  0  0  0  0  0  0  0  0  0
   28.6941    9.0195   53.6596 N   0  0  0  0  0  0  0  0  0  0  0  0
   28.8748    9.2703   54.9580 C   0  0  0  0  0  0  0  0  0  0  0  0
   27.7833    9.3339   55.7694 C   0  0  0  0  0  0  0  0  0  0  0  0
   27.8246    9.5774   57.0870 F   0  0  0  0  0  0  0  0  0  0  0  0
   26.5109    9.1338   55.2118 C   0  0  0  0  0  0  0  0  0  0  0  0
   26.4365    8.8887   53.8999 N   0  0  0  0  0  0  0  0  0  0  0  0
   27.2868    8.5543   51.7072 N   0  0  0  0  0  0  0  0  0  0  0  0
   26.7134    7.6716   51.5057 H   0  0  0  0  0  0  0  0  0  0  0  0
   28.1118   11.3543   49.3614 C   0  0  0  0  0  0  0  0  0  0  0  0
   27.6505   10.6613   50.4899 C   0  0  0  0  0  0  0  0  0  0  0  0
   27.7425    9.3227   50.6200 C   0  0  0  0  0  0  0  0  0  0  0  0
   28.3383    8.6299   49.5468 C   0  0  0  0  0  0  0  0  0  0  0  0
   28.7999    9.2760   48.4299 C   0  0  0  0  0  0  0  0  0  0  0  0
   28.6921   10.6481   48.3230 C   0  0  0  0  0  0  0  0  0  0  0  0
   26.7697   13.2891   48.8708 C   0  0  0  0  0  0  0  0  0  0  0  0
   27.9801   12.7287   49.3038 O   0  0  0  0  0  0  0  0  0  0  0  0
   29.3735    8.5689   47.4064 O   0  0  0  0  0  0  0  0  0  0  0  0
   29.2896    7.1590   47.4068 C   0  0  0  0  0  0  0  0  0  0  0  0
   29.1460   11.3496   47.2080 O   0  0  0  0  0  0  0  0  0  0  0  0
   28.7594   12.7109   47.0735 C   0  0  0  0  0  0  0  0  0  0  0  0
   25.3568    9.1939   56.0306 N   0  0  0  0  0  0  0  0  0  0  0  0
   25.4670    9.3368   57.0435 H   0  0  0  0  0  0  0  0  0  0  0  0
   24.0789    9.0557   55.4349 C   0  0  0  0  0  0  0  0  0  0  0  0
   22.9254    9.4698   56.1173 C   0  0  0  0  0  0  0  0  0  0  0  0
   21.6909    9.3297   55.5269 C   0  0  0  0  0  0  0  0  0  0  0  0
   21.5633    8.7868   54.2690 C   0  0  0  0  0  0  0  0  0  0  0  0
   20.3341    8.6308   53.6440 O   0  0  0  0  0  0  0  0  0  0  0  0
   20.1340    7.6956   52.5953 C   0  0  0  0  0  0  0  0  0  0  0  0
   18.9480    8.0901   51.7623 C   0  0  0  0  0  0  0  0  0  0  0  0
   19.9575    6.3129   53.1652 C   0  0  0  0  0  0  0  0  0  0  0  0
   21.3255    7.6754   51.6929 C   0  0  0  0  0  0  0  0  0  0  0  0
   21.1855    7.5355   50.4380 O   0  0  0  0  0  0  0  0  0  0  0  0
   22.5954    7.8179   52.2998 N   0  0  0  0  0  0  0  0  0  0  0  0
   22.7152    8.3782   53.5983 C   0  0  0  0  0  0  0  0  0  0  0  0
   23.8979    8.5350   54.2154 N   0  0  0  0  0  0  0  0  0  0  0  0
   23.4369    7.5065   51.7810 H   0  0  0  0  0  0  0  0  0  0  0  0
 16 17  1  0  0  0
 17 10  1  0  0  0
 10 11  2  0  0  0
 11 12  1  0  0  0
 12  8  1  0  0  0
  8  1  1  0  0  0
  1  2  2  0  0  0
  2  3  1  0  0  0
  3  4  2  0  0  0
  4  5  1  0  0  0
  4  6  1  0  0  0
  6 22  1  0  0  0
 22 24  1  0  0  0
 24 25  2  0  0  0
 25 26  1  0  0  0
 26 27  2  0  0  0
 27 28  1  0  0  0
 28 29  1  0  0  0
 29 30  1  0  0  0
 29 31  1  0  0  0
 29 32  1  0  0  0
 32 33  2  0  0  0
 32 34  1  0  0  0
 34 35  1  0  0  0
 35 36  2  0  0  0
  6  7  2  0  0  0
 12 13  2  0  0  0
 13 14  1  0  0  0
 14 18  1  0  0  0
 18 19  1  0  0  0
 14 15  2  0  0  0
 15 20  1  0  0  0
 20 21  1  0  0  0
 15 10  1  0  0  0
  7  1  1  0  0  0
 36 24  1  0  0  0
 35 27  1  0  0  0
  8  9  1  0  0  0
 22 23  1  0  0  0
 34 37  1  0  0  0
M  END
> <minimizedAffinity>
30.32845

> <CNNscore>
0.6703730226

> <CNNaffinity>
6.6685132980

> <CNN_VS>
4.4703912735

> <CNNaffinity_variance>
0.2409919500

$$$$
[H]c1nc(N([H])c2c([H])c(OC([H])([H])[H])c(OC([H])([H])[H])c(OC([H])([H])[H])c2[H])nc(N([H])c2nc3c(c([H])c2[H])OC(C([H])([H])[H])(C([H])([H])[H])C(=O)N3[H])c1F


 37 40  0  0  0  0  0  0  0  0999 V2000
   27.5296    8.5933   53.1411 C   0  0  0  0  0  0  0  0  0  0  0  0
   28.7186    8.6764   53.7499 N   0  0  0  0  0  0  0  0  0  0  0  0
   28.9061    9.0006   55.0309 C   0  0  0  0  0  0  0  0  0  0  0  0
   27.8176    9.2733   55.8020 C   0  0  0  0  0  0  0  0  0  0  0  0
   27.8656    9.6106   57.0985 F   0  0  0  0  0  0  0  0  0  0  0  0
   26.5411    9.2036   55.2227 C   0  0  0  0  0  0  0  0  0  0  0  0
   26.4600    8.8696   53.9310 N   0  0  0  0  0  0  0  0  0  0  0  0
   27.3000    8.2547   51.7958 N   0  0  0  0  0  0  0  0  0  0  0  0
   26.6884    7.3876   51.6449 H   0  0  0  0  0  0  0  0  0  0  0  0
   28.8305    9.1237   48.4904 C   0  0  0  0  0  0  0  0  0  0  0  0
   28.3411    8.3740   49.5696 C   0  0  0  0  0  0  0  0  0  0  0  0
   27.7932    8.9343   50.6665 C   0  0  0  0  0  0  0  0  0  0  0  0
   27.7300   10.3422   50.6841 C   0  0  0  0  0  0  0  0  0  0  0  0
   28.1986   11.1048   49.6463 C   0  0  0  0  0  0  0  0  0  0  0  0
   28.7556   10.5043   48.5351 C   0  0  0  0  0  0  0  0  0  0  0  0
   28.7325    8.5425   46.1584 C   0  0  0  0  0  0  0  0  0  0  0  0
   29.3788    8.4737   47.4011 O   0  0  0  0  0  0  0  0  0  0  0  0
   28.1202   12.4715   49.6988 O   0  0  0  0  0  0  0  0  0  0  0  0
   27.0293   13.1264   49.0857 C   0  0  0  0  0  0  0  0  0  0  0  0
   29.2458   11.2365   47.4557 O   0  0  0  0  0  0  0  0  0  0  0  0
   28.6308   12.4839   47.1617 C   0  0  0  0  0  0  0  0  0  0  0  0
   25.3900    9.4818   55.9995 N   0  0  0  0  0  0  0  0  0  0  0  0
   25.5045    9.8760   56.9430 H   0  0  0  0  0  0  0  0  0  0  0  0
   24.1091    9.2104   55.4586 C   0  0  0  0  0  0  0  0  0  0  0  0
   22.9513    9.4446   56.2152 C   0  0  0  0  0  0  0  0  0  0  0  0
   21.7138    9.1766   55.6774 C   0  0  0  0  0  0  0  0  0  0  0  0
   21.5875    8.6791   54.4008 C   0  0  0  0  0  0  0  0  0  0  0  0
   20.3555    8.3975   53.8274 O   0  0  0  0  0  0  0  0  0  0  0  0
   20.2170    7.4927   52.7427 C   0  0  0  0  0  0  0  0  0  0  0  0
   18.9485    7.7715   51.9881 C   0  0  0  0  0  0  0  0  0  0  0  0
   20.2436    6.0746   53.2486 C   0  0  0  0  0  0  0  0  0  0  0  0
   21.3519    7.6636   51.7851 C   0  0  0  0  0  0  0  0  0  0  0  0
   21.1636    7.5638   50.5327 O   0  0  0  0  0  0  0  0  0  0  0  0
   22.6251    7.9377   52.3378 N   0  0  0  0  0  0  0  0  0  0  0  0
   22.7437    8.4496   53.6563 C   0  0  0  0  0  0  0  0  0  0  0  0
   23.9291    8.7265   54.2239 N   0  0  0  0  0  0  0  0  0  0  0  0
   23.4698    7.7586   51.7645 H   0  0  0  0  0  0  0  0  0  0  0  0
 16 17  1  0  0  0
 17 10  1  0  0  0
 10 11  2  0  0  0
 11 12  1  0  0  0
 12  8  1  0  0  0
  8  1  1  0  0  0
  1  2  2  0  0  0
  2  3  1  0  0  0
  3  4  2  0  0  0
  4  5  1  0  0  0
  4  6  1  0  0  0
  6 22  1  0  0  0
 22 24  1  0  0  0
 24 25  2  0  0  0
 25 26  1  0  0  0
 26 27  2  0  0  0
 27 28  1  0  0  0
 28 29  1  0  0  0
 29 30  1  0  0  0
 29 31  1  0  0  0
 29 32  1  0  0  0
 32 33  2  0  0  0
 32 34  1  0  0  0
 34 35  1  0  0  0
 35 36  2  0  0  0
  6  7  2  0  0  0
 12 13  2  0  0  0
 13 14  1  0  0  0
 14 18  1  0  0  0
 18 19  1  0  0  0
 14 15  2  0  0  0
 15 20  1  0  0  0
 20 21  1  0  0  0
 15 10  1  0  0  0
  7  1  1  0  0  0
 36 24  1  0  0  0
 35 27  1  0  0  0
  8  9  1  0  0  0
 22 23  1  0  0  0
 34 37  1  0  0  0
M  END
> <minimizedAffinity>
31.62417

> <CNNscore>
0.6448912024

> <CNNaffinity>
6.5679578781

> <CNN_VS>
4.2356181145

> <CNNaffinity_variance>
0.2211177647

$$$$
[H]c1nc(N([H])c2c([H])c(OC([H])([H])[H])c(OC([H])([H])[H])c(OC([H])([H])[H])c2[H])nc(N([H])c2nc3c(c([H])c2[H])OC(C([H])([H])[H])(C([H])([H])[H])C(=O)N3[H])c1F


 37 40  0  0  0  0  0  0  0  0999 V2000
   27.6192    9.1216   53.0314 C   0  0  0  0  0  0  0  0  0  0  0  0
   27.6645    8.8786   54.3468 N   0  0  0  0  0  0  0  0  0  0  0  0
   26.6300    8.4850   55.0925 C   0  0  0  0  0  0  0  0  0  0  0  0
   25.4208    8.3093   54.4919 C   0  0  0  0  0  0  0  0  0  0  0  0
   24.3046    7.9182   55.1228 F   0  0  0  0  0  0  0  0  0  0  0  0
   25.3069    8.5480   53.1135 C   0  0  0  0  0  0  0  0  0  0  0  0
   26.4028    8.9393   52.4558 N   0  0  0  0  0  0  0  0  0  0  0  0
   28.6898    9.5363   52.2195 N   0  0  0  0  0  0  0  0  0  0  0  0
   29.6537    9.4980   52.6864 H   0  0  0  0  0  0  0  0  0  0  0  0
   28.2707   11.6172   49.1344 C   0  0  0  0  0  0  0  0  0  0  0  0
   28.3615   11.2500   50.4847 C   0  0  0  0  0  0  0  0  0  0  0  0
   28.6046    9.9872   50.8892 C   0  0  0  0  0  0  0  0  0  0  0  0
   28.7690    9.0257   49.8718 C   0  0  0  0  0  0  0  0  0  0  0  0
   28.6869    9.3506   48.5430 C   0  0  0  0  0  0  0  0  0  0  0  0
   28.4361   10.6522   48.1572 C   0  0  0  0  0  0  0  0  0  0  0  0
   26.6934   13.3926   48.7528 C   0  0  0  0  0  0  0  0  0  0  0  0
   28.0179   12.9342   48.8011 O   0  0  0  0  0  0  0  0  0  0  0  0
   28.8523    8.3886   47.5818 O   0  0  0  0  0  0  0  0  0  0  0  0
   29.3147    7.1078   47.9566 C   0  0  0  0  0  0  0  0  0  0  0  0
   28.3433   11.0313   46.8196 O   0  0  0  0  0  0  0  0  0  0  0  0
   29.1874   12.0801   46.3636 C   0  0  0  0  0  0  0  0  0  0  0  0
   24.0621    8.3738   52.4608 N   0  0  0  0  0  0  0  0  0  0  0  0
   23.8188    8.9878   51.6719 H   0  0  0  0  0  0  0  0  0  0  0  0
   23.1823    7.3584   52.9102 C   0  0  0  0  0  0  0  0  0  0  0  0
   23.6845    6.1908   53.5035 C   0  0  0  0  0  0  0  0  0  0  0  0
   22.8187    5.2129   53.9354 C   0  0  0  0  0  0  0  0  0  0  0  0
   21.4575    5.3583   53.7960 C   0  0  0  0  0  0  0  0  0  0  0  0
   20.5559    4.3924   54.2202 O   0  0  0  0  0  0  0  0  0  0  0  0
   19.2395    4.3070   53.6966 C   0  0  0  0  0  0  0  0  0  0  0  0
   18.3402    3.5842   54.6584 C   0  0  0  0  0  0  0  0  0  0  0  0
   19.2617    3.6189   52.3573 C   0  0  0  0  0  0  0  0  0  0  0  0
   18.6753    5.6776   53.5032 C   0  0  0  0  0  0  0  0  0  0  0  0
   17.4481    5.9116   53.7337 O   0  0  0  0  0  0  0  0  0  0  0  0
   19.5650    6.6832   53.0576 N   0  0  0  0  0  0  0  0  0  0  0  0
   20.9675    6.5222   53.2053 C   0  0  0  0  0  0  0  0  0  0  0  0
   21.8516    7.4484   52.7994 N   0  0  0  0  0  0  0  0  0  0  0  0
   19.1764    7.5394   52.6215 H   0  0  0  0  0  0  0  0  0  0  0  0
 16 17  1  0  0  0
 17 10  1  0  0  0
 10 11  2  0  0  0
 11 12  1  0  0  0
 12  8  1  0  0  0
  8  1  1  0  0  0
  1  2  2  0  0  0
  2  3  1  0  0  0
  3  4  2  0  0  0
  4  5  1  0  0  0
  4  6  1  0  0  0
  6 22  1  0  0  0
 22 24  1  0  0  0
 24 25  2  0  0  0
 25 26  1  0  0  0
 26 27  2  0  0  0
 27 28  1  0  0  0
 28 29  1  0  0  0
 29 30  1  0  0  0
 29 31  1  0  0  0
 29 32  1  0  0  0
 32 33  2  0  0  0
 32 34  1  0  0  0
 34 35  1  0  0  0
 35 36  2  0  0  0
  6  7  2  0  0  0
 12 13  2  0  0  0
 13 14  1  0  0  0
 14 18  1  0  0  0
 18 19  1  0  0  0
 14 15  2  0  0  0
 15 20  1  0  0  0
 20 21  1  0  0  0
 15 10  1  0  0  0
  7  1  1  0  0  0
 36 24  1  0  0  0
 35 27  1  0  0  0
  8  9  1  0  0  0
 22 23  1  0  0  0
 34 37  1  0  0  0
M  END
> <minimizedAffinity>
39.94145

> <CNNscore>
0.5734472871

> <CNNaffinity>
6.5441551208

> <CNN_VS>
3.7527279854

> <CNNaffinity_variance>
0.4700761437

$$$$
[H]c1nc(N([H])c2c([H])c(OC([H])([H])[H])c(OC([H])([H])[H])c(OC([H])([H])[H])c2[H])nc(N([H])c2nc3c(c([H])c2[H])OC(C([H])([H])[H])(C([H])([H])[H])C(=O)N3[H])c1F


 37 40  0  0  0  0  0  0  0  0999 V2000
   24.8421    9.3669   56.0288 C   0  0  0  0  0  0  0  0  0  0  0  0
   25.5727    9.7521   57.0819 N   0  0  0  0  0  0  0  0  0  0  0  0
   26.9006    9.6551   57.1740 C   0  0  0  0  0  0  0  0  0  0  0  0
   27.5913    9.1254   56.1270 C   0  0  0  0  0  0  0  0  0  0  0  0
   28.9225    8.9715   56.0901 F   0  0  0  0  0  0  0  0  0  0  0  0
   26.8830    8.7018   54.9918 C   0  0  0  0  0  0  0  0  0  0  0  0
   25.5537    8.8421   54.9979 N   0  0  0  0  0  0  0  0  0  0  0  0
   23.4446    9.4562   55.9019 N   0  0  0  0  0  0  0  0  0  0  0  0
   22.9258    9.7406   56.7956 H   0  0  0  0  0  0  0  0  0  0  0  0
   21.3618    9.8010   52.8089 C   0  0  0  0  0  0  0  0  0  0  0  0
   22.1158   10.1312   53.9442 C   0  0  0  0  0  0  0  0  0  0  0  0
   22.6929    9.2074   54.7385 C   0  0  0  0  0  0  0  0  0  0  0  0
   22.5030    7.8601   54.3706 C   0  0  0  0  0  0  0  0  0  0  0  0
   21.7725    7.5028   53.2676 C   0  0  0  0  0  0  0  0  0  0  0  0
   21.1918    8.4701   52.4720 C   0  0  0  0  0  0  0  0  0  0  0  0
   21.6369   11.7016   51.3607 C   0  0  0  0  0  0  0  0  0  0  0  0
   20.8014   10.8074   52.0457 O   0  0  0  0  0  0  0  0  0  0  0  0
   21.6094    6.1824   52.9411 O   0  0  0  0  0  0  0  0  0  0  0  0
   20.4706    5.4895   53.4076 C   0  0  0  0  0  0  0  0  0  0  0  0
   20.4402    8.1566   51.3413 O   0  0  0  0  0  0  0  0  0  0  0  0
   21.1281    7.6661   50.1982 C   0  0  0  0  0  0  0  0  0  0  0  0
   27.5739    8.1469   53.8870 N   0  0  0  0  0  0  0  0  0  0  0  0
   27.7593    7.1350   53.8679 H   0  0  0  0  0  0  0  0  0  0  0  0
   27.9929    8.9985   52.8353 C   0  0  0  0  0  0  0  0  0  0  0  0
   28.7970   10.1168   53.1006 C   0  0  0  0  0  0  0  0  0  0  0  0
   29.1966   10.9353   52.0697 C   0  0  0  0  0  0  0  0  0  0  0  0
   28.8203   10.6769   50.7717 C   0  0  0  0  0  0  0  0  0  0  0  0
   29.2051   11.4812   49.7083 O   0  0  0  0  0  0  0  0  0  0  0  0
   28.4877   11.5076   48.4838 C   0  0  0  0  0  0  0  0  0  0  0  0
   29.3699   11.9983   47.3716 C   0  0  0  0  0  0  0  0  0  0  0  0
   27.2631   12.3729   48.6232 C   0  0  0  0  0  0  0  0  0  0  0  0
   28.0406   10.1279   48.1224 C   0  0  0  0  0  0  0  0  0  0  0  0
   28.0375    9.7443   46.9112 O   0  0  0  0  0  0  0  0  0  0  0  0
   27.6280    9.2863   49.1820 N   0  0  0  0  0  0  0  0  0  0  0  0
   28.0211    9.5631   50.5175 C   0  0  0  0  0  0  0  0  0  0  0  0
   27.6562    8.7938   51.5563 N   0  0  0  0  0  0  0  0  0  0  0  0
   27.0340    8.4645   48.9676 H   0  0  0  0  0  0  0  0  0  0  0  0
 16 17  1  0  0  0
 17 10  1  0  0  0
 10 11  2  0  0  0
 11 12  1  0  0  0
 12  8  1  0  0  0
  8  1  1  0  0  0
  1  2  2  0  0  0
  2  3  1  0  0  0
  3  4  2  0  0  0
  4  5  1  0  0  0
  4  6  1  0  0  0
  6 22  1  0  0  0
 22 24  1  0  0  0
 24 25  2  0  0  0
 25 26  1  0  0  0
 26 27  2  0  0  0
 27 28  1  0  0  0
 28 29  1  0  0  0
 29 30  1  0  0  0
 29 31  1  0  0  0
 29 32  1  0  0  0
 32 33  2  0  0  0
 32 34  1  0  0  0
 34 35  1  0  0  0
 35 36  2  0  0  0
  6  7  2  0  0  0
 12 13  2  0  0  0
 13 14  1  0  0  0
 14 18  1  0  0  0
 18 19  1  0  0  0
 14 15  2  0  0  0
 15 20  1  0  0  0
 20 21  1  0  0  0
 15 10  1  0  0  0
  7  1  1  0  0  0
 36 24  1  0  0  0
 35 27  1  0  0  0
  8  9  1  0  0  0
 22 23  1  0  0  0
 34 37  1  0  0  0
M  END
> <minimizedAffinity>
34.83758

> <CNNscore>
0.5650653839

> <CNNaffinity>
6.5688004494

> <CNN_VS>
3.7118017673

> <CNNaffinity_variance>
0.2152610123

$$$$
[H]c1nc(N([H])c2c([H])c(OC([H])([H])[H])c(OC([H])([H])[H])c(OC([H])([H])[H])c2[H])nc(N([H])c2nc3c(c([H])c2[H])OC(C([H])([H])[H])(C([H])([H])[H])C(=O)N3[H])c1F


 37 40  0  0  0  0  0  0  0  0999 V2000
   28.1397   10.1006   52.5927 C   0  0  0  0  0  0  0  0  0  0  0  0
   29.0789   10.4862   53.4648 N   0  0  0  0  0  0  0  0  0  0  0  0
   29.3788    9.8550   54.6019 C   0  0  0  0  0  0  0  0  0  0  0  0
   28.6891    8.7262   54.9241 C   0  0  0  0  0  0  0  0  0  0  0  0
   28.8898    7.9990   56.0322 F   0  0  0  0  0  0  0  0  0  0  0  0
   27.6902    8.2688   54.0507 C   0  0  0  0  0  0  0  0  0  0  0  0
   27.4661    8.9726   52.9365 N   0  0  0  0  0  0  0  0  0  0  0  0
   27.8013   10.7429   51.3886 N   0  0  0  0  0  0  0  0  0  0  0  0
   27.1657   11.5993   51.4950 H   0  0  0  0  0  0  0  0  0  0  0  0
   28.7981   10.7309   47.7789 C   0  0  0  0  0  0  0  0  0  0  0  0
   28.4090   11.1880   49.0463 C   0  0  0  0  0  0  0  0  0  0  0  0
   28.2104   10.3658   50.0960 C   0  0  0  0  0  0  0  0  0  0  0  0
   28.4161    8.9914   49.8613 C   0  0  0  0  0  0  0  0  0  0  0  0
   28.7968    8.5113   48.6354 C   0  0  0  0  0  0  0  0  0  0  0  0
   28.9926    9.3762   47.5774 C   0  0  0  0  0  0  0  0  0  0  0  0
   28.5042   12.9494   46.8971 C   0  0  0  0  0  0  0  0  0  0  0  0
   28.9809   11.6383   46.7529 O   0  0  0  0  0  0  0  0  0  0  0  0
   28.9875    7.1681   48.4448 O   0  0  0  0  0  0  0  0  0  0  0  0
   28.9617    6.3003   49.5588 C   0  0  0  0  0  0  0  0  0  0  0  0
   29.3791    8.9362   46.3131 O   0  0  0  0  0  0  0  0  0  0  0  0
   29.0869    7.5915   45.9567 C   0  0  0  0  0  0  0  0  0  0  0  0
   26.9558    7.0977   54.3589 N   0  0  0  0  0  0  0  0  0  0  0  0
   27.4317    6.3162   54.8293 H   0  0  0  0  0  0  0  0  0  0  0  0
   25.5839    7.0309   54.0119 C   0  0  0  0  0  0  0  0  0  0  0  0
   25.1158    6.0339   53.1432 C   0  0  0  0  0  0  0  0  0  0  0  0
   23.7810    5.9808   52.8147 C   0  0  0  0  0  0  0  0  0  0  0  0
   22.8876    6.8940   53.3257 C   0  0  0  0  0  0  0  0  0  0  0  0
   21.5351    6.8696   53.0155 O   0  0  0  0  0  0  0  0  0  0  0  0
   20.7098    8.0168   53.1477 C   0  0  0  0  0  0  0  0  0  0  0  0
   19.2694    7.6120   53.2799 C   0  0  0  0  0  0  0  0  0  0  0  0
   20.9074    8.9319   51.9682 C   0  0  0  0  0  0  0  0  0  0  0  0
   21.0760    8.7713   54.3850 C   0  0  0  0  0  0  0  0  0  0  0  0
   20.1808    9.3317   55.0911 O   0  0  0  0  0  0  0  0  0  0  0  0
   22.4488    8.8276   54.7224 N   0  0  0  0  0  0  0  0  0  0  0  0
   23.3619    7.8812   54.1884 C   0  0  0  0  0  0  0  0  0  0  0  0
   24.6731    7.8926   54.4796 N   0  0  0  0  0  0  0  0  0  0  0  0
   22.7771    9.5710   55.3656 H   0  0  0  0  0  0  0  0  0  0  0  0
 16 17  1  0  0  0
 17 10  1  0  0  0
 10 11  2  0  0  0
 11 12  1  0  0  0
 12  8  1  0  0  0
  8  1  1  0  0  0
  1  2  2  0  0  0
  2  3  1  0  0  0
  3  4  2  0  0  0
  4  5  1  0  0  0
  4  6  1  0  0  0
  6 22  1  0  0  0
 22 24  1  0  0  0
 24 25  2  0  0  0
 25 26  1  0  0  0
 26 27  2  0  0  0
 27 28  1  0  0  0
 28 29  1  0  0  0
 29 30  1  0  0  0
 29 31  1  0  0  0
 29 32  1  0  0  0
 32 33  2  0  0  0
 32 34  1  0  0  0
 34 35  1  0  0  0
 35 36  2  0  0  0
  6  7  2  0  0  0
 12 13  2  0  0  0
 13 14  1  0  0  0
 14 18  1  0  0  0
 18 19  1  0  0  0
 14 15  2  0  0  0
 15 20  1  0  0  0
 20 21  1  0  0  0
 15 10  1  0  0  0
  7  1  1  0  0  0
 36 24  1  0  0  0
 35 27  1  0  0  0
  8  9  1  0  0  0
 22 23  1  0  0  0
 34 37  1  0  0  0
M  END
> <minimizedAffinity>
36.82103

> <CNNscore>
0.5151367188

> <CNNaffinity>
6.2962660789

> <CNN_VS>
3.2434377670

> <CNNaffinity_variance>
0.0986855775

$$$$
[H]c1nc(N([H])c2c([H])c(OC([H])([H])[H])c(OC([H])([H])[H])c(OC([H])([H])[H])c2[H])nc(N([H])c2nc3c(c([H])c2[H])OC(C([H])([H])[H])(C([H])([H])[H])C(=O)N3[H])c1F


 37 40  0  0  0  0  0  0  0  0999 V2000
   26.3104    7.9589   54.4657 C   0  0  0  0  0  0  0  0  0  0  0  0
   26.2772    8.1595   55.7885 N   0  0  0  0  0  0  0  0  0  0  0  0
   27.0421    9.0270   56.4546 C   0  0  0  0  0  0  0  0  0  0  0  0
   27.9358    9.7804   55.7565 C   0  0  0  0  0  0  0  0  0  0  0  0
   28.7611   10.6857   56.3009 F   0  0  0  0  0  0  0  0  0  0  0  0
   28.0198    9.6174   54.3649 C   0  0  0  0  0  0  0  0  0  0  0  0
   27.2095    8.7219   53.7920 N   0  0  0  0  0  0  0  0  0  0  0  0
   25.5188    7.0543   53.7361 N   0  0  0  0  0  0  0  0  0  0  0  0
   26.0479    6.2167   53.3275 H   0  0  0  0  0  0  0  0  0  0  0  0
   21.9214    6.3222   52.9968 C   0  0  0  0  0  0  0  0  0  0  0  0
   23.2897    6.1373   53.2418 C   0  0  0  0  0  0  0  0  0  0  0  0
   24.1349    7.1550   53.5013 C   0  0  0  0  0  0  0  0  0  0  0  0
   23.5715    8.4468   53.5176 C   0  0  0  0  0  0  0  0  0  0  0  0
   22.2387    8.6627   53.2829 C   0  0  0  0  0  0  0  0  0  0  0  0
   21.3959    7.6016   53.0190 C   0  0  0  0  0  0  0  0  0  0  0  0
   20.3767    4.6526   53.7791 C   0  0  0  0  0  0  0  0  0  0  0  0
   21.1206    5.2262   52.7377 O   0  0  0  0  0  0  0  0  0  0  0  0
   21.7266    9.9330   53.3070 O   0  0  0  0  0  0  0  0  0  0  0  0
   21.5048   10.5665   54.5497 C   0  0  0  0  0  0  0  0  0  0  0  0
   20.0347    7.7704   52.7739 O   0  0  0  0  0  0  0  0  0  0  0  0
   19.1288    7.5178   53.8398 C   0  0  0  0  0  0  0  0  0  0  0  0
   28.9398   10.3869   53.6118 N   0  0  0  0  0  0  0  0  0  0  0  0
   29.6387   10.9582   54.1054 H   0  0  0  0  0  0  0  0  0  0  0  0
   28.8753   10.3512   52.1970 C   0  0  0  0  0  0  0  0  0  0  0  0
   28.7943   11.5399   51.4566 C   0  0  0  0  0  0  0  0  0  0  0  0
   28.7323   11.4906   50.0833 C   0  0  0  0  0  0  0  0  0  0  0  0
   28.7482   10.2879   49.4150 C   0  0  0  0  0  0  0  0  0  0  0  0
   28.6870   10.2015   48.0312 O   0  0  0  0  0  0  0  0  0  0  0  0
   28.2533    9.0246   47.3670 C   0  0  0  0  0  0  0  0  0  0  0  0
   28.7791    8.9943   45.9603 C   0  0  0  0  0  0  0  0  0  0  0  0
   26.7494    8.9489   47.3830 C   0  0  0  0  0  0  0  0  0  0  0  0
   28.7848    7.8158   48.0675 C   0  0  0  0  0  0  0  0  0  0  0  0
   29.1595    6.7969   47.4076 O   0  0  0  0  0  0  0  0  0  0  0  0
   28.8473    7.8655   49.4800 N   0  0  0  0  0  0  0  0  0  0  0  0
   28.8290    9.1117   50.1591 C   0  0  0  0  0  0  0  0  0  0  0  0
   28.8874    9.2104   51.4974 N   0  0  0  0  0  0  0  0  0  0  0  0
   28.9068    6.9773   50.0109 H   0  0  0  0  0  0  0  0  0  0  0  0
 16 17  1  0  0  0
 17 10  1  0  0  0
 10 11  2  0  0  0
 11 12  1  0  0  0
 12  8  1  0  0  0
  8  1  1  0  0  0
  1  2  2  0  0  0
  2  3  1  0  0  0
  3  4  2  0  0  0
  4  5  1  0  0  0
  4  6  1  0  0  0
  6 22  1  0  0  0
 22 24  1  0  0  0
 24 25  2  0  0  0
 25 26  1  0  0  0
 26 27  2  0  0  0
 27 28  1  0  0  0
 28 29  1  0  0  0
 29 30  1  0  0  0
 29 31  1  0  0  0
 29 32  1  0  0  0
 32 33  2  0  0  0
 32 34  1  0  0  0
 34 35  1  0  0  0
 35 36  2  0  0  0
  6  7  2  0  0  0
 12 13  2  0  0  0
 13 14  1  0  0  0
 14 18  1  0  0  0
 18 19  1  0  0  0
 14 15  2  0  0  0
 15 20  1  0  0  0
 20 21  1  0  0  0
 15 10  1  0  0  0
  7  1  1  0  0  0
 36 24  1  0  0  0
 35 27  1  0  0  0
  8  9  1  0  0  0
 22 23  1  0  0  0
 34 37  1  0  0  0
M  END
> <minimizedAffinity>
40.83255

> <CNNscore>
0.4884086251

> <CNNaffinity>
6.1355252266

> <CNN_VS>
2.9966435432

> <CNNaffinity_variance>
0.2327472717

$$$$
[H]c1nc(N([H])c2c([H])c(OC([H])([H])[H])c(OC([H])([H])[H])c(OC([H])([H])[H])c2[H])nc(N([H])c2nc3c(c([H])c2[H])OC(C([H])([H])[H])(C([H])([H])[H])C(=O)N3[H])c1F


 37 40  0  0  0  0  0  0  0  0999 V2000
   23.5330    5.7922   53.4252 C   0  0  0  0  0  0  0  0  0  0  0  0
   23.1022    4.5260   53.3754 N   0  0  0  0  0  0  0  0  0  0  0  0
   21.8232    4.1463   53.4146 C   0  0  0  0  0  0  0  0  0  0  0  0
   20.8601    5.1037   53.5132 C   0  0  0  0  0  0  0  0  0  0  0  0
   19.5430    4.8594   53.5618 F   0  0  0  0  0  0  0  0  0  0  0  0
   21.2468    6.4517   53.5698 C   0  0  0  0  0  0  0  0  0  0  0  0
   22.5538    6.7280   53.5234 N   0  0  0  0  0  0  0  0  0  0  0  0
   24.8709    6.2232   53.3858 N   0  0  0  0  0  0  0  0  0  0  0  0
   25.4909    5.7117   52.6769 H   0  0  0  0  0  0  0  0  0  0  0  0
   25.4427    9.0606   55.7619 C   0  0  0  0  0  0  0  0  0  0  0  0
   24.7973    8.0596   55.0217 C   0  0  0  0  0  0  0  0  0  0  0  0
   25.4472    7.2347   54.1764 C   0  0  0  0  0  0  0  0  0  0  0  0
   26.8394    7.4242   54.0650 C   0  0  0  0  0  0  0  0  0  0  0  0
   27.5013    8.3923   54.7740 C   0  0  0  0  0  0  0  0  0  0  0  0
   26.8102    9.2239   55.6323 C   0  0  0  0  0  0  0  0  0  0  0  0
   23.3796   10.1851   56.2766 C   0  0  0  0  0  0  0  0  0  0  0  0
   24.7048    9.8667   56.6076 O   0  0  0  0  0  0  0  0  0  0  0  0
   28.8558    8.5469   54.6398 O   0  0  0  0  0  0  0  0  0  0  0  0
   29.3788    9.8183   54.3161 C   0  0  0  0  0  0  0  0  0  0  0  0
   27.4383   10.2224   56.3739 O   0  0  0  0  0  0  0  0  0  0  0  0
   28.0928    9.8467   57.5785 C   0  0  0  0  0  0  0  0  0  0  0  0
   20.2678    7.4700   53.6725 N   0  0  0  0  0  0  0  0  0  0  0  0
   19.2926    7.2102   53.8728 H   0  0  0  0  0  0  0  0  0  0  0  0
   20.6550    8.8213   53.4967 C   0  0  0  0  0  0  0  0  0  0  0  0
   20.9218    9.6369   54.6064 C   0  0  0  0  0  0  0  0  0  0  0  0
   21.2970   10.9473   54.4211 C   0  0  0  0  0  0  0  0  0  0  0  0
   21.4171   11.4792   53.1577 C   0  0  0  0  0  0  0  0  0  0  0  0
   21.7931   12.7963   52.9346 O   0  0  0  0  0  0  0  0  0  0  0  0
   21.4901   13.4729   51.7243 C   0  0  0  0  0  0  0  0  0  0  0  0
   22.4322   14.6246   51.5192 C   0  0  0  0  0  0  0  0  0  0  0  0
   20.0592   13.9422   51.7412 C   0  0  0  0  0  0  0  0  0  0  0  0
   21.6593   12.5465   50.5634 C   0  0  0  0  0  0  0  0  0  0  0  0
   22.1318   12.9677   49.4619 O   0  0  0  0  0  0  0  0  0  0  0  0
   21.2721   11.1991   50.7530 N   0  0  0  0  0  0  0  0  0  0  0  0
   21.1501   10.6611   52.0608 C   0  0  0  0  0  0  0  0  0  0  0  0
   20.7871    9.3887   52.2918 N   0  0  0  0  0  0  0  0  0  0  0  0
   21.0789   10.6110   49.9217 H   0  0  0  0  0  0  0  0  0  0  0  0
 16 17  1  0  0  0
 17 10  1  0  0  0
 10 11  2  0  0  0
 11 12  1  0  0  0
 12  8  1  0  0  0
  8  1  1  0  0  0
  1  2  2  0  0  0
  2  3  1  0  0  0
  3  4  2  0  0  0
  4  5  1  0  0  0
  4  6  1  0  0  0
  6 22  1  0  0  0
 22 24  1  0  0  0
 24 25  2  0  0  0
 25 26  1  0  0  0
 26 27  2  0  0  0
 27 28  1  0  0  0
 28 29  1  0  0  0
 29 30  1  0  0  0
 29 31  1  0  0  0
 29 32  1  0  0  0
 32 33  2  0  0  0
 32 34  1  0  0  0
 34 35  1  0  0  0
 35 36  2  0  0  0
  6  7  2  0  0  0
 12 13  2  0  0  0
 13 14  1  0  0  0
 14 18  1  0  0  0
 18 19  1  0  0  0
 14 15  2  0  0  0
 15 20  1  0  0  0
 20 21  1  0  0  0
 15 10  1  0  0  0
  7  1  1  0  0  0
 36 24  1  0  0  0
 35 27  1  0  0  0
  8  9  1  0  0  0
 22 23  1  0  0  0
 34 37  1  0  0  0
M  END
> <minimizedAffinity>
35.37917

> <CNNscore>
0.4789230824

> <CNNaffinity>
6.4530501366

> <CNN_VS>
3.0905146599

> <CNNaffinity_variance>
0.3971877694

$$$$
[H]c1nc(N([H])c2c([H])c(OC([H])([H])[H])c(OC([H])([H])[H])c(OC([H])([H])[H])c2[H])nc(N([H])c2nc3c(c([H])c2[H])OC(C([H])([H])[H])(C([H])([H])[H])C(=O)N3[H])c1F


 37 40  0  0  0  0  0  0  0  0999 V2000
   23.5167    5.8302   53.3624 C   0  0  0  0  0  0  0  0  0  0  0  0
   23.0459    4.5784   53.3096 N   0  0  0  0  0  0  0  0  0  0  0  0
   21.7617    4.2339   53.4253 C   0  0  0  0  0  0  0  0  0  0  0  0
   20.8362    5.2148   53.6127 C   0  0  0  0  0  0  0  0  0  0  0  0
   19.5185    5.0064   53.7438 F   0  0  0  0  0  0  0  0  0  0  0  0
   21.2659    6.5495   53.6773 C   0  0  0  0  0  0  0  0  0  0  0  0
   22.5745    6.7901   53.5500 N   0  0  0  0  0  0  0  0  0  0  0  0
   24.8612    6.2244   53.2439 N   0  0  0  0  0  0  0  0  0  0  0  0
   25.4214    5.7038   52.4931 H   0  0  0  0  0  0  0  0  0  0  0  0
   27.4207    8.4118   54.8835 C   0  0  0  0  0  0  0  0  0  0  0  0
   26.8439    7.4172   54.0806 C   0  0  0  0  0  0  0  0  0  0  0  0
   25.5138    7.2106   54.0067 C   0  0  0  0  0  0  0  0  0  0  0  0
   24.7050    8.0587   54.7898 C   0  0  0  0  0  0  0  0  0  0  0  0
   25.2359    9.0406   55.5848 C   0  0  0  0  0  0  0  0  0  0  0  0
   26.6022    9.2295   55.6418 C   0  0  0  0  0  0  0  0  0  0  0  0
   29.3780    9.6813   54.2982 C   0  0  0  0  0  0  0  0  0  0  0  0
   28.7944    8.5597   54.9049 O   0  0  0  0  0  0  0  0  0  0  0  0
   24.4180    9.8462   56.3323 O   0  0  0  0  0  0  0  0  0  0  0  0
   23.0301    9.5863   56.3624 C   0  0  0  0  0  0  0  0  0  0  0  0
   27.1889   10.2136   56.4348 O   0  0  0  0  0  0  0  0  0  0  0  0
   27.6831    9.8338   57.7124 C   0  0  0  0  0  0  0  0  0  0  0  0
   20.3267    7.5916   53.8715 N   0  0  0  0  0  0  0  0  0  0  0  0
   19.3775    7.3584   54.1926 H   0  0  0  0  0  0  0  0  0  0  0  0
   20.7171    8.9298   53.6187 C   0  0  0  0  0  0  0  0  0  0  0  0
   21.0549    9.7862   54.6770 C   0  0  0  0  0  0  0  0  0  0  0  0
   21.4323   11.0832   54.4171 C   0  0  0  0  0  0  0  0  0  0  0  0
   21.4858   11.5619   53.1282 C   0  0  0  0  0  0  0  0  0  0  0  0
   21.8619   12.8641   52.8301 O   0  0  0  0  0  0  0  0  0  0  0  0
   21.4974   13.4949   51.6120 C   0  0  0  0  0  0  0  0  0  0  0  0
   22.4380   14.6254   51.3068 C   0  0  0  0  0  0  0  0  0  0  0  0
   20.0747   13.9824   51.6903 C   0  0  0  0  0  0  0  0  0  0  0  0
   21.5909   12.5202   50.4826 C   0  0  0  0  0  0  0  0  0  0  0  0
   22.0042   12.8904   49.3397 O   0  0  0  0  0  0  0  0  0  0  0  0
   21.2014   11.1865   50.7490 N   0  0  0  0  0  0  0  0  0  0  0  0
   21.1485   10.7035   52.0827 C   0  0  0  0  0  0  0  0  0  0  0  0
   20.7863    9.4462   52.3860 N   0  0  0  0  0  0  0  0  0  0  0  0
   20.9552   10.5677   49.9549 H   0  0  0  0  0  0  0  0  0  0  0  0
 16 17  1  0  0  0
 17 10  1  0  0  0
 10 11  2  0  0  0
 11 12  1  0  0  0
 12  8  1  0  0  0
  8  1  1  0  0  0
  1  2  2  0  0  0
  2  3  1  0  0  0
  3  4  2  0  0  0
  4  5  1  0  0  0
  4  6  1  0  0  0
  6 22  1  0  0  0
 22 24  1  0  0  0
 24 25  2  0  0  0
 25 26  1  0  0  0
 26 27  2  0  0  0
 27 28  1  0  0  0
 28 29  1  0  0  0
 29 30  1  0  0  0
 29 31  1  0  0  0
 29 32  1  0  0  0
 32 33  2  0  0  0
 32 34  1  0  0  0
 34 35  1  0  0  0
 35 36  2  0  0  0
  6  7  2  0  0  0
 12 13  2  0  0  0
 13 14  1  0  0  0
 14 18  1  0  0  0
 18 19  1  0  0  0
 14 15  2  0  0  0
 15 20  1  0  0  0
 20 21  1  0  0  0
 15 10  1  0  0  0
  7  1  1  0  0  0
 36 24  1  0  0  0
 35 27  1  0  0  0
  8  9  1  0  0  0
 22 23  1  0  0  0
 34 37  1  0  0  0
M  END
> <minimizedAffinity>
34.20495

> <CNNscore>
0.4786119163

> <CNNaffinity>
6.4742865562

> <CNN_VS>
3.0986707211

> <CNNaffinity_variance>
0.3727350235

$$$$
[H]c1nc(N([H])c2c([H])c(OC([H])([H])[H])c(OC([H])([H])[H])c(OC([H])([H])[H])c2[H])nc(N([H])c2nc3c(c([H])c2[H])OC(C([H])([H])[H])(C([H])([H])[H])C(=O)N3[H])c1F


 37 40  0  0  0  0  0  0  0  0999 V2000
   24.1588    6.4380   54.2910 C   0  0  0  0  0  0  0  0  0  0  0  0
   24.0714    5.4004   55.1318 N   0  0  0  0  0  0  0  0  0  0  0  0
   23.0653    5.1806   55.9808 C   0  0  0  0  0  0  0  0  0  0  0  0
   22.0329    6.0676   56.0142 C   0  0  0  0  0  0  0  0  0  0  0  0
   20.9643    5.9655   56.8171 F   0  0  0  0  0  0  0  0  0  0  0  0
   22.0645    7.1782   55.1565 C   0  0  0  0  0  0  0  0  0  0  0  0
   23.1174    7.3081   54.3433 N   0  0  0  0  0  0  0  0  0  0  0  0
   25.2037    6.6965   53.3862 N   0  0  0  0  0  0  0  0  0  0  0  0
   25.1871    6.1035   52.4936 H   0  0  0  0  0  0  0  0  0  0  0  0
   27.8560    9.2793   52.8221 C   0  0  0  0  0  0  0  0  0  0  0  0
   26.8103    8.3767   52.5803 C   0  0  0  0  0  0  0  0  0  0  0  0
   26.2390    7.6353   53.5505 C   0  0  0  0  0  0  0  0  0  0  0  0
   26.7490    7.8100   54.8528 C   0  0  0  0  0  0  0  0  0  0  0  0
   27.7695    8.6835   55.1238 C   0  0  0  0  0  0  0  0  0  0  0  0
   28.3367    9.4300   54.1105 C   0  0  0  0  0  0  0  0  0  0  0  0
   27.9434    9.7550   50.4659 C   0  0  0  0  0  0  0  0  0  0  0  0
   28.3891   10.0028   51.7724 O   0  0  0  0  0  0  0  0  0  0  0  0
   28.2393    8.8267   56.4027 O   0  0  0  0  0  0  0  0  0  0  0  0
   28.0502   10.0536   57.0764 C   0  0  0  0  0  0  0  0  0  0  0  0
   29.3759   10.3303   54.3361 O   0  0  0  0  0  0  0  0  0  0  0  0
   29.0455   11.6170   54.8420 C   0  0  0  0  0  0  0  0  0  0  0  0
   21.0051    8.1180   55.1685 N   0  0  0  0  0  0  0  0  0  0  0  0
   20.1025    7.8515   55.5841 H   0  0  0  0  0  0  0  0  0  0  0  0
   21.2141    9.4021   54.6077 C   0  0  0  0  0  0  0  0  0  0  0  0
   21.5416   10.4931   55.4264 C   0  0  0  0  0  0  0  0  0  0  0  0
   21.7418   11.7345   54.8685 C   0  0  0  0  0  0  0  0  0  0  0  0
   21.6264   11.9295   53.5113 C   0  0  0  0  0  0  0  0  0  0  0  0
   21.8214   13.1676   52.9155 O   0  0  0  0  0  0  0  0  0  0  0  0
   21.2809   13.4858   51.6422 C   0  0  0  0  0  0  0  0  0  0  0  0
   22.0537   14.6092   51.0122 C   0  0  0  0  0  0  0  0  0  0  0  0
   19.8237   13.8414   51.7758 C   0  0  0  0  0  0  0  0  0  0  0  0
   21.3875   12.3057   50.7311 C   0  0  0  0  0  0  0  0  0  0  0  0
   21.6534   12.4607   49.4985 O   0  0  0  0  0  0  0  0  0  0  0  0
   21.1801   11.0289   51.3040 N   0  0  0  0  0  0  0  0  0  0  0  0
   21.3006   10.8394   52.7055 C   0  0  0  0  0  0  0  0  0  0  0  0
   21.1146    9.6473   53.2959 N   0  0  0  0  0  0  0  0  0  0  0  0
   20.9388   10.2342   50.6841 H   0  0  0  0  0  0  0  0  0  0  0  0
 16 17  1  0  0  0
 17 10  1  0  0  0
 10 11  2  0  0  0
 11 12  1  0  0  0
 12  8  1  0  0  0
  8  1  1  0  0  0
  1  2  2  0  0  0
  2  3  1  0  0  0
  3  4  2  0  0  0
  4  5  1  0  0  0
  4  6  1  0  0  0
  6 22  1  0  0  0
 22 24  1  0  0  0
 24 25  2  0  0  0
 25 26  1  0  0  0
 26 27  2  0  0  0
 27 28  1  0  0  0
 28 29  1  0  0  0
 29 30  1  0  0  0
 29 31  1  0  0  0
 29 32  1  0  0  0
 32 33  2  0  0  0
 32 34  1  0  0  0
 34 35  1  0  0  0
 35 36  2  0  0  0
  6  7  2  0  0  0
 12 13  2  0  0  0
 13 14  1  0  0  0
 14 18  1  0  0  0
 18 19  1  0  0  0
 14 15  2  0  0  0
 15 20  1  0  0  0
 20 21  1  0  0  0
 15 10  1  0  0  0
  7  1  1  0  0  0
 36 24  1  0  0  0
 35 27  1  0  0  0
  8  9  1  0  0  0
 22 23  1  0  0  0
 34 37  1  0  0  0
M  END
> <minimizedAffinity>
38.90522

> <CNNscore>
0.4324995577

> <CNNaffinity>
5.9585409164

> <CNN_VS>
2.5770664215

> <CNNaffinity_variance>
0.7230130434

$$$$
[H]N=C(N([H])[H])N([H])C([H])([H])C([H])([H])C([H])([H])[C@@]1([H])C(=O)N([H])[C@]([H])(C([H])([H])c2c([H])c([H])c(O[H])c([H])c2[H])C(=O)N2C([H])([H])C([H])([H])C([H])([H])[C@@]2([H])C(=O)N1[H]


 37 39  0  0  0  0  0  0  0  0999 V2000
   21.2782    5.5056   54.3941 C   0  0  0  0  0  0  0  0  0  0  0  0
   20.8478    6.6230   53.5621 N   0  0  0  0  0  0  0  0  0  0  0  0
   20.4993    7.9028   54.0122 C   0  0  0  0  0  0  0  0  0  0  0  0
   19.3840    8.4006   53.6214 O   0  0  0  0  0  0  0  0  0  0  0  0
   21.3108    8.7593   54.9163 C   0  0  0  0  0  0  0  0  0  0  0  0
   20.4781    9.8975   55.4671 C   0  0  0  0  0  0  0  0  0  0  0  0
   21.0875   11.1302   54.8874 C   0  0  0  0  0  0  0  0  0  0  0  0
   22.5446   10.7554   54.7591 C   0  0  0  0  0  0  0  0  0  0  0  0
   22.4217    9.3901   54.2171 N   0  0  0  0  0  0  0  0  0  0  0  0
   23.1873    8.7363   53.2143 C   0  0  0  0  0  0  0  0  0  0  0  0
   23.5117    9.3639   52.1725 O   0  0  0  0  0  0  0  0  0  0  0  0
   23.6493    7.3225   53.3050 C   0  0  0  0  0  0  0  0  0  0  0  0
   23.4824    6.8174   54.6369 N   0  0  0  0  0  0  0  0  0  0  0  0
   22.5908    5.8145   55.0392 C   0  0  0  0  0  0  0  0  0  0  0  0
   22.9450    5.1164   56.0422 O   0  0  0  0  0  0  0  0  0  0  0  0
   20.7890    6.4559   52.5112 H   0  0  0  0  0  0  0  0  0  0  0  0
   24.1111    7.2670   55.3738 H   0  0  0  0  0  0  0  0  0  0  0  0
   21.4300    4.2797   53.5434 C   0  0  0  0  0  0  0  0  0  0  0  0
   20.1747    3.6224   53.1122 C   0  0  0  0  0  0  0  0  0  0  0  0
   19.1189    3.4646   54.1501 C   0  0  0  0  0  0  0  0  0  0  0  0
   17.9413    4.2728   53.8544 N   0  0  0  0  0  0  0  0  0  0  0  0
   18.0795    5.1115   53.2613 H   0  0  0  0  0  0  0  0  0  0  0  0
   15.5595    3.7784   53.4229 N   0  0  0  0  0  0  0  0  0  0  0  0
   16.6426    3.9689   54.3320 C   0  0  0  0  0  0  0  0  0  0  0  0
   16.3576    3.8465   55.5930 N   0  0  0  0  0  0  0  0  0  0  0  0
   14.9438    2.9319   53.5139 H   0  0  0  0  0  0  0  0  0  0  0  0
   15.3323    4.4365   52.6576 H   0  0  0  0  0  0  0  0  0  0  0  0
   17.1448    3.9848   56.2556 H   0  0  0  0  0  0  0  0  0  0  0  0
   25.1487    7.3959   52.9585 C   0  0  0  0  0  0  0  0  0  0  0  0
   25.9242    8.0364   54.0158 C   0  0  0  0  0  0  0  0  0  0  0  0
   27.2903    8.1290   53.9071 C   0  0  0  0  0  0  0  0  0  0  0  0
   28.0280    8.7334   54.9035 C   0  0  0  0  0  0  0  0  0  0  0  0
   27.4129    9.2620   56.0373 C   0  0  0  0  0  0  0  0  0  0  0  0
   28.1711    9.8666   57.0300 O   0  0  0  0  0  0  0  0  0  0  0  0
   26.0566    9.1707   56.1464 C   0  0  0  0  0  0  0  0  0  0  0  0
   25.3285    8.5620   55.1398 C   0  0  0  0  0  0  0  0  0  0  0  0
   28.5341    9.3058   57.8044 H   0  0  0  0  0  0  0  0  0  0  0  0
 23 24  1  0  0  0
 24 25  2  0  0  0
 24 21  1  0  0  0
 21 20  1  0  0  0
 20 19  1  0  0  0
 19 18  1  0  0  0
 18  1  1  0  0  0
  1  2  1  0  0  0
  2  3  1  0  0  0
  3  4  2  0  0  0
  3  5  1  0  0  0
  5  6  1  0  0  0
  6  7  1  0  0  0
  7  8  1  0  0  0
  8  9  1  0  0  0
  9 10  1  0  0  0
 10 11  2  0  0  0
 10 12  1  0  0  0
 12 29  1  0  0  0
 29 30  1  0  0  0
 30 31  2  0  0  0
 31 32  1  0  0  0
 32 33  2  0  0  0
 33 34  1  0  0  0
 33 35  1  0  0  0
 35 36  2  0  0  0
 12 13  1  0  0  0
 13 14  1  0  0  0
 14 15  2  0  0  0
 14  1  1  0  0  0
  9  5  1  0  0  0
 36 30  1  0  0  0
 23 26  1  0  0  0
 23 27  1  0  0  0
 25 28  1  0  0  0
 21 22  1  0  0  0
  2 16  1  0  0  0
 34 37  1  0  0  0
 13 17  1  0  0  0
M  END
> <minimizedAffinity>
15.57480

> <CNNscore>
0.5873151422

> <CNNaffinity>
6.6018676758

> <CNN_VS>
3.8773767948

> <CNNaffinity_variance>
0.7200137377

$$$$
[H]N=C(N([H])[H])N([H])C([H])([H])C([H])([H])C([H])([H])[C@@]1([H])C(=O)N([H])[C@]([H])(C([H])([H])c2c([H])c([H])c(O[H])c([H])c2[H])C(=O)N2C([H])([H])C([H])([H])C([H])([H])[C@@]2([H])C(=O)N1[H]


 37 39  0  0  0  0  0  0  0  0999 V2000
   23.9856    8.4309   54.2163 C   0  0  0  0  0  0  0  0  0  0  0  0
   24.7306    9.6039   54.6577 N   0  0  0  0  0  0  0  0  0  0  0  0
   25.4939    9.7066   55.8278 C   0  0  0  0  0  0  0  0  0  0  0  0
   25.2863   10.7078   56.6017 O   0  0  0  0  0  0  0  0  0  0  0  0
   26.5428    8.7509   56.2703 C   0  0  0  0  0  0  0  0  0  0  0  0
   26.8960    8.9782   57.7249 C   0  0  0  0  0  0  0  0  0  0  0  0
   28.3121    9.4486   57.7037 C   0  0  0  0  0  0  0  0  0  0  0  0
   28.8834    8.7381   56.4999 C   0  0  0  0  0  0  0  0  0  0  0  0
   27.7865    8.9274   55.5336 N   0  0  0  0  0  0  0  0  0  0  0  0
   27.8376    9.2251   54.1450 C   0  0  0  0  0  0  0  0  0  0  0  0
   28.6599   10.0794   53.7227 O   0  0  0  0  0  0  0  0  0  0  0  0
   26.9664    8.5834   53.1205 C   0  0  0  0  0  0  0  0  0  0  0  0
   26.2985    7.4377   53.6664 N   0  0  0  0  0  0  0  0  0  0  0  0
   24.9227    7.3105   53.8984 C   0  0  0  0  0  0  0  0  0  0  0  0
   24.4471    6.1325   53.8287 O   0  0  0  0  0  0  0  0  0  0  0  0
   24.6934   10.4692   54.0366 H   0  0  0  0  0  0  0  0  0  0  0  0
   26.9353    6.6161   53.9110 H   0  0  0  0  0  0  0  0  0  0  0  0
   23.2000    8.7730   52.9854 C   0  0  0  0  0  0  0  0  0  0  0  0
   22.1333    9.7873   53.1503 C   0  0  0  0  0  0  0  0  0  0  0  0
   21.0424    9.4524   54.1066 C   0  0  0  0  0  0  0  0  0  0  0  0
   20.9785    8.0207   54.3781 N   0  0  0  0  0  0  0  0  0  0  0  0
   21.0222    7.7246   55.3704 H   0  0  0  0  0  0  0  0  0  0  0  0
   21.4387    5.7426   53.5402 N   0  0  0  0  0  0  0  0  0  0  0  0
   20.8617    7.0360   53.3663 C   0  0  0  0  0  0  0  0  0  0  0  0
   20.2397    7.2372   52.2443 N   0  0  0  0  0  0  0  0  0  0  0  0
   20.8620    4.8841   53.3549 H   0  0  0  0  0  0  0  0  0  0  0  0
   22.4151    5.5879   53.8454 H   0  0  0  0  0  0  0  0  0  0  0  0
   19.8194    8.1780   52.1164 H   0  0  0  0  0  0  0  0  0  0  0  0
   27.9483    8.1397   52.0192 C   0  0  0  0  0  0  0  0  0  0  0  0
   28.1167    9.1621   50.9915 C   0  0  0  0  0  0  0  0  0  0  0  0
   28.4242   10.4523   51.3487 C   0  0  0  0  0  0  0  0  0  0  0  0
   28.5844   11.4224   50.3815 C   0  0  0  0  0  0  0  0  0  0  0  0
   28.4401   11.1227   49.0278 C   0  0  0  0  0  0  0  0  0  0  0  0
   28.6049   12.1115   48.0682 O   0  0  0  0  0  0  0  0  0  0  0  0
   28.1348    9.8420   48.6719 C   0  0  0  0  0  0  0  0  0  0  0  0
   27.9768    8.8785   49.6520 C   0  0  0  0  0  0  0  0  0  0  0  0
   27.8001   12.6658   47.7666 H   0  0  0  0  0  0  0  0  0  0  0  0
 23 24  1  0  0  0
 24 25  2  0  0  0
 24 21  1  0  0  0
 21 20  1  0  0  0
 20 19  1  0  0  0
 19 18  1  0  0  0
 18  1  1  0  0  0
  1  2  1  0  0  0
  2  3  1  0  0  0
  3  4  2  0  0  0
  3  5  1  0  0  0
  5  6  1  0  0  0
  6  7  1  0  0  0
  7  8  1  0  0  0
  8  9  1  0  0  0
  9 10  1  0  0  0
 10 11  2  0  0  0
 10 12  1  0  0  0
 12 29  1  0  0  0
 29 30  1  0  0  0
 30 31  2  0  0  0
 31 32  1  0  0  0
 32 33  2  0  0  0
 33 34  1  0  0  0
 33 35  1  0  0  0
 35 36  2  0  0  0
 12 13  1  0  0  0
 13 14  1  0  0  0
 14 15  2  0  0  0
 14  1  1  0  0  0
  9  5  1  0  0  0
 36 30  1  0  0  0
 23 26  1  0  0  0
 23 27  1  0  0  0
 25 28  1  0  0  0
 21 22  1  0  0  0
  2 16  1  0  0  0
 34 37  1  0  0  0
 13 17  1  0  0  0
M  END
> <minimizedAffinity>
27.25505

> <CNNscore>
0.5127531886

> <CNNaffinity>
6.4266853333

> <CNN_VS>
3.2953033447

> <CNNaffinity_variance>
1.0414658785

$$$$
[H]N=C(N([H])[H])N([H])C([H])([H])C([H])([H])C([H])([H])[C@@]1([H])C(=O)N([H])[C@]([H])(C([H])([H])c2c([H])c([H])c(O[H])c([H])c2[H])C(=O)N2C([H])([H])C([H])([H])C([H])([H])[C@@]2([H])C(=O)N1[H]


 37 39  0  0  0  0  0  0  0  0999 V2000
   24.0330   11.1263   56.0217 C   0  0  0  0  0  0  0  0  0  0  0  0
   25.4231   11.5418   55.8776 N   0  0  0  0  0  0  0  0  0  0  0  0
   26.4209   11.4445   56.8560 C   0  0  0  0  0  0  0  0  0  0  0  0
   27.1152   12.4897   57.1206 O   0  0  0  0  0  0  0  0  0  0  0  0
   26.7623   10.2247   57.6337 C   0  0  0  0  0  0  0  0  0  0  0  0
   27.6246   10.5741   58.8282 C   0  0  0  0  0  0  0  0  0  0  0  0
   28.9393    9.9243   58.5515 C   0  0  0  0  0  0  0  0  0  0  0  0
   28.5479    8.6992   57.7603 C   0  0  0  0  0  0  0  0  0  0  0  0
   27.5450    9.2798   56.8493 N   0  0  0  0  0  0  0  0  0  0  0  0
   27.3147    9.0287   55.4697 C   0  0  0  0  0  0  0  0  0  0  0  0
   28.2938    8.9189   54.6864 O   0  0  0  0  0  0  0  0  0  0  0  0
   25.9622    8.8808   54.8619 C   0  0  0  0  0  0  0  0  0  0  0  0
   24.9620    8.7274   55.8782 N   0  0  0  0  0  0  0  0  0  0  0  0
   23.9498    9.6436   56.1924 C   0  0  0  0  0  0  0  0  0  0  0  0
   22.8739    9.1536   56.6628 O   0  0  0  0  0  0  0  0  0  0  0  0
   25.7135   11.9620   54.9422 H   0  0  0  0  0  0  0  0  0  0  0  0
   25.0173    7.8174   56.4344 H   0  0  0  0  0  0  0  0  0  0  0  0
   23.2652   11.5193   54.7948 C   0  0  0  0  0  0  0  0  0  0  0  0
   22.0533   10.7213   54.4971 C   0  0  0  0  0  0  0  0  0  0  0  0
   22.1719    9.7199   53.4018 C   0  0  0  0  0  0  0  0  0  0  0  0
   20.8898    9.4706   52.7525 N   0  0  0  0  0  0  0  0  0  0  0  0
   20.1774   10.2214   52.8074 H   0  0  0  0  0  0  0  0  0  0  0  0
   19.8074    7.2505   52.6927 N   0  0  0  0  0  0  0  0  0  0  0  0
   20.5805    8.2717   52.0639 C   0  0  0  0  0  0  0  0  0  0  0  0
   20.9680    8.0276   50.8487 N   0  0  0  0  0  0  0  0  0  0  0  0
   18.9843    6.8340   52.1897 H   0  0  0  0  0  0  0  0  0  0  0  0
   20.0081    6.8813   53.6381 H   0  0  0  0  0  0  0  0  0  0  0  0
   21.5306    8.7699   50.3900 H   0  0  0  0  0  0  0  0  0  0  0  0
   26.0649    7.5874   54.0310 C   0  0  0  0  0  0  0  0  0  0  0  0
   24.7819    6.8998   53.9277 C   0  0  0  0  0  0  0  0  0  0  0  0
   24.1296    6.8384   52.7204 C   0  0  0  0  0  0  0  0  0  0  0  0
   22.9168    6.1898   52.6173 C   0  0  0  0  0  0  0  0  0  0  0  0
   22.3256    5.5845   53.7251 C   0  0  0  0  0  0  0  0  0  0  0  0
   21.1046    4.9362   53.6028 O   0  0  0  0  0  0  0  0  0  0  0  0
   22.9722    5.6448   54.9243 C   0  0  0  0  0  0  0  0  0  0  0  0
   24.1881    6.2985   55.0141 C   0  0  0  0  0  0  0  0  0  0  0  0
   20.2363    5.4569   53.7473 H   0  0  0  0  0  0  0  0  0  0  0  0
 23 24  1  0  0  0
 24 25  2  0  0  0
 24 21  1  0  0  0
 21 20  1  0  0  0
 20 19  1  0  0  0
 19 18  1  0  0  0
 18  1  1  0  0  0
  1  2  1  0  0  0
  2  3  1  0  0  0
  3  4  2  0  0  0
  3  5  1  0  0  0
  5  6  1  0  0  0
  6  7  1  0  0  0
  7  8  1  0  0  0
  8  9  1  0  0  0
  9 10  1  0  0  0
 10 11  2  0  0  0
 10 12  1  0  0  0
 12 29  1  0  0  0
 29 30  1  0  0  0
 30 31  2  0  0  0
 31 32  1  0  0  0
 32 33  2  0  0  0
 33 34  1  0  0  0
 33 35  1  0  0  0
 35 36  2  0  0  0
 12 13  1  0  0  0
 13 14  1  0  0  0
 14 15  2  0  0  0
 14  1  1  0  0  0
  9  5  1  0  0  0
 36 30  1  0  0  0
 23 26  1  0  0  0
 23 27  1  0  0  0
 25 28  1  0  0  0
 21 22  1  0  0  0
  2 16  1  0  0  0
 34 37  1  0  0  0
 13 17  1  0  0  0
M  END
> <minimizedAffinity>
28.53805

> <CNNscore>
0.4861317575

> <CNNaffinity>
6.4221954346

> <CNN_VS>
3.1220331192

> <CNNaffinity_variance>
1.1506762505

$$$$
[H]N=C(N([H])[H])N([H])C([H])([H])C([H])([H])C([H])([H])[C@@]1([H])C(=O)N([H])[C@]([H])(C([H])([H])c2c([H])c([H])c(O[H])c([H])c2[H])C(=O)N2C([H])([H])C([H])([H])C([H])([H])[C@@]2([H])C(=O)N1[H]


 37 39  0  0  0  0  0  0  0  0999 V2000
   21.5403    8.5991   51.8368 C   0  0  0  0  0  0  0  0  0  0  0  0
   20.8052    7.9277   52.9021 N   0  0  0  0  0  0  0  0  0  0  0  0
   20.9315    6.5831   53.2737 C   0  0  0  0  0  0  0  0  0  0  0  0
   19.8650    5.8778   53.3713 O   0  0  0  0  0  0  0  0  0  0  0  0
   22.2054    5.8780   53.5730 C   0  0  0  0  0  0  0  0  0  0  0  0
   21.9981    4.3783   53.5850 C   0  0  0  0  0  0  0  0  0  0  0  0
   22.2463    3.9711   54.9991 C   0  0  0  0  0  0  0  0  0  0  0  0
   23.2776    4.9729   55.4605 C   0  0  0  0  0  0  0  0  0  0  0  0
   22.7158    6.2130   54.8952 N   0  0  0  0  0  0  0  0  0  0  0  0
   22.6426    7.5172   55.4546 C   0  0  0  0  0  0  0  0  0  0  0  0
   22.3252    7.6572   56.6645 O   0  0  0  0  0  0  0  0  0  0  0  0
   22.9218    8.7687   54.6955 C   0  0  0  0  0  0  0  0  0  0  0  0
   23.5520    8.4730   53.4416 N   0  0  0  0  0  0  0  0  0  0  0  0
   22.9966    8.6579   52.1688 C   0  0  0  0  0  0  0  0  0  0  0  0
   23.8174    8.8950   51.2260 O   0  0  0  0  0  0  0  0  0  0  0  0
   20.1022    8.5094   53.4528 H   0  0  0  0  0  0  0  0  0  0  0  0
   24.5401    8.0743   53.5142 H   0  0  0  0  0  0  0  0  0  0  0  0
   21.0205    9.9966   51.6759 C   0  0  0  0  0  0  0  0  0  0  0  0
   21.8686   11.0783   52.2277 C   0  0  0  0  0  0  0  0  0  0  0  0
   21.1553   12.2556   52.7949 C   0  0  0  0  0  0  0  0  0  0  0  0
   20.9384   12.1196   54.2308 N   0  0  0  0  0  0  0  0  0  0  0  0
   20.6129   12.9603   54.7422 H   0  0  0  0  0  0  0  0  0  0  0  0
   20.2434    9.8194   54.8054 N   0  0  0  0  0  0  0  0  0  0  0  0
   21.1486   10.9136   54.9440 C   0  0  0  0  0  0  0  0  0  0  0  0
   22.1504   10.7271   55.7489 N   0  0  0  0  0  0  0  0  0  0  0  0
   20.6144    8.8561   54.6098 H   0  0  0  0  0  0  0  0  0  0  0  0
   19.2162    9.9128   54.8867 H   0  0  0  0  0  0  0  0  0  0  0  0
   22.8099   11.5225   55.8507 H   0  0  0  0  0  0  0  0  0  0  0  0
   23.8978    9.5452   55.6000 C   0  0  0  0  0  0  0  0  0  0  0  0
   25.2846    9.1506   55.3750 C   0  0  0  0  0  0  0  0  0  0  0  0
   26.2522    9.4849   56.2908 C   0  0  0  0  0  0  0  0  0  0  0  0
   27.5643    9.1145   56.0829 C   0  0  0  0  0  0  0  0  0  0  0  0
   27.9408    8.3973   54.9484 C   0  0  0  0  0  0  0  0  0  0  0  0
   29.2659    8.0329   54.7556 O   0  0  0  0  0  0  0  0  0  0  0  0
   26.9810    8.0648   54.0384 C   0  0  0  0  0  0  0  0  0  0  0  0
   25.6686    8.4425   54.2589 C   0  0  0  0  0  0  0  0  0  0  0  0
   29.8972    8.6608   54.2524 H   0  0  0  0  0  0  0  0  0  0  0  0
 23 24  1  0  0  0
 24 25  2  0  0  0
 24 21  1  0  0  0
 21 20  1  0  0  0
 20 19  1  0  0  0
 19 18  1  0  0  0
 18  1  1  0  0  0
  1  2  1  0  0  0
  2  3  1  0  0  0
  3  4  2  0  0  0
  3  5  1  0  0  0
  5  6  1  0  0  0
  6  7  1  0  0  0
  7  8  1  0  0  0
  8  9  1  0  0  0
  9 10  1  0  0  0
 10 11  2  0  0  0
 10 12  1  0  0  0
 12 29  1  0  0  0
 29 30  1  0  0  0
 30 31  2  0  0  0
 31 32  1  0  0  0
 32 33  2  0  0  0
 33 34  1  0  0  0
 33 35  1  0  0  0
 35 36  2  0  0  0
 12 13  1  0  0  0
 13 14  1  0  0  0
 14 15  2  0  0  0
 14  1  1  0  0  0
  9  5  1  0  0  0
 36 30  1  0  0  0
 23 26  1  0  0  0
 23 27  1  0  0  0
 25 28  1  0  0  0
 21 22  1  0  0  0
  2 16  1  0  0  0
 34 37  1  0  0  0
 13 17  1  0  0  0
M  END
> <minimizedAffinity>
30.36988

> <CNNscore>
0.4689872563

> <CNNaffinity>
6.4472937584

> <CNN_VS>
3.0236985683

> <CNNaffinity_variance>
0.4755045474

$$$$
[H]N=C(N([H])[H])N([H])C([H])([H])C([H])([H])C([H])([H])[C@@]1([H])C(=O)N([H])[C@]([H])(C([H])([H])c2c([H])c([H])c(O[H])c([H])c2[H])C(=O)N2C([H])([H])C([H])([H])C([H])([H])[C@@]2([H])C(=O)N1[H]


 37 39  0  0  0  0  0  0  0  0999 V2000
   26.1672    8.6166   54.2637 C   0  0  0  0  0  0  0  0  0  0  0  0
   25.3387    8.5999   55.4633 N   0  0  0  0  0  0  0  0  0  0  0  0
   24.2583    9.4494   55.7340 C   0  0  0  0  0  0  0  0  0  0  0  0
   24.2347   10.0607   56.8611 O   0  0  0  0  0  0  0  0  0  0  0  0
   23.1125    9.7179   54.8261 C   0  0  0  0  0  0  0  0  0  0  0  0
   22.3383   10.9354   55.2853 C   0  0  0  0  0  0  0  0  0  0  0  0
   21.0013   10.4073   55.6861 C   0  0  0  0  0  0  0  0  0  0  0  0
   20.8123    9.2327   54.7562 C   0  0  0  0  0  0  0  0  0  0  0  0
   22.1526    8.6227   54.8218 N   0  0  0  0  0  0  0  0  0  0  0  0
   22.5281    7.2532   54.8739 C   0  0  0  0  0  0  0  0  0  0  0  0
   21.8834    6.4598   55.6081 O   0  0  0  0  0  0  0  0  0  0  0  0
   23.6604    6.6675   54.1022 C   0  0  0  0  0  0  0  0  0  0  0  0
   24.1168    7.5819   53.0960 N   0  0  0  0  0  0  0  0  0  0  0  0
   25.3560    8.2348   53.0676 C   0  0  0  0  0  0  0  0  0  0  0  0
   25.8152    8.5200   51.9158 O   0  0  0  0  0  0  0  0  0  0  0  0
   25.5734    7.8762   56.2097 H   0  0  0  0  0  0  0  0  0  0  0  0
   23.4253    7.7648   52.3031 H   0  0  0  0  0  0  0  0  0  0  0  0
   27.2930    7.6383   54.4213 C   0  0  0  0  0  0  0  0  0  0  0  0
   28.6335    8.2171   54.6699 C   0  0  0  0  0  0  0  0  0  0  0  0
   28.6718    9.5006   55.4235 C   0  0  0  0  0  0  0  0  0  0  0  0
   27.8719    9.4394   56.6416 N   0  0  0  0  0  0  0  0  0  0  0  0
   26.9367    8.9978   56.5722 H   0  0  0  0  0  0  0  0  0  0  0  0
   28.4702    9.0783   59.0113 N   0  0  0  0  0  0  0  0  0  0  0  0
   28.3070    9.9466   57.8908 C   0  0  0  0  0  0  0  0  0  0  0  0
   28.5792   11.1997   58.0955 N   0  0  0  0  0  0  0  0  0  0  0  0
   29.3594    9.1082   59.5702 H   0  0  0  0  0  0  0  0  0  0  0  0
   27.7514    8.4012   59.3200 H   0  0  0  0  0  0  0  0  0  0  0  0
   28.4609   11.8326   57.2810 H   0  0  0  0  0  0  0  0  0  0  0  0
   23.0524    5.4186   53.4356 C   0  0  0  0  0  0  0  0  0  0  0  0
   21.5935    5.4482   53.4454 C   0  0  0  0  0  0  0  0  0  0  0  0
   20.9262    6.5914   53.0785 C   0  0  0  0  0  0  0  0  0  0  0  0
   19.5474    6.6247   53.0860 C   0  0  0  0  0  0  0  0  0  0  0  0
   18.8005    5.5095   53.4625 C   0  0  0  0  0  0  0  0  0  0  0  0
   17.4137    5.5612   53.4641 O   0  0  0  0  0  0  0  0  0  0  0  0
   19.4619    4.3739   53.8270 C   0  0  0  0  0  0  0  0  0  0  0  0
   20.8451    4.3538   53.8151 C   0  0  0  0  0  0  0  0  0  0  0  0
   16.9174    5.8572   54.3080 H   0  0  0  0  0  0  0  0  0  0  0  0
 23 24  1  0  0  0
 24 25  2  0  0  0
 24 21  1  0  0  0
 21 20  1  0  0  0
 20 19  1  0  0  0
 19 18  1  0  0  0
 18  1  1  0  0  0
  1  2  1  0  0  0
  2  3  1  0  0  0
  3  4  2  0  0  0
  3  5  1  0  0  0
  5  6  1  0  0  0
  6  7  1  0  0  0
  7  8  1  0  0  0
  8  9  1  0  0  0
  9 10  1  0  0  0
 10 11  2  0  0  0
 10 12  1  0  0  0
 12 29  1  0  0  0
 29 30  1  0  0  0
 30 31  2  0  0  0
 31 32  1  0  0  0
 32 33  2  0  0  0
 33 34  1  0  0  0
 33 35  1  0  0  0
 35 36  2  0  0  0
 12 13  1  0  0  0
 13 14  1  0  0  0
 14 15  2  0  0  0
 14  1  1  0  0  0
  9  5  1  0  0  0
 36 30  1  0  0  0
 23 26  1  0  0  0
 23 27  1  0  0  0
 25 28  1  0  0  0
 21 22  1  0  0  0
  2 16  1  0  0  0
 34 37  1  0  0  0
 13 17  1  0  0  0
M  END
> <minimizedAffinity>
16.93266

> <CNNscore>
0.4514603019

> <CNNaffinity>
6.3953871727

> <CNN_VS>
2.8872635365

> <CNNaffinity_variance>
1.0513174534

$$$$
[H]N=C(N([H])[H])N([H])C([H])([H])C([H])([H])C([H])([H])[C@@]1([H])C(=O)N([H])[C@]([H])(C([H])([H])c2c([H])c([H])c(O[H])c([H])c2[H])C(=O)N2C([H])([H])C([H])([H])C([H])([H])[C@@]2([H])C(=O)N1[H]


 37 39  0  0  0  0  0  0  0  0999 V2000
   20.0425    6.7251   53.3071 C   0  0  0  0  0  0  0  0  0  0  0  0
   20.9924    7.1340   52.2793 N   0  0  0  0  0  0  0  0  0  0  0  0
   20.9441    8.3182   51.5327 C   0  0  0  0  0  0  0  0  0  0  0  0
   21.0320    8.2345   50.2561 O   0  0  0  0  0  0  0  0  0  0  0  0
   20.7985    9.6906   52.0846 C   0  0  0  0  0  0  0  0  0  0  0  0
   20.4281   10.6713   50.9921 C   0  0  0  0  0  0  0  0  0  0  0  0
   21.6028   11.5858   50.8874 C   0  0  0  0  0  0  0  0  0  0  0  0
   22.1311   11.6163   52.3016 C   0  0  0  0  0  0  0  0  0  0  0  0
   22.0464   10.1862   52.6485 N   0  0  0  0  0  0  0  0  0  0  0  0
   22.9517    9.3718   53.3809 C   0  0  0  0  0  0  0  0  0  0  0  0
   24.1892    9.4816   53.1786 O   0  0  0  0  0  0  0  0  0  0  0  0
   22.5352    8.3682   54.4006 C   0  0  0  0  0  0  0  0  0  0  0  0
   21.1562    8.5436   54.7531 N   0  0  0  0  0  0  0  0  0  0  0  0
   20.1083    7.6565   54.4744 C   0  0  0  0  0  0  0  0  0  0  0  0
   19.1370    7.6574   55.2962 O   0  0  0  0  0  0  0  0  0  0  0  0
   21.8016    6.4726   52.0703 H   0  0  0  0  0  0  0  0  0  0  0  0
   20.9343    9.4466   55.2783 H   0  0  0  0  0  0  0  0  0  0  0  0
   20.3756    5.3383   53.7710 C   0  0  0  0  0  0  0  0  0  0  0  0
   19.8566    4.2275   52.9401 C   0  0  0  0  0  0  0  0  0  0  0  0
   19.1052    3.1598   53.6556 C   0  0  0  0  0  0  0  0  0  0  0  0
   18.0800    3.7122   54.5337 N   0  0  0  0  0  0  0  0  0  0  0  0
   18.3233    3.8217   55.5353 H   0  0  0  0  0  0  0  0  0  0  0  0
   15.8423    3.1178   53.6716 N   0  0  0  0  0  0  0  0  0  0  0  0
   16.7917    4.0982   54.0881 C   0  0  0  0  0  0  0  0  0  0  0  0
   16.3984    5.3344   54.0301 N   0  0  0  0  0  0  0  0  0  0  0  0
   14.8637    3.1431   54.0533 H   0  0  0  0  0  0  0  0  0  0  0  0
   16.0582    2.3616   52.9994 H   0  0  0  0  0  0  0  0  0  0  0  0
   17.0884    6.0488   54.3330 H   0  0  0  0  0  0  0  0  0  0  0  0
   23.4285    8.6780   55.6171 C   0  0  0  0  0  0  0  0  0  0  0  0
   24.8480    8.5800   55.2931 C   0  0  0  0  0  0  0  0  0  0  0  0
   25.7741    9.2582   56.0475 C   0  0  0  0  0  0  0  0  0  0  0  0
   27.1169    9.1691   55.7456 C   0  0  0  0  0  0  0  0  0  0  0  0
   27.5666    8.3956   54.6767 C   0  0  0  0  0  0  0  0  0  0  0  0
   28.9216    8.3175   54.3874 O   0  0  0  0  0  0  0  0  0  0  0  0
   26.6480    7.7218   53.9269 C   0  0  0  0  0  0  0  0  0  0  0  0
   25.3042    7.8197   54.2404 C   0  0  0  0  0  0  0  0  0  0  0  0
   29.3429    8.9903   53.7425 H   0  0  0  0  0  0  0  0  0  0  0  0
 23 24  1  0  0  0
 24 25  2  0  0  0
 24 21  1  0  0  0
 21 20  1  0  0  0
 20 19  1  0  0  0
 19 18  1  0  0  0
 18  1  1  0  0  0
  1  2  1  0  0  0
  2  3  1  0  0  0
  3  4  2  0  0  0
  3  5  1  0  0  0
  5  6  1  0  0  0
  6  7  1  0  0  0
  7  8  1  0  0  0
  8  9  1  0  0  0
  9 10  1  0  0  0
 10 11  2  0  0  0
 10 12  1  0  0  0
 12 29  1  0  0  0
 29 30  1  0  0  0
 30 31  2  0  0  0
 31 32  1  0  0  0
 32 33  2  0  0  0
 33 34  1  0  0  0
 33 35  1  0  0  0
 35 36  2  0  0  0
 12 13  1  0  0  0
 13 14  1  0  0  0
 14 15  2  0  0  0
 14  1  1  0  0  0
  9  5  1  0  0  0
 36 30  1  0  0  0
 23 26  1  0  0  0
 23 27  1  0  0  0
 25 28  1  0  0  0
 21 22  1  0  0  0
  2 16  1  0  0  0
 34 37  1  0  0  0
 13 17  1  0  0  0
M  END
> <minimizedAffinity>
21.50616

> <CNNscore>
0.4403513074

> <CNNaffinity>
6.2215790749

> <CNN_VS>
2.7396805286

> <CNNaffinity_variance>
0.8064095378

$$$$
[H]N=C(N([H])[H])N([H])C([H])([H])C([H])([H])C([H])([H])[C@@]1([H])C(=O)N([H])[C@]([H])(C([H])([H])c2c([H])c([H])c(O[H])c([H])c2[H])C(=O)N2C([H])([H])C([H])([H])C([H])([H])[C@@]2([H])C(=O)N1[H]


 37 39  0  0  0  0  0  0  0  0999 V2000
   21.8382    8.9188   55.1182 C   0  0  0  0  0  0  0  0  0  0  0  0
   22.8267    9.1044   54.0626 N   0  0  0  0  0  0  0  0  0  0  0  0
   24.2181    9.1089   54.2242 C   0  0  0  0  0  0  0  0  0  0  0  0
   24.8832   10.0873   53.7295 O   0  0  0  0  0  0  0  0  0  0  0  0
   25.0169    8.0704   54.9263 C   0  0  0  0  0  0  0  0  0  0  0  0
   26.4155    8.5735   55.2144 C   0  0  0  0  0  0  0  0  0  0  0  0
   27.3083    7.7115   54.3855 C   0  0  0  0  0  0  0  0  0  0  0  0
   26.5655    6.3973   54.3485 C   0  0  0  0  0  0  0  0  0  0  0  0
   25.1910    6.8748   54.1132 N   0  0  0  0  0  0  0  0  0  0  0  0
   24.1719    6.3411   53.2789 C   0  0  0  0  0  0  0  0  0  0  0  0
   24.4660    5.9249   52.1280 O   0  0  0  0  0  0  0  0  0  0  0  0
   22.7394    6.2329   53.6748 C   0  0  0  0  0  0  0  0  0  0  0  0
   22.5832    6.4526   55.0835 N   0  0  0  0  0  0  0  0  0  0  0  0
   21.9405    7.5407   55.6882 C   0  0  0  0  0  0  0  0  0  0  0  0
   21.4033    7.3185   56.8199 O   0  0  0  0  0  0  0  0  0  0  0  0
   22.4624    9.2532   53.0722 H   0  0  0  0  0  0  0  0  0  0  0  0
   23.0073    5.6983   55.7092 H   0  0  0  0  0  0  0  0  0  0  0  0
   20.4625    9.1113   54.5528 C   0  0  0  0  0  0  0  0  0  0  0  0
   20.1243    8.2985   53.3617 C   0  0  0  0  0  0  0  0  0  0  0  0
   20.3444    8.9410   52.0368 C   0  0  0  0  0  0  0  0  0  0  0  0
   21.5483    9.7643   52.0255 N   0  0  0  0  0  0  0  0  0  0  0  0
   22.4591    9.2718   52.0715 H   0  0  0  0  0  0  0  0  0  0  0  0
   21.6039   11.9668   53.1435 N   0  0  0  0  0  0  0  0  0  0  0  0
   21.5291   11.1792   51.9560 C   0  0  0  0  0  0  0  0  0  0  0  0
   21.4448   11.8368   50.8394 N   0  0  0  0  0  0  0  0  0  0  0  0
   22.2940   12.7567   53.2038 H   0  0  0  0  0  0  0  0  0  0  0  0
   21.0072   11.8083   53.9736 H   0  0  0  0  0  0  0  0  0  0  0  0
   21.3904   11.2649   49.9745 H   0  0  0  0  0  0  0  0  0  0  0  0
   22.3642    4.7794   53.3284 C   0  0  0  0  0  0  0  0  0  0  0  0
   20.9306    4.5386   53.4569 C   0  0  0  0  0  0  0  0  0  0  0  0
   20.4322    3.2657   53.3224 C   0  0  0  0  0  0  0  0  0  0  0  0
   19.0782    3.0326   53.4430 C   0  0  0  0  0  0  0  0  0  0  0  0
   18.1870    4.0726   53.7022 C   0  0  0  0  0  0  0  0  0  0  0  0
   16.8276    3.8196   53.8203 O   0  0  0  0  0  0  0  0  0  0  0  0
   18.6807    5.3369   53.8360 C   0  0  0  0  0  0  0  0  0  0  0  0
   20.0409    5.5570   53.7128 C   0  0  0  0  0  0  0  0  0  0  0  0
   16.2298    3.8585   52.9914 H   0  0  0  0  0  0  0  0  0  0  0  0
 23 24  1  0  0  0
 24 25  2  0  0  0
 24 21  1  0  0  0
 21 20  1  0  0  0
 20 19  1  0  0  0
 19 18  1  0  0  0
 18  1  1  0  0  0
  1  2  1  0  0  0
  2  3  1  0  0  0
  3  4  2  0  0  0
  3  5  1  0  0  0
  5  6  1  0  0  0
  6  7  1  0  0  0
  7  8  1  0  0  0
  8  9  1  0  0  0
  9 10  1  0  0  0
 10 11  2  0  0  0
 10 12  1  0  0  0
 12 29  1  0  0  0
 29 30  1  0  0  0
 30 31  2  0  0  0
 31 32  1  0  0  0
 32 33  2  0  0  0
 33 34  1  0  0  0
 33 35  1  0  0  0
 35 36  2  0  0  0
 12 13  1  0  0  0
 13 14  1  0  0  0
 14 15  2  0  0  0
 14  1  1  0  0  0
  9  5  1  0  0  0
 36 30  1  0  0  0
 23 26  1  0  0  0
 23 27  1  0  0  0
 25 28  1  0  0  0
 21 22  1  0  0  0
  2 16  1  0  0  0
 34 37  1  0  0  0
 13 17  1  0  0  0
M  END
> <minimizedAffinity>
29.44823

> <CNNscore>
0.4135614932

> <CNNaffinity>
6.3601446152

> <CNN_VS>
2.6303110123

> <CNNaffinity_variance>
0.7655652761

$$$$
[H]N=C(N([H])[H])N([H])C([H])([H])C([H])([H])C([H])([H])[C@@]1([H])C(=O)N([H])[C@]([H])(C([H])([H])c2c([H])c([H])c(O[H])c([H])c2[H])C(=O)N2C([H])([H])C([H])([H])C([H])([H])[C@@]2([H])C(=O)N1[H]


 37 39  0  0  0  0  0  0  0  0999 V2000
   22.5656    9.4695   56.0947 C   0  0  0  0  0  0  0  0  0  0  0  0
   23.6825   10.2097   55.5198 N   0  0  0  0  0  0  0  0  0  0  0  0
   25.0348   10.0550   55.8508 C   0  0  0  0  0  0  0  0  0  0  0  0
   25.7109   11.1039   56.1464 O   0  0  0  0  0  0  0  0  0  0  0  0
   25.7797    8.7694   55.8938 C   0  0  0  0  0  0  0  0  0  0  0  0
   27.0949    8.9360   56.6250 C   0  0  0  0  0  0  0  0  0  0  0  0
   28.1402    8.7085   55.5845 C   0  0  0  0  0  0  0  0  0  0  0  0
   27.4805    7.7154   54.6579 C   0  0  0  0  0  0  0  0  0  0  0  0
   26.1299    8.2980   54.5612 N   0  0  0  0  0  0  0  0  0  0  0  0
   25.2689    8.4191   53.4372 C   0  0  0  0  0  0  0  0  0  0  0  0
   25.7446    8.7672   52.3250 O   0  0  0  0  0  0  0  0  0  0  0  0
   23.8025    8.1573   53.4761 C   0  0  0  0  0  0  0  0  0  0  0  0
   23.4369    7.4914   54.6926 N   0  0  0  0  0  0  0  0  0  0  0  0
   22.6585    8.0232   55.7290 C   0  0  0  0  0  0  0  0  0  0  0  0
   21.9789    7.1883   56.4071 O   0  0  0  0  0  0  0  0  0  0  0  0
   23.4549   10.9404   54.7782 H   0  0  0  0  0  0  0  0  0  0  0  0
   23.8073    6.4947   54.7922 H   0  0  0  0  0  0  0  0  0  0  0  0
   21.2756   10.0235   55.5672 C   0  0  0  0  0  0  0  0  0  0  0  0
   21.3388   10.6806   54.2412 C   0  0  0  0  0  0  0  0  0  0  0  0
   21.0828    9.8128   53.0588 C   0  0  0  0  0  0  0  0  0  0  0  0
   20.4799    8.5403   53.4391 N   0  0  0  0  0  0  0  0  0  0  0  0
   20.1577    8.4433   54.4195 H   0  0  0  0  0  0  0  0  0  0  0  0
   20.1616    6.1229   53.0408 N   0  0  0  0  0  0  0  0  0  0  0  0
   20.3180    7.4522   52.5464 C   0  0  0  0  0  0  0  0  0  0  0  0
   20.3013    7.5864   51.2549 N   0  0  0  0  0  0  0  0  0  0  0  0
   19.3776    5.5215   52.6834 H   0  0  0  0  0  0  0  0  0  0  0  0
   20.7859    5.6983   53.7481 H   0  0  0  0  0  0  0  0  0  0  0  0
   20.4150    8.5532   50.8937 H   0  0  0  0  0  0  0  0  0  0  0  0
   23.5572    7.2233   52.2756 C   0  0  0  0  0  0  0  0  0  0  0  0
   24.0330    5.8675   52.5306 C   0  0  0  0  0  0  0  0  0  0  0  0
   23.6317    5.1990   53.6614 C   0  0  0  0  0  0  0  0  0  0  0  0
   24.0784    3.9175   53.9072 C   0  0  0  0  0  0  0  0  0  0  0  0
   24.9413    3.2719   53.0230 C   0  0  0  0  0  0  0  0  0  0  0  0
   25.3808    1.9822   53.2865 O   0  0  0  0  0  0  0  0  0  0  0  0
   25.3405    3.9346   51.8999 C   0  0  0  0  0  0  0  0  0  0  0  0
   24.8850    5.2196   51.6653 C   0  0  0  0  0  0  0  0  0  0  0  0
   26.2388    1.8378   53.8240 H   0  0  0  0  0  0  0  0  0  0  0  0
 23 24  1  0  0  0
 24 25  2  0  0  0
 24 21  1  0  0  0
 21 20  1  0  0  0
 20 19  1  0  0  0
 19 18  1  0  0  0
 18  1  1  0  0  0
  1  2  1  0  0  0
  2  3  1  0  0  0
  3  4  2  0  0  0
  3  5  1  0  0  0
  5  6  1  0  0  0
  6  7  1  0  0  0
  7  8  1  0  0  0
  8  9  1  0  0  0
  9 10  1  0  0  0
 10 11  2  0  0  0
 10 12  1  0  0  0
 12 29  1  0  0  0
 29 30  1  0  0  0
 30 31  2  0  0  0
 31 32  1  0  0  0
 32 33  2  0  0  0
 33 34  1  0  0  0
 33 35  1  0  0  0
 35 36  2  0  0  0
 12 13  1  0  0  0
 13 14  1  0  0  0
 14 15  2  0  0  0
 14  1  1  0  0  0
  9  5  1  0  0  0
 36 30  1  0  0  0
 23 26  1  0  0  0
 23 27  1  0  0  0
 25 28  1  0  0  0
 21 22  1  0  0  0
  2 16  1  0  0  0
 34 37  1  0  0  0
 13 17  1  0  0  0
M  END
> <minimizedAffinity>
28.94232

> <CNNscore>
0.3638355732

> <CNNaffinity>
6.1988501549

> <CNN_VS>
2.2553622723

> <CNNaffinity_variance>
0.9485063553

$$$$
[H]N=C(N([H])[H])N([H])C([H])([H])C([H])([H])C([H])([H])[C@@]1([H])C(=O)N([H])[C@]([H])(C([H])([H])c2c([H])c([H])c(O[H])c([H])c2[H])C(=O)N2C([H])([H])C([H])([H])C([H])([H])[C@@]2([H])C(=O)N1[H]


 37 39  0  0  0  0  0  0  0  0999 V2000
   20.6850    8.8526   51.7535 C   0  0  0  0  0  0  0  0  0  0  0  0
   20.4036    8.3834   53.1050 N   0  0  0  0  0  0  0  0  0  0  0  0
   19.6874    7.2293   53.4473 C   0  0  0  0  0  0  0  0  0  0  0  0
   18.7296    7.3381   54.2930 O   0  0  0  0  0  0  0  0  0  0  0  0
   19.9325    5.8625   52.9170 C   0  0  0  0  0  0  0  0  0  0  0  0
   18.7637    4.9505   53.2241 C   0  0  0  0  0  0  0  0  0  0  0  0
   19.3129    3.9323   54.1669 C   0  0  0  0  0  0  0  0  0  0  0  0
   20.7538    3.8145   53.7310 C   0  0  0  0  0  0  0  0  0  0  0  0
   21.0911    5.2365   53.5390 N   0  0  0  0  0  0  0  0  0  0  0  0
   22.2808    5.9422   53.8646 C   0  0  0  0  0  0  0  0  0  0  0  0
   22.8528    5.7214   54.9638 O   0  0  0  0  0  0  0  0  0  0  0  0
   22.9219    6.9531   52.9772 C   0  0  0  0  0  0  0  0  0  0  0  0
   22.3624    6.8993   51.6578 N   0  0  0  0  0  0  0  0  0  0  0  0
   21.5816    7.8885   51.0457 C   0  0  0  0  0  0  0  0  0  0  0  0
   21.6540    7.9574   49.7773 O   0  0  0  0  0  0  0  0  0  0  0  0
   20.7738    8.9708   53.9136 H   0  0  0  0  0  0  0  0  0  0  0  0
   22.5773    6.0077   51.1108 H   0  0  0  0  0  0  0  0  0  0  0  0
   21.3626   10.1889   51.8204 C   0  0  0  0  0  0  0  0  0  0  0  0
   22.0555   10.5090   53.0897 C   0  0  0  0  0  0  0  0  0  0  0  0
   21.2899   11.3193   54.0766 C   0  0  0  0  0  0  0  0  0  0  0  0
   20.9256   10.5394   55.2540 N   0  0  0  0  0  0  0  0  0  0  0  0
   19.9913   10.7143   55.6672 H   0  0  0  0  0  0  0  0  0  0  0  0
   21.3749    8.2052   55.9273 N   0  0  0  0  0  0  0  0  0  0  0  0
   21.7748    9.5725   55.8467 C   0  0  0  0  0  0  0  0  0  0  0  0
   22.9409    9.8563   56.3424 N   0  0  0  0  0  0  0  0  0  0  0  0
   22.0318    7.4492   55.6095 H   0  0  0  0  0  0  0  0  0  0  0  0
   20.4551    7.8984   56.2882 H   0  0  0  0  0  0  0  0  0  0  0  0
   23.2331   10.8510   56.2843 H   0  0  0  0  0  0  0  0  0  0  0  0
   24.4022    6.5282   52.9343 C   0  0  0  0  0  0  0  0  0  0  0  0
   25.2390    7.3729   53.7803 C   0  0  0  0  0  0  0  0  0  0  0  0
   24.6741    8.0995   54.8000 C   0  0  0  0  0  0  0  0  0  0  0  0
   25.4604    8.8994   55.6026 C   0  0  0  0  0  0  0  0  0  0  0  0
   26.8369    8.9913   55.4027 C   0  0  0  0  0  0  0  0  0  0  0  0
   27.6126    9.8014   56.2200 O   0  0  0  0  0  0  0  0  0  0  0  0
   27.3989    8.2704   54.3906 C   0  0  0  0  0  0  0  0  0  0  0  0
   26.5989    7.4719   53.5930 C   0  0  0  0  0  0  0  0  0  0  0  0
   27.7704   10.7789   55.9639 H   0  0  0  0  0  0  0  0  0  0  0  0
 23 24  1  0  0  0
 24 25  2  0  0  0
 24 21  1  0  0  0
 21 20  1  0  0  0
 20 19  1  0  0  0
 19 18  1  0  0  0
 18  1  1  0  0  0
  1  2  1  0  0  0
  2  3  1  0  0  0
  3  4  2  0  0  0
  3  5  1  0  0  0
  5  6  1  0  0  0
  6  7  1  0  0  0
  7  8  1  0  0  0
  8  9  1  0  0  0
  9 10  1  0  0  0
 10 11  2  0  0  0
 10 12  1  0  0  0
 12 29  1  0  0  0
 29 30  1  0  0  0
 30 31  2  0  0  0
 31 32  1  0  0  0
 32 33  2  0  0  0
 33 34  1  0  0  0
 33 35  1  0  0  0
 35 36  2  0  0  0
 12 13  1  0  0  0
 13 14  1  0  0  0
 14 15  2  0  0  0
 14  1  1  0  0  0
  9  5  1  0  0  0
 36 30  1  0  0  0
 23 26  1  0  0  0
 23 27  1  0  0  0
 25 28  1  0  0  0
 21 22  1  0  0  0
  2 16  1  0  0  0
 34 37  1  0  0  0
 13 17  1  0  0  0
M  END
> <minimizedAffinity>
18.87264

> <CNNscore>
0.3538268209

> <CNNaffinity>
6.3473520279

> <CNN_VS>
2.2458634377

> <CNNaffinity_variance>
0.9194944501

$$$$
[H]c1nc2c([H])c(C(=O)N([H])C([H])([H])C([H])([H])N3C([H])([H])C([H])([H])C([H])([H])C([H])([H])C3([H])[H])sc2c(Oc2c([H])c([H])c(N([H])C(=O)N([H])c3c([H])c(C([H])([H])[H])c([H])c([H])c3F)c(F)c2[H])c1[H]


 43 47  0  0  0  0  0  0  0  0999 V2000
   21.7030    8.7352   54.2731 O   0  0  0  0  0  0  0  0  0  0  0  0
   22.7342    7.9418   53.8048 C   0  0  0  0  0  0  0  0  0  0  0  0
   22.4635    6.9318   52.8895 C   0  0  0  0  0  0  0  0  0  0  0  0
   23.5987    6.2083   52.5025 C   0  0  0  0  0  0  0  0  0  0  0  0
   24.8238    6.4274   52.9372 N   0  0  0  0  0  0  0  0  0  0  0  0
   25.0974    7.4276   53.8461 C   0  0  0  0  0  0  0  0  0  0  0  0
   26.3063    7.7436   54.3711 C   0  0  0  0  0  0  0  0  0  0  0  0
   26.3495    8.7725   55.2664 C   0  0  0  0  0  0  0  0  0  0  0  0
   24.7236    9.2717   55.3556 S   0  0  0  0  0  0  0  0  0  0  0  0
   24.0290    8.1664   54.2585 C   0  0  0  0  0  0  0  0  0  0  0  0
   27.5044    9.3193   55.9911 C   0  0  0  0  0  0  0  0  0  0  0  0
   28.5903    9.3371   55.3711 O   0  0  0  0  0  0  0  0  0  0  0  0
   27.3986    9.7905   57.2888 N   0  0  0  0  0  0  0  0  0  0  0  0
   26.4747    9.7484   57.7765 H   0  0  0  0  0  0  0  0  0  0  0  0
   28.5080   10.3421   58.0100 C   0  0  0  0  0  0  0  0  0  0  0  0
   28.7861    9.5492   59.2365 C   0  0  0  0  0  0  0  0  0  0  0  0
   28.9371   10.3494   60.4453 N   0  0  0  0  0  0  0  0  0  0  0  0
   28.9707   11.7414   59.9571 C   0  0  0  0  0  0  0  0  0  0  0  0
   28.9401   12.7343   61.0844 C   0  0  0  0  0  0  0  0  0  0  0  0
   29.9014   12.2959   62.1718 C   0  0  0  0  0  0  0  0  0  0  0  0
   30.8850   11.3471   61.5673 C   0  0  0  0  0  0  0  0  0  0  0  0
   30.2450   10.0965   61.0635 C   0  0  0  0  0  0  0  0  0  0  0  0
   20.9816   12.4883   52.6028 C   0  0  0  0  0  0  0  0  0  0  0  0
   21.0418   12.3194   53.9603 C   0  0  0  0  0  0  0  0  0  0  0  0
   21.2854   11.0587   54.5536 C   0  0  0  0  0  0  0  0  0  0  0  0
   21.4656    9.9765   53.7434 C   0  0  0  0  0  0  0  0  0  0  0  0
   21.4092   10.1218   52.3620 C   0  0  0  0  0  0  0  0  0  0  0  0
   21.1756   11.3359   51.8163 C   0  0  0  0  0  0  0  0  0  0  0  0
   21.1223   11.4808   50.4752 F   0  0  0  0  0  0  0  0  0  0  0  0
   21.1662   15.7007   50.7074 N   0  0  0  0  0  0  0  0  0  0  0  0
   21.6609   14.4916   51.2700 C   0  0  0  0  0  0  0  0  0  0  0  0
   22.8337   14.1436   51.1637 O   0  0  0  0  0  0  0  0  0  0  0  0
   20.7224   13.6937   51.9701 N   0  0  0  0  0  0  0  0  0  0  0  0
   20.1253   15.8727   50.8876 H   0  0  0  0  0  0  0  0  0  0  0  0
   19.7061   14.0472   52.0288 H   0  0  0  0  0  0  0  0  0  0  0  0
   22.4209   17.9191   46.4850 C   0  0  0  0  0  0  0  0  0  0  0  0
   22.4996   17.7654   47.9612 C   0  0  0  0  0  0  0  0  0  0  0  0
   23.3058   18.6195   48.6518 C   0  0  0  0  0  0  0  0  0  0  0  0
   23.3997   18.5021   50.0167 C   0  0  0  0  0  0  0  0  0  0  0  0
   22.6965   17.5443   50.6774 C   0  0  0  0  0  0  0  0  0  0  0  0
   22.8123   17.4575   52.0293 F   0  0  0  0  0  0  0  0  0  0  0  0
   21.8679   16.6671   49.9654 C   0  0  0  0  0  0  0  0  0  0  0  0
   21.7875   16.7994   48.6061 C   0  0  0  0  0  0  0  0  0  0  0  0
 36 37  1  0  0  0
 37 38  2  0  0  0
 38 39  1  0  0  0
 39 40  2  0  0  0
 40 41  1  0  0  0
 40 42  1  0  0  0
 42 30  1  0  0  0
 30 31  1  0  0  0
 31 32  2  0  0  0
 31 33  1  0  0  0
 33 23  1  0  0  0
 23 24  2  0  0  0
 24 25  1  0  0  0
 25 26  2  0  0  0
 26  1  1  0  0  0
  1  2  1  0  0  0
  2  3  2  0  0  0
  3  4  1  0  0  0
  4  5  2  0  0  0
  5  6  1  0  0  0
  6  7  1  0  0  0
  7  8  2  0  0  0
  8  9  1  0  0  0
  9 10  1  0  0  0
  8 11  1  0  0  0
 11 12  2  0  0  0
 11 13  1  0  0  0
 13 15  1  0  0  0
 15 16  1  0  0  0
 16 17  1  0  0  0
 17 18  1  0  0  0
 18 19  1  0  0  0
 19 20  1  0  0  0
 20 21  1  0  0  0
 21 22  1  0  0  0
 26 27  1  0  0  0
 27 28  2  0  0  0
 28 29  1  0  0  0
 42 43  2  0  0  0
 43 37  1  0  0  0
 28 23  1  0  0  0
 10  2  1  0  0  0
 22 17  1  0  0  0
 10  6  2  0  0  0
 30 34  1  0  0  0
 33 35  1  0  0  0
 13 14  1  0  0  0
M  END
> <minimizedAffinity>
11.18693

> <CNNscore>
0.7298841476

> <CNNaffinity>
7.0580205917

> <CNN_VS>
5.1515374184

> <CNNaffinity_variance>
0.2092318982

$$$$
[H]c1nc2c([H])c(C(=O)N([H])C([H])([H])C([H])([H])N3C([H])([H])C([H])([H])C([H])([H])C([H])([H])C3([H])[H])sc2c(Oc2c([H])c([H])c(N([H])C(=O)N([H])c3c([H])c(C([H])([H])[H])c([H])c([H])c3F)c(F)c2[H])c1[H]


 43 47  0  0  0  0  0  0  0  0999 V2000
   21.6055    8.8932   54.1745 O   0  0  0  0  0  0  0  0  0  0  0  0
   22.6002    8.0320   53.7491 C   0  0  0  0  0  0  0  0  0  0  0  0
   22.2897    7.0068   52.8637 C   0  0  0  0  0  0  0  0  0  0  0  0
   23.3907    6.2127   52.5188 C   0  0  0  0  0  0  0  0  0  0  0  0
   24.6195    6.3827   52.9650 N   0  0  0  0  0  0  0  0  0  0  0  0
   24.9325    7.3978   53.8442 C   0  0  0  0  0  0  0  0  0  0  0  0
   26.1488    7.6685   54.3771 C   0  0  0  0  0  0  0  0  0  0  0  0
   26.2334    8.7237   55.2382 C   0  0  0  0  0  0  0  0  0  0  0  0
   24.6348    9.3091   55.2855 S   0  0  0  0  0  0  0  0  0  0  0  0
   23.8985    8.2045   54.2151 C   0  0  0  0  0  0  0  0  0  0  0  0
   27.4053    9.2342   55.9622 C   0  0  0  0  0  0  0  0  0  0  0  0
   28.5051    9.1377   55.3751 O   0  0  0  0  0  0  0  0  0  0  0  0
   27.2999    9.7929   57.2248 N   0  0  0  0  0  0  0  0  0  0  0  0
   26.3632    9.8457   57.6863 H   0  0  0  0  0  0  0  0  0  0  0  0
   28.4268   10.3112   57.9436 C   0  0  0  0  0  0  0  0  0  0  0  0
   28.7306    9.4657   59.1281 C   0  0  0  0  0  0  0  0  0  0  0  0
   28.9601   10.2162   60.3564 N   0  0  0  0  0  0  0  0  0  0  0  0
   29.0569   11.6196   59.9113 C   0  0  0  0  0  0  0  0  0  0  0  0
   29.1133   12.5750   61.0697 C   0  0  0  0  0  0  0  0  0  0  0  0
   30.0795   12.0492   62.1132 C   0  0  0  0  0  0  0  0  0  0  0  0
   30.9915   11.0688   61.4498 C   0  0  0  0  0  0  0  0  0  0  0  0
   30.2691    9.8721   60.9265 C   0  0  0  0  0  0  0  0  0  0  0  0
   21.0413   12.5778   52.3033 C   0  0  0  0  0  0  0  0  0  0  0  0
   21.0770   12.4774   53.6684 C   0  0  0  0  0  0  0  0  0  0  0  0
   21.2673   11.2414   54.3292 C   0  0  0  0  0  0  0  0  0  0  0  0
   21.4198   10.1130   53.5784 C   0  0  0  0  0  0  0  0  0  0  0  0
   21.3874   10.1886   52.1907 C   0  0  0  0  0  0  0  0  0  0  0  0
   21.2047   11.3803   51.5799 C   0  0  0  0  0  0  0  0  0  0  0  0
   21.1749   11.4574   50.2325 F   0  0  0  0  0  0  0  0  0  0  0  0
   21.3860   15.7899   50.4298 N   0  0  0  0  0  0  0  0  0  0  0  0
   21.8380   14.6253   51.1100 C   0  0  0  0  0  0  0  0  0  0  0  0
   23.0290   14.3714   51.2672 O   0  0  0  0  0  0  0  0  0  0  0  0
   20.8339   13.7572   51.6058 N   0  0  0  0  0  0  0  0  0  0  0  0
   20.3207   15.8792   50.3768 H   0  0  0  0  0  0  0  0  0  0  0  0
   19.8051   14.0291   51.4360 H   0  0  0  0  0  0  0  0  0  0  0  0
   24.8113   19.3353   50.5752 C   0  0  0  0  0  0  0  0  0  0  0  0
   23.7956   18.5196   49.8597 C   0  0  0  0  0  0  0  0  0  0  0  0
   23.5914   18.7685   48.5358 C   0  0  0  0  0  0  0  0  0  0  0  0
   22.6592   18.0315   47.8476 C   0  0  0  0  0  0  0  0  0  0  0  0
   21.9442   17.0615   48.4771 C   0  0  0  0  0  0  0  0  0  0  0  0
   21.0303   16.3503   47.7647 F   0  0  0  0  0  0  0  0  0  0  0  0
   22.1557   16.8071   49.8385 C   0  0  0  0  0  0  0  0  0  0  0  0
   23.0885   17.5517   50.5073 C   0  0  0  0  0  0  0  0  0  0  0  0
 36 37  1  0  0  0
 37 38  2  0  0  0
 38 39  1  0  0  0
 39 40  2  0  0  0
 40 41  1  0  0  0
 40 42  1  0  0  0
 42 30  1  0  0  0
 30 31  1  0  0  0
 31 32  2  0  0  0
 31 33  1  0  0  0
 33 23  1  0  0  0
 23 24  2  0  0  0
 24 25  1  0  0  0
 25 26  2  0  0  0
 26  1  1  0  0  0
  1  2  1  0  0  0
  2  3  2  0  0  0
  3  4  1  0  0  0
  4  5  2  0  0  0
  5  6  1  0  0  0
  6  7  1  0  0  0
  7  8  2  0  0  0
  8  9  1  0  0  0
  9 10  1  0  0  0
  8 11  1  0  0  0
 11 12  2  0  0  0
 11 13  1  0  0  0
 13 15  1  0  0  0
 15 16  1  0  0  0
 16 17  1  0  0  0
 17 18  1  0  0  0
 18 19  1  0  0  0
 19 20  1  0  0  0
 20 21  1  0  0  0
 21 22  1  0  0  0
 26 27  1  0  0  0
 27 28  2  0  0  0
 28 29  1  0  0  0
 42 43  2  0  0  0
 43 37  1  0  0  0
 28 23  1  0  0  0
 10  2  1  0  0  0
 22 17  1  0  0  0
 10  6  2  0  0  0
 30 34  1  0  0  0
 33 35  1  0  0  0
 13 14  1  0  0  0
M  END
> <minimizedAffinity>
10.89107

> <CNNscore>
0.6996768117

> <CNNaffinity>
7.0410680771

> <CNN_VS>
4.9264721870

> <CNNaffinity_variance>
0.1884725988

$$$$
[H]c1nc2c([H])c(C(=O)N([H])C([H])([H])C([H])([H])N3C([H])([H])C([H])([H])C([H])([H])C([H])([H])C3([H])[H])sc2c(Oc2c([H])c([H])c(N([H])C(=O)N([H])c3c([H])c(C([H])([H])[H])c([H])c([H])c3F)c(F)c2[H])c1[H]


 43 47  0  0  0  0  0  0  0  0999 V2000
   24.8915    7.4600   53.4402 O   0  0  0  0  0  0  0  0  0  0  0  0
   23.5211    7.4958   53.6213 C   0  0  0  0  0  0  0  0  0  0  0  0
   22.8930    6.4727   54.3214 C   0  0  0  0  0  0  0  0  0  0  0  0
   21.5062    6.6369   54.4279 C   0  0  0  0  0  0  0  0  0  0  0  0
   20.8202    7.6461   53.9291 N   0  0  0  0  0  0  0  0  0  0  0  0
   21.4385    8.6631   53.2329 C   0  0  0  0  0  0  0  0  0  0  0  0
   20.8449    9.7431   52.6688 C   0  0  0  0  0  0  0  0  0  0  0  0
   21.6508   10.6293   52.0152 C   0  0  0  0  0  0  0  0  0  0  0  0
   23.2001    9.9465   52.1992 S   0  0  0  0  0  0  0  0  0  0  0  0
   22.7905    8.5566   53.0982 C   0  0  0  0  0  0  0  0  0  0  0  0
   21.2853   11.8662   51.3119 C   0  0  0  0  0  0  0  0  0  0  0  0
   20.8578   11.7345   50.1442 O   0  0  0  0  0  0  0  0  0  0  0  0
   21.4056   13.1103   51.9078 N   0  0  0  0  0  0  0  0  0  0  0  0
   21.7773   13.1788   52.8826 H   0  0  0  0  0  0  0  0  0  0  0  0
   21.0410   14.3289   51.2467 C   0  0  0  0  0  0  0  0  0  0  0  0
   22.2459   15.1461   50.9455 C   0  0  0  0  0  0  0  0  0  0  0  0
   21.9529   16.4985   50.4875 N   0  0  0  0  0  0  0  0  0  0  0  0
   22.9169   16.7281   49.3943 C   0  0  0  0  0  0  0  0  0  0  0  0
   22.6482   18.0158   48.6680 C   0  0  0  0  0  0  0  0  0  0  0  0
   22.3760   19.1173   49.6737 C   0  0  0  0  0  0  0  0  0  0  0  0
   22.9410   18.6938   50.9907 C   0  0  0  0  0  0  0  0  0  0  0  0
   22.2780   17.4732   51.5368 C   0  0  0  0  0  0  0  0  0  0  0  0
   27.5220    9.3596   56.0609 C   0  0  0  0  0  0  0  0  0  0  0  0
   26.1691    9.3966   56.2686 C   0  0  0  0  0  0  0  0  0  0  0  0
   25.2544    8.7611   55.3967 C   0  0  0  0  0  0  0  0  0  0  0  0
   25.7395    8.0898   54.3131 C   0  0  0  0  0  0  0  0  0  0  0  0
   27.1091    8.0376   54.0803 C   0  0  0  0  0  0  0  0  0  0  0  0
   27.9653    8.6517   54.9267 C   0  0  0  0  0  0  0  0  0  0  0  0
   29.2959    8.6010   54.7047 F   0  0  0  0  0  0  0  0  0  0  0  0
   29.4641   10.8291   58.8920 N   0  0  0  0  0  0  0  0  0  0  0  0
   28.3830   10.1416   58.2741 C   0  0  0  0  0  0  0  0  0  0  0  0
   27.4285    9.7026   58.9096 O   0  0  0  0  0  0  0  0  0  0  0  0
   28.4597    9.9838   56.8681 N   0  0  0  0  0  0  0  0  0  0  0  0
   30.2198   11.1585   58.2093 H   0  0  0  0  0  0  0  0  0  0  0  0
   29.3221   10.3867   56.3629 H   0  0  0  0  0  0  0  0  0  0  0  0
   27.9183   12.5412   63.2512 C   0  0  0  0  0  0  0  0  0  0  0  0
   28.9477   11.9285   62.3715 C   0  0  0  0  0  0  0  0  0  0  0  0
   30.1566   11.6202   62.9191 C   0  0  0  0  0  0  0  0  0  0  0  0
   31.1282   11.0534   62.1314 C   0  0  0  0  0  0  0  0  0  0  0  0
   30.8908   10.8002   60.8170 C   0  0  0  0  0  0  0  0  0  0  0  0
   31.8750   10.2371   60.0668 F   0  0  0  0  0  0  0  0  0  0  0  0
   29.6469   11.1178   60.2559 C   0  0  0  0  0  0  0  0  0  0  0  0
   28.6916   11.6820   61.0563 C   0  0  0  0  0  0  0  0  0  0  0  0
 36 37  1  0  0  0
 37 38  2  0  0  0
 38 39  1  0  0  0
 39 40  2  0  0  0
 40 41  1  0  0  0
 40 42  1  0  0  0
 42 30  1  0  0  0
 30 31  1  0  0  0
 31 32  2  0  0  0
 31 33  1  0  0  0
 33 23  1  0  0  0
 23 24  2  0  0  0
 24 25  1  0  0  0
 25 26  2  0  0  0
 26  1  1  0  0  0
  1  2  1  0  0  0
  2  3  2  0  0  0
  3  4  1  0  0  0
  4  5  2  0  0  0
  5  6  1  0  0  0
  6  7  1  0  0  0
  7  8  2  0  0  0
  8  9  1  0  0  0
  9 10  1  0  0  0
  8 11  1  0  0  0
 11 12  2  0  0  0
 11 13  1  0  0  0
 13 15  1  0  0  0
 15 16  1  0  0  0
 16 17  1  0  0  0
 17 18  1  0  0  0
 18 19  1  0  0  0
 19 20  1  0  0  0
 20 21  1  0  0  0
 21 22  1  0  0  0
 26 27  1  0  0  0
 27 28  2  0  0  0
 28 29  1  0  0  0
 42 43  2  0  0  0
 43 37  1  0  0  0
 28 23  1  0  0  0
 10  2  1  0  0  0
 22 17  1  0  0  0
 10  6  2  0  0  0
 30 34  1  0  0  0
 33 35  1  0  0  0
 13 14  1  0  0  0
M  END
> <minimizedAffinity>
11.22342

> <CNNscore>
0.6051373482

> <CNNaffinity>
6.9434218407

> <CNN_VS>
4.2017240524

> <CNNaffinity_variance>
0.3191449046

$$$$
[H]c1nc2c([H])c(C(=O)N([H])C([H])([H])C([H])([H])N3C([H])([H])C([H])([H])C([H])([H])C([H])([H])C3([H])[H])sc2c(Oc2c([H])c([H])c(N([H])C(=O)N([H])c3c([H])c(C([H])([H])[H])c([H])c([H])c3F)c(F)c2[H])c1[H]


 43 47  0  0  0  0  0  0  0  0999 V2000
   21.5382    8.2498   51.5290 O   0  0  0  0  0  0  0  0  0  0  0  0
   21.7247    7.4889   52.6684 C   0  0  0  0  0  0  0  0  0  0  0  0
   20.7188    6.6297   53.0937 C   0  0  0  0  0  0  0  0  0  0  0  0
   21.0420    5.9230   54.2590 C   0  0  0  0  0  0  0  0  0  0  0  0
   22.1764    6.0298   54.9222 N   0  0  0  0  0  0  0  0  0  0  0  0
   23.1772    6.8815   54.5048 C   0  0  0  0  0  0  0  0  0  0  0  0
   24.3768    7.0842   55.1019 C   0  0  0  0  0  0  0  0  0  0  0  0
   25.2207    7.9850   54.5201 C   0  0  0  0  0  0  0  0  0  0  0  0
   24.3346    8.5232   53.1689 S   0  0  0  0  0  0  0  0  0  0  0  0
   22.9182    7.5959   53.3734 C   0  0  0  0  0  0  0  0  0  0  0  0
   26.5617    8.4054   54.9480 C   0  0  0  0  0  0  0  0  0  0  0  0
   27.5097    8.0802   54.2001 O   0  0  0  0  0  0  0  0  0  0  0  0
   26.7668    9.1231   56.1142 N   0  0  0  0  0  0  0  0  0  0  0  0
   25.9486    9.3665   56.7179 H   0  0  0  0  0  0  0  0  0  0  0  0
   28.0639    9.5569   56.5437 C   0  0  0  0  0  0  0  0  0  0  0  0
   28.2006    9.4297   58.0187 C   0  0  0  0  0  0  0  0  0  0  0  0
   28.9686   10.4995   58.6433 N   0  0  0  0  0  0  0  0  0  0  0  0
   29.0579   10.1017   60.0613 C   0  0  0  0  0  0  0  0  0  0  0  0
   29.9774   10.9988   60.8408 C   0  0  0  0  0  0  0  0  0  0  0  0
   29.6979   12.4452   60.4822 C   0  0  0  0  0  0  0  0  0  0  0  0
   28.3281   12.5206   59.8897 C   0  0  0  0  0  0  0  0  0  0  0  0
   28.2091   11.7561   58.6134 C   0  0  0  0  0  0  0  0  0  0  0  0
   21.2378   12.4014   51.7942 C   0  0  0  0  0  0  0  0  0  0  0  0
   21.0837   11.7576   50.5956 C   0  0  0  0  0  0  0  0  0  0  0  0
   21.1799   10.3514   50.4768 C   0  0  0  0  0  0  0  0  0  0  0  0
   21.4352    9.6146   51.5957 C   0  0  0  0  0  0  0  0  0  0  0  0
   21.5955   10.2447   52.8245 C   0  0  0  0  0  0  0  0  0  0  0  0
   21.4991   11.5897   52.9153 C   0  0  0  0  0  0  0  0  0  0  0  0
   21.6522   12.2043   54.1074 F   0  0  0  0  0  0  0  0  0  0  0  0
   21.6236   16.1064   51.5298 N   0  0  0  0  0  0  0  0  0  0  0  0
   21.8214   14.7478   51.1580 C   0  0  0  0  0  0  0  0  0  0  0  0
   22.5087   14.4187   50.1953 O   0  0  0  0  0  0  0  0  0  0  0  0
   21.1779   13.7756   51.9632 N   0  0  0  0  0  0  0  0  0  0  0  0
   21.0057   16.2376   52.3939 H   0  0  0  0  0  0  0  0  0  0  0  0
   20.5849   14.1224   52.7934 H   0  0  0  0  0  0  0  0  0  0  0  0
   22.8209   18.7854   47.5657 C   0  0  0  0  0  0  0  0  0  0  0  0
   22.7232   18.5867   49.0354 C   0  0  0  0  0  0  0  0  0  0  0  0
   23.1546   19.5920   49.8476 C   0  0  0  0  0  0  0  0  0  0  0  0
   23.0776   19.4376   51.2099 C   0  0  0  0  0  0  0  0  0  0  0  0
   22.5762   18.2943   51.7480 C   0  0  0  0  0  0  0  0  0  0  0  0
   22.5135   18.1758   53.1010 F   0  0  0  0  0  0  0  0  0  0  0  0
   22.1330   17.2617   50.9111 C   0  0  0  0  0  0  0  0  0  0  0  0
   22.2178   17.4338   49.5565 C   0  0  0  0  0  0  0  0  0  0  0  0
 36 37  1  0  0  0
 37 38  2  0  0  0
 38 39  1  0  0  0
 39 40  2  0  0  0
 40 41  1  0  0  0
 40 42  1  0  0  0
 42 30  1  0  0  0
 30 31  1  0  0  0
 31 32  2  0  0  0
 31 33  1  0  0  0
 33 23  1  0  0  0
 23 24  2  0  0  0
 24 25  1  0  0  0
 25 26  2  0  0  0
 26  1  1  0  0  0
  1  2  1  0  0  0
  2  3  2  0  0  0
  3  4  1  0  0  0
  4  5  2  0  0  0
  5  6  1  0  0  0
  6  7  1  0  0  0
  7  8  2  0  0  0
  8  9  1  0  0  0
  9 10  1  0  0  0
  8 11  1  0  0  0
 11 12  2  0  0  0
 11 13  1  0  0  0
 13 15  1  0  0  0
 15 16  1  0  0  0
 16 17  1  0  0  0
 17 18  1  0  0  0
 18 19  1  0  0  0
 19 20  1  0  0  0
 20 21  1  0  0  0
 21 22  1  0  0  0
 26 27  1  0  0  0
 27 28  2  0  0  0
 28 29  1  0  0  0
 42 43  2  0  0  0
 43 37  1  0  0  0
 28 23  1  0  0  0
 10  2  1  0  0  0
 22 17  1  0  0  0
 10  6  2  0  0  0
 30 34  1  0  0  0
 33 35  1  0  0  0
 13 14  1  0  0  0
M  END
> <minimizedAffinity>
14.34652

> <CNNscore>
0.6008816361

> <CNNaffinity>
6.9416222572

> <CNN_VS>
4.1710934639

> <CNNaffinity_variance>
0.2809183300

$$$$
[H]c1nc2c([H])c(C(=O)N([H])C([H])([H])C([H])([H])N3C([H])([H])C([H])([H])C([H])([H])C([H])([H])C3([H])[H])sc2c(Oc2c([H])c([H])c(N([H])C(=O)N([H])c3c([H])c(C([H])([H])[H])c([H])c([H])c3F)c(F)c2[H])c1[H]


 43 47  0  0  0  0  0  0  0  0999 V2000
   24.8470    7.4340   53.4202 O   0  0  0  0  0  0  0  0  0  0  0  0
   23.4652    7.3972   53.4563 C   0  0  0  0  0  0  0  0  0  0  0  0
   22.8207    6.2936   54.0023 C   0  0  0  0  0  0  0  0  0  0  0  0
   21.4238    6.3902   53.9730 C   0  0  0  0  0  0  0  0  0  0  0  0
   20.7428    7.4083   53.4853 N   0  0  0  0  0  0  0  0  0  0  0  0
   21.3774    8.5051   52.9417 C   0  0  0  0  0  0  0  0  0  0  0  0
   20.7914    9.6028   52.4048 C   0  0  0  0  0  0  0  0  0  0  0  0
   21.6147   10.5737   51.9130 C   0  0  0  0  0  0  0  0  0  0  0  0
   23.1692    9.9432   52.2066 S   0  0  0  0  0  0  0  0  0  0  0  0
   22.7398    8.4667   52.9439 C   0  0  0  0  0  0  0  0  0  0  0  0
   21.2616   11.8490   51.2749 C   0  0  0  0  0  0  0  0  0  0  0  0
   20.8568   11.7845   50.0936 O   0  0  0  0  0  0  0  0  0  0  0  0
   21.3694   13.0568   51.9434 N   0  0  0  0  0  0  0  0  0  0  0  0
   21.7223   13.0693   52.9274 H   0  0  0  0  0  0  0  0  0  0  0  0
   21.0165   14.3115   51.3463 C   0  0  0  0  0  0  0  0  0  0  0  0
   22.2339   15.0726   50.9605 C   0  0  0  0  0  0  0  0  0  0  0  0
   21.9753   16.4462   50.5471 N   0  0  0  0  0  0  0  0  0  0  0  0
   23.0305   16.7316   49.5561 C   0  0  0  0  0  0  0  0  0  0  0  0
   22.8200   18.0542   48.8746 C   0  0  0  0  0  0  0  0  0  0  0  0
   22.4545   19.1031   49.9065 C   0  0  0  0  0  0  0  0  0  0  0  0
   22.9035   18.6141   51.2453 C   0  0  0  0  0  0  0  0  0  0  0  0
   22.2015   17.3669   51.6687 C   0  0  0  0  0  0  0  0  0  0  0  0
   27.0779    9.6049   56.1963 C   0  0  0  0  0  0  0  0  0  0  0  0
   25.7138    9.5305   56.2899 C   0  0  0  0  0  0  0  0  0  0  0  0
   24.9327    8.8014   55.3631 C   0  0  0  0  0  0  0  0  0  0  0  0
   25.5624    8.1517   54.3425 C   0  0  0  0  0  0  0  0  0  0  0  0
   26.9463    8.2118   54.2257 C   0  0  0  0  0  0  0  0  0  0  0  0
   27.6733    8.9141   55.1228 C   0  0  0  0  0  0  0  0  0  0  0  0
   29.0176    8.9727   55.0133 F   0  0  0  0  0  0  0  0  0  0  0  0
   29.2463   10.7734   59.0031 N   0  0  0  0  0  0  0  0  0  0  0  0
   28.4511    9.8486   58.2713 C   0  0  0  0  0  0  0  0  0  0  0  0
   28.2535    8.6986   58.6534 O   0  0  0  0  0  0  0  0  0  0  0  0
   27.8883   10.3234   57.0607 N   0  0  0  0  0  0  0  0  0  0  0  0
   29.3227   11.7395   58.5487 H   0  0  0  0  0  0  0  0  0  0  0  0
   28.0979   11.3407   56.7734 H   0  0  0  0  0  0  0  0  0  0  0  0
   31.6470    7.9535   62.2603 C   0  0  0  0  0  0  0  0  0  0  0  0
   31.0820    9.2540   61.8145 C   0  0  0  0  0  0  0  0  0  0  0  0
   31.2265   10.3305   62.6371 C   0  0  0  0  0  0  0  0  0  0  0  0
   30.7148   11.5455   62.2529 C   0  0  0  0  0  0  0  0  0  0  0  0
   30.0692   11.6780   61.0637 C   0  0  0  0  0  0  0  0  0  0  0  0
   29.5761   12.8960   60.7146 F   0  0  0  0  0  0  0  0  0  0  0  0
   29.9218   10.5698   60.2193 C   0  0  0  0  0  0  0  0  0  0  0  0
   30.4382    9.3676   60.6193 C   0  0  0  0  0  0  0  0  0  0  0  0
 36 37  1  0  0  0
 37 38  2  0  0  0
 38 39  1  0  0  0
 39 40  2  0  0  0
 40 41  1  0  0  0
 40 42  1  0  0  0
 42 30  1  0  0  0
 30 31  1  0  0  0
 31 32  2  0  0  0
 31 33  1  0  0  0
 33 23  1  0  0  0
 23 24  2  0  0  0
 24 25  1  0  0  0
 25 26  2  0  0  0
 26  1  1  0  0  0
  1  2  1  0  0  0
  2  3  2  0  0  0
  3  4  1  0  0  0
  4  5  2  0  0  0
  5  6  1  0  0  0
  6  7  1  0  0  0
  7  8  2  0  0  0
  8  9  1  0  0  0
  9 10  1  0  0  0
  8 11  1  0  0  0
 11 12  2  0  0  0
 11 13  1  0  0  0
 13 15  1  0  0  0
 15 16  1  0  0  0
 16 17  1  0  0  0
 17 18  1  0  0  0
 18 19  1  0  0  0
 19 20  1  0  0  0
 20 21  1  0  0  0
 21 22  1  0  0  0
 26 27  1  0  0  0
 27 28  2  0  0  0
 28 29  1  0  0  0
 42 43  2  0  0  0
 43 37  1  0  0  0
 28 23  1  0  0  0
 10  2  1  0  0  0
 22 17  1  0  0  0
 10  6  2  0  0  0
 30 34  1  0  0  0
 33 35  1  0  0  0
 13 14  1  0  0  0
M  END
> <minimizedAffinity>
9.88516

> <CNNscore>
0.5940871835

> <CNNaffinity>
6.8928985596

> <CNN_VS>
4.0949826241

> <CNNaffinity_variance>
0.3825477064

$$$$
[H]c1nc2c([H])c(C(=O)N([H])C([H])([H])C([H])([H])N3C([H])([H])C([H])([H])C([H])([H])C([H])([H])C3([H])[H])sc2c(Oc2c([H])c([H])c(N([H])C(=O)N([H])c3c([H])c(C([H])([H])[H])c([H])c([H])c3F)c(F)c2[H])c1[H]


 43 47  0  0  0  0  0  0  0  0999 V2000
   28.6956    4.3621   61.7235 O   0  0  0  0  0  0  0  0  0  0  0  0
   27.9292    4.2002   62.8629 C   0  0  0  0  0  0  0  0  0  0  0  0
   27.7939    5.2560   63.7563 C   0  0  0  0  0  0  0  0  0  0  0  0
   26.9921    4.9526   64.8639 C   0  0  0  0  0  0  0  0  0  0  0  0
   26.4031    3.7932   65.0806 N   0  0  0  0  0  0  0  0  0  0  0  0
   26.5350    2.7423   64.1977 C   0  0  0  0  0  0  0  0  0  0  0  0
   25.9889    1.5073   64.3131 C   0  0  0  0  0  0  0  0  0  0  0  0
   26.2568    0.6099   63.3206 C   0  0  0  0  0  0  0  0  0  0  0  0
   27.2518    1.4966   62.2603 S   0  0  0  0  0  0  0  0  0  0  0  0
   27.3050    2.9805   63.0987 C   0  0  0  0  0  0  0  0  0  0  0  0
   25.8124   -0.7843   63.1904 C   0  0  0  0  0  0  0  0  0  0  0  0
   25.2949   -1.1014   62.0971 O   0  0  0  0  0  0  0  0  0  0  0  0
   25.9586   -1.6987   64.2199 N   0  0  0  0  0  0  0  0  0  0  0  0
   26.3869   -1.3912   65.1227 H   0  0  0  0  0  0  0  0  0  0  0  0
   25.5465   -3.0674   64.1101 C   0  0  0  0  0  0  0  0  0  0  0  0
   24.4322   -3.3593   65.0500 C   0  0  0  0  0  0  0  0  0  0  0  0
   23.1231   -3.4527   64.4161 N   0  0  0  0  0  0  0  0  0  0  0  0
   23.4186   -3.4443   62.9705 C   0  0  0  0  0  0  0  0  0  0  0  0
   22.1940   -3.7180   62.1440 C   0  0  0  0  0  0  0  0  0  0  0  0
   21.0305   -2.9057   62.6780 C   0  0  0  0  0  0  0  0  0  0  0  0
   21.5840   -1.7759   63.4843 C   0  0  0  0  0  0  0  0  0  0  0  0
   22.3393   -2.2402   64.6849 C   0  0  0  0  0  0  0  0  0  0  0  0
   30.3359    8.0736   60.7591 C   0  0  0  0  0  0  0  0  0  0  0  0
   29.4092    7.4785   59.9456 C   0  0  0  0  0  0  0  0  0  0  0  0
   28.8363    6.2211   60.2483 C   0  0  0  0  0  0  0  0  0  0  0  0
   29.2224    5.5822   61.3897 C   0  0  0  0  0  0  0  0  0  0  0  0
   30.1618    6.1656   62.2322 C   0  0  0  0  0  0  0  0  0  0  0  0
   30.6961    7.3680   61.9238 C   0  0  0  0  0  0  0  0  0  0  0  0
   31.6069    7.9382   62.7410 F   0  0  0  0  0  0  0  0  0  0  0  0
   31.2396   11.6844   60.4566 N   0  0  0  0  0  0  0  0  0  0  0  0
   30.4399   10.5705   60.8346 C   0  0  0  0  0  0  0  0  0  0  0  0
   29.3679   10.6941   61.4203 O   0  0  0  0  0  0  0  0  0  0  0  0
   30.9461    9.2904   60.4990 N   0  0  0  0  0  0  0  0  0  0  0  0
   32.1435   11.4208   59.9476 H   0  0  0  0  0  0  0  0  0  0  0  0
   31.8936    9.2422   59.9879 H   0  0  0  0  0  0  0  0  0  0  0  0
   28.2205   15.5111   61.2084 C   0  0  0  0  0  0  0  0  0  0  0  0
   29.5730   14.9208   61.0316 C   0  0  0  0  0  0  0  0  0  0  0  0
   30.6476   15.7572   61.0776 C   0  0  0  0  0  0  0  0  0  0  0  0
   31.9101   15.2413   60.9172 C   0  0  0  0  0  0  0  0  0  0  0  0
   32.0912   13.9093   60.7142 C   0  0  0  0  0  0  0  0  0  0  0  0
   33.3552   13.4327   60.5606 F   0  0  0  0  0  0  0  0  0  0  0  0
   30.9848   13.0510   60.6674 C   0  0  0  0  0  0  0  0  0  0  0  0
   29.7349   13.5833   60.8291 C   0  0  0  0  0  0  0  0  0  0  0  0
 36 37  1  0  0  0
 37 38  2  0  0  0
 38 39  1  0  0  0
 39 40  2  0  0  0
 40 41  1  0  0  0
 40 42  1  0  0  0
 42 30  1  0  0  0
 30 31  1  0  0  0
 31 32  2  0  0  0
 31 33  1  0  0  0
 33 23  1  0  0  0
 23 24  2  0  0  0
 24 25  1  0  0  0
 25 26  2  0  0  0
 26  1  1  0  0  0
  1  2  1  0  0  0
  2  3  2  0  0  0
  3  4  1  0  0  0
  4  5  2  0  0  0
  5  6  1  0  0  0
  6  7  1  0  0  0
  7  8  2  0  0  0
  8  9  1  0  0  0
  9 10  1  0  0  0
  8 11  1  0  0  0
 11 12  2  0  0  0
 11 13  1  0  0  0
 13 15  1  0  0  0
 15 16  1  0  0  0
 16 17  1  0  0  0
 17 18  1  0  0  0
 18 19  1  0  0  0
 19 20  1  0  0  0
 20 21  1  0  0  0
 21 22  1  0  0  0
 26 27  1  0  0  0
 27 28  2  0  0  0
 28 29  1  0  0  0
 42 43  2  0  0  0
 43 37  1  0  0  0
 28 23  1  0  0  0
 10  2  1  0  0  0
 22 17  1  0  0  0
 10  6  2  0  0  0
 30 34  1  0  0  0
 33 35  1  0  0  0
 13 14  1  0  0  0
M  END
> <minimizedAffinity>
6.03452

> <CNNscore>
0.5525299907

> <CNNaffinity>
6.3478183746

> <CNN_VS>
3.5073599815

> <CNNaffinity_variance>
0.2299811095

$$$$
[H]c1nc2c([H])c(C(=O)N([H])C([H])([H])C([H])([H])N3C([H])([H])C([H])([H])C([H])([H])C([H])([H])C3([H])[H])sc2c(Oc2c([H])c([H])c(N([H])C(=O)N([H])c3c([H])c(C([H])([H])[H])c([H])c([H])c3F)c(F)c2[H])c1[H]


 43 47  0  0  0  0  0  0  0  0999 V2000
   20.3983    9.3465   53.1924 O   0  0  0  0  0  0  0  0  0  0  0  0
   21.2088    8.2357   53.0463 C   0  0  0  0  0  0  0  0  0  0  0  0
   20.7329    7.1221   52.3646 C   0  0  0  0  0  0  0  0  0  0  0  0
   21.6575    6.0724   52.2931 C   0  0  0  0  0  0  0  0  0  0  0  0
   22.8713    6.0929   52.8072 N   0  0  0  0  0  0  0  0  0  0  0  0
   23.3478    7.1949   53.4852 C   0  0  0  0  0  0  0  0  0  0  0  0
   24.5664    7.3331   54.0620 C   0  0  0  0  0  0  0  0  0  0  0  0
   24.8293    8.5141   54.6930 C   0  0  0  0  0  0  0  0  0  0  0  0
   23.3895    9.3962   54.4709 S   0  0  0  0  0  0  0  0  0  0  0  0
   22.4901    8.2493   53.5856 C   0  0  0  0  0  0  0  0  0  0  0  0
   26.0457    8.9321   55.4027 C   0  0  0  0  0  0  0  0  0  0  0  0
   27.1330    8.6416   54.8577 O   0  0  0  0  0  0  0  0  0  0  0  0
   25.9933    9.6115   56.6081 N   0  0  0  0  0  0  0  0  0  0  0  0
   25.0641    9.8263   57.0364 H   0  0  0  0  0  0  0  0  0  0  0  0
   27.1663   10.0424   57.3107 C   0  0  0  0  0  0  0  0  0  0  0  0
   28.3122    9.1385   57.0277 C   0  0  0  0  0  0  0  0  0  0  0  0
   29.2792    9.6766   56.0792 N   0  0  0  0  0  0  0  0  0  0  0  0
   28.8558   11.0766   55.8842 C   0  0  0  0  0  0  0  0  0  0  0  0
   29.8481   11.8564   55.0687 C   0  0  0  0  0  0  0  0  0  0  0  0
   30.2834   11.0297   53.8747 C   0  0  0  0  0  0  0  0  0  0  0  0
   29.2510    9.9756   53.6382 C   0  0  0  0  0  0  0  0  0  0  0  0
   29.1358    9.0160   54.7755 C   0  0  0  0  0  0  0  0  0  0  0  0
   21.6455   13.1489   52.0169 C   0  0  0  0  0  0  0  0  0  0  0  0
   21.8856   12.0532   51.2318 C   0  0  0  0  0  0  0  0  0  0  0  0
   21.4736   10.7526   51.6053 C   0  0  0  0  0  0  0  0  0  0  0  0
   20.8154   10.5876   52.7884 C   0  0  0  0  0  0  0  0  0  0  0  0
   20.5596   11.6844   53.6034 C   0  0  0  0  0  0  0  0  0  0  0  0
   20.9619   12.9184   53.2267 C   0  0  0  0  0  0  0  0  0  0  0  0
   20.7130   13.9859   54.0148 F   0  0  0  0  0  0  0  0  0  0  0  0
   22.1784   16.5131   50.4857 N   0  0  0  0  0  0  0  0  0  0  0  0
   21.6202   15.2100   50.6018 C   0  0  0  0  0  0  0  0  0  0  0  0
   20.8114   14.7623   49.7937 O   0  0  0  0  0  0  0  0  0  0  0  0
   22.0475   14.4395   51.7116 N   0  0  0  0  0  0  0  0  0  0  0  0
   22.8736   16.7614   51.2608 H   0  0  0  0  0  0  0  0  0  0  0  0
   22.7566   14.8847   52.3899 H   0  0  0  0  0  0  0  0  0  0  0  0
   20.7642   17.8995   45.9689 C   0  0  0  0  0  0  0  0  0  0  0  0
   21.2573   18.1964   47.3392 C   0  0  0  0  0  0  0  0  0  0  0  0
   21.4854   19.4984   47.6695 C   0  0  0  0  0  0  0  0  0  0  0  0
   21.9417   19.8042   48.9281 C   0  0  0  0  0  0  0  0  0  0  0  0
   22.1651   18.8205   49.8395 C   0  0  0  0  0  0  0  0  0  0  0  0
   22.6158   19.1594   51.0767 F   0  0  0  0  0  0  0  0  0  0  0  0
   21.9299   17.4823   49.4978 C   0  0  0  0  0  0  0  0  0  0  0  0
   21.4755   17.1972   48.2392 C   0  0  0  0  0  0  0  0  0  0  0  0
 36 37  1  0  0  0
 37 38  2  0  0  0
 38 39  1  0  0  0
 39 40  2  0  0  0
 40 41  1  0  0  0
 40 42  1  0  0  0
 42 30  1  0  0  0
 30 31  1  0  0  0
 31 32  2  0  0  0
 31 33  1  0  0  0
 33 23  1  0  0  0
 23 24  2  0  0  0
 24 25  1  0  0  0
 25 26  2  0  0  0
 26  1  1  0  0  0
  1  2  1  0  0  0
  2  3  2  0  0  0
  3  4  1  0  0  0
  4  5  2  0  0  0
  5  6  1  0  0  0
  6  7  1  0  0  0
  7  8  2  0  0  0
  8  9  1  0  0  0
  9 10  1  0  0  0
  8 11  1  0  0  0
 11 12  2  0  0  0
 11 13  1  0  0  0
 13 15  1  0  0  0
 15 16  1  0  0  0
 16 17  1  0  0  0
 17 18  1  0  0  0
 18 19  1  0  0  0
 19 20  1  0  0  0
 20 21  1  0  0  0
 21 22  1  0  0  0
 26 27  1  0  0  0
 27 28  2  0  0  0
 28 29  1  0  0  0
 42 43  2  0  0  0
 43 37  1  0  0  0
 28 23  1  0  0  0
 10  2  1  0  0  0
 22 17  1  0  0  0
 10  6  2  0  0  0
 30 34  1  0  0  0
 33 35  1  0  0  0
 13 14  1  0  0  0
M  END
> <minimizedAffinity>
40.32022

> <CNNscore>
0.4891685545

> <CNNaffinity>
6.4405074120

> <CNN_VS>
3.1504936218

> <CNNaffinity_variance>
0.4136821330

$$$$
[H]c1nc2c([H])c(C(=O)N([H])C([H])([H])C([H])([H])N3C([H])([H])C([H])([H])C([H])([H])C([H])([H])C3([H])[H])sc2c(Oc2c([H])c([H])c(N([H])C(=O)N([H])c3c([H])c(C([H])([H])[H])c([H])c([H])c3F)c(F)c2[H])c1[H]


 43 47  0  0  0  0  0  0  0  0999 V2000
   26.5684    8.2654   54.7990 O   0  0  0  0  0  0  0  0  0  0  0  0
   25.4065    8.8164   55.3071 C   0  0  0  0  0  0  0  0  0  0  0  0
   25.4829    9.8067   56.2790 C   0  0  0  0  0  0  0  0  0  0  0  0
   24.2319   10.2729   56.7025 C   0  0  0  0  0  0  0  0  0  0  0  0
   23.0693    9.8442   56.2523 N   0  0  0  0  0  0  0  0  0  0  0  0
   22.9881    8.8613   55.2888 C   0  0  0  0  0  0  0  0  0  0  0  0
   21.8593    8.3344   54.7549 C   0  0  0  0  0  0  0  0  0  0  0  0
   22.0096    7.3583   53.8132 C   0  0  0  0  0  0  0  0  0  0  0  0
   23.7009    7.1982   53.6934 S   0  0  0  0  0  0  0  0  0  0  0  0
   24.1765    8.3697   54.8377 C   0  0  0  0  0  0  0  0  0  0  0  0
   20.9765    6.6125   53.0821 C   0  0  0  0  0  0  0  0  0  0  0  0
   20.3457    7.2490   52.2100 O   0  0  0  0  0  0  0  0  0  0  0  0
   20.7149    5.2778   53.3419 N   0  0  0  0  0  0  0  0  0  0  0  0
   21.2573    4.7838   54.0867 H   0  0  0  0  0  0  0  0  0  0  0  0
   19.7225    4.5260   52.6310 C   0  0  0  0  0  0  0  0  0  0  0  0
   19.1143    3.4926   53.5098 C   0  0  0  0  0  0  0  0  0  0  0  0
   17.9815    3.9660   54.2954 N   0  0  0  0  0  0  0  0  0  0  0  0
   17.8279    2.9531   55.3573 C   0  0  0  0  0  0  0  0  0  0  0  0
   16.8132    3.3654   56.3860 C   0  0  0  0  0  0  0  0  0  0  0  0
   15.5842    3.9188   55.6918 C   0  0  0  0  0  0  0  0  0  0  0  0
   15.5832    3.4215   54.2826 C   0  0  0  0  0  0  0  0  0  0  0  0
   16.7508    3.9164   53.4957 C   0  0  0  0  0  0  0  0  0  0  0  0
   28.2283    9.6892   51.2474 C   0  0  0  0  0  0  0  0  0  0  0  0
   28.9280    9.7388   52.4233 C   0  0  0  0  0  0  0  0  0  0  0  0
   28.3900    9.2629   53.6419 C   0  0  0  0  0  0  0  0  0  0  0  0
   27.1314    8.7376   53.6423 C   0  0  0  0  0  0  0  0  0  0  0  0
   26.4005    8.6760   52.4614 C   0  0  0  0  0  0  0  0  0  0  0  0
   26.9342    9.1363   51.3082 C   0  0  0  0  0  0  0  0  0  0  0  0
   26.2279    9.0759   50.1593 F   0  0  0  0  0  0  0  0  0  0  0  0
   29.0581   10.2397   47.6482 N   0  0  0  0  0  0  0  0  0  0  0  0
   28.4654    9.5810   48.7608 C   0  0  0  0  0  0  0  0  0  0  0  0
   27.7877    8.5639   48.6434 O   0  0  0  0  0  0  0  0  0  0  0  0
   28.6967   10.1625   50.0320 N   0  0  0  0  0  0  0  0  0  0  0  0
   29.6252   11.1099   47.9067 H   0  0  0  0  0  0  0  0  0  0  0  0
   29.2965   11.0567   50.0746 H   0  0  0  0  0  0  0  0  0  0  0  0
   27.6752    7.2732   43.9588 C   0  0  0  0  0  0  0  0  0  0  0  0
   28.3430    8.4933   44.4825 C   0  0  0  0  0  0  0  0  0  0  0  0
   28.9292    9.3367   43.5872 C   0  0  0  0  0  0  0  0  0  0  0  0
   29.5544   10.4721   44.0408 C   0  0  0  0  0  0  0  0  0  0  0  0
   29.5907   10.7564   45.3698 C   0  0  0  0  0  0  0  0  0  0  0  0
   30.2173   11.8898   45.7836 F   0  0  0  0  0  0  0  0  0  0  0  0
   28.9873    9.8879   46.2887 C   0  0  0  0  0  0  0  0  0  0  0  0
   28.3693    8.7617   45.8180 C   0  0  0  0  0  0  0  0  0  0  0  0
 36 37  1  0  0  0
 37 38  2  0  0  0
 38 39  1  0  0  0
 39 40  2  0  0  0
 40 41  1  0  0  0
 40 42  1  0  0  0
 42 30  1  0  0  0
 30 31  1  0  0  0
 31 32  2  0  0  0
 31 33  1  0  0  0
 33 23  1  0  0  0
 23 24  2  0  0  0
 24 25  1  0  0  0
 25 26  2  0  0  0
 26  1  1  0  0  0
  1  2  1  0  0  0
  2  3  2  0  0  0
  3  4  1  0  0  0
  4  5  2  0  0  0
  5  6  1  0  0  0
  6  7  1  0  0  0
  7  8  2  0  0  0
  8  9  1  0  0  0
  9 10  1  0  0  0
  8 11  1  0  0  0
 11 12  2  0  0  0
 11 13  1  0  0  0
 13 15  1  0  0  0
 15 16  1  0  0  0
 16 17  1  0  0  0
 17 18  1  0  0  0
 18 19  1  0  0  0
 19 20  1  0  0  0
 20 21  1  0  0  0
 21 22  1  0  0  0
 26 27  1  0  0  0
 27 28  2  0  0  0
 28 29  1  0  0  0
 42 43  2  0  0  0
 43 37  1  0  0  0
 28 23  1  0  0  0
 10  2  1  0  0  0
 22 17  1  0  0  0
 10  6  2  0  0  0
 30 34  1  0  0  0
 33 35  1  0  0  0
 13 14  1  0  0  0
M  END
> <minimizedAffinity>
59.92200

> <CNNscore>
0.4315401018

> <CNNaffinity>
6.6382102966

> <CNN_VS>
2.8646540642

> <CNNaffinity_variance>
0.2778239846

$$$$
[H]c1nc2c([H])c(C(=O)N([H])C([H])([H])C([H])([H])N3C([H])([H])C([H])([H])C([H])([H])C([H])([H])C3([H])[H])sc2c(Oc2c([H])c([H])c(N([H])C(=O)N([H])c3c([H])c(C([H])([H])[H])c([H])c([H])c3F)c(F)c2[H])c1[H]


 43 47  0  0  0  0  0  0  0  0999 V2000
   25.0044    8.2762   53.0037 O   0  0  0  0  0  0  0  0  0  0  0  0
   23.6510    8.0152   53.1141 C   0  0  0  0  0  0  0  0  0  0  0  0
   22.7626    8.6013   52.2206 C   0  0  0  0  0  0  0  0  0  0  0  0
   21.4260    8.2506   52.4491 C   0  0  0  0  0  0  0  0  0  0  0  0
   21.0043    7.4473   53.4057 N   0  0  0  0  0  0  0  0  0  0  0  0
   21.8816    6.8641   54.2953 C   0  0  0  0  0  0  0  0  0  0  0  0
   21.5714    6.0326   55.3195 C   0  0  0  0  0  0  0  0  0  0  0  0
   22.6025    5.5735   56.0865 C   0  0  0  0  0  0  0  0  0  0  0  0
   23.9659    6.3016   55.3715 S   0  0  0  0  0  0  0  0  0  0  0  0
   23.1983    7.1693   54.1202 C   0  0  0  0  0  0  0  0  0  0  0  0
   22.5611    4.6796   57.2515 C   0  0  0  0  0  0  0  0  0  0  0  0
   21.4873    4.6525   57.8917 O   0  0  0  0  0  0  0  0  0  0  0  0
   23.6497    3.9079   57.6215 N   0  0  0  0  0  0  0  0  0  0  0  0
   24.5334    3.9671   57.0660 H   0  0  0  0  0  0  0  0  0  0  0  0
   23.6273    3.0176   58.7449 C   0  0  0  0  0  0  0  0  0  0  0  0
   24.1637    3.6874   59.9590 C   0  0  0  0  0  0  0  0  0  0  0  0
   24.8891    2.8011   60.8606 N   0  0  0  0  0  0  0  0  0  0  0  0
   24.0667    2.7772   62.0854 C   0  0  0  0  0  0  0  0  0  0  0  0
   24.5632    1.7635   63.0772 C   0  0  0  0  0  0  0  0  0  0  0  0
   26.0723    1.8595   63.1871 C   0  0  0  0  0  0  0  0  0  0  0  0
   26.4903    3.2029   62.6836 C   0  0  0  0  0  0  0  0  0  0  0  0
   26.1756    3.4005   61.2381 C   0  0  0  0  0  0  0  0  0  0  0  0
   27.3802    9.0786   56.3365 C   0  0  0  0  0  0  0  0  0  0  0  0
   26.0312    9.3122   56.3584 C   0  0  0  0  0  0  0  0  0  0  0  0
   25.2018    9.0489   55.2433 C   0  0  0  0  0  0  0  0  0  0  0  0
   25.7680    8.5457   54.1091 C   0  0  0  0  0  0  0  0  0  0  0  0
   27.1354    8.2998   54.0617 C   0  0  0  0  0  0  0  0  0  0  0  0
   27.9092    8.5584   55.1392 C   0  0  0  0  0  0  0  0  0  0  0  0
   29.2371    8.3187   55.0971 F   0  0  0  0  0  0  0  0  0  0  0  0
   29.3241   10.6052   59.1360 N   0  0  0  0  0  0  0  0  0  0  0  0
   28.3591   10.5658   58.0918 C   0  0  0  0  0  0  0  0  0  0  0  0
   27.6580   11.5314   57.8021 O   0  0  0  0  0  0  0  0  0  0  0  0
   28.2418    9.3406   57.3898 N   0  0  0  0  0  0  0  0  0  0  0  0
   29.8633    9.6899   59.2674 H   0  0  0  0  0  0  0  0  0  0  0  0
   28.8807    8.5261   57.6893 H   0  0  0  0  0  0  0  0  0  0  0  0
   28.4724   15.0593   61.0749 C   0  0  0  0  0  0  0  0  0  0  0  0
   29.2730   13.8134   60.9490 C   0  0  0  0  0  0  0  0  0  0  0  0
   30.3956   13.6938   61.7119 C   0  0  0  0  0  0  0  0  0  0  0  0
   31.1563   12.5545   61.6172 C   0  0  0  0  0  0  0  0  0  0  0  0
   30.7968   11.5524   60.7717 C   0  0  0  0  0  0  0  0  0  0  0  0
   31.5726   10.4379   60.7043 F   0  0  0  0  0  0  0  0  0  0  0  0
   29.6420   11.6773   59.9882 C   0  0  0  0  0  0  0  0  0  0  0  0
   28.8970   12.8198   60.0961 C   0  0  0  0  0  0  0  0  0  0  0  0
 36 37  1  0  0  0
 37 38  2  0  0  0
 38 39  1  0  0  0
 39 40  2  0  0  0
 40 41  1  0  0  0
 40 42  1  0  0  0
 42 30  1  0  0  0
 30 31  1  0  0  0
 31 32  2  0  0  0
 31 33  1  0  0  0
 33 23  1  0  0  0
 23 24  2  0  0  0
 24 25  1  0  0  0
 25 26  2  0  0  0
 26  1  1  0  0  0
  1  2  1  0  0  0
  2  3  2  0  0  0
  3  4  1  0  0  0
  4  5  2  0  0  0
  5  6  1  0  0  0
  6  7  1  0  0  0
  7  8  2  0  0  0
  8  9  1  0  0  0
  9 10  1  0  0  0
  8 11  1  0  0  0
 11 12  2  0  0  0
 11 13  1  0  0  0
 13 15  1  0  0  0
 15 16  1  0  0  0
 16 17  1  0  0  0
 17 18  1  0  0  0
 18 19  1  0  0  0
 19 20  1  0  0  0
 20 21  1  0  0  0
 21 22  1  0  0  0
 26 27  1  0  0  0
 27 28  2  0  0  0
 28 29  1  0  0  0
 42 43  2  0  0  0
 43 37  1  0  0  0
 28 23  1  0  0  0
 10  2  1  0  0  0
 22 17  1  0  0  0
 10  6  2  0  0  0
 30 34  1  0  0  0
 33 35  1  0  0  0
 13 14  1  0  0  0
M  END
> <minimizedAffinity>
8.67946

> <CNNscore>
0.4312779009

> <CNNaffinity>
6.9268035889

> <CNN_VS>
2.9873774052

> <CNNaffinity_variance>
0.2494314462

$$$$
[H]OC(=O)[C@@]([H])(N([H])C(=O)[C@@]([H])(N([H])C(=O)[C@@]1([H])N(C(=O)[C@@]([H])(N([H])C(=O)[C@@]([H])(N([H])[H])C([H])([H])c2c([H])c([H])c(O[H])c([H])c2[H])C([H])(C([H])([H])[H])C([H])([H])[H])C([H])([H])C([H])([H])C1([H])[H])C([H])([H])c1c([H])c([H])c([H])c([H])c1[H])C([H])([H])C([H])(C([H])([H])[H])C([H])([H])[H]


 53 55  0  0  0  0  0  0  0  0999 V2000
   22.7393    8.9673   52.7273 C   0  0  0  0  0  0  0  0  0  0  0  0
   22.4729   10.3731   52.1507 C   0  0  0  0  0  0  0  0  0  0  0  0
   21.5153   10.9586   53.2087 C   0  0  0  0  0  0  0  0  0  0  0  0
   20.6508    9.7411   53.4197 C   0  0  0  0  0  0  0  0  0  0  0  0
   21.6639    8.6769   53.5853 N   0  0  0  0  0  0  0  0  0  0  0  0
   21.3559    7.6230   54.4848 C   0  0  0  0  0  0  0  0  0  0  0  0
   20.2181    7.8405   55.1249 O   0  0  0  0  0  0  0  0  0  0  0  0
   25.2030    9.0635   52.4307 N   0  0  0  0  0  0  0  0  0  0  0  0
   24.1002    8.9801   53.3212 C   0  0  0  0  0  0  0  0  0  0  0  0
   24.2954    8.9239   54.5307 O   0  0  0  0  0  0  0  0  0  0  0  0
   25.0299    9.1103   51.3862 H   0  0  0  0  0  0  0  0  0  0  0  0
   26.5825    9.0872   52.8289 C   0  0  0  0  0  0  0  0  0  0  0  0
   27.4385   10.0109   50.6396 N   0  0  0  0  0  0  0  0  0  0  0  0
   27.4983    9.0550   51.6576 C   0  0  0  0  0  0  0  0  0  0  0  0
   28.3432    8.1337   51.6025 O   0  0  0  0  0  0  0  0  0  0  0  0
   26.7224   10.7761   50.6890 H   0  0  0  0  0  0  0  0  0  0  0  0
   28.3042   10.0390   49.4747 C   0  0  0  0  0  0  0  0  0  0  0  0
   28.4019   11.3666   48.8767 C   0  0  0  0  0  0  0  0  0  0  0  0
   29.1353   11.7370   47.7862 O   0  0  0  0  0  0  0  0  0  0  0  0
   27.7276   12.3053   49.4324 O   0  0  0  0  0  0  0  0  0  0  0  0
   30.0563   12.1507   47.7782 H   0  0  0  0  0  0  0  0  0  0  0  0
   28.0135    8.9715   48.4921 C   0  0  0  0  0  0  0  0  0  0  0  0
   28.6673    8.6367   46.1911 C   0  0  0  0  0  0  0  0  0  0  0  0
   29.1416    8.4911   47.6540 C   0  0  0  0  0  0  0  0  0  0  0  0
   29.4067    6.9889   47.7840 C   0  0  0  0  0  0  0  0  0  0  0  0
   27.0047    8.0620   53.8043 C   0  0  0  0  0  0  0  0  0  0  0  0
   27.3636    8.5093   55.1499 C   0  0  0  0  0  0  0  0  0  0  0  0
   28.7012    8.4871   55.5281 C   0  0  0  0  0  0  0  0  0  0  0  0
   29.1314    8.9012   56.7584 C   0  0  0  0  0  0  0  0  0  0  0  0
   28.2369    9.3662   57.6906 C   0  0  0  0  0  0  0  0  0  0  0  0
   26.9029    9.4027   57.3517 C   0  0  0  0  0  0  0  0  0  0  0  0
   26.4720    8.9770   56.0902 C   0  0  0  0  0  0  0  0  0  0  0  0
   22.0245    6.3948   54.8292 C   0  0  0  0  0  0  0  0  0  0  0  0
   21.1004    5.2351   54.6141 N   0  0  0  0  0  0  0  0  0  0  0  0
   20.1472    5.2298   53.5699 C   0  0  0  0  0  0  0  0  0  0  0  0
   20.0786    6.2172   52.8108 O   0  0  0  0  0  0  0  0  0  0  0  0
   21.1457    4.4041   55.2357 H   0  0  0  0  0  0  0  0  0  0  0  0
   19.2345    4.0924   53.3579 C   0  0  0  0  0  0  0  0  0  0  0  0
   19.6304    3.4121   52.1200 N   0  0  0  0  0  0  0  0  0  0  0  0
   19.6262    4.0907   51.3386 H   0  0  0  0  0  0  0  0  0  0  0  0
   18.9771    2.6163   51.9834 H   0  0  0  0  0  0  0  0  0  0  0  0
   19.2762    3.0724   54.4826 C   0  0  0  0  0  0  0  0  0  0  0  0
   18.1576    3.1794   55.4236 C   0  0  0  0  0  0  0  0  0  0  0  0
   16.8995    3.4701   54.9667 C   0  0  0  0  0  0  0  0  0  0  0  0
   15.8463    3.5714   55.8737 C   0  0  0  0  0  0  0  0  0  0  0  0
   16.0393    3.3839   57.2214 C   0  0  0  0  0  0  0  0  0  0  0  0
   14.9726    3.4876   58.1338 O   0  0  0  0  0  0  0  0  0  0  0  0
   17.3020    3.0908   57.6962 C   0  0  0  0  0  0  0  0  0  0  0  0
   18.3362    2.9942   56.7806 C   0  0  0  0  0  0  0  0  0  0  0  0
   14.7977    4.3948   58.5253 H   0  0  0  0  0  0  0  0  0  0  0  0
   23.2440    6.0212   54.0096 C   0  0  0  0  0  0  0  0  0  0  0  0
   23.1222    6.3698   52.5543 C   0  0  0  0  0  0  0  0  0  0  0  0
   24.5646    6.3658   54.5830 C   0  0  0  0  0  0  0  0  0  0  0  0
 23 24  1  0  0  0
 24 25  1  0  0  0
 24 22  1  0  0  0
 22 17  1  0  0  0
 17 13  1  0  0  0
 13 14  1  0  0  0
 14 15  2  0  0  0
 14 12  1  0  0  0
 12 26  1  0  0  0
 26 27  1  0  0  0
 27 28  2  0  0  0
 28 29  1  0  0  0
 29 30  2  0  0  0
 30 31  1  0  0  0
 31 32  2  0  0  0
 12  8  1  0  0  0
  8  9  1  0  0  0
  9 10  2  0  0  0
  9  1  1  0  0  0
  1  2  1  0  0  0
  2  3  1  0  0  0
  3  4  1  0  0  0
  4  5  1  0  0  0
  5  6  1  0  0  0
  6  7  2  0  0  0
  6 33  1  0  0  0
 33 34  1  0  0  0
 34 35  1  0  0  0
 35 36  2  0  0  0
 35 38  1  0  0  0
 38 39  1  0  0  0
 38 42  1  0  0  0
 42 43  1  0  0  0
 43 44  2  0  0  0
 44 45  1  0  0  0
 45 46  2  0  0  0
 46 47  1  0  0  0
 46 48  1  0  0  0
 48 49  2  0  0  0
 33 51  1  0  0  0
 51 52  1  0  0  0
 51 53  1  0  0  0
 17 18  1  0  0  0
 18 19  1  0  0  0
 18 20  2  0  0  0
 32 27  1  0  0  0
  5  1  1  0  0  0
 49 43  1  0  0  0
 13 16  1  0  0  0
  8 11  1  0  0  0
 34 37  1  0  0  0
 39 40  1  0  0  0
 39 41  1  0  0  0
 47 50  1  0  0  0
 19 21  1  0  0  0
M  END
> <minimizedAffinity>
40.21880

> <CNNscore>
0.5090257525

> <CNNaffinity>
7.0395483971

> <CNN_VS>
3.5833113194

> <CNNaffinity_variance>
0.3913024962

$$$$
[H]OC(=O)[C@@]([H])(N([H])C(=O)[C@@]([H])(N([H])C(=O)[C@@]1([H])N(C(=O)[C@@]([H])(N([H])C(=O)[C@@]([H])(N([H])[H])C([H])([H])c2c([H])c([H])c(O[H])c([H])c2[H])C([H])(C([H])([H])[H])C([H])([H])[H])C([H])([H])C([H])([H])C1([H])[H])C([H])([H])c1c([H])c([H])c([H])c([H])c1[H])C([H])([H])C([H])(C([H])([H])[H])C([H])([H])[H]


 53 55  0  0  0  0  0  0  0  0999 V2000
   23.1324    8.8609   53.5932 C   0  0  0  0  0  0  0  0  0  0  0  0
   23.2426   10.3540   53.2216 C   0  0  0  0  0  0  0  0  0  0  0  0
   22.7977   11.0275   54.5360 C   0  0  0  0  0  0  0  0  0  0  0  0
   21.6379   10.1215   54.8650 C   0  0  0  0  0  0  0  0  0  0  0  0
   22.2373    8.7832   54.6747 N   0  0  0  0  0  0  0  0  0  0  0  0
   21.7924    7.7454   55.5347 C   0  0  0  0  0  0  0  0  0  0  0  0
   20.9660    8.1982   56.4641 O   0  0  0  0  0  0  0  0  0  0  0  0
   25.0529    8.4720   55.1188 N   0  0  0  0  0  0  0  0  0  0  0  0
   24.5106    8.3535   53.8119 C   0  0  0  0  0  0  0  0  0  0  0  0
   25.1787    7.8450   52.9178 O   0  0  0  0  0  0  0  0  0  0  0  0
   24.4728    8.9134   55.8881 H   0  0  0  0  0  0  0  0  0  0  0  0
   26.3646    8.0364   55.5082 C   0  0  0  0  0  0  0  0  0  0  0  0
   28.0844    8.5519   57.2847 N   0  0  0  0  0  0  0  0  0  0  0  0
   26.9580    8.9226   56.5447 C   0  0  0  0  0  0  0  0  0  0  0  0
   26.4158   10.0326   56.7437 O   0  0  0  0  0  0  0  0  0  0  0  0
   28.5292    7.6165   57.1174 H   0  0  0  0  0  0  0  0  0  0  0  0
   28.7143    9.3703   58.3049 C   0  0  0  0  0  0  0  0  0  0  0  0
   29.0435    8.6152   59.5095 C   0  0  0  0  0  0  0  0  0  0  0  0
   29.1377    7.2597   59.6431 O   0  0  0  0  0  0  0  0  0  0  0  0
   29.2700    9.2913   60.5754 O   0  0  0  0  0  0  0  0  0  0  0  0
   28.4258    6.6250   59.9745 H   0  0  0  0  0  0  0  0  0  0  0  0
   27.9955   10.6339   58.5809 C   0  0  0  0  0  0  0  0  0  0  0  0
   29.9865   11.3301   59.7578 C   0  0  0  0  0  0  0  0  0  0  0  0
   28.8174   11.8336   58.8828 C   0  0  0  0  0  0  0  0  0  0  0  0
   28.1155   12.8457   59.7919 C   0  0  0  0  0  0  0  0  0  0  0  0
   27.3434    7.8380   54.4203 C   0  0  0  0  0  0  0  0  0  0  0  0
   28.1694    8.9806   54.0310 C   0  0  0  0  0  0  0  0  0  0  0  0
   29.0801    9.4918   54.9486 C   0  0  0  0  0  0  0  0  0  0  0  0
   29.9043   10.5462   54.6674 C   0  0  0  0  0  0  0  0  0  0  0  0
   29.8630   11.1560   53.4378 C   0  0  0  0  0  0  0  0  0  0  0  0
   28.9729   10.6771   52.5029 C   0  0  0  0  0  0  0  0  0  0  0  0
   28.1336    9.5974   52.7995 C   0  0  0  0  0  0  0  0  0  0  0  0
   22.0598    6.3315   55.5927 C   0  0  0  0  0  0  0  0  0  0  0  0
   20.9392    5.5750   54.9468 N   0  0  0  0  0  0  0  0  0  0  0  0
   20.4359    5.9363   53.6758 C   0  0  0  0  0  0  0  0  0  0  0  0
   20.9416    6.9090   53.0810 O   0  0  0  0  0  0  0  0  0  0  0  0
   20.5082    4.7613   55.4275 H   0  0  0  0  0  0  0  0  0  0  0  0
   19.3315    5.1967   53.0395 C   0  0  0  0  0  0  0  0  0  0  0  0
   19.5859    5.1466   51.5957 N   0  0  0  0  0  0  0  0  0  0  0  0
   19.6957    6.1094   51.2326 H   0  0  0  0  0  0  0  0  0  0  0  0
   18.7989    4.6257   51.1622 H   0  0  0  0  0  0  0  0  0  0  0  0
   19.2008    3.7680   53.5383 C   0  0  0  0  0  0  0  0  0  0  0  0
   18.2343    3.6051   54.6281 C   0  0  0  0  0  0  0  0  0  0  0  0
   16.9011    3.8259   54.4042 C   0  0  0  0  0  0  0  0  0  0  0  0
   15.9943    3.6699   55.4508 C   0  0  0  0  0  0  0  0  0  0  0  0
   16.4063    3.2962   56.7075 C   0  0  0  0  0  0  0  0  0  0  0  0
   15.4868    3.1402   57.7617 O   0  0  0  0  0  0  0  0  0  0  0  0
   17.7469    3.0708   56.9478 C   0  0  0  0  0  0  0  0  0  0  0  0
   18.6332    3.2307   55.8963 C   0  0  0  0  0  0  0  0  0  0  0  0
   15.2981    3.9509   58.3221 H   0  0  0  0  0  0  0  0  0  0  0  0
   23.2852    5.8313   54.8533 C   0  0  0  0  0  0  0  0  0  0  0  0
   24.1536    4.9206   55.6724 C   0  0  0  0  0  0  0  0  0  0  0  0
   23.0789    5.3501   53.4686 C   0  0  0  0  0  0  0  0  0  0  0  0
 23 24  1  0  0  0
 24 25  1  0  0  0
 24 22  1  0  0  0
 22 17  1  0  0  0
 17 13  1  0  0  0
 13 14  1  0  0  0
 14 15  2  0  0  0
 14 12  1  0  0  0
 12 26  1  0  0  0
 26 27  1  0  0  0
 27 28  2  0  0  0
 28 29  1  0  0  0
 29 30  2  0  0  0
 30 31  1  0  0  0
 31 32  2  0  0  0
 12  8  1  0  0  0
  8  9  1  0  0  0
  9 10  2  0  0  0
  9  1  1  0  0  0
  1  2  1  0  0  0
  2  3  1  0  0  0
  3  4  1  0  0  0
  4  5  1  0  0  0
  5  6  1  0  0  0
  6  7  2  0  0  0
  6 33  1  0  0  0
 33 34  1  0  0  0
 34 35  1  0  0  0
 35 36  2  0  0  0
 35 38  1  0  0  0
 38 39  1  0  0  0
 38 42  1  0  0  0
 42 43  1  0  0  0
 43 44  2  0  0  0
 44 45  1  0  0  0
 45 46  2  0  0  0
 46 47  1  0  0  0
 46 48  1  0  0  0
 48 49  2  0  0  0
 33 51  1  0  0  0
 51 52  1  0  0  0
 51 53  1  0  0  0
 17 18  1  0  0  0
 18 19  1  0  0  0
 18 20  2  0  0  0
 32 27  1  0  0  0
  5  1  1  0  0  0
 49 43  1  0  0  0
 13 16  1  0  0  0
  8 11  1  0  0  0
 34 37  1  0  0  0
 39 40  1  0  0  0
 39 41  1  0  0  0
 47 50  1  0  0  0
 19 21  1  0  0  0
M  END
> <minimizedAffinity>
38.94426

> <CNNscore>
0.4406844079

> <CNNaffinity>
6.7174100876

> <CNN_VS>
2.9602577686

> <CNNaffinity_variance>
0.6270090342

$$$$
[H]OC(=O)[C@@]([H])(N([H])C(=O)[C@@]([H])(N([H])C(=O)[C@@]1([H])N(C(=O)[C@@]([H])(N([H])C(=O)[C@@]([H])(N([H])[H])C([H])([H])c2c([H])c([H])c(O[H])c([H])c2[H])C([H])(C([H])([H])[H])C([H])([H])[H])C([H])([H])C([H])([H])C1([H])[H])C([H])([H])c1c([H])c([H])c([H])c([H])c1[H])C([H])([H])C([H])(C([H])([H])[H])C([H])([H])[H]


 53 55  0  0  0  0  0  0  0  0999 V2000
   21.7246    8.3765   56.0338 C   0  0  0  0  0  0  0  0  0  0  0  0
   20.4342    8.9545   56.6506 C   0  0  0  0  0  0  0  0  0  0  0  0
   20.4963   10.4182   56.1680 C   0  0  0  0  0  0  0  0  0  0  0  0
   21.9644   10.6662   56.4081 C   0  0  0  0  0  0  0  0  0  0  0  0
   22.5769    9.4687   55.7937 N   0  0  0  0  0  0  0  0  0  0  0  0
   23.8366    9.6369   55.1617 C   0  0  0  0  0  0  0  0  0  0  0  0
   24.2078   10.9070   55.1368 O   0  0  0  0  0  0  0  0  0  0  0  0
   20.2855    8.0457   54.0372 N   0  0  0  0  0  0  0  0  0  0  0  0
   21.3285    7.5517   54.8643 C   0  0  0  0  0  0  0  0  0  0  0  0
   21.8647    6.4816   54.5968 O   0  0  0  0  0  0  0  0  0  0  0  0
   19.8239    8.9701   54.2728 H   0  0  0  0  0  0  0  0  0  0  0  0
   19.7767    7.3822   52.8697 C   0  0  0  0  0  0  0  0  0  0  0  0
   18.9455    5.0956   53.5476 N   0  0  0  0  0  0  0  0  0  0  0  0
   19.9236    5.9052   52.9632 C   0  0  0  0  0  0  0  0  0  0  0  0
   20.9643    5.3914   52.4957 O   0  0  0  0  0  0  0  0  0  0  0  0
   18.0789    5.5344   53.9441 H   0  0  0  0  0  0  0  0  0  0  0  0
   19.0251    3.6509   53.6660 C   0  0  0  0  0  0  0  0  0  0  0  0
   19.6136    3.0204   52.4888 C   0  0  0  0  0  0  0  0  0  0  0  0
   19.2537    3.1944   51.1833 O   0  0  0  0  0  0  0  0  0  0  0  0
   20.5806    2.2025   52.6899 O   0  0  0  0  0  0  0  0  0  0  0  0
   18.6332    2.6160   50.6358 H   0  0  0  0  0  0  0  0  0  0  0  0
   17.7594    3.0194   54.1005 C   0  0  0  0  0  0  0  0  0  0  0  0
   16.2379    3.5268   55.9065 C   0  0  0  0  0  0  0  0  0  0  0  0
   16.6385    3.9220   54.4680 C   0  0  0  0  0  0  0  0  0  0  0  0
   15.3577    3.6665   53.6694 C   0  0  0  0  0  0  0  0  0  0  0  0
   20.3029    7.8414   51.5686 C   0  0  0  0  0  0  0  0  0  0  0  0
   20.7488    9.2308   51.4666 C   0  0  0  0  0  0  0  0  0  0  0  0
   21.4962    9.7719   52.5065 C   0  0  0  0  0  0  0  0  0  0  0  0
   21.9691   11.0550   52.4909 C   0  0  0  0  0  0  0  0  0  0  0  0
   21.7176   11.8787   51.4215 C   0  0  0  0  0  0  0  0  0  0  0  0
   20.9801   11.3775   50.3725 C   0  0  0  0  0  0  0  0  0  0  0  0
   20.5005   10.0631   50.3971 C   0  0  0  0  0  0  0  0  0  0  0  0
   24.7653    8.7179   54.5559 C   0  0  0  0  0  0  0  0  0  0  0  0
   25.9328    8.4986   55.4691 N   0  0  0  0  0  0  0  0  0  0  0  0
   27.2554    8.7955   55.0670 C   0  0  0  0  0  0  0  0  0  0  0  0
   27.4497    9.2524   53.9227 O   0  0  0  0  0  0  0  0  0  0  0  0
   25.7884    8.1208   56.4259 H   0  0  0  0  0  0  0  0  0  0  0  0
   28.4060    8.5776   55.9614 C   0  0  0  0  0  0  0  0  0  0  0  0
   29.3100    9.7257   55.8327 N   0  0  0  0  0  0  0  0  0  0  0  0
   29.5799    9.8409   54.8403 H   0  0  0  0  0  0  0  0  0  0  0  0
   30.1156    9.5559   56.4659 H   0  0  0  0  0  0  0  0  0  0  0  0
   28.0141    8.4563   57.4240 C   0  0  0  0  0  0  0  0  0  0  0  0
   28.4154    9.6031   58.2438 C   0  0  0  0  0  0  0  0  0  0  0  0
   29.0209    9.4039   59.4562 C   0  0  0  0  0  0  0  0  0  0  0  0
   29.3943   10.5040   60.2259 C   0  0  0  0  0  0  0  0  0  0  0  0
   29.1708   11.7899   59.7956 C   0  0  0  0  0  0  0  0  0  0  0  0
   29.5493   12.8980   60.5766 O   0  0  0  0  0  0  0  0  0  0  0  0
   28.5610   12.0057   58.5760 C   0  0  0  0  0  0  0  0  0  0  0  0
   28.1969   10.9010   57.8250 C   0  0  0  0  0  0  0  0  0  0  0  0
   28.8690   13.2486   61.2255 H   0  0  0  0  0  0  0  0  0  0  0  0
   24.2671    7.3112   54.2886 C   0  0  0  0  0  0  0  0  0  0  0  0
   24.0281    7.0224   52.8346 C   0  0  0  0  0  0  0  0  0  0  0  0
   24.9625    6.2115   54.9946 C   0  0  0  0  0  0  0  0  0  0  0  0
 23 24  1  0  0  0
 24 25  1  0  0  0
 24 22  1  0  0  0
 22 17  1  0  0  0
 17 13  1  0  0  0
 13 14  1  0  0  0
 14 15  2  0  0  0
 14 12  1  0  0  0
 12 26  1  0  0  0
 26 27  1  0  0  0
 27 28  2  0  0  0
 28 29  1  0  0  0
 29 30  2  0  0  0
 30 31  1  0  0  0
 31 32  2  0  0  0
 12  8  1  0  0  0
  8  9  1  0  0  0
  9 10  2  0  0  0
  9  1  1  0  0  0
  1  2  1  0  0  0
  2  3  1  0  0  0
  3  4  1  0  0  0
  4  5  1  0  0  0
  5  6  1  0  0  0
  6  7  2  0  0  0
  6 33  1  0  0  0
 33 34  1  0  0  0
 34 35  1  0  0  0
 35 36  2  0  0  0
 35 38  1  0  0  0
 38 39  1  0  0  0
 38 42  1  0  0  0
 42 43  1  0  0  0
 43 44  2  0  0  0
 44 45  1  0  0  0
 45 46  2  0  0  0
 46 47  1  0  0  0
 46 48  1  0  0  0
 48 49  2  0  0  0
 33 51  1  0  0  0
 51 52  1  0  0  0
 51 53  1  0  0  0
 17 18  1  0  0  0
 18 19  1  0  0  0
 18 20  2  0  0  0
 32 27  1  0  0  0
  5  1  1  0  0  0
 49 43  1  0  0  0
 13 16  1  0  0  0
  8 11  1  0  0  0
 34 37  1  0  0  0
 39 40  1  0  0  0
 39 41  1  0  0  0
 47 50  1  0  0  0
 19 21  1  0  0  0
M  END
> <minimizedAffinity>
33.98669

> <CNNscore>
0.4322544634

> <CNNaffinity>
6.9080977440

> <CNN_VS>
2.9860560894

> <CNNaffinity_variance>
0.5242363811

$$$$
[H]OC(=O)[C@@]([H])(N([H])C(=O)[C@@]([H])(N([H])C(=O)[C@@]1([H])N(C(=O)[C@@]([H])(N([H])C(=O)[C@@]([H])(N([H])[H])C([H])([H])c2c([H])c([H])c(O[H])c([H])c2[H])C([H])(C([H])([H])[H])C([H])([H])[H])C([H])([H])C([H])([H])C1([H])[H])C([H])([H])c1c([H])c([H])c([H])c([H])c1[H])C([H])([H])C([H])(C([H])([H])[H])C([H])([H])[H]


 53 55  0  0  0  0  0  0  0  0999 V2000
   21.6621    9.8412   52.5716 C   0  0  0  0  0  0  0  0  0  0  0  0
   22.0193   10.9474   51.5575 C   0  0  0  0  0  0  0  0  0  0  0  0
   22.1114   12.1830   52.4761 C   0  0  0  0  0  0  0  0  0  0  0  0
   20.9006   11.9102   53.3327 C   0  0  0  0  0  0  0  0  0  0  0  0
   21.0942   10.4869   53.6839 N   0  0  0  0  0  0  0  0  0  0  0  0
   20.6615   10.0721   54.9705 C   0  0  0  0  0  0  0  0  0  0  0  0
   20.2427   11.0934   55.7007 O   0  0  0  0  0  0  0  0  0  0  0  0
   23.6688    9.3474   53.9487 N   0  0  0  0  0  0  0  0  0  0  0  0
   22.8886    9.0370   52.8037 C   0  0  0  0  0  0  0  0  0  0  0  0
   23.2388    8.1319   52.0536 O   0  0  0  0  0  0  0  0  0  0  0  0
   23.3635   10.1312   54.5933 H   0  0  0  0  0  0  0  0  0  0  0  0
   24.8804    8.6752   54.3260 C   0  0  0  0  0  0  0  0  0  0  0  0
   26.7837    9.2148   55.8961 N   0  0  0  0  0  0  0  0  0  0  0  0
   25.4141    9.1789   55.6195 C   0  0  0  0  0  0  0  0  0  0  0  0
   24.5922    9.5802   56.4735 O   0  0  0  0  0  0  0  0  0  0  0  0
   27.4664    8.8698   55.1781 H   0  0  0  0  0  0  0  0  0  0  0  0
   27.3688    9.6976   57.1338 C   0  0  0  0  0  0  0  0  0  0  0  0
   27.9284   11.0394   57.0071 C   0  0  0  0  0  0  0  0  0  0  0  0
   28.9307   11.4486   56.1751 O   0  0  0  0  0  0  0  0  0  0  0  0
   27.4322   11.9497   57.7618 O   0  0  0  0  0  0  0  0  0  0  0  0
   29.9117   11.5402   56.3954 H   0  0  0  0  0  0  0  0  0  0  0  0
   28.2925    8.7329   57.7708 C   0  0  0  0  0  0  0  0  0  0  0  0
   29.2528   10.1150   59.5033 C   0  0  0  0  0  0  0  0  0  0  0  0
   28.4560    8.8173   59.2446 C   0  0  0  0  0  0  0  0  0  0  0  0
   29.3657    7.7310   59.8245 C   0  0  0  0  0  0  0  0  0  0  0  0
   25.9659    8.6615   53.3248 C   0  0  0  0  0  0  0  0  0  0  0  0
   27.3332    8.4653   53.8059 C   0  0  0  0  0  0  0  0  0  0  0  0
   28.2163    9.5384   53.7685 C   0  0  0  0  0  0  0  0  0  0  0  0
   29.5073    9.4527   54.2114 C   0  0  0  0  0  0  0  0  0  0  0  0
   29.9932    8.2746   54.7225 C   0  0  0  0  0  0  0  0  0  0  0  0
   29.1474    7.1895   54.7753 C   0  0  0  0  0  0  0  0  0  0  0  0
   27.8277    7.2867   54.3200 C   0  0  0  0  0  0  0  0  0  0  0  0
   20.5928    8.7887   55.6204 C   0  0  0  0  0  0  0  0  0  0  0  0
   20.0671    7.7619   54.6642 N   0  0  0  0  0  0  0  0  0  0  0  0
   20.9317    6.8938   53.9584 C   0  0  0  0  0  0  0  0  0  0  0  0
   22.1620    6.9886   54.1408 O   0  0  0  0  0  0  0  0  0  0  0  0
   19.0454    7.6682   54.5023 H   0  0  0  0  0  0  0  0  0  0  0  0
   20.4182    5.8854   53.0146 C   0  0  0  0  0  0  0  0  0  0  0  0
   21.3476    5.8023   51.8826 N   0  0  0  0  0  0  0  0  0  0  0  0
   21.4575    6.7400   51.4589 H   0  0  0  0  0  0  0  0  0  0  0  0
   20.9708    5.0909   51.2264 H   0  0  0  0  0  0  0  0  0  0  0  0
   20.3020    4.4986   53.6234 C   0  0  0  0  0  0  0  0  0  0  0  0
   18.9636    3.9115   53.5132 C   0  0  0  0  0  0  0  0  0  0  0  0
   17.9330    4.4009   54.2713 C   0  0  0  0  0  0  0  0  0  0  0  0
   16.6665    3.8307   54.1578 C   0  0  0  0  0  0  0  0  0  0  0  0
   16.4244    2.7858   53.2986 C   0  0  0  0  0  0  0  0  0  0  0  0
   15.1436    2.2127   53.1876 O   0  0  0  0  0  0  0  0  0  0  0  0
   17.4537    2.2820   52.5288 C   0  0  0  0  0  0  0  0  0  0  0  0
   18.7051    2.8608   52.6548 C   0  0  0  0  0  0  0  0  0  0  0  0
   14.9352    1.4466   53.8013 H   0  0  0  0  0  0  0  0  0  0  0  0
   21.9009    8.1842   56.0914 C   0  0  0  0  0  0  0  0  0  0  0  0
   22.6981    9.0920   56.9830 C   0  0  0  0  0  0  0  0  0  0  0  0
   21.8539    6.7860   56.5754 C   0  0  0  0  0  0  0  0  0  0  0  0
 23 24  1  0  0  0
 24 25  1  0  0  0
 24 22  1  0  0  0
 22 17  1  0  0  0
 17 13  1  0  0  0
 13 14  1  0  0  0
 14 15  2  0  0  0
 14 12  1  0  0  0
 12 26  1  0  0  0
 26 27  1  0  0  0
 27 28  2  0  0  0
 28 29  1  0  0  0
 29 30  2  0  0  0
 30 31  1  0  0  0
 31 32  2  0  0  0
 12  8  1  0  0  0
  8  9  1  0  0  0
  9 10  2  0  0  0
  9  1  1  0  0  0
  1  2  1  0  0  0
  2  3  1  0  0  0
  3  4  1  0  0  0
  4  5  1  0  0  0
  5  6  1  0  0  0
  6  7  2  0  0  0
  6 33  1  0  0  0
 33 34  1  0  0  0
 34 35  1  0  0  0
 35 36  2  0  0  0
 35 38  1  0  0  0
 38 39  1  0  0  0
 38 42  1  0  0  0
 42 43  1  0  0  0
 43 44  2  0  0  0
 44 45  1  0  0  0
 45 46  2  0  0  0
 46 47  1  0  0  0
 46 48  1  0  0  0
 48 49  2  0  0  0
 33 51  1  0  0  0
 51 52  1  0  0  0
 51 53  1  0  0  0
 17 18  1  0  0  0
 18 19  1  0  0  0
 18 20  2  0  0  0
 32 27  1  0  0  0
  5  1  1  0  0  0
 49 43  1  0  0  0
 13 16  1  0  0  0
  8 11  1  0  0  0
 34 37  1  0  0  0
 39 40  1  0  0  0
 39 41  1  0  0  0
 47 50  1  0  0  0
 19 21  1  0  0  0
M  END
> <minimizedAffinity>
35.88721

> <CNNscore>
0.4310539067

> <CNNaffinity>
6.8104424477

> <CNN_VS>
2.9356677532

> <CNNaffinity_variance>
1.7790718079

$$$$
[H]OC(=O)[C@@]([H])(N([H])C(=O)[C@@]([H])(N([H])C(=O)[C@@]1([H])N(C(=O)[C@@]([H])(N([H])C(=O)[C@@]([H])(N([H])[H])C([H])([H])c2c([H])c([H])c(O[H])c([H])c2[H])C([H])(C([H])([H])[H])C([H])([H])[H])C([H])([H])C([H])([H])C1([H])[H])C([H])([H])c1c([H])c([H])c([H])c([H])c1[H])C([H])([H])C([H])(C([H])([H])[H])C([H])([H])[H]


 53 55  0  0  0  0  0  0  0  0999 V2000
   23.3931    7.4197   52.9892 C   0  0  0  0  0  0  0  0  0  0  0  0
   24.0143    6.0657   52.5884 C   0  0  0  0  0  0  0  0  0  0  0  0
   23.6720    6.0077   51.0855 C   0  0  0  0  0  0  0  0  0  0  0  0
   22.2552    6.5185   51.1634 C   0  0  0  0  0  0  0  0  0  0  0  0
   22.4111    7.7097   52.0256 N   0  0  0  0  0  0  0  0  0  0  0  0
   21.5690    8.8199   51.7557 C   0  0  0  0  0  0  0  0  0  0  0  0
   20.8376    8.6289   50.6694 O   0  0  0  0  0  0  0  0  0  0  0  0
   25.7332    8.0897   52.4973 N   0  0  0  0  0  0  0  0  0  0  0  0
   24.5050    8.3918   53.1425 C   0  0  0  0  0  0  0  0  0  0  0  0
   24.3958    9.4254   53.7937 O   0  0  0  0  0  0  0  0  0  0  0  0
   25.8239    7.1948   51.9369 H   0  0  0  0  0  0  0  0  0  0  0  0
   26.9090    8.9132   52.5385 C   0  0  0  0  0  0  0  0  0  0  0  0
   27.7505   10.2105   50.5416 N   0  0  0  0  0  0  0  0  0  0  0  0
   27.5745    8.9963   51.2111 C   0  0  0  0  0  0  0  0  0  0  0  0
   27.9837    7.9321   50.6957 O   0  0  0  0  0  0  0  0  0  0  0  0
   27.3982   11.0978   50.9767 H   0  0  0  0  0  0  0  0  0  0  0  0
   28.3944   10.3606   49.2492 C   0  0  0  0  0  0  0  0  0  0  0  0
   28.3207   11.7254   48.7377 C   0  0  0  0  0  0  0  0  0  0  0  0
   29.2215   12.3635   47.9343 O   0  0  0  0  0  0  0  0  0  0  0  0
   27.2968   12.4188   49.0774 O   0  0  0  0  0  0  0  0  0  0  0  0
   29.9667   12.9824   48.2191 H   0  0  0  0  0  0  0  0  0  0  0  0
   27.9865    9.3389   48.2596 C   0  0  0  0  0  0  0  0  0  0  0  0
   28.4505    8.6801   45.9826 C   0  0  0  0  0  0  0  0  0  0  0  0
   29.0512    8.7560   47.4037 C   0  0  0  0  0  0  0  0  0  0  0  0
   29.3650    7.2925   47.7255 C   0  0  0  0  0  0  0  0  0  0  0  0
   27.9145    8.5756   53.5660 C   0  0  0  0  0  0  0  0  0  0  0  0
   27.6086    8.9151   54.9554 C   0  0  0  0  0  0  0  0  0  0  0  0
   28.6507    9.2796   55.8004 C   0  0  0  0  0  0  0  0  0  0  0  0
   28.4579    9.6284   57.1085 C   0  0  0  0  0  0  0  0  0  0  0  0
   27.1966    9.6321   57.6515 C   0  0  0  0  0  0  0  0  0  0  0  0
   26.1392    9.2764   56.8446 C   0  0  0  0  0  0  0  0  0  0  0  0
   26.3462    8.9211   55.5070 C   0  0  0  0  0  0  0  0  0  0  0  0
   21.3618   10.0828   52.4163 C   0  0  0  0  0  0  0  0  0  0  0  0
   22.0743   10.0903   53.7344 N   0  0  0  0  0  0  0  0  0  0  0  0
   21.4218   10.4748   54.9283 C   0  0  0  0  0  0  0  0  0  0  0  0
   20.2226   10.8144   54.8779 O   0  0  0  0  0  0  0  0  0  0  0  0
   23.0723    9.8084   53.7944 H   0  0  0  0  0  0  0  0  0  0  0  0
   22.1206   10.4868   56.2256 C   0  0  0  0  0  0  0  0  0  0  0  0
   21.1904   10.9895   57.2424 N   0  0  0  0  0  0  0  0  0  0  0  0
   20.8411   11.9211   56.9577 H   0  0  0  0  0  0  0  0  0  0  0  0
   21.6978   10.9945   58.1485 H   0  0  0  0  0  0  0  0  0  0  0  0
   22.5914    9.1113   56.6658 C   0  0  0  0  0  0  0  0  0  0  0  0
   22.0406    8.0115   55.8687 C   0  0  0  0  0  0  0  0  0  0  0  0
   22.7026    6.8144   55.7978 C   0  0  0  0  0  0  0  0  0  0  0  0
   22.1681    5.7788   55.0336 C   0  0  0  0  0  0  0  0  0  0  0  0
   20.9867    5.9289   54.3478 C   0  0  0  0  0  0  0  0  0  0  0  0
   20.4509    4.8802   53.5769 O   0  0  0  0  0  0  0  0  0  0  0  0
   20.3090    7.1300   54.4097 C   0  0  0  0  0  0  0  0  0  0  0  0
   20.8549    8.1476   55.1736 C   0  0  0  0  0  0  0  0  0  0  0  0
   20.7303    4.8370   52.6141 H   0  0  0  0  0  0  0  0  0  0  0  0
   21.9024   11.3187   51.7246 C   0  0  0  0  0  0  0  0  0  0  0  0
   21.1496   11.6910   50.4800 C   0  0  0  0  0  0  0  0  0  0  0  0
   22.2170   12.4815   52.5853 C   0  0  0  0  0  0  0  0  0  0  0  0
 23 24  1  0  0  0
 24 25  1  0  0  0
 24 22  1  0  0  0
 22 17  1  0  0  0
 17 13  1  0  0  0
 13 14  1  0  0  0
 14 15  2  0  0  0
 14 12  1  0  0  0
 12 26  1  0  0  0
 26 27  1  0  0  0
 27 28  2  0  0  0
 28 29  1  0  0  0
 29 30  2  0  0  0
 30 31  1  0  0  0
 31 32  2  0  0  0
 12  8  1  0  0  0
  8  9  1  0  0  0
  9 10  2  0  0  0
  9  1  1  0  0  0
  1  2  1  0  0  0
  2  3  1  0  0  0
  3  4  1  0  0  0
  4  5  1  0  0  0
  5  6  1  0  0  0
  6  7  2  0  0  0
  6 33  1  0  0  0
 33 34  1  0  0  0
 34 35  1  0  0  0
 35 36  2  0  0  0
 35 38  1  0  0  0
 38 39  1  0  0  0
 38 42  1  0  0  0
 42 43  1  0  0  0
 43 44  2  0  0  0
 44 45  1  0  0  0
 45 46  2  0  0  0
 46 47  1  0  0  0
 46 48  1  0  0  0
 48 49  2  0  0  0
 33 51  1  0  0  0
 51 52  1  0  0  0
 51 53  1  0  0  0
 17 18  1  0  0  0
 18 19  1  0  0  0
 18 20  2  0  0  0
 32 27  1  0  0  0
  5  1  1  0  0  0
 49 43  1  0  0  0
 13 16  1  0  0  0
  8 11  1  0  0  0
 34 37  1  0  0  0
 39 40  1  0  0  0
 39 41  1  0  0  0
 47 50  1  0  0  0
 19 21  1  0  0  0
M  END
> <minimizedAffinity>
39.30443

> <CNNscore>
0.4234046638

> <CNNaffinity>
6.8119978905

> <CNN_VS>
2.8842315674

> <CNNaffinity_variance>
1.3128856421

$$$$
[H]OC(=O)[C@@]([H])(N([H])C(=O)[C@@]([H])(N([H])C(=O)[C@@]1([H])N(C(=O)[C@@]([H])(N([H])C(=O)[C@@]([H])(N([H])[H])C([H])([H])c2c([H])c([H])c(O[H])c([H])c2[H])C([H])(C([H])([H])[H])C([H])([H])[H])C([H])([H])C([H])([H])C1([H])[H])C([H])([H])c1c([H])c([H])c([H])c([H])c1[H])C([H])([H])C([H])(C([H])([H])[H])C([H])([H])[H]


 53 55  0  0  0  0  0  0  0  0999 V2000
   21.2060    9.9959   52.2609 C   0  0  0  0  0  0  0  0  0  0  0  0
   21.5634   10.9695   51.1189 C   0  0  0  0  0  0  0  0  0  0  0  0
   22.2270   12.1225   51.8996 C   0  0  0  0  0  0  0  0  0  0  0  0
   21.2621   12.1876   53.0568 C   0  0  0  0  0  0  0  0  0  0  0  0
   21.1516   10.7631   53.4378 N   0  0  0  0  0  0  0  0  0  0  0  0
   20.9832   10.4722   54.8168 C   0  0  0  0  0  0  0  0  0  0  0  0
   21.0659   11.5626   55.5624 O   0  0  0  0  0  0  0  0  0  0  0  0
   23.0934    8.7654   53.3051 N   0  0  0  0  0  0  0  0  0  0  0  0
   22.1862    8.8813   52.2190 C   0  0  0  0  0  0  0  0  0  0  0  0
   22.2331    8.0752   51.2959 O   0  0  0  0  0  0  0  0  0  0  0  0
   23.0504    9.4650   54.1000 H   0  0  0  0  0  0  0  0  0  0  0  0
   24.1038    7.7525   53.4290 C   0  0  0  0  0  0  0  0  0  0  0  0
   25.7747    8.5764   55.1343 N   0  0  0  0  0  0  0  0  0  0  0  0
   25.4226    8.3282   53.8047 C   0  0  0  0  0  0  0  0  0  0  0  0
   26.2287    8.5901   52.8842 O   0  0  0  0  0  0  0  0  0  0  0  0
   25.0908    8.3611   55.9002 H   0  0  0  0  0  0  0  0  0  0  0  0
   27.0444    9.1310   55.5677 C   0  0  0  0  0  0  0  0  0  0  0  0
   28.1698    8.6524   54.7715 C   0  0  0  0  0  0  0  0  0  0  0  0
   28.4051    7.3771   54.3442 O   0  0  0  0  0  0  0  0  0  0  0  0
   29.0498    9.5199   54.4288 O   0  0  0  0  0  0  0  0  0  0  0  0
   28.9917    6.6818   54.7823 H   0  0  0  0  0  0  0  0  0  0  0  0
   27.2706    9.0291   57.0265 C   0  0  0  0  0  0  0  0  0  0  0  0
   28.6799    9.1271   58.9857 C   0  0  0  0  0  0  0  0  0  0  0  0
   28.4531    9.7344   57.5836 C   0  0  0  0  0  0  0  0  0  0  0  0
   28.2001   11.2140   57.8841 C   0  0  0  0  0  0  0  0  0  0  0  0
   24.2788    6.8510   52.2725 C   0  0  0  0  0  0  0  0  0  0  0  0
   24.4389    5.4222   52.5413 C   0  0  0  0  0  0  0  0  0  0  0  0
   25.3113    4.6856   51.7481 C   0  0  0  0  0  0  0  0  0  0  0  0
   25.5366    3.3499   51.9358 C   0  0  0  0  0  0  0  0  0  0  0  0
   24.8940    2.6678   52.9394 C   0  0  0  0  0  0  0  0  0  0  0  0
   24.0220    3.3644   53.7456 C   0  0  0  0  0  0  0  0  0  0  0  0
   23.7979    4.7312   53.5461 C   0  0  0  0  0  0  0  0  0  0  0  0
   20.7476    9.2520   55.5446 C   0  0  0  0  0  0  0  0  0  0  0  0
   19.9160    8.3192   54.7180 N   0  0  0  0  0  0  0  0  0  0  0  0
   20.4716    7.1686   54.1126 C   0  0  0  0  0  0  0  0  0  0  0  0
   21.6847    6.9278   54.2748 O   0  0  0  0  0  0  0  0  0  0  0  0
   18.9039    8.5038   54.5746 H   0  0  0  0  0  0  0  0  0  0  0  0
   19.6573    6.2512   53.2960 C   0  0  0  0  0  0  0  0  0  0  0  0
   20.0848    6.3799   51.8987 N   0  0  0  0  0  0  0  0  0  0  0  0
   20.0050    7.3689   51.6047 H   0  0  0  0  0  0  0  0  0  0  0  0
   19.5006    5.7304   51.3368 H   0  0  0  0  0  0  0  0  0  0  0  0
   19.8115    4.7943   53.6970 C   0  0  0  0  0  0  0  0  0  0  0  0
   18.5854    4.0046   53.5502 C   0  0  0  0  0  0  0  0  0  0  0  0
   18.5737    2.8947   52.7476 C   0  0  0  0  0  0  0  0  0  0  0  0
   17.3998    2.1554   52.6157 C   0  0  0  0  0  0  0  0  0  0  0  0
   16.2486    2.5131   53.2756 C   0  0  0  0  0  0  0  0  0  0  0  0
   15.0650    1.7636   53.1390 O   0  0  0  0  0  0  0  0  0  0  0  0
   16.2455    3.6297   54.0874 C   0  0  0  0  0  0  0  0  0  0  0  0
   17.4208    4.3519   54.2065 C   0  0  0  0  0  0  0  0  0  0  0  0
   14.4425    2.0306   52.3987 H   0  0  0  0  0  0  0  0  0  0  0  0
   21.9612    8.4138   55.8952 C   0  0  0  0  0  0  0  0  0  0  0  0
   23.0901    9.2062   56.4888 C   0  0  0  0  0  0  0  0  0  0  0  0
   21.7094    7.1381   56.6028 C   0  0  0  0  0  0  0  0  0  0  0  0
 23 24  1  0  0  0
 24 25  1  0  0  0
 24 22  1  0  0  0
 22 17  1  0  0  0
 17 13  1  0  0  0
 13 14  1  0  0  0
 14 15  2  0  0  0
 14 12  1  0  0  0
 12 26  1  0  0  0
 26 27  1  0  0  0
 27 28  2  0  0  0
 28 29  1  0  0  0
 29 30  2  0  0  0
 30 31  1  0  0  0
 31 32  2  0  0  0
 12  8  1  0  0  0
  8  9  1  0  0  0
  9 10  2  0  0  0
  9  1  1  0  0  0
  1  2  1  0  0  0
  2  3  1  0  0  0
  3  4  1  0  0  0
  4  5  1  0  0  0
  5  6  1  0  0  0
  6  7  2  0  0  0
  6 33  1  0  0  0
 33 34  1  0  0  0
 34 35  1  0  0  0
 35 36  2  0  0  0
 35 38  1  0  0  0
 38 39  1  0  0  0
 38 42  1  0  0  0
 42 43  1  0  0  0
 43 44  2  0  0  0
 44 45  1  0  0  0
 45 46  2  0  0  0
 46 47  1  0  0  0
 46 48  1  0  0  0
 48 49  2  0  0  0
 33 51  1  0  0  0
 51 52  1  0  0  0
 51 53  1  0  0  0
 17 18  1  0  0  0
 18 19  1  0  0  0
 18 20  2  0  0  0
 32 27  1  0  0  0
  5  1  1  0  0  0
 49 43  1  0  0  0
 13 16  1  0  0  0
  8 11  1  0  0  0
 34 37  1  0  0  0
 39 40  1  0  0  0
 39 41  1  0  0  0
 47 50  1  0  0  0
 19 21  1  0  0  0
M  END
> <minimizedAffinity>
38.29457

> <CNNscore>
0.4151407480

> <CNNaffinity>
6.8096342087

> <CNN_VS>
2.8269567490

> <CNNaffinity_variance>
1.2513847351

$$$$
[H]OC(=O)[C@@]([H])(N([H])C(=O)[C@@]([H])(N([H])C(=O)[C@@]1([H])N(C(=O)[C@@]([H])(N([H])C(=O)[C@@]([H])(N([H])[H])C([H])([H])c2c([H])c([H])c(O[H])c([H])c2[H])C([H])(C([H])([H])[H])C([H])([H])[H])C([H])([H])C([H])([H])C1([H])[H])C([H])([H])c1c([H])c([H])c([H])c([H])c1[H])C([H])([H])C([H])(C([H])([H])[H])C([H])([H])[H]


 53 55  0  0  0  0  0  0  0  0999 V2000
   20.7796    9.5268   52.8388 C   0  0  0  0  0  0  0  0  0  0  0  0
   20.1824   10.3001   51.6451 C   0  0  0  0  0  0  0  0  0  0  0  0
   21.4584   10.7274   50.8912 C   0  0  0  0  0  0  0  0  0  0  0  0
   22.2903   11.1344   52.0815 C   0  0  0  0  0  0  0  0  0  0  0  0
   22.1011    9.9829   52.9896 N   0  0  0  0  0  0  0  0  0  0  0  0
   23.2009    9.6150   53.8079 C   0  0  0  0  0  0  0  0  0  0  0  0
   24.2813   10.3261   53.5271 O   0  0  0  0  0  0  0  0  0  0  0  0
   19.7476    7.3564   53.4641 N   0  0  0  0  0  0  0  0  0  0  0  0
   20.5849    8.0788   52.5737 C   0  0  0  0  0  0  0  0  0  0  0  0
   21.1126    7.5019   51.6287 O   0  0  0  0  0  0  0  0  0  0  0  0
   19.2948    7.8584   54.2803 H   0  0  0  0  0  0  0  0  0  0  0  0
   19.4494    5.9555   53.3596 C   0  0  0  0  0  0  0  0  0  0  0  0
   17.8845    4.3524   54.5259 N   0  0  0  0  0  0  0  0  0  0  0  0
   18.1466    5.6174   53.9922 C   0  0  0  0  0  0  0  0  0  0  0  0
   17.2710    6.5101   54.0385 O   0  0  0  0  0  0  0  0  0  0  0  0
   18.6209    3.6067   54.4767 H   0  0  0  0  0  0  0  0  0  0  0  0
   16.6387    3.9600   55.1595 C   0  0  0  0  0  0  0  0  0  0  0  0
   16.8258    3.4921   56.5291 C   0  0  0  0  0  0  0  0  0  0  0  0
   15.9197    3.5210   57.5501 O   0  0  0  0  0  0  0  0  0  0  0  0
   17.9715    2.9965   56.8225 O   0  0  0  0  0  0  0  0  0  0  0  0
   15.8310    4.2215   58.2718 H   0  0  0  0  0  0  0  0  0  0  0  0
   15.8131    3.0502   54.3349 C   0  0  0  0  0  0  0  0  0  0  0  0
   15.2137    1.8709   52.3140 C   0  0  0  0  0  0  0  0  0  0  0  0
   16.0928    3.0095   52.8768 C   0  0  0  0  0  0  0  0  0  0  0  0
   17.5132    2.5505   52.5368 C   0  0  0  0  0  0  0  0  0  0  0  0
   20.4841    5.0229   53.8498 C   0  0  0  0  0  0  0  0  0  0  0  0
   21.8823    5.4380   53.7388 C   0  0  0  0  0  0  0  0  0  0  0  0
   22.7215    5.2621   54.8331 C   0  0  0  0  0  0  0  0  0  0  0  0
   24.0453    5.6051   54.8157 C   0  0  0  0  0  0  0  0  0  0  0  0
   24.6105    6.1501   53.6891 C   0  0  0  0  0  0  0  0  0  0  0  0
   23.8098    6.3394   52.5852 C   0  0  0  0  0  0  0  0  0  0  0  0
   22.4563    5.9851   52.6122 C   0  0  0  0  0  0  0  0  0  0  0  0
   23.3666    8.6420   54.8566 C   0  0  0  0  0  0  0  0  0  0  0  0
   24.6473    8.8985   55.5908 N   0  0  0  0  0  0  0  0  0  0  0  0
   25.9047    8.6083   55.0129 C   0  0  0  0  0  0  0  0  0  0  0  0
   25.9433    8.1280   53.8624 O   0  0  0  0  0  0  0  0  0  0  0  0
   24.6331    9.3001   56.5486 H   0  0  0  0  0  0  0  0  0  0  0  0
   27.1659    8.8560   55.7336 C   0  0  0  0  0  0  0  0  0  0  0  0
   27.4621   10.2908   55.6585 N   0  0  0  0  0  0  0  0  0  0  0  0
   27.4940   10.5835   54.6664 H   0  0  0  0  0  0  0  0  0  0  0  0
   28.3536   10.4483   56.1676 H   0  0  0  0  0  0  0  0  0  0  0  0
   27.1034    8.4705   57.2015 C   0  0  0  0  0  0  0  0  0  0  0  0
   27.8886    9.3432   58.0790 C   0  0  0  0  0  0  0  0  0  0  0  0
   28.5107    8.8271   59.1849 C   0  0  0  0  0  0  0  0  0  0  0  0
   29.2515    9.6697   60.0115 C   0  0  0  0  0  0  0  0  0  0  0  0
   29.3756   11.0117   59.7421 C   0  0  0  0  0  0  0  0  0  0  0  0
   30.1245   11.8590   60.5801 O   0  0  0  0  0  0  0  0  0  0  0  0
   28.7536   11.5457   58.6314 C   0  0  0  0  0  0  0  0  0  0  0  0
   28.0219   10.6937   57.8217 C   0  0  0  0  0  0  0  0  0  0  0  0
   29.6330   12.2975   61.3371 H   0  0  0  0  0  0  0  0  0  0  0  0
   22.3296    8.6380   55.9625 C   0  0  0  0  0  0  0  0  0  0  0  0
   21.5048    9.8914   56.0202 C   0  0  0  0  0  0  0  0  0  0  0  0
   21.5267    7.4043   56.1200 C   0  0  0  0  0  0  0  0  0  0  0  0
 23 24  1  0  0  0
 24 25  1  0  0  0
 24 22  1  0  0  0
 22 17  1  0  0  0
 17 13  1  0  0  0
 13 14  1  0  0  0
 14 15  2  0  0  0
 14 12  1  0  0  0
 12 26  1  0  0  0
 26 27  1  0  0  0
 27 28  2  0  0  0
 28 29  1  0  0  0
 29 30  2  0  0  0
 30 31  1  0  0  0
 31 32  2  0  0  0
 12  8  1  0  0  0
  8  9  1  0  0  0
  9 10  2  0  0  0
  9  1  1  0  0  0
  1  2  1  0  0  0
  2  3  1  0  0  0
  3  4  1  0  0  0
  4  5  1  0  0  0
  5  6  1  0  0  0
  6  7  2  0  0  0
  6 33  1  0  0  0
 33 34  1  0  0  0
 34 35  1  0  0  0
 35 36  2  0  0  0
 35 38  1  0  0  0
 38 39  1  0  0  0
 38 42  1  0  0  0
 42 43  1  0  0  0
 43 44  2  0  0  0
 44 45  1  0  0  0
 45 46  2  0  0  0
 46 47  1  0  0  0
 46 48  1  0  0  0
 48 49  2  0  0  0
 33 51  1  0  0  0
 51 52  1  0  0  0
 51 53  1  0  0  0
 17 18  1  0  0  0
 18 19  1  0  0  0
 18 20  2  0  0  0
 32 27  1  0  0  0
  5  1  1  0  0  0
 49 43  1  0  0  0
 13 16  1  0  0  0
  8 11  1  0  0  0
 34 37  1  0  0  0
 39 40  1  0  0  0
 39 41  1  0  0  0
 47 50  1  0  0  0
 19 21  1  0  0  0
M  END
> <minimizedAffinity>
38.69808

> <CNNscore>
0.4121885300

> <CNNaffinity>
6.6142225266

> <CNN_VS>
2.7263066769

> <CNNaffinity_variance>
1.1689532995

$$$$
[H]OC(=O)[C@@]([H])(N([H])C(=O)[C@@]([H])(N([H])C(=O)[C@@]1([H])N(C(=O)[C@@]([H])(N([H])C(=O)[C@@]([H])(N([H])[H])C([H])([H])c2c([H])c([H])c(O[H])c([H])c2[H])C([H])(C([H])([H])[H])C([H])([H])[H])C([H])([H])C([H])([H])C1([H])[H])C([H])([H])c1c([H])c([H])c([H])c([H])c1[H])C([H])([H])C([H])(C([H])([H])[H])C([H])([H])[H]


 53 55  0  0  0  0  0  0  0  0999 V2000
   21.6835    8.2607   55.8503 C   0  0  0  0  0  0  0  0  0  0  0  0
   20.4802    8.9653   56.5100 C   0  0  0  0  0  0  0  0  0  0  0  0
   20.8202   10.4482   56.2559 C   0  0  0  0  0  0  0  0  0  0  0  0
   22.2936   10.3929   56.5727 C   0  0  0  0  0  0  0  0  0  0  0  0
   22.7232    9.2060   55.8025 N   0  0  0  0  0  0  0  0  0  0  0  0
   24.0258    9.2354   55.2395 C   0  0  0  0  0  0  0  0  0  0  0  0
   24.6113   10.4089   55.4173 O   0  0  0  0  0  0  0  0  0  0  0  0
   19.9795    8.1702   54.0461 N   0  0  0  0  0  0  0  0  0  0  0  0
   21.2160    7.6965   54.5588 C   0  0  0  0  0  0  0  0  0  0  0  0
   21.8527    6.8539   53.9351 O   0  0  0  0  0  0  0  0  0  0  0  0
   19.4318    8.8971   54.5889 H   0  0  0  0  0  0  0  0  0  0  0  0
   19.3782    7.7364   52.8163 C   0  0  0  0  0  0  0  0  0  0  0  0
   18.1001    5.6942   53.5747 N   0  0  0  0  0  0  0  0  0  0  0  0
   19.1192    6.2719   52.8121 C   0  0  0  0  0  0  0  0  0  0  0  0
   19.8486    5.5522   52.0942 O   0  0  0  0  0  0  0  0  0  0  0  0
   17.4973    6.3033   54.1800 H   0  0  0  0  0  0  0  0  0  0  0  0
   17.7925    4.2760   53.6117 C   0  0  0  0  0  0  0  0  0  0  0  0
   16.5605    3.9851   54.3378 C   0  0  0  0  0  0  0  0  0  0  0  0
   16.4036    3.8362   55.6859 O   0  0  0  0  0  0  0  0  0  0  0  0
   15.4935    3.8475   53.6400 O   0  0  0  0  0  0  0  0  0  0  0  0
   16.3939    2.9738   56.2107 H   0  0  0  0  0  0  0  0  0  0  0  0
   18.9338    3.4309   54.0276 C   0  0  0  0  0  0  0  0  0  0  0  0
   20.7227    2.3983   52.7758 C   0  0  0  0  0  0  0  0  0  0  0  0
   19.2430    2.2434   53.1908 C   0  0  0  0  0  0  0  0  0  0  0  0
   18.5066    2.2296   51.8487 C   0  0  0  0  0  0  0  0  0  0  0  0
   20.0802    8.1092   51.5718 C   0  0  0  0  0  0  0  0  0  0  0  0
   20.6566    9.4512   51.4911 C   0  0  0  0  0  0  0  0  0  0  0  0
   21.4362    9.9093   52.5470 C   0  0  0  0  0  0  0  0  0  0  0  0
   22.0281   11.1422   52.5519 C   0  0  0  0  0  0  0  0  0  0  0  0
   21.8712   11.9962   51.4882 C   0  0  0  0  0  0  0  0  0  0  0  0
   21.1053   11.5768   50.4237 C   0  0  0  0  0  0  0  0  0  0  0  0
   20.5036   10.3133   50.4274 C   0  0  0  0  0  0  0  0  0  0  0  0
   24.8141    8.2619   54.5287 C   0  0  0  0  0  0  0  0  0  0  0  0
   26.1718    8.1530   55.1530 N   0  0  0  0  0  0  0  0  0  0  0  0
   27.3314    8.6218   54.4935 C   0  0  0  0  0  0  0  0  0  0  0  0
   27.2155    9.1392   53.3644 O   0  0  0  0  0  0  0  0  0  0  0  0
   26.2857    7.7269   56.0934 H   0  0  0  0  0  0  0  0  0  0  0  0
   28.6685    8.5130   55.1031 C   0  0  0  0  0  0  0  0  0  0  0  0
   29.3301    9.8175   54.9918 N   0  0  0  0  0  0  0  0  0  0  0  0
   29.3562   10.1058   53.9982 H   0  0  0  0  0  0  0  0  0  0  0  0
   30.2706    9.7236   55.4225 H   0  0  0  0  0  0  0  0  0  0  0  0
   28.6281    8.1364   56.5741 C   0  0  0  0  0  0  0  0  0  0  0  0
   28.5649    9.2865   57.4804 C   0  0  0  0  0  0  0  0  0  0  0  0
   28.8992    9.1412   58.8008 C   0  0  0  0  0  0  0  0  0  0  0  0
   28.8316   10.2432   59.6512 C   0  0  0  0  0  0  0  0  0  0  0  0
   28.4380   11.4784   59.1951 C   0  0  0  0  0  0  0  0  0  0  0  0
   28.3708   12.5886   60.0578 O   0  0  0  0  0  0  0  0  0  0  0  0
   28.0976   11.6395   57.8670 C   0  0  0  0  0  0  0  0  0  0  0  0
   28.1707   10.5337   57.0369 C   0  0  0  0  0  0  0  0  0  0  0  0
   27.4979   12.7456   60.5271 H   0  0  0  0  0  0  0  0  0  0  0  0
   24.3138    6.8308   54.5386 C   0  0  0  0  0  0  0  0  0  0  0  0
   23.3689    6.5301   55.6661 C   0  0  0  0  0  0  0  0  0  0  0  0
   23.8715    6.2695   53.2420 C   0  0  0  0  0  0  0  0  0  0  0  0
 23 24  1  0  0  0
 24 25  1  0  0  0
 24 22  1  0  0  0
 22 17  1  0  0  0
 17 13  1  0  0  0
 13 14  1  0  0  0
 14 15  2  0  0  0
 14 12  1  0  0  0
 12 26  1  0  0  0
 26 27  1  0  0  0
 27 28  2  0  0  0
 28 29  1  0  0  0
 29 30  2  0  0  0
 30 31  1  0  0  0
 31 32  2  0  0  0
 12  8  1  0  0  0
  8  9  1  0  0  0
  9 10  2  0  0  0
  9  1  1  0  0  0
  1  2  1  0  0  0
  2  3  1  0  0  0
  3  4  1  0  0  0
  4  5  1  0  0  0
  5  6  1  0  0  0
  6  7  2  0  0  0
  6 33  1  0  0  0
 33 34  1  0  0  0
 34 35  1  0  0  0
 35 36  2  0  0  0
 35 38  1  0  0  0
 38 39  1  0  0  0
 38 42  1  0  0  0
 42 43  1  0  0  0
 43 44  2  0  0  0
 44 45  1  0  0  0
 45 46  2  0  0  0
 46 47  1  0  0  0
 46 48  1  0  0  0
 48 49  2  0  0  0
 33 51  1  0  0  0
 51 52  1  0  0  0
 51 53  1  0  0  0
 17 18  1  0  0  0
 18 19  1  0  0  0
 18 20  2  0  0  0
 32 27  1  0  0  0
  5  1  1  0  0  0
 49 43  1  0  0  0
 13 16  1  0  0  0
  8 11  1  0  0  0
 34 37  1  0  0  0
 39 40  1  0  0  0
 39 41  1  0  0  0
 47 50  1  0  0  0
 19 21  1  0  0  0
M  END
> <minimizedAffinity>
36.20236

> <CNNscore>
0.4101922810

> <CNNaffinity>
6.9089879990

> <CNN_VS>
2.8340134621

> <CNNaffinity_variance>
0.8493487239

$$$$
[H]OC(=O)[C@@]([H])(N([H])C(=O)[C@@]([H])(N([H])C(=O)[C@@]1([H])N(C(=O)[C@@]([H])(N([H])C(=O)[C@@]([H])(N([H])[H])C([H])([H])c2c([H])c([H])c(O[H])c([H])c2[H])C([H])(C([H])([H])[H])C([H])([H])[H])C([H])([H])C([H])([H])C1([H])[H])C([H])([H])c1c([H])c([H])c([H])c([H])c1[H])C([H])([H])C([H])(C([H])([H])[H])C([H])([H])[H]


 53 55  0  0  0  0  0  0  0  0999 V2000
   22.4781    9.9426   52.1865 C   0  0  0  0  0  0  0  0  0  0  0  0
   21.9492   11.2167   51.4961 C   0  0  0  0  0  0  0  0  0  0  0  0
   20.4454   10.8952   51.3765 C   0  0  0  0  0  0  0  0  0  0  0  0
   20.5627    9.4539   50.9486 C   0  0  0  0  0  0  0  0  0  0  0  0
   21.5405    8.9280   51.9252 N   0  0  0  0  0  0  0  0  0  0  0  0
   21.3761    7.5827   52.3468 C   0  0  0  0  0  0  0  0  0  0  0  0
   20.2703    7.0459   51.8561 O   0  0  0  0  0  0  0  0  0  0  0  0
   23.9355    9.7930   54.1917 N   0  0  0  0  0  0  0  0  0  0  0  0
   22.7364   10.2814   53.6090 C   0  0  0  0  0  0  0  0  0  0  0  0
   21.9630   10.9569   54.2797 O   0  0  0  0  0  0  0  0  0  0  0  0
   24.6002    9.2083   53.6091 H   0  0  0  0  0  0  0  0  0  0  0  0
   24.3442   10.0230   55.5490 C   0  0  0  0  0  0  0  0  0  0  0  0
   26.5988   10.1440   56.6809 N   0  0  0  0  0  0  0  0  0  0  0  0
   25.7121    9.5019   55.8119 C   0  0  0  0  0  0  0  0  0  0  0  0
   26.0593    8.4520   55.2263 O   0  0  0  0  0  0  0  0  0  0  0  0
   26.3032   11.0279   57.1626 H   0  0  0  0  0  0  0  0  0  0  0  0
   27.9426    9.6861   56.9839 C   0  0  0  0  0  0  0  0  0  0  0  0
   28.6092    9.0912   55.8301 C   0  0  0  0  0  0  0  0  0  0  0  0
   28.6172    9.5508   54.5444 O   0  0  0  0  0  0  0  0  0  0  0  0
   29.2653    8.0082   56.0325 O   0  0  0  0  0  0  0  0  0  0  0  0
   28.0151    9.2635   53.7866 H   0  0  0  0  0  0  0  0  0  0  0  0
   28.0259    8.8540   58.2048 C   0  0  0  0  0  0  0  0  0  0  0  0
   29.0063   10.9019   59.0288 C   0  0  0  0  0  0  0  0  0  0  0  0
   28.4541    9.5249   59.4588 C   0  0  0  0  0  0  0  0  0  0  0  0
   29.6606    8.8619   60.1285 C   0  0  0  0  0  0  0  0  0  0  0  0
   23.4296    9.5411   56.6035 C   0  0  0  0  0  0  0  0  0  0  0  0
   22.2693    8.7523   56.1900 C   0  0  0  0  0  0  0  0  0  0  0  0
   22.3014    7.3732   56.3630 C   0  0  0  0  0  0  0  0  0  0  0  0
   21.2580    6.5580   56.0212 C   0  0  0  0  0  0  0  0  0  0  0  0
   20.1101    7.0829   55.4804 C   0  0  0  0  0  0  0  0  0  0  0  0
   20.0418    8.4453   55.2941 C   0  0  0  0  0  0  0  0  0  0  0  0
   21.1145    9.2717   55.6471 C   0  0  0  0  0  0  0  0  0  0  0  0
   22.1576    6.7105   53.1850 C   0  0  0  0  0  0  0  0  0  0  0  0
   21.5512    5.3404   53.1987 N   0  0  0  0  0  0  0  0  0  0  0  0
   20.1503    5.1491   53.2061 C   0  0  0  0  0  0  0  0  0  0  0  0
   19.4050    6.1493   53.1999 O   0  0  0  0  0  0  0  0  0  0  0  0
   22.1574    4.4969   53.2018 H   0  0  0  0  0  0  0  0  0  0  0  0
   19.5508    3.8032   53.2232 C   0  0  0  0  0  0  0  0  0  0  0  0
   19.9256    3.1508   54.4825 N   0  0  0  0  0  0  0  0  0  0  0  0
   20.9567    3.1400   54.5701 H   0  0  0  0  0  0  0  0  0  0  0  0
   19.4986    2.2040   54.4779 H   0  0  0  0  0  0  0  0  0  0  0  0
   18.0340    3.8212   53.1426 C   0  0  0  0  0  0  0  0  0  0  0  0
   17.3682    3.6687   54.4394 C   0  0  0  0  0  0  0  0  0  0  0  0
   16.0118    3.8312   54.5398 C   0  0  0  0  0  0  0  0  0  0  0  0
   15.3931    3.6858   55.7800 C   0  0  0  0  0  0  0  0  0  0  0  0
   16.1134    3.3801   56.9098 C   0  0  0  0  0  0  0  0  0  0  0  0
   15.4842    3.2346   58.1605 O   0  0  0  0  0  0  0  0  0  0  0  0
   17.4811    3.2140   56.8237 C   0  0  0  0  0  0  0  0  0  0  0  0
   18.0787    3.3622   55.5835 C   0  0  0  0  0  0  0  0  0  0  0  0
   15.4000    4.0605   58.7241 H   0  0  0  0  0  0  0  0  0  0  0  0
   23.5899    6.4499   52.7618 C   0  0  0  0  0  0  0  0  0  0  0  0
   24.5222    7.5896   53.0557 C   0  0  0  0  0  0  0  0  0  0  0  0
   24.1582    5.1276   53.1087 C   0  0  0  0  0  0  0  0  0  0  0  0
 23 24  1  0  0  0
 24 25  1  0  0  0
 24 22  1  0  0  0
 22 17  1  0  0  0
 17 13  1  0  0  0
 13 14  1  0  0  0
 14 15  2  0  0  0
 14 12  1  0  0  0
 12 26  1  0  0  0
 26 27  1  0  0  0
 27 28  2  0  0  0
 28 29  1  0  0  0
 29 30  2  0  0  0
 30 31  1  0  0  0
 31 32  2  0  0  0
 12  8  1  0  0  0
  8  9  1  0  0  0
  9 10  2  0  0  0
  9  1  1  0  0  0
  1  2  1  0  0  0
  2  3  1  0  0  0
  3  4  1  0  0  0
  4  5  1  0  0  0
  5  6  1  0  0  0
  6  7  2  0  0  0
  6 33  1  0  0  0
 33 34  1  0  0  0
 34 35  1  0  0  0
 35 36  2  0  0  0
 35 38  1  0  0  0
 38 39  1  0  0  0
 38 42  1  0  0  0
 42 43  1  0  0  0
 43 44  2  0  0  0
 44 45  1  0  0  0
 45 46  2  0  0  0
 46 47  1  0  0  0
 46 48  1  0  0  0
 48 49  2  0  0  0
 33 51  1  0  0  0
 51 52  1  0  0  0
 51 53  1  0  0  0
 17 18  1  0  0  0
 18 19  1  0  0  0
 18 20  2  0  0  0
 32 27  1  0  0  0
  5  1  1  0  0  0
 49 43  1  0  0  0
 13 16  1  0  0  0
  8 11  1  0  0  0
 34 37  1  0  0  0
 39 40  1  0  0  0
 39 41  1  0  0  0
 47 50  1  0  0  0
 19 21  1  0  0  0
M  END
> <minimizedAffinity>
38.48002

> <CNNscore>
0.3990388811

> <CNNaffinity>
6.3783788681

> <CNN_VS>
2.5452210903

> <CNNaffinity_variance>
0.8585978746

$$$$
[H]c1c([H])c([H])c(C([H])([H])OC(=O)[C@@]([H])(N([H])C(=O)[C@@]([H])(N([H])C(=O)[C@]2([H])OC(=O)[C@@]2([H])[C@@]([H])(C([H])([H])[H])C([H])([H])C([H])([H])[H])C([H])(C([H])([H])[H])C([H])([H])[H])C([H])([H])C([H])(C([H])([H])[H])C([H])([H])[H])c([H])c1[H]


 36 37  0  0  0  0  0  0  0  0999 V2000
   27.2540    9.3071   56.9221 C   0  0  0  0  0  0  0  0  0  0  0  0
   26.4768   10.2134   57.2921 O   0  0  0  0  0  0  0  0  0  0  0  0
   28.3153    8.9822   57.7960 N   0  0  0  0  0  0  0  0  0  0  0  0
   28.9651    8.2110   57.4674 H   0  0  0  0  0  0  0  0  0  0  0  0
   27.0096    8.6535   55.6201 C   0  0  0  0  0  0  0  0  0  0  0  0
   24.9855    8.0640   54.2368 C   0  0  0  0  0  0  0  0  0  0  0  0
   25.5953    6.9831   53.9512 O   0  0  0  0  0  0  0  0  0  0  0  0
   25.6900    8.9351   55.0943 N   0  0  0  0  0  0  0  0  0  0  0  0
   25.2377    9.8265   55.3750 H   0  0  0  0  0  0  0  0  0  0  0  0
   22.5214    8.6977   54.4663 C   0  0  0  0  0  0  0  0  0  0  0  0
   23.6688    8.2444   53.6495 C   0  0  0  0  0  0  0  0  0  0  0  0
   23.5750    9.5540   53.0436 O   0  0  0  0  0  0  0  0  0  0  0  0
   22.2174    9.4540   53.2232 C   0  0  0  0  0  0  0  0  0  0  0  0
   21.2461    9.8642   52.5577 O   0  0  0  0  0  0  0  0  0  0  0  0
   21.4758    7.7003   54.8533 C   0  0  0  0  0  0  0  0  0  0  0  0
   20.5061    7.4603   53.7300 C   0  0  0  0  0  0  0  0  0  0  0  0
   21.9079    5.9624   56.6191 C   0  0  0  0  0  0  0  0  0  0  0  0
   22.0762    6.3440   55.1852 C   0  0  0  0  0  0  0  0  0  0  0  0
   28.0937    8.9416   54.6104 C   0  0  0  0  0  0  0  0  0  0  0  0
   27.5803    8.9724   53.1949 C   0  0  0  0  0  0  0  0  0  0  0  0
   29.1432    7.8720   54.7428 C   0  0  0  0  0  0  0  0  0  0  0  0
   28.5863    9.5824   59.0504 C   0  0  0  0  0  0  0  0  0  0  0  0
   28.8071   11.0548   58.8110 C   0  0  0  0  0  0  0  0  0  0  0  0
   28.0639   11.7041   58.0080 O   0  0  0  0  0  0  0  0  0  0  0  0
   29.8113   11.7577   59.4425 O   0  0  0  0  0  0  0  0  0  0  0  0
   29.6053   12.2587   60.7458 C   0  0  0  0  0  0  0  0  0  0  0  0
   29.8612   13.6999   60.8603 C   0  0  0  0  0  0  0  0  0  0  0  0
   28.7680   14.5428   60.8513 C   0  0  0  0  0  0  0  0  0  0  0  0
   28.8952   15.9229   60.9541 C   0  0  0  0  0  0  0  0  0  0  0  0
   30.1369   16.4776   61.0687 C   0  0  0  0  0  0  0  0  0  0  0  0
   31.2377   15.6401   61.0787 C   0  0  0  0  0  0  0  0  0  0  0  0
   31.1028   14.2665   60.9757 C   0  0  0  0  0  0  0  0  0  0  0  0
   29.8141    9.0558   59.7390 C   0  0  0  0  0  0  0  0  0  0  0  0
   29.6406    8.9189   61.2280 C   0  0  0  0  0  0  0  0  0  0  0  0
   28.2709    9.4325   61.6667 C   0  0  0  0  0  0  0  0  0  0  0  0
   29.6978    7.4761   61.6880 C   0  0  0  0  0  0  0  0  0  0  0  0
 17 18  1  0  0  0
 18 15  1  0  0  0
 15 16  1  0  0  0
 15 10  1  0  0  0
 10 11  1  0  0  0
 11 12  1  0  0  0
 12 13  1  0  0  0
 13 14  2  0  0  0
 11  6  1  0  0  0
  6  7  2  0  0  0
  6  8  1  0  0  0
  8  5  1  0  0  0
  5 19  1  0  0  0
 19 20  1  0  0  0
 19 21  1  0  0  0
  5  1  1  0  0  0
  1  2  2  0  0  0
  1  3  1  0  0  0
  3 22  1  0  0  0
 22 33  1  0  0  0
 33 34  1  0  0  0
 34 35  1  0  0  0
 34 36  1  0  0  0
 22 23  1  0  0  0
 23 24  2  0  0  0
 23 25  1  0  0  0
 25 26  1  0  0  0
 26 27  1  0  0  0
 27 28  2  0  0  0
 28 29  1  0  0  0
 29 30  2  0  0  0
 30 31  1  0  0  0
 31 32  2  0  0  0
 13 10  1  0  0  0
 32 27  1  0  0  0
  8  9  1  0  0  0
  3  4  1  0  0  0
M  END
> <minimizedAffinity>
4.75732

> <CNNscore>
0.6045650840

> <CNNaffinity>
6.3298711777

> <CNN_VS>
3.8268191814

> <CNNaffinity_variance>
0.6668639779

$$$$
[H]c1c([H])c([H])c(C([H])([H])OC(=O)[C@@]([H])(N([H])C(=O)[C@@]([H])(N([H])C(=O)[C@]2([H])OC(=O)[C@@]2([H])[C@@]([H])(C([H])([H])[H])C([H])([H])C([H])([H])[H])C([H])(C([H])([H])[H])C([H])([H])[H])C([H])([H])C([H])(C([H])([H])[H])C([H])([H])[H])c([H])c1[H]


 36 37  0  0  0  0  0  0  0  0999 V2000
   22.5262    7.6460   52.7059 C   0  0  0  0  0  0  0  0  0  0  0  0
   21.5693    7.2355   52.0143 O   0  0  0  0  0  0  0  0  0  0  0  0
   22.3683    8.9040   53.3287 N   0  0  0  0  0  0  0  0  0  0  0  0
   23.1890    9.2374   53.9120 H   0  0  0  0  0  0  0  0  0  0  0  0
   23.7315    6.7994   52.8190 C   0  0  0  0  0  0  0  0  0  0  0  0
   25.2895    8.1529   54.2676 C   0  0  0  0  0  0  0  0  0  0  0  0
   24.4622    7.9440   55.2130 O   0  0  0  0  0  0  0  0  0  0  0  0
   24.9375    7.5726   53.0308 N   0  0  0  0  0  0  0  0  0  0  0  0
   25.5806    7.6960   52.2251 H   0  0  0  0  0  0  0  0  0  0  0  0
   27.3627    8.5646   55.7022 C   0  0  0  0  0  0  0  0  0  0  0  0
   26.4629    8.9463   54.5915 C   0  0  0  0  0  0  0  0  0  0  0  0
   27.5697    8.5563   53.7466 O   0  0  0  0  0  0  0  0  0  0  0  0
   28.3923    9.0324   54.7375 C   0  0  0  0  0  0  0  0  0  0  0  0
   29.5038    9.5967   54.7123 O   0  0  0  0  0  0  0  0  0  0  0  0
   27.3071    9.3493   56.9747 C   0  0  0  0  0  0  0  0  0  0  0  0
   27.9817    8.6155   58.0999 C   0  0  0  0  0  0  0  0  0  0  0  0
   28.5826   11.1693   58.1517 C   0  0  0  0  0  0  0  0  0  0  0  0
   28.0256   10.6832   56.8542 C   0  0  0  0  0  0  0  0  0  0  0  0
   23.5781    5.6999   53.8414 C   0  0  0  0  0  0  0  0  0  0  0  0
   23.9800    4.3489   53.3108 C   0  0  0  0  0  0  0  0  0  0  0  0
   22.1360    5.6653   54.2683 C   0  0  0  0  0  0  0  0  0  0  0  0
   21.2326    9.7470   53.2467 C   0  0  0  0  0  0  0  0  0  0  0  0
   21.3655   10.5667   51.9879 C   0  0  0  0  0  0  0  0  0  0  0  0
   20.9116   10.1382   50.8792 O   0  0  0  0  0  0  0  0  0  0  0  0
   21.9767   11.8025   51.9788 O   0  0  0  0  0  0  0  0  0  0  0  0
   21.7152   12.7077   50.9280 C   0  0  0  0  0  0  0  0  0  0  0  0
   20.9956   13.9108   51.3643 C   0  0  0  0  0  0  0  0  0  0  0  0
   20.2901   13.8356   52.5485 C   0  0  0  0  0  0  0  0  0  0  0  0
   19.5742   14.9141   53.0546 C   0  0  0  0  0  0  0  0  0  0  0  0
   19.5596   16.0937   52.3682 C   0  0  0  0  0  0  0  0  0  0  0  0
   20.2641   16.1775   51.1808 C   0  0  0  0  0  0  0  0  0  0  0  0
   20.9745   15.0989   50.6833 C   0  0  0  0  0  0  0  0  0  0  0  0
   21.0903   10.7111   54.3909 C   0  0  0  0  0  0  0  0  0  0  0  0
   21.4207   10.0950   55.7240 C   0  0  0  0  0  0  0  0  0  0  0  0
   21.0287    8.6193   55.7548 C   0  0  0  0  0  0  0  0  0  0  0  0
   22.9058   10.1252   56.0244 C   0  0  0  0  0  0  0  0  0  0  0  0
 17 18  1  0  0  0
 18 15  1  0  0  0
 15 16  1  0  0  0
 15 10  1  0  0  0
 10 11  1  0  0  0
 11 12  1  0  0  0
 12 13  1  0  0  0
 13 14  2  0  0  0
 11  6  1  0  0  0
  6  7  2  0  0  0
  6  8  1  0  0  0
  8  5  1  0  0  0
  5 19  1  0  0  0
 19 20  1  0  0  0
 19 21  1  0  0  0
  5  1  1  0  0  0
  1  2  2  0  0  0
  1  3  1  0  0  0
  3 22  1  0  0  0
 22 33  1  0  0  0
 33 34  1  0  0  0
 34 35  1  0  0  0
 34 36  1  0  0  0
 22 23  1  0  0  0
 23 24  2  0  0  0
 23 25  1  0  0  0
 25 26  1  0  0  0
 26 27  1  0  0  0
 27 28  2  0  0  0
 28 29  1  0  0  0
 29 30  2  0  0  0
 30 31  1  0  0  0
 31 32  2  0  0  0
 13 10  1  0  0  0
 32 27  1  0  0  0
  8  9  1  0  0  0
  3  4  1  0  0  0
M  END
> <minimizedAffinity>
14.91540

> <CNNscore>
0.6025928259

> <CNNaffinity>
6.4884920120

> <CNN_VS>
3.9099187851

> <CNNaffinity_variance>
0.3718355596

$$$$
[H]c1c([H])c([H])c(C([H])([H])OC(=O)[C@@]([H])(N([H])C(=O)[C@@]([H])(N([H])C(=O)[C@]2([H])OC(=O)[C@@]2([H])[C@@]([H])(C([H])([H])[H])C([H])([H])C([H])([H])[H])C([H])(C([H])([H])[H])C([H])([H])[H])C([H])([H])C([H])(C([H])([H])[H])C([H])([H])[H])c([H])c1[H]


 36 37  0  0  0  0  0  0  0  0999 V2000
   24.3692    9.1626   55.0485 C   0  0  0  0  0  0  0  0  0  0  0  0
   23.7740    9.3728   56.1273 O   0  0  0  0  0  0  0  0  0  0  0  0
   23.5645    8.8934   53.9191 N   0  0  0  0  0  0  0  0  0  0  0  0
   24.0849    8.7178   53.0118 H   0  0  0  0  0  0  0  0  0  0  0  0
   25.8456    9.2102   55.0342 C   0  0  0  0  0  0  0  0  0  0  0  0
   27.7858    9.4566   56.6257 C   0  0  0  0  0  0  0  0  0  0  0  0
   28.5104    9.6162   55.5907 O   0  0  0  0  0  0  0  0  0  0  0  0
   26.4147    9.2502   56.3652 N   0  0  0  0  0  0  0  0  0  0  0  0
   25.7706    9.1283   57.1703 H   0  0  0  0  0  0  0  0  0  0  0  0
   28.1072   10.5308   58.9211 C   0  0  0  0  0  0  0  0  0  0  0  0
   28.4629    9.5107   57.9101 C   0  0  0  0  0  0  0  0  0  0  0  0
   27.8448    8.5838   58.8321 O   0  0  0  0  0  0  0  0  0  0  0  0
   28.3301    9.3824   59.8382 C   0  0  0  0  0  0  0  0  0  0  0  0
   28.7480    9.1325   60.9859 O   0  0  0  0  0  0  0  0  0  0  0  0
   29.0365   11.6830   59.1375 C   0  0  0  0  0  0  0  0  0  0  0  0
   28.3100   12.8741   59.6974 C   0  0  0  0  0  0  0  0  0  0  0  0
   30.2289   12.3430   61.2511 C   0  0  0  0  0  0  0  0  0  0  0  0
   30.1319   11.3524   60.1378 C   0  0  0  0  0  0  0  0  0  0  0  0
   26.4561    8.1174   54.1910 C   0  0  0  0  0  0  0  0  0  0  0  0
   27.0787    8.6378   52.9222 C   0  0  0  0  0  0  0  0  0  0  0  0
   25.3690    7.1343   53.8527 C   0  0  0  0  0  0  0  0  0  0  0  0
   22.1491    8.8376   53.8883 C   0  0  0  0  0  0  0  0  0  0  0  0
   21.6368   10.2527   53.9845 C   0  0  0  0  0  0  0  0  0  0  0  0
   21.5682   10.8470   55.1074 O   0  0  0  0  0  0  0  0  0  0  0  0
   21.2239   10.9599   52.8752 O   0  0  0  0  0  0  0  0  0  0  0  0
   22.0008   12.0385   52.4008 C   0  0  0  0  0  0  0  0  0  0  0  0
   21.2248   13.2687   52.2012 C   0  0  0  0  0  0  0  0  0  0  0  0
   21.3782   13.9296   50.9990 C   0  0  0  0  0  0  0  0  0  0  0  0
   20.6922   15.1020   50.7048 C   0  0  0  0  0  0  0  0  0  0  0  0
   19.8344   15.6291   51.6262 C   0  0  0  0  0  0  0  0  0  0  0  0
   19.6748   14.9730   52.8335 C   0  0  0  0  0  0  0  0  0  0  0  0
   20.3616   13.8058   53.1190 C   0  0  0  0  0  0  0  0  0  0  0  0
   21.5327    8.0646   55.0203 C   0  0  0  0  0  0  0  0  0  0  0  0
   21.5377    6.5773   54.7885 C   0  0  0  0  0  0  0  0  0  0  0  0
   21.3719    6.2561   53.3048 C   0  0  0  0  0  0  0  0  0  0  0  0
   22.8458    5.9312   55.1984 C   0  0  0  0  0  0  0  0  0  0  0  0
 17 18  1  0  0  0
 18 15  1  0  0  0
 15 16  1  0  0  0
 15 10  1  0  0  0
 10 11  1  0  0  0
 11 12  1  0  0  0
 12 13  1  0  0  0
 13 14  2  0  0  0
 11  6  1  0  0  0
  6  7  2  0  0  0
  6  8  1  0  0  0
  8  5  1  0  0  0
  5 19  1  0  0  0
 19 20  1  0  0  0
 19 21  1  0  0  0
  5  1  1  0  0  0
  1  2  2  0  0  0
  1  3  1  0  0  0
  3 22  1  0  0  0
 22 33  1  0  0  0
 33 34  1  0  0  0
 34 35  1  0  0  0
 34 36  1  0  0  0
 22 23  1  0  0  0
 23 24  2  0  0  0
 23 25  1  0  0  0
 25 26  1  0  0  0
 26 27  1  0  0  0
 27 28  2  0  0  0
 28 29  1  0  0  0
 29 30  2  0  0  0
 30 31  1  0  0  0
 31 32  2  0  0  0
 13 10  1  0  0  0
 32 27  1  0  0  0
  8  9  1  0  0  0
  3  4  1  0  0  0
M  END
> <minimizedAffinity>
11.94633

> <CNNscore>
0.5847294927

> <CNNaffinity>
6.2597074509

> <CNN_VS>
3.6602356434

> <CNNaffinity_variance>
0.4235913754

$$$$
[H]c1c([H])c([H])c(C([H])([H])OC(=O)[C@@]([H])(N([H])C(=O)[C@@]([H])(N([H])C(=O)[C@]2([H])OC(=O)[C@@]2([H])[C@@]([H])(C([H])([H])[H])C([H])([H])C([H])([H])[H])C([H])(C([H])([H])[H])C([H])([H])[H])C([H])([H])C([H])(C([H])([H])[H])C([H])([H])[H])c([H])c1[H]


 36 37  0  0  0  0  0  0  0  0999 V2000
   27.6133    8.9759   51.8917 C   0  0  0  0  0  0  0  0  0  0  0  0
   28.2354    7.9326   51.5972 O   0  0  0  0  0  0  0  0  0  0  0  0
   27.6899   10.0444   50.9709 N   0  0  0  0  0  0  0  0  0  0  0  0
   27.1562   10.9220   51.2355 H   0  0  0  0  0  0  0  0  0  0  0  0
   26.8566    9.0142   53.1599 C   0  0  0  0  0  0  0  0  0  0  0  0
   24.6924    8.1856   54.1535 C   0  0  0  0  0  0  0  0  0  0  0  0
   25.0113    8.8454   55.1950 O   0  0  0  0  0  0  0  0  0  0  0  0
   25.6222    8.2599   53.0950 N   0  0  0  0  0  0  0  0  0  0  0  0
   25.4101    7.7543   52.2134 H   0  0  0  0  0  0  0  0  0  0  0  0
   22.5321    7.4153   53.0285 C   0  0  0  0  0  0  0  0  0  0  0  0
   23.4337    7.4614   54.2008 C   0  0  0  0  0  0  0  0  0  0  0  0
   23.6585    6.0635   53.9068 O   0  0  0  0  0  0  0  0  0  0  0  0
   22.3473    6.0183   53.5017 C   0  0  0  0  0  0  0  0  0  0  0  0
   21.4765    5.1280   53.5608 O   0  0  0  0  0  0  0  0  0  0  0  0
   21.2862    8.2432   53.0468 C   0  0  0  0  0  0  0  0  0  0  0  0
   20.8151    8.4919   54.4526 C   0  0  0  0  0  0  0  0  0  0  0  0
   21.5269   10.7159   53.4376 C   0  0  0  0  0  0  0  0  0  0  0  0
   21.5035    9.6147   52.4291 C   0  0  0  0  0  0  0  0  0  0  0  0
   27.6960    8.6233   54.3517 C   0  0  0  0  0  0  0  0  0  0  0  0
   28.8587    9.5535   54.5774 C   0  0  0  0  0  0  0  0  0  0  0  0
   28.2052    7.2271   54.1190 C   0  0  0  0  0  0  0  0  0  0  0  0
   28.4026   10.0507   49.7464 C   0  0  0  0  0  0  0  0  0  0  0  0
   28.3940   11.4651   49.2234 C   0  0  0  0  0  0  0  0  0  0  0  0
   29.4813   12.0656   48.9481 O   0  0  0  0  0  0  0  0  0  0  0  0
   27.2233   12.1649   49.0214 O   0  0  0  0  0  0  0  0  0  0  0  0
   27.1106   13.0427   47.9219 C   0  0  0  0  0  0  0  0  0  0  0  0
   26.3181   14.2429   48.2168 C   0  0  0  0  0  0  0  0  0  0  0  0
   25.3750   14.6273   47.2849 C   0  0  0  0  0  0  0  0  0  0  0  0
   24.5702   15.7464   47.4628 C   0  0  0  0  0  0  0  0  0  0  0  0
   24.7059   16.5001   48.5925 C   0  0  0  0  0  0  0  0  0  0  0  0
   25.6485   16.1219   49.5315 C   0  0  0  0  0  0  0  0  0  0  0  0
   26.4463   15.0060   49.3469 C   0  0  0  0  0  0  0  0  0  0  0  0
   27.8079    9.1784   48.6767 C   0  0  0  0  0  0  0  0  0  0  0  0
   28.8029    8.7849   47.6178 C   0  0  0  0  0  0  0  0  0  0  0  0
   29.3441    7.3800   47.8733 C   0  0  0  0  0  0  0  0  0  0  0  0
   28.1875    8.7358   46.2338 C   0  0  0  0  0  0  0  0  0  0  0  0
 17 18  1  0  0  0
 18 15  1  0  0  0
 15 16  1  0  0  0
 15 10  1  0  0  0
 10 11  1  0  0  0
 11 12  1  0  0  0
 12 13  1  0  0  0
 13 14  2  0  0  0
 11  6  1  0  0  0
  6  7  2  0  0  0
  6  8  1  0  0  0
  8  5  1  0  0  0
  5 19  1  0  0  0
 19 20  1  0  0  0
 19 21  1  0  0  0
  5  1  1  0  0  0
  1  2  2  0  0  0
  1  3  1  0  0  0
  3 22  1  0  0  0
 22 33  1  0  0  0
 33 34  1  0  0  0
 34 35  1  0  0  0
 34 36  1  0  0  0
 22 23  1  0  0  0
 23 24  2  0  0  0
 23 25  1  0  0  0
 25 26  1  0  0  0
 26 27  1  0  0  0
 27 28  2  0  0  0
 28 29  1  0  0  0
 29 30  2  0  0  0
 30 31  1  0  0  0
 31 32  2  0  0  0
 13 10  1  0  0  0
 32 27  1  0  0  0
  8  9  1  0  0  0
  3  4  1  0  0  0
M  END
> <minimizedAffinity>
18.74971

> <CNNscore>
0.5499838591

> <CNNaffinity>
6.4937171936

> <CNN_VS>
3.5714397430

> <CNNaffinity_variance>
0.4338110089

$$$$
[H]c1c([H])c([H])c(C([H])([H])OC(=O)[C@@]([H])(N([H])C(=O)[C@@]([H])(N([H])C(=O)[C@]2([H])OC(=O)[C@@]2([H])[C@@]([H])(C([H])([H])[H])C([H])([H])C([H])([H])[H])C([H])(C([H])([H])[H])C([H])([H])[H])C([H])([H])C([H])(C([H])([H])[H])C([H])([H])[H])c([H])c1[H]


 36 37  0  0  0  0  0  0  0  0999 V2000
   23.1826    6.9870   53.1008 C   0  0  0  0  0  0  0  0  0  0  0  0
   23.1360    6.3409   52.0318 O   0  0  0  0  0  0  0  0  0  0  0  0
   22.5604    8.2551   53.1061 N   0  0  0  0  0  0  0  0  0  0  0  0
   22.6085    8.7900   54.0207 H   0  0  0  0  0  0  0  0  0  0  0  0
   23.8735    6.3869   54.2605 C   0  0  0  0  0  0  0  0  0  0  0  0
   25.6922    8.1255   54.0951 C   0  0  0  0  0  0  0  0  0  0  0  0
   25.5271    8.0620   52.8340 O   0  0  0  0  0  0  0  0  0  0  0  0
   24.8526    7.2776   54.8478 N   0  0  0  0  0  0  0  0  0  0  0  0
   24.9305    7.2956   55.8830 H   0  0  0  0  0  0  0  0  0  0  0  0
   27.6285    8.6749   55.6683 C   0  0  0  0  0  0  0  0  0  0  0  0
   26.7058    9.0497   54.5741 C   0  0  0  0  0  0  0  0  0  0  0  0
   27.8840    8.9642   53.7400 O   0  0  0  0  0  0  0  0  0  0  0  0
   28.5885    9.4311   54.8222 C   0  0  0  0  0  0  0  0  0  0  0  0
   29.5889   10.1684   54.9229 O   0  0  0  0  0  0  0  0  0  0  0  0
   27.4083    9.2611   57.0270 C   0  0  0  0  0  0  0  0  0  0  0  0
   28.1881    8.5188   58.0761 C   0  0  0  0  0  0  0  0  0  0  0  0
   28.4873   11.0548   58.4209 C   0  0  0  0  0  0  0  0  0  0  0  0
   27.8705   10.7068   57.1062 C   0  0  0  0  0  0  0  0  0  0  0  0
   22.9158    5.8409   55.2913 C   0  0  0  0  0  0  0  0  0  0  0  0
   22.2608    6.9219   56.1104 C   0  0  0  0  0  0  0  0  0  0  0  0
   23.6882    4.9206   56.1965 C   0  0  0  0  0  0  0  0  0  0  0  0
   21.8889    8.8676   52.0192 C   0  0  0  0  0  0  0  0  0  0  0  0
   21.5526   10.2790   52.4305 C   0  0  0  0  0  0  0  0  0  0  0  0
   21.5447   10.6170   53.6570 O   0  0  0  0  0  0  0  0  0  0  0  0
   21.2419   11.2567   51.5093 O   0  0  0  0  0  0  0  0  0  0  0  0
   22.0070   12.4415   51.4576 C   0  0  0  0  0  0  0  0  0  0  0  0
   21.2029   13.6589   51.6219 C   0  0  0  0  0  0  0  0  0  0  0  0
   20.3889   13.7383   52.7339 C   0  0  0  0  0  0  0  0  0  0  0  0
   19.5865   14.8444   52.9878 C   0  0  0  0  0  0  0  0  0  0  0  0
   19.5937   15.8950   52.1167 C   0  0  0  0  0  0  0  0  0  0  0  0
   20.4066   15.8236   50.9999 C   0  0  0  0  0  0  0  0  0  0  0  0
   21.2028   14.7185   50.7541 C   0  0  0  0  0  0  0  0  0  0  0  0
   20.6001    8.2001   51.6291 C   0  0  0  0  0  0  0  0  0  0  0  0
   19.8520    7.6321   52.8055 C   0  0  0  0  0  0  0  0  0  0  0  0
   20.0746    6.1254   52.9172 C   0  0  0  0  0  0  0  0  0  0  0  0
   20.3228    8.2094   54.1252 C   0  0  0  0  0  0  0  0  0  0  0  0
 17 18  1  0  0  0
 18 15  1  0  0  0
 15 16  1  0  0  0
 15 10  1  0  0  0
 10 11  1  0  0  0
 11 12  1  0  0  0
 12 13  1  0  0  0
 13 14  2  0  0  0
 11  6  1  0  0  0
  6  7  2  0  0  0
  6  8  1  0  0  0
  8  5  1  0  0  0
  5 19  1  0  0  0
 19 20  1  0  0  0
 19 21  1  0  0  0
  5  1  1  0  0  0
  1  2  2  0  0  0
  1  3  1  0  0  0
  3 22  1  0  0  0
 22 33  1  0  0  0
 33 34  1  0  0  0
 34 35  1  0  0  0
 34 36  1  0  0  0
 22 23  1  0  0  0
 23 24  2  0  0  0
 23 25  1  0  0  0
 25 26  1  0  0  0
 26 27  1  0  0  0
 27 28  2  0  0  0
 28 29  1  0  0  0
 29 30  2  0  0  0
 30 31  1  0  0  0
 31 32  2  0  0  0
 13 10  1  0  0  0
 32 27  1  0  0  0
  8  9  1  0  0  0
  3  4  1  0  0  0
M  END
> <minimizedAffinity>
15.19148

> <CNNscore>
0.5475516319

> <CNNaffinity>
6.1980447769

> <CNN_VS>
3.3937494755

> <CNNaffinity_variance>
0.3532461226

$$$$
[H]c1c([H])c([H])c(C([H])([H])OC(=O)[C@@]([H])(N([H])C(=O)[C@@]([H])(N([H])C(=O)[C@]2([H])OC(=O)[C@@]2([H])[C@@]([H])(C([H])([H])[H])C([H])([H])C([H])([H])[H])C([H])(C([H])([H])[H])C([H])([H])[H])C([H])([H])C([H])(C([H])([H])[H])C([H])([H])[H])c([H])c1[H]


 36 37  0  0  0  0  0  0  0  0999 V2000
   26.0877    7.9642   55.0912 C   0  0  0  0  0  0  0  0  0  0  0  0
   26.9453    7.4687   54.3289 O   0  0  0  0  0  0  0  0  0  0  0  0
   26.5649    8.7723   56.1470 N   0  0  0  0  0  0  0  0  0  0  0  0
   25.8244    9.1854   56.7843 H   0  0  0  0  0  0  0  0  0  0  0  0
   24.6620    7.6731   54.8363 C   0  0  0  0  0  0  0  0  0  0  0  0
   22.9404    8.9383   53.4971 C   0  0  0  0  0  0  0  0  0  0  0  0
   22.2546    8.9802   54.5693 O   0  0  0  0  0  0  0  0  0  0  0  0
   24.1808    8.2758   53.6106 N   0  0  0  0  0  0  0  0  0  0  0  0
   24.7918    8.2219   52.7729 H   0  0  0  0  0  0  0  0  0  0  0  0
   20.8916    9.6593   52.1524 C   0  0  0  0  0  0  0  0  0  0  0  0
   22.3583    9.5709   52.3258 C   0  0  0  0  0  0  0  0  0  0  0  0
   22.2801   11.0009   52.5261 O   0  0  0  0  0  0  0  0  0  0  0  0
   21.2567   10.9945   51.6106 C   0  0  0  0  0  0  0  0  0  0  0  0
   20.8924   11.8168   50.7472 O   0  0  0  0  0  0  0  0  0  0  0  0
   20.2285    8.7525   51.1645 C   0  0  0  0  0  0  0  0  0  0  0  0
   21.2411    8.0018   50.3454 C   0  0  0  0  0  0  0  0  0  0  0  0
   20.0885    6.9790   52.9420 C   0  0  0  0  0  0  0  0  0  0  0  0
   19.3734    7.6959   51.8444 C   0  0  0  0  0  0  0  0  0  0  0  0
   24.3470    6.1986   54.9028 C   0  0  0  0  0  0  0  0  0  0  0  0
   24.1349    5.5849   53.5439 C   0  0  0  0  0  0  0  0  0  0  0  0
   23.1032    6.0298   55.7319 C   0  0  0  0  0  0  0  0  0  0  0  0
   27.9198    9.0764   56.4278 C   0  0  0  0  0  0  0  0  0  0  0  0
   28.0373    9.2949   57.9153 C   0  0  0  0  0  0  0  0  0  0  0  0
   27.4908    8.4929   58.7379 O   0  0  0  0  0  0  0  0  0  0  0  0
   28.7332   10.3599   58.4471 O   0  0  0  0  0  0  0  0  0  0  0  0
   28.8518   10.4924   59.8472 C   0  0  0  0  0  0  0  0  0  0  0  0
   29.2437   11.8424   60.2709 C   0  0  0  0  0  0  0  0  0  0  0  0
   30.4434   11.9758   60.9406 C   0  0  0  0  0  0  0  0  0  0  0  0
   30.9108   13.2066   61.3861 C   0  0  0  0  0  0  0  0  0  0  0  0
   30.1692   14.3298   61.1605 C   0  0  0  0  0  0  0  0  0  0  0  0
   28.9658   14.2050   60.4900 C   0  0  0  0  0  0  0  0  0  0  0  0
   28.5070   12.9757   60.0496 C   0  0  0  0  0  0  0  0  0  0  0  0
   28.4301   10.3198   55.7550 C   0  0  0  0  0  0  0  0  0  0  0  0
   29.4114   10.0308   54.6507 C   0  0  0  0  0  0  0  0  0  0  0  0
   28.6943    9.5134   53.4057 C   0  0  0  0  0  0  0  0  0  0  0  0
   30.1594   11.2697   54.2011 C   0  0  0  0  0  0  0  0  0  0  0  0
 17 18  1  0  0  0
 18 15  1  0  0  0
 15 16  1  0  0  0
 15 10  1  0  0  0
 10 11  1  0  0  0
 11 12  1  0  0  0
 12 13  1  0  0  0
 13 14  2  0  0  0
 11  6  1  0  0  0
  6  7  2  0  0  0
  6  8  1  0  0  0
  8  5  1  0  0  0
  5 19  1  0  0  0
 19 20  1  0  0  0
 19 21  1  0  0  0
  5  1  1  0  0  0
  1  2  2  0  0  0
  1  3  1  0  0  0
  3 22  1  0  0  0
 22 33  1  0  0  0
 33 34  1  0  0  0
 34 35  1  0  0  0
 34 36  1  0  0  0
 22 23  1  0  0  0
 23 24  2  0  0  0
 23 25  1  0  0  0
 25 26  1  0  0  0
 26 27  1  0  0  0
 27 28  2  0  0  0
 28 29  1  0  0  0
 29 30  2  0  0  0
 30 31  1  0  0  0
 31 32  2  0  0  0
 13 10  1  0  0  0
 32 27  1  0  0  0
  8  9  1  0  0  0
  3  4  1  0  0  0
M  END
> <minimizedAffinity>
14.20591

> <CNNscore>
0.5461801291

> <CNNaffinity>
6.2315649986

> <CNN_VS>
3.4035570621

> <CNNaffinity_variance>
0.4359256625

$$$$
[H]c1c([H])c([H])c(C([H])([H])OC(=O)[C@@]([H])(N([H])C(=O)[C@@]([H])(N([H])C(=O)[C@]2([H])OC(=O)[C@@]2([H])[C@@]([H])(C([H])([H])[H])C([H])([H])C([H])([H])[H])C([H])(C([H])([H])[H])C([H])([H])[H])C([H])([H])C([H])(C([H])([H])[H])C([H])([H])[H])c([H])c1[H]


 36 37  0  0  0  0  0  0  0  0999 V2000
   25.8680    8.2457   53.5793 C   0  0  0  0  0  0  0  0  0  0  0  0
   25.1956    8.1448   52.5305 O   0  0  0  0  0  0  0  0  0  0  0  0
   25.1482    8.3995   54.7850 N   0  0  0  0  0  0  0  0  0  0  0  0
   25.7336    8.4831   55.6655 H   0  0  0  0  0  0  0  0  0  0  0  0
   27.3413    8.1975   53.4823 C   0  0  0  0  0  0  0  0  0  0  0  0
   27.2402    9.3011   51.2174 C   0  0  0  0  0  0  0  0  0  0  0  0
   26.2527    9.9634   51.6735 O   0  0  0  0  0  0  0  0  0  0  0  0
   27.8172    8.3914   52.1284 N   0  0  0  0  0  0  0  0  0  0  0  0
   28.6357    7.8327   51.8189 H   0  0  0  0  0  0  0  0  0  0  0  0
   28.8670   10.3205   49.5322 C   0  0  0  0  0  0  0  0  0  0  0  0
   27.6289    9.5729   49.8441 C   0  0  0  0  0  0  0  0  0  0  0  0
   28.3435    8.4391   49.3009 O   0  0  0  0  0  0  0  0  0  0  0  0
   28.9295    9.3247   48.4304 C   0  0  0  0  0  0  0  0  0  0  0  0
   29.3061    9.2195   47.2466 O   0  0  0  0  0  0  0  0  0  0  0  0
   28.7535   11.7405   49.0752 C   0  0  0  0  0  0  0  0  0  0  0  0
   29.2013   11.8935   47.6483 C   0  0  0  0  0  0  0  0  0  0  0  0
   27.0034   13.2158   48.0334 C   0  0  0  0  0  0  0  0  0  0  0  0
   27.3193   12.2414   49.1201 C   0  0  0  0  0  0  0  0  0  0  0  0
   28.0206    9.1264   54.4587 C   0  0  0  0  0  0  0  0  0  0  0  0
   29.1825    9.8661   53.8494 C   0  0  0  0  0  0  0  0  0  0  0  0
   28.5019    8.3018   55.6212 C   0  0  0  0  0  0  0  0  0  0  0  0
   23.7392    8.4512   54.9232 C   0  0  0  0  0  0  0  0  0  0  0  0
   23.4102    9.6514   55.7749 C   0  0  0  0  0  0  0  0  0  0  0  0
   24.2815   10.1602   56.5500 O   0  0  0  0  0  0  0  0  0  0  0  0
   22.1665   10.2463   55.7543 O   0  0  0  0  0  0  0  0  0  0  0  0
   21.6298   10.7097   54.5339 C   0  0  0  0  0  0  0  0  0  0  0  0
   21.1829    9.6271   53.6486 C   0  0  0  0  0  0  0  0  0  0  0  0
   21.4243    9.7700   52.2970 C   0  0  0  0  0  0  0  0  0  0  0  0
   21.0443    8.8066   51.3701 C   0  0  0  0  0  0  0  0  0  0  0  0
   20.4102    7.6758   51.7965 C   0  0  0  0  0  0  0  0  0  0  0  0
   20.1644    7.5246   53.1493 C   0  0  0  0  0  0  0  0  0  0  0  0
   20.5460    8.4887   54.0661 C   0  0  0  0  0  0  0  0  0  0  0  0
   23.1362    7.2505   55.5968 C   0  0  0  0  0  0  0  0  0  0  0  0
   23.1708    6.0148   54.7379 C   0  0  0  0  0  0  0  0  0  0  0  0
   22.7736    6.3394   53.2994 C   0  0  0  0  0  0  0  0  0  0  0  0
   24.5574    5.4101   54.6479 C   0  0  0  0  0  0  0  0  0  0  0  0
 17 18  1  0  0  0
 18 15  1  0  0  0
 15 16  1  0  0  0
 15 10  1  0  0  0
 10 11  1  0  0  0
 11 12  1  0  0  0
 12 13  1  0  0  0
 13 14  2  0  0  0
 11  6  1  0  0  0
  6  7  2  0  0  0
  6  8  1  0  0  0
  8  5  1  0  0  0
  5 19  1  0  0  0
 19 20  1  0  0  0
 19 21  1  0  0  0
  5  1  1  0  0  0
  1  2  2  0  0  0
  1  3  1  0  0  0
  3 22  1  0  0  0
 22 33  1  0  0  0
 33 34  1  0  0  0
 34 35  1  0  0  0
 34 36  1  0  0  0
 22 23  1  0  0  0
 23 24  2  0  0  0
 23 25  1  0  0  0
 25 26  1  0  0  0
 26 27  1  0  0  0
 27 28  2  0  0  0
 28 29  1  0  0  0
 29 30  2  0  0  0
 30 31  1  0  0  0
 31 32  2  0  0  0
 13 10  1  0  0  0
 32 27  1  0  0  0
  8  9  1  0  0  0
  3  4  1  0  0  0
M  END
> <minimizedAffinity>
22.32929

> <CNNscore>
0.5455448627

> <CNNaffinity>
6.4988999367

> <CNN_VS>
3.5454413891

> <CNNaffinity_variance>
0.3906220496

$$$$
[H]c1c([H])c([H])c(C([H])([H])OC(=O)[C@@]([H])(N([H])C(=O)[C@@]([H])(N([H])C(=O)[C@]2([H])OC(=O)[C@@]2([H])[C@@]([H])(C([H])([H])[H])C([H])([H])C([H])([H])[H])C([H])(C([H])([H])[H])C([H])([H])[H])C([H])([H])C([H])(C([H])([H])[H])C([H])([H])[H])c([H])c1[H]


 36 37  0  0  0  0  0  0  0  0999 V2000
   25.5017    8.3709   53.1430 C   0  0  0  0  0  0  0  0  0  0  0  0
   24.8766    9.4440   53.2848 O   0  0  0  0  0  0  0  0  0  0  0  0
   24.7327    7.1867   53.1013 N   0  0  0  0  0  0  0  0  0  0  0  0
   25.2781    6.2852   52.9802 H   0  0  0  0  0  0  0  0  0  0  0  0
   26.9739    8.4193   53.0316 C   0  0  0  0  0  0  0  0  0  0  0  0
   28.1421    8.9566   50.8625 C   0  0  0  0  0  0  0  0  0  0  0  0
   28.3678    7.7068   50.7677 O   0  0  0  0  0  0  0  0  0  0  0  0
   27.4255    9.3454   52.0140 N   0  0  0  0  0  0  0  0  0  0  0  0
   27.1982   10.3506   52.1397 H   0  0  0  0  0  0  0  0  0  0  0  0
   28.0654    9.7240   48.4272 C   0  0  0  0  0  0  0  0  0  0  0  0
   28.6453    9.7933   49.7866 C   0  0  0  0  0  0  0  0  0  0  0  0
   28.0144   11.0935   49.8376 O   0  0  0  0  0  0  0  0  0  0  0  0
   28.2875   11.1922   48.4956 C   0  0  0  0  0  0  0  0  0  0  0  0
   28.5827   12.1575   47.7637 O   0  0  0  0  0  0  0  0  0  0  0  0
   28.8392    9.0321   47.3499 C   0  0  0  0  0  0  0  0  0  0  0  0
   29.2948    7.6696   47.7926 C   0  0  0  0  0  0  0  0  0  0  0  0
   28.8190    8.7465   44.8514 C   0  0  0  0  0  0  0  0  0  0  0  0
   28.0031    8.8087   46.1006 C   0  0  0  0  0  0  0  0  0  0  0  0
   27.6514    8.6626   54.3580 C   0  0  0  0  0  0  0  0  0  0  0  0
   28.7808    7.7017   54.6219 C   0  0  0  0  0  0  0  0  0  0  0  0
   26.6127    8.5283   55.4378 C   0  0  0  0  0  0  0  0  0  0  0  0
   23.3227    7.0948   53.2047 C   0  0  0  0  0  0  0  0  0  0  0  0
   23.0102    5.9937   54.1866 C   0  0  0  0  0  0  0  0  0  0  0  0
   23.8268    5.0364   54.3752 O   0  0  0  0  0  0  0  0  0  0  0  0
   21.8407    5.9725   54.9165 O   0  0  0  0  0  0  0  0  0  0  0  0
   21.6758    6.8559   56.0048 C   0  0  0  0  0  0  0  0  0  0  0  0
   21.7123    8.2707   55.6140 C   0  0  0  0  0  0  0  0  0  0  0  0
   22.8800    8.9669   55.8535 C   0  0  0  0  0  0  0  0  0  0  0  0
   23.0237   10.3093   55.5233 C   0  0  0  0  0  0  0  0  0  0  0  0
   21.9834   10.9743   54.9419 C   0  0  0  0  0  0  0  0  0  0  0  0
   20.8097   10.2841   54.6984 C   0  0  0  0  0  0  0  0  0  0  0  0
   20.6744    8.9472   55.0302 C   0  0  0  0  0  0  0  0  0  0  0  0
   22.6261    6.7525   51.9177 C   0  0  0  0  0  0  0  0  0  0  0  0
   21.5041    7.6997   51.5859 C   0  0  0  0  0  0  0  0  0  0  0  0
   20.2245    7.3081   52.3216 C   0  0  0  0  0  0  0  0  0  0  0  0
   21.7996    9.1220   52.0175 C   0  0  0  0  0  0  0  0  0  0  0  0
 17 18  1  0  0  0
 18 15  1  0  0  0
 15 16  1  0  0  0
 15 10  1  0  0  0
 10 11  1  0  0  0
 11 12  1  0  0  0
 12 13  1  0  0  0
 13 14  2  0  0  0
 11  6  1  0  0  0
  6  7  2  0  0  0
  6  8  1  0  0  0
  8  5  1  0  0  0
  5 19  1  0  0  0
 19 20  1  0  0  0
 19 21  1  0  0  0
  5  1  1  0  0  0
  1  2  2  0  0  0
  1  3  1  0  0  0
  3 22  1  0  0  0
 22 33  1  0  0  0
 33 34  1  0  0  0
 34 35  1  0  0  0
 34 36  1  0  0  0
 22 23  1  0  0  0
 23 24  2  0  0  0
 23 25  1  0  0  0
 25 26  1  0  0  0
 26 27  1  0  0  0
 27 28  2  0  0  0
 28 29  1  0  0  0
 29 30  2  0  0  0
 30 31  1  0  0  0
 31 32  2  0  0  0
 13 10  1  0  0  0
 32 27  1  0  0  0
  8  9  1  0  0  0
  3  4  1  0  0  0
M  END
> <minimizedAffinity>
17.73056

> <CNNscore>
0.5444484353

> <CNNaffinity>
6.4097528458

> <CNN_VS>
3.4897799492

> <CNNaffinity_variance>
0.4752452374

$$$$
[H]c1c([H])c([H])c(C([H])([H])OC(=O)[C@@]([H])(N([H])C(=O)[C@@]([H])(N([H])C(=O)[C@]2([H])OC(=O)[C@@]2([H])[C@@]([H])(C([H])([H])[H])C([H])([H])C([H])([H])[H])C([H])(C([H])([H])[H])C([H])([H])[H])C([H])([H])C([H])(C([H])([H])[H])C([H])([H])[H])c([H])c1[H]


 36 37  0  0  0  0  0  0  0  0999 V2000
   25.0952    7.7528   55.3908 C   0  0  0  0  0  0  0  0  0  0  0  0
   25.6789    6.9380   54.6440 O   0  0  0  0  0  0  0  0  0  0  0  0
   25.8932    8.7532   55.9889 N   0  0  0  0  0  0  0  0  0  0  0  0
   25.3826    9.4366   56.6192 H   0  0  0  0  0  0  0  0  0  0  0  0
   23.6382    7.6117   55.5898 C   0  0  0  0  0  0  0  0  0  0  0  0
   23.2909    8.6180   53.3040 C   0  0  0  0  0  0  0  0  0  0  0  0
   24.4185    8.1113   52.9981 O   0  0  0  0  0  0  0  0  0  0  0  0
   22.8683    8.3720   54.6274 N   0  0  0  0  0  0  0  0  0  0  0  0
   21.9494    8.7474   54.9315 H   0  0  0  0  0  0  0  0  0  0  0  0
   21.1345    9.5002   52.2566 C   0  0  0  0  0  0  0  0  0  0  0  0
   22.6078    9.3654   52.2620 C   0  0  0  0  0  0  0  0  0  0  0  0
   22.5953   10.7730   52.5931 O   0  0  0  0  0  0  0  0  0  0  0  0
   21.4811   10.8705   51.7966 C   0  0  0  0  0  0  0  0  0  0  0  0
   21.0529   11.7746   51.0525 O   0  0  0  0  0  0  0  0  0  0  0  0
   20.3429    8.7000   51.2711 C   0  0  0  0  0  0  0  0  0  0  0  0
   21.2413    7.9163   50.3553 C   0  0  0  0  0  0  0  0  0  0  0  0
   20.0921    7.0266   53.1316 C   0  0  0  0  0  0  0  0  0  0  0  0
   19.4472    7.6792   51.9534 C   0  0  0  0  0  0  0  0  0  0  0  0
   23.1956    6.1704   55.6559 C   0  0  0  0  0  0  0  0  0  0  0  0
   23.1070    5.5239   54.2984 C   0  0  0  0  0  0  0  0  0  0  0  0
   21.8470    6.1322   56.3213 C   0  0  0  0  0  0  0  0  0  0  0  0
   27.2902    8.9244   55.8264 C   0  0  0  0  0  0  0  0  0  0  0  0
   27.7953    9.6943   57.0206 C   0  0  0  0  0  0  0  0  0  0  0  0
   28.2959   10.8560   56.8840 O   0  0  0  0  0  0  0  0  0  0  0  0
   27.7394    9.1828   58.2998 O   0  0  0  0  0  0  0  0  0  0  0  0
   28.2714    9.9242   59.3765 C   0  0  0  0  0  0  0  0  0  0  0  0
   29.2633    9.1779   60.1606 C   0  0  0  0  0  0  0  0  0  0  0  0
   30.2541    9.9044   60.7899 C   0  0  0  0  0  0  0  0  0  0  0  0
   31.2427    9.2999   61.5573 C   0  0  0  0  0  0  0  0  0  0  0  0
   31.2463    7.9429   61.7025 C   0  0  0  0  0  0  0  0  0  0  0  0
   30.2568    7.2073   61.0754 C   0  0  0  0  0  0  0  0  0  0  0  0
   29.2757    7.8167   60.3127 C   0  0  0  0  0  0  0  0  0  0  0  0
   27.6829    9.6996   54.6002 C   0  0  0  0  0  0  0  0  0  0  0  0
   28.1304    8.8181   53.4650 C   0  0  0  0  0  0  0  0  0  0  0  0
   28.5135    7.4293   53.9715 C   0  0  0  0  0  0  0  0  0  0  0  0
   27.0351    8.5880   52.4433 C   0  0  0  0  0  0  0  0  0  0  0  0
 17 18  1  0  0  0
 18 15  1  0  0  0
 15 16  1  0  0  0
 15 10  1  0  0  0
 10 11  1  0  0  0
 11 12  1  0  0  0
 12 13  1  0  0  0
 13 14  2  0  0  0
 11  6  1  0  0  0
  6  7  2  0  0  0
  6  8  1  0  0  0
  8  5  1  0  0  0
  5 19  1  0  0  0
 19 20  1  0  0  0
 19 21  1  0  0  0
  5  1  1  0  0  0
  1  2  2  0  0  0
  1  3  1  0  0  0
  3 22  1  0  0  0
 22 33  1  0  0  0
 33 34  1  0  0  0
 34 35  1  0  0  0
 34 36  1  0  0  0
 22 23  1  0  0  0
 23 24  2  0  0  0
 23 25  1  0  0  0
 25 26  1  0  0  0
 26 27  1  0  0  0
 27 28  2  0  0  0
 28 29  1  0  0  0
 29 30  2  0  0  0
 30 31  1  0  0  0
 31 32  2  0  0  0
 13 10  1  0  0  0
 32 27  1  0  0  0
  8  9  1  0  0  0
  3  4  1  0  0  0
M  END
> <minimizedAffinity>
15.39542

> <CNNscore>
0.5369287729

> <CNNaffinity>
6.0930213928

> <CNN_VS>
3.2715184689

> <CNNaffinity_variance>
0.3334776759

$$$$
[H]c1nc2c([H])c(OC([H])([H])C([H])([H])C([H])([H])N3C([H])([H])C([H])([H])OC([H])([H])C3([H])[H])c(OC([H])([H])[H])c([H])c2c(Oc2c([H])c([H])c(N([H])C(=O)C3(C(=O)N([H])c4c([H])c([H])c(F)c([H])c4[H])C([H])([H])C3([H])[H])c([H])c2F)c1[H]


 48 53  0  0  0  0  0  0  0  0999 V2000
   21.0162   14.8451   50.9988 C   0  0  0  0  0  0  0  0  0  0  0  0
   21.9047   13.9070   50.4964 C   0  0  0  0  0  0  0  0  0  0  0  0
   22.1091   12.6806   51.1331 C   0  0  0  0  0  0  0  0  0  0  0  0
   21.4449   12.3340   52.2848 C   0  0  0  0  0  0  0  0  0  0  0  0
   20.5603   13.2729   52.7806 C   0  0  0  0  0  0  0  0  0  0  0  0
   20.3483   14.5052   52.1528 C   0  0  0  0  0  0  0  0  0  0  0  0
   19.4800   15.4078   52.6959 F   0  0  0  0  0  0  0  0  0  0  0  0
   21.6528   11.0929   52.9558 N   0  0  0  0  0  0  0  0  0  0  0  0
   21.3434    9.8193   52.4317 C   0  0  0  0  0  0  0  0  0  0  0  0
   20.8095    9.6427   51.3199 O   0  0  0  0  0  0  0  0  0  0  0  0
   22.0764   11.1232   53.9176 H   0  0  0  0  0  0  0  0  0  0  0  0
   21.7124    8.6117   53.2681 C   0  0  0  0  0  0  0  0  0  0  0  0
   21.0603    7.3092   52.8316 C   0  0  0  0  0  0  0  0  0  0  0  0
   20.5077    8.0860   54.0126 C   0  0  0  0  0  0  0  0  0  0  0  0
   23.0177    8.6193   53.9425 C   0  0  0  0  0  0  0  0  0  0  0  0
   23.0054    8.7612   55.2343 O   0  0  0  0  0  0  0  0  0  0  0  0
   24.2758    8.5031   53.3355 N   0  0  0  0  0  0  0  0  0  0  0  0
   24.3312    8.4509   52.2723 H   0  0  0  0  0  0  0  0  0  0  0  0
   25.5182    8.4872   54.0528 C   0  0  0  0  0  0  0  0  0  0  0  0
   25.5485    8.8340   55.3624 C   0  0  0  0  0  0  0  0  0  0  0  0
   26.7468    8.8692   56.0448 C   0  0  0  0  0  0  0  0  0  0  0  0
   27.9206    8.5443   55.3686 C   0  0  0  0  0  0  0  0  0  0  0  0
   29.1362    8.5535   55.9841 F   0  0  0  0  0  0  0  0  0  0  0  0
   27.9031    8.1860   54.0233 C   0  0  0  0  0  0  0  0  0  0  0  0
   26.6891    8.1674   53.3964 C   0  0  0  0  0  0  0  0  0  0  0  0
   20.8550   16.0578   50.3224 O   0  0  0  0  0  0  0  0  0  0  0  0
   21.5859   17.6699   46.6297 C   0  0  0  0  0  0  0  0  0  0  0  0
   21.3565   17.1404   47.8813 C   0  0  0  0  0  0  0  0  0  0  0  0
   22.0591   17.6236   48.9943 C   0  0  0  0  0  0  0  0  0  0  0  0
   21.7994   17.0651   50.2529 C   0  0  0  0  0  0  0  0  0  0  0  0
   22.4794   17.5348   51.3406 C   0  0  0  0  0  0  0  0  0  0  0  0
   23.4123   18.5554   51.1565 C   0  0  0  0  0  0  0  0  0  0  0  0
   23.6395   19.0725   49.9338 N   0  0  0  0  0  0  0  0  0  0  0  0
   22.9857   18.6300   48.8606 C   0  0  0  0  0  0  0  0  0  0  0  0
   23.2248   19.1662   47.6166 C   0  0  0  0  0  0  0  0  0  0  0  0
   22.5402   18.6942   46.5348 C   0  0  0  0  0  0  0  0  0  0  0  0
   21.1943   16.0348   44.8639 C   0  0  0  0  0  0  0  0  0  0  0  0
   20.9268   17.2388   45.5090 O   0  0  0  0  0  0  0  0  0  0  0  0
   22.8086   19.2463   45.3164 O   0  0  0  0  0  0  0  0  0  0  0  0
   21.8364   19.8742   44.5050 C   0  0  0  0  0  0  0  0  0  0  0  0
   21.6222   19.1373   43.2094 C   0  0  0  0  0  0  0  0  0  0  0  0
   20.2034   19.3292   42.7696 C   0  0  0  0  0  0  0  0  0  0  0  0
   19.8308   18.4929   41.6431 N   0  0  0  0  0  0  0  0  0  0  0  0
   18.4855   17.9790   41.9901 C   0  0  0  0  0  0  0  0  0  0  0  0
   18.0346   16.8856   41.0821 C   0  0  0  0  0  0  0  0  0  0  0  0
   19.0642   16.0029   40.7076 O   0  0  0  0  0  0  0  0  0  0  0  0
   20.0199   16.0339   41.7027 C   0  0  0  0  0  0  0  0  0  0  0  0
   20.7699   17.3653   41.6230 C   0  0  0  0  0  0  0  0  0  0  0  0
 37 38  1  0  0  0
 38 27  1  0  0  0
 27 28  2  0  0  0
 28 29  1  0  0  0
 29 30  2  0  0  0
 30 26  1  0  0  0
 26  1  1  0  0  0
  1  2  2  0  0  0
  2  3  1  0  0  0
  3  4  2  0  0  0
  4  8  1  0  0  0
  8  9  1  0  0  0
  9 10  2  0  0  0
  9 12  1  0  0  0
 12 13  1  0  0  0
 13 14  1  0  0  0
 12 15  1  0  0  0
 15 16  2  0  0  0
 15 17  1  0  0  0
 17 19  1  0  0  0
 19 20  2  0  0  0
 20 21  1  0  0  0
 21 22  2  0  0  0
 22 23  1  0  0  0
 22 24  1  0  0  0
 24 25  2  0  0  0
  4  5  1  0  0  0
  5  6  2  0  0  0
  6  7  1  0  0  0
 30 31  1  0  0  0
 31 32  2  0  0  0
 32 33  1  0  0  0
 33 34  2  0  0  0
 34 35  1  0  0  0
 35 36  2  0  0  0
 36 39  1  0  0  0
 39 40  1  0  0  0
 40 41  1  0  0  0
 41 42  1  0  0  0
 42 43  1  0  0  0
 43 44  1  0  0  0
 44 45  1  0  0  0
 45 46  1  0  0  0
 46 47  1  0  0  0
 47 48  1  0  0  0
 36 27  1  0  0  0
 48 43  1  0  0  0
 34 29  1  0  0  0
  6  1  1  0  0  0
 14 12  1  0  0  0
 25 19  1  0  0  0
  8 11  1  0  0  0
 17 18  1  0  0  0
M  END
> <minimizedAffinity>
9.94096

> <CNNscore>
0.6441656351

> <CNNaffinity>
6.7957291603

> <CNN_VS>
4.3775753975

> <CNNaffinity_variance>
0.0174935907

$$$$
[H]c1nc2c([H])c(OC([H])([H])C([H])([H])C([H])([H])N3C([H])([H])C([H])([H])OC([H])([H])C3([H])[H])c(OC([H])([H])[H])c([H])c2c(Oc2c([H])c([H])c(N([H])C(=O)C3(C(=O)N([H])c4c([H])c([H])c(F)c([H])c4[H])C([H])([H])C3([H])[H])c([H])c2F)c1[H]


 48 53  0  0  0  0  0  0  0  0999 V2000
   21.2096   10.4638   52.8947 C   0  0  0  0  0  0  0  0  0  0  0  0
   21.5178   11.6191   53.5962 C   0  0  0  0  0  0  0  0  0  0  0  0
   21.7898   12.8215   52.9394 C   0  0  0  0  0  0  0  0  0  0  0  0
   21.7661   12.9293   51.5699 C   0  0  0  0  0  0  0  0  0  0  0  0
   21.4579   11.7744   50.8761 C   0  0  0  0  0  0  0  0  0  0  0  0
   21.1852   10.5639   51.5226 C   0  0  0  0  0  0  0  0  0  0  0  0
   20.9086    9.4458   50.7900 F   0  0  0  0  0  0  0  0  0  0  0  0
   22.0560   14.1449   50.8830 N   0  0  0  0  0  0  0  0  0  0  0  0
   21.2062   15.2702   50.8203 C   0  0  0  0  0  0  0  0  0  0  0  0
   20.0732   15.3078   51.3368 O   0  0  0  0  0  0  0  0  0  0  0  0
   22.9797   14.2160   50.3857 H   0  0  0  0  0  0  0  0  0  0  0  0
   21.7275   16.4998   50.1057 C   0  0  0  0  0  0  0  0  0  0  0  0
   23.0367   17.0482   50.6509 C   0  0  0  0  0  0  0  0  0  0  0  0
   21.7173   17.6990   51.0241 C   0  0  0  0  0  0  0  0  0  0  0  0
   21.3564   16.6806   48.6956 C   0  0  0  0  0  0  0  0  0  0  0  0
   20.5437   15.8017   48.1895 O   0  0  0  0  0  0  0  0  0  0  0  0
   21.7987   17.6952   47.8357 N   0  0  0  0  0  0  0  0  0  0  0  0
   22.5165   18.3970   48.1942 H   0  0  0  0  0  0  0  0  0  0  0  0
   21.3760   17.8370   46.4720 C   0  0  0  0  0  0  0  0  0  0  0  0
   21.8003   16.9535   45.5361 C   0  0  0  0  0  0  0  0  0  0  0  0
   21.4383   17.1129   44.2147 C   0  0  0  0  0  0  0  0  0  0  0  0
   20.6332   18.1927   43.8589 C   0  0  0  0  0  0  0  0  0  0  0  0
   20.2347   18.4053   42.5734 F   0  0  0  0  0  0  0  0  0  0  0  0
   20.1902   19.1073   44.8107 C   0  0  0  0  0  0  0  0  0  0  0  0
   20.5784   18.9014   46.1046 C   0  0  0  0  0  0  0  0  0  0  0  0
   20.9506    9.2875   53.6042 O   0  0  0  0  0  0  0  0  0  0  0  0
   24.6643    9.3842   55.3270 C   0  0  0  0  0  0  0  0  0  0  0  0
   23.4187    9.3305   54.7397 C   0  0  0  0  0  0  0  0  0  0  0  0
   22.9780    8.1523   54.1203 C   0  0  0  0  0  0  0  0  0  0  0  0
   21.7048    8.1309   53.5355 C   0  0  0  0  0  0  0  0  0  0  0  0
   21.2702    6.9843   52.9334 C   0  0  0  0  0  0  0  0  0  0  0  0
   22.1144    5.8739   52.9214 C   0  0  0  0  0  0  0  0  0  0  0  0
   23.3330    5.9252   53.4928 N   0  0  0  0  0  0  0  0  0  0  0  0
   23.7750    7.0329   54.0866 C   0  0  0  0  0  0  0  0  0  0  0  0
   25.0209    7.0738   54.6682 C   0  0  0  0  0  0  0  0  0  0  0  0
   25.4479    8.2216   55.2700 C   0  0  0  0  0  0  0  0  0  0  0  0
   24.5653   11.7671   55.8338 C   0  0  0  0  0  0  0  0  0  0  0  0
   25.1444   10.5066   55.9483 O   0  0  0  0  0  0  0  0  0  0  0  0
   26.6917    8.2262   55.8306 O   0  0  0  0  0  0  0  0  0  0  0  0
   27.2367    9.3278   56.5287 C   0  0  0  0  0  0  0  0  0  0  0  0
   27.5394    8.9911   57.9649 C   0  0  0  0  0  0  0  0  0  0  0  0
   28.7252    9.7894   58.4119 C   0  0  0  0  0  0  0  0  0  0  0  0
   28.6929   10.1290   59.8229 N   0  0  0  0  0  0  0  0  0  0  0  0
   29.0821   11.5574   59.8708 C   0  0  0  0  0  0  0  0  0  0  0  0
   29.3685   12.0305   61.2555 C   0  0  0  0  0  0  0  0  0  0  0  0
   30.0345   11.0793   62.0500 O   0  0  0  0  0  0  0  0  0  0  0  0
   30.7356   10.2473   61.2011 C   0  0  0  0  0  0  0  0  0  0  0  0
   29.7434    9.3374   60.4739 C   0  0  0  0  0  0  0  0  0  0  0  0
 37 38  1  0  0  0
 38 27  1  0  0  0
 27 28  2  0  0  0
 28 29  1  0  0  0
 29 30  2  0  0  0
 30 26  1  0  0  0
 26  1  1  0  0  0
  1  2  2  0  0  0
  2  3  1  0  0  0
  3  4  2  0  0  0
  4  8  1  0  0  0
  8  9  1  0  0  0
  9 10  2  0  0  0
  9 12  1  0  0  0
 12 13  1  0  0  0
 13 14  1  0  0  0
 12 15  1  0  0  0
 15 16  2  0  0  0
 15 17  1  0  0  0
 17 19  1  0  0  0
 19 20  2  0  0  0
 20 21  1  0  0  0
 21 22  2  0  0  0
 22 23  1  0  0  0
 22 24  1  0  0  0
 24 25  2  0  0  0
  4  5  1  0  0  0
  5  6  2  0  0  0
  6  7  1  0  0  0
 30 31  1  0  0  0
 31 32  2  0  0  0
 32 33  1  0  0  0
 33 34  2  0  0  0
 34 35  1  0  0  0
 35 36  2  0  0  0
 36 39  1  0  0  0
 39 40  1  0  0  0
 40 41  1  0  0  0
 41 42  1  0  0  0
 42 43  1  0  0  0
 43 44  1  0  0  0
 44 45  1  0  0  0
 45 46  1  0  0  0
 46 47  1  0  0  0
 47 48  1  0  0  0
 36 27  1  0  0  0
 48 43  1  0  0  0
 34 29  1  0  0  0
  6  1  1  0  0  0
 14 12  1  0  0  0
 25 19  1  0  0  0
  8 11  1  0  0  0
 17 18  1  0  0  0
M  END
> <minimizedAffinity>
17.79015

> <CNNscore>
0.6346337199

> <CNNaffinity>
6.6607294083

> <CNN_VS>
4.2271232605

> <CNNaffinity_variance>
0.2371845990

$$$$
[H]c1nc2c([H])c(OC([H])([H])C([H])([H])C([H])([H])N3C([H])([H])C([H])([H])OC([H])([H])C3([H])[H])c(OC([H])([H])[H])c([H])c2c(Oc2c([H])c([H])c(N([H])C(=O)C3(C(=O)N([H])c4c([H])c([H])c(F)c([H])c4[H])C([H])([H])C3([H])[H])c([H])c2F)c1[H]


 48 53  0  0  0  0  0  0  0  0999 V2000
   25.8940    8.8522   54.6082 C   0  0  0  0  0  0  0  0  0  0  0  0
   27.2741    8.7224   54.5903 C   0  0  0  0  0  0  0  0  0  0  0  0
   28.0512    9.0316   55.7090 C   0  0  0  0  0  0  0  0  0  0  0  0
   27.4972    9.4774   56.8847 C   0  0  0  0  0  0  0  0  0  0  0  0
   26.1210    9.6044   56.8966 C   0  0  0  0  0  0  0  0  0  0  0  0
   25.3322    9.2993   55.7820 C   0  0  0  0  0  0  0  0  0  0  0  0
   23.9783    9.4638   55.8381 F   0  0  0  0  0  0  0  0  0  0  0  0
   28.2768    9.8119   58.0310 N   0  0  0  0  0  0  0  0  0  0  0  0
   28.3629   11.0944   58.6142 C   0  0  0  0  0  0  0  0  0  0  0  0
   27.7852   12.0993   58.1575 O   0  0  0  0  0  0  0  0  0  0  0  0
   28.8300    9.0424   58.4862 H   0  0  0  0  0  0  0  0  0  0  0  0
   29.1843   11.2323   59.8793 C   0  0  0  0  0  0  0  0  0  0  0  0
   30.3143   10.2246   60.0200 C   0  0  0  0  0  0  0  0  0  0  0  0
   29.0088   10.0232   60.7676 C   0  0  0  0  0  0  0  0  0  0  0  0
   29.2709   12.5625   60.4974 C   0  0  0  0  0  0  0  0  0  0  0  0
   29.1293   12.6156   61.7882 O   0  0  0  0  0  0  0  0  0  0  0  0
   29.4770   13.7818   59.8375 N   0  0  0  0  0  0  0  0  0  0  0  0
   29.5324   13.7878   58.7730 H   0  0  0  0  0  0  0  0  0  0  0  0
   29.5826   15.0494   60.5012 C   0  0  0  0  0  0  0  0  0  0  0  0
   30.7991   15.6167   60.6879 C   0  0  0  0  0  0  0  0  0  0  0  0
   30.9122   16.8106   61.3692 C   0  0  0  0  0  0  0  0  0  0  0  0
   29.7607   17.4214   61.8607 C   0  0  0  0  0  0  0  0  0  0  0  0
   29.8011   18.6035   62.5370 F   0  0  0  0  0  0  0  0  0  0  0  0
   28.5049   16.8492   61.6753 C   0  0  0  0  0  0  0  0  0  0  0  0
   28.4507   15.6664   60.9933 C   0  0  0  0  0  0  0  0  0  0  0  0
   25.1670    8.5326   53.4577 O   0  0  0  0  0  0  0  0  0  0  0  0
   22.8496    5.1706   53.7669 C   0  0  0  0  0  0  0  0  0  0  0  0
   23.6109    6.3142   53.6576 C   0  0  0  0  0  0  0  0  0  0  0  0
   22.9994    7.5508   53.4070 C   0  0  0  0  0  0  0  0  0  0  0  0
   23.8027    8.6943   53.3046 C   0  0  0  0  0  0  0  0  0  0  0  0
   23.2108    9.9017   53.0634 C   0  0  0  0  0  0  0  0  0  0  0  0
   21.8236    9.9508   52.9253 C   0  0  0  0  0  0  0  0  0  0  0  0
   21.0782    8.8339   53.0295 N   0  0  0  0  0  0  0  0  0  0  0  0
   21.6354    7.6471   53.2662 C   0  0  0  0  0  0  0  0  0  0  0  0
   20.8644    6.5129   53.3720 C   0  0  0  0  0  0  0  0  0  0  0  0
   21.4617    5.3105   53.6155 C   0  0  0  0  0  0  0  0  0  0  0  0
   24.3574    3.3373   53.2094 C   0  0  0  0  0  0  0  0  0  0  0  0
   23.3931    3.9378   54.0138 O   0  0  0  0  0  0  0  0  0  0  0  0
   20.6651    4.2068   53.7079 O   0  0  0  0  0  0  0  0  0  0  0  0
   19.9216    3.6796   52.6275 C   0  0  0  0  0  0  0  0  0  0  0  0
   18.6593    3.0011   53.0899 C   0  0  0  0  0  0  0  0  0  0  0  0
   18.0620    3.7964   54.2097 C   0  0  0  0  0  0  0  0  0  0  0  0
   16.6341    3.5878   54.3675 N   0  0  0  0  0  0  0  0  0  0  0  0
   16.2230    2.8790   53.1335 C   0  0  0  0  0  0  0  0  0  0  0  0
   14.7420    2.8062   52.9770 C   0  0  0  0  0  0  0  0  0  0  0  0
   14.0733    3.9733   53.3895 O   0  0  0  0  0  0  0  0  0  0  0  0
   14.9586    5.0247   53.2656 C   0  0  0  0  0  0  0  0  0  0  0  0
   16.0094    4.9158   54.3725 C   0  0  0  0  0  0  0  0  0  0  0  0
 37 38  1  0  0  0
 38 27  1  0  0  0
 27 28  2  0  0  0
 28 29  1  0  0  0
 29 30  2  0  0  0
 30 26  1  0  0  0
 26  1  1  0  0  0
  1  2  2  0  0  0
  2  3  1  0  0  0
  3  4  2  0  0  0
  4  8  1  0  0  0
  8  9  1  0  0  0
  9 10  2  0  0  0
  9 12  1  0  0  0
 12 13  1  0  0  0
 13 14  1  0  0  0
 12 15  1  0  0  0
 15 16  2  0  0  0
 15 17  1  0  0  0
 17 19  1  0  0  0
 19 20  2  0  0  0
 20 21  1  0  0  0
 21 22  2  0  0  0
 22 23  1  0  0  0
 22 24  1  0  0  0
 24 25  2  0  0  0
  4  5  1  0  0  0
  5  6  2  0  0  0
  6  7  1  0  0  0
 30 31  1  0  0  0
 31 32  2  0  0  0
 32 33  1  0  0  0
 33 34  2  0  0  0
 34 35  1  0  0  0
 35 36  2  0  0  0
 36 39  1  0  0  0
 39 40  1  0  0  0
 40 41  1  0  0  0
 41 42  1  0  0  0
 42 43  1  0  0  0
 43 44  1  0  0  0
 44 45  1  0  0  0
 45 46  1  0  0  0
 46 47  1  0  0  0
 47 48  1  0  0  0
 36 27  1  0  0  0
 48 43  1  0  0  0
 34 29  1  0  0  0
  6  1  1  0  0  0
 14 12  1  0  0  0
 25 19  1  0  0  0
  8 11  1  0  0  0
 17 18  1  0  0  0
M  END
> <minimizedAffinity>
22.14289

> <CNNscore>
0.6337972879

> <CNNaffinity>
7.0936584473

> <CNN_VS>
4.4959416389

> <CNNaffinity_variance>
0.2348725498

$$$$
[H]c1nc2c([H])c(OC([H])([H])C([H])([H])C([H])([H])N3C([H])([H])C([H])([H])OC([H])([H])C3([H])[H])c(OC([H])([H])[H])c([H])c2c(Oc2c([H])c([H])c(N([H])C(=O)C3(C(=O)N([H])c4c([H])c([H])c(F)c([H])c4[H])C([H])([H])C3([H])[H])c([H])c2F)c1[H]


 48 53  0  0  0  0  0  0  0  0999 V2000
   26.4918    8.9300   55.0541 C   0  0  0  0  0  0  0  0  0  0  0  0
   25.9371    9.5191   56.1798 C   0  0  0  0  0  0  0  0  0  0  0  0
   26.7152    9.8401   57.2945 C   0  0  0  0  0  0  0  0  0  0  0  0
   28.0663    9.5945   57.3394 C   0  0  0  0  0  0  0  0  0  0  0  0
   28.6137    9.0077   56.2143 C   0  0  0  0  0  0  0  0  0  0  0  0
   27.8443    8.6801   55.0924 C   0  0  0  0  0  0  0  0  0  0  0  0
   28.4294    8.0804   54.0147 F   0  0  0  0  0  0  0  0  0  0  0  0
   28.8726    9.9020   58.4748 N   0  0  0  0  0  0  0  0  0  0  0  0
   29.1941    9.0042   59.5155 C   0  0  0  0  0  0  0  0  0  0  0  0
   28.7675    7.8351   59.5733 O   0  0  0  0  0  0  0  0  0  0  0  0
   29.2672   10.8741   58.5441 H   0  0  0  0  0  0  0  0  0  0  0  0
   30.1320    9.4970   60.5979 C   0  0  0  0  0  0  0  0  0  0  0  0
   31.2167    8.5104   61.0007 C   0  0  0  0  0  0  0  0  0  0  0  0
   29.9752    8.6781   61.8575 C   0  0  0  0  0  0  0  0  0  0  0  0
   30.3423   10.9465   60.7133 C   0  0  0  0  0  0  0  0  0  0  0  0
   31.5661   11.3688   60.5995 O   0  0  0  0  0  0  0  0  0  0  0  0
   29.3613   11.9200   60.9471 N   0  0  0  0  0  0  0  0  0  0  0  0
   28.3554   11.6078   61.1114 H   0  0  0  0  0  0  0  0  0  0  0  0
   29.6250   13.3284   61.0202 C   0  0  0  0  0  0  0  0  0  0  0  0
   28.5964   14.2108   61.0208 C   0  0  0  0  0  0  0  0  0  0  0  0
   28.8443   15.5675   61.0401 C   0  0  0  0  0  0  0  0  0  0  0  0
   30.1636   16.0144   61.0587 C   0  0  0  0  0  0  0  0  0  0  0  0
   30.4781   17.3400   61.0841 F   0  0  0  0  0  0  0  0  0  0  0  0
   31.2293   15.1184   61.0587 C   0  0  0  0  0  0  0  0  0  0  0  0
   30.9266   13.7860   61.0392 C   0  0  0  0  0  0  0  0  0  0  0  0
   25.6642    8.6264   53.9692 O   0  0  0  0  0  0  0  0  0  0  0  0
   22.0834    9.0288   52.0236 C   0  0  0  0  0  0  0  0  0  0  0  0
   23.2834    8.8716   52.6831 C   0  0  0  0  0  0  0  0  0  0  0  0
   23.6527    7.6186   53.1923 C   0  0  0  0  0  0  0  0  0  0  0  0
   24.8809    7.4930   53.8550 C   0  0  0  0  0  0  0  0  0  0  0  0
   25.2462    6.2733   54.3502 C   0  0  0  0  0  0  0  0  0  0  0  0
   24.3782    5.1948   54.1790 C   0  0  0  0  0  0  0  0  0  0  0  0
   23.2042    5.3470   53.5368 N   0  0  0  0  0  0  0  0  0  0  0  0
   22.8301    6.5273   53.0448 C   0  0  0  0  0  0  0  0  0  0  0  0
   21.6292    6.6711   52.3894 C   0  0  0  0  0  0  0  0  0  0  0  0
   21.2716    7.8916   51.8951 C   0  0  0  0  0  0  0  0  0  0  0  0
   21.8568   11.4539   52.1367 C   0  0  0  0  0  0  0  0  0  0  0  0
   21.6737   10.2279   51.5035 O   0  0  0  0  0  0  0  0  0  0  0  0
   20.0706    7.9970   51.2566 O   0  0  0  0  0  0  0  0  0  0  0  0
   18.8544    7.5023   51.7801 C   0  0  0  0  0  0  0  0  0  0  0  0
   18.7613    7.6979   53.2703 C   0  0  0  0  0  0  0  0  0  0  0  0
   20.1272    7.5494   53.8665 C   0  0  0  0  0  0  0  0  0  0  0  0
   20.3571    8.4199   55.0052 N   0  0  0  0  0  0  0  0  0  0  0  0
   20.8734    9.6765   54.4147 C   0  0  0  0  0  0  0  0  0  0  0  0
   21.4238   10.6106   55.4383 C   0  0  0  0  0  0  0  0  0  0  0  0
   22.1247    9.9641   56.4729 O   0  0  0  0  0  0  0  0  0  0  0  0
   22.6007    8.7708   55.9691 C   0  0  0  0  0  0  0  0  0  0  0  0
   21.4262    7.8047   55.8004 C   0  0  0  0  0  0  0  0  0  0  0  0
 37 38  1  0  0  0
 38 27  1  0  0  0
 27 28  2  0  0  0
 28 29  1  0  0  0
 29 30  2  0  0  0
 30 26  1  0  0  0
 26  1  1  0  0  0
  1  2  2  0  0  0
  2  3  1  0  0  0
  3  4  2  0  0  0
  4  8  1  0  0  0
  8  9  1  0  0  0
  9 10  2  0  0  0
  9 12  1  0  0  0
 12 13  1  0  0  0
 13 14  1  0  0  0
 12 15  1  0  0  0
 15 16  2  0  0  0
 15 17  1  0  0  0
 17 19  1  0  0  0
 19 20  2  0  0  0
 20 21  1  0  0  0
 21 22  2  0  0  0
 22 23  1  0  0  0
 22 24  1  0  0  0
 24 25  2  0  0  0
  4  5  1  0  0  0
  5  6  2  0  0  0
  6  7  1  0  0  0
 30 31  1  0  0  0
 31 32  2  0  0  0
 32 33  1  0  0  0
 33 34  2  0  0  0
 34 35  1  0  0  0
 35 36  2  0  0  0
 36 39  1  0  0  0
 39 40  1  0  0  0
 40 41  1  0  0  0
 41 42  1  0  0  0
 42 43  1  0  0  0
 43 44  1  0  0  0
 44 45  1  0  0  0
 45 46  1  0  0  0
 46 47  1  0  0  0
 47 48  1  0  0  0
 36 27  1  0  0  0
 48 43  1  0  0  0
 34 29  1  0  0  0
  6  1  1  0  0  0
 14 12  1  0  0  0
 25 19  1  0  0  0
  8 11  1  0  0  0
 17 18  1  0  0  0
M  END
> <minimizedAffinity>
13.04079

> <CNNscore>
0.5796396136

> <CNNaffinity>
7.0384559631

> <CNN_VS>
4.0797677040

> <CNNaffinity_variance>
1.1763703823

$$$$
[H]c1nc2c([H])c(OC([H])([H])C([H])([H])C([H])([H])N3C([H])([H])C([H])([H])OC([H])([H])C3([H])[H])c(OC([H])([H])[H])c([H])c2c(Oc2c([H])c([H])c(N([H])C(=O)C3(C(=O)N([H])c4c([H])c([H])c(F)c([H])c4[H])C([H])([H])C3([H])[H])c([H])c2F)c1[H]


 48 53  0  0  0  0  0  0  0  0999 V2000
   21.5051    9.2545   53.6175 C   0  0  0  0  0  0  0  0  0  0  0  0
   21.3696   10.2537   54.5689 C   0  0  0  0  0  0  0  0  0  0  0  0
   21.1621   11.5860   54.2041 C   0  0  0  0  0  0  0  0  0  0  0  0
   21.0787   11.9809   52.8908 C   0  0  0  0  0  0  0  0  0  0  0  0
   21.2140   10.9805   51.9470 C   0  0  0  0  0  0  0  0  0  0  0  0
   21.4238    9.6429   52.3000 C   0  0  0  0  0  0  0  0  0  0  0  0
   21.5740    8.6959   51.3284 F   0  0  0  0  0  0  0  0  0  0  0  0
   20.8823   13.3385   52.5007 N   0  0  0  0  0  0  0  0  0  0  0  0
   21.5580   13.9916   51.4475 C   0  0  0  0  0  0  0  0  0  0  0  0
   22.4435   13.4516   50.7573 O   0  0  0  0  0  0  0  0  0  0  0  0
   20.1729   13.9017   53.0345 H   0  0  0  0  0  0  0  0  0  0  0  0
   21.1525   15.4172   51.1356 C   0  0  0  0  0  0  0  0  0  0  0  0
   19.9308   15.9137   51.8926 C   0  0  0  0  0  0  0  0  0  0  0  0
   19.8064   15.4548   50.4512 C   0  0  0  0  0  0  0  0  0  0  0  0
   22.2016   16.3459   50.6932 C   0  0  0  0  0  0  0  0  0  0  0  0
   22.7139   17.1218   51.6013 O   0  0  0  0  0  0  0  0  0  0  0  0
   22.6978   16.4912   49.3904 N   0  0  0  0  0  0  0  0  0  0  0  0
   22.2580   15.9195   48.6056 H   0  0  0  0  0  0  0  0  0  0  0  0
   23.7479   17.3978   49.0245 C   0  0  0  0  0  0  0  0  0  0  0  0
   23.4447   18.6428   48.5838 C   0  0  0  0  0  0  0  0  0  0  0  0
   24.4468   19.5017   48.1830 C   0  0  0  0  0  0  0  0  0  0  0  0
   25.7703   19.0703   48.2379 C   0  0  0  0  0  0  0  0  0  0  0  0
   26.8079   19.8697   47.8626 F   0  0  0  0  0  0  0  0  0  0  0  0
   26.0953   17.7938   48.6890 C   0  0  0  0  0  0  0  0  0  0  0  0
   25.0636   16.9846   49.0738 C   0  0  0  0  0  0  0  0  0  0  0  0
   21.7157    7.9387   54.0401 O   0  0  0  0  0  0  0  0  0  0  0  0
   25.2380    9.3774   55.5543 C   0  0  0  0  0  0  0  0  0  0  0  0
   24.0640    8.8762   55.0346 C   0  0  0  0  0  0  0  0  0  0  0  0
   24.0663    7.6772   54.3079 C   0  0  0  0  0  0  0  0  0  0  0  0
   22.8547    7.1942   53.7958 C   0  0  0  0  0  0  0  0  0  0  0  0
   22.8517    6.0248   53.0896 C   0  0  0  0  0  0  0  0  0  0  0  0
   24.0601    5.3538   52.9020 C   0  0  0  0  0  0  0  0  0  0  0  0
   25.2088    5.8432   53.4072 N   0  0  0  0  0  0  0  0  0  0  0  0
   25.2331    6.9808   54.1003 C   0  0  0  0  0  0  0  0  0  0  0  0
   26.4118    7.4709   54.6129 C   0  0  0  0  0  0  0  0  0  0  0  0
   26.4073    8.6382   55.3194 C   0  0  0  0  0  0  0  0  0  0  0  0
   24.4552   11.6310   56.0580 C   0  0  0  0  0  0  0  0  0  0  0  0
   25.2939   10.5413   56.2742 O   0  0  0  0  0  0  0  0  0  0  0  0
   27.5963    9.0961   55.8070 O   0  0  0  0  0  0  0  0  0  0  0  0
   27.9657    9.0320   57.1699 C   0  0  0  0  0  0  0  0  0  0  0  0
   28.3833   10.3764   57.7044 C   0  0  0  0  0  0  0  0  0  0  0  0
   28.4177   10.3155   59.2005 C   0  0  0  0  0  0  0  0  0  0  0  0
   29.6607   10.8043   59.7692 N   0  0  0  0  0  0  0  0  0  0  0  0
   30.1016    9.7251   60.6831 C   0  0  0  0  0  0  0  0  0  0  0  0
   31.2252   10.1438   61.5693 C   0  0  0  0  0  0  0  0  0  0  0  0
   31.1194   11.4704   62.0256 O   0  0  0  0  0  0  0  0  0  0  0  0
   29.7806   11.8054   62.0207 C   0  0  0  0  0  0  0  0  0  0  0  0
   29.3241   11.9862   60.5715 C   0  0  0  0  0  0  0  0  0  0  0  0
 37 38  1  0  0  0
 38 27  1  0  0  0
 27 28  2  0  0  0
 28 29  1  0  0  0
 29 30  2  0  0  0
 30 26  1  0  0  0
 26  1  1  0  0  0
  1  2  2  0  0  0
  2  3  1  0  0  0
  3  4  2  0  0  0
  4  8  1  0  0  0
  8  9  1  0  0  0
  9 10  2  0  0  0
  9 12  1  0  0  0
 12 13  1  0  0  0
 13 14  1  0  0  0
 12 15  1  0  0  0
 15 16  2  0  0  0
 15 17  1  0  0  0
 17 19  1  0  0  0
 19 20  2  0  0  0
 20 21  1  0  0  0
 21 22  2  0  0  0
 22 23  1  0  0  0
 22 24  1  0  0  0
 24 25  2  0  0  0
  4  5  1  0  0  0
  5  6  2  0  0  0
  6  7  1  0  0  0
 30 31  1  0  0  0
 31 32  2  0  0  0
 32 33  1  0  0  0
 33 34  2  0  0  0
 34 35  1  0  0  0
 35 36  2  0  0  0
 36 39  1  0  0  0
 39 40  1  0  0  0
 40 41  1  0  0  0
 41 42  1  0  0  0
 42 43  1  0  0  0
 43 44  1  0  0  0
 44 45  1  0  0  0
 45 46  1  0  0  0
 46 47  1  0  0  0
 47 48  1  0  0  0
 36 27  1  0  0  0
 48 43  1  0  0  0
 34 29  1  0  0  0
  6  1  1  0  0  0
 14 12  1  0  0  0
 25 19  1  0  0  0
  8 11  1  0  0  0
 17 18  1  0  0  0
M  END
> <minimizedAffinity>
16.85283

> <CNNscore>
0.5471708775

> <CNNaffinity>
6.9018340111

> <CNN_VS>
3.7764825821

> <CNNaffinity_variance>
0.3507979512

$$$$
[H]c1nc2c([H])c(OC([H])([H])C([H])([H])C([H])([H])N3C([H])([H])C([H])([H])OC([H])([H])C3([H])[H])c(OC([H])([H])[H])c([H])c2c(Oc2c([H])c([H])c(N([H])C(=O)C3(C(=O)N([H])c4c([H])c([H])c(F)c([H])c4[H])C([H])([H])C3([H])[H])c([H])c2F)c1[H]


 48 53  0  0  0  0  0  0  0  0999 V2000
   21.3004   10.5941   51.9192 C   0  0  0  0  0  0  0  0  0  0  0  0
   22.0196   11.3824   52.8042 C   0  0  0  0  0  0  0  0  0  0  0  0
   22.3912   12.6897   52.4816 C   0  0  0  0  0  0  0  0  0  0  0  0
   22.0665   13.2672   51.2780 C   0  0  0  0  0  0  0  0  0  0  0  0
   21.3493   12.4768   50.4000 C   0  0  0  0  0  0  0  0  0  0  0  0
   20.9727   11.1656   50.7111 C   0  0  0  0  0  0  0  0  0  0  0  0
   20.2842   10.4185   49.7994 F   0  0  0  0  0  0  0  0  0  0  0  0
   22.4509   14.5948   50.9266 N   0  0  0  0  0  0  0  0  0  0  0  0
   21.5643   15.6718   50.7110 C   0  0  0  0  0  0  0  0  0  0  0  0
   20.3243   15.5656   50.7685 O   0  0  0  0  0  0  0  0  0  0  0  0
   23.4781   14.7943   50.8242 H   0  0  0  0  0  0  0  0  0  0  0  0
   22.1716   17.0290   50.4223 C   0  0  0  0  0  0  0  0  0  0  0  0
   23.3029   17.4336   51.3543 C   0  0  0  0  0  0  0  0  0  0  0  0
   21.9049   17.9888   51.5579 C   0  0  0  0  0  0  0  0  0  0  0  0
   22.1100   17.5265   49.0412 C   0  0  0  0  0  0  0  0  0  0  0  0
   22.9318   18.4838   48.7294 O   0  0  0  0  0  0  0  0  0  0  0  0
   21.2472   17.0849   48.0287 N   0  0  0  0  0  0  0  0  0  0  0  0
   20.5143   16.3471   48.2627 H   0  0  0  0  0  0  0  0  0  0  0  0
   21.2549   17.5906   46.6860 C   0  0  0  0  0  0  0  0  0  0  0  0
   20.7239   18.8083   46.4181 C   0  0  0  0  0  0  0  0  0  0  0  0
   20.6827   19.2789   45.1222 C   0  0  0  0  0  0  0  0  0  0  0  0
   21.1934   18.4855   44.0973 C   0  0  0  0  0  0  0  0  0  0  0  0
   21.1890   18.8923   42.7969 F   0  0  0  0  0  0  0  0  0  0  0  0
   21.7419   17.2328   44.3592 C   0  0  0  0  0  0  0  0  0  0  0  0
   21.7573   16.8161   45.6605 C   0  0  0  0  0  0  0  0  0  0  0  0
   20.9595    9.2911   52.2934 O   0  0  0  0  0  0  0  0  0  0  0  0
   24.8790    8.5574   53.2250 C   0  0  0  0  0  0  0  0  0  0  0  0
   23.5535    8.7944   52.9310 C   0  0  0  0  0  0  0  0  0  0  0  0
   22.5531    8.4646   53.8563 C   0  0  0  0  0  0  0  0  0  0  0  0
   21.2156    8.7216   53.5268 C   0  0  0  0  0  0  0  0  0  0  0  0
   20.2377    8.4046   54.4264 C   0  0  0  0  0  0  0  0  0  0  0  0
   20.6085    7.8325   55.6434 C   0  0  0  0  0  0  0  0  0  0  0  0
   21.9032    7.5980   55.9315 N   0  0  0  0  0  0  0  0  0  0  0  0
   22.8721    7.9015   55.0689 C   0  0  0  0  0  0  0  0  0  0  0  0
   24.1913    7.6588   55.3741 C   0  0  0  0  0  0  0  0  0  0  0  0
   25.1633    7.9802   54.4719 C   0  0  0  0  0  0  0  0  0  0  0  0
   27.1555    8.2688   52.4008 C   0  0  0  0  0  0  0  0  0  0  0  0
   25.8971    8.8622   52.3608 O   0  0  0  0  0  0  0  0  0  0  0  0
   26.4597    7.7192   54.8072 O   0  0  0  0  0  0  0  0  0  0  0  0
   27.4029    8.7174   55.1417 C   0  0  0  0  0  0  0  0  0  0  0  0
   27.0997    9.3565   56.4711 C   0  0  0  0  0  0  0  0  0  0  0  0
   28.3624    9.4328   57.2731 C   0  0  0  0  0  0  0  0  0  0  0  0
   28.1421    9.7893   58.6629 N   0  0  0  0  0  0  0  0  0  0  0  0
   28.8720   11.0661   58.8397 C   0  0  0  0  0  0  0  0  0  0  0  0
   28.9929   11.4674   60.2706 C   0  0  0  0  0  0  0  0  0  0  0  0
   29.2185   10.3864   61.1423 O   0  0  0  0  0  0  0  0  0  0  0  0
   29.8322    9.3874   60.4144 C   0  0  0  0  0  0  0  0  0  0  0  0
   28.8010    8.7593   59.4746 C   0  0  0  0  0  0  0  0  0  0  0  0
 37 38  1  0  0  0
 38 27  1  0  0  0
 27 28  2  0  0  0
 28 29  1  0  0  0
 29 30  2  0  0  0
 30 26  1  0  0  0
 26  1  1  0  0  0
  1  2  2  0  0  0
  2  3  1  0  0  0
  3  4  2  0  0  0
  4  8  1  0  0  0
  8  9  1  0  0  0
  9 10  2  0  0  0
  9 12  1  0  0  0
 12 13  1  0  0  0
 13 14  1  0  0  0
 12 15  1  0  0  0
 15 16  2  0  0  0
 15 17  1  0  0  0
 17 19  1  0  0  0
 19 20  2  0  0  0
 20 21  1  0  0  0
 21 22  2  0  0  0
 22 23  1  0  0  0
 22 24  1  0  0  0
 24 25  2  0  0  0
  4  5  1  0  0  0
  5  6  2  0  0  0
  6  7  1  0  0  0
 30 31  1  0  0  0
 31 32  2  0  0  0
 32 33  1  0  0  0
 33 34  2  0  0  0
 34 35  1  0  0  0
 35 36  2  0  0  0
 36 39  1  0  0  0
 39 40  1  0  0  0
 40 41  1  0  0  0
 41 42  1  0  0  0
 42 43  1  0  0  0
 43 44  1  0  0  0
 44 45  1  0  0  0
 45 46  1  0  0  0
 46 47  1  0  0  0
 47 48  1  0  0  0
 36 27  1  0  0  0
 48 43  1  0  0  0
 34 29  1  0  0  0
  6  1  1  0  0  0
 14 12  1  0  0  0
 25 19  1  0  0  0
  8 11  1  0  0  0
 17 18  1  0  0  0
M  END
> <minimizedAffinity>
19.77784

> <CNNscore>
0.5464499593

> <CNNaffinity>
6.7133164406

> <CNN_VS>
3.6684916019

> <CNNaffinity_variance>
0.2535547614

$$$$
[H]c1nc2c([H])c(OC([H])([H])C([H])([H])C([H])([H])N3C([H])([H])C([H])([H])OC([H])([H])C3([H])[H])c(OC([H])([H])[H])c([H])c2c(Oc2c([H])c([H])c(N([H])C(=O)C3(C(=O)N([H])c4c([H])c([H])c(F)c([H])c4[H])C([H])([H])C3([H])[H])c([H])c2F)c1[H]


 48 53  0  0  0  0  0  0  0  0999 V2000
   27.5395    9.3087   56.5606 C   0  0  0  0  0  0  0  0  0  0  0  0
   26.2235    9.5940   56.8902 C   0  0  0  0  0  0  0  0  0  0  0  0
   25.1667    9.2412   56.0476 C   0  0  0  0  0  0  0  0  0  0  0  0
   25.3681    8.5939   54.8525 C   0  0  0  0  0  0  0  0  0  0  0  0
   26.6819    8.3119   54.5295 C   0  0  0  0  0  0  0  0  0  0  0  0
   27.7488    8.6616   55.3644 C   0  0  0  0  0  0  0  0  0  0  0  0
   29.0306    8.3806   54.9883 F   0  0  0  0  0  0  0  0  0  0  0  0
   24.3023    8.2401   53.9735 N   0  0  0  0  0  0  0  0  0  0  0  0
   22.9278    8.4080   54.2475 C   0  0  0  0  0  0  0  0  0  0  0  0
   22.4895    8.8569   55.3239 O   0  0  0  0  0  0  0  0  0  0  0  0
   24.5560    7.8252   53.0414 H   0  0  0  0  0  0  0  0  0  0  0  0
   21.9478    8.0432   53.1518 C   0  0  0  0  0  0  0  0  0  0  0  0
   22.4244    8.3499   51.7408 C   0  0  0  0  0  0  0  0  0  0  0  0
   21.4517    9.2807   52.4416 C   0  0  0  0  0  0  0  0  0  0  0  0
   21.0049    6.9473   53.4140 C   0  0  0  0  0  0  0  0  0  0  0  0
   21.5150    5.8263   53.8289 O   0  0  0  0  0  0  0  0  0  0  0  0
   19.6133    6.9814   53.2502 N   0  0  0  0  0  0  0  0  0  0  0  0
   19.1638    7.8611   52.8497 H   0  0  0  0  0  0  0  0  0  0  0  0
   18.7391    5.8847   53.5525 C   0  0  0  0  0  0  0  0  0  0  0  0
   19.2180    4.6169   53.5515 C   0  0  0  0  0  0  0  0  0  0  0  0
   18.3723    3.5541   53.7919 C   0  0  0  0  0  0  0  0  0  0  0  0
   17.0234    3.8038   54.0346 C   0  0  0  0  0  0  0  0  0  0  0  0
   16.1356    2.8009   54.2847 F   0  0  0  0  0  0  0  0  0  0  0  0
   16.5189    5.1015   54.0388 C   0  0  0  0  0  0  0  0  0  0  0  0
   17.4006    6.1165   53.7950 C   0  0  0  0  0  0  0  0  0  0  0  0
   28.5574    9.6893   57.4399 O   0  0  0  0  0  0  0  0  0  0  0  0
   30.7169    9.4740   60.9126 C   0  0  0  0  0  0  0  0  0  0  0  0
   29.9822    9.5669   59.7502 C   0  0  0  0  0  0  0  0  0  0  0  0
   29.2583   10.7324   59.4613 C   0  0  0  0  0  0  0  0  0  0  0  0
   28.5243   10.7948   58.2693 C   0  0  0  0  0  0  0  0  0  0  0  0
   27.8198   11.9295   57.9823 C   0  0  0  0  0  0  0  0  0  0  0  0
   27.8560   12.9869   58.8913 C   0  0  0  0  0  0  0  0  0  0  0  0
   28.5715   12.8971   60.0288 N   0  0  0  0  0  0  0  0  0  0  0  0
   29.2669   11.8003   60.3266 C   0  0  0  0  0  0  0  0  0  0  0  0
   29.9953   11.7198   61.4907 C   0  0  0  0  0  0  0  0  0  0  0  0
   30.6987   10.5844   61.7701 C   0  0  0  0  0  0  0  0  0  0  0  0
   31.1418    7.5240   62.3134 C   0  0  0  0  0  0  0  0  0  0  0  0
   31.4447    8.3618   61.2439 O   0  0  0  0  0  0  0  0  0  0  0  0
   31.4043   10.5391   62.9368 O   0  0  0  0  0  0  0  0  0  0  0  0
   32.2590   11.5735   63.3809 C   0  0  0  0  0  0  0  0  0  0  0  0
   32.7642   12.4161   62.2396 C   0  0  0  0  0  0  0  0  0  0  0  0
   32.4212   13.8498   62.5046 C   0  0  0  0  0  0  0  0  0  0  0  0
   32.4557   14.6804   61.3146 N   0  0  0  0  0  0  0  0  0  0  0  0
   33.0212   15.9692   61.7767 C   0  0  0  0  0  0  0  0  0  0  0  0
   32.8933   17.0521   60.7598 C   0  0  0  0  0  0  0  0  0  0  0  0
   31.6808   17.0161   60.0470 O   0  0  0  0  0  0  0  0  0  0  0  0
   30.7453   16.3965   60.8504 C   0  0  0  0  0  0  0  0  0  0  0  0
   31.0621   14.9008   60.9106 C   0  0  0  0  0  0  0  0  0  0  0  0
 37 38  1  0  0  0
 38 27  1  0  0  0
 27 28  2  0  0  0
 28 29  1  0  0  0
 29 30  2  0  0  0
 30 26  1  0  0  0
 26  1  1  0  0  0
  1  2  2  0  0  0
  2  3  1  0  0  0
  3  4  2  0  0  0
  4  8  1  0  0  0
  8  9  1  0  0  0
  9 10  2  0  0  0
  9 12  1  0  0  0
 12 13  1  0  0  0
 13 14  1  0  0  0
 12 15  1  0  0  0
 15 16  2  0  0  0
 15 17  1  0  0  0
 17 19  1  0  0  0
 19 20  2  0  0  0
 20 21  1  0  0  0
 21 22  2  0  0  0
 22 23  1  0  0  0
 22 24  1  0  0  0
 24 25  2  0  0  0
  4  5  1  0  0  0
  5  6  2  0  0  0
  6  7  1  0  0  0
 30 31  1  0  0  0
 31 32  2  0  0  0
 32 33  1  0  0  0
 33 34  2  0  0  0
 34 35  1  0  0  0
 35 36  2  0  0  0
 36 39  1  0  0  0
 39 40  1  0  0  0
 40 41  1  0  0  0
 41 42  1  0  0  0
 42 43  1  0  0  0
 43 44  1  0  0  0
 44 45  1  0  0  0
 45 46  1  0  0  0
 46 47  1  0  0  0
 47 48  1  0  0  0
 36 27  1  0  0  0
 48 43  1  0  0  0
 34 29  1  0  0  0
  6  1  1  0  0  0
 14 12  1  0  0  0
 25 19  1  0  0  0
  8 11  1  0  0  0
 17 18  1  0  0  0
M  END
> <minimizedAffinity>
11.32094

> <CNNscore>
0.5252159834

> <CNNaffinity>
6.9764771461

> <CNN_VS>
3.6641573906

> <CNNaffinity_variance>
0.1234403849

$$$$
[H]c1nc2c([H])c(OC([H])([H])C([H])([H])C([H])([H])N3C([H])([H])C([H])([H])OC([H])([H])C3([H])[H])c(OC([H])([H])[H])c([H])c2c(Oc2c([H])c([H])c(N([H])C(=O)C3(C(=O)N([H])c4c([H])c([H])c(F)c([H])c4[H])C([H])([H])C3([H])[H])c([H])c2F)c1[H]


 48 53  0  0  0  0  0  0  0  0999 V2000
   27.3860    9.4461   57.2840 C   0  0  0  0  0  0  0  0  0  0  0  0
   27.8442   10.7379   57.0760 C   0  0  0  0  0  0  0  0  0  0  0  0
   28.7654   11.3340   57.9404 C   0  0  0  0  0  0  0  0  0  0  0  0
   29.2690   10.6790   59.0383 C   0  0  0  0  0  0  0  0  0  0  0  0
   28.8089    9.3916   59.2402 C   0  0  0  0  0  0  0  0  0  0  0  0
   27.8852    8.7845   58.3823 C   0  0  0  0  0  0  0  0  0  0  0  0
   27.4449    7.5182   58.6390 F   0  0  0  0  0  0  0  0  0  0  0  0
   30.1982   11.2779   59.9392 N   0  0  0  0  0  0  0  0  0  0  0  0
   29.9413   11.5849   61.2928 C   0  0  0  0  0  0  0  0  0  0  0  0
   28.8406   11.3966   61.8453 O   0  0  0  0  0  0  0  0  0  0  0  0
   31.1564   11.5060   59.5715 H   0  0  0  0  0  0  0  0  0  0  0  0
   31.0855   12.1476   62.1103 C   0  0  0  0  0  0  0  0  0  0  0  0
   32.0315   11.1058   62.6864 C   0  0  0  0  0  0  0  0  0  0  0  0
   30.9624   11.7377   63.5590 C   0  0  0  0  0  0  0  0  0  0  0  0
   31.5516   13.5041   61.7921 C   0  0  0  0  0  0  0  0  0  0  0  0
   32.7900   13.7766   62.0771 O   0  0  0  0  0  0  0  0  0  0  0  0
   30.7953   14.5392   61.2254 N   0  0  0  0  0  0  0  0  0  0  0  0
   29.7588   14.3758   61.0378 H   0  0  0  0  0  0  0  0  0  0  0  0
   31.3163   15.8381   60.9091 C   0  0  0  0  0  0  0  0  0  0  0  0
   30.7401   16.5792   59.9319 C   0  0  0  0  0  0  0  0  0  0  0  0
   31.2666   17.8071   59.5886 C   0  0  0  0  0  0  0  0  0  0  0  0
   32.3957   18.2710   60.2597 C   0  0  0  0  0  0  0  0  0  0  0  0
   32.9626   19.4767   59.9742 F   0  0  0  0  0  0  0  0  0  0  0  0
   32.9970   17.5195   61.2659 C   0  0  0  0  0  0  0  0  0  0  0  0
   32.4342   16.3109   61.5655 C   0  0  0  0  0  0  0  0  0  0  0  0
   26.4605    8.9017   56.3888 O   0  0  0  0  0  0  0  0  0  0  0  0
   24.5287    7.2778   53.1639 C   0  0  0  0  0  0  0  0  0  0  0  0
   25.1633    7.8410   54.2500 C   0  0  0  0  0  0  0  0  0  0  0  0
   24.6113    8.9590   54.8912 C   0  0  0  0  0  0  0  0  0  0  0  0
   25.2808    9.5050   55.9945 C   0  0  0  0  0  0  0  0  0  0  0  0
   24.7452   10.5926   56.6242 C   0  0  0  0  0  0  0  0  0  0  0  0
   23.5483   11.1224   56.1420 C   0  0  0  0  0  0  0  0  0  0  0  0
   22.9279   10.5747   55.0793 N   0  0  0  0  0  0  0  0  0  0  0  0
   23.4324    9.5130   54.4523 C   0  0  0  0  0  0  0  0  0  0  0  0
   22.7898    8.9609   53.3685 C   0  0  0  0  0  0  0  0  0  0  0  0
   23.3289    7.8731   52.7457 C   0  0  0  0  0  0  0  0  0  0  0  0
   24.4797    4.9055   52.6023 C   0  0  0  0  0  0  0  0  0  0  0  0
   25.0205    6.1842   52.5016 O   0  0  0  0  0  0  0  0  0  0  0  0
   22.6663    7.3570   51.6706 O   0  0  0  0  0  0  0  0  0  0  0  0
   21.4099    7.8237   51.2217 C   0  0  0  0  0  0  0  0  0  0  0  0
   20.2720    7.2104   51.9940 C   0  0  0  0  0  0  0  0  0  0  0  0
   20.0672    7.9878   53.2577 C   0  0  0  0  0  0  0  0  0  0  0  0
   20.2901    7.2043   54.4593 N   0  0  0  0  0  0  0  0  0  0  0  0
   21.1266    8.0726   55.3198 C   0  0  0  0  0  0  0  0  0  0  0  0
   21.6899    7.3481   56.4950 C   0  0  0  0  0  0  0  0  0  0  0  0
   22.0859    6.0291   56.2076 O   0  0  0  0  0  0  0  0  0  0  0  0
   22.3878    5.9702   54.8623 C   0  0  0  0  0  0  0  0  0  0  0  0
   21.0851    6.0362   54.0625 C   0  0  0  0  0  0  0  0  0  0  0  0
 37 38  1  0  0  0
 38 27  1  0  0  0
 27 28  2  0  0  0
 28 29  1  0  0  0
 29 30  2  0  0  0
 30 26  1  0  0  0
 26  1  1  0  0  0
  1  2  2  0  0  0
  2  3  1  0  0  0
  3  4  2  0  0  0
  4  8  1  0  0  0
  8  9  1  0  0  0
  9 10  2  0  0  0
  9 12  1  0  0  0
 12 13  1  0  0  0
 13 14  1  0  0  0
 12 15  1  0  0  0
 15 16  2  0  0  0
 15 17  1  0  0  0
 17 19  1  0  0  0
 19 20  2  0  0  0
 20 21  1  0  0  0
 21 22  2  0  0  0
 22 23  1  0  0  0
 22 24  1  0  0  0
 24 25  2  0  0  0
  4  5  1  0  0  0
  5  6  2  0  0  0
  6  7  1  0  0  0
 30 31  1  0  0  0
 31 32  2  0  0  0
 32 33  1  0  0  0
 33 34  2  0  0  0
 34 35  1  0  0  0
 35 36  2  0  0  0
 36 39  1  0  0  0
 39 40  1  0  0  0
 40 41  1  0  0  0
 41 42  1  0  0  0
 42 43  1  0  0  0
 43 44  1  0  0  0
 44 45  1  0  0  0
 45 46  1  0  0  0
 46 47  1  0  0  0
 47 48  1  0  0  0
 36 27  1  0  0  0
 48 43  1  0  0  0
 34 29  1  0  0  0
  6  1  1  0  0  0
 14 12  1  0  0  0
 25 19  1  0  0  0
  8 11  1  0  0  0
 17 18  1  0  0  0
M  END
> <minimizedAffinity>
18.26643

> <CNNscore>
0.5244731903

> <CNNaffinity>
6.7382659912

> <CNN_VS>
3.5340399742

> <CNNaffinity_variance>
0.2577725053

$$$$
[H]c1nc2c([H])c(OC([H])([H])C([H])([H])C([H])([H])N3C([H])([H])C([H])([H])OC([H])([H])C3([H])[H])c(OC([H])([H])[H])c([H])c2c(Oc2c([H])c([H])c(N([H])C(=O)C3(C(=O)N([H])c4c([H])c([H])c(F)c([H])c4[H])C([H])([H])C3([H])[H])c([H])c2F)c1[H]


 48 53  0  0  0  0  0  0  0  0999 V2000
   27.4601    9.0014   56.2451 C   0  0  0  0  0  0  0  0  0  0  0  0
   26.2673    9.5171   56.7279 C   0  0  0  0  0  0  0  0  0  0  0  0
   25.0951    9.4789   55.9693 C   0  0  0  0  0  0  0  0  0  0  0  0
   25.0554    8.9302   54.7102 C   0  0  0  0  0  0  0  0  0  0  0  0
   26.2474    8.4174   54.2345 C   0  0  0  0  0  0  0  0  0  0  0  0
   27.4282    8.4513   54.9843 C   0  0  0  0  0  0  0  0  0  0  0  0
   28.5849    7.9516   54.4592 F   0  0  0  0  0  0  0  0  0  0  0  0
   23.8712    8.8966   53.9164 N   0  0  0  0  0  0  0  0  0  0  0  0
   22.8315    7.9501   54.0403 C   0  0  0  0  0  0  0  0  0  0  0  0
   22.8560    7.0011   54.8472 O   0  0  0  0  0  0  0  0  0  0  0  0
   23.7557    9.6391   53.1810 H   0  0  0  0  0  0  0  0  0  0  0  0
   21.6153    8.1290   53.1554 C   0  0  0  0  0  0  0  0  0  0  0  0
   20.4648    7.1799   53.4517 C   0  0  0  0  0  0  0  0  0  0  0  0
   21.4000    6.9122   52.2866 C   0  0  0  0  0  0  0  0  0  0  0  0
   21.3736    9.4616   52.5857 C   0  0  0  0  0  0  0  0  0  0  0  0
   20.8205    9.5012   51.4103 O   0  0  0  0  0  0  0  0  0  0  0  0
   21.6902   10.6944   53.1726 N   0  0  0  0  0  0  0  0  0  0  0  0
   22.2039   10.7028   54.1066 H   0  0  0  0  0  0  0  0  0  0  0  0
   21.4012   11.9678   52.5782 C   0  0  0  0  0  0  0  0  0  0  0  0
   20.6499   12.8738   53.2499 C   0  0  0  0  0  0  0  0  0  0  0  0
   20.3264   14.0799   52.6640 C   0  0  0  0  0  0  0  0  0  0  0  0
   20.7822   14.3505   51.3757 C   0  0  0  0  0  0  0  0  0  0  0  0
   20.5039   15.5239   50.7414 F   0  0  0  0  0  0  0  0  0  0  0  0
   21.5552   13.4285   50.6750 C   0  0  0  0  0  0  0  0  0  0  0  0
   21.8460   12.2502   51.3028 C   0  0  0  0  0  0  0  0  0  0  0  0
   28.6035    9.0709   57.0464 O   0  0  0  0  0  0  0  0  0  0  0  0
   29.2419    6.9708   60.5034 C   0  0  0  0  0  0  0  0  0  0  0  0
   29.0258    7.6969   59.3521 C   0  0  0  0  0  0  0  0  0  0  0  0
   28.9346    9.0950   59.4033 C   0  0  0  0  0  0  0  0  0  0  0  0
   28.7173    9.8028   58.2136 C   0  0  0  0  0  0  0  0  0  0  0  0
   28.6307   11.1654   58.2584 C   0  0  0  0  0  0  0  0  0  0  0  0
   28.7600   11.8036   59.4920 C   0  0  0  0  0  0  0  0  0  0  0  0
   28.9689   11.0955   60.6185 N   0  0  0  0  0  0  0  0  0  0  0  0
   29.0584    9.7664   60.5963 C   0  0  0  0  0  0  0  0  0  0  0  0
   29.2732    9.0533   61.7528 C   0  0  0  0  0  0  0  0  0  0  0  0
   29.3612    7.6926   61.7007 C   0  0  0  0  0  0  0  0  0  0  0  0
   28.2487    4.7440   60.5125 C   0  0  0  0  0  0  0  0  0  0  0  0
   29.3425    5.6047   60.5117 O   0  0  0  0  0  0  0  0  0  0  0  0
   29.5686    7.0191   62.8689 O   0  0  0  0  0  0  0  0  0  0  0  0
   28.6166    6.1585   63.4614 C   0  0  0  0  0  0  0  0  0  0  0  0
   29.1907    5.4027   64.6305 C   0  0  0  0  0  0  0  0  0  0  0  0
   28.2875    4.2535   64.9574 C   0  0  0  0  0  0  0  0  0  0  0  0
   28.0261    3.3851   63.8239 N   0  0  0  0  0  0  0  0  0  0  0  0
   26.5495    3.2800   63.7685 C   0  0  0  0  0  0  0  0  0  0  0  0
   26.0823    2.2163   62.8339 C   0  0  0  0  0  0  0  0  0  0  0  0
   26.8828    1.0595   62.8505 O   0  0  0  0  0  0  0  0  0  0  0  0
   27.4889    0.9919   64.0885 C   0  0  0  0  0  0  0  0  0  0  0  0
   28.5749    2.0671   64.1638 C   0  0  0  0  0  0  0  0  0  0  0  0
 37 38  1  0  0  0
 38 27  1  0  0  0
 27 28  2  0  0  0
 28 29  1  0  0  0
 29 30  2  0  0  0
 30 26  1  0  0  0
 26  1  1  0  0  0
  1  2  2  0  0  0
  2  3  1  0  0  0
  3  4  2  0  0  0
  4  8  1  0  0  0
  8  9  1  0  0  0
  9 10  2  0  0  0
  9 12  1  0  0  0
 12 13  1  0  0  0
 13 14  1  0  0  0
 12 15  1  0  0  0
 15 16  2  0  0  0
 15 17  1  0  0  0
 17 19  1  0  0  0
 19 20  2  0  0  0
 20 21  1  0  0  0
 21 22  2  0  0  0
 22 23  1  0  0  0
 22 24  1  0  0  0
 24 25  2  0  0  0
  4  5  1  0  0  0
  5  6  2  0  0  0
  6  7  1  0  0  0
 30 31  1  0  0  0
 31 32  2  0  0  0
 32 33  1  0  0  0
 33 34  2  0  0  0
 34 35  1  0  0  0
 35 36  2  0  0  0
 36 39  1  0  0  0
 39 40  1  0  0  0
 40 41  1  0  0  0
 41 42  1  0  0  0
 42 43  1  0  0  0
 43 44  1  0  0  0
 44 45  1  0  0  0
 45 46  1  0  0  0
 46 47  1  0  0  0
 47 48  1  0  0  0
 36 27  1  0  0  0
 48 43  1  0  0  0
 34 29  1  0  0  0
  6  1  1  0  0  0
 14 12  1  0  0  0
 25 19  1  0  0  0
  8 11  1  0  0  0
 17 18  1  0  0  0
M  END
> <minimizedAffinity>
11.80425

> <CNNscore>
0.5100772977

> <CNNaffinity>
6.8599944115

> <CNN_VS>
3.4991273880

> <CNNaffinity_variance>
0.3470793962

$$$$
[H]C1=C([H])C([H])(F)C([H])([H])C([H])=C1N([H])C(=O)C1(C(=O)N([H])c2c([H])c([H])c(Oc3c([H])c([H])nc4c([H])c(OC([H])([H])C([H])([H])C([H])([H])N5C([H])([H])C([H])([H])C([H])([H])C5([H])[H])c(OC([H])([H])[H])c([H])c34)c(F)c2[H])C([H])([H])C1([H])[H]


 47 52  0  0  0  0  0  0  0  0999 V2000
   26.4637    8.9325   55.0823 C   0  0  0  0  0  0  0  0  0  0  0  0
   25.8840    9.4788   56.2191 C   0  0  0  0  0  0  0  0  0  0  0  0
   26.6454    9.7924   57.3149 C   0  0  0  0  0  0  0  0  0  0  0  0
   28.0340    9.5879   57.3641 C   0  0  0  0  0  0  0  0  0  0  0  0
   28.6033    9.0493   56.2439 C   0  0  0  0  0  0  0  0  0  0  0  0
   27.8184    8.7289   55.1199 C   0  0  0  0  0  0  0  0  0  0  0  0
   28.4694    8.2134   54.0463 F   0  0  0  0  0  0  0  0  0  0  0  0
   28.7417    9.9217   58.5584 N   0  0  0  0  0  0  0  0  0  0  0  0
   28.7739   11.1486   59.2093 C   0  0  0  0  0  0  0  0  0  0  0  0
   28.1032   12.1029   58.6739 O   0  0  0  0  0  0  0  0  0  0  0  0
   29.3431    9.1015   58.9122 H   0  0  0  0  0  0  0  0  0  0  0  0
   29.5016   11.4646   60.4316 C   0  0  0  0  0  0  0  0  0  0  0  0
   30.7563   10.6391   60.7029 C   0  0  0  0  0  0  0  0  0  0  0  0
   29.5141   10.2894   61.4244 C   0  0  0  0  0  0  0  0  0  0  0  0
   29.4843   12.8169   61.0460 C   0  0  0  0  0  0  0  0  0  0  0  0
   29.1465   12.7865   62.2951 O   0  0  0  0  0  0  0  0  0  0  0  0
   29.7969   13.9840   60.3867 N   0  0  0  0  0  0  0  0  0  0  0  0
   30.1598   13.8812   59.3893 H   0  0  0  0  0  0  0  0  0  0  0  0
   29.7928   15.3431   60.8579 C   0  0  0  0  0  0  0  0  0  0  0  0
   30.8823   16.0234   61.1038 C   0  0  0  0  0  0  0  0  0  0  0  0
   30.8862   17.4173   61.5868 C   0  0  0  0  0  0  0  0  0  0  0  0
   29.5769   18.0520   61.8121 C   0  0  0  0  0  0  0  0  0  0  0  0
   29.5062   18.4307   63.1666 F   0  0  0  0  0  0  0  0  0  0  0  0
   28.4155   17.2316   61.5157 C   0  0  0  0  0  0  0  0  0  0  0  0
   28.4976   16.0108   61.0857 C   0  0  0  0  0  0  0  0  0  0  0  0
   25.7188    8.6124   53.9696 O   0  0  0  0  0  0  0  0  0  0  0  0
   21.6420    8.7230   53.6155 C   0  0  0  0  0  0  0  0  0  0  0  0
   23.0087    8.6541   53.7297 C   0  0  0  0  0  0  0  0  0  0  0  0
   23.7055    7.4838   53.5607 C   0  0  0  0  0  0  0  0  0  0  0  0
   25.0947    7.4411   53.6791 C   0  0  0  0  0  0  0  0  0  0  0  0
   25.6753    6.2118   53.4853 C   0  0  0  0  0  0  0  0  0  0  0  0
   24.9351    5.0940   53.1927 C   0  0  0  0  0  0  0  0  0  0  0  0
   23.6188    5.1876   53.0909 N   0  0  0  0  0  0  0  0  0  0  0  0
   22.9586    6.3629   53.2669 C   0  0  0  0  0  0  0  0  0  0  0  0
   21.5852    6.3991   53.1460 C   0  0  0  0  0  0  0  0  0  0  0  0
   20.9347    7.5918   53.3236 C   0  0  0  0  0  0  0  0  0  0  0  0
   21.3452   10.8794   54.7607 C   0  0  0  0  0  0  0  0  0  0  0  0
   20.9726    9.9330   53.7945 O   0  0  0  0  0  0  0  0  0  0  0  0
   19.5529    7.5861   53.1933 O   0  0  0  0  0  0  0  0  0  0  0  0
   18.7374    6.4998   53.5013 C   0  0  0  0  0  0  0  0  0  0  0  0
   19.5561    5.2364   53.4373 C   0  0  0  0  0  0  0  0  0  0  0  0
   18.8476    4.0756   54.0746 C   0  0  0  0  0  0  0  0  0  0  0  0
   17.4958    3.9887   53.6224 N   0  0  0  0  0  0  0  0  0  0  0  0
   17.1910    2.8571   52.8086 C   0  0  0  0  0  0  0  0  0  0  0  0
   15.7646    2.4252   53.1615 C   0  0  0  0  0  0  0  0  0  0  0  0
   15.2443    3.6669   53.8614 C   0  0  0  0  0  0  0  0  0  0  0  0
   16.4967    4.0933   54.6412 C   0  0  0  0  0  0  0  0  0  0  0  0
 37 38  1  0  0  0
 38 27  1  0  0  0
 27 28  2  0  0  0
 28 29  1  0  0  0
 29 30  2  0  0  0
 30 26  1  0  0  0
 26  1  1  0  0  0
  1  2  2  0  0  0
  2  3  1  0  0  0
  3  4  2  0  0  0
  4  8  1  0  0  0
  8  9  1  0  0  0
  9 10  2  0  0  0
  9 12  1  0  0  0
 12 13  1  0  0  0
 13 14  1  0  0  0
 12 15  1  0  0  0
 15 16  2  0  0  0
 15 17  1  0  0  0
 17 19  1  0  0  0
 19 20  2  0  0  0
 20 21  1  0  0  0
 21 22  1  0  0  0
 22 23  1  0  0  0
 22 24  1  0  0  0
 24 25  2  0  0  0
  4  5  1  0  0  0
  5  6  2  0  0  0
  6  7  1  0  0  0
 30 31  1  0  0  0
 31 32  2  0  0  0
 32 33  1  0  0  0
 33 34  2  0  0  0
 34 35  1  0  0  0
 35 36  2  0  0  0
 36 39  1  0  0  0
 39 40  1  0  0  0
 40 41  1  0  0  0
 41 42  1  0  0  0
 42 43  1  0  0  0
 43 44  1  0  0  0
 44 45  1  0  0  0
 45 46  1  0  0  0
 46 47  1  0  0  0
 36 27  1  0  0  0
 47 43  1  0  0  0
 34 29  1  0  0  0
  6  1  1  0  0  0
 14 12  1  0  0  0
 25 19  1  0  0  0
  8 11  1  0  0  0
 17 18  1  0  0  0
M  END
> <minimizedAffinity>
14.74264

> <CNNscore>
0.6298632026

> <CNNaffinity>
6.9396767616

> <CNN_VS>
4.3710470200

> <CNNaffinity_variance>
0.1709400564

$$$$
[H]C1=C([H])C([H])(F)C([H])([H])C([H])=C1N([H])C(=O)C1(C(=O)N([H])c2c([H])c([H])c(Oc3c([H])c([H])nc4c([H])c(OC([H])([H])C([H])([H])C([H])([H])N5C([H])([H])C([H])([H])C([H])([H])C5([H])[H])c(OC([H])([H])[H])c([H])c34)c(F)c2[H])C([H])([H])C1([H])[H]


 47 52  0  0  0  0  0  0  0  0999 V2000
   26.5990    9.0293   55.2964 C   0  0  0  0  0  0  0  0  0  0  0  0
   25.9845    9.4253   56.4765 C   0  0  0  0  0  0  0  0  0  0  0  0
   26.7286    9.8087   57.5619 C   0  0  0  0  0  0  0  0  0  0  0  0
   28.1329    9.8277   57.5573 C   0  0  0  0  0  0  0  0  0  0  0  0
   28.7364    9.4369   56.3945 C   0  0  0  0  0  0  0  0  0  0  0  0
   27.9692    9.0442   55.2813 C   0  0  0  0  0  0  0  0  0  0  0  0
   28.6515    8.6872   54.1636 F   0  0  0  0  0  0  0  0  0  0  0  0
   28.8246   10.2182   58.7437 N   0  0  0  0  0  0  0  0  0  0  0  0
   28.7771   11.4493   59.3858 C   0  0  0  0  0  0  0  0  0  0  0  0
   28.0386   12.3513   58.8490 O   0  0  0  0  0  0  0  0  0  0  0  0
   29.4834    9.4439   59.0986 H   0  0  0  0  0  0  0  0  0  0  0  0
   29.4902   11.8236   60.6002 C   0  0  0  0  0  0  0  0  0  0  0  0
   30.3808   10.7494   61.2186 C   0  0  0  0  0  0  0  0  0  0  0  0
   29.0501   10.9904   61.8163 C   0  0  0  0  0  0  0  0  0  0  0  0
   29.8835   13.2249   60.8972 C   0  0  0  0  0  0  0  0  0  0  0  0
   30.9317   13.2930   61.6536 O   0  0  0  0  0  0  0  0  0  0  0  0
   29.2305   14.3414   60.4266 N   0  0  0  0  0  0  0  0  0  0  0  0
   28.4419   14.1694   59.7296 H   0  0  0  0  0  0  0  0  0  0  0  0
   29.4944   15.7359   60.6608 C   0  0  0  0  0  0  0  0  0  0  0  0
   30.6514   16.2990   60.4278 C   0  0  0  0  0  0  0  0  0  0  0  0
   30.9296   17.7282   60.6653 C   0  0  0  0  0  0  0  0  0  0  0  0
   29.8309   18.5430   61.2102 C   0  0  0  0  0  0  0  0  0  0  0  0
   30.2595   19.0826   62.4384 F   0  0  0  0  0  0  0  0  0  0  0  0
   28.5783   17.8449   61.4411 C   0  0  0  0  0  0  0  0  0  0  0  0
   28.4123   16.5817   61.1985 C   0  0  0  0  0  0  0  0  0  0  0  0
   25.8716    8.6427   54.1932 O   0  0  0  0  0  0  0  0  0  0  0  0
   22.3579    9.0319   52.1292 C   0  0  0  0  0  0  0  0  0  0  0  0
   23.5297    8.8703   52.8266 C   0  0  0  0  0  0  0  0  0  0  0  0
   23.9341    7.6547   53.3189 C   0  0  0  0  0  0  0  0  0  0  0  0
   25.1311    7.5167   54.0218 C   0  0  0  0  0  0  0  0  0  0  0  0
   25.4256    6.2492   54.4608 C   0  0  0  0  0  0  0  0  0  0  0  0
   24.5943    5.1837   54.2227 C   0  0  0  0  0  0  0  0  0  0  0  0
   23.4693    5.3675   53.5501 N   0  0  0  0  0  0  0  0  0  0  0  0
   23.0965    6.5866   53.0778 C   0  0  0  0  0  0  0  0  0  0  0  0
   21.9131    6.7161   52.3814 C   0  0  0  0  0  0  0  0  0  0  0  0
   21.5527    7.9509   51.9095 C   0  0  0  0  0  0  0  0  0  0  0  0
   21.7994   11.4024   52.4734 C   0  0  0  0  0  0  0  0  0  0  0  0
   21.9841   10.2851   51.6455 O   0  0  0  0  0  0  0  0  0  0  0  0
   20.3550    8.0391   51.2137 O   0  0  0  0  0  0  0  0  0  0  0  0
   19.1419    7.5259   51.6661 C   0  0  0  0  0  0  0  0  0  0  0  0
   18.9615    7.8953   53.1158 C   0  0  0  0  0  0  0  0  0  0  0  0
   20.0181    7.2796   53.9876 C   0  0  0  0  0  0  0  0  0  0  0  0
   20.4649    8.2024   54.9818 N   0  0  0  0  0  0  0  0  0  0  0  0
   21.6242    7.8056   55.7126 C   0  0  0  0  0  0  0  0  0  0  0  0
   22.4354    9.0757   55.9861 C   0  0  0  0  0  0  0  0  0  0  0  0
   21.3942   10.1510   55.7364 C   0  0  0  0  0  0  0  0  0  0  0  0
   20.6531    9.5481   54.5340 C   0  0  0  0  0  0  0  0  0  0  0  0
 37 38  1  0  0  0
 38 27  1  0  0  0
 27 28  2  0  0  0
 28 29  1  0  0  0
 29 30  2  0  0  0
 30 26  1  0  0  0
 26  1  1  0  0  0
  1  2  2  0  0  0
  2  3  1  0  0  0
  3  4  2  0  0  0
  4  8  1  0  0  0
  8  9  1  0  0  0
  9 10  2  0  0  0
  9 12  1  0  0  0
 12 13  1  0  0  0
 13 14  1  0  0  0
 12 15  1  0  0  0
 15 16  2  0  0  0
 15 17  1  0  0  0
 17 19  1  0  0  0
 19 20  2  0  0  0
 20 21  1  0  0  0
 21 22  1  0  0  0
 22 23  1  0  0  0
 22 24  1  0  0  0
 24 25  2  0  0  0
  4  5  1  0  0  0
  5  6  2  0  0  0
  6  7  1  0  0  0
 30 31  1  0  0  0
 31 32  2  0  0  0
 32 33  1  0  0  0
 33 34  2  0  0  0
 34 35  1  0  0  0
 35 36  2  0  0  0
 36 39  1  0  0  0
 39 40  1  0  0  0
 40 41  1  0  0  0
 41 42  1  0  0  0
 42 43  1  0  0  0
 43 44  1  0  0  0
 44 45  1  0  0  0
 45 46  1  0  0  0
 46 47  1  0  0  0
 36 27  1  0  0  0
 47 43  1  0  0  0
 34 29  1  0  0  0
  6  1  1  0  0  0
 14 12  1  0  0  0
 25 19  1  0  0  0
  8 11  1  0  0  0
 17 18  1  0  0  0
M  END
> <minimizedAffinity>
12.70955

> <CNNscore>
0.5939484835

> <CNNaffinity>
7.0759735107

> <CNN_VS>
4.2027635574

> <CNNaffinity_variance>
1.2553250790

$$$$
[H]C1=C([H])C([H])(F)C([H])([H])C([H])=C1N([H])C(=O)C1(C(=O)N([H])c2c([H])c([H])c(Oc3c([H])c([H])nc4c([H])c(OC([H])([H])C([H])([H])C([H])([H])N5C([H])([H])C([H])([H])C([H])([H])C5([H])[H])c(OC([H])([H])[H])c([H])c34)c(F)c2[H])C([H])([H])C1([H])[H]


 47 52  0  0  0  0  0  0  0  0999 V2000
   27.6180    9.3243   57.1308 C   0  0  0  0  0  0  0  0  0  0  0  0
   26.2905    9.6096   57.4194 C   0  0  0  0  0  0  0  0  0  0  0  0
   25.3027    9.3605   56.5023 C   0  0  0  0  0  0  0  0  0  0  0  0
   25.5576    8.8118   55.2349 C   0  0  0  0  0  0  0  0  0  0  0  0
   26.8656    8.5320   54.9520 C   0  0  0  0  0  0  0  0  0  0  0  0
   27.8776    8.7885   55.8965 C   0  0  0  0  0  0  0  0  0  0  0  0
   29.1458    8.4648   55.5370 F   0  0  0  0  0  0  0  0  0  0  0  0
   24.4676    8.6103   54.3349 N   0  0  0  0  0  0  0  0  0  0  0  0
   23.1249    8.8913   54.5543 C   0  0  0  0  0  0  0  0  0  0  0  0
   22.8173    9.3757   55.7023 O   0  0  0  0  0  0  0  0  0  0  0  0
   24.7821    8.1320   53.4230 H   0  0  0  0  0  0  0  0  0  0  0  0
   22.0291    8.6804   53.6172 C   0  0  0  0  0  0  0  0  0  0  0  0
   22.3935    8.7059   52.1353 C   0  0  0  0  0  0  0  0  0  0  0  0
   21.7751    9.9106   52.7290 C   0  0  0  0  0  0  0  0  0  0  0  0
   20.8232    7.8846   53.9624 C   0  0  0  0  0  0  0  0  0  0  0  0
   20.2195    8.3357   55.0148 O   0  0  0  0  0  0  0  0  0  0  0  0
   20.3723    6.7934   53.2549 N   0  0  0  0  0  0  0  0  0  0  0  0
   20.8875    6.5720   52.3478 H   0  0  0  0  0  0  0  0  0  0  0  0
   19.2459    5.9327   53.4990 C   0  0  0  0  0  0  0  0  0  0  0  0
   18.0205    6.3701   53.6302 C   0  0  0  0  0  0  0  0  0  0  0  0
   16.8603    5.4938   53.8803 C   0  0  0  0  0  0  0  0  0  0  0  0
   17.1246    4.0503   54.0004 C   0  0  0  0  0  0  0  0  0  0  0  0
   16.6940    3.6355   55.2755 F   0  0  0  0  0  0  0  0  0  0  0  0
   18.5102    3.6443   53.8422 C   0  0  0  0  0  0  0  0  0  0  0  0
   19.4754    4.4805   53.6162 C   0  0  0  0  0  0  0  0  0  0  0  0
   28.6260    9.5637   58.0375 O   0  0  0  0  0  0  0  0  0  0  0  0
   31.4802   11.1183   60.5264 C   0  0  0  0  0  0  0  0  0  0  0  0
   30.5243   10.5691   59.7077 C   0  0  0  0  0  0  0  0  0  0  0  0
   30.0282    9.3036   59.8978 C   0  0  0  0  0  0  0  0  0  0  0  0
   29.0547    8.7699   59.0532 C   0  0  0  0  0  0  0  0  0  0  0  0
   28.6381    7.4952   59.3492 C   0  0  0  0  0  0  0  0  0  0  0  0
   29.1472    6.7898   60.4103 C   0  0  0  0  0  0  0  0  0  0  0  0
   30.0699    7.3417   61.1823 N   0  0  0  0  0  0  0  0  0  0  0  0
   30.5420    8.5979   60.9648 C   0  0  0  0  0  0  0  0  0  0  0  0
   31.5027    9.1210   61.8048 C   0  0  0  0  0  0  0  0  0  0  0  0
   31.9664   10.3894   61.5739 C   0  0  0  0  0  0  0  0  0  0  0  0
   33.3021   12.6897   60.0156 C   0  0  0  0  0  0  0  0  0  0  0  0
   31.9571   12.4086   60.2984 O   0  0  0  0  0  0  0  0  0  0  0  0
   32.9324   10.8792   62.4419 O   0  0  0  0  0  0  0  0  0  0  0  0
   32.6556   11.5667   63.6212 C   0  0  0  0  0  0  0  0  0  0  0  0
   31.1937   11.4093   63.9507 C   0  0  0  0  0  0  0  0  0  0  0  0
   30.4190   12.6675   63.6816 C   0  0  0  0  0  0  0  0  0  0  0  0
   29.5081   12.4871   62.5966 N   0  0  0  0  0  0  0  0  0  0  0  0
   28.2078   12.0228   62.9560 C   0  0  0  0  0  0  0  0  0  0  0  0
   27.2137   12.7060   62.0121 C   0  0  0  0  0  0  0  0  0  0  0  0
   28.1355   13.1776   60.9028 C   0  0  0  0  0  0  0  0  0  0  0  0
   29.3602   13.6099   61.7224 C   0  0  0  0  0  0  0  0  0  0  0  0
 37 38  1  0  0  0
 38 27  1  0  0  0
 27 28  2  0  0  0
 28 29  1  0  0  0
 29 30  2  0  0  0
 30 26  1  0  0  0
 26  1  1  0  0  0
  1  2  2  0  0  0
  2  3  1  0  0  0
  3  4  2  0  0  0
  4  8  1  0  0  0
  8  9  1  0  0  0
  9 10  2  0  0  0
  9 12  1  0  0  0
 12 13  1  0  0  0
 13 14  1  0  0  0
 12 15  1  0  0  0
 15 16  2  0  0  0
 15 17  1  0  0  0
 17 19  1  0  0  0
 19 20  2  0  0  0
 20 21  1  0  0  0
 21 22  1  0  0  0
 22 23  1  0  0  0
 22 24  1  0  0  0
 24 25  2  0  0  0
  4  5  1  0  0  0
  5  6  2  0  0  0
  6  7  1  0  0  0
 30 31  1  0  0  0
 31 32  2  0  0  0
 32 33  1  0  0  0
 33 34  2  0  0  0
 34 35  1  0  0  0
 35 36  2  0  0  0
 36 39  1  0  0  0
 39 40  1  0  0  0
 40 41  1  0  0  0
 41 42  1  0  0  0
 42 43  1  0  0  0
 43 44  1  0  0  0
 44 45  1  0  0  0
 45 46  1  0  0  0
 46 47  1  0  0  0
 36 27  1  0  0  0
 47 43  1  0  0  0
 34 29  1  0  0  0
  6  1  1  0  0  0
 14 12  1  0  0  0
 25 19  1  0  0  0
  8 11  1  0  0  0
 17 18  1  0  0  0
M  END
> <minimizedAffinity>
14.23862

> <CNNscore>
0.5901759267

> <CNNaffinity>
7.0656852722

> <CNN_VS>
4.1699972153

> <CNNaffinity_variance>
0.0877365172

$$$$
[H]C1=C([H])C([H])(F)C([H])([H])C([H])=C1N([H])C(=O)C1(C(=O)N([H])c2c([H])c([H])c(Oc3c([H])c([H])nc4c([H])c(OC([H])([H])C([H])([H])C([H])([H])N5C([H])([H])C([H])([H])C([H])([H])C5([H])[H])c(OC([H])([H])[H])c([H])c34)c(F)c2[H])C([H])([H])C1([H])[H]


 47 52  0  0  0  0  0  0  0  0999 V2000
   27.3536    9.0846   56.3675 C   0  0  0  0  0  0  0  0  0  0  0  0
   26.0231    9.2517   56.7263 C   0  0  0  0  0  0  0  0  0  0  0  0
   25.0142    8.9096   55.8638 C   0  0  0  0  0  0  0  0  0  0  0  0
   25.2496    8.3781   54.5853 C   0  0  0  0  0  0  0  0  0  0  0  0
   26.5605    8.2147   54.2332 C   0  0  0  0  0  0  0  0  0  0  0  0
   27.5942    8.5665   55.1218 C   0  0  0  0  0  0  0  0  0  0  0  0
   28.8654    8.3554   54.6954 F   0  0  0  0  0  0  0  0  0  0  0  0
   24.1358    8.0743   53.7452 N   0  0  0  0  0  0  0  0  0  0  0  0
   22.8343    8.5467   53.8601 C   0  0  0  0  0  0  0  0  0  0  0  0
   22.5928    9.3380   54.8412 O   0  0  0  0  0  0  0  0  0  0  0  0
   24.3870    7.3481   52.9909 H   0  0  0  0  0  0  0  0  0  0  0  0
   21.7133    8.2251   52.9864 C   0  0  0  0  0  0  0  0  0  0  0  0
   21.8412    8.6706   51.5322 C   0  0  0  0  0  0  0  0  0  0  0  0
   21.0128    9.4843   52.4474 C   0  0  0  0  0  0  0  0  0  0  0  0
   20.8288    7.0544   53.2179 C   0  0  0  0  0  0  0  0  0  0  0  0
   21.4684    5.9314   53.1462 O   0  0  0  0  0  0  0  0  0  0  0  0
   19.4814    7.1285   53.4890 N   0  0  0  0  0  0  0  0  0  0  0  0
   19.0795    8.1068   53.6257 H   0  0  0  0  0  0  0  0  0  0  0  0
   18.5212    6.0792   53.7042 C   0  0  0  0  0  0  0  0  0  0  0  0
   17.2426    6.2964   53.8721 C   0  0  0  0  0  0  0  0  0  0  0  0
   16.2519    5.2257   54.0930 C   0  0  0  0  0  0  0  0  0  0  0  0
   16.7579    3.8438   54.1382 C   0  0  0  0  0  0  0  0  0  0  0  0
   16.4296    3.3031   55.3965 F   0  0  0  0  0  0  0  0  0  0  0  0
   18.1885    3.6858   53.9429 C   0  0  0  0  0  0  0  0  0  0  0  0
   18.9943    4.6829   53.7466 C   0  0  0  0  0  0  0  0  0  0  0  0
   28.3828    9.4188   57.2186 O   0  0  0  0  0  0  0  0  0  0  0  0
   30.5996    9.0733   60.6427 C   0  0  0  0  0  0  0  0  0  0  0  0
   29.8496    9.2198   59.5018 C   0  0  0  0  0  0  0  0  0  0  0  0
   29.2781   10.4148   59.1425 C   0  0  0  0  0  0  0  0  0  0  0  0
   28.5229   10.5379   57.9761 C   0  0  0  0  0  0  0  0  0  0  0  0
   28.0061   11.7854   57.7257 C   0  0  0  0  0  0  0  0  0  0  0  0
   28.2196   12.8458   58.5699 C   0  0  0  0  0  0  0  0  0  0  0  0
   28.9441   12.6768   59.6646 N   0  0  0  0  0  0  0  0  0  0  0  0
   29.4946   11.4779   59.9930 C   0  0  0  0  0  0  0  0  0  0  0  0
   30.2424   11.3631   61.1462 C   0  0  0  0  0  0  0  0  0  0  0  0
   30.7928   10.1487   61.4620 C   0  0  0  0  0  0  0  0  0  0  0  0
   32.0273    7.6594   62.0611 C   0  0  0  0  0  0  0  0  0  0  0  0
   31.1633    7.8410   60.9710 O   0  0  0  0  0  0  0  0  0  0  0  0
   31.5384   10.0750   62.6303 O   0  0  0  0  0  0  0  0  0  0  0  0
   31.4397   10.9785   63.6857 C   0  0  0  0  0  0  0  0  0  0  0  0
   30.5858   12.1438   63.2575 C   0  0  0  0  0  0  0  0  0  0  0  0
   29.4140   12.3479   64.1744 C   0  0  0  0  0  0  0  0  0  0  0  0
   28.3140   12.9355   63.4784 N   0  0  0  0  0  0  0  0  0  0  0  0
   28.6501   13.9824   62.5693 C   0  0  0  0  0  0  0  0  0  0  0  0
   27.6973   13.8600   61.3763 C   0  0  0  0  0  0  0  0  0  0  0  0
   26.6059   12.9812   61.9586 C   0  0  0  0  0  0  0  0  0  0  0  0
   27.4472   12.0164   62.8070 C   0  0  0  0  0  0  0  0  0  0  0  0
 37 38  1  0  0  0
 38 27  1  0  0  0
 27 28  2  0  0  0
 28 29  1  0  0  0
 29 30  2  0  0  0
 30 26  1  0  0  0
 26  1  1  0  0  0
  1  2  2  0  0  0
  2  3  1  0  0  0
  3  4  2  0  0  0
  4  8  1  0  0  0
  8  9  1  0  0  0
  9 10  2  0  0  0
  9 12  1  0  0  0
 12 13  1  0  0  0
 13 14  1  0  0  0
 12 15  1  0  0  0
 15 16  2  0  0  0
 15 17  1  0  0  0
 17 19  1  0  0  0
 19 20  2  0  0  0
 20 21  1  0  0  0
 21 22  1  0  0  0
 22 23  1  0  0  0
 22 24  1  0  0  0
 24 25  2  0  0  0
  4  5  1  0  0  0
  5  6  2  0  0  0
  6  7  1  0  0  0
 30 31  1  0  0  0
 31 32  2  0  0  0
 32 33  1  0  0  0
 33 34  2  0  0  0
 34 35  1  0  0  0
 35 36  2  0  0  0
 36 39  1  0  0  0
 39 40  1  0  0  0
 40 41  1  0  0  0
 41 42  1  0  0  0
 42 43  1  0  0  0
 43 44  1  0  0  0
 44 45  1  0  0  0
 45 46  1  0  0  0
 46 47  1  0  0  0
 36 27  1  0  0  0
 47 43  1  0  0  0
 34 29  1  0  0  0
  6  1  1  0  0  0
 14 12  1  0  0  0
 25 19  1  0  0  0
  8 11  1  0  0  0
 17 18  1  0  0  0
M  END
> <minimizedAffinity>
15.31140

> <CNNscore>
0.5498579741

> <CNNaffinity>
7.0778374672

> <CNN_VS>
3.8918054104

> <CNNaffinity_variance>
0.1462136209

$$$$
[H]C1=C([H])C([H])(F)C([H])([H])C([H])=C1N([H])C(=O)C1(C(=O)N([H])c2c([H])c([H])c(Oc3c([H])c([H])nc4c([H])c(OC([H])([H])C([H])([H])C([H])([H])N5C([H])([H])C([H])([H])C([H])([H])C5([H])[H])c(OC([H])([H])[H])c([H])c34)c(F)c2[H])C([H])([H])C1([H])[H]


 47 52  0  0  0  0  0  0  0  0999 V2000
   27.4197    9.3053   56.5406 C   0  0  0  0  0  0  0  0  0  0  0  0
   26.0953    9.5591   56.8699 C   0  0  0  0  0  0  0  0  0  0  0  0
   25.0801    9.2121   56.0168 C   0  0  0  0  0  0  0  0  0  0  0  0
   25.3026    8.5898   54.7777 C   0  0  0  0  0  0  0  0  0  0  0  0
   26.6076    8.3411   54.4546 C   0  0  0  0  0  0  0  0  0  0  0  0
   27.6479    8.6982   55.3334 C   0  0  0  0  0  0  0  0  0  0  0  0
   28.9116    8.3992   54.9387 F   0  0  0  0  0  0  0  0  0  0  0  0
   24.1842    8.2875   53.9431 N   0  0  0  0  0  0  0  0  0  0  0  0
   22.8594    8.6592   54.1346 C   0  0  0  0  0  0  0  0  0  0  0  0
   22.5990    9.3424   55.1893 O   0  0  0  0  0  0  0  0  0  0  0  0
   24.4575    7.6496   53.1197 H   0  0  0  0  0  0  0  0  0  0  0  0
   21.7339    8.3417   53.2651 C   0  0  0  0  0  0  0  0  0  0  0  0
   22.0512    8.1832   51.7806 C   0  0  0  0  0  0  0  0  0  0  0  0
   21.4546    9.4553   52.2410 C   0  0  0  0  0  0  0  0  0  0  0  0
   20.5378    7.6017   53.7429 C   0  0  0  0  0  0  0  0  0  0  0  0
   20.0333    8.1203   54.8161 O   0  0  0  0  0  0  0  0  0  0  0  0
   20.0013    6.4935   53.1275 N   0  0  0  0  0  0  0  0  0  0  0  0
   20.4356    6.2138   52.1946 H   0  0  0  0  0  0  0  0  0  0  0  0
   18.8745    5.6814   53.5015 C   0  0  0  0  0  0  0  0  0  0  0  0
   17.6653    6.1547   53.6562 C   0  0  0  0  0  0  0  0  0  0  0  0
   16.5048    5.3283   54.0393 C   0  0  0  0  0  0  0  0  0  0  0  0
   16.7501    3.8950   54.2700 C   0  0  0  0  0  0  0  0  0  0  0  0
   16.3794    3.5999   55.5962 F   0  0  0  0  0  0  0  0  0  0  0  0
   18.1183    3.4470   54.0777 C   0  0  0  0  0  0  0  0  0  0  0  0
   19.0847    4.2398   53.7319 C   0  0  0  0  0  0  0  0  0  0  0  0
   28.4549    9.6428   57.3831 O   0  0  0  0  0  0  0  0  0  0  0  0
   30.3836    9.0057   60.9373 C   0  0  0  0  0  0  0  0  0  0  0  0
   29.7299    9.2494   59.7546 C   0  0  0  0  0  0  0  0  0  0  0  0
   29.1992   10.4763   59.4437 C   0  0  0  0  0  0  0  0  0  0  0  0
   28.5422   10.6988   58.2334 C   0  0  0  0  0  0  0  0  0  0  0  0
   28.0575   11.9690   58.0392 C   0  0  0  0  0  0  0  0  0  0  0  0
   28.2102   12.9588   58.9772 C   0  0  0  0  0  0  0  0  0  0  0  0
   28.8421   12.6965   60.1102 N   0  0  0  0  0  0  0  0  0  0  0  0
   29.3544   11.4683   60.3883 C   0  0  0  0  0  0  0  0  0  0  0  0
   30.0051   11.2553   61.5856 C   0  0  0  0  0  0  0  0  0  0  0  0
   30.5182   10.0127   61.8500 C   0  0  0  0  0  0  0  0  0  0  0  0
   30.2420    6.7913   61.9984 C   0  0  0  0  0  0  0  0  0  0  0  0
   30.9088    7.7440   61.2138 O   0  0  0  0  0  0  0  0  0  0  0  0
   31.1659    9.8394   63.0652 O   0  0  0  0  0  0  0  0  0  0  0  0
   32.4644    9.3550   63.2035 C   0  0  0  0  0  0  0  0  0  0  0  0
   33.2392   10.2762   64.1099 C   0  0  0  0  0  0  0  0  0  0  0  0
   32.7653   11.6973   64.0038 C   0  0  0  0  0  0  0  0  0  0  0  0
   33.2318   12.3051   62.7985 N   0  0  0  0  0  0  0  0  0  0  0  0
   33.8275   11.4182   61.8531 C   0  0  0  0  0  0  0  0  0  0  0  0
   33.4411   11.9256   60.4606 C   0  0  0  0  0  0  0  0  0  0  0  0
   33.0014   13.3437   60.7741 C   0  0  0  0  0  0  0  0  0  0  0  0
   32.2798   13.1229   62.1116 C   0  0  0  0  0  0  0  0  0  0  0  0
 37 38  1  0  0  0
 38 27  1  0  0  0
 27 28  2  0  0  0
 28 29  1  0  0  0
 29 30  2  0  0  0
 30 26  1  0  0  0
 26  1  1  0  0  0
  1  2  2  0  0  0
  2  3  1  0  0  0
  3  4  2  0  0  0
  4  8  1  0  0  0
  8  9  1  0  0  0
  9 10  2  0  0  0
  9 12  1  0  0  0
 12 13  1  0  0  0
 13 14  1  0  0  0
 12 15  1  0  0  0
 15 16  2  0  0  0
 15 17  1  0  0  0
 17 19  1  0  0  0
 19 20  2  0  0  0
 20 21  1  0  0  0
 21 22  1  0  0  0
 22 23  1  0  0  0
 22 24  1  0  0  0
 24 25  2  0  0  0
  4  5  1  0  0  0
  5  6  2  0  0  0
  6  7  1  0  0  0
 30 31  1  0  0  0
 31 32  2  0  0  0
 32 33  1  0  0  0
 33 34  2  0  0  0
 34 35  1  0  0  0
 35 36  2  0  0  0
 36 39  1  0  0  0
 39 40  1  0  0  0
 40 41  1  0  0  0
 41 42  1  0  0  0
 42 43  1  0  0  0
 43 44  1  0  0  0
 44 45  1  0  0  0
 45 46  1  0  0  0
 46 47  1  0  0  0
 36 27  1  0  0  0
 47 43  1  0  0  0
 34 29  1  0  0  0
  6  1  1  0  0  0
 14 12  1  0  0  0
 25 19  1  0  0  0
  8 11  1  0  0  0
 17 18  1  0  0  0
M  END
> <minimizedAffinity>
9.68836

> <CNNscore>
0.5269662142

> <CNNaffinity>
6.9249725342

> <CNN_VS>
3.6492266655

> <CNNaffinity_variance>
0.1034363061

$$$$
[H]C1=C([H])C([H])(F)C([H])([H])C([H])=C1N([H])C(=O)C1(C(=O)N([H])c2c([H])c([H])c(Oc3c([H])c([H])nc4c([H])c(OC([H])([H])C([H])([H])C([H])([H])N5C([H])([H])C([H])([H])C([H])([H])C5([H])[H])c(OC([H])([H])[H])c([H])c34)c(F)c2[H])C([H])([H])C1([H])[H]


 47 52  0  0  0  0  0  0  0  0999 V2000
   27.4026    9.2338   56.1256 C   0  0  0  0  0  0  0  0  0  0  0  0
   26.0984    9.4946   56.5230 C   0  0  0  0  0  0  0  0  0  0  0  0
   25.0377    9.1354   55.7326 C   0  0  0  0  0  0  0  0  0  0  0  0
   25.1915    8.4930   54.4933 C   0  0  0  0  0  0  0  0  0  0  0  0
   26.4767    8.2374   54.1030 C   0  0  0  0  0  0  0  0  0  0  0  0
   27.5638    8.6072   54.9176 C   0  0  0  0  0  0  0  0  0  0  0  0
   28.8038    8.3002   54.4589 F   0  0  0  0  0  0  0  0  0  0  0  0
   24.0289    8.1789   53.7264 N   0  0  0  0  0  0  0  0  0  0  0  0
   22.7334    8.6399   53.9244 C   0  0  0  0  0  0  0  0  0  0  0  0
   22.5483    9.4297   54.9189 O   0  0  0  0  0  0  0  0  0  0  0  0
   24.2377    7.4545   52.9575 H   0  0  0  0  0  0  0  0  0  0  0  0
   21.5615    8.3079   53.1244 C   0  0  0  0  0  0  0  0  0  0  0  0
   21.7752    8.2260   51.6154 C   0  0  0  0  0  0  0  0  0  0  0  0
   21.1607    9.4493   52.1740 C   0  0  0  0  0  0  0  0  0  0  0  0
   20.4363    7.4948   53.6529 C   0  0  0  0  0  0  0  0  0  0  0  0
   19.9083    8.0145   54.7142 O   0  0  0  0  0  0  0  0  0  0  0  0
   19.9813    6.3234   53.0914 N   0  0  0  0  0  0  0  0  0  0  0  0
   20.4223    6.0417   52.1622 H   0  0  0  0  0  0  0  0  0  0  0  0
   18.9293    5.4398   53.5177 C   0  0  0  0  0  0  0  0  0  0  0  0
   19.0936    4.1537   53.6878 C   0  0  0  0  0  0  0  0  0  0  0  0
   18.0199    3.2413   54.1250 C   0  0  0  0  0  0  0  0  0  0  0  0
   16.6929    3.8334   54.3621 C   0  0  0  0  0  0  0  0  0  0  0  0
   15.7763    3.2028   53.4987 F   0  0  0  0  0  0  0  0  0  0  0  0
   16.5917    5.2671   54.1520 C   0  0  0  0  0  0  0  0  0  0  0  0
   17.5899    6.0028   53.7720 C   0  0  0  0  0  0  0  0  0  0  0  0
   28.4827    9.5834   56.9045 O   0  0  0  0  0  0  0  0  0  0  0  0
   29.8586    8.1024   60.4642 C   0  0  0  0  0  0  0  0  0  0  0  0
   29.3911    8.6273   59.2846 C   0  0  0  0  0  0  0  0  0  0  0  0
   28.9921    9.9351   59.1653 C   0  0  0  0  0  0  0  0  0  0  0  0
   28.5238   10.4448   57.9542 C   0  0  0  0  0  0  0  0  0  0  0  0
   28.1572   11.7683   57.9627 C   0  0  0  0  0  0  0  0  0  0  0  0
   28.2465   12.5422   59.0922 C   0  0  0  0  0  0  0  0  0  0  0  0
   28.6980   12.0106   60.2171 N   0  0  0  0  0  0  0  0  0  0  0  0
   29.0832   10.7096   60.3021 C   0  0  0  0  0  0  0  0  0  0  0  0
   29.5478   10.2122   61.5017 C   0  0  0  0  0  0  0  0  0  0  0  0
   29.9346    8.8996   61.5704 C   0  0  0  0  0  0  0  0  0  0  0  0
   29.3873    5.7320   60.9206 C   0  0  0  0  0  0  0  0  0  0  0  0
   30.2545    6.7677   60.5423 O   0  0  0  0  0  0  0  0  0  0  0  0
   30.3964    8.4379   62.7952 O   0  0  0  0  0  0  0  0  0  0  0  0
   31.7056    8.0305   63.0403 C   0  0  0  0  0  0  0  0  0  0  0  0
   32.5146    9.2194   63.4904 C   0  0  0  0  0  0  0  0  0  0  0  0
   33.5125    9.6449   62.4519 C   0  0  0  0  0  0  0  0  0  0  0  0
   33.4653   11.0569   62.2431 N   0  0  0  0  0  0  0  0  0  0  0  0
   32.8602   11.4781   61.0216 C   0  0  0  0  0  0  0  0  0  0  0  0
   32.1056   12.7766   61.3221 C   0  0  0  0  0  0  0  0  0  0  0  0
   32.7403   13.1898   62.6370 C   0  0  0  0  0  0  0  0  0  0  0  0
   32.8994   11.8200   63.3129 C   0  0  0  0  0  0  0  0  0  0  0  0
 37 38  1  0  0  0
 38 27  1  0  0  0
 27 28  2  0  0  0
 28 29  1  0  0  0
 29 30  2  0  0  0
 30 26  1  0  0  0
 26  1  1  0  0  0
  1  2  2  0  0  0
  2  3  1  0  0  0
  3  4  2  0  0  0
  4  8  1  0  0  0
  8  9  1  0  0  0
  9 10  2  0  0  0
  9 12  1  0  0  0
 12 13  1  0  0  0
 13 14  1  0  0  0
 12 15  1  0  0  0
 15 16  2  0  0  0
 15 17  1  0  0  0
 17 19  1  0  0  0
 19 20  2  0  0  0
 20 21  1  0  0  0
 21 22  1  0  0  0
 22 23  1  0  0  0
 22 24  1  0  0  0
 24 25  2  0  0  0
  4  5  1  0  0  0
  5  6  2  0  0  0
  6  7  1  0  0  0
 30 31  1  0  0  0
 31 32  2  0  0  0
 32 33  1  0  0  0
 33 34  2  0  0  0
 34 35  1  0  0  0
 35 36  2  0  0  0
 36 39  1  0  0  0
 39 40  1  0  0  0
 40 41  1  0  0  0
 41 42  1  0  0  0
 42 43  1  0  0  0
 43 44  1  0  0  0
 44 45  1  0  0  0
 45 46  1  0  0  0
 46 47  1  0  0  0
 36 27  1  0  0  0
 47 43  1  0  0  0
 34 29  1  0  0  0
  6  1  1  0  0  0
 14 12  1  0  0  0
 25 19  1  0  0  0
  8 11  1  0  0  0
 17 18  1  0  0  0
M  END
> <minimizedAffinity>
10.77740

> <CNNscore>
0.5193480849

> <CNNaffinity>
6.9574518204

> <CNN_VS>
3.6133391857

> <CNNaffinity_variance>
0.1159964204

$$$$
[H]C1=C([H])C([H])(F)C([H])([H])C([H])=C1N([H])C(=O)C1(C(=O)N([H])c2c([H])c([H])c(Oc3c([H])c([H])nc4c([H])c(OC([H])([H])C([H])([H])C([H])([H])N5C([H])([H])C([H])([H])C([H])([H])C5([H])[H])c(OC([H])([H])[H])c([H])c34)c(F)c2[H])C([H])([H])C1([H])[H]


 47 52  0  0  0  0  0  0  0  0999 V2000
   25.8510    8.7379   54.1063 C   0  0  0  0  0  0  0  0  0  0  0  0
   27.2334    8.6265   54.0470 C   0  0  0  0  0  0  0  0  0  0  0  0
   28.0061    8.8679   55.1532 C   0  0  0  0  0  0  0  0  0  0  0  0
   27.4665    9.2366   56.3963 C   0  0  0  0  0  0  0  0  0  0  0  0
   26.1049    9.3464   56.4528 C   0  0  0  0  0  0  0  0  0  0  0  0
   25.3143    9.0972   55.3149 C   0  0  0  0  0  0  0  0  0  0  0  0
   23.9705    9.2142   55.4664 F   0  0  0  0  0  0  0  0  0  0  0  0
   28.3511    9.4926   57.4873 N   0  0  0  0  0  0  0  0  0  0  0  0
   28.2569    9.0081   58.7860 C   0  0  0  0  0  0  0  0  0  0  0  0
   27.2530    8.2528   59.0481 O   0  0  0  0  0  0  0  0  0  0  0  0
   29.1257   10.1919   57.2217 H   0  0  0  0  0  0  0  0  0  0  0  0
   29.1761    9.2806   59.8834 C   0  0  0  0  0  0  0  0  0  0  0  0
   30.4332    8.4170   59.9415 C   0  0  0  0  0  0  0  0  0  0  0  0
   29.3096    8.0860   60.8437 C   0  0  0  0  0  0  0  0  0  0  0  0
   29.2947   10.6204   60.5137 C   0  0  0  0  0  0  0  0  0  0  0  0
   29.7046   10.5540   61.7397 O   0  0  0  0  0  0  0  0  0  0  0  0
   29.0158   11.8125   59.8848 N   0  0  0  0  0  0  0  0  0  0  0  0
   28.7844   11.7562   58.8454 H   0  0  0  0  0  0  0  0  0  0  0  0
   29.0660   13.1590   60.3886 C   0  0  0  0  0  0  0  0  0  0  0  0
   28.0049   13.9040   60.5596 C   0  0  0  0  0  0  0  0  0  0  0  0
   28.0483   15.2853   61.0759 C   0  0  0  0  0  0  0  0  0  0  0  0
   29.3743   15.8398   61.3952 C   0  0  0  0  0  0  0  0  0  0  0  0
   29.5673   16.9864   60.6007 F   0  0  0  0  0  0  0  0  0  0  0  0
   30.5022   14.9505   61.1786 C   0  0  0  0  0  0  0  0  0  0  0  0
   30.3783   13.7414   60.7261 C   0  0  0  0  0  0  0  0  0  0  0  0
   25.0554    8.4977   53.0087 O   0  0  0  0  0  0  0  0  0  0  0  0
   22.7000    5.4892   54.4783 C   0  0  0  0  0  0  0  0  0  0  0  0
   23.4636    6.5134   53.9749 C   0  0  0  0  0  0  0  0  0  0  0  0
   22.9130    7.6263   53.3902 C   0  0  0  0  0  0  0  0  0  0  0  0
   23.7112    8.6547   52.8890 C   0  0  0  0  0  0  0  0  0  0  0  0
   23.0414    9.7153   52.3301 C   0  0  0  0  0  0  0  0  0  0  0  0
   21.6714    9.7615   52.2687 C   0  0  0  0  0  0  0  0  0  0  0  0
   20.9590    8.7596   52.7590 N   0  0  0  0  0  0  0  0  0  0  0  0
   21.5364    7.6693   53.3301 C   0  0  0  0  0  0  0  0  0  0  0  0
   20.7417    6.6571   53.8260 C   0  0  0  0  0  0  0  0  0  0  0  0
   21.3387    5.5660   54.4010 C   0  0  0  0  0  0  0  0  0  0  0  0
   24.5876    4.4027   55.6210 C   0  0  0  0  0  0  0  0  0  0  0  0
   23.2999    4.3758   55.0652 O   0  0  0  0  0  0  0  0  0  0  0  0
   20.5042    4.5697   54.8881 O   0  0  0  0  0  0  0  0  0  0  0  0
   19.2012    4.3491   54.4482 C   0  0  0  0  0  0  0  0  0  0  0  0
   19.2430    3.7666   53.0592 C   0  0  0  0  0  0  0  0  0  0  0  0
   18.2526    2.6506   52.8885 C   0  0  0  0  0  0  0  0  0  0  0  0
   17.0232    2.9499   53.5508 N   0  0  0  0  0  0  0  0  0  0  0  0
   16.9851    4.1969   54.2429 C   0  0  0  0  0  0  0  0  0  0  0  0
   15.5660    4.7512   54.0856 C   0  0  0  0  0  0  0  0  0  0  0  0
   14.8079    3.5068   53.6618 C   0  0  0  0  0  0  0  0  0  0  0  0
   15.8466    2.8464   52.7434 C   0  0  0  0  0  0  0  0  0  0  0  0
 37 38  1  0  0  0
 38 27  1  0  0  0
 27 28  2  0  0  0
 28 29  1  0  0  0
 29 30  2  0  0  0
 30 26  1  0  0  0
 26  1  1  0  0  0
  1  2  2  0  0  0
  2  3  1  0  0  0
  3  4  2  0  0  0
  4  8  1  0  0  0
  8  9  1  0  0  0
  9 10  2  0  0  0
  9 12  1  0  0  0
 12 13  1  0  0  0
 13 14  1  0  0  0
 12 15  1  0  0  0
 15 16  2  0  0  0
 15 17  1  0  0  0
 17 19  1  0  0  0
 19 20  2  0  0  0
 20 21  1  0  0  0
 21 22  1  0  0  0
 22 23  1  0  0  0
 22 24  1  0  0  0
 24 25  2  0  0  0
  4  5  1  0  0  0
  5  6  2  0  0  0
  6  7  1  0  0  0
 30 31  1  0  0  0
 31 32  2  0  0  0
 32 33  1  0  0  0
 33 34  2  0  0  0
 34 35  1  0  0  0
 35 36  2  0  0  0
 36 39  1  0  0  0
 39 40  1  0  0  0
 40 41  1  0  0  0
 41 42  1  0  0  0
 42 43  1  0  0  0
 43 44  1  0  0  0
 44 45  1  0  0  0
 45 46  1  0  0  0
 46 47  1  0  0  0
 36 27  1  0  0  0
 47 43  1  0  0  0
 34 29  1  0  0  0
  6  1  1  0  0  0
 14 12  1  0  0  0
 25 19  1  0  0  0
  8 11  1  0  0  0
 17 18  1  0  0  0
M  END
> <minimizedAffinity>
25.04708

> <CNNscore>
0.5189126134

> <CNNaffinity>
7.1330780983

> <CNN_VS>
3.7014441490

> <CNNaffinity_variance>
0.2399804890

$$$$
[H]C1=C([H])C([H])(F)C([H])([H])C([H])=C1N([H])C(=O)C1(C(=O)N([H])c2c([H])c([H])c(Oc3c([H])c([H])nc4c([H])c(OC([H])([H])C([H])([H])C([H])([H])N5C([H])([H])C([H])([H])C([H])([H])C5([H])[H])c(OC([H])([H])[H])c([H])c34)c(F)c2[H])C([H])([H])C1([H])[H]


 47 52  0  0  0  0  0  0  0  0999 V2000
   27.3340    9.3455   56.4793 C   0  0  0  0  0  0  0  0  0  0  0  0
   26.0005    9.5901   56.7773 C   0  0  0  0  0  0  0  0  0  0  0  0
   25.0050    9.1919   55.9233 C   0  0  0  0  0  0  0  0  0  0  0  0
   25.2577    8.5237   54.7142 C   0  0  0  0  0  0  0  0  0  0  0  0
   26.5716    8.2841   54.4219 C   0  0  0  0  0  0  0  0  0  0  0  0
   27.5915    8.6939   55.3015 C   0  0  0  0  0  0  0  0  0  0  0  0
   28.8662    8.4004   54.9391 F   0  0  0  0  0  0  0  0  0  0  0  0
   24.1581    8.1691   53.8753 N   0  0  0  0  0  0  0  0  0  0  0  0
   22.8355    8.5774   53.9946 C   0  0  0  0  0  0  0  0  0  0  0  0
   22.5581    9.3526   54.9790 O   0  0  0  0  0  0  0  0  0  0  0  0
   24.4426    7.4587   53.1179 H   0  0  0  0  0  0  0  0  0  0  0  0
   21.7295    8.2048   53.1220 C   0  0  0  0  0  0  0  0  0  0  0  0
   22.0823    7.9373   51.6614 C   0  0  0  0  0  0  0  0  0  0  0  0
   21.4847    9.2430   52.0134 C   0  0  0  0  0  0  0  0  0  0  0  0
   20.5160    7.5087   53.6214 C   0  0  0  0  0  0  0  0  0  0  0  0
   19.9633    8.1312   54.6126 O   0  0  0  0  0  0  0  0  0  0  0  0
   20.0104    6.3390   53.1011 N   0  0  0  0  0  0  0  0  0  0  0  0
   20.4860    5.9681   52.2217 H   0  0  0  0  0  0  0  0  0  0  0  0
   18.8709    5.5611   53.5079 C   0  0  0  0  0  0  0  0  0  0  0  0
   17.6748    6.0651   53.6676 C   0  0  0  0  0  0  0  0  0  0  0  0
   16.5014    5.2738   54.0842 C   0  0  0  0  0  0  0  0  0  0  0  0
   16.7176    3.8407   54.3437 C   0  0  0  0  0  0  0  0  0  0  0  0
   16.3585    3.5835   55.6809 F   0  0  0  0  0  0  0  0  0  0  0  0
   18.0728    3.3578   54.1437 C   0  0  0  0  0  0  0  0  0  0  0  0
   19.0519    4.1206   53.7676 C   0  0  0  0  0  0  0  0  0  0  0  0
   28.3498    9.7341   57.3234 O   0  0  0  0  0  0  0  0  0  0  0  0
   30.4093    9.3391   60.8391 C   0  0  0  0  0  0  0  0  0  0  0  0
   29.7105    9.5016   59.6683 C   0  0  0  0  0  0  0  0  0  0  0  0
   29.1096   10.6870   59.3257 C   0  0  0  0  0  0  0  0  0  0  0  0
   28.4078   10.8270   58.1283 C   0  0  0  0  0  0  0  0  0  0  0  0
   27.8541   12.0627   57.8991 C   0  0  0  0  0  0  0  0  0  0  0  0
   27.9833   13.0964   58.7922 C   0  0  0  0  0  0  0  0  0  0  0  0
   28.6599   12.9122   59.9147 N   0  0  0  0  0  0  0  0  0  0  0  0
   29.2415   11.7233   60.2252 C   0  0  0  0  0  0  0  0  0  0  0  0
   29.9362   11.5920   61.4094 C   0  0  0  0  0  0  0  0  0  0  0  0
   30.5189   10.3881   61.7068 C   0  0  0  0  0  0  0  0  0  0  0  0
   30.4483    7.1998   62.0520 C   0  0  0  0  0  0  0  0  0  0  0  0
   31.0055    8.1173   61.1489 O   0  0  0  0  0  0  0  0  0  0  0  0
   31.2091   10.2970   62.9075 O   0  0  0  0  0  0  0  0  0  0  0  0
   32.2766   11.1165   63.2663 C   0  0  0  0  0  0  0  0  0  0  0  0
   32.5227   12.1143   62.1643 C   0  0  0  0  0  0  0  0  0  0  0  0
   32.5302   13.5260   62.6768 C   0  0  0  0  0  0  0  0  0  0  0  0
   32.4176   14.4620   61.6040 N   0  0  0  0  0  0  0  0  0  0  0  0
   31.1170   14.5873   61.0311 C   0  0  0  0  0  0  0  0  0  0  0  0
   30.9371   16.0601   60.6511 C   0  0  0  0  0  0  0  0  0  0  0  0
   32.3743   16.5466   60.6648 C   0  0  0  0  0  0  0  0  0  0  0  0
   32.9190   15.7742   61.8752 C   0  0  0  0  0  0  0  0  0  0  0  0
 37 38  1  0  0  0
 38 27  1  0  0  0
 27 28  2  0  0  0
 28 29  1  0  0  0
 29 30  2  0  0  0
 30 26  1  0  0  0
 26  1  1  0  0  0
  1  2  2  0  0  0
  2  3  1  0  0  0
  3  4  2  0  0  0
  4  8  1  0  0  0
  8  9  1  0  0  0
  9 10  2  0  0  0
  9 12  1  0  0  0
 12 13  1  0  0  0
 13 14  1  0  0  0
 12 15  1  0  0  0
 15 16  2  0  0  0
 15 17  1  0  0  0
 17 19  1  0  0  0
 19 20  2  0  0  0
 20 21  1  0  0  0
 21 22  1  0  0  0
 22 23  1  0  0  0
 22 24  1  0  0  0
 24 25  2  0  0  0
  4  5  1  0  0  0
  5  6  2  0  0  0
  6  7  1  0  0  0
 30 31  1  0  0  0
 31 32  2  0  0  0
 32 33  1  0  0  0
 33 34  2  0  0  0
 34 35  1  0  0  0
 35 36  2  0  0  0
 36 39  1  0  0  0
 39 40  1  0  0  0
 40 41  1  0  0  0
 41 42  1  0  0  0
 42 43  1  0  0  0
 43 44  1  0  0  0
 44 45  1  0  0  0
 45 46  1  0  0  0
 46 47  1  0  0  0
 36 27  1  0  0  0
 47 43  1  0  0  0
 34 29  1  0  0  0
  6  1  1  0  0  0
 14 12  1  0  0  0
 25 19  1  0  0  0
  8 11  1  0  0  0
 17 18  1  0  0  0
M  END
> <minimizedAffinity>
9.89178

> <CNNscore>
0.5164616704

> <CNNaffinity>
7.0594797134

> <CNN_VS>
3.6459507942

> <CNNaffinity_variance>
0.0476088971

$$$$
[H]C1=C([H])C([H])(F)C([H])([H])C([H])=C1N([H])C(=O)C1(C(=O)N([H])c2c([H])c([H])c(Oc3c([H])c([H])nc4c([H])c(OC([H])([H])C([H])([H])C([H])([H])N5C([H])([H])C([H])([H])C([H])([H])C5([H])[H])c(OC([H])([H])[H])c([H])c34)c(F)c2[H])C([H])([H])C1([H])[H]


 47 52  0  0  0  0  0  0  0  0999 V2000
   27.8296    9.1764   56.6933 C   0  0  0  0  0  0  0  0  0  0  0  0
   26.5509    9.5807   57.0516 C   0  0  0  0  0  0  0  0  0  0  0  0
   25.4925    9.4019   56.1992 C   0  0  0  0  0  0  0  0  0  0  0  0
   25.6236    8.8107   54.9321 C   0  0  0  0  0  0  0  0  0  0  0  0
   26.8837    8.4136   54.5804 C   0  0  0  0  0  0  0  0  0  0  0  0
   27.9685    8.5982   55.4587 C   0  0  0  0  0  0  0  0  0  0  0  0
   29.1807    8.1596   55.0339 F   0  0  0  0  0  0  0  0  0  0  0  0
   24.4687    8.6884   54.1015 N   0  0  0  0  0  0  0  0  0  0  0  0
   23.1686    9.0796   54.3955 C   0  0  0  0  0  0  0  0  0  0  0  0
   22.9706    9.5999   55.5519 O   0  0  0  0  0  0  0  0  0  0  0  0
   24.6883    8.1762   53.1801 H   0  0  0  0  0  0  0  0  0  0  0  0
   22.0048    8.9480   53.5284 C   0  0  0  0  0  0  0  0  0  0  0  0
   20.9652    7.9116   53.9463 C   0  0  0  0  0  0  0  0  0  0  0  0
   21.9189    7.5588   52.8729 C   0  0  0  0  0  0  0  0  0  0  0  0
   21.4879   10.0726   52.7070 C   0  0  0  0  0  0  0  0  0  0  0  0
   20.8452    9.6639   51.6604 O   0  0  0  0  0  0  0  0  0  0  0  0
   21.6518   11.4057   53.0074 N   0  0  0  0  0  0  0  0  0  0  0  0
   22.1083   11.6266   53.9455 H   0  0  0  0  0  0  0  0  0  0  0  0
   21.2263   12.5761   52.2874 C   0  0  0  0  0  0  0  0  0  0  0  0
   21.5280   12.8004   51.0349 C   0  0  0  0  0  0  0  0  0  0  0  0
   21.0952   13.9980   50.2898 C   0  0  0  0  0  0  0  0  0  0  0  0
   20.2919   14.9897   51.0239 C   0  0  0  0  0  0  0  0  0  0  0  0
   20.9878   16.2139   51.0007 F   0  0  0  0  0  0  0  0  0  0  0  0
   19.9991   14.6678   52.4097 C   0  0  0  0  0  0  0  0  0  0  0  0
   20.4131   13.5852   52.9916 C   0  0  0  0  0  0  0  0  0  0  0  0
   28.9066    9.3438   57.5345 O   0  0  0  0  0  0  0  0  0  0  0  0
   29.7592   12.0035   60.5274 C   0  0  0  0  0  0  0  0  0  0  0  0
   29.4766   11.0871   59.5445 C   0  0  0  0  0  0  0  0  0  0  0  0
   29.3863    9.7406   59.7944 C   0  0  0  0  0  0  0  0  0  0  0  0
   29.0948    8.8305   58.7782 C   0  0  0  0  0  0  0  0  0  0  0  0
   29.0297    7.5116   59.1555 C   0  0  0  0  0  0  0  0  0  0  0  0
   29.2379    7.1131   60.4519 C   0  0  0  0  0  0  0  0  0  0  0  0
   29.5114    8.0166   61.3796 N   0  0  0  0  0  0  0  0  0  0  0  0
   29.5961    9.3439   61.0978 C   0  0  0  0  0  0  0  0  0  0  0  0
   29.8821   10.2391   62.1073 C   0  0  0  0  0  0  0  0  0  0  0  0
   29.9614   11.5738   61.8078 C   0  0  0  0  0  0  0  0  0  0  0  0
   28.7940   14.2650   60.4719 C   0  0  0  0  0  0  0  0  0  0  0  0
   29.8413   13.3634   60.2308 O   0  0  0  0  0  0  0  0  0  0  0  0
   30.2508   12.4418   62.8514 O   0  0  0  0  0  0  0  0  0  0  0  0
   31.5335   12.6974   63.3304 C   0  0  0  0  0  0  0  0  0  0  0  0
   32.3201   13.4207   62.2680 C   0  0  0  0  0  0  0  0  0  0  0  0
   31.7228   14.7593   61.9410 C   0  0  0  0  0  0  0  0  0  0  0  0
   32.7361   15.6990   61.5806 N   0  0  0  0  0  0  0  0  0  0  0  0
   32.6859   16.1718   60.2354 C   0  0  0  0  0  0  0  0  0  0  0  0
   33.1153   17.6418   60.2631 C   0  0  0  0  0  0  0  0  0  0  0  0
   33.7942   17.7261   61.6175 C   0  0  0  0  0  0  0  0  0  0  0  0
   32.8683   16.8273   62.4503 C   0  0  0  0  0  0  0  0  0  0  0  0
 37 38  1  0  0  0
 38 27  1  0  0  0
 27 28  2  0  0  0
 28 29  1  0  0  0
 29 30  2  0  0  0
 30 26  1  0  0  0
 26  1  1  0  0  0
  1  2  2  0  0  0
  2  3  1  0  0  0
  3  4  2  0  0  0
  4  8  1  0  0  0
  8  9  1  0  0  0
  9 10  2  0  0  0
  9 12  1  0  0  0
 12 13  1  0  0  0
 13 14  1  0  0  0
 12 15  1  0  0  0
 15 16  2  0  0  0
 15 17  1  0  0  0
 17 19  1  0  0  0
 19 20  2  0  0  0
 20 21  1  0  0  0
 21 22  1  0  0  0
 22 23  1  0  0  0
 22 24  1  0  0  0
 24 25  2  0  0  0
  4  5  1  0  0  0
  5  6  2  0  0  0
  6  7  1  0  0  0
 30 31  1  0  0  0
 31 32  2  0  0  0
 32 33  1  0  0  0
 33 34  2  0  0  0
 34 35  1  0  0  0
 35 36  2  0  0  0
 36 39  1  0  0  0
 39 40  1  0  0  0
 40 41  1  0  0  0
 41 42  1  0  0  0
 42 43  1  0  0  0
 43 44  1  0  0  0
 44 45  1  0  0  0
 45 46  1  0  0  0
 46 47  1  0  0  0
 36 27  1  0  0  0
 47 43  1  0  0  0
 34 29  1  0  0  0
  6  1  1  0  0  0
 14 12  1  0  0  0
 25 19  1  0  0  0
  8 11  1  0  0  0
 17 18  1  0  0  0
M  END
> <minimizedAffinity>
13.27806

> <CNNscore>
0.5071999431

> <CNNaffinity>
6.6440291405

> <CNN_VS>
3.3698511124

> <CNNaffinity_variance>
0.1686601490

$$$$
[H]/C(=C1/C(=O)N([H])c2c([H])c([H])c(C([H])([H])[H])c([H])c21)c1c([H])c([H])c(N2C([H])([H])C([H])([H])N(C([H])([H])[H])C([H])([H])C2([H])[H])c([H])c1[H]


 26 29  0  0  0  0  0  0  0  0999 V2000
   27.1145    9.5486   56.9966 C   0  0  0  0  0  0  0  0  0  0  0  0
   27.3662    8.7801   55.8793 C   0  0  0  0  0  0  0  0  0  0  0  0
   26.3656    8.1598   55.1746 C   0  0  0  0  0  0  0  0  0  0  0  0
   25.0605    8.2754   55.5512 C   0  0  0  0  0  0  0  0  0  0  0  0
   24.7718    9.0489   56.6810 C   0  0  0  0  0  0  0  0  0  0  0  0
   25.7952    9.6549   57.3618 C   0  0  0  0  0  0  0  0  0  0  0  0
   23.9956    7.6141   54.8248 C   0  0  0  0  0  0  0  0  0  0  0  0
   22.9314    8.2354   54.4238 C   0  0  0  0  0  0  0  0  0  0  0  0
   22.5368    9.6242   54.5601 C   0  0  0  0  0  0  0  0  0  0  0  0
   23.2050   10.5658   55.1047 O   0  0  0  0  0  0  0  0  0  0  0  0
   21.2529    9.7423   53.9628 N   0  0  0  0  0  0  0  0  0  0  0  0
   20.8129    8.4964   53.4524 C   0  0  0  0  0  0  0  0  0  0  0  0
   19.6508    8.0927   52.7899 C   0  0  0  0  0  0  0  0  0  0  0  0
   19.4773    6.7953   52.3971 C   0  0  0  0  0  0  0  0  0  0  0  0
   20.4704    5.8702   52.6614 C   0  0  0  0  0  0  0  0  0  0  0  0
   20.2431    4.4708   52.2180 C   0  0  0  0  0  0  0  0  0  0  0  0
   21.6179    6.2684   53.3156 C   0  0  0  0  0  0  0  0  0  0  0  0
   21.7989    7.5775   53.7149 C   0  0  0  0  0  0  0  0  0  0  0  0
   20.7444   10.6578   53.9328 H   0  0  0  0  0  0  0  0  0  0  0  0
   28.8821   12.7252   60.2041 C   0  0  0  0  0  0  0  0  0  0  0  0
   29.6708   11.6875   59.5703 N   0  0  0  0  0  0  0  0  0  0  0  0
   29.7180   11.9312   58.1630 C   0  0  0  0  0  0  0  0  0  0  0  0
   28.3320   11.6253   57.5905 C   0  0  0  0  0  0  0  0  0  0  0  0
   28.1223   10.2019   57.7548 N   0  0  0  0  0  0  0  0  0  0  0  0
   28.9624    9.5058   58.7036 C   0  0  0  0  0  0  0  0  0  0  0  0
   29.1175   10.4155   59.9227 C   0  0  0  0  0  0  0  0  0  0  0  0
 20 21  1  0  0  0
 21 22  1  0  0  0
 22 23  1  0  0  0
 23 24  1  0  0  0
 24 25  1  0  0  0
 25 26  1  0  0  0
 24  1  1  0  0  0
  1  2  2  0  0  0
  2  3  1  0  0  0
  3  4  2  0  0  0
  4  7  1  0  0  0
  7  8  2  0  0  0
  8  9  1  0  0  0
  9 10  2  0  0  0
  9 11  1  0  0  0
 11 12  1  0  0  0
 12 13  2  0  0  0
 13 14  1  0  0  0
 14 15  2  0  0  0
 15 16  1  0  0  0
 15 17  1  0  0  0
 17 18  2  0  0  0
  4  5  1  0  0  0
  5  6  2  0  0  0
 26 21  1  0  0  0
  6  1  1  0  0  0
 18  8  1  0  0  0
 18 12  1  0  0  0
 11 19  1  0  0  0
M  END
> <minimizedAffinity>
30.47253

> <CNNscore>
0.5531306863

> <CNNaffinity>
5.4245023727

> <CNN_VS>
3.0004587173

> <CNNaffinity_variance>
0.7293989658

$$$$
[H]/C(=C1/C(=O)N([H])c2c([H])c([H])c(C([H])([H])[H])c([H])c21)c1c([H])c([H])c(N2C([H])([H])C([H])([H])N(C([H])([H])[H])C([H])([H])C2([H])[H])c([H])c1[H]


 26 29  0  0  0  0  0  0  0  0999 V2000
   24.2916    7.8394   54.2604 C   0  0  0  0  0  0  0  0  0  0  0  0
   23.2783    8.3549   53.4794 C   0  0  0  0  0  0  0  0  0  0  0  0
   22.0269    7.7940   53.4366 C   0  0  0  0  0  0  0  0  0  0  0  0
   21.7236    6.6873   54.1728 C   0  0  0  0  0  0  0  0  0  0  0  0
   22.7302    6.1401   54.9761 C   0  0  0  0  0  0  0  0  0  0  0  0
   23.9692    6.7254   54.9955 C   0  0  0  0  0  0  0  0  0  0  0  0
   20.4108    6.0765   54.1259 C   0  0  0  0  0  0  0  0  0  0  0  0
   20.2094    4.8859   53.6553 C   0  0  0  0  0  0  0  0  0  0  0  0
   21.1356    3.9155   53.1045 C   0  0  0  0  0  0  0  0  0  0  0  0
   22.4018    4.0346   52.9933 O   0  0  0  0  0  0  0  0  0  0  0  0
   20.3601    2.7919   52.7104 N   0  0  0  0  0  0  0  0  0  0  0  0
   18.9863    3.0006   52.9853 C   0  0  0  0  0  0  0  0  0  0  0  0
   17.8444    2.2188   52.7918 C   0  0  0  0  0  0  0  0  0  0  0  0
   16.6084    2.6732   53.1570 C   0  0  0  0  0  0  0  0  0  0  0  0
   16.4902    3.9273   53.7272 C   0  0  0  0  0  0  0  0  0  0  0  0
   15.1295    4.3838   54.1101 C   0  0  0  0  0  0  0  0  0  0  0  0
   17.6174    4.6994   53.9183 C   0  0  0  0  0  0  0  0  0  0  0  0
   18.8687    4.2460   53.5513 C   0  0  0  0  0  0  0  0  0  0  0  0
   20.8012    1.9460   52.2775 H   0  0  0  0  0  0  0  0  0  0  0  0
   29.0022    7.9276   55.4030 C   0  0  0  0  0  0  0  0  0  0  0  0
   28.3454    8.9311   54.5893 N   0  0  0  0  0  0  0  0  0  0  0  0
   27.3646    9.6048   55.3808 C   0  0  0  0  0  0  0  0  0  0  0  0
   26.2088    8.6303   55.6192 C   0  0  0  0  0  0  0  0  0  0  0  0
   25.5999    8.3880   54.3279 N   0  0  0  0  0  0  0  0  0  0  0  0
   26.3712    8.7190   53.1505 C   0  0  0  0  0  0  0  0  0  0  0  0
   27.8150    8.2954   53.4220 C   0  0  0  0  0  0  0  0  0  0  0  0
 20 21  1  0  0  0
 21 22  1  0  0  0
 22 23  1  0  0  0
 23 24  1  0  0  0
 24 25  1  0  0  0
 25 26  1  0  0  0
 24  1  1  0  0  0
  1  2  2  0  0  0
  2  3  1  0  0  0
  3  4  2  0  0  0
  4  7  1  0  0  0
  7  8  2  0  0  0
  8  9  1  0  0  0
  9 10  2  0  0  0
  9 11  1  0  0  0
 11 12  1  0  0  0
 12 13  2  0  0  0
 13 14  1  0  0  0
 14 15  2  0  0  0
 15 16  1  0  0  0
 15 17  1  0  0  0
 17 18  2  0  0  0
  4  5  1  0  0  0
  5  6  2  0  0  0
 26 21  1  0  0  0
  6  1  1  0  0  0
 18  8  1  0  0  0
 18 12  1  0  0  0
 11 19  1  0  0  0
M  END
> <minimizedAffinity>
36.00698

> <CNNscore>
0.5180757642

> <CNNaffinity>
5.7542371750

> <CNN_VS>
2.9811308384

> <CNNaffinity_variance>
0.1596711427

$$$$
[H]/C(=C1/C(=O)N([H])c2c([H])c([H])c(C([H])([H])[H])c([H])c21)c1c([H])c([H])c(N2C([H])([H])C([H])([H])N(C([H])([H])[H])C([H])([H])C2([H])[H])c([H])c1[H]


 26 29  0  0  0  0  0  0  0  0999 V2000
   26.3046    9.3538   55.8336 C   0  0  0  0  0  0  0  0  0  0  0  0
   26.6204    8.2784   55.0298 C   0  0  0  0  0  0  0  0  0  0  0  0
   25.6658    7.4232   54.5397 C   0  0  0  0  0  0  0  0  0  0  0  0
   24.3452    7.5989   54.8285 C   0  0  0  0  0  0  0  0  0  0  0  0
   23.9918    8.6816   55.6416 C   0  0  0  0  0  0  0  0  0  0  0  0
   24.9704    9.5165   56.1143 C   0  0  0  0  0  0  0  0  0  0  0  0
   23.3286    6.6954   54.3296 C   0  0  0  0  0  0  0  0  0  0  0  0
   22.1018    7.0630   54.1315 C   0  0  0  0  0  0  0  0  0  0  0  0
   21.4550    8.3470   54.3211 C   0  0  0  0  0  0  0  0  0  0  0  0
   21.9980    9.4335   54.7139 O   0  0  0  0  0  0  0  0  0  0  0  0
   20.0874    8.1673   53.9799 N   0  0  0  0  0  0  0  0  0  0  0  0
   19.8339    6.8319   53.5813 C   0  0  0  0  0  0  0  0  0  0  0  0
   18.6813    6.1636   53.1600 C   0  0  0  0  0  0  0  0  0  0  0  0
   18.7163    4.8388   52.8264 C   0  0  0  0  0  0  0  0  0  0  0  0
   19.9137    4.1523   52.9083 C   0  0  0  0  0  0  0  0  0  0  0  0
   19.9092    2.7141   52.5368 C   0  0  0  0  0  0  0  0  0  0  0  0
   21.0518    4.8117   53.3243 C   0  0  0  0  0  0  0  0  0  0  0  0
   21.0228    6.1499   53.6627 C   0  0  0  0  0  0  0  0  0  0  0  0
   19.4003    8.9564   54.0349 H   0  0  0  0  0  0  0  0  0  0  0  0
   28.4622   12.0068   59.2702 C   0  0  0  0  0  0  0  0  0  0  0  0
   28.9771   11.8474   57.9248 N   0  0  0  0  0  0  0  0  0  0  0  0
   28.0509   12.4207   56.9998 C   0  0  0  0  0  0  0  0  0  0  0  0
   26.8229   11.5090   56.9446 C   0  0  0  0  0  0  0  0  0  0  0  0
   27.2633   10.2577   56.3638 N   0  0  0  0  0  0  0  0  0  0  0  0
   28.6833    9.9849   56.3571 C   0  0  0  0  0  0  0  0  0  0  0  0
   29.2410   10.4590   57.6995 C   0  0  0  0  0  0  0  0  0  0  0  0
 20 21  1  0  0  0
 21 22  1  0  0  0
 22 23  1  0  0  0
 23 24  1  0  0  0
 24 25  1  0  0  0
 25 26  1  0  0  0
 24  1  1  0  0  0
  1  2  2  0  0  0
  2  3  1  0  0  0
  3  4  2  0  0  0
  4  7  1  0  0  0
  7  8  2  0  0  0
  8  9  1  0  0  0
  9 10  2  0  0  0
  9 11  1  0  0  0
 11 12  1  0  0  0
 12 13  2  0  0  0
 13 14  1  0  0  0
 14 15  2  0  0  0
 15 16  1  0  0  0
 15 17  1  0  0  0
 17 18  2  0  0  0
  4  5  1  0  0  0
  5  6  2  0  0  0
 26 21  1  0  0  0
  6  1  1  0  0  0
 18  8  1  0  0  0
 18 12  1  0  0  0
 11 19  1  0  0  0
M  END
> <minimizedAffinity>
36.58261

> <CNNscore>
0.5009946227

> <CNNaffinity>
5.6089115143

> <CNN_VS>
2.8100345135

> <CNNaffinity_variance>
0.7764848471

$$$$
[H]/C(=C1/C(=O)N([H])c2c([H])c([H])c(C([H])([H])[H])c([H])c21)c1c([H])c([H])c(N2C([H])([H])C([H])([H])N(C([H])([H])[H])C([H])([H])C2([H])[H])c([H])c1[H]


 26 29  0  0  0  0  0  0  0  0999 V2000
   25.9685    7.8117   54.4404 C   0  0  0  0  0  0  0  0  0  0  0  0
   25.2427    7.9647   53.2776 C   0  0  0  0  0  0  0  0  0  0  0  0
   24.0563    7.3101   53.0614 C   0  0  0  0  0  0  0  0  0  0  0  0
   23.5341    6.4675   53.9973 C   0  0  0  0  0  0  0  0  0  0  0  0
   24.2466    6.2909   55.1887 C   0  0  0  0  0  0  0  0  0  0  0  0
   25.4283    6.9602   55.3722 C   0  0  0  0  0  0  0  0  0  0  0  0
   22.2900    5.7590   53.7762 C   0  0  0  0  0  0  0  0  0  0  0  0
   21.1336    6.3413   53.8320 C   0  0  0  0  0  0  0  0  0  0  0  0
   20.7801    7.7229   54.0950 C   0  0  0  0  0  0  0  0  0  0  0  0
   21.5785    8.6963   54.3068 O   0  0  0  0  0  0  0  0  0  0  0  0
   19.3610    7.7913   54.0686 N   0  0  0  0  0  0  0  0  0  0  0  0
   18.7956    6.5206   53.8003 C   0  0  0  0  0  0  0  0  0  0  0  0
   17.4795    6.0688   53.6729 C   0  0  0  0  0  0  0  0  0  0  0  0
   17.2070    4.7567   53.4047 C   0  0  0  0  0  0  0  0  0  0  0  0
   18.2535    3.8652   53.2575 C   0  0  0  0  0  0  0  0  0  0  0  0
   17.9148    2.4484   52.9664 C   0  0  0  0  0  0  0  0  0  0  0  0
   19.5530    4.3108   53.3833 C   0  0  0  0  0  0  0  0  0  0  0  0
   19.8347    5.6349   53.6543 C   0  0  0  0  0  0  0  0  0  0  0  0
   18.8524    8.6923   54.2333 H   0  0  0  0  0  0  0  0  0  0  0  0
   29.3523   11.2443   53.9203 C   0  0  0  0  0  0  0  0  0  0  0  0
   29.3948   10.2097   54.9344 N   0  0  0  0  0  0  0  0  0  0  0  0
   29.5085    8.9358   54.2968 C   0  0  0  0  0  0  0  0  0  0  0  0
   28.1657    8.6268   53.6306 C   0  0  0  0  0  0  0  0  0  0  0  0
   27.2015    8.4675   54.6992 N   0  0  0  0  0  0  0  0  0  0  0  0
   27.5476    8.9982   55.9989 C   0  0  0  0  0  0  0  0  0  0  0  0
   28.2396   10.3421   55.7689 C   0  0  0  0  0  0  0  0  0  0  0  0
 20 21  1  0  0  0
 21 22  1  0  0  0
 22 23  1  0  0  0
 23 24  1  0  0  0
 24 25  1  0  0  0
 25 26  1  0  0  0
 24  1  1  0  0  0
  1  2  2  0  0  0
  2  3  1  0  0  0
  3  4  2  0  0  0
  4  7  1  0  0  0
  7  8  2  0  0  0
  8  9  1  0  0  0
  9 10  2  0  0  0
  9 11  1  0  0  0
 11 12  1  0  0  0
 12 13  2  0  0  0
 13 14  1  0  0  0
 14 15  2  0  0  0
 15 16  1  0  0  0
 15 17  1  0  0  0
 17 18  2  0  0  0
  4  5  1  0  0  0
  5  6  2  0  0  0
 26 21  1  0  0  0
  6  1  1  0  0  0
 18  8  1  0  0  0
 18 12  1  0  0  0
 11 19  1  0  0  0
M  END
> <minimizedAffinity>
37.78556

> <CNNscore>
0.4149070382

> <CNNaffinity>
5.6601996422

> <CNN_VS>
2.3484566212

> <CNNaffinity_variance>
0.5519574881

$$$$
[H]/C(=C1/C(=O)N([H])c2c([H])c([H])c(C([H])([H])[H])c([H])c21)c1c([H])c([H])c(N2C([H])([H])C([H])([H])N(C([H])([H])[H])C([H])([H])C2([H])[H])c([H])c1[H]


 26 29  0  0  0  0  0  0  0  0999 V2000
   24.7280    7.5065   54.0336 C   0  0  0  0  0  0  0  0  0  0  0  0
   23.8456    7.7329   52.9980 C   0  0  0  0  0  0  0  0  0  0  0  0
   22.6805    7.0218   52.8578 C   0  0  0  0  0  0  0  0  0  0  0  0
   22.3373    6.0466   53.7464 C   0  0  0  0  0  0  0  0  0  0  0  0
   23.2116    5.7928   54.8090 C   0  0  0  0  0  0  0  0  0  0  0  0
   24.3669    6.5215   54.9194 C   0  0  0  0  0  0  0  0  0  0  0  0
   21.1174    5.2785   53.6022 C   0  0  0  0  0  0  0  0  0  0  0  0
   19.9400    5.8057   53.7250 C   0  0  0  0  0  0  0  0  0  0  0  0
   19.5372    7.1706   54.0040 C   0  0  0  0  0  0  0  0  0  0  0  0
   20.2994    8.1820   54.1644 O   0  0  0  0  0  0  0  0  0  0  0  0
   18.1174    7.1714   54.0620 N   0  0  0  0  0  0  0  0  0  0  0  0
   17.5983    5.8737   53.8322 C   0  0  0  0  0  0  0  0  0  0  0  0
   16.3000    5.3593   53.7852 C   0  0  0  0  0  0  0  0  0  0  0  0
   16.0749    4.0341   53.5381 C   0  0  0  0  0  0  0  0  0  0  0  0
   17.1522    3.1923   53.3318 C   0  0  0  0  0  0  0  0  0  0  0  0
   16.8647    1.7593   53.0662 C   0  0  0  0  0  0  0  0  0  0  0  0
   18.4341    3.6998   53.3782 C   0  0  0  0  0  0  0  0  0  0  0  0
   18.6679    5.0374   53.6275 C   0  0  0  0  0  0  0  0  0  0  0  0
   17.5771    8.0483   54.2537 H   0  0  0  0  0  0  0  0  0  0  0  0
   29.2985    8.1620   55.5114 C   0  0  0  0  0  0  0  0  0  0  0  0
   28.5709    9.1019   54.6821 N   0  0  0  0  0  0  0  0  0  0  0  0
   27.4589    9.6122   55.4206 C   0  0  0  0  0  0  0  0  0  0  0  0
   26.4286    8.4876   55.5479 C   0  0  0  0  0  0  0  0  0  0  0  0
   25.9449    8.2173   54.2100 N   0  0  0  0  0  0  0  0  0  0  0  0
   26.7428    8.6899   53.1005 C   0  0  0  0  0  0  0  0  0  0  0  0
   28.2085    8.4473   53.4621 C   0  0  0  0  0  0  0  0  0  0  0  0
 20 21  1  0  0  0
 21 22  1  0  0  0
 22 23  1  0  0  0
 23 24  1  0  0  0
 24 25  1  0  0  0
 25 26  1  0  0  0
 24  1  1  0  0  0
  1  2  2  0  0  0
  2  3  1  0  0  0
  3  4  2  0  0  0
  4  7  1  0  0  0
  7  8  2  0  0  0
  8  9  1  0  0  0
  9 10  2  0  0  0
  9 11  1  0  0  0
 11 12  1  0  0  0
 12 13  2  0  0  0
 13 14  1  0  0  0
 14 15  2  0  0  0
 15 16  1  0  0  0
 15 17  1  0  0  0
 17 18  2  0  0  0
  4  5  1  0  0  0
  5  6  2  0  0  0
 26 21  1  0  0  0
  6  1  1  0  0  0
 18  8  1  0  0  0
 18 12  1  0  0  0
 11 19  1  0  0  0
M  END
> <minimizedAffinity>
33.83947

> <CNNscore>
0.4012696445

> <CNNaffinity>
5.5594482422

> <CNN_VS>
2.2308378220

> <CNNaffinity_variance>
0.4132623672

$$$$
[H]/C(=C1/C(=O)N([H])c2c([H])c([H])c(C([H])([H])[H])c([H])c21)c1c([H])c([H])c(N2C([H])([H])C([H])([H])N(C([H])([H])[H])C([H])([H])C2([H])[H])c([H])c1[H]


 26 29  0  0  0  0  0  0  0  0999 V2000
   26.7101    9.4738   56.5119 C   0  0  0  0  0  0  0  0  0  0  0  0
   26.8302    8.7638   55.3356 C   0  0  0  0  0  0  0  0  0  0  0  0
   25.7633    8.5368   54.5031 C   0  0  0  0  0  0  0  0  0  0  0  0
   24.5200    9.0080   54.8043 C   0  0  0  0  0  0  0  0  0  0  0  0
   24.3650    9.7328   55.9912 C   0  0  0  0  0  0  0  0  0  0  0  0
   25.4516    9.9414   56.7998 C   0  0  0  0  0  0  0  0  0  0  0  0
   23.3821    8.7633   53.9417 C   0  0  0  0  0  0  0  0  0  0  0  0
   22.7039    7.6595   53.9744 C   0  0  0  0  0  0  0  0  0  0  0  0
   22.8592    6.4758   54.7976 C   0  0  0  0  0  0  0  0  0  0  0  0
   23.7206    6.2859   55.7205 O   0  0  0  0  0  0  0  0  0  0  0  0
   21.8580    5.5573   54.3816 N   0  0  0  0  0  0  0  0  0  0  0  0
   21.0730    6.1003   53.3350 C   0  0  0  0  0  0  0  0  0  0  0  0
   19.9909    5.6095   52.5998 C   0  0  0  0  0  0  0  0  0  0  0  0
   19.4045    6.3611   51.6205 C   0  0  0  0  0  0  0  0  0  0  0  0
   19.8931    7.6273   51.3562 C   0  0  0  0  0  0  0  0  0  0  0  0
   19.2278    8.4117   50.2844 C   0  0  0  0  0  0  0  0  0  0  0  0
   20.9615    8.1121   52.0818 C   0  0  0  0  0  0  0  0  0  0  0  0
   21.5581    7.3576   53.0722 C   0  0  0  0  0  0  0  0  0  0  0  0
   21.7598    4.6143   54.8274 H   0  0  0  0  0  0  0  0  0  0  0  0
   28.9917   11.6318   60.2052 C   0  0  0  0  0  0  0  0  0  0  0  0
   29.5202   10.4954   59.4772 N   0  0  0  0  0  0  0  0  0  0  0  0
   29.7527   10.8780   58.1201 C   0  0  0  0  0  0  0  0  0  0  0  0
   28.3903   11.0419   57.4423 C   0  0  0  0  0  0  0  0  0  0  0  0
   27.7884    9.7255   57.4014 N   0  0  0  0  0  0  0  0  0  0  0  0
   28.3229    8.7162   58.2882 C   0  0  0  0  0  0  0  0  0  0  0  0
   28.6139    9.3978   59.6256 C   0  0  0  0  0  0  0  0  0  0  0  0
 20 21  1  0  0  0
 21 22  1  0  0  0
 22 23  1  0  0  0
 23 24  1  0  0  0
 24 25  1  0  0  0
 25 26  1  0  0  0
 24  1  1  0  0  0
  1  2  2  0  0  0
  2  3  1  0  0  0
  3  4  2  0  0  0
  4  7  1  0  0  0
  7  8  2  0  0  0
  8  9  1  0  0  0
  9 10  2  0  0  0
  9 11  1  0  0  0
 11 12  1  0  0  0
 12 13  2  0  0  0
 13 14  1  0  0  0
 14 15  2  0  0  0
 15 16  1  0  0  0
 15 17  1  0  0  0
 17 18  2  0  0  0
  4  5  1  0  0  0
  5  6  2  0  0  0
 26 21  1  0  0  0
  6  1  1  0  0  0
 18  8  1  0  0  0
 18 12  1  0  0  0
 11 19  1  0  0  0
M  END
> <minimizedAffinity>
27.71892

> <CNNscore>
0.3760023117

> <CNNaffinity>
5.6507101059

> <CNN_VS>
2.1246800423

> <CNNaffinity_variance>
0.7241190076

$$$$
[H]/C(=C1/C(=O)N([H])c2c([H])c([H])c(C([H])([H])[H])c([H])c21)c1c([H])c([H])c(N2C([H])([H])C([H])([H])N(C([H])([H])[H])C([H])([H])C2([H])[H])c([H])c1[H]


 26 29  0  0  0  0  0  0  0  0999 V2000
   20.0859    6.0513   54.2853 C   0  0  0  0  0  0  0  0  0  0  0  0
   21.1881    5.2851   54.6022 C   0  0  0  0  0  0  0  0  0  0  0  0
   22.3857    5.8410   54.9753 C   0  0  0  0  0  0  0  0  0  0  0  0
   22.5436    7.1930   55.0506 C   0  0  0  0  0  0  0  0  0  0  0  0
   21.4436    7.9986   54.7355 C   0  0  0  0  0  0  0  0  0  0  0  0
   20.2619    7.4106   54.3666 C   0  0  0  0  0  0  0  0  0  0  0  0
   23.8064    7.7935   55.4292 C   0  0  0  0  0  0  0  0  0  0  0  0
   24.7774    7.9692   54.5891 C   0  0  0  0  0  0  0  0  0  0  0  0
   24.8755    7.6595   53.1758 C   0  0  0  0  0  0  0  0  0  0  0  0
   23.9696    7.1522   52.4329 O   0  0  0  0  0  0  0  0  0  0  0  0
   26.1837    8.0347   52.7674 N   0  0  0  0  0  0  0  0  0  0  0  0
   26.9214    8.5691   53.8522 C   0  0  0  0  0  0  0  0  0  0  0  0
   28.2205    9.0703   53.9685 C   0  0  0  0  0  0  0  0  0  0  0  0
   28.6927    9.5353   55.1638 C   0  0  0  0  0  0  0  0  0  0  0  0
   27.8682    9.5077   56.2734 C   0  0  0  0  0  0  0  0  0  0  0  0
   28.4193   10.0223   57.5532 C   0  0  0  0  0  0  0  0  0  0  0  0
   26.5856    9.0128   56.1589 C   0  0  0  0  0  0  0  0  0  0  0  0
   26.1029    8.5415   54.9543 C   0  0  0  0  0  0  0  0  0  0  0  0
   26.5065    7.9092   51.7786 H   0  0  0  0  0  0  0  0  0  0  0  0
   15.8348    3.8071   54.9142 C   0  0  0  0  0  0  0  0  0  0  0  0
   16.2411    4.4445   53.6775 N   0  0  0  0  0  0  0  0  0  0  0  0
   17.3835    3.7633   53.1549 C   0  0  0  0  0  0  0  0  0  0  0  0
   18.5767    4.0978   54.0531 C   0  0  0  0  0  0  0  0  0  0  0  0
   18.8319    5.5139   53.8904 N   0  0  0  0  0  0  0  0  0  0  0  0
   17.7754    6.3251   53.3277 C   0  0  0  0  0  0  0  0  0  0  0  0
   16.4590    5.8359   53.9323 C   0  0  0  0  0  0  0  0  0  0  0  0
 20 21  1  0  0  0
 21 22  1  0  0  0
 22 23  1  0  0  0
 23 24  1  0  0  0
 24 25  1  0  0  0
 25 26  1  0  0  0
 24  1  1  0  0  0
  1  2  2  0  0  0
  2  3  1  0  0  0
  3  4  2  0  0  0
  4  7  1  0  0  0
  7  8  2  0  0  0
  8  9  1  0  0  0
  9 10  2  0  0  0
  9 11  1  0  0  0
 11 12  1  0  0  0
 12 13  2  0  0  0
 13 14  1  0  0  0
 14 15  2  0  0  0
 15 16  1  0  0  0
 15 17  1  0  0  0
 17 18  2  0  0  0
  4  5  1  0  0  0
  5  6  2  0  0  0
 26 21  1  0  0  0
  6  1  1  0  0  0
 18  8  1  0  0  0
 18 12  1  0  0  0
 11 19  1  0  0  0
M  END
> <minimizedAffinity>
32.69973

> <CNNscore>
0.3596364856

> <CNNaffinity>
5.6827950478

> <CNN_VS>
2.0437405109

> <CNNaffinity_variance>
0.7754024267

$$$$
[H]/C(=C1/C(=O)N([H])c2c([H])c([H])c(C([H])([H])[H])c([H])c21)c1c([H])c([H])c(N2C([H])([H])C([H])([H])N(C([H])([H])[H])C([H])([H])C2([H])[H])c([H])c1[H]


 26 29  0  0  0  0  0  0  0  0999 V2000
   20.4028    6.3407   54.2340 C   0  0  0  0  0  0  0  0  0  0  0  0
   20.5294    7.7116   54.3165 C   0  0  0  0  0  0  0  0  0  0  0  0
   21.6965    8.3188   54.7062 C   0  0  0  0  0  0  0  0  0  0  0  0
   22.7983    7.5860   55.0343 C   0  0  0  0  0  0  0  0  0  0  0  0
   22.7024    6.1919   54.9605 C   0  0  0  0  0  0  0  0  0  0  0  0
   21.5216    5.6179   54.5674 C   0  0  0  0  0  0  0  0  0  0  0  0
   24.0323    8.2135   55.4611 C   0  0  0  0  0  0  0  0  0  0  0  0
   25.1163    8.1797   54.7518 C   0  0  0  0  0  0  0  0  0  0  0  0
   25.3851    7.5781   53.4600 C   0  0  0  0  0  0  0  0  0  0  0  0
   24.5589    6.9545   52.7128 O   0  0  0  0  0  0  0  0  0  0  0  0
   26.7565    7.8193   53.1769 N   0  0  0  0  0  0  0  0  0  0  0  0
   27.3720    8.5462   54.2254 C   0  0  0  0  0  0  0  0  0  0  0  0
   28.6712    9.0208   54.4236 C   0  0  0  0  0  0  0  0  0  0  0  0
   29.0050    9.7110   55.5549 C   0  0  0  0  0  0  0  0  0  0  0  0
   28.0384    9.9415   56.5163 C   0  0  0  0  0  0  0  0  0  0  0  0
   28.4419   10.6956   57.7309 C   0  0  0  0  0  0  0  0  0  0  0  0
   26.7557    9.4730   56.3210 C   0  0  0  0  0  0  0  0  0  0  0  0
   26.4124    8.7750   55.1804 C   0  0  0  0  0  0  0  0  0  0  0  0
   27.2015    7.4798   52.2913 H   0  0  0  0  0  0  0  0  0  0  0  0
   16.4094    3.6654   54.8657 C   0  0  0  0  0  0  0  0  0  0  0  0
   16.7463    4.3414   53.6287 N   0  0  0  0  0  0  0  0  0  0  0  0
   17.9533    3.7829   53.1056 C   0  0  0  0  0  0  0  0  0  0  0  0
   19.1055    4.2404   54.0032 C   0  0  0  0  0  0  0  0  0  0  0  0
   19.2115    5.6753   53.8400 N   0  0  0  0  0  0  0  0  0  0  0  0
   18.0758    6.3717   53.2776 C   0  0  0  0  0  0  0  0  0  0  0  0
   16.8180    5.7479   53.8831 C   0  0  0  0  0  0  0  0  0  0  0  0
 20 21  1  0  0  0
 21 22  1  0  0  0
 22 23  1  0  0  0
 23 24  1  0  0  0
 24 25  1  0  0  0
 25 26  1  0  0  0
 24  1  1  0  0  0
  1  2  2  0  0  0
  2  3  1  0  0  0
  3  4  2  0  0  0
  4  7  1  0  0  0
  7  8  2  0  0  0
  8  9  1  0  0  0
  9 10  2  0  0  0
  9 11  1  0  0  0
 11 12  1  0  0  0
 12 13  2  0  0  0
 13 14  1  0  0  0
 14 15  2  0  0  0
 15 16  1  0  0  0
 15 17  1  0  0  0
 17 18  2  0  0  0
  4  5  1  0  0  0
  5  6  2  0  0  0
 26 21  1  0  0  0
  6  1  1  0  0  0
 18  8  1  0  0  0
 18 12  1  0  0  0
 11 19  1  0  0  0
M  END
> <minimizedAffinity>
29.35974

> <CNNscore>
0.3430899680

> <CNNaffinity>
5.6565594673

> <CNN_VS>
1.9407087564

> <CNNaffinity_variance>
0.7813294530

$$$$
[H]/C(=C1/C(=O)N([H])c2c([H])c([H])c(C([H])([H])[H])c([H])c21)c1c([H])c([H])c(N2C([H])([H])C([H])([H])N(C([H])([H])[H])C([H])([H])C2([H])[H])c([H])c1[H]


 26 29  0  0  0  0  0  0  0  0999 V2000
   19.6630    5.5761   53.5357 C   0  0  0  0  0  0  0  0  0  0  0  0
   19.7816    6.8870   53.1235 C   0  0  0  0  0  0  0  0  0  0  0  0
   20.9960    7.4619   52.8456 C   0  0  0  0  0  0  0  0  0  0  0  0
   22.1557    6.7555   52.9660 C   0  0  0  0  0  0  0  0  0  0  0  0
   22.0693    5.4222   53.3820 C   0  0  0  0  0  0  0  0  0  0  0  0
   20.8403    4.8791   53.6513 C   0  0  0  0  0  0  0  0  0  0  0  0
   23.4457    7.3543   52.6897 C   0  0  0  0  0  0  0  0  0  0  0  0
   24.3735    7.4627   53.5879 C   0  0  0  0  0  0  0  0  0  0  0  0
   24.3977    7.0552   54.9794 C   0  0  0  0  0  0  0  0  0  0  0  0
   23.4742    6.4526   55.6226 O   0  0  0  0  0  0  0  0  0  0  0  0
   25.6592    7.4541   55.4977 N   0  0  0  0  0  0  0  0  0  0  0  0
   26.4384    8.0941   54.5028 C   0  0  0  0  0  0  0  0  0  0  0  0
   27.7184    8.6545   54.5065 C   0  0  0  0  0  0  0  0  0  0  0  0
   28.2430    9.2222   53.3795 C   0  0  0  0  0  0  0  0  0  0  0  0
   27.4917    9.2401   52.2189 C   0  0  0  0  0  0  0  0  0  0  0  0
   28.0982    9.8663   51.0161 C   0  0  0  0  0  0  0  0  0  0  0  0
   26.2279    8.6870   52.2149 C   0  0  0  0  0  0  0  0  0  0  0  0
   25.6925    8.1121   53.3502 C   0  0  0  0  0  0  0  0  0  0  0  0
   25.9245    7.2723   56.4948 H   0  0  0  0  0  0  0  0  0  0  0  0
   15.1294    4.0863   52.6812 C   0  0  0  0  0  0  0  0  0  0  0  0
   15.8913    3.7319   53.8621 N   0  0  0  0  0  0  0  0  0  0  0  0
   16.1671    4.9165   54.6123 C   0  0  0  0  0  0  0  0  0  0  0  0
   17.2064    5.7283   53.8357 C   0  0  0  0  0  0  0  0  0  0  0  0
   18.4258    4.9471   53.8372 N   0  0  0  0  0  0  0  0  0  0  0  0
   18.3191    3.5388   54.1469 C   0  0  0  0  0  0  0  0  0  0  0  0
   17.0612    3.0170   53.4518 C   0  0  0  0  0  0  0  0  0  0  0  0
 20 21  1  0  0  0
 21 22  1  0  0  0
 22 23  1  0  0  0
 23 24  1  0  0  0
 24 25  1  0  0  0
 25 26  1  0  0  0
 24  1  1  0  0  0
  1  2  2  0  0  0
  2  3  1  0  0  0
  3  4  2  0  0  0
  4  7  1  0  0  0
  7  8  2  0  0  0
  8  9  1  0  0  0
  9 10  2  0  0  0
  9 11  1  0  0  0
 11 12  1  0  0  0
 12 13  2  0  0  0
 13 14  1  0  0  0
 14 15  2  0  0  0
 15 16  1  0  0  0
 15 17  1  0  0  0
 17 18  2  0  0  0
  4  5  1  0  0  0
  5  6  2  0  0  0
 26 21  1  0  0  0
  6  1  1  0  0  0
 18  8  1  0  0  0
 18 12  1  0  0  0
 11 19  1  0  0  0
M  END
> <minimizedAffinity>
34.59920

> <CNNscore>
0.3146787286

> <CNNaffinity>
5.7618498802

> <CNN_VS>
1.8131315708

> <CNNaffinity_variance>
0.7257033587

$$$$
[H]c1nc2c([H])c(OC([H])([H])C([H])([H])C([H])([H])N3C([H])([H])C([H])([H])C([H])([H])C([H])([H])C3([H])[H])c(OC([H])([H])[H])c([H])c2c(Oc2c([H])c([H])c(N([H])C(=O)C3(C(=O)N([H])c4c([H])c([H])c(F)c([H])c4[H])C([H])([H])C3([H])[H])c([H])c2F)c1[H]


 48 53  0  0  0  0  0  0  0  0999 V2000
   26.3354    9.7064   56.3186 C   0  0  0  0  0  0  0  0  0  0  0  0
   27.2774    8.8464   56.8337 C   0  0  0  0  0  0  0  0  0  0  0  0
   28.3073    9.2567   57.6825 C   0  0  0  0  0  0  0  0  0  0  0  0
   28.4329   10.5791   58.0559 C   0  0  0  0  0  0  0  0  0  0  0  0
   27.5021   11.4486   57.5510 C   0  0  0  0  0  0  0  0  0  0  0  0
   26.4872   11.0574   56.7168 C   0  0  0  0  0  0  0  0  0  0  0  0
   25.6049   11.9667   56.2480 F   0  0  0  0  0  0  0  0  0  0  0  0
   29.4566   10.9646   58.9683 N   0  0  0  0  0  0  0  0  0  0  0  0
   29.5613   10.6001   60.3041 C   0  0  0  0  0  0  0  0  0  0  0  0
   28.6825    9.8916   60.8551 O   0  0  0  0  0  0  0  0  0  0  0  0
   30.1835   11.6447   58.5625 H   0  0  0  0  0  0  0  0  0  0  0  0
   30.6903   11.0314   61.1459 C   0  0  0  0  0  0  0  0  0  0  0  0
   31.2299   10.0424   62.1339 C   0  0  0  0  0  0  0  0  0  0  0  0
   32.0167   10.3394   60.9402 C   0  0  0  0  0  0  0  0  0  0  0  0
   30.7176   12.4444   61.5888 C   0  0  0  0  0  0  0  0  0  0  0  0
   30.7859   12.6420   62.8373 O   0  0  0  0  0  0  0  0  0  0  0  0
   30.6805   13.5094   60.6791 N   0  0  0  0  0  0  0  0  0  0  0  0
   30.7203   13.2062   59.6426 H   0  0  0  0  0  0  0  0  0  0  0  0
   30.6655   14.8848   60.9595 C   0  0  0  0  0  0  0  0  0  0  0  0
   31.7571   15.6669   61.1378 C   0  0  0  0  0  0  0  0  0  0  0  0
   31.6718   17.0268   61.4111 C   0  0  0  0  0  0  0  0  0  0  0  0
   30.4204   17.5853   61.5013 C   0  0  0  0  0  0  0  0  0  0  0  0
   30.2254   18.9198   61.7694 F   0  0  0  0  0  0  0  0  0  0  0  0
   29.2991   16.8187   61.3254 C   0  0  0  0  0  0  0  0  0  0  0  0
   29.4227   15.4877   61.0584 C   0  0  0  0  0  0  0  0  0  0  0  0
   25.3304    9.3857   55.5034 O   0  0  0  0  0  0  0  0  0  0  0  0
   23.3477    6.2530   53.9646 C   0  0  0  0  0  0  0  0  0  0  0  0
   24.0280    7.3515   54.5114 C   0  0  0  0  0  0  0  0  0  0  0  0
   23.3098    8.4987   54.7842 C   0  0  0  0  0  0  0  0  0  0  0  0
   24.0386    9.5958   55.3197 C   0  0  0  0  0  0  0  0  0  0  0  0
   23.2988   10.7218   55.5629 C   0  0  0  0  0  0  0  0  0  0  0  0
   21.9428   10.7452   55.2897 C   0  0  0  0  0  0  0  0  0  0  0  0
   21.2926    9.6922   54.7849 N   0  0  0  0  0  0  0  0  0  0  0  0
   21.9644    8.5716   54.5301 C   0  0  0  0  0  0  0  0  0  0  0  0
   21.3045    7.4653   53.9835 C   0  0  0  0  0  0  0  0  0  0  0  0
   21.9796    6.3029   53.6963 C   0  0  0  0  0  0  0  0  0  0  0  0
   24.6103    4.9294   52.3989 C   0  0  0  0  0  0  0  0  0  0  0  0
   24.0293    5.0869   53.6775 O   0  0  0  0  0  0  0  0  0  0  0  0
   21.4198    5.1934   53.1702 O   0  0  0  0  0  0  0  0  0  0  0  0
   20.4625    4.3207   53.6277 C   0  0  0  0  0  0  0  0  0  0  0  0
   19.4228    3.8717   52.6353 C   0  0  0  0  0  0  0  0  0  0  0  0
   18.5476    2.8460   53.3305 C   0  0  0  0  0  0  0  0  0  0  0  0
   17.2116    3.2366   53.4855 N   0  0  0  0  0  0  0  0  0  0  0  0
   16.8530    3.9997   54.6079 C   0  0  0  0  0  0  0  0  0  0  0  0
   15.4361    4.4338   54.6609 C   0  0  0  0  0  0  0  0  0  0  0  0
   14.6856    4.3340   53.3745 C   0  0  0  0  0  0  0  0  0  0  0  0
   15.0612    3.1677   52.5153 C   0  0  0  0  0  0  0  0  0  0  0  0
   16.1758    2.3335   53.1146 C   0  0  0  0  0  0  0  0  0  0  0  0
 37 38  1  0  0  0
 38 27  1  0  0  0
 27 28  2  0  0  0
 28 29  1  0  0  0
 29 30  2  0  0  0
 30 26  1  0  0  0
 26  1  1  0  0  0
  1  2  2  0  0  0
  2  3  1  0  0  0
  3  4  2  0  0  0
  4  8  1  0  0  0
  8  9  1  0  0  0
  9 10  2  0  0  0
  9 12  1  0  0  0
 12 13  1  0  0  0
 13 14  1  0  0  0
 12 15  1  0  0  0
 15 16  2  0  0  0
 15 17  1  0  0  0
 17 19  1  0  0  0
 19 20  2  0  0  0
 20 21  1  0  0  0
 21 22  2  0  0  0
 22 23  1  0  0  0
 22 24  1  0  0  0
 24 25  2  0  0  0
  4  5  1  0  0  0
  5  6  2  0  0  0
  6  7  1  0  0  0
 30 31  1  0  0  0
 31 32  2  0  0  0
 32 33  1  0  0  0
 33 34  2  0  0  0
 34 35  1  0  0  0
 35 36  2  0  0  0
 36 39  1  0  0  0
 39 40  1  0  0  0
 40 41  1  0  0  0
 41 42  1  0  0  0
 42 43  1  0  0  0
 43 44  1  0  0  0
 44 45  1  0  0  0
 45 46  1  0  0  0
 46 47  1  0  0  0
 47 48  1  0  0  0
 36 27  1  0  0  0
 48 43  1  0  0  0
 34 29  1  0  0  0
  6  1  1  0  0  0
 14 12  1  0  0  0
 25 19  1  0  0  0
  8 11  1  0  0  0
 17 18  1  0  0  0
M  END
> <minimizedAffinity>
21.71476

> <CNNscore>
0.5678777099

> <CNNaffinity>
7.0733690262

> <CNN_VS>
4.0168085098

> <CNNaffinity_variance>
0.1894816160

$$$$
[H]c1nc2c([H])c(OC([H])([H])C([H])([H])C([H])([H])N3C([H])([H])C([H])([H])C([H])([H])C([H])([H])C3([H])[H])c(OC([H])([H])[H])c([H])c2c(Oc2c([H])c([H])c(N([H])C(=O)C3(C(=O)N([H])c4c([H])c([H])c(F)c([H])c4[H])C([H])([H])C3([H])[H])c([H])c2F)c1[H]


 48 53  0  0  0  0  0  0  0  0999 V2000
   21.1165   10.7443   52.1144 C   0  0  0  0  0  0  0  0  0  0  0  0
   21.1814   11.1346   50.7969 C   0  0  0  0  0  0  0  0  0  0  0  0
   21.5988   12.4045   50.3932 C   0  0  0  0  0  0  0  0  0  0  0  0
   21.9770   13.3537   51.3206 C   0  0  0  0  0  0  0  0  0  0  0  0
   21.9178   12.9802   52.6375 C   0  0  0  0  0  0  0  0  0  0  0  0
   21.5093   11.7370   53.0455 C   0  0  0  0  0  0  0  0  0  0  0  0
   21.4676   11.4338   54.3613 F   0  0  0  0  0  0  0  0  0  0  0  0
   22.4539   14.6226   50.8830 N   0  0  0  0  0  0  0  0  0  0  0  0
   21.6902   15.7499   50.6108 C   0  0  0  0  0  0  0  0  0  0  0  0
   20.4372   15.7219   50.6951 O   0  0  0  0  0  0  0  0  0  0  0  0
   23.5142   14.6662   50.7114 H   0  0  0  0  0  0  0  0  0  0  0  0
   22.2993   17.0258   50.1979 C   0  0  0  0  0  0  0  0  0  0  0  0
   22.0307   18.2261   51.0538 C   0  0  0  0  0  0  0  0  0  0  0  0
   23.3569   17.6167   51.0996 C   0  0  0  0  0  0  0  0  0  0  0  0
   22.4084   17.2979   48.7462 C   0  0  0  0  0  0  0  0  0  0  0  0
   23.5361   17.6960   48.3311 O   0  0  0  0  0  0  0  0  0  0  0  0
   21.3282   17.1163   47.8726 N   0  0  0  0  0  0  0  0  0  0  0  0
   20.4538   16.6822   48.3360 H   0  0  0  0  0  0  0  0  0  0  0  0
   21.2822   17.3665   46.4920 C   0  0  0  0  0  0  0  0  0  0  0  0
   21.6773   16.5097   45.5200 C   0  0  0  0  0  0  0  0  0  0  0  0
   21.6024   16.8199   44.1675 C   0  0  0  0  0  0  0  0  0  0  0  0
   21.1049   18.0516   43.8189 C   0  0  0  0  0  0  0  0  0  0  0  0
   20.9905   18.4579   42.5103 F   0  0  0  0  0  0  0  0  0  0  0  0
   20.6978   18.9380   44.7804 C   0  0  0  0  0  0  0  0  0  0  0  0
   20.7863   18.5978   46.0974 C   0  0  0  0  0  0  0  0  0  0  0  0
   20.7262    9.5539   52.5703 O   0  0  0  0  0  0  0  0  0  0  0  0
   24.1692    9.0836   54.5795 C   0  0  0  0  0  0  0  0  0  0  0  0
   22.9603    9.2344   53.8836 C   0  0  0  0  0  0  0  0  0  0  0  0
   22.3439    8.1034   53.3864 C   0  0  0  0  0  0  0  0  0  0  0  0
   21.1311    8.2998   52.6709 C   0  0  0  0  0  0  0  0  0  0  0  0
   20.5556    7.1594   52.1783 C   0  0  0  0  0  0  0  0  0  0  0  0
   21.1485    5.9267   52.3845 C   0  0  0  0  0  0  0  0  0  0  0  0
   22.2912    5.7827   53.0627 N   0  0  0  0  0  0  0  0  0  0  0  0
   22.8925    6.8594   53.5637 C   0  0  0  0  0  0  0  0  0  0  0  0
   24.0995    6.7305   54.2598 C   0  0  0  0  0  0  0  0  0  0  0  0
   24.7478    7.8290   54.7722 C   0  0  0  0  0  0  0  0  0  0  0  0
   24.4915   10.6326   56.3946 C   0  0  0  0  0  0  0  0  0  0  0  0
   24.8175   10.1896   55.0928 O   0  0  0  0  0  0  0  0  0  0  0  0
   25.9114    7.7915   55.4545 O   0  0  0  0  0  0  0  0  0  0  0  0
   27.1771    8.2453   55.1728 C   0  0  0  0  0  0  0  0  0  0  0  0
   27.7480    9.2851   56.1006 C   0  0  0  0  0  0  0  0  0  0  0  0
   27.7035    8.7114   57.5042 C   0  0  0  0  0  0  0  0  0  0  0  0
   28.2493    9.5466   58.4871 N   0  0  0  0  0  0  0  0  0  0  0  0
   28.5222   10.8856   58.1655 C   0  0  0  0  0  0  0  0  0  0  0  0
   29.0301   11.7211   59.2803 C   0  0  0  0  0  0  0  0  0  0  0  0
   28.8342   11.1551   60.6476 C   0  0  0  0  0  0  0  0  0  0  0  0
   28.9554    9.6662   60.7360 C   0  0  0  0  0  0  0  0  0  0  0  0
   29.2145    9.0186   59.3904 C   0  0  0  0  0  0  0  0  0  0  0  0
 37 38  1  0  0  0
 38 27  1  0  0  0
 27 28  2  0  0  0
 28 29  1  0  0  0
 29 30  2  0  0  0
 30 26  1  0  0  0
 26  1  1  0  0  0
  1  2  2  0  0  0
  2  3  1  0  0  0
  3  4  2  0  0  0
  4  8  1  0  0  0
  8  9  1  0  0  0
  9 10  2  0  0  0
  9 12  1  0  0  0
 12 13  1  0  0  0
 13 14  1  0  0  0
 12 15  1  0  0  0
 15 16  2  0  0  0
 15 17  1  0  0  0
 17 19  1  0  0  0
 19 20  2  0  0  0
 20 21  1  0  0  0
 21 22  2  0  0  0
 22 23  1  0  0  0
 22 24  1  0  0  0
 24 25  2  0  0  0
  4  5  1  0  0  0
  5  6  2  0  0  0
  6  7  1  0  0  0
 30 31  1  0  0  0
 31 32  2  0  0  0
 32 33  1  0  0  0
 33 34  2  0  0  0
 34 35  1  0  0  0
 35 36  2  0  0  0
 36 39  1  0  0  0
 39 40  1  0  0  0
 40 41  1  0  0  0
 41 42  1  0  0  0
 42 43  1  0  0  0
 43 44  1  0  0  0
 44 45  1  0  0  0
 45 46  1  0  0  0
 46 47  1  0  0  0
 47 48  1  0  0  0
 36 27  1  0  0  0
 48 43  1  0  0  0
 34 29  1  0  0  0
  6  1  1  0  0  0
 14 12  1  0  0  0
 25 19  1  0  0  0
  8 11  1  0  0  0
 17 18  1  0  0  0
M  END
> <minimizedAffinity>
18.91836

> <CNNscore>
0.5602138042

> <CNNaffinity>
6.7347831726

> <CNN_VS>
3.7729184628

> <CNNaffinity_variance>
0.1812814921

$$$$
[H]c1nc2c([H])c(OC([H])([H])C([H])([H])C([H])([H])N3C([H])([H])C([H])([H])C([H])([H])C([H])([H])C3([H])[H])c(OC([H])([H])[H])c([H])c2c(Oc2c([H])c([H])c(N([H])C(=O)C3(C(=O)N([H])c4c([H])c([H])c(F)c([H])c4[H])C([H])([H])C3([H])[H])c([H])c2F)c1[H]


 48 53  0  0  0  0  0  0  0  0999 V2000
   27.8275    9.8144   57.8774 C   0  0  0  0  0  0  0  0  0  0  0  0
   28.4950    9.0115   58.7731 C   0  0  0  0  0  0  0  0  0  0  0  0
   29.3547    9.5082   59.7549 C   0  0  0  0  0  0  0  0  0  0  0  0
   29.5817   10.8636   59.8778 C   0  0  0  0  0  0  0  0  0  0  0  0
   28.9241   11.6769   58.9926 C   0  0  0  0  0  0  0  0  0  0  0  0
   28.0784   11.2009   58.0247 C   0  0  0  0  0  0  0  0  0  0  0  0
   27.4651   12.0566   57.1781 F   0  0  0  0  0  0  0  0  0  0  0  0
   30.4175   11.3512   60.9232 N   0  0  0  0  0  0  0  0  0  0  0  0
   31.5438   10.7299   61.4463 C   0  0  0  0  0  0  0  0  0  0  0  0
   31.9100    9.5992   61.0398 O   0  0  0  0  0  0  0  0  0  0  0  0
   30.0898   12.2759   61.3624 H   0  0  0  0  0  0  0  0  0  0  0  0
   32.3564   11.3491   62.5072 C   0  0  0  0  0  0  0  0  0  0  0  0
   32.1973   10.8138   63.8977 C   0  0  0  0  0  0  0  0  0  0  0  0
   33.4167   10.4949   63.1604 C   0  0  0  0  0  0  0  0  0  0  0  0
   32.6110   12.8053   62.4172 C   0  0  0  0  0  0  0  0  0  0  0  0
   33.2356   13.3288   63.3859 O   0  0  0  0  0  0  0  0  0  0  0  0
   32.1946   13.5662   61.3168 N   0  0  0  0  0  0  0  0  0  0  0  0
   31.7592   12.9842   60.5171 H   0  0  0  0  0  0  0  0  0  0  0  0
   32.3378   14.9485   61.1185 C   0  0  0  0  0  0  0  0  0  0  0  0
   31.6184   15.9145   61.7385 C   0  0  0  0  0  0  0  0  0  0  0  0
   31.8130   17.2692   61.4975 C   0  0  0  0  0  0  0  0  0  0  0  0
   32.7790   17.6264   60.5890 C   0  0  0  0  0  0  0  0  0  0  0  0
   33.0497   18.9379   60.2769 F   0  0  0  0  0  0  0  0  0  0  0  0
   33.5216   16.6711   59.9472 C   0  0  0  0  0  0  0  0  0  0  0  0
   33.3021   15.3518   60.2100 C   0  0  0  0  0  0  0  0  0  0  0  0
   26.9972    9.4101   56.9159 O   0  0  0  0  0  0  0  0  0  0  0  0
   23.3663    9.1682   55.2216 C   0  0  0  0  0  0  0  0  0  0  0  0
   24.6417    9.2559   55.7996 C   0  0  0  0  0  0  0  0  0  0  0  0
   25.7216    8.7817   55.0816 C   0  0  0  0  0  0  0  0  0  0  0  0
   26.9942    8.8710   55.7092 C   0  0  0  0  0  0  0  0  0  0  0  0
   28.0397    8.3772   54.9762 C   0  0  0  0  0  0  0  0  0  0  0  0
   27.8256    7.8375   53.7206 C   0  0  0  0  0  0  0  0  0  0  0  0
   26.6123    7.7704   53.1640 N   0  0  0  0  0  0  0  0  0  0  0  0
   25.5607    8.2368   53.8337 C   0  0  0  0  0  0  0  0  0  0  0  0
   24.2801    8.1575   53.2753 C   0  0  0  0  0  0  0  0  0  0  0  0
   23.1767    8.6173   53.9541 C   0  0  0  0  0  0  0  0  0  0  0  0
   21.2551   10.3257   55.1963 C   0  0  0  0  0  0  0  0  0  0  0  0
   22.2603    9.6312   55.9066 O   0  0  0  0  0  0  0  0  0  0  0  0
   21.9108    8.5789   53.4882 O   0  0  0  0  0  0  0  0  0  0  0  0
   21.2697    7.7658   52.5853 C   0  0  0  0  0  0  0  0  0  0  0  0
   20.0553    7.0257   53.0806 C   0  0  0  0  0  0  0  0  0  0  0  0
   20.4914    5.6101   53.4081 C   0  0  0  0  0  0  0  0  0  0  0  0
   19.4502    4.6736   53.4221 N   0  0  0  0  0  0  0  0  0  0  0  0
   18.2948    4.9536   54.1688 C   0  0  0  0  0  0  0  0  0  0  0  0
   17.2109    3.9462   54.0733 C   0  0  0  0  0  0  0  0  0  0  0  0
   17.3264    2.9848   52.9372 C   0  0  0  0  0  0  0  0  0  0  0  0
   18.7264    2.5875   52.5886 C   0  0  0  0  0  0  0  0  0  0  0  0
   19.7640    3.2854   53.4452 C   0  0  0  0  0  0  0  0  0  0  0  0
 37 38  1  0  0  0
 38 27  1  0  0  0
 27 28  2  0  0  0
 28 29  1  0  0  0
 29 30  2  0  0  0
 30 26  1  0  0  0
 26  1  1  0  0  0
  1  2  2  0  0  0
  2  3  1  0  0  0
  3  4  2  0  0  0
  4  8  1  0  0  0
  8  9  1  0  0  0
  9 10  2  0  0  0
  9 12  1  0  0  0
 12 13  1  0  0  0
 13 14  1  0  0  0
 12 15  1  0  0  0
 15 16  2  0  0  0
 15 17  1  0  0  0
 17 19  1  0  0  0
 19 20  2  0  0  0
 20 21  1  0  0  0
 21 22  2  0  0  0
 22 23  1  0  0  0
 22 24  1  0  0  0
 24 25  2  0  0  0
  4  5  1  0  0  0
  5  6  2  0  0  0
  6  7  1  0  0  0
 30 31  1  0  0  0
 31 32  2  0  0  0
 32 33  1  0  0  0
 33 34  2  0  0  0
 34 35  1  0  0  0
 35 36  2  0  0  0
 36 39  1  0  0  0
 39 40  1  0  0  0
 40 41  1  0  0  0
 41 42  1  0  0  0
 42 43  1  0  0  0
 43 44  1  0  0  0
 44 45  1  0  0  0
 45 46  1  0  0  0
 46 47  1  0  0  0
 47 48  1  0  0  0
 36 27  1  0  0  0
 48 43  1  0  0  0
 34 29  1  0  0  0
  6  1  1  0  0  0
 14 12  1  0  0  0
 25 19  1  0  0  0
  8 11  1  0  0  0
 17 18  1  0  0  0
M  END
> <minimizedAffinity>
9.86504

> <CNNscore>
0.5558671951

> <CNNaffinity>
6.8355231285

> <CNN_VS>
3.7996430397

> <CNNaffinity_variance>
0.2065327168

$$$$
[H]c1nc2c([H])c(OC([H])([H])C([H])([H])C([H])([H])N3C([H])([H])C([H])([H])C([H])([H])C([H])([H])C3([H])[H])c(OC([H])([H])[H])c([H])c2c(Oc2c([H])c([H])c(N([H])C(=O)C3(C(=O)N([H])c4c([H])c([H])c(F)c([H])c4[H])C([H])([H])C3([H])[H])c([H])c2F)c1[H]


 48 53  0  0  0  0  0  0  0  0999 V2000
   26.3029    9.1049   55.5321 C   0  0  0  0  0  0  0  0  0  0  0  0
   25.8869    9.5989   56.7467 C   0  0  0  0  0  0  0  0  0  0  0  0
   26.7667   10.0478   57.7338 C   0  0  0  0  0  0  0  0  0  0  0  0
   28.1315   10.0174   57.5329 C   0  0  0  0  0  0  0  0  0  0  0  0
   28.5620    9.5279   56.3278 C   0  0  0  0  0  0  0  0  0  0  0  0
   27.7079    9.0842   55.3518 C   0  0  0  0  0  0  0  0  0  0  0  0
   28.1975    8.6068   54.1867 F   0  0  0  0  0  0  0  0  0  0  0  0
   29.0071   10.5338   58.5308 N   0  0  0  0  0  0  0  0  0  0  0  0
   29.2887    9.9651   59.7659 C   0  0  0  0  0  0  0  0  0  0  0  0
   28.7244    8.9062   60.1375 O   0  0  0  0  0  0  0  0  0  0  0  0
   29.4445   11.4861   58.2916 H   0  0  0  0  0  0  0  0  0  0  0  0
   30.2447   10.5733   60.7069 C   0  0  0  0  0  0  0  0  0  0  0  0
   30.8981    9.6679   61.7062 C   0  0  0  0  0  0  0  0  0  0  0  0
   31.6940   10.1659   60.5878 C   0  0  0  0  0  0  0  0  0  0  0  0
   29.9569   11.9432   61.1904 C   0  0  0  0  0  0  0  0  0  0  0  0
   29.3105   12.0335   62.2751 O   0  0  0  0  0  0  0  0  0  0  0  0
   30.3836   13.0821   60.4947 N   0  0  0  0  0  0  0  0  0  0  0  0
   31.0067   12.8684   59.6380 H   0  0  0  0  0  0  0  0  0  0  0  0
   30.1528   14.4286   60.8175 C   0  0  0  0  0  0  0  0  0  0  0  0
   31.1079   15.3687   61.0154 C   0  0  0  0  0  0  0  0  0  0  0  0
   30.8101   16.6890   61.3310 C   0  0  0  0  0  0  0  0  0  0  0  0
   29.4867   17.0383   61.4437 C   0  0  0  0  0  0  0  0  0  0  0  0
   29.0847   18.3162   61.7538 F   0  0  0  0  0  0  0  0  0  0  0  0
   28.4999   16.1087   61.2488 C   0  0  0  0  0  0  0  0  0  0  0  0
   28.8310   14.8230   60.9403 C   0  0  0  0  0  0  0  0  0  0  0  0
   25.5220    8.6581   54.5483 O   0  0  0  0  0  0  0  0  0  0  0  0
   21.5218    8.6403   54.2156 C   0  0  0  0  0  0  0  0  0  0  0  0
   22.9211    8.6383   54.3183 C   0  0  0  0  0  0  0  0  0  0  0  0
   23.6073    7.5113   53.9114 C   0  0  0  0  0  0  0  0  0  0  0  0
   25.0221    7.5411   54.0492 C   0  0  0  0  0  0  0  0  0  0  0  0
   25.6688    6.4019   53.6516 C   0  0  0  0  0  0  0  0  0  0  0  0
   24.9558    5.3234   53.1595 C   0  0  0  0  0  0  0  0  0  0  0  0
   23.6241    5.3333   53.0459 N   0  0  0  0  0  0  0  0  0  0  0  0
   22.9457    6.4164   53.4179 C   0  0  0  0  0  0  0  0  0  0  0  0
   21.5497    6.4381   53.3245 C   0  0  0  0  0  0  0  0  0  0  0  0
   20.8259    7.5386   53.7177 C   0  0  0  0  0  0  0  0  0  0  0  0
   21.2498   11.0326   54.2345 C   0  0  0  0  0  0  0  0  0  0  0  0
   20.7981    9.7477   54.6115 O   0  0  0  0  0  0  0  0  0  0  0  0
   19.4815    7.6408   53.6600 O   0  0  0  0  0  0  0  0  0  0  0  0
   18.4930    6.7749   53.2595 C   0  0  0  0  0  0  0  0  0  0  0  0
   17.0972    7.0672   53.7431 C   0  0  0  0  0  0  0  0  0  0  0  0
   16.3132    5.7704   53.6712 C   0  0  0  0  0  0  0  0  0  0  0  0
   16.8818    4.7111   54.3895 N   0  0  0  0  0  0  0  0  0  0  0  0
   18.0603    4.1193   53.9081 C   0  0  0  0  0  0  0  0  0  0  0  0
   18.6376    3.0543   54.7632 C   0  0  0  0  0  0  0  0  0  0  0  0
   18.1253    3.0080   56.1645 C   0  0  0  0  0  0  0  0  0  0  0  0
   16.6807    3.3667   56.3189 C   0  0  0  0  0  0  0  0  0  0  0  0
   16.0292    3.7522   55.0058 C   0  0  0  0  0  0  0  0  0  0  0  0
 37 38  1  0  0  0
 38 27  1  0  0  0
 27 28  2  0  0  0
 28 29  1  0  0  0
 29 30  2  0  0  0
 30 26  1  0  0  0
 26  1  1  0  0  0
  1  2  2  0  0  0
  2  3  1  0  0  0
  3  4  2  0  0  0
  4  8  1  0  0  0
  8  9  1  0  0  0
  9 10  2  0  0  0
  9 12  1  0  0  0
 12 13  1  0  0  0
 13 14  1  0  0  0
 12 15  1  0  0  0
 15 16  2  0  0  0
 15 17  1  0  0  0
 17 19  1  0  0  0
 19 20  2  0  0  0
 20 21  1  0  0  0
 21 22  2  0  0  0
 22 23  1  0  0  0
 22 24  1  0  0  0
 24 25  2  0  0  0
  4  5  1  0  0  0
  5  6  2  0  0  0
  6  7  1  0  0  0
 30 31  1  0  0  0
 31 32  2  0  0  0
 32 33  1  0  0  0
 33 34  2  0  0  0
 34 35  1  0  0  0
 35 36  2  0  0  0
 36 39  1  0  0  0
 39 40  1  0  0  0
 40 41  1  0  0  0
 41 42  1  0  0  0
 42 43  1  0  0  0
 43 44  1  0  0  0
 44 45  1  0  0  0
 45 46  1  0  0  0
 46 47  1  0  0  0
 47 48  1  0  0  0
 36 27  1  0  0  0
 48 43  1  0  0  0
 34 29  1  0  0  0
  6  1  1  0  0  0
 14 12  1  0  0  0
 25 19  1  0  0  0
  8 11  1  0  0  0
 17 18  1  0  0  0
M  END
> <minimizedAffinity>
23.08887

> <CNNscore>
0.5405280590

> <CNNaffinity>
6.9069304466

> <CNN_VS>
3.7333896160

> <CNNaffinity_variance>
0.3075991273

$$$$
[H]c1nc2c([H])c(OC([H])([H])C([H])([H])C([H])([H])N3C([H])([H])C([H])([H])C([H])([H])C([H])([H])C3([H])[H])c(OC([H])([H])[H])c([H])c2c(Oc2c([H])c([H])c(N([H])C(=O)C3(C(=O)N([H])c4c([H])c([H])c(F)c([H])c4[H])C([H])([H])C3([H])[H])c([H])c2F)c1[H]


 48 53  0  0  0  0  0  0  0  0999 V2000
   27.2838    9.3516   56.8030 C   0  0  0  0  0  0  0  0  0  0  0  0
   25.9461    9.6077   56.9965 C   0  0  0  0  0  0  0  0  0  0  0  0
   24.9582    9.2644   56.0712 C   0  0  0  0  0  0  0  0  0  0  0  0
   25.2845    8.6346   54.8877 C   0  0  0  0  0  0  0  0  0  0  0  0
   26.6132    8.3727   54.6800 C   0  0  0  0  0  0  0  0  0  0  0  0
   27.5916    8.7053   55.5805 C   0  0  0  0  0  0  0  0  0  0  0  0
   28.8855    8.4245   55.3122 F   0  0  0  0  0  0  0  0  0  0  0  0
   24.2545    8.2424   53.9853 N   0  0  0  0  0  0  0  0  0  0  0  0
   22.9015    8.5373   54.0879 C   0  0  0  0  0  0  0  0  0  0  0  0
   22.4486    9.1777   55.0690 O   0  0  0  0  0  0  0  0  0  0  0  0
   24.5842    7.6162   53.1762 H   0  0  0  0  0  0  0  0  0  0  0  0
   21.9283    8.1076   53.0693 C   0  0  0  0  0  0  0  0  0  0  0  0
   21.1996    9.1796   52.3174 C   0  0  0  0  0  0  0  0  0  0  0  0
   22.2429    8.4264   51.6271 C   0  0  0  0  0  0  0  0  0  0  0  0
   21.1416    6.8831   53.3431 C   0  0  0  0  0  0  0  0  0  0  0  0
   21.8030    5.8294   53.5774 O   0  0  0  0  0  0  0  0  0  0  0  0
   19.7405    6.8865   53.3538 N   0  0  0  0  0  0  0  0  0  0  0  0
   19.3005    7.8664   53.2348 H   0  0  0  0  0  0  0  0  0  0  0  0
   18.8755    5.8007   53.5625 C   0  0  0  0  0  0  0  0  0  0  0  0
   19.2251    4.4926   53.5215 C   0  0  0  0  0  0  0  0  0  0  0  0
   18.3169    3.4638   53.7406 C   0  0  0  0  0  0  0  0  0  0  0  0
   17.0139    3.8052   54.0081 C   0  0  0  0  0  0  0  0  0  0  0  0
   16.0369    2.8653   54.2374 F   0  0  0  0  0  0  0  0  0  0  0  0
   16.6320    5.1197   54.0559 C   0  0  0  0  0  0  0  0  0  0  0  0
   17.5516    6.1014   53.8359 C   0  0  0  0  0  0  0  0  0  0  0  0
   28.2777    9.6529   57.6388 O   0  0  0  0  0  0  0  0  0  0  0  0
   29.3335   12.5680   60.1883 C   0  0  0  0  0  0  0  0  0  0  0  0
   28.9609   11.5398   59.3095 C   0  0  0  0  0  0  0  0  0  0  0  0
   29.2470   10.2367   59.6653 C   0  0  0  0  0  0  0  0  0  0  0  0
   28.8707    9.2251   58.7398 C   0  0  0  0  0  0  0  0  0  0  0  0
   29.1837    7.9468   59.1168 C   0  0  0  0  0  0  0  0  0  0  0  0
   29.8223    7.7046   60.3198 C   0  0  0  0  0  0  0  0  0  0  0  0
   30.1611    8.6839   61.1640 N   0  0  0  0  0  0  0  0  0  0  0  0
   29.8795    9.9455   60.8464 C   0  0  0  0  0  0  0  0  0  0  0  0
   30.2439   10.9856   61.7086 C   0  0  0  0  0  0  0  0  0  0  0  0
   29.9787   12.2974   61.3951 C   0  0  0  0  0  0  0  0  0  0  0  0
   28.1942   14.6269   60.6990 C   0  0  0  0  0  0  0  0  0  0  0  0
   29.0654   13.8847   59.8699 O   0  0  0  0  0  0  0  0  0  0  0  0
   30.2952   13.3566   62.1692 O   0  0  0  0  0  0  0  0  0  0  0  0
   31.3947   14.1781   62.2280 C   0  0  0  0  0  0  0  0  0  0  0  0
   31.8942   14.7387   60.9226 C   0  0  0  0  0  0  0  0  0  0  0  0
   32.1787   16.2124   61.1431 C   0  0  0  0  0  0  0  0  0  0  0  0
   31.0728   17.0495   60.9492 N   0  0  0  0  0  0  0  0  0  0  0  0
   30.8838   17.6451   59.6921 C   0  0  0  0  0  0  0  0  0  0  0  0
   29.6520   18.4577   59.5472 C   0  0  0  0  0  0  0  0  0  0  0  0
   28.6116   18.2388   60.5949 C   0  0  0  0  0  0  0  0  0  0  0  0
   29.1462   17.9595   61.9645 C   0  0  0  0  0  0  0  0  0  0  0  0
   30.6606   17.9123   62.0038 C   0  0  0  0  0  0  0  0  0  0  0  0
 37 38  1  0  0  0
 38 27  1  0  0  0
 27 28  2  0  0  0
 28 29  1  0  0  0
 29 30  2  0  0  0
 30 26  1  0  0  0
 26  1  1  0  0  0
  1  2  2  0  0  0
  2  3  1  0  0  0
  3  4  2  0  0  0
  4  8  1  0  0  0
  8  9  1  0  0  0
  9 10  2  0  0  0
  9 12  1  0  0  0
 12 13  1  0  0  0
 13 14  1  0  0  0
 12 15  1  0  0  0
 15 16  2  0  0  0
 15 17  1  0  0  0
 17 19  1  0  0  0
 19 20  2  0  0  0
 20 21  1  0  0  0
 21 22  2  0  0  0
 22 23  1  0  0  0
 22 24  1  0  0  0
 24 25  2  0  0  0
  4  5  1  0  0  0
  5  6  2  0  0  0
  6  7  1  0  0  0
 30 31  1  0  0  0
 31 32  2  0  0  0
 32 33  1  0  0  0
 33 34  2  0  0  0
 34 35  1  0  0  0
 35 36  2  0  0  0
 36 39  1  0  0  0
 39 40  1  0  0  0
 40 41  1  0  0  0
 41 42  1  0  0  0
 42 43  1  0  0  0
 43 44  1  0  0  0
 44 45  1  0  0  0
 45 46  1  0  0  0
 46 47  1  0  0  0
 47 48  1  0  0  0
 36 27  1  0  0  0
 48 43  1  0  0  0
 34 29  1  0  0  0
  6  1  1  0  0  0
 14 12  1  0  0  0
 25 19  1  0  0  0
  8 11  1  0  0  0
 17 18  1  0  0  0
M  END
> <minimizedAffinity>
10.31511

> <CNNscore>
0.5404834747

> <CNNaffinity>
7.0100622177

> <CNN_VS>
3.7888228893

> <CNNaffinity_variance>
0.1171474457

$$$$
[H]c1nc2c([H])c(OC([H])([H])C([H])([H])C([H])([H])N3C([H])([H])C([H])([H])C([H])([H])C([H])([H])C3([H])[H])c(OC([H])([H])[H])c([H])c2c(Oc2c([H])c([H])c(N([H])C(=O)C3(C(=O)N([H])c4c([H])c([H])c(F)c([H])c4[H])C([H])([H])C3([H])[H])c([H])c2F)c1[H]


 48 53  0  0  0  0  0  0  0  0999 V2000
   25.7416    8.5165   54.6581 C   0  0  0  0  0  0  0  0  0  0  0  0
   27.0949    8.2715   54.6267 C   0  0  0  0  0  0  0  0  0  0  0  0
   27.9739    8.6944   55.6258 C   0  0  0  0  0  0  0  0  0  0  0  0
   27.5155    9.3962   56.7218 C   0  0  0  0  0  0  0  0  0  0  0  0
   26.1696    9.6484   56.7678 C   0  0  0  0  0  0  0  0  0  0  0  0
   25.2974    9.2388   55.7930 C   0  0  0  0  0  0  0  0  0  0  0  0
   23.9812    9.5256   55.8952 F   0  0  0  0  0  0  0  0  0  0  0  0
   28.4217    9.7672   57.7564 N   0  0  0  0  0  0  0  0  0  0  0  0
   28.5155    9.2036   59.0220 C   0  0  0  0  0  0  0  0  0  0  0  0
   27.7302    8.2941   59.3882 O   0  0  0  0  0  0  0  0  0  0  0  0
   29.0542   10.6028   57.5176 H   0  0  0  0  0  0  0  0  0  0  0  0
   29.5218    9.6462   60.0022 C   0  0  0  0  0  0  0  0  0  0  0  0
   29.5528    8.9405   61.3238 C   0  0  0  0  0  0  0  0  0  0  0  0
   30.6186    8.6725   60.3622 C   0  0  0  0  0  0  0  0  0  0  0  0
   29.8464   11.0903   60.0505 C   0  0  0  0  0  0  0  0  0  0  0  0
   30.9383   11.4404   59.5140 O   0  0  0  0  0  0  0  0  0  0  0  0
   28.9902   12.0252   60.6472 N   0  0  0  0  0  0  0  0  0  0  0  0
   28.0492   11.6119   60.9812 H   0  0  0  0  0  0  0  0  0  0  0  0
   29.1874   13.4074   60.7930 C   0  0  0  0  0  0  0  0  0  0  0  0
   30.3836   14.0424   60.7640 C   0  0  0  0  0  0  0  0  0  0  0  0
   30.5088   15.4185   60.9127 C   0  0  0  0  0  0  0  0  0  0  0  0
   29.3614   16.1504   61.0965 C   0  0  0  0  0  0  0  0  0  0  0  0
   29.3748   17.5161   61.2557 F   0  0  0  0  0  0  0  0  0  0  0  0
   28.1382   15.5350   61.1300 C   0  0  0  0  0  0  0  0  0  0  0  0
   28.0552   14.1827   60.9802 C   0  0  0  0  0  0  0  0  0  0  0  0
   24.8473    8.1465   53.7412 O   0  0  0  0  0  0  0  0  0  0  0  0
   21.6847    9.8797   51.9788 C   0  0  0  0  0  0  0  0  0  0  0  0
   22.7869    9.2604   52.5870 C   0  0  0  0  0  0  0  0  0  0  0  0
   22.6805    7.9293   52.9384 C   0  0  0  0  0  0  0  0  0  0  0  0
   23.8118    7.3435   53.5694 C   0  0  0  0  0  0  0  0  0  0  0  0
   23.6660    6.0278   53.9187 C   0  0  0  0  0  0  0  0  0  0  0  0
   22.4840    5.3577   53.6586 C   0  0  0  0  0  0  0  0  0  0  0  0
   21.4409    5.9442   53.0634 N   0  0  0  0  0  0  0  0  0  0  0  0
   21.5296    7.2224   52.7026 C   0  0  0  0  0  0  0  0  0  0  0  0
   20.4411    7.8587   52.0958 C   0  0  0  0  0  0  0  0  0  0  0  0
   20.5027    9.1821   51.7292 C   0  0  0  0  0  0  0  0  0  0  0  0
   21.6832   12.2018   52.6156 C   0  0  0  0  0  0  0  0  0  0  0  0
   21.7503   11.2093   51.6118 O   0  0  0  0  0  0  0  0  0  0  0  0
   19.5012    9.8687   51.1403 O   0  0  0  0  0  0  0  0  0  0  0  0
   18.4715    9.4958   50.3109 C   0  0  0  0  0  0  0  0  0  0  0  0
   17.6623   10.6047   49.6920 C   0  0  0  0  0  0  0  0  0  0  0  0
   16.5165    9.9598   48.9351 C   0  0  0  0  0  0  0  0  0  0  0  0
   15.2786   10.0371   49.5854 N   0  0  0  0  0  0  0  0  0  0  0  0
   15.2449   10.4028   50.9404 C   0  0  0  0  0  0  0  0  0  0  0  0
   13.8927   10.5323   51.5352 C   0  0  0  0  0  0  0  0  0  0  0  0
   12.7681   10.6274   50.5582 C   0  0  0  0  0  0  0  0  0  0  0  0
   12.9446    9.8151   49.3139 C   0  0  0  0  0  0  0  0  0  0  0  0
   14.2702    9.0811   49.2766 C   0  0  0  0  0  0  0  0  0  0  0  0
 37 38  1  0  0  0
 38 27  1  0  0  0
 27 28  2  0  0  0
 28 29  1  0  0  0
 29 30  2  0  0  0
 30 26  1  0  0  0
 26  1  1  0  0  0
  1  2  2  0  0  0
  2  3  1  0  0  0
  3  4  2  0  0  0
  4  8  1  0  0  0
  8  9  1  0  0  0
  9 10  2  0  0  0
  9 12  1  0  0  0
 12 13  1  0  0  0
 13 14  1  0  0  0
 12 15  1  0  0  0
 15 16  2  0  0  0
 15 17  1  0  0  0
 17 19  1  0  0  0
 19 20  2  0  0  0
 20 21  1  0  0  0
 21 22  2  0  0  0
 22 23  1  0  0  0
 22 24  1  0  0  0
 24 25  2  0  0  0
  4  5  1  0  0  0
  5  6  2  0  0  0
  6  7  1  0  0  0
 30 31  1  0  0  0
 31 32  2  0  0  0
 32 33  1  0  0  0
 33 34  2  0  0  0
 34 35  1  0  0  0
 35 36  2  0  0  0
 36 39  1  0  0  0
 39 40  1  0  0  0
 40 41  1  0  0  0
 41 42  1  0  0  0
 42 43  1  0  0  0
 43 44  1  0  0  0
 44 45  1  0  0  0
 45 46  1  0  0  0
 46 47  1  0  0  0
 47 48  1  0  0  0
 36 27  1  0  0  0
 48 43  1  0  0  0
 34 29  1  0  0  0
  6  1  1  0  0  0
 14 12  1  0  0  0
 25 19  1  0  0  0
  8 11  1  0  0  0
 17 18  1  0  0  0
M  END
> <minimizedAffinity>
39.00297

> <CNNscore>
0.5296375751

> <CNNaffinity>
6.8918633461

> <CNN_VS>
3.6501898766

> <CNNaffinity_variance>
0.4087814689

$$$$
[H]c1nc2c([H])c(OC([H])([H])C([H])([H])C([H])([H])N3C([H])([H])C([H])([H])C([H])([H])C([H])([H])C3([H])[H])c(OC([H])([H])[H])c([H])c2c(Oc2c([H])c([H])c(N([H])C(=O)C3(C(=O)N([H])c4c([H])c([H])c(F)c([H])c4[H])C([H])([H])C3([H])[H])c([H])c2F)c1[H]


 48 53  0  0  0  0  0  0  0  0999 V2000
   26.3921    8.0958   54.7920 C   0  0  0  0  0  0  0  0  0  0  0  0
   27.7555    8.2702   54.8466 C   0  0  0  0  0  0  0  0  0  0  0  0
   28.3873    9.0825   55.7904 C   0  0  0  0  0  0  0  0  0  0  0  0
   27.6554    9.7668   56.7392 C   0  0  0  0  0  0  0  0  0  0  0  0
   26.2957    9.6035   56.6980 C   0  0  0  0  0  0  0  0  0  0  0  0
   25.6646    8.8093   55.7762 C   0  0  0  0  0  0  0  0  0  0  0  0
   24.3184    8.6959   55.7857 F   0  0  0  0  0  0  0  0  0  0  0  0
   28.3254   10.5436   57.7275 N   0  0  0  0  0  0  0  0  0  0  0  0
   28.6591   10.1440   59.0148 C   0  0  0  0  0  0  0  0  0  0  0  0
   28.3378    9.0090   59.4467 O   0  0  0  0  0  0  0  0  0  0  0  0
   28.5408   11.5541   57.4308 H   0  0  0  0  0  0  0  0  0  0  0  0
   29.3889   11.0250   59.9424 C   0  0  0  0  0  0  0  0  0  0  0  0
   29.8862   10.4195   61.2197 C   0  0  0  0  0  0  0  0  0  0  0  0
   30.8531   10.7348   60.1718 C   0  0  0  0  0  0  0  0  0  0  0  0
   28.9473   12.4350   60.0427 C   0  0  0  0  0  0  0  0  0  0  0  0
   27.7428   12.6714   59.7327 O   0  0  0  0  0  0  0  0  0  0  0  0
   29.8085   13.4554   60.4672 N   0  0  0  0  0  0  0  0  0  0  0  0
   30.7784   13.1074   60.7931 H   0  0  0  0  0  0  0  0  0  0  0  0
   29.5347   14.8280   60.5748 C   0  0  0  0  0  0  0  0  0  0  0  0
   28.5687   15.3831   61.3453 C   0  0  0  0  0  0  0  0  0  0  0  0
   28.3517   16.7543   61.4082 C   0  0  0  0  0  0  0  0  0  0  0  0
   29.1593   17.5666   60.6506 C   0  0  0  0  0  0  0  0  0  0  0  0
   29.0271   18.9351   60.6392 F   0  0  0  0  0  0  0  0  0  0  0  0
   30.1442   17.0329   59.8624 C   0  0  0  0  0  0  0  0  0  0  0  0
   30.3271   15.6827   59.8268 C   0  0  0  0  0  0  0  0  0  0  0  0
   25.7236    7.3409   53.9199 O   0  0  0  0  0  0  0  0  0  0  0  0
   22.8042   10.0379   53.3580 C   0  0  0  0  0  0  0  0  0  0  0  0
   23.8177    9.0857   53.5436 C   0  0  0  0  0  0  0  0  0  0  0  0
   23.4784    7.7482   53.4953 C   0  0  0  0  0  0  0  0  0  0  0  0
   24.5299    6.8149   53.7071 C   0  0  0  0  0  0  0  0  0  0  0  0
   24.1553    5.4987   53.6686 C   0  0  0  0  0  0  0  0  0  0  0  0
   22.8367    5.1490   53.4391 C   0  0  0  0  0  0  0  0  0  0  0  0
   21.8752    6.0569   53.2452 N   0  0  0  0  0  0  0  0  0  0  0  0
   22.1852    7.3511   53.2721 C   0  0  0  0  0  0  0  0  0  0  0  0
   21.1887    8.3166   53.0904 C   0  0  0  0  0  0  0  0  0  0  0  0
   21.4811    9.6591   53.1303 C   0  0  0  0  0  0  0  0  0  0  0  0
   23.2766   12.0117   54.6535 C   0  0  0  0  0  0  0  0  0  0  0  0
   23.1018   11.3857   53.3987 O   0  0  0  0  0  0  0  0  0  0  0  0
   20.5817   10.6515   52.9646 O   0  0  0  0  0  0  0  0  0  0  0  0
   20.6864   11.9439   52.5104 C   0  0  0  0  0  0  0  0  0  0  0  0
   21.0028   12.1269   51.0496 C   0  0  0  0  0  0  0  0  0  0  0  0
   22.0029   13.2626   50.9427 C   0  0  0  0  0  0  0  0  0  0  0  0
   21.4717   14.5281   51.2211 N   0  0  0  0  0  0  0  0  0  0  0  0
   20.1311   14.6280   51.6256 C   0  0  0  0  0  0  0  0  0  0  0  0
   19.6665   15.9931   51.9710 C   0  0  0  0  0  0  0  0  0  0  0  0
   20.7450   16.9984   52.2047 C   0  0  0  0  0  0  0  0  0  0  0  0
   21.9558   16.8350   51.3405 C   0  0  0  0  0  0  0  0  0  0  0  0
   21.8592   15.6370   50.4171 C   0  0  0  0  0  0  0  0  0  0  0  0
 37 38  1  0  0  0
 38 27  1  0  0  0
 27 28  2  0  0  0
 28 29  1  0  0  0
 29 30  2  0  0  0
 30 26  1  0  0  0
 26  1  1  0  0  0
  1  2  2  0  0  0
  2  3  1  0  0  0
  3  4  2  0  0  0
  4  8  1  0  0  0
  8  9  1  0  0  0
  9 10  2  0  0  0
  9 12  1  0  0  0
 12 13  1  0  0  0
 13 14  1  0  0  0
 12 15  1  0  0  0
 15 16  2  0  0  0
 15 17  1  0  0  0
 17 19  1  0  0  0
 19 20  2  0  0  0
 20 21  1  0  0  0
 21 22  2  0  0  0
 22 23  1  0  0  0
 22 24  1  0  0  0
 24 25  2  0  0  0
  4  5  1  0  0  0
  5  6  2  0  0  0
  6  7  1  0  0  0
 30 31  1  0  0  0
 31 32  2  0  0  0
 32 33  1  0  0  0
 33 34  2  0  0  0
 34 35  1  0  0  0
 35 36  2  0  0  0
 36 39  1  0  0  0
 39 40  1  0  0  0
 40 41  1  0  0  0
 41 42  1  0  0  0
 42 43  1  0  0  0
 43 44  1  0  0  0
 44 45  1  0  0  0
 45 46  1  0  0  0
 46 47  1  0  0  0
 47 48  1  0  0  0
 36 27  1  0  0  0
 48 43  1  0  0  0
 34 29  1  0  0  0
  6  1  1  0  0  0
 14 12  1  0  0  0
 25 19  1  0  0  0
  8 11  1  0  0  0
 17 18  1  0  0  0
M  END
> <minimizedAffinity>
23.02003

> <CNNscore>
0.5215765238

> <CNNaffinity>
7.0003919601

> <CNN_VS>
3.6512401104

> <CNNaffinity_variance>
0.4250459075

$$$$
[H]c1nc2c([H])c(OC([H])([H])C([H])([H])C([H])([H])N3C([H])([H])C([H])([H])C([H])([H])C([H])([H])C3([H])[H])c(OC([H])([H])[H])c([H])c2c(Oc2c([H])c([H])c(N([H])C(=O)C3(C(=O)N([H])c4c([H])c([H])c(F)c([H])c4[H])C([H])([H])C3([H])[H])c([H])c2F)c1[H]


 48 53  0  0  0  0  0  0  0  0999 V2000
   26.0803    8.6557   55.0222 C   0  0  0  0  0  0  0  0  0  0  0  0
   27.4385    8.4446   54.9666 C   0  0  0  0  0  0  0  0  0  0  0  0
   28.3225    8.8756   55.9579 C   0  0  0  0  0  0  0  0  0  0  0  0
   27.8643    9.5510   57.0705 C   0  0  0  0  0  0  0  0  0  0  0  0
   26.5135    9.7692   57.1406 C   0  0  0  0  0  0  0  0  0  0  0  0
   25.6364    9.3513   56.1737 C   0  0  0  0  0  0  0  0  0  0  0  0
   24.3153    9.6041   56.3001 F   0  0  0  0  0  0  0  0  0  0  0  0
   28.7771    9.9303   58.0961 N   0  0  0  0  0  0  0  0  0  0  0  0
   28.9266    9.3318   59.3402 C   0  0  0  0  0  0  0  0  0  0  0  0
   28.1923    8.3759   59.6938 O   0  0  0  0  0  0  0  0  0  0  0  0
   29.3653   10.8013   57.8707 H   0  0  0  0  0  0  0  0  0  0  0  0
   29.9349    9.7888   60.3115 C   0  0  0  0  0  0  0  0  0  0  0  0
   29.9706    9.1010   61.6424 C   0  0  0  0  0  0  0  0  0  0  0  0
   31.0341    8.8216   60.6815 C   0  0  0  0  0  0  0  0  0  0  0  0
   30.2576   11.2339   60.3395 C   0  0  0  0  0  0  0  0  0  0  0  0
   31.4186   11.5594   59.9534 O   0  0  0  0  0  0  0  0  0  0  0  0
   29.3288   12.1951   60.7596 N   0  0  0  0  0  0  0  0  0  0  0  0
   28.3465   11.7971   60.9708 H   0  0  0  0  0  0  0  0  0  0  0  0
   29.5107   13.5828   60.8682 C   0  0  0  0  0  0  0  0  0  0  0  0
   30.7018   14.2278   60.8456 C   0  0  0  0  0  0  0  0  0  0  0  0
   30.8117   15.6088   60.9557 C   0  0  0  0  0  0  0  0  0  0  0  0
   29.6543   16.3351   61.0931 C   0  0  0  0  0  0  0  0  0  0  0  0
   29.6524   17.7050   61.2116 F   0  0  0  0  0  0  0  0  0  0  0  0
   28.4361   15.7095   61.1191 C   0  0  0  0  0  0  0  0  0  0  0  0
   28.3681   14.3527   61.0080 C   0  0  0  0  0  0  0  0  0  0  0  0
   25.1811    8.2761   54.1141 O   0  0  0  0  0  0  0  0  0  0  0  0
   22.0829    9.7736   52.0474 C   0  0  0  0  0  0  0  0  0  0  0  0
   23.1636    9.2361   52.7627 C   0  0  0  0  0  0  0  0  0  0  0  0
   23.0769    7.9287   53.1983 C   0  0  0  0  0  0  0  0  0  0  0  0
   24.1841    7.4271   53.9358 C   0  0  0  0  0  0  0  0  0  0  0  0
   24.0578    6.1335   54.3659 C   0  0  0  0  0  0  0  0  0  0  0  0
   22.9161    5.4059   54.0816 C   0  0  0  0  0  0  0  0  0  0  0  0
   21.8946    5.9137   53.3851 N   0  0  0  0  0  0  0  0  0  0  0  0
   21.9658    7.1671   52.9427 C   0  0  0  0  0  0  0  0  0  0  0  0
   20.8982    7.7222   52.2285 C   0  0  0  0  0  0  0  0  0  0  0  0
   20.9414    9.0193   51.7755 C   0  0  0  0  0  0  0  0  0  0  0  0
   21.7212   12.1186   52.4573 C   0  0  0  0  0  0  0  0  0  0  0  0
   22.1299   11.0771   51.5939 O   0  0  0  0  0  0  0  0  0  0  0  0
   19.9579    9.6288   51.0809 O   0  0  0  0  0  0  0  0  0  0  0  0
   19.9113   10.2082   49.8361 C   0  0  0  0  0  0  0  0  0  0  0  0
   19.4601   11.6434   49.7714 C   0  0  0  0  0  0  0  0  0  0  0  0
   19.5978   12.0959   48.3300 C   0  0  0  0  0  0  0  0  0  0  0  0
   18.4485   11.9059   47.5526 N   0  0  0  0  0  0  0  0  0  0  0  0
   17.2490   11.5504   48.1894 C   0  0  0  0  0  0  0  0  0  0  0  0
   16.0634   11.4394   47.3057 C   0  0  0  0  0  0  0  0  0  0  0  0
   16.2052   12.0682   45.9593 C   0  0  0  0  0  0  0  0  0  0  0  0
   17.5738   11.9743   45.3615 C   0  0  0  0  0  0  0  0  0  0  0  0
   18.5668   11.2860   46.2767 C   0  0  0  0  0  0  0  0  0  0  0  0
 37 38  1  0  0  0
 38 27  1  0  0  0
 27 28  2  0  0  0
 28 29  1  0  0  0
 29 30  2  0  0  0
 30 26  1  0  0  0
 26  1  1  0  0  0
  1  2  2  0  0  0
  2  3  1  0  0  0
  3  4  2  0  0  0
  4  8  1  0  0  0
  8  9  1  0  0  0
  9 10  2  0  0  0
  9 12  1  0  0  0
 12 13  1  0  0  0
 13 14  1  0  0  0
 12 15  1  0  0  0
 15 16  2  0  0  0
 15 17  1  0  0  0
 17 19  1  0  0  0
 19 20  2  0  0  0
 20 21  1  0  0  0
 21 22  2  0  0  0
 22 23  1  0  0  0
 22 24  1  0  0  0
 24 25  2  0  0  0
  4  5  1  0  0  0
  5  6  2  0  0  0
  6  7  1  0  0  0
 30 31  1  0  0  0
 31 32  2  0  0  0
 32 33  1  0  0  0
 33 34  2  0  0  0
 34 35  1  0  0  0
 35 36  2  0  0  0
 36 39  1  0  0  0
 39 40  1  0  0  0
 40 41  1  0  0  0
 41 42  1  0  0  0
 42 43  1  0  0  0
 43 44  1  0  0  0
 44 45  1  0  0  0
 45 46  1  0  0  0
 46 47  1  0  0  0
 47 48  1  0  0  0
 36 27  1  0  0  0
 48 43  1  0  0  0
 34 29  1  0  0  0
  6  1  1  0  0  0
 14 12  1  0  0  0
 25 19  1  0  0  0
  8 11  1  0  0  0
 17 18  1  0  0  0
M  END
> <minimizedAffinity>
40.06314

> <CNNscore>
0.5191394091

> <CNNaffinity>
6.7177810669

> <CNN_VS>
3.4874649048

> <CNNaffinity_variance>
0.3729405403

$$$$
[H]c1nc2c([H])c(OC([H])([H])C([H])([H])C([H])([H])N3C([H])([H])C([H])([H])C([H])([H])C([H])([H])C3([H])[H])c(OC([H])([H])[H])c([H])c2c(Oc2c([H])c([H])c(N([H])C(=O)C3(C(=O)N([H])c4c([H])c([H])c(F)c([H])c4[H])C([H])([H])C3([H])[H])c([H])c2F)c1[H]


 48 53  0  0  0  0  0  0  0  0999 V2000
   27.1099    9.3217   56.6155 C   0  0  0  0  0  0  0  0  0  0  0  0
   25.7820    9.6387   56.7850 C   0  0  0  0  0  0  0  0  0  0  0  0
   24.7909    9.3091   55.8583 C   0  0  0  0  0  0  0  0  0  0  0  0
   25.1036    8.6312   54.6978 C   0  0  0  0  0  0  0  0  0  0  0  0
   26.4224    8.3083   54.5142 C   0  0  0  0  0  0  0  0  0  0  0  0
   27.4038    8.6269   55.4164 C   0  0  0  0  0  0  0  0  0  0  0  0
   28.6878    8.2848   55.1723 F   0  0  0  0  0  0  0  0  0  0  0  0
   24.0680    8.2551   53.7949 N   0  0  0  0  0  0  0  0  0  0  0  0
   22.7007    8.3963   53.9914 C   0  0  0  0  0  0  0  0  0  0  0  0
   22.2429    8.8572   55.0666 O   0  0  0  0  0  0  0  0  0  0  0  0
   24.4113    7.7737   52.8972 H   0  0  0  0  0  0  0  0  0  0  0  0
   21.7189    8.0038   52.9662 C   0  0  0  0  0  0  0  0  0  0  0  0
   21.0591    9.1016   52.1883 C   0  0  0  0  0  0  0  0  0  0  0  0
   22.0690    8.2824   51.5238 C   0  0  0  0  0  0  0  0  0  0  0  0
   20.8635    6.8280   53.2474 C   0  0  0  0  0  0  0  0  0  0  0  0
   21.4555    5.7145   53.3584 O   0  0  0  0  0  0  0  0  0  0  0  0
   19.4744    6.9372   53.3940 N   0  0  0  0  0  0  0  0  0  0  0  0
   19.1067    7.9532   53.3720 H   0  0  0  0  0  0  0  0  0  0  0  0
   18.5466    5.9095   53.6257 C   0  0  0  0  0  0  0  0  0  0  0  0
   17.2282    6.0791   53.8867 C   0  0  0  0  0  0  0  0  0  0  0  0
   16.3614    5.0149   54.1048 C   0  0  0  0  0  0  0  0  0  0  0  0
   16.8798    3.7444   54.0506 C   0  0  0  0  0  0  0  0  0  0  0  0
   16.1094    2.6237   54.2535 F   0  0  0  0  0  0  0  0  0  0  0  0
   18.2091    3.5430   53.7886 C   0  0  0  0  0  0  0  0  0  0  0  0
   19.0285    4.6120   53.5795 C   0  0  0  0  0  0  0  0  0  0  0  0
   28.1064    9.6065   57.4541 O   0  0  0  0  0  0  0  0  0  0  0  0
   29.0638   12.5859   59.9678 C   0  0  0  0  0  0  0  0  0  0  0  0
   28.7250   11.5355   59.1016 C   0  0  0  0  0  0  0  0  0  0  0  0
   28.9900   10.2416   59.5041 C   0  0  0  0  0  0  0  0  0  0  0  0
   28.6496    9.2067   58.5906 C   0  0  0  0  0  0  0  0  0  0  0  0
   28.9408    7.9380   59.0149 C   0  0  0  0  0  0  0  0  0  0  0  0
   29.5261    7.7263   60.2503 C   0  0  0  0  0  0  0  0  0  0  0  0
   29.8325    8.7269   61.0819 N   0  0  0  0  0  0  0  0  0  0  0  0
   29.5700    9.9804   60.7188 C   0  0  0  0  0  0  0  0  0  0  0  0
   29.9014   11.0422   61.5677 C   0  0  0  0  0  0  0  0  0  0  0  0
   29.6554   12.3459   61.2081 C   0  0  0  0  0  0  0  0  0  0  0  0
   28.5742   14.8536   60.6125 C   0  0  0  0  0  0  0  0  0  0  0  0
   28.8151   13.8944   59.6030 O   0  0  0  0  0  0  0  0  0  0  0  0
   29.9427   13.4246   61.9665 O   0  0  0  0  0  0  0  0  0  0  0  0
   31.1243   13.9918   62.3783 C   0  0  0  0  0  0  0  0  0  0  0  0
   32.3939   13.3175   61.9299 C   0  0  0  0  0  0  0  0  0  0  0  0
   33.0072   12.6532   63.1481 C   0  0  0  0  0  0  0  0  0  0  0  0
   33.1448   11.2637   63.0405 N   0  0  0  0  0  0  0  0  0  0  0  0
   33.6413   10.5433   64.1384 C   0  0  0  0  0  0  0  0  0  0  0  0
   33.6880    9.0708   63.9697 C   0  0  0  0  0  0  0  0  0  0  0  0
   32.8755    8.5277   62.8414 C   0  0  0  0  0  0  0  0  0  0  0  0
   32.8209    9.4011   61.6275 C   0  0  0  0  0  0  0  0  0  0  0  0
   33.5787   10.7015   61.8068 C   0  0  0  0  0  0  0  0  0  0  0  0
 37 38  1  0  0  0
 38 27  1  0  0  0
 27 28  2  0  0  0
 28 29  1  0  0  0
 29 30  2  0  0  0
 30 26  1  0  0  0
 26  1  1  0  0  0
  1  2  2  0  0  0
  2  3  1  0  0  0
  3  4  2  0  0  0
  4  8  1  0  0  0
  8  9  1  0  0  0
  9 10  2  0  0  0
  9 12  1  0  0  0
 12 13  1  0  0  0
 13 14  1  0  0  0
 12 15  1  0  0  0
 15 16  2  0  0  0
 15 17  1  0  0  0
 17 19  1  0  0  0
 19 20  2  0  0  0
 20 21  1  0  0  0
 21 22  2  0  0  0
 22 23  1  0  0  0
 22 24  1  0  0  0
 24 25  2  0  0  0
  4  5  1  0  0  0
  5  6  2  0  0  0
  6  7  1  0  0  0
 30 31  1  0  0  0
 31 32  2  0  0  0
 32 33  1  0  0  0
 33 34  2  0  0  0
 34 35  1  0  0  0
 35 36  2  0  0  0
 36 39  1  0  0  0
 39 40  1  0  0  0
 40 41  1  0  0  0
 41 42  1  0  0  0
 42 43  1  0  0  0
 43 44  1  0  0  0
 44 45  1  0  0  0
 45 46  1  0  0  0
 46 47  1  0  0  0
 47 48  1  0  0  0
 36 27  1  0  0  0
 48 43  1  0  0  0
 34 29  1  0  0  0
  6  1  1  0  0  0
 14 12  1  0  0  0
 25 19  1  0  0  0
  8 11  1  0  0  0
 17 18  1  0  0  0
M  END
> <minimizedAffinity>
11.64802

> <CNNscore>
0.5162733197

> <CNNaffinity>
6.9486680031

> <CNN_VS>
3.5874118805

> <CNNaffinity_variance>
0.0694567412

$$$$
[H]c1nc(C([H])([H])[H])oc1-c1c(N([H])[H])nc([H])c(-c2c([H])c(C(=O)N([H])c3c([H])c([H])c([H])c(C(=O)N([H])[H])c3[H])c([H])c([H])c2C([H])([H])[H])c1[H]


 37 40  0  0  0  0  0  0  0  0999 V2000
   23.5339    8.8155   54.5113 C   0  0  0  0  0  0  0  0  0  0  0  0
   22.7056    7.8227   53.9882 C   0  0  0  0  0  0  0  0  0  0  0  0
   21.3594    7.9673   53.8830 C   0  0  0  0  0  0  0  0  0  0  0  0
   20.7668    9.1336   54.3039 C   0  0  0  0  0  0  0  0  0  0  0  0
   21.5436   10.1326   54.8228 C   0  0  0  0  0  0  0  0  0  0  0  0
   22.9403    9.9672   54.9247 C   0  0  0  0  0  0  0  0  0  0  0  0
   23.7024   11.0997   55.4811 C   0  0  0  0  0  0  0  0  0  0  0  0
   27.0042    8.9911   55.8995 C   0  0  0  0  0  0  0  0  0  0  0  0
   25.6491    9.1171   55.7256 C   0  0  0  0  0  0  0  0  0  0  0  0
   24.9642    8.6133   54.6220 C   0  0  0  0  0  0  0  0  0  0  0  0
   25.6898    7.9472   53.6449 C   0  0  0  0  0  0  0  0  0  0  0  0
   27.0124    7.8298   53.8240 N   0  0  0  0  0  0  0  0  0  0  0  0
   27.6808    8.3086   54.8774 C   0  0  0  0  0  0  0  0  0  0  0  0
   29.0876    8.1737   55.0481 N   0  0  0  0  0  0  0  0  0  0  0  0
   29.5016    7.3974   55.6335 H   0  0  0  0  0  0  0  0  0  0  0  0
   29.7722    8.8259   54.6117 H   0  0  0  0  0  0  0  0  0  0  0  0
   29.2517    9.1950   60.2775 C   0  0  0  0  0  0  0  0  0  0  0  0
   28.7001    9.6311   58.9620 C   0  0  0  0  0  0  0  0  0  0  0  0
   28.7623   10.8714   58.4693 N   0  0  0  0  0  0  0  0  0  0  0  0
   28.1427   10.8024   57.2688 C   0  0  0  0  0  0  0  0  0  0  0  0
   27.7130    9.5192   57.0503 C   0  0  0  0  0  0  0  0  0  0  0  0
   28.0764    8.8417   58.1130 O   0  0  0  0  0  0  0  0  0  0  0  0
   20.5063    6.9022   53.3103 C   0  0  0  0  0  0  0  0  0  0  0  0
   20.2654    6.9949   52.0969 O   0  0  0  0  0  0  0  0  0  0  0  0
   20.0247    5.8782   54.1082 N   0  0  0  0  0  0  0  0  0  0  0  0
   20.3244    5.9221   55.1406 H   0  0  0  0  0  0  0  0  0  0  0  0
   19.1937    4.8040   53.7159 C   0  0  0  0  0  0  0  0  0  0  0  0
   19.8053    3.7625   53.0033 C   0  0  0  0  0  0  0  0  0  0  0  0
   19.0719    2.6772   52.5987 C   0  0  0  0  0  0  0  0  0  0  0  0
   17.7399    2.5903   52.8802 C   0  0  0  0  0  0  0  0  0  0  0  0
   17.1355    3.5932   53.5699 C   0  0  0  0  0  0  0  0  0  0  0  0
   17.8728    4.7078   53.9894 C   0  0  0  0  0  0  0  0  0  0  0  0
   15.7205    3.5337   53.8934 C   0  0  0  0  0  0  0  0  0  0  0  0
   14.7551    3.6666   52.8614 N   0  0  0  0  0  0  0  0  0  0  0  0
   15.3768    3.3629   55.0895 O   0  0  0  0  0  0  0  0  0  0  0  0
   14.5769    4.5956   52.4264 H   0  0  0  0  0  0  0  0  0  0  0  0
   14.2397    2.8068   52.5635 H   0  0  0  0  0  0  0  0  0  0  0  0
 17 18  1  0  0  0
 18 19  2  0  0  0
 19 20  1  0  0  0
 20 21  2  0  0  0
 21 22  1  0  0  0
 21  8  1  0  0  0
  8  9  2  0  0  0
  9 10  1  0  0  0
 10 11  2  0  0  0
 11 12  1  0  0  0
 12 13  2  0  0  0
 13 14  1  0  0  0
 10  1  1  0  0  0
  1  2  2  0  0  0
  2  3  1  0  0  0
  3  4  2  0  0  0
  4  5  1  0  0  0
  5  6  2  0  0  0
  6  7  1  0  0  0
  3 23  1  0  0  0
 23 24  2  0  0  0
 23 25  1  0  0  0
 25 27  1  0  0  0
 27 28  2  0  0  0
 28 29  1  0  0  0
 29 30  2  0  0  0
 30 31  1  0  0  0
 31 32  2  0  0  0
 31 33  1  0  0  0
 33 34  1  0  0  0
 33 35  2  0  0  0
 22 18  1  0  0  0
 13  8  1  0  0  0
  6  1  1  0  0  0
 32 27  1  0  0  0
 14 15  1  0  0  0
 14 16  1  0  0  0
 25 26  1  0  0  0
 34 36  1  0  0  0
 34 37  1  0  0  0
M  END
> <minimizedAffinity>
18.49495

> <CNNscore>
0.5651342869

> <CNNaffinity>
6.6699647903

> <CNN_VS>
3.7694258690

> <CNNaffinity_variance>
0.2424021512

$$$$
[H]c1nc(C([H])([H])[H])oc1-c1c(N([H])[H])nc([H])c(-c2c([H])c(C(=O)N([H])c3c([H])c([H])c([H])c(C(=O)N([H])[H])c3[H])c([H])c([H])c2C([H])([H])[H])c1[H]


 37 40  0  0  0  0  0  0  0  0999 V2000
   27.3497    8.8587   55.6978 C   0  0  0  0  0  0  0  0  0  0  0  0
   25.9674    8.6798   55.6454 C   0  0  0  0  0  0  0  0  0  0  0  0
   25.2782    8.6081   54.4775 C   0  0  0  0  0  0  0  0  0  0  0  0
   25.9516    8.7140   53.2841 C   0  0  0  0  0  0  0  0  0  0  0  0
   27.3079    8.8898   53.2915 C   0  0  0  0  0  0  0  0  0  0  0  0
   28.0092    8.9616   54.5128 C   0  0  0  0  0  0  0  0  0  0  0  0
   29.4703    9.1365   54.4282 C   0  0  0  0  0  0  0  0  0  0  0  0
   28.8646   10.3660   58.7692 C   0  0  0  0  0  0  0  0  0  0  0  0
   28.2025   10.1877   57.5808 C   0  0  0  0  0  0  0  0  0  0  0  0
   28.0439    8.9476   56.9663 C   0  0  0  0  0  0  0  0  0  0  0  0
   28.5836    7.8310   57.5882 C   0  0  0  0  0  0  0  0  0  0  0  0
   29.2284    8.0157   58.7480 N   0  0  0  0  0  0  0  0  0  0  0  0
   29.3874    9.1995   59.3474 C   0  0  0  0  0  0  0  0  0  0  0  0
   30.0774    9.3744   60.5802 N   0  0  0  0  0  0  0  0  0  0  0  0
   29.5612    9.4181   61.5012 H   0  0  0  0  0  0  0  0  0  0  0  0
   31.1129    9.4686   60.6366 H   0  0  0  0  0  0  0  0  0  0  0  0
   27.9032   14.9580   60.2690 C   0  0  0  0  0  0  0  0  0  0  0  0
   28.6285   13.6697   60.0710 C   0  0  0  0  0  0  0  0  0  0  0  0
   29.8451   13.3855   60.5445 N   0  0  0  0  0  0  0  0  0  0  0  0
   30.0973   12.1240   60.1265 C   0  0  0  0  0  0  0  0  0  0  0  0
   29.0283   11.6604   59.4044 C   0  0  0  0  0  0  0  0  0  0  0  0
   28.1573   12.6410   59.3981 O   0  0  0  0  0  0  0  0  0  0  0  0
   23.8128    8.4033   54.4518 C   0  0  0  0  0  0  0  0  0  0  0  0
   23.1432    9.1947   55.1331 O   0  0  0  0  0  0  0  0  0  0  0  0
   23.2560    7.3820   53.7009 N   0  0  0  0  0  0  0  0  0  0  0  0
   23.9595    6.7808   53.1520 H   0  0  0  0  0  0  0  0  0  0  0  0
   21.8864    7.0512   53.5852 C   0  0  0  0  0  0  0  0  0  0  0  0
   20.9868    8.1219   53.4809 C   0  0  0  0  0  0  0  0  0  0  0  0
   19.6426    7.8858   53.3511 C   0  0  0  0  0  0  0  0  0  0  0  0
   19.1572    6.6112   53.3213 C   0  0  0  0  0  0  0  0  0  0  0  0
   20.0187    5.5651   53.4217 C   0  0  0  0  0  0  0  0  0  0  0  0
   21.3945    5.7919   53.5547 C   0  0  0  0  0  0  0  0  0  0  0  0
   19.5401    4.1939   53.3880 C   0  0  0  0  0  0  0  0  0  0  0  0
   20.3338    3.1848   52.7827 N   0  0  0  0  0  0  0  0  0  0  0  0
   18.4250    3.9262   53.9006 O   0  0  0  0  0  0  0  0  0  0  0  0
   20.4225    3.1385   51.7463 H   0  0  0  0  0  0  0  0  0  0  0  0
   20.8158    2.5023   53.4115 H   0  0  0  0  0  0  0  0  0  0  0  0
 17 18  1  0  0  0
 18 19  2  0  0  0
 19 20  1  0  0  0
 20 21  2  0  0  0
 21 22  1  0  0  0
 21  8  1  0  0  0
  8  9  2  0  0  0
  9 10  1  0  0  0
 10 11  2  0  0  0
 11 12  1  0  0  0
 12 13  2  0  0  0
 13 14  1  0  0  0
 10  1  1  0  0  0
  1  2  2  0  0  0
  2  3  1  0  0  0
  3  4  2  0  0  0
  4  5  1  0  0  0
  5  6  2  0  0  0
  6  7  1  0  0  0
  3 23  1  0  0  0
 23 24  2  0  0  0
 23 25  1  0  0  0
 25 27  1  0  0  0
 27 28  2  0  0  0
 28 29  1  0  0  0
 29 30  2  0  0  0
 30 31  1  0  0  0
 31 32  2  0  0  0
 31 33  1  0  0  0
 33 34  1  0  0  0
 33 35  2  0  0  0
 22 18  1  0  0  0
 13  8  1  0  0  0
  6  1  1  0  0  0
 32 27  1  0  0  0
 14 15  1  0  0  0
 14 16  1  0  0  0
 25 26  1  0  0  0
 34 36  1  0  0  0
 34 37  1  0  0  0
M  END
> <minimizedAffinity>
18.39566

> <CNNscore>
0.5304471254

> <CNNaffinity>
6.0656485558

> <CNN_VS>
3.2175059319

> <CNNaffinity_variance>
0.0841178820

$$$$
[H]c1nc(C([H])([H])[H])oc1-c1c(N([H])[H])nc([H])c(-c2c([H])c(C(=O)N([H])c3c([H])c([H])c([H])c(C(=O)N([H])[H])c3[H])c([H])c([H])c2C([H])([H])[H])c1[H]


 37 40  0  0  0  0  0  0  0  0999 V2000
   22.7856    9.3289   54.0445 C   0  0  0  0  0  0  0  0  0  0  0  0
   22.2142    8.0958   53.7309 C   0  0  0  0  0  0  0  0  0  0  0  0
   21.1045    7.9741   52.9575 C   0  0  0  0  0  0  0  0  0  0  0  0
   20.5026    9.1013   52.4517 C   0  0  0  0  0  0  0  0  0  0  0  0
   21.0317   10.3302   52.7353 C   0  0  0  0  0  0  0  0  0  0  0  0
   22.1849   10.4396   53.5395 C   0  0  0  0  0  0  0  0  0  0  0  0
   22.6966   11.8005   53.7818 C   0  0  0  0  0  0  0  0  0  0  0  0
   26.3198    8.8892   55.1921 C   0  0  0  0  0  0  0  0  0  0  0  0
   25.1661    8.8721   54.4498 C   0  0  0  0  0  0  0  0  0  0  0  0
   23.9602    9.4149   54.8882 C   0  0  0  0  0  0  0  0  0  0  0  0
   23.9218   10.0054   56.1431 C   0  0  0  0  0  0  0  0  0  0  0  0
   25.0535   10.0167   56.8601 N   0  0  0  0  0  0  0  0  0  0  0  0
   26.2159    9.4996   56.4511 C   0  0  0  0  0  0  0  0  0  0  0  0
   27.4075    9.5211   57.2296 N   0  0  0  0  0  0  0  0  0  0  0  0
   28.1419   10.2690   57.0956 H   0  0  0  0  0  0  0  0  0  0  0  0
   27.6147    8.8090   57.9606 H   0  0  0  0  0  0  0  0  0  0  0  0
   29.5088    5.8574   52.9789 C   0  0  0  0  0  0  0  0  0  0  0  0
   28.9854    7.0082   53.7706 C   0  0  0  0  0  0  0  0  0  0  0  0
   29.7315    7.9586   54.3409 N   0  0  0  0  0  0  0  0  0  0  0  0
   28.8456    8.7836   54.9445 C   0  0  0  0  0  0  0  0  0  0  0  0
   27.5730    8.3210   54.7313 C   0  0  0  0  0  0  0  0  0  0  0  0
   27.7109    7.2343   54.0099 O   0  0  0  0  0  0  0  0  0  0  0  0
   20.5280    6.6513   52.6290 C   0  0  0  0  0  0  0  0  0  0  0  0
   20.2442    6.4654   51.4357 O   0  0  0  0  0  0  0  0  0  0  0  0
   20.3324    5.7015   53.6172 N   0  0  0  0  0  0  0  0  0  0  0  0
   20.6354    5.9995   54.6056 H   0  0  0  0  0  0  0  0  0  0  0  0
   19.7836    4.4075   53.4663 C   0  0  0  0  0  0  0  0  0  0  0  0
   18.3856    4.3206   53.3970 C   0  0  0  0  0  0  0  0  0  0  0  0
   17.7753    3.1036   53.2366 C   0  0  0  0  0  0  0  0  0  0  0  0
   18.5126    1.9597   53.1419 C   0  0  0  0  0  0  0  0  0  0  0  0
   19.8681    2.0306   53.2078 C   0  0  0  0  0  0  0  0  0  0  0  0
   20.5048    3.2675   53.3715 C   0  0  0  0  0  0  0  0  0  0  0  0
   20.6871    0.8352   53.1050 C   0  0  0  0  0  0  0  0  0  0  0  0
   21.4314    0.5901   51.9214 N   0  0  0  0  0  0  0  0  0  0  0  0
   20.7218    0.0365   54.0739 O   0  0  0  0  0  0  0  0  0  0  0  0
   20.9474    0.2866   51.0510 H   0  0  0  0  0  0  0  0  0  0  0  0
   22.4676    0.7245   51.9617 H   0  0  0  0  0  0  0  0  0  0  0  0
 17 18  1  0  0  0
 18 19  2  0  0  0
 19 20  1  0  0  0
 20 21  2  0  0  0
 21 22  1  0  0  0
 21  8  1  0  0  0
  8  9  2  0  0  0
  9 10  1  0  0  0
 10 11  2  0  0  0
 11 12  1  0  0  0
 12 13  2  0  0  0
 13 14  1  0  0  0
 10  1  1  0  0  0
  1  2  2  0  0  0
  2  3  1  0  0  0
  3  4  2  0  0  0
  4  5  1  0  0  0
  5  6  2  0  0  0
  6  7  1  0  0  0
  3 23  1  0  0  0
 23 24  2  0  0  0
 23 25  1  0  0  0
 25 27  1  0  0  0
 27 28  2  0  0  0
 28 29  1  0  0  0
 29 30  2  0  0  0
 30 31  1  0  0  0
 31 32  2  0  0  0
 31 33  1  0  0  0
 33 34  1  0  0  0
 33 35  2  0  0  0
 22 18  1  0  0  0
 13  8  1  0  0  0
  6  1  1  0  0  0
 32 27  1  0  0  0
 14 15  1  0  0  0
 14 16  1  0  0  0
 25 26  1  0  0  0
 34 36  1  0  0  0
 34 37  1  0  0  0
M  END
> <minimizedAffinity>
47.04761

> <CNNscore>
0.5126296282

> <CNNaffinity>
6.2789831161

> <CNN_VS>
3.2187926769

> <CNNaffinity_variance>
0.5941932201

$$$$
[H]c1nc(C([H])([H])[H])oc1-c1c(N([H])[H])nc([H])c(-c2c([H])c(C(=O)N([H])c3c([H])c([H])c([H])c(C(=O)N([H])[H])c3[H])c([H])c([H])c2C([H])([H])[H])c1[H]


 37 40  0  0  0  0  0  0  0  0999 V2000
   23.2337    8.3629   54.1245 C   0  0  0  0  0  0  0  0  0  0  0  0
   22.4626    7.2006   54.1253 C   0  0  0  0  0  0  0  0  0  0  0  0
   21.1065    7.2169   54.0544 C   0  0  0  0  0  0  0  0  0  0  0  0
   20.4450    8.4191   53.9777 C   0  0  0  0  0  0  0  0  0  0  0  0
   21.1642    9.5825   53.9737 C   0  0  0  0  0  0  0  0  0  0  0  0
   22.5720    9.5486   54.0474 C   0  0  0  0  0  0  0  0  0  0  0  0
   23.2680   10.8477   54.0216 C   0  0  0  0  0  0  0  0  0  0  0  0
   26.6837    8.8598   55.4849 C   0  0  0  0  0  0  0  0  0  0  0  0
   25.3211    8.8541   55.3248 C   0  0  0  0  0  0  0  0  0  0  0  0
   24.6780    8.3011   54.2196 C   0  0  0  0  0  0  0  0  0  0  0  0
   25.4557    7.7242   53.2260 C   0  0  0  0  0  0  0  0  0  0  0  0
   26.7852    7.7352   53.3917 N   0  0  0  0  0  0  0  0  0  0  0  0
   27.4139    8.2623   54.4465 C   0  0  0  0  0  0  0  0  0  0  0  0
   28.8288    8.2645   54.6028 N   0  0  0  0  0  0  0  0  0  0  0  0
   29.3232    7.5244   55.1725 H   0  0  0  0  0  0  0  0  0  0  0  0
   29.4413    8.9873   54.1706 H   0  0  0  0  0  0  0  0  0  0  0  0
   28.8283    9.2420   59.9024 C   0  0  0  0  0  0  0  0  0  0  0  0
   28.2902    9.6284   58.5660 C   0  0  0  0  0  0  0  0  0  0  0  0
   28.3194   10.8588   58.0460 N   0  0  0  0  0  0  0  0  0  0  0  0
   27.7285   10.7409   56.8349 C   0  0  0  0  0  0  0  0  0  0  0  0
   27.3487    9.4386   56.6375 C   0  0  0  0  0  0  0  0  0  0  0  0
   27.7129    8.7985   57.7229 O   0  0  0  0  0  0  0  0  0  0  0  0
   20.3144    5.9669   54.0426 C   0  0  0  0  0  0  0  0  0  0  0  0
   20.9509    4.9242   53.8266 O   0  0  0  0  0  0  0  0  0  0  0  0
   18.9480    5.9952   54.2645 N   0  0  0  0  0  0  0  0  0  0  0  0
   18.5337    6.9710   54.4484 H   0  0  0  0  0  0  0  0  0  0  0  0
   18.0574    4.8973   54.2710 C   0  0  0  0  0  0  0  0  0  0  0  0
   17.8319    4.2622   53.0412 C   0  0  0  0  0  0  0  0  0  0  0  0
   16.9928    3.1808   52.9648 C   0  0  0  0  0  0  0  0  0  0  0  0
   16.3644    2.7044   54.0780 C   0  0  0  0  0  0  0  0  0  0  0  0
   16.5745    3.3113   55.2756 C   0  0  0  0  0  0  0  0  0  0  0  0
   17.4293    4.4171   55.3681 C   0  0  0  0  0  0  0  0  0  0  0  0
   15.9279    2.8293   56.4839 C   0  0  0  0  0  0  0  0  0  0  0  0
   15.7795    3.6962   57.5980 N   0  0  0  0  0  0  0  0  0  0  0  0
   15.5083    1.6459   56.5184 O   0  0  0  0  0  0  0  0  0  0  0  0
   16.6040    3.9430   58.1840 H   0  0  0  0  0  0  0  0  0  0  0  0
   14.8236    4.0685   57.8010 H   0  0  0  0  0  0  0  0  0  0  0  0
 17 18  1  0  0  0
 18 19  2  0  0  0
 19 20  1  0  0  0
 20 21  2  0  0  0
 21 22  1  0  0  0
 21  8  1  0  0  0
  8  9  2  0  0  0
  9 10  1  0  0  0
 10 11  2  0  0  0
 11 12  1  0  0  0
 12 13  2  0  0  0
 13 14  1  0  0  0
 10  1  1  0  0  0
  1  2  2  0  0  0
  2  3  1  0  0  0
  3  4  2  0  0  0
  4  5  1  0  0  0
  5  6  2  0  0  0
  6  7  1  0  0  0
  3 23  1  0  0  0
 23 24  2  0  0  0
 23 25  1  0  0  0
 25 27  1  0  0  0
 27 28  2  0  0  0
 28 29  1  0  0  0
 29 30  2  0  0  0
 30 31  1  0  0  0
 31 32  2  0  0  0
 31 33  1  0  0  0
 33 34  1  0  0  0
 33 35  2  0  0  0
 22 18  1  0  0  0
 13  8  1  0  0  0
  6  1  1  0  0  0
 32 27  1  0  0  0
 14 15  1  0  0  0
 14 16  1  0  0  0
 25 26  1  0  0  0
 34 36  1  0  0  0
 34 37  1  0  0  0
M  END
> <minimizedAffinity>
38.10514

> <CNNscore>
0.5063535571

> <CNNaffinity>
6.4013528824

> <CNN_VS>
3.2413477898

> <CNNaffinity_variance>
0.4258360863

$$$$
[H]c1nc(C([H])([H])[H])oc1-c1c(N([H])[H])nc([H])c(-c2c([H])c(C(=O)N([H])c3c([H])c([H])c([H])c(C(=O)N([H])[H])c3[H])c([H])c([H])c2C([H])([H])[H])c1[H]


 37 40  0  0  0  0  0  0  0  0999 V2000
   27.2954    8.7189   52.5281 C   0  0  0  0  0  0  0  0  0  0  0  0
   26.0325    8.1609   52.7263 C   0  0  0  0  0  0  0  0  0  0  0  0
   25.5277    7.9018   53.9601 C   0  0  0  0  0  0  0  0  0  0  0  0
   26.2762    8.1940   55.0750 C   0  0  0  0  0  0  0  0  0  0  0  0
   27.5200    8.7425   54.9243 C   0  0  0  0  0  0  0  0  0  0  0  0
   28.0297    9.0061   53.6362 C   0  0  0  0  0  0  0  0  0  0  0  0
   29.3715    9.6122   53.5661 C   0  0  0  0  0  0  0  0  0  0  0  0
   27.9899   10.4976   49.3103 C   0  0  0  0  0  0  0  0  0  0  0  0
   27.5659   10.1902   50.5784 C   0  0  0  0  0  0  0  0  0  0  0  0
   27.8030    8.9628   51.1933 C   0  0  0  0  0  0  0  0  0  0  0  0
   28.5061    7.9977   50.4868 C   0  0  0  0  0  0  0  0  0  0  0  0
   28.9155    8.3075   49.2493 N   0  0  0  0  0  0  0  0  0  0  0  0
   28.6943    9.4806   48.6485 C   0  0  0  0  0  0  0  0  0  0  0  0
   29.1374    9.7894   47.3315 N   0  0  0  0  0  0  0  0  0  0  0  0
   30.0374   10.3161   47.1603 H   0  0  0  0  0  0  0  0  0  0  0  0
   28.6033    9.5170   46.4801 H   0  0  0  0  0  0  0  0  0  0  0  0
   25.7490   14.7009   48.0571 C   0  0  0  0  0  0  0  0  0  0  0  0
   26.7767   13.6211   48.1119 C   0  0  0  0  0  0  0  0  0  0  0  0
   27.9291   13.6142   47.4358 N   0  0  0  0  0  0  0  0  0  0  0  0
   28.5342   12.4567   47.7879 C   0  0  0  0  0  0  0  0  0  0  0  0
   27.7389   11.7772   48.6738 C   0  0  0  0  0  0  0  0  0  0  0  0
   26.6767   12.5287   48.8395 O   0  0  0  0  0  0  0  0  0  0  0  0
   24.1780    7.3224   54.1411 C   0  0  0  0  0  0  0  0  0  0  0  0
   24.0647    6.4869   55.0510 O   0  0  0  0  0  0  0  0  0  0  0  0
   23.1275    7.7129   53.3280 N   0  0  0  0  0  0  0  0  0  0  0  0
   23.3720    8.4544   52.5878 H   0  0  0  0  0  0  0  0  0  0  0  0
   21.7939    7.2453   53.3662 C   0  0  0  0  0  0  0  0  0  0  0  0
   20.7849    8.2193   53.3630 C   0  0  0  0  0  0  0  0  0  0  0  0
   19.4654    7.8483   53.3843 C   0  0  0  0  0  0  0  0  0  0  0  0
   19.1106    6.5312   53.4090 C   0  0  0  0  0  0  0  0  0  0  0  0
   20.0790    5.5779   53.4127 C   0  0  0  0  0  0  0  0  0  0  0  0
   21.4312    5.9428   53.3910 C   0  0  0  0  0  0  0  0  0  0  0  0
   19.7403    4.1653   53.4328 C   0  0  0  0  0  0  0  0  0  0  0  0
   18.5813    3.7280   54.1258 N   0  0  0  0  0  0  0  0  0  0  0  0
   20.4850    3.3527   52.8304 O   0  0  0  0  0  0  0  0  0  0  0  0
   18.5697    3.7060   55.1666 H   0  0  0  0  0  0  0  0  0  0  0  0
   17.7555    3.4337   53.5556 H   0  0  0  0  0  0  0  0  0  0  0  0
 17 18  1  0  0  0
 18 19  2  0  0  0
 19 20  1  0  0  0
 20 21  2  0  0  0
 21 22  1  0  0  0
 21  8  1  0  0  0
  8  9  2  0  0  0
  9 10  1  0  0  0
 10 11  2  0  0  0
 11 12  1  0  0  0
 12 13  2  0  0  0
 13 14  1  0  0  0
 10  1  1  0  0  0
  1  2  2  0  0  0
  2  3  1  0  0  0
  3  4  2  0  0  0
  4  5  1  0  0  0
  5  6  2  0  0  0
  6  7  1  0  0  0
  3 23  1  0  0  0
 23 24  2  0  0  0
 23 25  1  0  0  0
 25 27  1  0  0  0
 27 28  2  0  0  0
 28 29  1  0  0  0
 29 30  2  0  0  0
 30 31  1  0  0  0
 31 32  2  0  0  0
 31 33  1  0  0  0
 33 34  1  0  0  0
 33 35  2  0  0  0
 22 18  1  0  0  0
 13  8  1  0  0  0
  6  1  1  0  0  0
 32 27  1  0  0  0
 14 15  1  0  0  0
 14 16  1  0  0  0
 25 26  1  0  0  0
 34 36  1  0  0  0
 34 37  1  0  0  0
M  END
> <minimizedAffinity>
38.16115

> <CNNscore>
0.5005850792

> <CNNaffinity>
6.1598010063

> <CNN_VS>
3.0835044384

> <CNNaffinity_variance>
0.6456621885

$$$$
[H]c1nc(C([H])([H])[H])oc1-c1c(N([H])[H])nc([H])c(-c2c([H])c(C(=O)N([H])c3c([H])c([H])c([H])c(C(=O)N([H])[H])c3[H])c([H])c([H])c2C([H])([H])[H])c1[H]


 37 40  0  0  0  0  0  0  0  0999 V2000
   22.8593    7.8722   53.9234 C   0  0  0  0  0  0  0  0  0  0  0  0
   22.0931    8.6774   53.0809 C   0  0  0  0  0  0  0  0  0  0  0  0
   21.0476    8.2004   52.3573 C   0  0  0  0  0  0  0  0  0  0  0  0
   20.7127    6.8703   52.4437 C   0  0  0  0  0  0  0  0  0  0  0  0
   21.4387    6.0464   53.2590 C   0  0  0  0  0  0  0  0  0  0  0  0
   22.5212    6.5574   54.0045 C   0  0  0  0  0  0  0  0  0  0  0  0
   23.2389    5.6033   54.8690 C   0  0  0  0  0  0  0  0  0  0  0  0
   26.3905    8.4850   54.9983 C   0  0  0  0  0  0  0  0  0  0  0  0
   25.2765    8.0352   54.3358 C   0  0  0  0  0  0  0  0  0  0  0  0
   23.9780    8.4183   54.6645 C   0  0  0  0  0  0  0  0  0  0  0  0
   23.7996    9.3028   55.7184 C   0  0  0  0  0  0  0  0  0  0  0  0
   24.8936    9.7359   56.3590 N   0  0  0  0  0  0  0  0  0  0  0  0
   26.1439    9.3760   56.0537 C   0  0  0  0  0  0  0  0  0  0  0  0
   27.2935    9.8474   56.7483 N   0  0  0  0  0  0  0  0  0  0  0  0
   27.8589   10.6653   56.3904 H   0  0  0  0  0  0  0  0  0  0  0  0
   27.6330    9.4148   57.6327 H   0  0  0  0  0  0  0  0  0  0  0  0
   30.1132    5.9613   52.9903 C   0  0  0  0  0  0  0  0  0  0  0  0
   29.3843    6.9921   53.7847 C   0  0  0  0  0  0  0  0  0  0  0  0
   29.9558    7.9686   54.4956 N   0  0  0  0  0  0  0  0  0  0  0  0
   28.9247    8.6534   55.0412 C   0  0  0  0  0  0  0  0  0  0  0  0
   27.7409    8.0816   54.6529 C   0  0  0  0  0  0  0  0  0  0  0  0
   28.0743    7.0703   53.8871 O   0  0  0  0  0  0  0  0  0  0  0  0
   20.2426    9.0813   51.4819 C   0  0  0  0  0  0  0  0  0  0  0  0
   20.7502   10.1785   51.2036 O   0  0  0  0  0  0  0  0  0  0  0  0
   19.0033    8.6738   51.0183 N   0  0  0  0  0  0  0  0  0  0  0  0
   18.6963    7.6919   51.3335 H   0  0  0  0  0  0  0  0  0  0  0  0
   18.1152    9.4006   50.1928 C   0  0  0  0  0  0  0  0  0  0  0  0
   16.8163    9.5963   50.6842 C   0  0  0  0  0  0  0  0  0  0  0  0
   15.8985   10.3030   49.9510 C   0  0  0  0  0  0  0  0  0  0  0  0
   16.2296   10.8264   48.7355 C   0  0  0  0  0  0  0  0  0  0  0  0
   17.4848   10.6434   48.2481 C   0  0  0  0  0  0  0  0  0  0  0  0
   18.4326    9.9235   48.9867 C   0  0  0  0  0  0  0  0  0  0  0  0
   17.8763   11.1906   46.9606 C   0  0  0  0  0  0  0  0  0  0  0  0
   17.7861   10.3851   45.7953 N   0  0  0  0  0  0  0  0  0  0  0  0
   18.2886   12.3757   46.9035 O   0  0  0  0  0  0  0  0  0  0  0  0
   18.4711    9.6177   45.6340 H   0  0  0  0  0  0  0  0  0  0  0  0
   17.0166   10.5929   45.1185 H   0  0  0  0  0  0  0  0  0  0  0  0
 17 18  1  0  0  0
 18 19  2  0  0  0
 19 20  1  0  0  0
 20 21  2  0  0  0
 21 22  1  0  0  0
 21  8  1  0  0  0
  8  9  2  0  0  0
  9 10  1  0  0  0
 10 11  2  0  0  0
 11 12  1  0  0  0
 12 13  2  0  0  0
 13 14  1  0  0  0
 10  1  1  0  0  0
  1  2  2  0  0  0
  2  3  1  0  0  0
  3  4  2  0  0  0
  4  5  1  0  0  0
  5  6  2  0  0  0
  6  7  1  0  0  0
  3 23  1  0  0  0
 23 24  2  0  0  0
 23 25  1  0  0  0
 25 27  1  0  0  0
 27 28  2  0  0  0
 28 29  1  0  0  0
 29 30  2  0  0  0
 30 31  1  0  0  0
 31 32  2  0  0  0
 31 33  1  0  0  0
 33 34  1  0  0  0
 33 35  2  0  0  0
 22 18  1  0  0  0
 13  8  1  0  0  0
  6  1  1  0  0  0
 32 27  1  0  0  0
 14 15  1  0  0  0
 14 16  1  0  0  0
 25 26  1  0  0  0
 34 36  1  0  0  0
 34 37  1  0  0  0
M  END
> <minimizedAffinity>
52.44286

> <CNNscore>
0.4704210460

> <CNNaffinity>
5.9916410446

> <CNN_VS>
2.8185939789

> <CNNaffinity_variance>
0.5835698247

$$$$
[H]c1nc(C([H])([H])[H])oc1-c1c(N([H])[H])nc([H])c(-c2c([H])c(C(=O)N([H])c3c([H])c([H])c([H])c(C(=O)N([H])[H])c3[H])c([H])c([H])c2C([H])([H])[H])c1[H]


 37 40  0  0  0  0  0  0  0  0999 V2000
   23.5638    8.7448   54.6548 C   0  0  0  0  0  0  0  0  0  0  0  0
   22.7741    7.6389   54.3407 C   0  0  0  0  0  0  0  0  0  0  0  0
   21.4188    7.6965   54.2766 C   0  0  0  0  0  0  0  0  0  0  0  0
   20.7771    8.8855   54.5284 C   0  0  0  0  0  0  0  0  0  0  0  0
   21.5149    9.9942   54.8398 C   0  0  0  0  0  0  0  0  0  0  0  0
   22.9217    9.9180   54.9017 C   0  0  0  0  0  0  0  0  0  0  0  0
   23.6386   11.1637   55.2288 C   0  0  0  0  0  0  0  0  0  0  0  0
   27.0435    9.0935   55.9855 C   0  0  0  0  0  0  0  0  0  0  0  0
   25.6796    9.1349   55.8425 C   0  0  0  0  0  0  0  0  0  0  0  0
   25.0065    8.6354   54.7298 C   0  0  0  0  0  0  0  0  0  0  0  0
   25.7540    8.0644   53.7099 C   0  0  0  0  0  0  0  0  0  0  0  0
   27.0849    8.0292   53.8590 N   0  0  0  0  0  0  0  0  0  0  0  0
   27.7423    8.5048   54.9209 C   0  0  0  0  0  0  0  0  0  0  0  0
   29.1582    8.4583   55.0593 N   0  0  0  0  0  0  0  0  0  0  0  0
   29.6358    7.6866   55.6007 H   0  0  0  0  0  0  0  0  0  0  0  0
   29.7881    9.1743   54.6407 H   0  0  0  0  0  0  0  0  0  0  0  0
   29.2948    9.2672   60.3629 C   0  0  0  0  0  0  0  0  0  0  0  0
   28.7280    9.7155   59.0580 C   0  0  0  0  0  0  0  0  0  0  0  0
   28.7539   10.9674   58.5919 N   0  0  0  0  0  0  0  0  0  0  0  0
   28.1336   10.9066   57.3914 C   0  0  0  0  0  0  0  0  0  0  0  0
   27.7398    9.6167   57.1461 C   0  0  0  0  0  0  0  0  0  0  0  0
   28.1249    8.9272   58.1933 O   0  0  0  0  0  0  0  0  0  0  0  0
   20.6066    6.5099   53.9266 C   0  0  0  0  0  0  0  0  0  0  0  0
   21.2085    5.5937   53.3458 O   0  0  0  0  0  0  0  0  0  0  0  0
   19.2600    6.4577   54.2444 N   0  0  0  0  0  0  0  0  0  0  0  0
   18.8764    7.3219   54.7577 H   0  0  0  0  0  0  0  0  0  0  0  0
   18.3536    5.4088   53.9671 C   0  0  0  0  0  0  0  0  0  0  0  0
   17.0109    5.6312   54.3052 C   0  0  0  0  0  0  0  0  0  0  0  0
   16.0664    4.6694   54.0557 C   0  0  0  0  0  0  0  0  0  0  0  0
   16.4131    3.4837   53.4770 C   0  0  0  0  0  0  0  0  0  0  0  0
   17.7110    3.2560   53.1450 C   0  0  0  0  0  0  0  0  0  0  0  0
   18.6864    4.2300   53.3941 C   0  0  0  0  0  0  0  0  0  0  0  0
   18.1176    2.0082   52.5220 C   0  0  0  0  0  0  0  0  0  0  0  0
   19.4879    1.7788   52.2318 N   0  0  0  0  0  0  0  0  0  0  0  0
   17.2414    1.1497   52.2516 O   0  0  0  0  0  0  0  0  0  0  0  0
   19.9475    2.2780   51.4421 H   0  0  0  0  0  0  0  0  0  0  0  0
   20.0056    1.0985   52.8342 H   0  0  0  0  0  0  0  0  0  0  0  0
 17 18  1  0  0  0
 18 19  2  0  0  0
 19 20  1  0  0  0
 20 21  2  0  0  0
 21 22  1  0  0  0
 21  8  1  0  0  0
  8  9  2  0  0  0
  9 10  1  0  0  0
 10 11  2  0  0  0
 11 12  1  0  0  0
 12 13  2  0  0  0
 13 14  1  0  0  0
 10  1  1  0  0  0
  1  2  2  0  0  0
  2  3  1  0  0  0
  3  4  2  0  0  0
  4  5  1  0  0  0
  5  6  2  0  0  0
  6  7  1  0  0  0
  3 23  1  0  0  0
 23 24  2  0  0  0
 23 25  1  0  0  0
 25 27  1  0  0  0
 27 28  2  0  0  0
 28 29  1  0  0  0
 29 30  2  0  0  0
 30 31  1  0  0  0
 31 32  2  0  0  0
 31 33  1  0  0  0
 33 34  1  0  0  0
 33 35  2  0  0  0
 22 18  1  0  0  0
 13  8  1  0  0  0
  6  1  1  0  0  0
 32 27  1  0  0  0
 14 15  1  0  0  0
 14 16  1  0  0  0
 25 26  1  0  0  0
 34 36  1  0  0  0
 34 37  1  0  0  0
M  END
> <minimizedAffinity>
30.37740

> <CNNscore>
0.4685136974

> <CNNaffinity>
6.3136472702

> <CNN_VS>
2.9580302238

> <CNNaffinity_variance>
0.1583989561

$$$$
[H]c1nc(C([H])([H])[H])oc1-c1c(N([H])[H])nc([H])c(-c2c([H])c(C(=O)N([H])c3c([H])c([H])c([H])c(C(=O)N([H])[H])c3[H])c([H])c([H])c2C([H])([H])[H])c1[H]


 37 40  0  0  0  0  0  0  0  0999 V2000
   23.9342    7.7619   53.9626 C   0  0  0  0  0  0  0  0  0  0  0  0
   24.5015    8.5927   54.9287 C   0  0  0  0  0  0  0  0  0  0  0  0
   25.8425    8.6908   55.1195 C   0  0  0  0  0  0  0  0  0  0  0  0
   26.6955    7.9486   54.3383 C   0  0  0  0  0  0  0  0  0  0  0  0
   26.1797    7.1216   53.3789 C   0  0  0  0  0  0  0  0  0  0  0  0
   24.7848    7.0314   53.1929 C   0  0  0  0  0  0  0  0  0  0  0  0
   24.3159    6.1279   52.1267 C   0  0  0  0  0  0  0  0  0  0  0  0
   20.5362    6.2484   53.5578 C   0  0  0  0  0  0  0  0  0  0  0  0
   21.8860    6.4239   53.7297 C   0  0  0  0  0  0  0  0  0  0  0  0
   22.4968    7.6737   53.8041 C   0  0  0  0  0  0  0  0  0  0  0  0
   21.6986    8.8037   53.6992 C   0  0  0  0  0  0  0  0  0  0  0  0
   20.3819    8.6216   53.5313 N   0  0  0  0  0  0  0  0  0  0  0  0
   19.7842    7.4286   53.4582 C   0  0  0  0  0  0  0  0  0  0  0  0
   18.3825    7.2571   53.2784 N   0  0  0  0  0  0  0  0  0  0  0  0
   17.7359    7.0935   54.0980 H   0  0  0  0  0  0  0  0  0  0  0  0
   17.9285    7.2820   52.3415 H   0  0  0  0  0  0  0  0  0  0  0  0
   19.7431    1.5378   52.3575 C   0  0  0  0  0  0  0  0  0  0  0  0
   19.5386    2.8839   52.9668 C   0  0  0  0  0  0  0  0  0  0  0  0
   18.5033    3.2374   53.7338 N   0  0  0  0  0  0  0  0  0  0  0  0
   18.7324    4.5309   54.0563 C   0  0  0  0  0  0  0  0  0  0  0  0
   19.9052    4.9441   53.4794 C   0  0  0  0  0  0  0  0  0  0  0  0
   20.3597    3.9028   52.8240 O   0  0  0  0  0  0  0  0  0  0  0  0
   26.4175    9.5919   56.1430 C   0  0  0  0  0  0  0  0  0  0  0  0
   25.9830   10.7539   56.1473 O   0  0  0  0  0  0  0  0  0  0  0  0
   27.3787    9.1330   57.0275 N   0  0  0  0  0  0  0  0  0  0  0  0
   27.6511    8.0985   56.9121 H   0  0  0  0  0  0  0  0  0  0  0  0
   28.0294    9.8686   58.0444 C   0  0  0  0  0  0  0  0  0  0  0  0
   28.8158    9.1368   58.9459 C   0  0  0  0  0  0  0  0  0  0  0  0
   29.4912    9.7771   59.9525 C   0  0  0  0  0  0  0  0  0  0  0  0
   29.4113   11.1315   60.0956 C   0  0  0  0  0  0  0  0  0  0  0  0
   28.6522   11.8518   59.2286 C   0  0  0  0  0  0  0  0  0  0  0  0
   27.9570   11.2105   58.1955 C   0  0  0  0  0  0  0  0  0  0  0  0
   28.5473   13.2960   59.3455 C   0  0  0  0  0  0  0  0  0  0  0  0
   28.9406   13.9364   60.5496 N   0  0  0  0  0  0  0  0  0  0  0  0
   28.1085   13.9548   58.3701 O   0  0  0  0  0  0  0  0  0  0  0  0
   28.3458   13.8631   61.4010 H   0  0  0  0  0  0  0  0  0  0  0  0
   29.8366   14.4756   60.5439 H   0  0  0  0  0  0  0  0  0  0  0  0
 17 18  1  0  0  0
 18 19  2  0  0  0
 19 20  1  0  0  0
 20 21  2  0  0  0
 21 22  1  0  0  0
 21  8  1  0  0  0
  8  9  2  0  0  0
  9 10  1  0  0  0
 10 11  2  0  0  0
 11 12  1  0  0  0
 12 13  2  0  0  0
 13 14  1  0  0  0
 10  1  1  0  0  0
  1  2  2  0  0  0
  2  3  1  0  0  0
  3  4  2  0  0  0
  4  5  1  0  0  0
  5  6  2  0  0  0
  6  7  1  0  0  0
  3 23  1  0  0  0
 23 24  2  0  0  0
 23 25  1  0  0  0
 25 27  1  0  0  0
 27 28  2  0  0  0
 28 29  1  0  0  0
 29 30  2  0  0  0
 30 31  1  0  0  0
 31 32  2  0  0  0
 31 33  1  0  0  0
 33 34  1  0  0  0
 33 35  2  0  0  0
 22 18  1  0  0  0
 13  8  1  0  0  0
  6  1  1  0  0  0
 32 27  1  0  0  0
 14 15  1  0  0  0
 14 16  1  0  0  0
 25 26  1  0  0  0
 34 36  1  0  0  0
 34 37  1  0  0  0
M  END
> <minimizedAffinity>
26.90273

> <CNNscore>
0.4684983790

> <CNNaffinity>
6.2096486092

> <CNN_VS>
2.9092102051

> <CNNaffinity_variance>
0.3232836425

$$$$
[H]c1nc(C([H])([H])[H])oc1-c1c(N([H])[H])nc([H])c(-c2c([H])c(C(=O)N([H])c3c([H])c([H])c([H])c(C(=O)N([H])[H])c3[H])c([H])c([H])c2C([H])([H])[H])c1[H]


 37 40  0  0  0  0  0  0  0  0999 V2000
   24.2002    7.9111   53.6192 C   0  0  0  0  0  0  0  0  0  0  0  0
   25.1147    8.4377   52.7071 C   0  0  0  0  0  0  0  0  0  0  0  0
   26.4487    8.4978   52.9537 C   0  0  0  0  0  0  0  0  0  0  0  0
   26.9406    8.0250   54.1468 C   0  0  0  0  0  0  0  0  0  0  0  0
   26.0773    7.5001   55.0685 C   0  0  0  0  0  0  0  0  0  0  0  0
   24.6946    7.4444   54.7970 C   0  0  0  0  0  0  0  0  0  0  0  0
   23.8386    6.8490   55.8389 C   0  0  0  0  0  0  0  0  0  0  0  0
   20.7139    6.5955   53.2798 C   0  0  0  0  0  0  0  0  0  0  0  0
   22.0530    6.7176   53.5520 C   0  0  0  0  0  0  0  0  0  0  0  0
   22.7823    7.8823   53.3232 C   0  0  0  0  0  0  0  0  0  0  0  0
   22.1203    8.9796   52.7916 C   0  0  0  0  0  0  0  0  0  0  0  0
   20.8129    8.8501   52.5290 N   0  0  0  0  0  0  0  0  0  0  0  0
   20.1024    7.7388   52.7437 C   0  0  0  0  0  0  0  0  0  0  0  0
   18.7131    7.6217   52.4567 N   0  0  0  0  0  0  0  0  0  0  0  0
   17.9801    7.7652   53.2042 H   0  0  0  0  0  0  0  0  0  0  0  0
   18.3525    7.3898   51.5076 H   0  0  0  0  0  0  0  0  0  0  0  0
   17.0145    3.5971   54.5385 C   0  0  0  0  0  0  0  0  0  0  0  0
   18.3543    4.0495   54.0638 C   0  0  0  0  0  0  0  0  0  0  0  0
   19.3499    3.2470   53.6765 N   0  0  0  0  0  0  0  0  0  0  0  0
   20.3583    4.0810   53.3340 C   0  0  0  0  0  0  0  0  0  0  0  0
   19.9592    5.3793   53.5187 C   0  0  0  0  0  0  0  0  0  0  0  0
   18.7283    5.3078   53.9661 O   0  0  0  0  0  0  0  0  0  0  0  0
   27.3980    9.0489   51.9611 C   0  0  0  0  0  0  0  0  0  0  0  0
   28.4047    9.6058   52.4254 O   0  0  0  0  0  0  0  0  0  0  0  0
   27.1481    8.9311   50.6044 N   0  0  0  0  0  0  0  0  0  0  0  0
   26.2400    8.4137   50.3490 H   0  0  0  0  0  0  0  0  0  0  0  0
   27.9446    9.4135   49.5407 C   0  0  0  0  0  0  0  0  0  0  0  0
   28.7491    8.4737   48.8802 C   0  0  0  0  0  0  0  0  0  0  0  0
   29.5404    8.8580   47.8287 C   0  0  0  0  0  0  0  0  0  0  0  0
   29.5602   10.1553   47.4072 C   0  0  0  0  0  0  0  0  0  0  0  0
   28.7853   11.0755   48.0393 C   0  0  0  0  0  0  0  0  0  0  0  0
   27.9720   10.6967   49.1149 C   0  0  0  0  0  0  0  0  0  0  0  0
   28.7752   12.4650   47.6155 C   0  0  0  0  0  0  0  0  0  0  0  0
   27.6984   13.3094   47.9927 N   0  0  0  0  0  0  0  0  0  0  0  0
   29.7280   12.8954   46.9192 O   0  0  0  0  0  0  0  0  0  0  0  0
   26.7665   13.2048   47.5402 H   0  0  0  0  0  0  0  0  0  0  0  0
   27.8790   14.0280   48.7306 H   0  0  0  0  0  0  0  0  0  0  0  0
 17 18  1  0  0  0
 18 19  2  0  0  0
 19 20  1  0  0  0
 20 21  2  0  0  0
 21 22  1  0  0  0
 21  8  1  0  0  0
  8  9  2  0  0  0
  9 10  1  0  0  0
 10 11  2  0  0  0
 11 12  1  0  0  0
 12 13  2  0  0  0
 13 14  1  0  0  0
 10  1  1  0  0  0
  1  2  2  0  0  0
  2  3  1  0  0  0
  3  4  2  0  0  0
  4  5  1  0  0  0
  5  6  2  0  0  0
  6  7  1  0  0  0
  3 23  1  0  0  0
 23 24  2  0  0  0
 23 25  1  0  0  0
 25 27  1  0  0  0
 27 28  2  0  0  0
 28 29  1  0  0  0
 29 30  2  0  0  0
 30 31  1  0  0  0
 31 32  2  0  0  0
 31 33  1  0  0  0
 33 34  1  0  0  0
 33 35  2  0  0  0
 22 18  1  0  0  0
 13  8  1  0  0  0
  6  1  1  0  0  0
 32 27  1  0  0  0
 14 15  1  0  0  0
 14 16  1  0  0  0
 25 26  1  0  0  0
 34 36  1  0  0  0
 34 37  1  0  0  0
M  END
> <minimizedAffinity>
38.90933

> <CNNscore>
0.4637727439

> <CNNaffinity>
6.1447839737

> <CNN_VS>
2.8497834206

> <CNNaffinity_variance>
0.2186684608

$$$$
[H]OC(C([H])([H])[H])(C([H])([H])[H])C([H])([H])N([H])S(=O)(=O)c1c([H])c([H])c(C([H])([H])[H])c(-c2c([H])nc(N([H])[H])c(-c3oc(C([H])([H])[H])nc3[H])c2[H])c1[H]


 33 35  0  0  0  0  0  0  0  0999 V2000
   23.8542    9.1153   54.4924 C   0  0  0  0  0  0  0  0  0  0  0  0
   23.2064    8.7118   53.3366 C   0  0  0  0  0  0  0  0  0  0  0  0
   21.8591    8.9424   53.1325 C   0  0  0  0  0  0  0  0  0  0  0  0
   21.1539    9.6012   54.1319 C   0  0  0  0  0  0  0  0  0  0  0  0
   21.7672   10.0172   55.2952 C   0  0  0  0  0  0  0  0  0  0  0  0
   23.1420    9.7595   55.4567 C   0  0  0  0  0  0  0  0  0  0  0  0
   23.8240   10.2155   56.6900 C   0  0  0  0  0  0  0  0  0  0  0  0
   27.2073    9.0793   56.0057 C   0  0  0  0  0  0  0  0  0  0  0  0
   25.8669    9.3275   55.8425 C   0  0  0  0  0  0  0  0  0  0  0  0
   25.2657    8.8362   54.6739 C   0  0  0  0  0  0  0  0  0  0  0  0
   26.0519    8.1438   53.7752 C   0  0  0  0  0  0  0  0  0  0  0  0
   27.3512    7.9285   53.9796 N   0  0  0  0  0  0  0  0  0  0  0  0
   27.9640    8.3783   55.0784 C   0  0  0  0  0  0  0  0  0  0  0  0
   29.3394    8.1778   55.3450 N   0  0  0  0  0  0  0  0  0  0  0  0
   29.7205    7.2591   55.6496 H   0  0  0  0  0  0  0  0  0  0  0  0
   29.9964    8.9803   55.2320 H   0  0  0  0  0  0  0  0  0  0  0  0
   29.3808    9.2629   60.4916 C   0  0  0  0  0  0  0  0  0  0  0  0
   28.8219    9.6439   59.1621 C   0  0  0  0  0  0  0  0  0  0  0  0
   28.8306   10.9011   58.6650 N   0  0  0  0  0  0  0  0  0  0  0  0
   28.2492   10.8856   57.4514 C   0  0  0  0  0  0  0  0  0  0  0  0
   27.8850    9.5772   57.2235 C   0  0  0  0  0  0  0  0  0  0  0  0
   28.2480    8.8892   58.2673 O   0  0  0  0  0  0  0  0  0  0  0  0
   21.0669    8.4173   51.6539 S   0  0  0  0  0  0  0  0  0  0  0  0
   20.2995    9.5445   51.0280 O   0  0  0  0  0  0  0  0  0  0  0  0
   22.1184    7.9905   50.6829 O   0  0  0  0  0  0  0  0  0  0  0  0
   20.0876    7.0743   52.0300 N   0  0  0  0  0  0  0  0  0  0  0  0
   20.3464    6.2914   51.4205 H   0  0  0  0  0  0  0  0  0  0  0  0
   20.0740    6.7579   53.4380 C   0  0  0  0  0  0  0  0  0  0  0  0
   21.2250    5.8406   53.7697 C   0  0  0  0  0  0  0  0  0  0  0  0
   22.3398    6.0364   52.7856 C   0  0  0  0  0  0  0  0  0  0  0  0
   21.7684    6.0796   55.1507 C   0  0  0  0  0  0  0  0  0  0  0  0
   20.7300    4.5319   53.7424 O   0  0  0  0  0  0  0  0  0  0  0  0
   20.7348    4.1461   52.8386 H   0  0  0  0  0  0  0  0  0  0  0  0
 17 18  1  0  0  0
 18 19  2  0  0  0
 19 20  1  0  0  0
 20 21  2  0  0  0
 21 22  1  0  0  0
 21  8  1  0  0  0
  8  9  2  0  0  0
  9 10  1  0  0  0
 10 11  2  0  0  0
 11 12  1  0  0  0
 12 13  2  0  0  0
 13 14  1  0  0  0
 10  1  1  0  0  0
  1  2  2  0  0  0
  2  3  1  0  0  0
  3  4  2  0  0  0
  4  5  1  0  0  0
  5  6  2  0  0  0
  6  7  1  0  0  0
  3 23  1  0  0  0
 23 24  2  0  0  0
 23 25  2  0  0  0
 23 26  1  0  0  0
 26 28  1  0  0  0
 28 29  1  0  0  0
 29 30  1  0  0  0
 29 31  1  0  0  0
 29 32  1  0  0  0
 22 18  1  0  0  0
 13  8  1  0  0  0
  6  1  1  0  0  0
 14 15  1  0  0  0
 14 16  1  0  0  0
 26 27  1  0  0  0
 32 33  1  0  0  0
M  END
> <minimizedAffinity>
8.90768

> <CNNscore>
0.8133059144

> <CNNaffinity>
7.0890302658

> <CNN_VS>
5.7655501366

> <CNNaffinity_variance>
0.3876132071

$$$$
[H]OC(C([H])([H])[H])(C([H])([H])[H])C([H])([H])N([H])S(=O)(=O)c1c([H])c([H])c(C([H])([H])[H])c(-c2c([H])nc(N([H])[H])c(-c3oc(C([H])([H])[H])nc3[H])c2[H])c1[H]


 33 35  0  0  0  0  0  0  0  0999 V2000
   24.6949    7.5225   53.7037 C   0  0  0  0  0  0  0  0  0  0  0  0
   23.5923    7.9424   52.9781 C   0  0  0  0  0  0  0  0  0  0  0  0
   22.3762    7.2892   53.0484 C   0  0  0  0  0  0  0  0  0  0  0  0
   22.2815    6.1800   53.8794 C   0  0  0  0  0  0  0  0  0  0  0  0
   23.3591    5.7347   54.6163 C   0  0  0  0  0  0  0  0  0  0  0  0
   24.5769    6.4336   54.5114 C   0  0  0  0  0  0  0  0  0  0  0  0
   25.7408    5.9837   55.3095 C   0  0  0  0  0  0  0  0  0  0  0  0
   27.5630    9.2520   52.1812 C   0  0  0  0  0  0  0  0  0  0  0  0
   26.3588    8.6023   52.2951 C   0  0  0  0  0  0  0  0  0  0  0  0
   25.9575    8.2259   53.5858 C   0  0  0  0  0  0  0  0  0  0  0  0
   26.7900    8.5295   54.6441 C   0  0  0  0  0  0  0  0  0  0  0  0
   27.9513    9.1629   54.4815 N   0  0  0  0  0  0  0  0  0  0  0  0
   28.3719    9.5395   53.2705 C   0  0  0  0  0  0  0  0  0  0  0  0
   29.5949   10.2140   53.0417 N   0  0  0  0  0  0  0  0  0  0  0  0
   29.7294   11.2193   53.2730 H   0  0  0  0  0  0  0  0  0  0  0  0
   30.3918    9.6846   52.6258 H   0  0  0  0  0  0  0  0  0  0  0  0
   28.9882   12.0552   48.3094 C   0  0  0  0  0  0  0  0  0  0  0  0
   28.6414   10.8906   49.1746 C   0  0  0  0  0  0  0  0  0  0  0  0
   28.7048    9.6005   48.7753 N   0  0  0  0  0  0  0  0  0  0  0  0
   28.3251    8.8159   49.8007 C   0  0  0  0  0  0  0  0  0  0  0  0
   28.0276    9.6695   50.8397 C   0  0  0  0  0  0  0  0  0  0  0  0
   28.2326   10.8820   50.4125 O   0  0  0  0  0  0  0  0  0  0  0  0
   20.9960    7.8477   52.1143 S   0  0  0  0  0  0  0  0  0  0  0  0
   21.3944    8.1538   50.7006 O   0  0  0  0  0  0  0  0  0  0  0  0
   19.9820    6.7520   52.0725 O   0  0  0  0  0  0  0  0  0  0  0  0
   20.3230    9.1896   52.9209 N   0  0  0  0  0  0  0  0  0  0  0  0
   19.6491    8.8564   53.6182 H   0  0  0  0  0  0  0  0  0  0  0  0
   21.3172   10.0998   53.4363 C   0  0  0  0  0  0  0  0  0  0  0  0
   21.3636   10.0115   54.9418 C   0  0  0  0  0  0  0  0  0  0  0  0
   20.5817    8.8211   55.4122 C   0  0  0  0  0  0  0  0  0  0  0  0
   22.7673    9.8900   55.4657 C   0  0  0  0  0  0  0  0  0  0  0  0
   20.8396   11.2092   55.4411 O   0  0  0  0  0  0  0  0  0  0  0  0
   19.8594   11.1920   55.5098 H   0  0  0  0  0  0  0  0  0  0  0  0
 17 18  1  0  0  0
 18 19  2  0  0  0
 19 20  1  0  0  0
 20 21  2  0  0  0
 21 22  1  0  0  0
 21  8  1  0  0  0
  8  9  2  0  0  0
  9 10  1  0  0  0
 10 11  2  0  0  0
 11 12  1  0  0  0
 12 13  2  0  0  0
 13 14  1  0  0  0
 10  1  1  0  0  0
  1  2  2  0  0  0
  2  3  1  0  0  0
  3  4  2  0  0  0
  4  5  1  0  0  0
  5  6  2  0  0  0
  6  7  1  0  0  0
  3 23  1  0  0  0
 23 24  2  0  0  0
 23 25  2  0  0  0
 23 26  1  0  0  0
 26 28  1  0  0  0
 28 29  1  0  0  0
 29 30  1  0  0  0
 29 31  1  0  0  0
 29 32  1  0  0  0
 22 18  1  0  0  0
 13  8  1  0  0  0
  6  1  1  0  0  0
 14 15  1  0  0  0
 14 16  1  0  0  0
 26 27  1  0  0  0
 32 33  1  0  0  0
M  END
> <minimizedAffinity>
23.48056

> <CNNscore>
0.7024157047

> <CNNaffinity>
6.6905965805

> <CNN_VS>
4.6995801926

> <CNNaffinity_variance>
0.4440229535

$$$$
[H]OC(C([H])([H])[H])(C([H])([H])[H])C([H])([H])N([H])S(=O)(=O)c1c([H])c([H])c(C([H])([H])[H])c(-c2c([H])nc(N([H])[H])c(-c3oc(C([H])([H])[H])nc3[H])c2[H])c1[H]


 33 35  0  0  0  0  0  0  0  0999 V2000
   26.4180    8.2982   54.9583 C   0  0  0  0  0  0  0  0  0  0  0  0
   26.7194    8.5203   56.2918 C   0  0  0  0  0  0  0  0  0  0  0  0
   27.9204    9.0770   56.6893 C   0  0  0  0  0  0  0  0  0  0  0  0
   28.8375    9.4161   55.7024 C   0  0  0  0  0  0  0  0  0  0  0  0
   28.5701    9.2092   54.3652 C   0  0  0  0  0  0  0  0  0  0  0  0
   27.3325    8.6395   54.0100 C   0  0  0  0  0  0  0  0  0  0  0  0
   27.0176    8.4272   52.5783 C   0  0  0  0  0  0  0  0  0  0  0  0
   23.0937    7.8898   53.4361 C   0  0  0  0  0  0  0  0  0  0  0  0
   24.2991    8.4541   53.7732 C   0  0  0  0  0  0  0  0  0  0  0  0
   25.1532    7.6940   54.5864 C   0  0  0  0  0  0  0  0  0  0  0  0
   24.7307    6.4435   54.9898 C   0  0  0  0  0  0  0  0  0  0  0  0
   23.5491    5.9391   54.6350 N   0  0  0  0  0  0  0  0  0  0  0  0
   22.7050    6.6283   53.8619 C   0  0  0  0  0  0  0  0  0  0  0  0
   21.4400    6.1406   53.4560 N   0  0  0  0  0  0  0  0  0  0  0  0
   21.3324    5.4109   52.7224 H   0  0  0  0  0  0  0  0  0  0  0  0
   20.5827    6.5263   53.9086 H   0  0  0  0  0  0  0  0  0  0  0  0
   20.9277   11.6036   50.9069 C   0  0  0  0  0  0  0  0  0  0  0  0
   21.2335   10.2654   51.4908 C   0  0  0  0  0  0  0  0  0  0  0  0
   20.4872    9.1570   51.2853 N   0  0  0  0  0  0  0  0  0  0  0  0
   21.0468    8.1337   51.9567 C   0  0  0  0  0  0  0  0  0  0  0  0
   22.1598    8.6535   52.5791 C   0  0  0  0  0  0  0  0  0  0  0  0
   22.2200    9.9163   52.2683 O   0  0  0  0  0  0  0  0  0  0  0  0
   28.2721    9.3458   58.3903 S   0  0  0  0  0  0  0  0  0  0  0  0
   27.0242    9.2470   59.2174 O   0  0  0  0  0  0  0  0  0  0  0  0
   29.2076    8.2769   58.8518 O   0  0  0  0  0  0  0  0  0  0  0  0
   29.0480   10.8561   58.5350 N   0  0  0  0  0  0  0  0  0  0  0  0
   28.6680   11.4956   57.8292 H   0  0  0  0  0  0  0  0  0  0  0  0
   29.0350   11.3748   59.8816 C   0  0  0  0  0  0  0  0  0  0  0  0
   28.4622   12.7705   59.8893 C   0  0  0  0  0  0  0  0  0  0  0  0
   29.4279   13.7200   60.5340 C   0  0  0  0  0  0  0  0  0  0  0  0
   28.1600   13.2734   58.5054 C   0  0  0  0  0  0  0  0  0  0  0  0
   27.2473   12.7134   60.5815 O   0  0  0  0  0  0  0  0  0  0  0  0
   27.3631   12.7983   61.5536 H   0  0  0  0  0  0  0  0  0  0  0  0
 17 18  1  0  0  0
 18 19  2  0  0  0
 19 20  1  0  0  0
 20 21  2  0  0  0
 21 22  1  0  0  0
 21  8  1  0  0  0
  8  9  2  0  0  0
  9 10  1  0  0  0
 10 11  2  0  0  0
 11 12  1  0  0  0
 12 13  2  0  0  0
 13 14  1  0  0  0
 10  1  1  0  0  0
  1  2  2  0  0  0
  2  3  1  0  0  0
  3  4  2  0  0  0
  4  5  1  0  0  0
  5  6  2  0  0  0
  6  7  1  0  0  0
  3 23  1  0  0  0
 23 24  2  0  0  0
 23 25  2  0  0  0
 23 26  1  0  0  0
 26 28  1  0  0  0
 28 29  1  0  0  0
 29 30  1  0  0  0
 29 31  1  0  0  0
 29 32  1  0  0  0
 22 18  1  0  0  0
 13  8  1  0  0  0
  6  1  1  0  0  0
 14 15  1  0  0  0
 14 16  1  0  0  0
 26 27  1  0  0  0
 32 33  1  0  0  0
M  END
> <minimizedAffinity>
7.88233

> <CNNscore>
0.6939671040

> <CNNaffinity>
6.5002846718

> <CNN_VS>
4.5109839439

> <CNNaffinity_variance>
0.2121886313

$$$$
[H]OC(C([H])([H])[H])(C([H])([H])[H])C([H])([H])N([H])S(=O)(=O)c1c([H])c([H])c(C([H])([H])[H])c(-c2c([H])nc(N([H])[H])c(-c3oc(C([H])([H])[H])nc3[H])c2[H])c1[H]


 33 35  0  0  0  0  0  0  0  0999 V2000
   22.2065    9.1733   53.1013 C   0  0  0  0  0  0  0  0  0  0  0  0
   21.9108   10.3060   52.3610 C   0  0  0  0  0  0  0  0  0  0  0  0
   21.0140   10.2815   51.3097 C   0  0  0  0  0  0  0  0  0  0  0  0
   20.4029    9.0716   51.0050 C   0  0  0  0  0  0  0  0  0  0  0  0
   20.6736    7.9244   51.7214 C   0  0  0  0  0  0  0  0  0  0  0  0
   21.5943    8.0000   52.7840 C   0  0  0  0  0  0  0  0  0  0  0  0
   21.8841    6.7840   53.5785 C   0  0  0  0  0  0  0  0  0  0  0  0
   25.3808    8.8575   54.9339 C   0  0  0  0  0  0  0  0  0  0  0  0
   24.4747    8.8123   53.9034 C   0  0  0  0  0  0  0  0  0  0  0  0
   23.1682    9.2395   54.1847 C   0  0  0  0  0  0  0  0  0  0  0  0
   22.8826    9.6718   55.4640 C   0  0  0  0  0  0  0  0  0  0  0  0
   23.7988    9.6968   56.4315 N   0  0  0  0  0  0  0  0  0  0  0  0
   25.0546    9.2993   56.2075 C   0  0  0  0  0  0  0  0  0  0  0  0
   26.0657    9.3055   57.1978 N   0  0  0  0  0  0  0  0  0  0  0  0
   26.5242   10.1813   57.5216 H   0  0  0  0  0  0  0  0  0  0  0  0
   26.3632    8.3988   57.6194 H   0  0  0  0  0  0  0  0  0  0  0  0
   29.3245    6.2796   53.2960 C   0  0  0  0  0  0  0  0  0  0  0  0
   28.4670    7.2964   53.9713 C   0  0  0  0  0  0  0  0  0  0  0  0
   28.9432    8.3235   54.7101 N   0  0  0  0  0  0  0  0  0  0  0  0
   27.9006    9.0408   55.1682 C   0  0  0  0  0  0  0  0  0  0  0  0
   26.7717    8.4178   54.6847 C   0  0  0  0  0  0  0  0  0  0  0  0
   27.1670    7.3938   53.9847 O   0  0  0  0  0  0  0  0  0  0  0  0
   20.6608   11.7371   50.3898 S   0  0  0  0  0  0  0  0  0  0  0  0
   20.4532   12.9100   51.3021 O   0  0  0  0  0  0  0  0  0  0  0  0
   21.8368   12.0412   49.5208 O   0  0  0  0  0  0  0  0  0  0  0  0
   19.3118   11.4186   49.3985 N   0  0  0  0  0  0  0  0  0  0  0  0
   18.4553   11.6084   49.9293 H   0  0  0  0  0  0  0  0  0  0  0  0
   19.3804   12.0783   48.1168 C   0  0  0  0  0  0  0  0  0  0  0  0
   18.2849   11.5650   47.2153 C   0  0  0  0  0  0  0  0  0  0  0  0
   18.0816   12.5055   46.0648 C   0  0  0  0  0  0  0  0  0  0  0  0
   18.5910   10.2017   46.6608 C   0  0  0  0  0  0  0  0  0  0  0  0
   17.1312   11.4421   47.9977 O   0  0  0  0  0  0  0  0  0  0  0  0
   16.6286   12.2841   48.0628 H   0  0  0  0  0  0  0  0  0  0  0  0
 17 18  1  0  0  0
 18 19  2  0  0  0
 19 20  1  0  0  0
 20 21  2  0  0  0
 21 22  1  0  0  0
 21  8  1  0  0  0
  8  9  2  0  0  0
  9 10  1  0  0  0
 10 11  2  0  0  0
 11 12  1  0  0  0
 12 13  2  0  0  0
 13 14  1  0  0  0
 10  1  1  0  0  0
  1  2  2  0  0  0
  2  3  1  0  0  0
  3  4  2  0  0  0
  4  5  1  0  0  0
  5  6  2  0  0  0
  6  7  1  0  0  0
  3 23  1  0  0  0
 23 24  2  0  0  0
 23 25  2  0  0  0
 23 26  1  0  0  0
 26 28  1  0  0  0
 28 29  1  0  0  0
 29 30  1  0  0  0
 29 31  1  0  0  0
 29 32  1  0  0  0
 22 18  1  0  0  0
 13  8  1  0  0  0
  6  1  1  0  0  0
 14 15  1  0  0  0
 14 16  1  0  0  0
 26 27  1  0  0  0
 32 33  1  0  0  0
M  END
> <minimizedAffinity>
45.14921

> <CNNscore>
0.6300126314

> <CNNaffinity>
6.1974210739

> <CNN_VS>
3.9044535160

> <CNNaffinity_variance>
0.3739539683

$$$$
[H]OC(C([H])([H])[H])(C([H])([H])[H])C([H])([H])N([H])S(=O)(=O)c1c([H])c([H])c(C([H])([H])[H])c(-c2c([H])nc(N([H])[H])c(-c3oc(C([H])([H])[H])nc3[H])c2[H])c1[H]


 33 35  0  0  0  0  0  0  0  0999 V2000
   24.6898    7.4907   53.8555 C   0  0  0  0  0  0  0  0  0  0  0  0
   23.5383    7.9125   53.2117 C   0  0  0  0  0  0  0  0  0  0  0  0
   22.3460    7.2210   53.3137 C   0  0  0  0  0  0  0  0  0  0  0  0
   22.3267    6.0702   54.0917 C   0  0  0  0  0  0  0  0  0  0  0  0
   23.4546    5.6217   54.7469 C   0  0  0  0  0  0  0  0  0  0  0  0
   24.6455    6.3606   54.6126 C   0  0  0  0  0  0  0  0  0  0  0  0
   25.8630    5.9070   55.3240 C   0  0  0  0  0  0  0  0  0  0  0  0
   27.4856    9.2695   52.2575 C   0  0  0  0  0  0  0  0  0  0  0  0
   26.3071    8.5799   52.4007 C   0  0  0  0  0  0  0  0  0  0  0  0
   25.9247    8.2361   53.7061 C   0  0  0  0  0  0  0  0  0  0  0  0
   26.7488    8.6091   54.7487 C   0  0  0  0  0  0  0  0  0  0  0  0
   27.8849    9.2791   54.5576 N   0  0  0  0  0  0  0  0  0  0  0  0
   28.2869    9.6267   53.3317 C   0  0  0  0  0  0  0  0  0  0  0  0
   29.4829   10.3378   53.0727 N   0  0  0  0  0  0  0  0  0  0  0  0
   29.5803   11.3551   53.2666 H   0  0  0  0  0  0  0  0  0  0  0  0
   30.2978    9.8237   52.6725 H   0  0  0  0  0  0  0  0  0  0  0  0
   28.7973   11.9809   48.2814 C   0  0  0  0  0  0  0  0  0  0  0  0
   28.4941   10.8365   49.1889 C   0  0  0  0  0  0  0  0  0  0  0  0
   28.5993    9.5360   48.8348 N   0  0  0  0  0  0  0  0  0  0  0  0
   28.2511    8.7757   49.8893 C   0  0  0  0  0  0  0  0  0  0  0  0
   27.9297    9.6548   50.8994 C   0  0  0  0  0  0  0  0  0  0  0  0
   28.0916   10.8577   50.4287 O   0  0  0  0  0  0  0  0  0  0  0  0
   20.9022    7.7832   52.4837 S   0  0  0  0  0  0  0  0  0  0  0  0
   20.4991    9.1435   52.9719 O   0  0  0  0  0  0  0  0  0  0  0  0
   21.2115    7.8976   51.0270 O   0  0  0  0  0  0  0  0  0  0  0  0
   19.6829    6.6119   52.6969 N   0  0  0  0  0  0  0  0  0  0  0  0
   19.4488    6.2040   51.7858 H   0  0  0  0  0  0  0  0  0  0  0  0
   19.9961    5.6462   53.7226 C   0  0  0  0  0  0  0  0  0  0  0  0
   19.0235    4.4946   53.6584 C   0  0  0  0  0  0  0  0  0  0  0  0
   19.2394    3.7077   52.3998 C   0  0  0  0  0  0  0  0  0  0  0  0
   19.1635    3.5605   54.8277 C   0  0  0  0  0  0  0  0  0  0  0  0
   17.7357    5.0391   53.7177 O   0  0  0  0  0  0  0  0  0  0  0  0
   17.4033    5.3173   52.8358 H   0  0  0  0  0  0  0  0  0  0  0  0
 17 18  1  0  0  0
 18 19  2  0  0  0
 19 20  1  0  0  0
 20 21  2  0  0  0
 21 22  1  0  0  0
 21  8  1  0  0  0
  8  9  2  0  0  0
  9 10  1  0  0  0
 10 11  2  0  0  0
 11 12  1  0  0  0
 12 13  2  0  0  0
 13 14  1  0  0  0
 10  1  1  0  0  0
  1  2  2  0  0  0
  2  3  1  0  0  0
  3  4  2  0  0  0
  4  5  1  0  0  0
  5  6  2  0  0  0
  6  7  1  0  0  0
  3 23  1  0  0  0
 23 24  2  0  0  0
 23 25  2  0  0  0
 23 26  1  0  0  0
 26 28  1  0  0  0
 28 29  1  0  0  0
 29 30  1  0  0  0
 29 31  1  0  0  0
 29 32  1  0  0  0
 22 18  1  0  0  0
 13  8  1  0  0  0
  6  1  1  0  0  0
 14 15  1  0  0  0
 14 16  1  0  0  0
 26 27  1  0  0  0
 32 33  1  0  0  0
M  END
> <minimizedAffinity>
31.75844

> <CNNscore>
0.6243789792

> <CNNaffinity>
6.2611894608

> <CNN_VS>
3.9093551636

> <CNNaffinity_variance>
0.5619875789

$$$$
[H]OC(C([H])([H])[H])(C([H])([H])[H])C([H])([H])N([H])S(=O)(=O)c1c([H])c([H])c(C([H])([H])[H])c(-c2c([H])nc(N([H])[H])c(-c3oc(C([H])([H])[H])nc3[H])c2[H])c1[H]


 33 35  0  0  0  0  0  0  0  0999 V2000
   24.5842    7.8755   54.6965 C   0  0  0  0  0  0  0  0  0  0  0  0
   23.5313    8.7727   54.7668 C   0  0  0  0  0  0  0  0  0  0  0  0
   22.2144    8.3680   54.6553 C   0  0  0  0  0  0  0  0  0  0  0  0
   21.9643    7.0144   54.4674 C   0  0  0  0  0  0  0  0  0  0  0  0
   22.9885    6.0936   54.3931 C   0  0  0  0  0  0  0  0  0  0  0  0
   24.3135    6.5545   54.5126 C   0  0  0  0  0  0  0  0  0  0  0  0
   25.4271    5.5794   54.4554 C   0  0  0  0  0  0  0  0  0  0  0  0
   27.6660    9.2616   56.1510 C   0  0  0  0  0  0  0  0  0  0  0  0
   26.3766    8.7993   56.0575 C   0  0  0  0  0  0  0  0  0  0  0  0
   25.9522    8.3456   54.7995 C   0  0  0  0  0  0  0  0  0  0  0  0
   26.8480    8.3934   53.7505 C   0  0  0  0  0  0  0  0  0  0  0  0
   28.0914    8.8518   53.8925 N   0  0  0  0  0  0  0  0  0  0  0  0
   28.5370    9.2934   55.0721 C   0  0  0  0  0  0  0  0  0  0  0  0
   29.8463    9.7897   55.2780 N   0  0  0  0  0  0  0  0  0  0  0  0
   30.6778    9.1666   55.3286 H   0  0  0  0  0  0  0  0  0  0  0  0
   29.9841   10.8185   55.3830 H   0  0  0  0  0  0  0  0  0  0  0  0
   29.1406   12.2681   59.8480 C   0  0  0  0  0  0  0  0  0  0  0  0
   28.7936   11.0582   59.0474 C   0  0  0  0  0  0  0  0  0  0  0  0
   28.8948    9.7895   59.5033 N   0  0  0  0  0  0  0  0  0  0  0  0
   28.5030    8.9510   58.5262 C   0  0  0  0  0  0  0  0  0  0  0  0
   28.1590    9.7496   57.4582 C   0  0  0  0  0  0  0  0  0  0  0  0
   28.3508   10.9843   57.8235 O   0  0  0  0  0  0  0  0  0  0  0  0
   20.9009    9.5323   54.7488 S   0  0  0  0  0  0  0  0  0  0  0  0
   19.7366    8.9665   55.5073 O   0  0  0  0  0  0  0  0  0  0  0  0
   21.3878   10.7317   55.4940 O   0  0  0  0  0  0  0  0  0  0  0  0
   20.4967    9.9983   53.1603 N   0  0  0  0  0  0  0  0  0  0  0  0
   20.3595   11.0141   53.1351 H   0  0  0  0  0  0  0  0  0  0  0  0
   21.4160    9.4935   52.1689 C   0  0  0  0  0  0  0  0  0  0  0  0
   20.9401    8.1547   51.6613 C   0  0  0  0  0  0  0  0  0  0  0  0
   22.1059    7.2285   51.4806 C   0  0  0  0  0  0  0  0  0  0  0  0
   19.9609    7.5023   52.5968 C   0  0  0  0  0  0  0  0  0  0  0  0
   20.2673    8.3864   50.4564 O   0  0  0  0  0  0  0  0  0  0  0  0
   20.8756    8.4181   49.6852 H   0  0  0  0  0  0  0  0  0  0  0  0
 17 18  1  0  0  0
 18 19  2  0  0  0
 19 20  1  0  0  0
 20 21  2  0  0  0
 21 22  1  0  0  0
 21  8  1  0  0  0
  8  9  2  0  0  0
  9 10  1  0  0  0
 10 11  2  0  0  0
 11 12  1  0  0  0
 12 13  2  0  0  0
 13 14  1  0  0  0
 10  1  1  0  0  0
  1  2  2  0  0  0
  2  3  1  0  0  0
  3  4  2  0  0  0
  4  5  1  0  0  0
  5  6  2  0  0  0
  6  7  1  0  0  0
  3 23  1  0  0  0
 23 24  2  0  0  0
 23 25  2  0  0  0
 23 26  1  0  0  0
 26 28  1  0  0  0
 28 29  1  0  0  0
 29 30  1  0  0  0
 29 31  1  0  0  0
 29 32  1  0  0  0
 22 18  1  0  0  0
 13  8  1  0  0  0
  6  1  1  0  0  0
 14 15  1  0  0  0
 14 16  1  0  0  0
 26 27  1  0  0  0
 32 33  1  0  0  0
M  END
> <minimizedAffinity>
11.48070

> <CNNscore>
0.5971907377

> <CNNaffinity>
6.6606650352

> <CNN_VS>
3.9776873589

> <CNNaffinity_variance>
0.3351296186

$$$$
[H]OC(C([H])([H])[H])(C([H])([H])[H])C([H])([H])N([H])S(=O)(=O)c1c([H])c([H])c(C([H])([H])[H])c(-c2c([H])nc(N([H])[H])c(-c3oc(C([H])([H])[H])nc3[H])c2[H])c1[H]


 33 35  0  0  0  0  0  0  0  0999 V2000
   24.7402    7.9051   54.4197 C   0  0  0  0  0  0  0  0  0  0  0  0
   23.6546    8.7556   54.5477 C   0  0  0  0  0  0  0  0  0  0  0  0
   22.3719    8.2820   54.7491 C   0  0  0  0  0  0  0  0  0  0  0  0
   22.1910    6.9065   54.8220 C   0  0  0  0  0  0  0  0  0  0  0  0
   23.2496    6.0307   54.6991 C   0  0  0  0  0  0  0  0  0  0  0  0
   24.5377    6.5614   54.4953 C   0  0  0  0  0  0  0  0  0  0  0  0
   25.6908    5.6389   54.3806 C   0  0  0  0  0  0  0  0  0  0  0  0
   27.6667    9.2567   52.6467 C   0  0  0  0  0  0  0  0  0  0  0  0
   26.4043    8.7638   52.8666 C   0  0  0  0  0  0  0  0  0  0  0  0
   26.0669    8.4439   54.1904 C   0  0  0  0  0  0  0  0  0  0  0  0
   27.0152    8.6430   55.1734 C   0  0  0  0  0  0  0  0  0  0  0  0
   28.2292    9.1250   54.9086 N   0  0  0  0  0  0  0  0  0  0  0  0
   28.5923    9.4429   53.6627 C   0  0  0  0  0  0  0  0  0  0  0  0
   29.8670    9.9578   53.3264 N   0  0  0  0  0  0  0  0  0  0  0  0
   30.1448   10.9388   53.5332 H   0  0  0  0  0  0  0  0  0  0  0  0
   30.5544    9.3314   52.8537 H   0  0  0  0  0  0  0  0  0  0  0  0
   28.4777    9.0205   47.7306 C   0  0  0  0  0  0  0  0  0  0  0  0
   28.4131    9.4955   49.1432 C   0  0  0  0  0  0  0  0  0  0  0  0
   28.8392   10.7097   49.5579 N   0  0  0  0  0  0  0  0  0  0  0  0
   28.6336   10.8053   50.8845 C   0  0  0  0  0  0  0  0  0  0  0  0
   28.0677    9.6093   51.2665 C   0  0  0  0  0  0  0  0  0  0  0  0
   27.9613    8.8749   50.1969 O   0  0  0  0  0  0  0  0  0  0  0  0
   21.0153    9.3884   54.9075 S   0  0  0  0  0  0  0  0  0  0  0  0
   19.8931    8.7535   55.6748 O   0  0  0  0  0  0  0  0  0  0  0  0
   21.4711   10.5843   55.6773 O   0  0  0  0  0  0  0  0  0  0  0  0
   20.5548    9.8836   53.3433 N   0  0  0  0  0  0  0  0  0  0  0  0
   20.3869   10.8951   53.3494 H   0  0  0  0  0  0  0  0  0  0  0  0
   21.4616    9.4334   52.3150 C   0  0  0  0  0  0  0  0  0  0  0  0
   21.0063    8.0996   51.7764 C   0  0  0  0  0  0  0  0  0  0  0  0
   22.1748    7.1669   51.6556 C   0  0  0  0  0  0  0  0  0  0  0  0
   19.9736    7.4495   52.6541 C   0  0  0  0  0  0  0  0  0  0  0  0
   20.4018    8.3401   50.5374 O   0  0  0  0  0  0  0  0  0  0  0  0
   21.0515    8.3712   49.8008 H   0  0  0  0  0  0  0  0  0  0  0  0
 17 18  1  0  0  0
 18 19  2  0  0  0
 19 20  1  0  0  0
 20 21  2  0  0  0
 21 22  1  0  0  0
 21  8  1  0  0  0
  8  9  2  0  0  0
  9 10  1  0  0  0
 10 11  2  0  0  0
 11 12  1  0  0  0
 12 13  2  0  0  0
 13 14  1  0  0  0
 10  1  1  0  0  0
  1  2  2  0  0  0
  2  3  1  0  0  0
  3  4  2  0  0  0
  4  5  1  0  0  0
  5  6  2  0  0  0
  6  7  1  0  0  0
  3 23  1  0  0  0
 23 24  2  0  0  0
 23 25  2  0  0  0
 23 26  1  0  0  0
 26 28  1  0  0  0
 28 29  1  0  0  0
 29 30  1  0  0  0
 29 31  1  0  0  0
 29 32  1  0  0  0
 22 18  1  0  0  0
 13  8  1  0  0  0
  6  1  1  0  0  0
 14 15  1  0  0  0
 14 16  1  0  0  0
 26 27  1  0  0  0
 32 33  1  0  0  0
M  END
> <minimizedAffinity>
22.49273

> <CNNscore>
0.5937114358

> <CNNaffinity>
6.5941200256

> <CNN_VS>
3.9150044918

> <CNNaffinity_variance>
0.4110445380

$$$$
[H]OC(C([H])([H])[H])(C([H])([H])[H])C([H])([H])N([H])S(=O)(=O)c1c([H])c([H])c(C([H])([H])[H])c(-c2c([H])nc(N([H])[H])c(-c3oc(C([H])([H])[H])nc3[H])c2[H])c1[H]


 33 35  0  0  0  0  0  0  0  0999 V2000
   25.0022    8.0513   54.2877 C   0  0  0  0  0  0  0  0  0  0  0  0
   23.9103    8.8944   54.4114 C   0  0  0  0  0  0  0  0  0  0  0  0
   22.6216    8.4681   54.1511 C   0  0  0  0  0  0  0  0  0  0  0  0
   22.4411    7.1489   53.7547 C   0  0  0  0  0  0  0  0  0  0  0  0
   23.5057    6.2820   53.6217 C   0  0  0  0  0  0  0  0  0  0  0  0
   24.7997    6.7630   53.8986 C   0  0  0  0  0  0  0  0  0  0  0  0
   25.9545    5.8429   53.7810 C   0  0  0  0  0  0  0  0  0  0  0  0
   27.8916    9.4023   56.1210 C   0  0  0  0  0  0  0  0  0  0  0  0
   26.6312    8.9174   55.8736 C   0  0  0  0  0  0  0  0  0  0  0  0
   26.3398    8.5451   54.5526 C   0  0  0  0  0  0  0  0  0  0  0  0
   27.3276    8.6892   53.5993 C   0  0  0  0  0  0  0  0  0  0  0  0
   28.5378    9.1656   53.8902 N   0  0  0  0  0  0  0  0  0  0  0  0
   28.8580    9.5320   55.1345 C   0  0  0  0  0  0  0  0  0  0  0  0
   30.1267   10.0433   55.4978 N   0  0  0  0  0  0  0  0  0  0  0  0
   30.9684    9.4380   55.5840 H   0  0  0  0  0  0  0  0  0  0  0  0
   30.2228   11.0649   55.6862 H   0  0  0  0  0  0  0  0  0  0  0  0
   29.0265   12.1669   60.1147 C   0  0  0  0  0  0  0  0  0  0  0  0
   28.7348   11.0115   59.2174 C   0  0  0  0  0  0  0  0  0  0  0  0
   28.7402    9.7193   59.6146 N   0  0  0  0  0  0  0  0  0  0  0  0
   28.4367    8.9450   58.5565 C   0  0  0  0  0  0  0  0  0  0  0  0
   28.2456    9.8071   57.4997 C   0  0  0  0  0  0  0  0  0  0  0  0
   28.4346   11.0143   57.9487 O   0  0  0  0  0  0  0  0  0  0  0  0
   21.2572    9.5636   54.3176 S   0  0  0  0  0  0  0  0  0  0  0  0
   21.5256   10.5972   55.3715 O   0  0  0  0  0  0  0  0  0  0  0  0
   21.0666   10.2781   53.0199 O   0  0  0  0  0  0  0  0  0  0  0  0
   19.8688    8.6296   54.6404 N   0  0  0  0  0  0  0  0  0  0  0  0
   19.0871    8.9900   54.0833 H   0  0  0  0  0  0  0  0  0  0  0  0
   20.0952    7.2106   54.5069 C   0  0  0  0  0  0  0  0  0  0  0  0
   19.5295    6.7211   53.1966 C   0  0  0  0  0  0  0  0  0  0  0  0
   18.0432    6.9208   53.1706 C   0  0  0  0  0  0  0  0  0  0  0  0
   20.1216    7.4359   52.0142 C   0  0  0  0  0  0  0  0  0  0  0  0
   19.8757    5.3705   53.0774 O   0  0  0  0  0  0  0  0  0  0  0  0
   19.2368    4.7764   53.5297 H   0  0  0  0  0  0  0  0  0  0  0  0
 17 18  1  0  0  0
 18 19  2  0  0  0
 19 20  1  0  0  0
 20 21  2  0  0  0
 21 22  1  0  0  0
 21  8  1  0  0  0
  8  9  2  0  0  0
  9 10  1  0  0  0
 10 11  2  0  0  0
 11 12  1  0  0  0
 12 13  2  0  0  0
 13 14  1  0  0  0
 10  1  1  0  0  0
  1  2  2  0  0  0
  2  3  1  0  0  0
  3  4  2  0  0  0
  4  5  1  0  0  0
  5  6  2  0  0  0
  6  7  1  0  0  0
  3 23  1  0  0  0
 23 24  2  0  0  0
 23 25  2  0  0  0
 23 26  1  0  0  0
 26 28  1  0  0  0
 28 29  1  0  0  0
 29 30  1  0  0  0
 29 31  1  0  0  0
 29 32  1  0  0  0
 22 18  1  0  0  0
 13  8  1  0  0  0
  6  1  1  0  0  0
 14 15  1  0  0  0
 14 16  1  0  0  0
 26 27  1  0  0  0
 32 33  1  0  0  0
M  END
> <minimizedAffinity>
17.30378

> <CNNscore>
0.5787284374

> <CNNaffinity>
6.3510446548

> <CNN_VS>
3.6755301952

> <CNNaffinity_variance>
0.4294866920

$$$$
[H]OC(C([H])([H])[H])(C([H])([H])[H])C([H])([H])N([H])S(=O)(=O)c1c([H])c([H])c(C([H])([H])[H])c(-c2c([H])nc(N([H])[H])c(-c3oc(C([H])([H])[H])nc3[H])c2[H])c1[H]


 33 35  0  0  0  0  0  0  0  0999 V2000
   23.6381    8.8016   54.4935 C   0  0  0  0  0  0  0  0  0  0  0  0
   22.9271    8.0466   53.5755 C   0  0  0  0  0  0  0  0  0  0  0  0
   21.5547    8.1494   53.4476 C   0  0  0  0  0  0  0  0  0  0  0  0
   20.8901    9.0446   54.2764 C   0  0  0  0  0  0  0  0  0  0  0  0
   21.5667    9.8123   55.2014 C   0  0  0  0  0  0  0  0  0  0  0  0
   22.9646    9.6722   55.2938 C   0  0  0  0  0  0  0  0  0  0  0  0
   23.7124   10.5017   56.2669 C   0  0  0  0  0  0  0  0  0  0  0  0
   27.0444    9.0347   55.8638 C   0  0  0  0  0  0  0  0  0  0  0  0
   25.6811    9.1631   55.7640 C   0  0  0  0  0  0  0  0  0  0  0  0
   25.0757    8.6485   54.6076 C   0  0  0  0  0  0  0  0  0  0  0  0
   25.8808    8.0542   53.6570 C   0  0  0  0  0  0  0  0  0  0  0  0
   27.2020    7.9537   53.8007 N   0  0  0  0  0  0  0  0  0  0  0  0
   27.8196    8.4299   54.8856 C   0  0  0  0  0  0  0  0  0  0  0  0
   29.2179    8.3495   55.0885 N   0  0  0  0  0  0  0  0  0  0  0  0
   29.6938    7.4622   55.3500 H   0  0  0  0  0  0  0  0  0  0  0  0
   29.7940    9.2115   54.9718 H   0  0  0  0  0  0  0  0  0  0  0  0
   29.2475    9.3237   60.3297 C   0  0  0  0  0  0  0  0  0  0  0  0
   28.6772    9.6739   58.9965 C   0  0  0  0  0  0  0  0  0  0  0  0
   28.6751   10.9205   58.4735 N   0  0  0  0  0  0  0  0  0  0  0  0
   28.0855   10.8765   57.2645 C   0  0  0  0  0  0  0  0  0  0  0  0
   27.7274    9.5616   57.0662 C   0  0  0  0  0  0  0  0  0  0  0  0
   28.1017    8.8975   58.1215 O   0  0  0  0  0  0  0  0  0  0  0  0
   20.6819    7.1766   52.2722 S   0  0  0  0  0  0  0  0  0  0  0  0
   20.0258    8.0451   51.2396 O   0  0  0  0  0  0  0  0  0  0  0  0
   21.6628    6.2973   51.5683 O   0  0  0  0  0  0  0  0  0  0  0  0
   19.5738    6.1972   53.1189 N   0  0  0  0  0  0  0  0  0  0  0  0
   18.7291    6.0800   52.5496 H   0  0  0  0  0  0  0  0  0  0  0  0
   20.1528    4.9629   53.5922 C   0  0  0  0  0  0  0  0  0  0  0  0
   19.0766    3.9172   53.7484 C   0  0  0  0  0  0  0  0  0  0  0  0
   17.7250    4.5673   53.7636 C   0  0  0  0  0  0  0  0  0  0  0  0
   19.0986    2.9023   52.6398 C   0  0  0  0  0  0  0  0  0  0  0  0
   19.3382    3.2316   54.9400 O   0  0  0  0  0  0  0  0  0  0  0  0
   18.9581    3.6831   55.7258 H   0  0  0  0  0  0  0  0  0  0  0  0
 17 18  1  0  0  0
 18 19  2  0  0  0
 19 20  1  0  0  0
 20 21  2  0  0  0
 21 22  1  0  0  0
 21  8  1  0  0  0
  8  9  2  0  0  0
  9 10  1  0  0  0
 10 11  2  0  0  0
 11 12  1  0  0  0
 12 13  2  0  0  0
 13 14  1  0  0  0
 10  1  1  0  0  0
  1  2  2  0  0  0
  2  3  1  0  0  0
  3  4  2  0  0  0
  4  5  1  0  0  0
  5  6  2  0  0  0
  6  7  1  0  0  0
  3 23  1  0  0  0
 23 24  2  0  0  0
 23 25  2  0  0  0
 23 26  1  0  0  0
 26 28  1  0  0  0
 28 29  1  0  0  0
 29 30  1  0  0  0
 29 31  1  0  0  0
 29 32  1  0  0  0
 22 18  1  0  0  0
 13  8  1  0  0  0
  6  1  1  0  0  0
 14 15  1  0  0  0
 14 16  1  0  0  0
 26 27  1  0  0  0
 32 33  1  0  0  0
M  END
> <minimizedAffinity>
11.28495

> <CNNscore>
0.5782706141

> <CNNaffinity>
6.8439278603

> <CNN_VS>
3.9576423168

> <CNNaffinity_variance>
0.2448584586

$$$$
[H]c1c([H])c([H])c2c(c1[H])c(C(=O)OC1([H])C([H])([H])C3([H])N(C([H])([H])[H])C([H])(C([H])([H])C3([H])[H])C1([H])[H])c([H])n2[H]


 22 25  0  0  0  0  0  0  0  0999 V2000
   25.5519    7.2774   54.2528 C   0  0  0  0  0  0  0  0  0  0  0  0
   25.1154    6.5755   55.1938 O   0  0  0  0  0  0  0  0  0  0  0  0
   26.6947    8.1447   54.4467 C   0  0  0  0  0  0  0  0  0  0  0  0
   27.6146    8.4895   53.4541 C   0  0  0  0  0  0  0  0  0  0  0  0
   28.5453    9.3028   53.9597 N   0  0  0  0  0  0  0  0  0  0  0  0
   28.2882    9.5207   55.2594 C   0  0  0  0  0  0  0  0  0  0  0  0
   28.8964   10.2551   56.2499 C   0  0  0  0  0  0  0  0  0  0  0  0
   28.3783   10.2764   57.5104 C   0  0  0  0  0  0  0  0  0  0  0  0
   27.2420    9.5718   57.8303 C   0  0  0  0  0  0  0  0  0  0  0  0
   26.6283    8.8345   56.8427 C   0  0  0  0  0  0  0  0  0  0  0  0
   27.1301    8.7997   55.5761 C   0  0  0  0  0  0  0  0  0  0  0  0
   29.3719    9.7402   53.4826 H   0  0  0  0  0  0  0  0  0  0  0  0
   24.8987    7.1857   53.0357 O   0  0  0  0  0  0  0  0  0  0  0  0
   19.7931    8.5062   54.6309 C   0  0  0  0  0  0  0  0  0  0  0  0
   21.1566    8.0865   54.3998 N   0  0  0  0  0  0  0  0  0  0  0  0
   21.2046    7.1711   53.2575 C   0  0  0  0  0  0  0  0  0  0  0  0
   20.8938    8.0750   52.1097 C   0  0  0  0  0  0  0  0  0  0  0  0
   21.3369    9.4680   52.4890 C   0  0  0  0  0  0  0  0  0  0  0  0
   21.9047    9.2186   53.8922 C   0  0  0  0  0  0  0  0  0  0  0  0
   23.3657    8.9016   53.7087 C   0  0  0  0  0  0  0  0  0  0  0  0
   23.6023    7.7107   52.8156 C   0  0  0  0  0  0  0  0  0  0  0  0
   22.6150    6.6268   53.2103 C   0  0  0  0  0  0  0  0  0  0  0  0
 14 15  1  0  0  0
 15 16  1  0  0  0
 16 17  1  0  0  0
 17 18  1  0  0  0
 18 19  1  0  0  0
 19 20  1  0  0  0
 20 21  1  0  0  0
 21 22  1  0  0  0
 21 13  1  0  0  0
 13  1  1  0  0  0
  1  2  2  0  0  0
  1  3  1  0  0  0
  3  4  2  0  0  0
  4  5  1  0  0  0
  5  6  1  0  0  0
  6  7  2  0  0  0
  7  8  1  0  0  0
  8  9  2  0  0  0
  9 10  1  0  0  0
 10 11  2  0  0  0
 19 15  1  0  0  0
 11  3  1  0  0  0
 22 16  1  0  0  0
 11  6  1  0  0  0
  5 12  1  0  0  0
M  END
> <minimizedAffinity>
8.28148

> <CNNscore>
0.7408038378

> <CNNaffinity>
5.6346311569

> <CNN_VS>
4.1741561890

> <CNNaffinity_variance>
0.3067832291

$$$$
[H]c1c([H])c([H])c2c(c1[H])c(C(=O)OC1([H])C([H])([H])C3([H])N(C([H])([H])[H])C([H])(C([H])([H])C3([H])[H])C1([H])[H])c([H])n2[H]


 22 25  0  0  0  0  0  0  0  0999 V2000
   25.4280    7.3434   54.5207 C   0  0  0  0  0  0  0  0  0  0  0  0
   25.4049    6.3140   53.8077 O   0  0  0  0  0  0  0  0  0  0  0  0
   26.5912    8.2051   54.5364 C   0  0  0  0  0  0  0  0  0  0  0  0
   27.3842    8.4985   53.4249 C   0  0  0  0  0  0  0  0  0  0  0  0
   28.3750    9.3215   53.7779 N   0  0  0  0  0  0  0  0  0  0  0  0
   28.2807    9.5956   55.0889 C   0  0  0  0  0  0  0  0  0  0  0  0
   29.0104   10.3633   55.9657 C   0  0  0  0  0  0  0  0  0  0  0  0
   28.6512   10.4424   57.2780 C   0  0  0  0  0  0  0  0  0  0  0  0
   27.5585    9.7642   57.7642 C   0  0  0  0  0  0  0  0  0  0  0  0
   26.8238    8.9938   56.8912 C   0  0  0  0  0  0  0  0  0  0  0  0
   27.1659    8.9012   55.5753 C   0  0  0  0  0  0  0  0  0  0  0  0
   29.1393    9.7295   53.1852 H   0  0  0  0  0  0  0  0  0  0  0  0
   24.3043    7.6140   55.2825 O   0  0  0  0  0  0  0  0  0  0  0  0
   20.4426    7.9495   51.3670 C   0  0  0  0  0  0  0  0  0  0  0  0
   21.5485    7.7299   52.2713 N   0  0  0  0  0  0  0  0  0  0  0  0
   22.1960    9.0071   52.5788 C   0  0  0  0  0  0  0  0  0  0  0  0
   21.1652    9.6960   53.4119 C   0  0  0  0  0  0  0  0  0  0  0  0
   20.3370    8.6315   54.0910 C   0  0  0  0  0  0  0  0  0  0  0  0
   21.0150    7.3593   53.5662 C   0  0  0  0  0  0  0  0  0  0  0  0
   22.0994    7.0178   54.5541 C   0  0  0  0  0  0  0  0  0  0  0  0
   23.1049    8.1266   54.7314 C   0  0  0  0  0  0  0  0  0  0  0  0
   23.4490    8.6701   53.3560 C   0  0  0  0  0  0  0  0  0  0  0  0
 14 15  1  0  0  0
 15 16  1  0  0  0
 16 17  1  0  0  0
 17 18  1  0  0  0
 18 19  1  0  0  0
 19 20  1  0  0  0
 20 21  1  0  0  0
 21 22  1  0  0  0
 21 13  1  0  0  0
 13  1  1  0  0  0
  1  2  2  0  0  0
  1  3  1  0  0  0
  3  4  2  0  0  0
  4  5  1  0  0  0
  5  6  1  0  0  0
  6  7  2  0  0  0
  7  8  1  0  0  0
  8  9  2  0  0  0
  9 10  1  0  0  0
 10 11  2  0  0  0
 19 15  1  0  0  0
 11  3  1  0  0  0
 22 16  1  0  0  0
 11  6  1  0  0  0
  5 12  1  0  0  0
M  END
> <minimizedAffinity>
8.26579

> <CNNscore>
0.7369763255

> <CNNaffinity>
5.5806350708

> <CNN_VS>
4.1127958298

> <CNNaffinity_variance>
0.4564316273

$$$$
[H]c1c([H])c([H])c2c(c1[H])c(C(=O)OC1([H])C([H])([H])C3([H])N(C([H])([H])[H])C([H])(C([H])([H])C3([H])[H])C1([H])[H])c([H])n2[H]


 22 25  0  0  0  0  0  0  0  0999 V2000
   23.5467    9.0901   55.6602 C   0  0  0  0  0  0  0  0  0  0  0  0
   23.3686   10.2491   56.1003 O   0  0  0  0  0  0  0  0  0  0  0  0
   24.7359    8.7624   54.9025 C   0  0  0  0  0  0  0  0  0  0  0  0
   24.7411    8.2648   53.5976 C   0  0  0  0  0  0  0  0  0  0  0  0
   25.9979    8.0686   53.1909 N   0  0  0  0  0  0  0  0  0  0  0  0
   26.8437    8.4156   54.1742 C   0  0  0  0  0  0  0  0  0  0  0  0
   28.2121    8.4218   54.3080 C   0  0  0  0  0  0  0  0  0  0  0  0
   28.7905    8.8446   55.4674 C   0  0  0  0  0  0  0  0  0  0  0  0
   28.0330    9.2749   56.5309 C   0  0  0  0  0  0  0  0  0  0  0  0
   26.6622    9.2712   56.4032 C   0  0  0  0  0  0  0  0  0  0  0  0
   26.0639    8.8523   55.2526 C   0  0  0  0  0  0  0  0  0  0  0  0
   26.3462    7.7059   52.2694 H   0  0  0  0  0  0  0  0  0  0  0  0
   22.5659    8.1508   55.9288 O   0  0  0  0  0  0  0  0  0  0  0  0
   20.7040    7.7303   50.7604 C   0  0  0  0  0  0  0  0  0  0  0  0
   21.3317    7.9668   52.0406 N   0  0  0  0  0  0  0  0  0  0  0  0
   20.3396    8.4754   52.9905 C   0  0  0  0  0  0  0  0  0  0  0  0
   19.4715    7.2811   53.2166 C   0  0  0  0  0  0  0  0  0  0  0  0
   20.3129    6.0499   52.9785 C   0  0  0  0  0  0  0  0  0  0  0  0
   21.6648    6.6866   52.6311 C   0  0  0  0  0  0  0  0  0  0  0  0
   22.4109    6.8343   53.9312 C   0  0  0  0  0  0  0  0  0  0  0  0
   21.6698    7.6693   54.9439 C   0  0  0  0  0  0  0  0  0  0  0  0
   21.1085    8.8844   54.2271 C   0  0  0  0  0  0  0  0  0  0  0  0
 14 15  1  0  0  0
 15 16  1  0  0  0
 16 17  1  0  0  0
 17 18  1  0  0  0
 18 19  1  0  0  0
 19 20  1  0  0  0
 20 21  1  0  0  0
 21 22  1  0  0  0
 21 13  1  0  0  0
 13  1  1  0  0  0
  1  2  2  0  0  0
  1  3  1  0  0  0
  3  4  2  0  0  0
  4  5  1  0  0  0
  5  6  1  0  0  0
  6  7  2  0  0  0
  7  8  1  0  0  0
  8  9  2  0  0  0
  9 10  1  0  0  0
 10 11  2  0  0  0
 19 15  1  0  0  0
 11  3  1  0  0  0
 22 16  1  0  0  0
 11  6  1  0  0  0
  5 12  1  0  0  0
M  END
> <minimizedAffinity>
4.61696

> <CNNscore>
0.7224846482

> <CNNaffinity>
5.7172989845

> <CNN_VS>
4.1306605339

> <CNNaffinity_variance>
0.2294737101

$$$$
[H]c1c([H])c([H])c2c(c1[H])c(C(=O)OC1([H])C([H])([H])C3([H])N(C([H])([H])[H])C([H])(C([H])([H])C3([H])[H])C1([H])[H])c([H])n2[H]


 22 25  0  0  0  0  0  0  0  0999 V2000
   24.3686    8.9796   55.5960 C   0  0  0  0  0  0  0  0  0  0  0  0
   23.5275    9.8644   55.8759 O   0  0  0  0  0  0  0  0  0  0  0  0
   25.7715    9.1726   55.8968 C   0  0  0  0  0  0  0  0  0  0  0  0
   26.2640    9.8963   56.9849 C   0  0  0  0  0  0  0  0  0  0  0  0
   27.5993    9.8814   56.9738 N   0  0  0  0  0  0  0  0  0  0  0  0
   28.0282    9.1733   55.9168 C   0  0  0  0  0  0  0  0  0  0  0  0
   29.2667    8.8369   55.4232 C   0  0  0  0  0  0  0  0  0  0  0  0
   29.3780    8.0823   54.2937 C   0  0  0  0  0  0  0  0  0  0  0  0
   28.2673    7.6366   53.6171 C   0  0  0  0  0  0  0  0  0  0  0  0
   27.0243    7.9702   54.1063 C   0  0  0  0  0  0  0  0  0  0  0  0
   26.8910    8.7237   55.2340 C   0  0  0  0  0  0  0  0  0  0  0  0
   28.2717   10.3265   57.6460 H   0  0  0  0  0  0  0  0  0  0  0  0
   23.8996    7.8248   54.9938 O   0  0  0  0  0  0  0  0  0  0  0  0
   20.3461    8.2632   50.8062 C   0  0  0  0  0  0  0  0  0  0  0  0
   21.4173    8.2188   51.7754 N   0  0  0  0  0  0  0  0  0  0  0  0
   21.0547    9.0167   52.9488 C   0  0  0  0  0  0  0  0  0  0  0  0
   19.9628    8.2039   53.5636 C   0  0  0  0  0  0  0  0  0  0  0  0
   20.1899    6.7619   53.1765 C   0  0  0  0  0  0  0  0  0  0  0  0
   21.4698    6.8856   52.3397 C   0  0  0  0  0  0  0  0  0  0  0  0
   22.6205    6.7154   53.2965 C   0  0  0  0  0  0  0  0  0  0  0  0
   22.6114    7.7266   54.4142 C   0  0  0  0  0  0  0  0  0  0  0  0
   22.2937    9.0845   53.8138 C   0  0  0  0  0  0  0  0  0  0  0  0
 14 15  1  0  0  0
 15 16  1  0  0  0
 16 17  1  0  0  0
 17 18  1  0  0  0
 18 19  1  0  0  0
 19 20  1  0  0  0
 20 21  1  0  0  0
 21 22  1  0  0  0
 21 13  1  0  0  0
 13  1  1  0  0  0
  1  2  2  0  0  0
  1  3  1  0  0  0
  3  4  2  0  0  0
  4  5  1  0  0  0
  5  6  1  0  0  0
  6  7  2  0  0  0
  7  8  1  0  0  0
  8  9  2  0  0  0
  9 10  1  0  0  0
 10 11  2  0  0  0
 19 15  1  0  0  0
 11  3  1  0  0  0
 22 16  1  0  0  0
 11  6  1  0  0  0
  5 12  1  0  0  0
M  END
> <minimizedAffinity>
10.07922

> <CNNscore>
0.7149480581

> <CNNaffinity>
5.3895301819

> <CNN_VS>
3.8532340527

> <CNNaffinity_variance>
0.3803549707

$$$$
[H]c1c([H])c([H])c2c(c1[H])c(C(=O)OC1([H])C([H])([H])C3([H])N(C([H])([H])[H])C([H])(C([H])([H])C3([H])[H])C1([H])[H])c([H])n2[H]


 22 25  0  0  0  0  0  0  0  0999 V2000
   23.2565    6.0229   55.5783 C   0  0  0  0  0  0  0  0  0  0  0  0
   23.6221    4.9266   56.0610 O   0  0  0  0  0  0  0  0  0  0  0  0
   23.9634    6.6098   54.4595 C   0  0  0  0  0  0  0  0  0  0  0  0
   23.5702    6.5088   53.1232 C   0  0  0  0  0  0  0  0  0  0  0  0
   24.4372    7.1605   52.3439 N   0  0  0  0  0  0  0  0  0  0  0  0
   25.4032    7.6989   53.1053 C   0  0  0  0  0  0  0  0  0  0  0  0
   26.5225    8.4542   52.8465 C   0  0  0  0  0  0  0  0  0  0  0  0
   27.3314    8.8612   53.8653 C   0  0  0  0  0  0  0  0  0  0  0  0
   27.0579    8.5336   55.1722 C   0  0  0  0  0  0  0  0  0  0  0  0
   25.9384    7.7775   55.4378 C   0  0  0  0  0  0  0  0  0  0  0  0
   25.1167    7.3604   54.4338 C   0  0  0  0  0  0  0  0  0  0  0  0
   24.4314    7.2767   51.3006 H   0  0  0  0  0  0  0  0  0  0  0  0
   22.1599    6.6380   56.1574 O   0  0  0  0  0  0  0  0  0  0  0  0
   21.8351   10.8994   52.6802 C   0  0  0  0  0  0  0  0  0  0  0  0
   22.0461    9.6989   53.4567 N   0  0  0  0  0  0  0  0  0  0  0  0
   22.5515   10.0526   54.7851 C   0  0  0  0  0  0  0  0  0  0  0  0
   21.3636   10.7007   55.4173 C   0  0  0  0  0  0  0  0  0  0  0  0
   20.1269   10.1225   54.7718 C   0  0  0  0  0  0  0  0  0  0  0  0
   20.7539    9.1311   53.7830 C   0  0  0  0  0  0  0  0  0  0  0  0
   20.8744    7.8203   54.5151 C   0  0  0  0  0  0  0  0  0  0  0  0
   21.7026    7.9210   55.7704 C   0  0  0  0  0  0  0  0  0  0  0  0
   22.9340    8.7505   55.4529 C   0  0  0  0  0  0  0  0  0  0  0  0
 14 15  1  0  0  0
 15 16  1  0  0  0
 16 17  1  0  0  0
 17 18  1  0  0  0
 18 19  1  0  0  0
 19 20  1  0  0  0
 20 21  1  0  0  0
 21 22  1  0  0  0
 21 13  1  0  0  0
 13  1  1  0  0  0
  1  2  2  0  0  0
  1  3  1  0  0  0
  3  4  2  0  0  0
  4  5  1  0  0  0
  5  6  1  0  0  0
  6  7  2  0  0  0
  7  8  1  0  0  0
  8  9  2  0  0  0
  9 10  1  0  0  0
 10 11  2  0  0  0
 19 15  1  0  0  0
 11  3  1  0  0  0
 22 16  1  0  0  0
 11  6  1  0  0  0
  5 12  1  0  0  0
M  END
> <minimizedAffinity>
7.61546

> <CNNscore>
0.6910110116

> <CNNaffinity>
5.8006033897

> <CNN_VS>
4.0082807541

> <CNNaffinity_variance>
0.2351762503

$$$$
[H]c1c([H])c([H])c2c(c1[H])c(C(=O)OC1([H])C([H])([H])C3([H])N(C([H])([H])[H])C([H])(C([H])([H])C3([H])[H])C1([H])[H])c([H])n2[H]


 22 25  0  0  0  0  0  0  0  0999 V2000
   24.5424    6.3102   53.8594 C   0  0  0  0  0  0  0  0  0  0  0  0
   25.2374    5.5537   53.1430 O   0  0  0  0  0  0  0  0  0  0  0  0
   25.1397    7.4440   54.5330 C   0  0  0  0  0  0  0  0  0  0  0  0
   24.4342    8.4039   55.2618 C   0  0  0  0  0  0  0  0  0  0  0  0
   25.2798    9.3130   55.7538 N   0  0  0  0  0  0  0  0  0  0  0  0
   26.5326    9.0025   55.3840 C   0  0  0  0  0  0  0  0  0  0  0  0
   27.7668    9.5692   55.5982 C   0  0  0  0  0  0  0  0  0  0  0  0
   28.8884    8.9996   55.0737 C   0  0  0  0  0  0  0  0  0  0  0  0
   28.8240    7.8511   54.3207 C   0  0  0  0  0  0  0  0  0  0  0  0
   27.5910    7.2788   54.1026 C   0  0  0  0  0  0  0  0  0  0  0  0
   26.4573    7.8323   54.6181 C   0  0  0  0  0  0  0  0  0  0  0  0
   25.0742   10.1584   56.3412 H   0  0  0  0  0  0  0  0  0  0  0  0
   23.1950    6.0147   53.9751 O   0  0  0  0  0  0  0  0  0  0  0  0
   21.0364   10.9759   52.9348 C   0  0  0  0  0  0  0  0  0  0  0  0
   21.7604    9.7752   53.2855 N   0  0  0  0  0  0  0  0  0  0  0  0
   20.9363    8.9402   54.1624 C   0  0  0  0  0  0  0  0  0  0  0  0
   19.8609    8.4700   53.2386 C   0  0  0  0  0  0  0  0  0  0  0  0
   20.4290    8.4605   51.8394 C   0  0  0  0  0  0  0  0  0  0  0  0
   21.8617    8.9402   52.1060 C   0  0  0  0  0  0  0  0  0  0  0  0
   22.6848    7.7029   52.3512 C   0  0  0  0  0  0  0  0  0  0  0  0
   22.1742    6.8746   53.5023 C   0  0  0  0  0  0  0  0  0  0  0  0
   21.8304    7.8182   54.6411 C   0  0  0  0  0  0  0  0  0  0  0  0
 14 15  1  0  0  0
 15 16  1  0  0  0
 16 17  1  0  0  0
 17 18  1  0  0  0
 18 19  1  0  0  0
 19 20  1  0  0  0
 20 21  1  0  0  0
 21 22  1  0  0  0
 21 13  1  0  0  0
 13  1  1  0  0  0
  1  2  2  0  0  0
  1  3  1  0  0  0
  3  4  2  0  0  0
  4  5  1  0  0  0
  5  6  1  0  0  0
  6  7  2  0  0  0
  7  8  1  0  0  0
  8  9  2  0  0  0
  9 10  1  0  0  0
 10 11  2  0  0  0
 19 15  1  0  0  0
 11  3  1  0  0  0
 22 16  1  0  0  0
 11  6  1  0  0  0
  5 12  1  0  0  0
M  END
> <minimizedAffinity>
8.49751

> <CNNscore>
0.6891451478

> <CNNaffinity>
5.6154313087

> <CNN_VS>
3.8698472977

> <CNNaffinity_variance>
0.2289225161

$$$$
[H]c1c([H])c([H])c2c(c1[H])c(C(=O)OC1([H])C([H])([H])C3([H])N(C([H])([H])[H])C([H])(C([H])([H])C3([H])[H])C1([H])[H])c([H])n2[H]


 22 25  0  0  0  0  0  0  0  0999 V2000
   24.7558    7.0088   54.0892 C   0  0  0  0  0  0  0  0  0  0  0  0
   24.6642    6.1196   54.9665 O   0  0  0  0  0  0  0  0  0  0  0  0
   23.5693    7.5574   53.4669 C   0  0  0  0  0  0  0  0  0  0  0  0
   22.9568    7.0442   52.3216 C   0  0  0  0  0  0  0  0  0  0  0  0
   21.8869    7.7801   52.0099 N   0  0  0  0  0  0  0  0  0  0  0  0
   21.7533    8.7731   52.9036 C   0  0  0  0  0  0  0  0  0  0  0  0
   20.8574    9.8027   53.0703 C   0  0  0  0  0  0  0  0  0  0  0  0
   20.9933   10.6747   54.1089 C   0  0  0  0  0  0  0  0  0  0  0  0
   22.0201   10.5553   55.0154 C   0  0  0  0  0  0  0  0  0  0  0  0
   22.9205    9.5264   54.8538 C   0  0  0  0  0  0  0  0  0  0  0  0
   22.8026    8.6437   53.8222 C   0  0  0  0  0  0  0  0  0  0  0  0
   21.2129    7.6638   51.2134 H   0  0  0  0  0  0  0  0  0  0  0  0
   26.0275    7.4358   53.7476 O   0  0  0  0  0  0  0  0  0  0  0  0
   28.5882    9.3895   58.2177 C   0  0  0  0  0  0  0  0  0  0  0  0
   27.8823    8.7103   57.1550 N   0  0  0  0  0  0  0  0  0  0  0  0
   26.7489    9.5267   56.7147 C   0  0  0  0  0  0  0  0  0  0  0  0
   27.4247   10.6743   56.0384 C   0  0  0  0  0  0  0  0  0  0  0  0
   28.7594   10.1855   55.5282 C   0  0  0  0  0  0  0  0  0  0  0  0
   28.7182    8.7174   55.9719 C   0  0  0  0  0  0  0  0  0  0  0  0
   28.1029    7.9470   54.8333 C   0  0  0  0  0  0  0  0  0  0  0  0
   26.7243    8.4354   54.4689 C   0  0  0  0  0  0  0  0  0  0  0  0
   25.9545    8.6666   55.7571 C   0  0  0  0  0  0  0  0  0  0  0  0
 14 15  1  0  0  0
 15 16  1  0  0  0
 16 17  1  0  0  0
 17 18  1  0  0  0
 18 19  1  0  0  0
 19 20  1  0  0  0
 20 21  1  0  0  0
 21 22  1  0  0  0
 21 13  1  0  0  0
 13  1  1  0  0  0
  1  2  2  0  0  0
  1  3  1  0  0  0
  3  4  2  0  0  0
  4  5  1  0  0  0
  5  6  1  0  0  0
  6  7  2  0  0  0
  7  8  1  0  0  0
  8  9  2  0  0  0
  9 10  1  0  0  0
 10 11  2  0  0  0
 19 15  1  0  0  0
 11  3  1  0  0  0
 22 16  1  0  0  0
 11  6  1  0  0  0
  5 12  1  0  0  0
M  END
> <minimizedAffinity>
8.79658

> <CNNscore>
0.6879114509

> <CNNaffinity>
5.6089944839

> <CNN_VS>
3.8584914207

> <CNNaffinity_variance>
0.3730197549

$$$$
[H]c1c([H])c([H])c2c(c1[H])c(C(=O)OC1([H])C([H])([H])C3([H])N(C([H])([H])[H])C([H])(C([H])([H])C3([H])[H])C1([H])[H])c([H])n2[H]


 22 25  0  0  0  0  0  0  0  0999 V2000
   21.0601    7.9776   51.2517 C   0  0  0  0  0  0  0  0  0  0  0  0
   20.8862    7.5770   50.0778 O   0  0  0  0  0  0  0  0  0  0  0  0
   21.5754    7.0848   52.2682 C   0  0  0  0  0  0  0  0  0  0  0  0
   20.8887    5.9869   52.7911 C   0  0  0  0  0  0  0  0  0  0  0  0
   21.6418    5.3746   53.7083 N   0  0  0  0  0  0  0  0  0  0  0  0
   22.8139    6.0191   53.8249 C   0  0  0  0  0  0  0  0  0  0  0  0
   23.9390    5.8370   54.5938 C   0  0  0  0  0  0  0  0  0  0  0  0
   24.9983    6.6870   54.4796 C   0  0  0  0  0  0  0  0  0  0  0  0
   24.9776    7.7439   53.6006 C   0  0  0  0  0  0  0  0  0  0  0  0
   23.8538    7.9316   52.8278 C   0  0  0  0  0  0  0  0  0  0  0  0
   22.7839    7.0932   52.9266 C   0  0  0  0  0  0  0  0  0  0  0  0
   21.4225    4.5252   54.2848 H   0  0  0  0  0  0  0  0  0  0  0  0
   20.7404    9.2961   51.5270 O   0  0  0  0  0  0  0  0  0  0  0  0
   22.9808    9.7294   56.5418 C   0  0  0  0  0  0  0  0  0  0  0  0
   22.5258    9.4658   55.1956 N   0  0  0  0  0  0  0  0  0  0  0  0
   21.0922    9.1664   55.2087 C   0  0  0  0  0  0  0  0  0  0  0  0
   20.4919   10.4903   55.5518 C   0  0  0  0  0  0  0  0  0  0  0  0
   21.4402   11.5630   55.0717 C   0  0  0  0  0  0  0  0  0  0  0  0
   22.5529   10.7083   54.4511 C   0  0  0  0  0  0  0  0  0  0  0  0
   22.1825   10.5151   53.0040 C   0  0  0  0  0  0  0  0  0  0  0  0
   20.8381    9.8581   52.8229 C   0  0  0  0  0  0  0  0  0  0  0  0
   20.7427    8.7085   53.8101 C   0  0  0  0  0  0  0  0  0  0  0  0
 14 15  1  0  0  0
 15 16  1  0  0  0
 16 17  1  0  0  0
 17 18  1  0  0  0
 18 19  1  0  0  0
 19 20  1  0  0  0
 20 21  1  0  0  0
 21 22  1  0  0  0
 21 13  1  0  0  0
 13  1  1  0  0  0
  1  2  2  0  0  0
  1  3  1  0  0  0
  3  4  2  0  0  0
  4  5  1  0  0  0
  5  6  1  0  0  0
  6  7  2  0  0  0
  7  8  1  0  0  0
  8  9  2  0  0  0
  9 10  1  0  0  0
 10 11  2  0  0  0
 19 15  1  0  0  0
 11  3  1  0  0  0
 22 16  1  0  0  0
 11  6  1  0  0  0
  5 12  1  0  0  0
M  END
> <minimizedAffinity>
7.62373

> <CNNscore>
0.6293998957

> <CNNaffinity>
5.8658962250

> <CNN_VS>
3.6919944286

> <CNNaffinity_variance>
0.2637377381

$$$$
[H]c1c([H])c([H])c2c(c1[H])c(C(=O)OC1([H])C([H])([H])C3([H])N(C([H])([H])[H])C([H])(C([H])([H])C3([H])[H])C1([H])[H])c([H])n2[H]


 22 25  0  0  0  0  0  0  0  0999 V2000
   23.3153    5.7089   54.8946 C   0  0  0  0  0  0  0  0  0  0  0  0
   23.6875    4.8698   55.7468 O   0  0  0  0  0  0  0  0  0  0  0  0
   23.8549    7.0523   54.8961 C   0  0  0  0  0  0  0  0  0  0  0  0
   25.1656    7.3881   54.5500 C   0  0  0  0  0  0  0  0  0  0  0  0
   25.3398    8.7079   54.6563 N   0  0  0  0  0  0  0  0  0  0  0  0
   24.1936    9.2773   55.0620 C   0  0  0  0  0  0  0  0  0  0  0  0
   23.8038   10.5681   55.3310 C   0  0  0  0  0  0  0  0  0  0  0  0
   22.5305   10.8341   55.7380 C   0  0  0  0  0  0  0  0  0  0  0  0
   21.6028    9.8311   55.8914 C   0  0  0  0  0  0  0  0  0  0  0  0
   21.9870    8.5365   55.6236 C   0  0  0  0  0  0  0  0  0  0  0  0
   23.2552    8.2491   55.2156 C   0  0  0  0  0  0  0  0  0  0  0  0
   26.2010    9.2787   54.4708 H   0  0  0  0  0  0  0  0  0  0  0  0
   22.3767    5.2964   53.9646 O   0  0  0  0  0  0  0  0  0  0  0  0
   21.0652   10.2954   52.0550 C   0  0  0  0  0  0  0  0  0  0  0  0
   21.4912    9.0814   52.7136 N   0  0  0  0  0  0  0  0  0  0  0  0
   20.3371    8.2059   52.9297 C   0  0  0  0  0  0  0  0  0  0  0  0
   19.9971    7.7759   51.5403 C   0  0  0  0  0  0  0  0  0  0  0  0
   21.2635    7.8310   50.7194 C   0  0  0  0  0  0  0  0  0  0  0  0
   22.2721    8.3010   51.7756 C   0  0  0  0  0  0  0  0  0  0  0  0
   22.8408    7.0555   52.4033 C   0  0  0  0  0  0  0  0  0  0  0  0
   21.7866    6.1748   53.0237 C   0  0  0  0  0  0  0  0  0  0  0  0
   20.8273    7.0651   53.7934 C   0  0  0  0  0  0  0  0  0  0  0  0
 14 15  1  0  0  0
 15 16  1  0  0  0
 16 17  1  0  0  0
 17 18  1  0  0  0
 18 19  1  0  0  0
 19 20  1  0  0  0
 20 21  1  0  0  0
 21 22  1  0  0  0
 21 13  1  0  0  0
 13  1  1  0  0  0
  1  2  2  0  0  0
  1  3  1  0  0  0
  3  4  2  0  0  0
  4  5  1  0  0  0
  5  6  1  0  0  0
  6  7  2  0  0  0
  7  8  1  0  0  0
  8  9  2  0  0  0
  9 10  1  0  0  0
 10 11  2  0  0  0
 19 15  1  0  0  0
 11  3  1  0  0  0
 22 16  1  0  0  0
 11  6  1  0  0  0
  5 12  1  0  0  0
M  END
> <minimizedAffinity>
10.24370

> <CNNscore>
0.6069660187

> <CNNaffinity>
5.8446969986

> <CNN_VS>
3.5475325584

> <CNNaffinity_variance>
0.3172959685

$$$$
[H]OC(=O)C([H])([H])Oc1c([H])c([H])c([H])c2c1c(C(=O)C(=O)N([H])[H])c(C([H])([H])C([H])([H])[H])n2C([H])([H])c1c([H])c([H])c([H])c([H])c1-c1c([H])c([H])c([H])c([H])c1[H]


 37 40  0  0  0  0  0  0  0  0999 V2000
   23.3864   10.6005   55.0956 C   0  0  0  0  0  0  0  0  0  0  0  0
   22.1644   10.2674   54.4931 C   0  0  0  0  0  0  0  0  0  0  0  0
   21.8979    8.9848   54.8301 C   0  0  0  0  0  0  0  0  0  0  0  0
   20.7831    8.2250   54.4949 C   0  0  0  0  0  0  0  0  0  0  0  0
   20.6790    6.9559   54.9698 C   0  0  0  0  0  0  0  0  0  0  0  0
   21.6840    6.4697   55.7673 C   0  0  0  0  0  0  0  0  0  0  0  0
   22.7745    7.2454   56.0804 C   0  0  0  0  0  0  0  0  0  0  0  0
   22.9389    8.5580   55.6185 C   0  0  0  0  0  0  0  0  0  0  0  0
   23.8662    9.5244   55.7960 N   0  0  0  0  0  0  0  0  0  0  0  0
   24.9411   12.2982   55.9804 C   0  0  0  0  0  0  0  0  0  0  0  0
   23.8878   11.9849   54.9419 C   0  0  0  0  0  0  0  0  0  0  0  0
   21.3204   11.1427   53.6650 C   0  0  0  0  0  0  0  0  0  0  0  0
   20.4131   11.8193   54.2008 O   0  0  0  0  0  0  0  0  0  0  0  0
   21.5103   11.2467   52.2316 C   0  0  0  0  0  0  0  0  0  0  0  0
   21.7144   12.4973   51.5970 N   0  0  0  0  0  0  0  0  0  0  0  0
   21.5064   10.2352   51.4614 O   0  0  0  0  0  0  0  0  0  0  0  0
   20.9253   13.1275   51.3709 H   0  0  0  0  0  0  0  0  0  0  0  0
   22.6926   12.8125   51.3388 H   0  0  0  0  0  0  0  0  0  0  0  0
   19.7893    8.7410   53.6951 O   0  0  0  0  0  0  0  0  0  0  0  0
   19.4511    8.4282   52.4019 C   0  0  0  0  0  0  0  0  0  0  0  0
   20.2928    7.4490   51.7046 C   0  0  0  0  0  0  0  0  0  0  0  0
   21.0666    7.7199   50.5731 O   0  0  0  0  0  0  0  0  0  0  0  0
   20.3074    6.2763   52.1714 O   0  0  0  0  0  0  0  0  0  0  0  0
   21.8917    7.1368   50.3752 H   0  0  0  0  0  0  0  0  0  0  0  0
   25.0606    9.5206   56.5815 C   0  0  0  0  0  0  0  0  0  0  0  0
   26.3563    9.1280   56.0343 C   0  0  0  0  0  0  0  0  0  0  0  0
   27.5168    9.5761   56.7383 C   0  0  0  0  0  0  0  0  0  0  0  0
   28.7856    9.3528   56.2938 C   0  0  0  0  0  0  0  0  0  0  0  0
   28.9578    8.6651   55.1178 C   0  0  0  0  0  0  0  0  0  0  0  0
   27.8612    8.2216   54.4278 C   0  0  0  0  0  0  0  0  0  0  0  0
   26.5381    8.4454   54.8807 C   0  0  0  0  0  0  0  0  0  0  0  0
   25.5053    7.7374   54.0977 C   0  0  0  0  0  0  0  0  0  0  0  0
   24.8290    8.3105   53.0443 C   0  0  0  0  0  0  0  0  0  0  0  0
   23.8473    7.6213   52.3379 C   0  0  0  0  0  0  0  0  0  0  0  0
   23.5198    6.3278   52.6786 C   0  0  0  0  0  0  0  0  0  0  0  0
   24.1936    5.7510   53.7317 C   0  0  0  0  0  0  0  0  0  0  0  0
   25.1801    6.4444   54.4406 C   0  0  0  0  0  0  0  0  0  0  0  0
 10 11  1  0  0  0
 11  1  1  0  0  0
  1  2  2  0  0  0
  2 12  1  0  0  0
 12 13  2  0  0  0
 12 14  1  0  0  0
 14 15  1  0  0  0
 14 16  2  0  0  0
  2  3  1  0  0  0
  3  4  2  0  0  0
  4 19  1  0  0  0
 19 20  1  0  0  0
 20 21  1  0  0  0
 21 22  1  0  0  0
 21 23  2  0  0  0
  4  5  1  0  0  0
  5  6  2  0  0  0
  6  7  1  0  0  0
  7  8  2  0  0  0
  8  9  1  0  0  0
  9 25  1  0  0  0
 25 26  1  0  0  0
 26 27  2  0  0  0
 27 28  1  0  0  0
 28 29  2  0  0  0
 29 30  1  0  0  0
 30 31  2  0  0  0
 31 32  1  0  0  0
 32 33  2  0  0  0
 33 34  1  0  0  0
 34 35  2  0  0  0
 35 36  1  0  0  0
 36 37  2  0  0  0
  9  1  1  0  0  0
 31 26  1  0  0  0
 37 32  1  0  0  0
  8  3  1  0  0  0
 15 17  1  0  0  0
 15 18  1  0  0  0
 22 24  1  0  0  0
M  END
> <minimizedAffinity>
29.82021

> <CNNscore>
0.5120051503

> <CNNaffinity>
6.2624788284

> <CNN_VS>
3.2064213753

> <CNNaffinity_variance>
0.5734001398

$$$$
[H]OC(=O)C([H])([H])Oc1c([H])c([H])c([H])c2c1c(C(=O)C(=O)N([H])[H])c(C([H])([H])C([H])([H])[H])n2C([H])([H])c1c([H])c([H])c([H])c([H])c1-c1c([H])c([H])c([H])c([H])c1[H]


 37 40  0  0  0  0  0  0  0  0999 V2000
   24.0674    7.6879   54.3088 C   0  0  0  0  0  0  0  0  0  0  0  0
   25.3856    8.0286   54.6457 C   0  0  0  0  0  0  0  0  0  0  0  0
   25.3206    9.1531   55.3948 C   0  0  0  0  0  0  0  0  0  0  0  0
   26.3679    9.8503   55.9859 C   0  0  0  0  0  0  0  0  0  0  0  0
   26.0917   10.9449   56.7425 C   0  0  0  0  0  0  0  0  0  0  0  0
   24.7816   11.3226   56.8957 C   0  0  0  0  0  0  0  0  0  0  0  0
   23.7678   10.6129   56.2976 C   0  0  0  0  0  0  0  0  0  0  0  0
   23.9906    9.4795   55.5044 C   0  0  0  0  0  0  0  0  0  0  0  0
   23.2003    8.6025   54.8477 N   0  0  0  0  0  0  0  0  0  0  0  0
   23.3779    5.3236   54.4392 C   0  0  0  0  0  0  0  0  0  0  0  0
   23.8416    6.4448   53.5371 C   0  0  0  0  0  0  0  0  0  0  0  0
   26.6087    7.3007   54.2736 C   0  0  0  0  0  0  0  0  0  0  0  0
   26.7066    6.0787   54.5290 O   0  0  0  0  0  0  0  0  0  0  0  0
   27.7156    7.9631   53.6124 C   0  0  0  0  0  0  0  0  0  0  0  0
   29.0624    7.6634   53.9360 N   0  0  0  0  0  0  0  0  0  0  0  0
   27.5514    8.8440   52.7106 O   0  0  0  0  0  0  0  0  0  0  0  0
   29.5272    8.0750   54.7639 H   0  0  0  0  0  0  0  0  0  0  0  0
   29.6248    7.0037   53.3264 H   0  0  0  0  0  0  0  0  0  0  0  0
   27.6722    9.4458   55.8166 O   0  0  0  0  0  0  0  0  0  0  0  0
   28.6219    9.1266   56.7551 C   0  0  0  0  0  0  0  0  0  0  0  0
   28.5026    9.7577   58.0745 C   0  0  0  0  0  0  0  0  0  0  0  0
   28.8078   11.0922   58.3544 O   0  0  0  0  0  0  0  0  0  0  0  0
   28.0947    9.0274   59.0199 O   0  0  0  0  0  0  0  0  0  0  0  0
   28.3569   11.5551   59.1558 H   0  0  0  0  0  0  0  0  0  0  0  0
   21.7751    8.5382   54.7553 C   0  0  0  0  0  0  0  0  0  0  0  0
   21.0881    8.0990   53.5439 C   0  0  0  0  0  0  0  0  0  0  0  0
   20.5619    6.7700   53.5461 C   0  0  0  0  0  0  0  0  0  0  0  0
   19.9720    6.2046   52.4554 C   0  0  0  0  0  0  0  0  0  0  0  0
   19.8770    6.9447   51.3028 C   0  0  0  0  0  0  0  0  0  0  0  0
   20.3696    8.2222   51.2777 C   0  0  0  0  0  0  0  0  0  0  0  0
   20.9825    8.8213   52.4051 C   0  0  0  0  0  0  0  0  0  0  0  0
   21.2837   10.2572   52.2353 C   0  0  0  0  0  0  0  0  0  0  0  0
   21.5928   11.0946   53.2835 C   0  0  0  0  0  0  0  0  0  0  0  0
   21.8539   12.4483   53.0914 C   0  0  0  0  0  0  0  0  0  0  0  0
   21.8090   12.9961   51.8286 C   0  0  0  0  0  0  0  0  0  0  0  0
   21.4999   12.1621   50.7776 C   0  0  0  0  0  0  0  0  0  0  0  0
   21.2381   10.8019   50.9718 C   0  0  0  0  0  0  0  0  0  0  0  0
 10 11  1  0  0  0
 11  1  1  0  0  0
  1  2  2  0  0  0
  2 12  1  0  0  0
 12 13  2  0  0  0
 12 14  1  0  0  0
 14 15  1  0  0  0
 14 16  2  0  0  0
  2  3  1  0  0  0
  3  4  2  0  0  0
  4 19  1  0  0  0
 19 20  1  0  0  0
 20 21  1  0  0  0
 21 22  1  0  0  0
 21 23  2  0  0  0
  4  5  1  0  0  0
  5  6  2  0  0  0
  6  7  1  0  0  0
  7  8  2  0  0  0
  8  9  1  0  0  0
  9 25  1  0  0  0
 25 26  1  0  0  0
 26 27  2  0  0  0
 27 28  1  0  0  0
 28 29  2  0  0  0
 29 30  1  0  0  0
 30 31  2  0  0  0
 31 32  1  0  0  0
 32 33  2  0  0  0
 33 34  1  0  0  0
 34 35  2  0  0  0
 35 36  1  0  0  0
 36 37  2  0  0  0
  9  1  1  0  0  0
 31 26  1  0  0  0
 37 32  1  0  0  0
  8  3  1  0  0  0
 15 17  1  0  0  0
 15 18  1  0  0  0
 22 24  1  0  0  0
M  END
> <minimizedAffinity>
29.77355

> <CNNscore>
0.4524131715

> <CNNaffinity>
5.8730707169

> <CNN_VS>
2.6570546627

> <CNNaffinity_variance>
0.3050643206

$$$$
[H]OC(=O)C([H])([H])Oc1c([H])c([H])c([H])c2c1c(C(=O)C(=O)N([H])[H])c(C([H])([H])C([H])([H])[H])n2C([H])([H])c1c([H])c([H])c([H])c([H])c1-c1c([H])c([H])c([H])c([H])c1[H]


 37 40  0  0  0  0  0  0  0  0999 V2000
   23.7140    8.7756   55.3422 C   0  0  0  0  0  0  0  0  0  0  0  0
   22.4430    8.4435   54.8508 C   0  0  0  0  0  0  0  0  0  0  0  0
   22.5793    7.2886   54.1598 C   0  0  0  0  0  0  0  0  0  0  0  0
   21.5903    6.5534   53.5166 C   0  0  0  0  0  0  0  0  0  0  0  0
   21.9237    5.3858   52.9064 C   0  0  0  0  0  0  0  0  0  0  0  0
   23.2318    4.9740   52.9487 C   0  0  0  0  0  0  0  0  0  0  0  0
   24.1874    5.7237   53.5920 C   0  0  0  0  0  0  0  0  0  0  0  0
   23.9050    6.9359   54.2355 C   0  0  0  0  0  0  0  0  0  0  0  0
   24.6242    7.8285   54.9504 N   0  0  0  0  0  0  0  0  0  0  0  0
   25.1877   10.0109   56.8864 C   0  0  0  0  0  0  0  0  0  0  0  0
   23.8408    9.9753   56.2003 C   0  0  0  0  0  0  0  0  0  0  0  0
   21.1935    9.1926   55.0554 C   0  0  0  0  0  0  0  0  0  0  0  0
   20.1758    8.5995   55.4805 O   0  0  0  0  0  0  0  0  0  0  0  0
   21.1046   10.6124   54.7770 C   0  0  0  0  0  0  0  0  0  0  0  0
   21.5173   11.1540   53.5341 N   0  0  0  0  0  0  0  0  0  0  0  0
   20.6559   11.4524   55.6191 O   0  0  0  0  0  0  0  0  0  0  0  0
   22.5132   11.3449   53.3279 H   0  0  0  0  0  0  0  0  0  0  0  0
   20.8025   11.3768   52.7841 H   0  0  0  0  0  0  0  0  0  0  0  0
   20.2857    6.9905   53.4933 O   0  0  0  0  0  0  0  0  0  0  0  0
   19.5871    7.6181   52.4920 C   0  0  0  0  0  0  0  0  0  0  0  0
   20.3665    8.2288   51.4088 C   0  0  0  0  0  0  0  0  0  0  0  0
   20.8607    7.5458   50.2945 O   0  0  0  0  0  0  0  0  0  0  0  0
   20.6032    9.4649   51.5051 O   0  0  0  0  0  0  0  0  0  0  0  0
   21.0463    8.0661   49.4257 H   0  0  0  0  0  0  0  0  0  0  0  0
   26.0058    7.8142   55.3175 C   0  0  0  0  0  0  0  0  0  0  0  0
   27.0360    8.4676   54.5150 C   0  0  0  0  0  0  0  0  0  0  0  0
   26.9816    8.2600   53.1017 C   0  0  0  0  0  0  0  0  0  0  0  0
   27.9258    8.7412   52.2450 C   0  0  0  0  0  0  0  0  0  0  0  0
   28.9760    9.4594   52.7615 C   0  0  0  0  0  0  0  0  0  0  0  0
   29.0473    9.6755   54.1118 C   0  0  0  0  0  0  0  0  0  0  0  0
   28.0713    9.1826   55.0118 C   0  0  0  0  0  0  0  0  0  0  0  0
   28.2269    9.6715   56.3968 C   0  0  0  0  0  0  0  0  0  0  0  0
   28.2928   11.0070   56.7247 C   0  0  0  0  0  0  0  0  0  0  0  0
   28.4582   11.4345   58.0391 C   0  0  0  0  0  0  0  0  0  0  0  0
   28.5630   10.5198   59.0632 C   0  0  0  0  0  0  0  0  0  0  0  0
   28.4979    9.1831   58.7394 C   0  0  0  0  0  0  0  0  0  0  0  0
   28.3313    8.7547   57.4183 C   0  0  0  0  0  0  0  0  0  0  0  0
 10 11  1  0  0  0
 11  1  1  0  0  0
  1  2  2  0  0  0
  2 12  1  0  0  0
 12 13  2  0  0  0
 12 14  1  0  0  0
 14 15  1  0  0  0
 14 16  2  0  0  0
  2  3  1  0  0  0
  3  4  2  0  0  0
  4 19  1  0  0  0
 19 20  1  0  0  0
 20 21  1  0  0  0
 21 22  1  0  0  0
 21 23  2  0  0  0
  4  5  1  0  0  0
  5  6  2  0  0  0
  6  7  1  0  0  0
  7  8  2  0  0  0
  8  9  1  0  0  0
  9 25  1  0  0  0
 25 26  1  0  0  0
 26 27  2  0  0  0
 27 28  1  0  0  0
 28 29  2  0  0  0
 29 30  1  0  0  0
 30 31  2  0  0  0
 31 32  1  0  0  0
 32 33  2  0  0  0
 33 34  1  0  0  0
 34 35  2  0  0  0
 35 36  1  0  0  0
 36 37  2  0  0  0
  9  1  1  0  0  0
 31 26  1  0  0  0
 37 32  1  0  0  0
  8  3  1  0  0  0
 15 17  1  0  0  0
 15 18  1  0  0  0
 22 24  1  0  0  0
M  END
> <minimizedAffinity>
24.75635

> <CNNscore>
0.4376533926

> <CNNaffinity>
6.1080784798

> <CNN_VS>
2.6732213497

> <CNNaffinity_variance>
0.3417767584

$$$$
[H]OC(=O)C([H])([H])Oc1c([H])c([H])c([H])c2c1c(C(=O)C(=O)N([H])[H])c(C([H])([H])C([H])([H])[H])n2C([H])([H])c1c([H])c([H])c([H])c([H])c1-c1c([H])c([H])c([H])c([H])c1[H]


 37 40  0  0  0  0  0  0  0  0999 V2000
   22.9359    8.4130   52.5199 C   0  0  0  0  0  0  0  0  0  0  0  0
   21.8089    7.5983   52.7017 C   0  0  0  0  0  0  0  0  0  0  0  0
   22.2421    6.4520   53.2746 C   0  0  0  0  0  0  0  0  0  0  0  0
   21.4870    5.3551   53.6732 C   0  0  0  0  0  0  0  0  0  0  0  0
   22.1082    4.3061   54.2740 C   0  0  0  0  0  0  0  0  0  0  0  0
   23.4652    4.3701   54.4659 C   0  0  0  0  0  0  0  0  0  0  0  0
   24.1846    5.4685   54.0597 C   0  0  0  0  0  0  0  0  0  0  0  0
   23.6011    6.5774   53.4329 C   0  0  0  0  0  0  0  0  0  0  0  0
   24.0542    7.7659   52.9775 N   0  0  0  0  0  0  0  0  0  0  0  0
   21.5237   10.4341   52.5788 C   0  0  0  0  0  0  0  0  0  0  0  0
   22.7355    9.7706   51.9644 C   0  0  0  0  0  0  0  0  0  0  0  0
   20.4174    7.9250   52.3536 C   0  0  0  0  0  0  0  0  0  0  0  0
   19.5667    8.0675   53.2614 O   0  0  0  0  0  0  0  0  0  0  0  0
   19.9973    8.0891   50.9759 C   0  0  0  0  0  0  0  0  0  0  0  0
   18.7092    8.5780   50.6442 N   0  0  0  0  0  0  0  0  0  0  0  0
   20.7483    7.8090   49.9891 O   0  0  0  0  0  0  0  0  0  0  0  0
   17.8762    7.9640   50.6509 H   0  0  0  0  0  0  0  0  0  0  0  0
   18.5752    9.5952   50.3789 H   0  0  0  0  0  0  0  0  0  0  0  0
   20.1265    5.3206   53.4700 O   0  0  0  0  0  0  0  0  0  0  0  0
   19.2986    4.2490   53.2449 C   0  0  0  0  0  0  0  0  0  0  0  0
   18.2817    3.9591   54.2624 C   0  0  0  0  0  0  0  0  0  0  0  0
   16.9638    4.4224   54.2320 O   0  0  0  0  0  0  0  0  0  0  0  0
   18.6389    3.2377   55.2346 O   0  0  0  0  0  0  0  0  0  0  0  0
   16.2328    3.8963   54.7308 H   0  0  0  0  0  0  0  0  0  0  0  0
   25.3721    8.3193   53.0029 C   0  0  0  0  0  0  0  0  0  0  0  0
   26.0301    8.7180   54.2440 C   0  0  0  0  0  0  0  0  0  0  0  0
   27.4594    8.7012   54.2511 C   0  0  0  0  0  0  0  0  0  0  0  0
   28.1983    8.9694   55.3644 C   0  0  0  0  0  0  0  0  0  0  0  0
   27.5410    9.2710   56.5317 C   0  0  0  0  0  0  0  0  0  0  0  0
   26.1720    9.2978   56.5486 C   0  0  0  0  0  0  0  0  0  0  0  0
   25.3934    9.0233   55.3979 C   0  0  0  0  0  0  0  0  0  0  0  0
   23.9492    9.2787   55.5724 C   0  0  0  0  0  0  0  0  0  0  0  0
   23.0437    8.2996   55.9140 C   0  0  0  0  0  0  0  0  0  0  0  0
   21.6852    8.5700   56.0529 C   0  0  0  0  0  0  0  0  0  0  0  0
   21.2020    9.8433   55.8488 C   0  0  0  0  0  0  0  0  0  0  0  0
   22.1044   10.8254   55.5068 C   0  0  0  0  0  0  0  0  0  0  0  0
   23.4692   10.5526   55.3678 C   0  0  0  0  0  0  0  0  0  0  0  0
 10 11  1  0  0  0
 11  1  1  0  0  0
  1  2  2  0  0  0
  2 12  1  0  0  0
 12 13  2  0  0  0
 12 14  1  0  0  0
 14 15  1  0  0  0
 14 16  2  0  0  0
  2  3  1  0  0  0
  3  4  2  0  0  0
  4 19  1  0  0  0
 19 20  1  0  0  0
 20 21  1  0  0  0
 21 22  1  0  0  0
 21 23  2  0  0  0
  4  5  1  0  0  0
  5  6  2  0  0  0
  6  7  1  0  0  0
  7  8  2  0  0  0
  8  9  1  0  0  0
  9 25  1  0  0  0
 25 26  1  0  0  0
 26 27  2  0  0  0
 27 28  1  0  0  0
 28 29  2  0  0  0
 29 30  1  0  0  0
 30 31  2  0  0  0
 31 32  1  0  0  0
 32 33  2  0  0  0
 33 34  1  0  0  0
 34 35  2  0  0  0
 35 36  1  0  0  0
 36 37  2  0  0  0
  9  1  1  0  0  0
 31 26  1  0  0  0
 37 32  1  0  0  0
  8  3  1  0  0  0
 15 17  1  0  0  0
 15 18  1  0  0  0
 22 24  1  0  0  0
M  END
> <minimizedAffinity>
26.02568

> <CNNscore>
0.4344108105

> <CNNaffinity>
6.7403283119

> <CNN_VS>
2.9280714989

> <CNNaffinity_variance>
0.8253825903

$$$$
[H]OC(=O)C([H])([H])Oc1c([H])c([H])c([H])c2c1c(C(=O)C(=O)N([H])[H])c(C([H])([H])C([H])([H])[H])n2C([H])([H])c1c([H])c([H])c([H])c([H])c1-c1c([H])c([H])c([H])c([H])c1[H]


 37 40  0  0  0  0  0  0  0  0999 V2000
   22.1512    9.2946   54.1775 C   0  0  0  0  0  0  0  0  0  0  0  0
   21.2576    8.2977   53.7594 C   0  0  0  0  0  0  0  0  0  0  0  0
   21.4654    7.2253   54.5573 C   0  0  0  0  0  0  0  0  0  0  0  0
   20.7963    6.0069   54.5460 C   0  0  0  0  0  0  0  0  0  0  0  0
   21.1265    5.0611   55.4644 C   0  0  0  0  0  0  0  0  0  0  0  0
   22.1134    5.3465   56.3739 C   0  0  0  0  0  0  0  0  0  0  0  0
   22.7575    6.5606   56.3589 C   0  0  0  0  0  0  0  0  0  0  0  0
   22.4632    7.5725   55.4355 C   0  0  0  0  0  0  0  0  0  0  0  0
   22.9044    8.8320   55.2252 N   0  0  0  0  0  0  0  0  0  0  0  0
   21.1972   11.5669   54.2695 C   0  0  0  0  0  0  0  0  0  0  0  0
   22.0906   10.6138   53.5083 C   0  0  0  0  0  0  0  0  0  0  0  0
   20.2701    8.3957   52.6734 C   0  0  0  0  0  0  0  0  0  0  0  0
   19.0583    8.1923   52.9150 O   0  0  0  0  0  0  0  0  0  0  0  0
   20.6623    8.7248   51.3172 C   0  0  0  0  0  0  0  0  0  0  0  0
   21.0078    7.7210   50.3784 N   0  0  0  0  0  0  0  0  0  0  0  0
   20.7203    9.9201   50.8882 O   0  0  0  0  0  0  0  0  0  0  0  0
   21.9470    7.2866   50.3678 H   0  0  0  0  0  0  0  0  0  0  0  0
   20.3003    7.3941   49.6604 H   0  0  0  0  0  0  0  0  0  0  0  0
   19.8084    5.7503   53.6232 O   0  0  0  0  0  0  0  0  0  0  0  0
   19.1866    4.5678   53.3075 C   0  0  0  0  0  0  0  0  0  0  0  0
   18.0766    4.1409   54.1673 C   0  0  0  0  0  0  0  0  0  0  0  0
   16.8075    4.7252   54.1856 O   0  0  0  0  0  0  0  0  0  0  0  0
   18.2999    3.1732   54.9464 O   0  0  0  0  0  0  0  0  0  0  0  0
   16.0006    4.1683   54.4995 H   0  0  0  0  0  0  0  0  0  0  0  0
   23.8774    9.5978   55.9397 C   0  0  0  0  0  0  0  0  0  0  0  0
   25.3103    9.3374   55.8338 C   0  0  0  0  0  0  0  0  0  0  0  0
   26.1657   10.0646   56.7185 C   0  0  0  0  0  0  0  0  0  0  0  0
   27.5251    9.9807   56.6708 C   0  0  0  0  0  0  0  0  0  0  0  0
   28.0996    9.1597   55.7320 C   0  0  0  0  0  0  0  0  0  0  0  0
   27.3007    8.4492   54.8763 C   0  0  0  0  0  0  0  0  0  0  0  0
   25.8872    8.5263   54.9177 C   0  0  0  0  0  0  0  0  0  0  0  0
   25.2047    7.5537   54.0404 C   0  0  0  0  0  0  0  0  0  0  0  0
   24.6311    7.8937   52.8360 C   0  0  0  0  0  0  0  0  0  0  0  0
   23.9788    6.9556   52.0408 C   0  0  0  0  0  0  0  0  0  0  0  0
   23.8872    5.6417   52.4432 C   0  0  0  0  0  0  0  0  0  0  0  0
   24.4594    5.2976   53.6473 C   0  0  0  0  0  0  0  0  0  0  0  0
   25.1149    6.2410   54.4453 C   0  0  0  0  0  0  0  0  0  0  0  0
 10 11  1  0  0  0
 11  1  1  0  0  0
  1  2  2  0  0  0
  2 12  1  0  0  0
 12 13  2  0  0  0
 12 14  1  0  0  0
 14 15  1  0  0  0
 14 16  2  0  0  0
  2  3  1  0  0  0
  3  4  2  0  0  0
  4 19  1  0  0  0
 19 20  1  0  0  0
 20 21  1  0  0  0
 21 22  1  0  0  0
 21 23  2  0  0  0
  4  5  1  0  0  0
  5  6  2  0  0  0
  6  7  1  0  0  0
  7  8  2  0  0  0
  8  9  1  0  0  0
  9 25  1  0  0  0
 25 26  1  0  0  0
 26 27  2  0  0  0
 27 28  1  0  0  0
 28 29  2  0  0  0
 29 30  1  0  0  0
 30 31  2  0  0  0
 31 32  1  0  0  0
 32 33  2  0  0  0
 33 34  1  0  0  0
 34 35  2  0  0  0
 35 36  1  0  0  0
 36 37  2  0  0  0
  9  1  1  0  0  0
 31 26  1  0  0  0
 37 32  1  0  0  0
  8  3  1  0  0  0
 15 17  1  0  0  0
 15 18  1  0  0  0
 22 24  1  0  0  0
M  END
> <minimizedAffinity>
30.23741

> <CNNscore>
0.4339824915

> <CNNaffinity>
6.4185051918

> <CNN_VS>
2.7855188847

> <CNNaffinity_variance>
0.6040234566

$$$$
[H]OC(=O)C([H])([H])Oc1c([H])c([H])c([H])c2c1c(C(=O)C(=O)N([H])[H])c(C([H])([H])C([H])([H])[H])n2C([H])([H])c1c([H])c([H])c([H])c([H])c1-c1c([H])c([H])c([H])c([H])c1[H]


 37 40  0  0  0  0  0  0  0  0999 V2000
   25.0044    6.9112   53.1709 C   0  0  0  0  0  0  0  0  0  0  0  0
   25.7251    7.7096   54.0711 C   0  0  0  0  0  0  0  0  0  0  0  0
   24.8165    8.4050   54.7926 C   0  0  0  0  0  0  0  0  0  0  0  0
   25.0505    9.3032   55.8275 C   0  0  0  0  0  0  0  0  0  0  0  0
   23.9925    9.8736   56.4618 C   0  0  0  0  0  0  0  0  0  0  0  0
   22.7257    9.5390   56.0546 C   0  0  0  0  0  0  0  0  0  0  0  0
   22.5267    8.6480   55.0272 C   0  0  0  0  0  0  0  0  0  0  0  0
   23.5766    8.0310   54.3342 C   0  0  0  0  0  0  0  0  0  0  0  0
   23.6603    7.1201   53.3399 N   0  0  0  0  0  0  0  0  0  0  0  0
   25.0891    4.6353   52.2247 C   0  0  0  0  0  0  0  0  0  0  0  0
   25.7603    5.9884   52.2942 C   0  0  0  0  0  0  0  0  0  0  0  0
   27.1873    7.7737   54.2197 C   0  0  0  0  0  0  0  0  0  0  0  0
   27.8005    6.8196   54.7505 O   0  0  0  0  0  0  0  0  0  0  0  0
   27.9477    8.9208   53.7644 C   0  0  0  0  0  0  0  0  0  0  0  0
   28.8439    9.6069   54.6214 N   0  0  0  0  0  0  0  0  0  0  0  0
   27.8610    9.3790   52.5817 O   0  0  0  0  0  0  0  0  0  0  0  0
   28.5120   10.3079   55.3065 H   0  0  0  0  0  0  0  0  0  0  0  0
   29.8844    9.4115   54.5740 H   0  0  0  0  0  0  0  0  0  0  0  0
   26.3327    9.6172   56.2159 O   0  0  0  0  0  0  0  0  0  0  0  0
   27.1017    9.0846   57.2206 C   0  0  0  0  0  0  0  0  0  0  0  0
   28.0503    9.9825   57.8896 C   0  0  0  0  0  0  0  0  0  0  0  0
   28.3616   11.2773   57.4669 O   0  0  0  0  0  0  0  0  0  0  0  0
   28.6232    9.5375   58.9227 O   0  0  0  0  0  0  0  0  0  0  0  0
   28.7095   11.9617   58.1528 H   0  0  0  0  0  0  0  0  0  0  0  0
   22.6258    6.4330   52.6317 C   0  0  0  0  0  0  0  0  0  0  0  0
   21.2254    6.4897   53.0418 C   0  0  0  0  0  0  0  0  0  0  0  0
   20.6303    5.2653   53.4775 C   0  0  0  0  0  0  0  0  0  0  0  0
   19.3127    5.1582   53.8084 C   0  0  0  0  0  0  0  0  0  0  0  0
   18.5208    6.2766   53.7212 C   0  0  0  0  0  0  0  0  0  0  0  0
   19.0693    7.4623   53.3108 C   0  0  0  0  0  0  0  0  0  0  0  0
   20.4374    7.5866   52.9665 C   0  0  0  0  0  0  0  0  0  0  0  0
   20.8740    8.9767   52.7248 C   0  0  0  0  0  0  0  0  0  0  0  0
   21.0941    9.8869   53.7340 C   0  0  0  0  0  0  0  0  0  0  0  0
   21.4879   11.1959   53.4711 C   0  0  0  0  0  0  0  0  0  0  0  0
   21.6704   11.6235   52.1748 C   0  0  0  0  0  0  0  0  0  0  0  0
   21.4512   10.7164   51.1626 C   0  0  0  0  0  0  0  0  0  0  0  0
   21.0558    9.4011   51.4279 C   0  0  0  0  0  0  0  0  0  0  0  0
 10 11  1  0  0  0
 11  1  1  0  0  0
  1  2  2  0  0  0
  2 12  1  0  0  0
 12 13  2  0  0  0
 12 14  1  0  0  0
 14 15  1  0  0  0
 14 16  2  0  0  0
  2  3  1  0  0  0
  3  4  2  0  0  0
  4 19  1  0  0  0
 19 20  1  0  0  0
 20 21  1  0  0  0
 21 22  1  0  0  0
 21 23  2  0  0  0
  4  5  1  0  0  0
  5  6  2  0  0  0
  6  7  1  0  0  0
  7  8  2  0  0  0
  8  9  1  0  0  0
  9 25  1  0  0  0
 25 26  1  0  0  0
 26 27  2  0  0  0
 27 28  1  0  0  0
 28 29  2  0  0  0
 29 30  1  0  0  0
 30 31  2  0  0  0
 31 32  1  0  0  0
 32 33  2  0  0  0
 33 34  1  0  0  0
 34 35  2  0  0  0
 35 36  1  0  0  0
 36 37  2  0  0  0
  9  1  1  0  0  0
 31 26  1  0  0  0
 37 32  1  0  0  0
  8  3  1  0  0  0
 15 17  1  0  0  0
 15 18  1  0  0  0
 22 24  1  0  0  0
M  END
> <minimizedAffinity>
25.33648

> <CNNscore>
0.4062449336

> <CNNaffinity>
5.8809781075

> <CNN_VS>
2.3891174793

> <CNNaffinity_variance>
0.2089843303

$$$$
[H]OC(=O)C([H])([H])Oc1c([H])c([H])c([H])c2c1c(C(=O)C(=O)N([H])[H])c(C([H])([H])C([H])([H])[H])n2C([H])([H])c1c([H])c([H])c([H])c([H])c1-c1c([H])c([H])c([H])c([H])c1[H]


 37 40  0  0  0  0  0  0  0  0999 V2000
   22.9293    9.6203   54.7411 C   0  0  0  0  0  0  0  0  0  0  0  0
   22.2562    8.5592   54.1181 C   0  0  0  0  0  0  0  0  0  0  0  0
   23.0476    7.4687   54.2379 C   0  0  0  0  0  0  0  0  0  0  0  0
   22.7923    6.1732   53.8033 C   0  0  0  0  0  0  0  0  0  0  0  0
   23.7034    5.1974   54.0576 C   0  0  0  0  0  0  0  0  0  0  0  0
   24.8475    5.5296   54.7382 C   0  0  0  0  0  0  0  0  0  0  0  0
   25.0717    6.8202   55.1543 C   0  0  0  0  0  0  0  0  0  0  0  0
   24.1719    7.8682   54.9189 C   0  0  0  0  0  0  0  0  0  0  0  0
   24.1289    9.1804   55.2375 N   0  0  0  0  0  0  0  0  0  0  0  0
   20.9587   10.8328   55.5949 C   0  0  0  0  0  0  0  0  0  0  0  0
   22.2495   10.9334   54.8139 C   0  0  0  0  0  0  0  0  0  0  0  0
   20.9366    8.6094   53.4698 C   0  0  0  0  0  0  0  0  0  0  0  0
   19.9005    8.4586   54.1569 O   0  0  0  0  0  0  0  0  0  0  0  0
   20.7984    8.8313   52.0440 C   0  0  0  0  0  0  0  0  0  0  0  0
   20.2875    7.8297   51.1814 N   0  0  0  0  0  0  0  0  0  0  0  0
   21.1221    9.9252   51.4829 O   0  0  0  0  0  0  0  0  0  0  0  0
   20.8809    7.0558   50.8352 H   0  0  0  0  0  0  0  0  0  0  0  0
   19.2746    7.8571   50.8709 H   0  0  0  0  0  0  0  0  0  0  0  0
   21.6342    5.8693   53.1252 O   0  0  0  0  0  0  0  0  0  0  0  0
   20.8328    4.7579   53.2090 C   0  0  0  0  0  0  0  0  0  0  0  0
   19.4050    4.9760   53.4682 C   0  0  0  0  0  0  0  0  0  0  0  0
   18.7694    6.2203   53.4533 O   0  0  0  0  0  0  0  0  0  0  0  0
   18.7106    3.9537   53.7254 O   0  0  0  0  0  0  0  0  0  0  0  0
   17.7590    6.2680   53.2615 H   0  0  0  0  0  0  0  0  0  0  0  0
   25.0518    9.9770   55.9841 C   0  0  0  0  0  0  0  0  0  0  0  0
   26.3095    9.4426   56.4987 C   0  0  0  0  0  0  0  0  0  0  0  0
   26.3945    9.2389   57.9110 C   0  0  0  0  0  0  0  0  0  0  0  0
   27.5343    8.8250   58.5329 C   0  0  0  0  0  0  0  0  0  0  0  0
   28.6512    8.5913   57.7691 C   0  0  0  0  0  0  0  0  0  0  0  0
   28.5929    8.7750   56.4133 C   0  0  0  0  0  0  0  0  0  0  0  0
   27.4139    9.2025   55.7555 C   0  0  0  0  0  0  0  0  0  0  0  0
   27.4997    9.1670   54.2814 C   0  0  0  0  0  0  0  0  0  0  0  0
   28.4913    9.7996   53.5659 C   0  0  0  0  0  0  0  0  0  0  0  0
   28.5331    9.7619   52.1750 C   0  0  0  0  0  0  0  0  0  0  0  0
   27.5689    9.0811   51.4654 C   0  0  0  0  0  0  0  0  0  0  0  0
   26.5753    8.4474   52.1772 C   0  0  0  0  0  0  0  0  0  0  0  0
   26.5345    8.4857   53.5749 C   0  0  0  0  0  0  0  0  0  0  0  0
 10 11  1  0  0  0
 11  1  1  0  0  0
  1  2  2  0  0  0
  2 12  1  0  0  0
 12 13  2  0  0  0
 12 14  1  0  0  0
 14 15  1  0  0  0
 14 16  2  0  0  0
  2  3  1  0  0  0
  3  4  2  0  0  0
  4 19  1  0  0  0
 19 20  1  0  0  0
 20 21  1  0  0  0
 21 22  1  0  0  0
 21 23  2  0  0  0
  4  5  1  0  0  0
  5  6  2  0  0  0
  6  7  1  0  0  0
  7  8  2  0  0  0
  8  9  1  0  0  0
  9 25  1  0  0  0
 25 26  1  0  0  0
 26 27  2  0  0  0
 27 28  1  0  0  0
 28 29  2  0  0  0
 29 30  1  0  0  0
 30 31  2  0  0  0
 31 32  1  0  0  0
 32 33  2  0  0  0
 33 34  1  0  0  0
 34 35  2  0  0  0
 35 36  1  0  0  0
 36 37  2  0  0  0
  9  1  1  0  0  0
 31 26  1  0  0  0
 37 32  1  0  0  0
  8  3  1  0  0  0
 15 17  1  0  0  0
 15 18  1  0  0  0
 22 24  1  0  0  0
M  END
> <minimizedAffinity>
31.93516

> <CNNscore>
0.3969070613

> <CNNaffinity>
6.2011661530

> <CNN_VS>
2.4612865448

> <CNNaffinity_variance>
0.4236376882

$$$$
[H]OC(=O)C([H])([H])Oc1c([H])c([H])c([H])c2c1c(C(=O)C(=O)N([H])[H])c(C([H])([H])C([H])([H])[H])n2C([H])([H])c1c([H])c([H])c([H])c([H])c1-c1c([H])c([H])c([H])c([H])c1[H]


 37 40  0  0  0  0  0  0  0  0999 V2000
   23.2169    7.8589   52.7415 C   0  0  0  0  0  0  0  0  0  0  0  0
   22.6087    6.7082   53.2641 C   0  0  0  0  0  0  0  0  0  0  0  0
   21.2974    6.7758   52.9390 C   0  0  0  0  0  0  0  0  0  0  0  0
   20.2982    5.8488   53.2126 C   0  0  0  0  0  0  0  0  0  0  0  0
   19.0376    6.0809   52.7612 C   0  0  0  0  0  0  0  0  0  0  0  0
   18.7972    7.2280   52.0479 C   0  0  0  0  0  0  0  0  0  0  0  0
   19.8062    8.1261   51.7943 C   0  0  0  0  0  0  0  0  0  0  0  0
   21.1234    7.9432   52.2359 C   0  0  0  0  0  0  0  0  0  0  0  0
   22.2800    8.6282   52.1017 N   0  0  0  0  0  0  0  0  0  0  0  0
   25.0650    8.0898   54.3581 C   0  0  0  0  0  0  0  0  0  0  0  0
   24.6814    8.0086   52.8979 C   0  0  0  0  0  0  0  0  0  0  0  0
   23.2653    5.6236   54.0103 C   0  0  0  0  0  0  0  0  0  0  0  0
   23.9863    4.7993   53.4030 O   0  0  0  0  0  0  0  0  0  0  0  0
   23.1010    5.4794   55.4433 C   0  0  0  0  0  0  0  0  0  0  0  0
   21.9845    6.0269   56.1229 N   0  0  0  0  0  0  0  0  0  0  0  0
   23.9373    4.8599   56.1733 O   0  0  0  0  0  0  0  0  0  0  0  0
   21.9450    7.0269   56.3863 H   0  0  0  0  0  0  0  0  0  0  0  0
   21.1593    5.4126   56.3773 H   0  0  0  0  0  0  0  0  0  0  0  0
   20.5701    4.7054   53.9283 O   0  0  0  0  0  0  0  0  0  0  0  0
   19.9112    3.5012   53.9440 C   0  0  0  0  0  0  0  0  0  0  0  0
   18.6840    3.4163   54.7442 C   0  0  0  0  0  0  0  0  0  0  0  0
   18.6320    3.0650   56.0956 O   0  0  0  0  0  0  0  0  0  0  0  0
   17.6001    3.6806   54.1536 O   0  0  0  0  0  0  0  0  0  0  0  0
   17.8407    3.3871   56.6701 H   0  0  0  0  0  0  0  0  0  0  0  0
   22.5533    9.8449   51.4025 C   0  0  0  0  0  0  0  0  0  0  0  0
   21.9405   11.1168   51.7753 C   0  0  0  0  0  0  0  0  0  0  0  0
   21.6793   12.0420   50.7175 C   0  0  0  0  0  0  0  0  0  0  0  0
   21.1883   13.2949   50.9330 C   0  0  0  0  0  0  0  0  0  0  0  0
   20.9312   13.6862   52.2238 C   0  0  0  0  0  0  0  0  0  0  0  0
   21.1689   12.8156   53.2537 C   0  0  0  0  0  0  0  0  0  0  0  0
   21.6768   11.5106   53.0422 C   0  0  0  0  0  0  0  0  0  0  0  0
   21.6935   10.6667   54.2542 C   0  0  0  0  0  0  0  0  0  0  0  0
   20.6146    9.9199   54.6711 C   0  0  0  0  0  0  0  0  0  0  0  0
   20.6571    9.1486   55.8291 C   0  0  0  0  0  0  0  0  0  0  0  0
   21.7963    9.1112   56.6020 C   0  0  0  0  0  0  0  0  0  0  0  0
   22.8774    9.8569   56.1888 C   0  0  0  0  0  0  0  0  0  0  0  0
   22.8337   10.6312   55.0247 C   0  0  0  0  0  0  0  0  0  0  0  0
 10 11  1  0  0  0
 11  1  1  0  0  0
  1  2  2  0  0  0
  2 12  1  0  0  0
 12 13  2  0  0  0
 12 14  1  0  0  0
 14 15  1  0  0  0
 14 16  2  0  0  0
  2  3  1  0  0  0
  3  4  2  0  0  0
  4 19  1  0  0  0
 19 20  1  0  0  0
 20 21  1  0  0  0
 21 22  1  0  0  0
 21 23  2  0  0  0
  4  5  1  0  0  0
  5  6  2  0  0  0
  6  7  1  0  0  0
  7  8  2  0  0  0
  8  9  1  0  0  0
  9 25  1  0  0  0
 25 26  1  0  0  0
 26 27  2  0  0  0
 27 28  1  0  0  0
 28 29  2  0  0  0
 29 30  1  0  0  0
 30 31  2  0  0  0
 31 32  1  0  0  0
 32 33  2  0  0  0
 33 34  1  0  0  0
 34 35  2  0  0  0
 35 36  1  0  0  0
 36 37  2  0  0  0
  9  1  1  0  0  0
 31 26  1  0  0  0
 37 32  1  0  0  0
  8  3  1  0  0  0
 15 17  1  0  0  0
 15 18  1  0  0  0
 22 24  1  0  0  0
M  END
> <minimizedAffinity>
32.60279

> <CNNscore>
0.3942009807

> <CNNaffinity>
6.4524736404

> <CNN_VS>
2.5435714722

> <CNNaffinity_variance>
0.4812026918

$$$$
[H]OC(=O)C([H])([H])Oc1c([H])c([H])c([H])c2c1c(C(=O)C(=O)N([H])[H])c(C([H])([H])C([H])([H])[H])n2C([H])([H])c1c([H])c([H])c([H])c([H])c1-c1c([H])c([H])c([H])c([H])c1[H]


 37 40  0  0  0  0  0  0  0  0999 V2000
   22.8024    8.8879   53.2269 C   0  0  0  0  0  0  0  0  0  0  0  0
   21.8976    7.8588   53.5259 C   0  0  0  0  0  0  0  0  0  0  0  0
   22.5857    6.6968   53.4479 C   0  0  0  0  0  0  0  0  0  0  0  0
   22.1225    5.4090   53.6913 C   0  0  0  0  0  0  0  0  0  0  0  0
   22.9879    4.3651   53.5997 C   0  0  0  0  0  0  0  0  0  0  0  0
   24.2942    4.6234   53.2688 C   0  0  0  0  0  0  0  0  0  0  0  0
   24.7219    5.9081   53.0330 C   0  0  0  0  0  0  0  0  0  0  0  0
   23.8766    7.0230   53.1091 C   0  0  0  0  0  0  0  0  0  0  0  0
   24.0383    8.3565   52.9644 N   0  0  0  0  0  0  0  0  0  0  0  0
   21.5496   10.6642   52.0618 C   0  0  0  0  0  0  0  0  0  0  0  0
   22.3223   10.2861   53.3052 C   0  0  0  0  0  0  0  0  0  0  0  0
   20.4757    8.0061   53.8736 C   0  0  0  0  0  0  0  0  0  0  0  0
   20.1539    8.5152   54.9715 O   0  0  0  0  0  0  0  0  0  0  0  0
   19.4247    7.5753   52.9729 C   0  0  0  0  0  0  0  0  0  0  0  0
   18.1883    7.0790   53.4559 N   0  0  0  0  0  0  0  0  0  0  0  0
   19.5429    7.6152   51.7078 O   0  0  0  0  0  0  0  0  0  0  0  0
   18.0837    6.1015   53.7792 H   0  0  0  0  0  0  0  0  0  0  0  0
   17.3372    7.7093   53.4940 H   0  0  0  0  0  0  0  0  0  0  0  0
   20.8069    5.1810   54.0243 O   0  0  0  0  0  0  0  0  0  0  0  0
   19.8915    4.3304   53.4560 C   0  0  0  0  0  0  0  0  0  0  0  0
   18.7372    3.9406   54.2739 C   0  0  0  0  0  0  0  0  0  0  0  0
   17.4375    4.4258   54.1076 O   0  0  0  0  0  0  0  0  0  0  0  0
   18.9492    3.1048   55.1958 O   0  0  0  0  0  0  0  0  0  0  0  0
   16.6420    3.8572   54.4296 H   0  0  0  0  0  0  0  0  0  0  0  0
   25.2157    9.1151   52.6780 C   0  0  0  0  0  0  0  0  0  0  0  0
   26.4833    8.8825   53.3647 C   0  0  0  0  0  0  0  0  0  0  0  0
   26.4114    8.3528   54.6904 C   0  0  0  0  0  0  0  0  0  0  0  0
   27.5104    8.1655   55.4743 C   0  0  0  0  0  0  0  0  0  0  0  0
   28.7425    8.4989   54.9681 C   0  0  0  0  0  0  0  0  0  0  0  0
   28.8372    9.0038   53.6987 C   0  0  0  0  0  0  0  0  0  0  0  0
   27.7029    9.2007   52.8738 C   0  0  0  0  0  0  0  0  0  0  0  0
   28.0273    9.5811   51.4840 C   0  0  0  0  0  0  0  0  0  0  0  0
   28.3813   10.8585   51.1123 C   0  0  0  0  0  0  0  0  0  0  0  0
   28.6634   11.1883   49.7896 C   0  0  0  0  0  0  0  0  0  0  0  0
   28.5945   10.2318   48.8013 C   0  0  0  0  0  0  0  0  0  0  0  0
   28.2406    8.9530   49.1689 C   0  0  0  0  0  0  0  0  0  0  0  0
   27.9576    8.6227   50.4983 C   0  0  0  0  0  0  0  0  0  0  0  0
 10 11  1  0  0  0
 11  1  1  0  0  0
  1  2  2  0  0  0
  2 12  1  0  0  0
 12 13  2  0  0  0
 12 14  1  0  0  0
 14 15  1  0  0  0
 14 16  2  0  0  0
  2  3  1  0  0  0
  3  4  2  0  0  0
  4 19  1  0  0  0
 19 20  1  0  0  0
 20 21  1  0  0  0
 21 22  1  0  0  0
 21 23  2  0  0  0
  4  5  1  0  0  0
  5  6  2  0  0  0
  6  7  1  0  0  0
  7  8  2  0  0  0
  8  9  1  0  0  0
  9 25  1  0  0  0
 25 26  1  0  0  0
 26 27  2  0  0  0
 27 28  1  0  0  0
 28 29  2  0  0  0
 29 30  1  0  0  0
 30 31  2  0  0  0
 31 32  1  0  0  0
 32 33  2  0  0  0
 33 34  1  0  0  0
 34 35  2  0  0  0
 35 36  1  0  0  0
 36 37  2  0  0  0
  9  1  1  0  0  0
 31 26  1  0  0  0
 37 32  1  0  0  0
  8  3  1  0  0  0
 15 17  1  0  0  0
 15 18  1  0  0  0
 22 24  1  0  0  0
M  END
> <minimizedAffinity>
34.00414

> <CNNscore>
0.3788810372

> <CNNaffinity>
6.2128076553

> <CNN_VS>
2.3539149761

> <CNNaffinity_variance>
0.5465488434

$$$$
[H]N=C(N([H])[H])N([H])C([H])([H])C([H])([H])C([H])([H])[C@@]([H])(C(=O)c1nc([H])c([H])s1)N([H])C(=O)[C@@]1([H])N(C(=O)[C@]([H])(N([H])C(=O)OC([H])([H])c2c([H])c([H])c([H])c([H])c2[H])C([H])([H])c2c([H])c([H])c([H])c([H])c2[H])C([H])([H])C([H])([H])C1([H])[H]


 50 53  0  0  0  0  0  0  0  0999 V2000
   24.2686    8.0009   54.6332 C   0  0  0  0  0  0  0  0  0  0  0  0
   23.9373    9.1882   55.5395 C   0  0  0  0  0  0  0  0  0  0  0  0
   25.2676    9.3308   56.2815 C   0  0  0  0  0  0  0  0  0  0  0  0
   26.2694    8.4503   55.5405 C   0  0  0  0  0  0  0  0  0  0  0  0
   25.5762    8.3598   54.2241 N   0  0  0  0  0  0  0  0  0  0  0  0
   26.2645    8.6507   53.0416 C   0  0  0  0  0  0  0  0  0  0  0  0
   25.6547    8.6629   51.9553 O   0  0  0  0  0  0  0  0  0  0  0  0
   21.9654    7.1580   53.9337 N   0  0  0  0  0  0  0  0  0  0  0  0
   23.2439    7.6441   53.6895 C   0  0  0  0  0  0  0  0  0  0  0  0
   23.5339    7.7781   52.4322 O   0  0  0  0  0  0  0  0  0  0  0  0
   21.6157    7.0347   54.8975 H   0  0  0  0  0  0  0  0  0  0  0  0
   20.9837    6.7680   52.8704 C   0  0  0  0  0  0  0  0  0  0  0  0
   20.6441    7.8954   52.0622 C   0  0  0  0  0  0  0  0  0  0  0  0
   19.8284    7.5696   51.0716 O   0  0  0  0  0  0  0  0  0  0  0  0
   20.9704    9.3031   52.0552 C   0  0  0  0  0  0  0  0  0  0  0  0
   21.0851   10.2529   51.1808 N   0  0  0  0  0  0  0  0  0  0  0  0
   21.4131   11.4587   51.4828 C   0  0  0  0  0  0  0  0  0  0  0  0
   21.6498   11.7345   52.8044 C   0  0  0  0  0  0  0  0  0  0  0  0
   21.3729   10.2034   53.5051 S   0  0  0  0  0  0  0  0  0  0  0  0
   20.0422    5.8179   53.4568 C   0  0  0  0  0  0  0  0  0  0  0  0
   20.0781    4.3781   53.1948 C   0  0  0  0  0  0  0  0  0  0  0  0
   18.8664    3.6365   53.7791 C   0  0  0  0  0  0  0  0  0  0  0  0
   17.7276    4.4948   53.8717 N   0  0  0  0  0  0  0  0  0  0  0  0
   17.8125    5.4864   53.5743 H   0  0  0  0  0  0  0  0  0  0  0  0
   15.3953    3.8140   53.4730 N   0  0  0  0  0  0  0  0  0  0  0  0
   16.4765    4.0443   54.3565 C   0  0  0  0  0  0  0  0  0  0  0  0
   16.3240    3.8438   55.6134 N   0  0  0  0  0  0  0  0  0  0  0  0
   15.0490    2.8413   53.2958 H   0  0  0  0  0  0  0  0  0  0  0  0
   14.8914    4.5674   52.9594 H   0  0  0  0  0  0  0  0  0  0  0  0
   17.0437    3.9800   56.3408 H   0  0  0  0  0  0  0  0  0  0  0  0
   27.7145    8.9607   52.9700 C   0  0  0  0  0  0  0  0  0  0  0  0
   28.2092    9.4397   54.2582 N   0  0  0  0  0  0  0  0  0  0  0  0
   28.5664    8.4950   55.2742 C   0  0  0  0  0  0  0  0  0  0  0  0
   28.4424    7.2547   54.9899 O   0  0  0  0  0  0  0  0  0  0  0  0
   28.3122   10.4389   54.4676 H   0  0  0  0  0  0  0  0  0  0  0  0
   29.0281    8.8109   56.5219 O   0  0  0  0  0  0  0  0  0  0  0  0
   28.2316    8.8172   57.6745 C   0  0  0  0  0  0  0  0  0  0  0  0
   28.7946    9.5835   58.8088 C   0  0  0  0  0  0  0  0  0  0  0  0
   28.7819   10.9739   58.8340 C   0  0  0  0  0  0  0  0  0  0  0  0
   29.3060   11.6911   59.9058 C   0  0  0  0  0  0  0  0  0  0  0  0
   29.8618   11.0348   60.9907 C   0  0  0  0  0  0  0  0  0  0  0  0
   29.8779    9.6656   60.9738 C   0  0  0  0  0  0  0  0  0  0  0  0
   29.3536    8.9635   59.9022 C   0  0  0  0  0  0  0  0  0  0  0  0
   27.8434   10.1267   52.0107 C   0  0  0  0  0  0  0  0  0  0  0  0
   28.1496    9.6949   50.6278 C   0  0  0  0  0  0  0  0  0  0  0  0
   28.4615    8.3724   50.3701 C   0  0  0  0  0  0  0  0  0  0  0  0
   28.7483    7.9639   49.0858 C   0  0  0  0  0  0  0  0  0  0  0  0
   28.7327    8.8582   48.0239 C   0  0  0  0  0  0  0  0  0  0  0  0
   28.4274   10.1674   48.2567 C   0  0  0  0  0  0  0  0  0  0  0  0
   28.1412   10.5626   49.5557 C   0  0  0  0  0  0  0  0  0  0  0  0
 25 26  1  0  0  0
 26 27  2  0  0  0
 26 23  1  0  0  0
 23 22  1  0  0  0
 22 21  1  0  0  0
 21 20  1  0  0  0
 20 12  1  0  0  0
 12  8  1  0  0  0
  8  9  1  0  0  0
  9 10  2  0  0  0
  9  1  1  0  0  0
  1  2  1  0  0  0
  2  3  1  0  0  0
  3  4  1  0  0  0
  4  5  1  0  0  0
  5  6  1  0  0  0
  6  7  2  0  0  0
  6 31  1  0  0  0
 31 44  1  0  0  0
 44 45  1  0  0  0
 45 46  2  0  0  0
 46 47  1  0  0  0
 47 48  2  0  0  0
 48 49  1  0  0  0
 49 50  2  0  0  0
 31 32  1  0  0  0
 32 33  1  0  0  0
 33 34  2  0  0  0
 33 36  1  0  0  0
 36 37  1  0  0  0
 37 38  1  0  0  0
 38 39  2  0  0  0
 39 40  1  0  0  0
 40 41  2  0  0  0
 41 42  1  0  0  0
 42 43  2  0  0  0
 12 13  1  0  0  0
 13 14  2  0  0  0
 13 15  1  0  0  0
 15 16  2  0  0  0
 16 17  1  0  0  0
 17 18  2  0  0  0
 18 19  1  0  0  0
  5  1  1  0  0  0
 50 45  1  0  0  0
 43 38  1  0  0  0
 19 15  1  0  0  0
 25 28  1  0  0  0
 25 29  1  0  0  0
 27 30  1  0  0  0
 23 24  1  0  0  0
  8 11  1  0  0  0
 32 35  1  0  0  0
M  END
> <minimizedAffinity>
22.65252

> <CNNscore>
0.5537027121

> <CNNaffinity>
7.0084152222

> <CNN_VS>
3.8805785179

> <CNNaffinity_variance>
0.3334157467

$$$$
[H]N=C(N([H])[H])N([H])C([H])([H])C([H])([H])C([H])([H])[C@@]([H])(C(=O)c1nc([H])c([H])s1)N([H])C(=O)[C@@]1([H])N(C(=O)[C@]([H])(N([H])C(=O)OC([H])([H])c2c([H])c([H])c([H])c([H])c2[H])C([H])([H])c2c([H])c([H])c([H])c([H])c2[H])C([H])([H])C([H])([H])C1([H])[H]


 50 53  0  0  0  0  0  0  0  0999 V2000
   27.0101    8.7669   54.3573 C   0  0  0  0  0  0  0  0  0  0  0  0
   27.9812    7.7276   53.7940 C   0  0  0  0  0  0  0  0  0  0  0  0
   29.3056    8.4632   54.0077 C   0  0  0  0  0  0  0  0  0  0  0  0
   28.9940    9.6565   54.9061 C   0  0  0  0  0  0  0  0  0  0  0  0
   27.7227    9.1699   55.5131 N   0  0  0  0  0  0  0  0  0  0  0  0
   27.5542    9.1781   56.9017 C   0  0  0  0  0  0  0  0  0  0  0  0
   26.5272    8.6844   57.4053 O   0  0  0  0  0  0  0  0  0  0  0  0
   25.0993    7.0802   54.2666 N   0  0  0  0  0  0  0  0  0  0  0  0
   25.6337    8.3542   54.4137 C   0  0  0  0  0  0  0  0  0  0  0  0
   24.7522    9.2831   54.6205 O   0  0  0  0  0  0  0  0  0  0  0  0
   25.7083    6.2586   54.1230 H   0  0  0  0  0  0  0  0  0  0  0  0
   23.6352    6.7609   54.2946 C   0  0  0  0  0  0  0  0  0  0  0  0
   23.0831    6.8187   52.9787 C   0  0  0  0  0  0  0  0  0  0  0  0
   23.5281    5.8376   52.2092 O   0  0  0  0  0  0  0  0  0  0  0  0
   22.1610    7.6825   52.2773 C   0  0  0  0  0  0  0  0  0  0  0  0
   21.0167    7.5731   51.6787 N   0  0  0  0  0  0  0  0  0  0  0  0
   20.4161    8.5584   51.1121 C   0  0  0  0  0  0  0  0  0  0  0  0
   21.0345    9.7810   51.1541 C   0  0  0  0  0  0  0  0  0  0  0  0
   22.4512    9.3929   52.0226 S   0  0  0  0  0  0  0  0  0  0  0  0
   23.0659    7.3740   55.4917 C   0  0  0  0  0  0  0  0  0  0  0  0
   21.6768    7.1860   55.9136 C   0  0  0  0  0  0  0  0  0  0  0  0
   20.6810    7.2971   54.7493 C   0  0  0  0  0  0  0  0  0  0  0  0
   20.5577    8.6476   54.2986 N   0  0  0  0  0  0  0  0  0  0  0  0
   20.0338    8.8462   53.4240 H   0  0  0  0  0  0  0  0  0  0  0  0
   20.7512   10.0116   56.3392 N   0  0  0  0  0  0  0  0  0  0  0  0
   21.1257    9.7362   55.0026 C   0  0  0  0  0  0  0  0  0  0  0  0
   21.9901   10.4810   54.4184 N   0  0  0  0  0  0  0  0  0  0  0  0
   21.4314    9.8712   57.1235 H   0  0  0  0  0  0  0  0  0  0  0  0
   19.8104   10.3585   56.6214 H   0  0  0  0  0  0  0  0  0  0  0  0
   22.3319   10.3689   53.4508 H   0  0  0  0  0  0  0  0  0  0  0  0
   28.5346    9.7442   57.8620 C   0  0  0  0  0  0  0  0  0  0  0  0
   28.3279    9.1975   59.2006 N   0  0  0  0  0  0  0  0  0  0  0  0
   29.1307    8.0982   59.6473 C   0  0  0  0  0  0  0  0  0  0  0  0
   30.0136    7.6512   58.8378 O   0  0  0  0  0  0  0  0  0  0  0  0
   27.6213    9.5739   59.8424 H   0  0  0  0  0  0  0  0  0  0  0  0
   29.0298    7.4882   60.8669 O   0  0  0  0  0  0  0  0  0  0  0  0
   29.4914    6.1933   61.1367 C   0  0  0  0  0  0  0  0  0  0  0  0
   28.4438    5.1479   61.1140 C   0  0  0  0  0  0  0  0  0  0  0  0
   28.7573    3.7934   61.1429 C   0  0  0  0  0  0  0  0  0  0  0  0
   27.7690    2.8131   61.1285 C   0  0  0  0  0  0  0  0  0  0  0  0
   26.4297    3.1609   61.0842 C   0  0  0  0  0  0  0  0  0  0  0  0
   26.1125    4.4927   61.0559 C   0  0  0  0  0  0  0  0  0  0  0  0
   27.1042    5.4582   61.0707 C   0  0  0  0  0  0  0  0  0  0  0  0
   28.2160   11.2226   57.9583 C   0  0  0  0  0  0  0  0  0  0  0  0
   28.9576   11.8947   59.0497 C   0  0  0  0  0  0  0  0  0  0  0  0
   29.9962   11.2388   59.6852 C   0  0  0  0  0  0  0  0  0  0  0  0
   30.6899   11.8579   60.7021 C   0  0  0  0  0  0  0  0  0  0  0  0
   30.3703   13.1447   61.1141 C   0  0  0  0  0  0  0  0  0  0  0  0
   29.3490   13.8092   60.5002 C   0  0  0  0  0  0  0  0  0  0  0  0
   28.6603   13.1716   59.4781 C   0  0  0  0  0  0  0  0  0  0  0  0
 25 26  1  0  0  0
 26 27  2  0  0  0
 26 23  1  0  0  0
 23 22  1  0  0  0
 22 21  1  0  0  0
 21 20  1  0  0  0
 20 12  1  0  0  0
 12  8  1  0  0  0
  8  9  1  0  0  0
  9 10  2  0  0  0
  9  1  1  0  0  0
  1  2  1  0  0  0
  2  3  1  0  0  0
  3  4  1  0  0  0
  4  5  1  0  0  0
  5  6  1  0  0  0
  6  7  2  0  0  0
  6 31  1  0  0  0
 31 44  1  0  0  0
 44 45  1  0  0  0
 45 46  2  0  0  0
 46 47  1  0  0  0
 47 48  2  0  0  0
 48 49  1  0  0  0
 49 50  2  0  0  0
 31 32  1  0  0  0
 32 33  1  0  0  0
 33 34  2  0  0  0
 33 36  1  0  0  0
 36 37  1  0  0  0
 37 38  1  0  0  0
 38 39  2  0  0  0
 39 40  1  0  0  0
 40 41  2  0  0  0
 41 42  1  0  0  0
 42 43  2  0  0  0
 12 13  1  0  0  0
 13 14  2  0  0  0
 13 15  1  0  0  0
 15 16  2  0  0  0
 16 17  1  0  0  0
 17 18  2  0  0  0
 18 19  1  0  0  0
  5  1  1  0  0  0
 50 45  1  0  0  0
 43 38  1  0  0  0
 19 15  1  0  0  0
 25 28  1  0  0  0
 25 29  1  0  0  0
 27 30  1  0  0  0
 23 24  1  0  0  0
  8 11  1  0  0  0
 32 35  1  0  0  0
M  END
> <minimizedAffinity>
17.05914

> <CNNscore>
0.5297265649

> <CNNaffinity>
6.8009748459

> <CNN_VS>
3.6026570797

> <CNNaffinity_variance>
0.8027118444

$$$$
[H]N=C(N([H])[H])N([H])C([H])([H])C([H])([H])C([H])([H])[C@@]([H])(C(=O)c1nc([H])c([H])s1)N([H])C(=O)[C@@]1([H])N(C(=O)[C@]([H])(N([H])C(=O)OC([H])([H])c2c([H])c([H])c([H])c([H])c2[H])C([H])([H])c2c([H])c([H])c([H])c([H])c2[H])C([H])([H])C([H])([H])C1([H])[H]


 50 53  0  0  0  0  0  0  0  0999 V2000
   23.3709    8.7515   55.5460 C   0  0  0  0  0  0  0  0  0  0  0  0
   23.0698   10.2034   55.9231 C   0  0  0  0  0  0  0  0  0  0  0  0
   24.3546   10.5501   56.6779 C   0  0  0  0  0  0  0  0  0  0  0  0
   25.3348    9.4138   56.4021 C   0  0  0  0  0  0  0  0  0  0  0  0
   24.7261    8.8743   55.1531 N   0  0  0  0  0  0  0  0  0  0  0  0
   25.5115    8.6761   54.0128 C   0  0  0  0  0  0  0  0  0  0  0  0
   24.9781    8.3133   52.9469 O   0  0  0  0  0  0  0  0  0  0  0  0
   22.5776    7.3702   53.5543 N   0  0  0  0  0  0  0  0  0  0  0  0
   22.3875    8.1177   54.7099 C   0  0  0  0  0  0  0  0  0  0  0  0
   21.1457    8.2572   55.0582 O   0  0  0  0  0  0  0  0  0  0  0  0
   23.5257    7.1722   53.1959 H   0  0  0  0  0  0  0  0  0  0  0  0
   21.4740    6.7891   52.7231 C   0  0  0  0  0  0  0  0  0  0  0  0
   20.8314    7.8090   51.9574 C   0  0  0  0  0  0  0  0  0  0  0  0
   19.8052    7.3392   51.2653 O   0  0  0  0  0  0  0  0  0  0  0  0
   21.0232    9.2259   51.7483 C   0  0  0  0  0  0  0  0  0  0  0  0
   20.8645   10.0799   50.7863 N   0  0  0  0  0  0  0  0  0  0  0  0
   21.1417   11.3304   50.8956 C   0  0  0  0  0  0  0  0  0  0  0  0
   21.6297   11.7642   52.1008 C   0  0  0  0  0  0  0  0  0  0  0  0
   21.6448   10.3040   52.9837 S   0  0  0  0  0  0  0  0  0  0  0  0
   20.8049    5.7644   53.5202 C   0  0  0  0  0  0  0  0  0  0  0  0
   19.8442    4.8089   52.9665 C   0  0  0  0  0  0  0  0  0  0  0  0
   19.0100    4.1083   54.0495 C   0  0  0  0  0  0  0  0  0  0  0  0
   17.7629    3.6463   53.5264 N   0  0  0  0  0  0  0  0  0  0  0  0
   17.7469    3.1478   52.6153 H   0  0  0  0  0  0  0  0  0  0  0  0
   15.3062    3.8092   53.5083 N   0  0  0  0  0  0  0  0  0  0  0  0
   16.5369    3.8419   54.2061 C   0  0  0  0  0  0  0  0  0  0  0  0
   16.5452    4.0520   55.4706 N   0  0  0  0  0  0  0  0  0  0  0  0
   14.6262    3.0274   53.6625 H   0  0  0  0  0  0  0  0  0  0  0  0
   15.0063    4.5322   52.8209 H   0  0  0  0  0  0  0  0  0  0  0  0
   17.3827    4.0953   56.0725 H   0  0  0  0  0  0  0  0  0  0  0  0
   26.9822    8.8719   53.9631 C   0  0  0  0  0  0  0  0  0  0  0  0
   27.5419    8.3073   52.7378 N   0  0  0  0  0  0  0  0  0  0  0  0
   27.7525    9.1533   51.6010 C   0  0  0  0  0  0  0  0  0  0  0  0
   27.4440   10.3879   51.7251 O   0  0  0  0  0  0  0  0  0  0  0  0
   27.7935    7.3157   52.6572 H   0  0  0  0  0  0  0  0  0  0  0  0
   28.2551    8.7490   50.3954 O   0  0  0  0  0  0  0  0  0  0  0  0
   28.4937    9.6104   49.3166 C   0  0  0  0  0  0  0  0  0  0  0  0
   28.6644    8.9323   48.0121 C   0  0  0  0  0  0  0  0  0  0  0  0
   29.1844    7.6461   47.9156 C   0  0  0  0  0  0  0  0  0  0  0  0
   29.3370    7.0087   46.6875 C   0  0  0  0  0  0  0  0  0  0  0  0
   28.9719    7.6429   45.5123 C   0  0  0  0  0  0  0  0  0  0  0  0
   28.4586    8.9096   45.5986 C   0  0  0  0  0  0  0  0  0  0  0  0
   28.3117    9.5329   46.8258 C   0  0  0  0  0  0  0  0  0  0  0  0
   27.5498    8.0491   55.1022 C   0  0  0  0  0  0  0  0  0  0  0  0
   27.9193    8.8768   56.2732 C   0  0  0  0  0  0  0  0  0  0  0  0
   28.1079   10.2388   56.1245 C   0  0  0  0  0  0  0  0  0  0  0  0
   28.4528   11.0147   57.2097 C   0  0  0  0  0  0  0  0  0  0  0  0
   28.6191   10.4581   58.4708 C   0  0  0  0  0  0  0  0  0  0  0  0
   28.4376    9.1164   58.6388 C   0  0  0  0  0  0  0  0  0  0  0  0
   28.0908    8.3491   57.5359 C   0  0  0  0  0  0  0  0  0  0  0  0
 25 26  1  0  0  0
 26 27  2  0  0  0
 26 23  1  0  0  0
 23 22  1  0  0  0
 22 21  1  0  0  0
 21 20  1  0  0  0
 20 12  1  0  0  0
 12  8  1  0  0  0
  8  9  1  0  0  0
  9 10  2  0  0  0
  9  1  1  0  0  0
  1  2  1  0  0  0
  2  3  1  0  0  0
  3  4  1  0  0  0
  4  5  1  0  0  0
  5  6  1  0  0  0
  6  7  2  0  0  0
  6 31  1  0  0  0
 31 44  1  0  0  0
 44 45  1  0  0  0
 45 46  2  0  0  0
 46 47  1  0  0  0
 47 48  2  0  0  0
 48 49  1  0  0  0
 49 50  2  0  0  0
 31 32  1  0  0  0
 32 33  1  0  0  0
 33 34  2  0  0  0
 33 36  1  0  0  0
 36 37  1  0  0  0
 37 38  1  0  0  0
 38 39  2  0  0  0
 39 40  1  0  0  0
 40 41  2  0  0  0
 41 42  1  0  0  0
 42 43  2  0  0  0
 12 13  1  0  0  0
 13 14  2  0  0  0
 13 15  1  0  0  0
 15 16  2  0  0  0
 16 17  1  0  0  0
 17 18  2  0  0  0
 18 19  1  0  0  0
  5  1  1  0  0  0
 50 45  1  0  0  0
 43 38  1  0  0  0
 19 15  1  0  0  0
 25 28  1  0  0  0
 25 29  1  0  0  0
 27 30  1  0  0  0
 23 24  1  0  0  0
  8 11  1  0  0  0
 32 35  1  0  0  0
M  END
> <minimizedAffinity>
28.04558

> <CNNscore>
0.5211633444

> <CNNaffinity>
6.8753509521

> <CNN_VS>
3.5831809044

> <CNNaffinity_variance>
0.4262482524

$$$$
[H]N=C(N([H])[H])N([H])C([H])([H])C([H])([H])C([H])([H])[C@@]([H])(C(=O)c1nc([H])c([H])s1)N([H])C(=O)[C@@]1([H])N(C(=O)[C@]([H])(N([H])C(=O)OC([H])([H])c2c([H])c([H])c([H])c([H])c2[H])C([H])([H])c2c([H])c([H])c([H])c([H])c2[H])C([H])([H])C([H])([H])C1([H])[H]


 50 53  0  0  0  0  0  0  0  0999 V2000
   23.7765    7.3625   54.8708 C   0  0  0  0  0  0  0  0  0  0  0  0
   23.6111    6.0013   55.5493 C   0  0  0  0  0  0  0  0  0  0  0  0
   22.0995    6.0076   55.7850 C   0  0  0  0  0  0  0  0  0  0  0  0
   21.5443    7.1792   54.9806 C   0  0  0  0  0  0  0  0  0  0  0  0
   22.6573    7.3434   54.0029 N   0  0  0  0  0  0  0  0  0  0  0  0
   22.3908    7.3927   52.6307 C   0  0  0  0  0  0  0  0  0  0  0  0
   23.3328    7.4367   51.8165 O   0  0  0  0  0  0  0  0  0  0  0  0
   25.7546    8.8826   54.3410 N   0  0  0  0  0  0  0  0  0  0  0  0
   25.1031    7.6569   54.4002 C   0  0  0  0  0  0  0  0  0  0  0  0
   25.8022    6.6578   53.9577 O   0  0  0  0  0  0  0  0  0  0  0  0
   25.3046    9.7443   54.6895 H   0  0  0  0  0  0  0  0  0  0  0  0
   27.1304    9.0912   53.7840 C   0  0  0  0  0  0  0  0  0  0  0  0
   27.1194    8.9730   52.3608 C   0  0  0  0  0  0  0  0  0  0  0  0
   26.2782    8.0387   51.9458 O   0  0  0  0  0  0  0  0  0  0  0  0
   27.7992    9.6179   51.2607 C   0  0  0  0  0  0  0  0  0  0  0  0
   28.5758   10.6407   51.0852 N   0  0  0  0  0  0  0  0  0  0  0  0
   29.0376   10.9914   49.9379 C   0  0  0  0  0  0  0  0  0  0  0  0
   28.6784   10.2311   48.8554 C   0  0  0  0  0  0  0  0  0  0  0  0
   27.6900    9.0579   49.6027 S   0  0  0  0  0  0  0  0  0  0  0  0
   28.0820    8.4545   54.6907 C   0  0  0  0  0  0  0  0  0  0  0  0
   28.6155    9.1042   55.8890 C   0  0  0  0  0  0  0  0  0  0  0  0
   27.6897    8.9601   57.1063 C   0  0  0  0  0  0  0  0  0  0  0  0
   28.3978    9.1868   58.3268 N   0  0  0  0  0  0  0  0  0  0  0  0
   28.7553    8.3742   58.8659 H   0  0  0  0  0  0  0  0  0  0  0  0
   29.0041   10.6809   60.1875 N   0  0  0  0  0  0  0  0  0  0  0  0
   28.6343   10.4863   58.8354 C   0  0  0  0  0  0  0  0  0  0  0  0
   28.5104   11.4982   58.0584 N   0  0  0  0  0  0  0  0  0  0  0  0
   29.9662   11.0135   60.4349 H   0  0  0  0  0  0  0  0  0  0  0  0
   28.3687   10.5124   60.9957 H   0  0  0  0  0  0  0  0  0  0  0  0
   28.2466   11.4680   57.0608 H   0  0  0  0  0  0  0  0  0  0  0  0
   21.0287    7.3941   52.0405 C   0  0  0  0  0  0  0  0  0  0  0  0
   20.7619    8.6527   51.3488 N   0  0  0  0  0  0  0  0  0  0  0  0
   21.2856    9.8761   51.8792 C   0  0  0  0  0  0  0  0  0  0  0  0
   21.9846    9.7993   52.9469 O   0  0  0  0  0  0  0  0  0  0  0  0
   20.2068    8.6964   50.4869 H   0  0  0  0  0  0  0  0  0  0  0  0
   21.0989   11.1178   51.3380 O   0  0  0  0  0  0  0  0  0  0  0  0
   21.8530   12.2462   51.6854 C   0  0  0  0  0  0  0  0  0  0  0  0
   21.0716   13.4978   51.8032 C   0  0  0  0  0  0  0  0  0  0  0  0
   20.2463   13.7483   52.8941 C   0  0  0  0  0  0  0  0  0  0  0  0
   19.5183   14.9296   53.0048 C   0  0  0  0  0  0  0  0  0  0  0  0
   19.5945   15.9012   52.0215 C   0  0  0  0  0  0  0  0  0  0  0  0
   20.4053   15.6624   50.9440 C   0  0  0  0  0  0  0  0  0  0  0  0
   21.1243   14.4837   50.8453 C   0  0  0  0  0  0  0  0  0  0  0  0
   20.0681    7.3468   53.2117 C   0  0  0  0  0  0  0  0  0  0  0  0
   19.4696    6.0060   53.4031 C   0  0  0  0  0  0  0  0  0  0  0  0
   20.2267    4.8721   53.1715 C   0  0  0  0  0  0  0  0  0  0  0  0
   19.6757    3.6213   53.3468 C   0  0  0  0  0  0  0  0  0  0  0  0
   18.3586    3.4642   53.7568 C   0  0  0  0  0  0  0  0  0  0  0  0
   17.5946    4.5701   53.9906 C   0  0  0  0  0  0  0  0  0  0  0  0
   18.1643    5.8223   53.8093 C   0  0  0  0  0  0  0  0  0  0  0  0
 25 26  1  0  0  0
 26 27  2  0  0  0
 26 23  1  0  0  0
 23 22  1  0  0  0
 22 21  1  0  0  0
 21 20  1  0  0  0
 20 12  1  0  0  0
 12  8  1  0  0  0
  8  9  1  0  0  0
  9 10  2  0  0  0
  9  1  1  0  0  0
  1  2  1  0  0  0
  2  3  1  0  0  0
  3  4  1  0  0  0
  4  5  1  0  0  0
  5  6  1  0  0  0
  6  7  2  0  0  0
  6 31  1  0  0  0
 31 44  1  0  0  0
 44 45  1  0  0  0
 45 46  2  0  0  0
 46 47  1  0  0  0
 47 48  2  0  0  0
 48 49  1  0  0  0
 49 50  2  0  0  0
 31 32  1  0  0  0
 32 33  1  0  0  0
 33 34  2  0  0  0
 33 36  1  0  0  0
 36 37  1  0  0  0
 37 38  1  0  0  0
 38 39  2  0  0  0
 39 40  1  0  0  0
 40 41  2  0  0  0
 41 42  1  0  0  0
 42 43  2  0  0  0
 12 13  1  0  0  0
 13 14  2  0  0  0
 13 15  1  0  0  0
 15 16  2  0  0  0
 16 17  1  0  0  0
 17 18  2  0  0  0
 18 19  1  0  0  0
  5  1  1  0  0  0
 50 45  1  0  0  0
 43 38  1  0  0  0
 19 15  1  0  0  0
 25 28  1  0  0  0
 25 29  1  0  0  0
 27 30  1  0  0  0
 23 24  1  0  0  0
  8 11  1  0  0  0
 32 35  1  0  0  0
M  END
> <minimizedAffinity>
28.70544

> <CNNscore>
0.4911856949

> <CNNaffinity>
6.6631479263

> <CNN_VS>
3.2728428841

> <CNNaffinity_variance>
0.9444338679

$$$$
[H]N=C(N([H])[H])N([H])C([H])([H])C([H])([H])C([H])([H])[C@@]([H])(C(=O)c1nc([H])c([H])s1)N([H])C(=O)[C@@]1([H])N(C(=O)[C@]([H])(N([H])C(=O)OC([H])([H])c2c([H])c([H])c([H])c([H])c2[H])C([H])([H])c2c([H])c([H])c([H])c([H])c2[H])C([H])([H])C([H])([H])C1([H])[H]


 50 53  0  0  0  0  0  0  0  0999 V2000
   26.6072    8.2897   55.1652 C   0  0  0  0  0  0  0  0  0  0  0  0
   26.9440    8.8813   53.7950 C   0  0  0  0  0  0  0  0  0  0  0  0
   25.8056    8.2850   52.9649 C   0  0  0  0  0  0  0  0  0  0  0  0
   24.8124    7.6930   53.9604 C   0  0  0  0  0  0  0  0  0  0  0  0
   25.2021    8.4680   55.1725 N   0  0  0  0  0  0  0  0  0  0  0  0
   24.2324    9.1426   55.9217 C   0  0  0  0  0  0  0  0  0  0  0  0
   24.5769    9.8629   56.8780 O   0  0  0  0  0  0  0  0  0  0  0  0
   27.1515    8.7842   57.6072 N   0  0  0  0  0  0  0  0  0  0  0  0
   27.4396    8.7375   56.2488 C   0  0  0  0  0  0  0  0  0  0  0  0
   28.6227    9.1694   55.9381 O   0  0  0  0  0  0  0  0  0  0  0  0
   26.2487    8.4422   57.9740 H   0  0  0  0  0  0  0  0  0  0  0  0
   28.0779    9.3176   58.6578 C   0  0  0  0  0  0  0  0  0  0  0  0
   28.2833   10.7199   58.4814 C   0  0  0  0  0  0  0  0  0  0  0  0
   28.1394   11.0885   57.2180 O   0  0  0  0  0  0  0  0  0  0  0  0
   28.6109   11.8365   59.3382 C   0  0  0  0  0  0  0  0  0  0  0  0
   28.1910   13.0472   59.5322 N   0  0  0  0  0  0  0  0  0  0  0  0
   28.7071   13.8465   60.3967 C   0  0  0  0  0  0  0  0  0  0  0  0
   29.7557   13.3750   61.1429 C   0  0  0  0  0  0  0  0  0  0  0  0
   29.9056   11.7933   60.5199 S   0  0  0  0  0  0  0  0  0  0  0  0
   29.1197    8.3197   58.8849 C   0  0  0  0  0  0  0  0  0  0  0  0
   29.8248    8.1625   60.1581 C   0  0  0  0  0  0  0  0  0  0  0  0
   29.5898    6.7882   60.8028 C   0  0  0  0  0  0  0  0  0  0  0  0
   28.3730    6.1988   60.3400 N   0  0  0  0  0  0  0  0  0  0  0  0
   27.7305    6.7585   59.7458 H   0  0  0  0  0  0  0  0  0  0  0  0
   26.6801    4.4148   60.4566 N   0  0  0  0  0  0  0  0  0  0  0  0
   28.0042    4.8706   60.6609 C   0  0  0  0  0  0  0  0  0  0  0  0
   28.8837    4.0727   61.1437 N   0  0  0  0  0  0  0  0  0  0  0  0
   26.4691    3.7032   59.7172 H   0  0  0  0  0  0  0  0  0  0  0  0
   25.8588    4.7441   61.0062 H   0  0  0  0  0  0  0  0  0  0  0  0
   29.8725    4.3021   61.3313 H   0  0  0  0  0  0  0  0  0  0  0  0
   22.7726    9.0719   55.6616 C   0  0  0  0  0  0  0  0  0  0  0  0
   22.4798    8.1247   54.5888 N   0  0  0  0  0  0  0  0  0  0  0  0
   22.1317    6.7736   54.9137 C   0  0  0  0  0  0  0  0  0  0  0  0
   22.0826    6.4638   56.1532 O   0  0  0  0  0  0  0  0  0  0  0  0
   22.5141    8.3917   53.5986 H   0  0  0  0  0  0  0  0  0  0  0  0
   21.8486    5.7892   54.0080 O   0  0  0  0  0  0  0  0  0  0  0  0
   20.8420    5.8819   53.0379 C   0  0  0  0  0  0  0  0  0  0  0  0
   19.5625    5.2398   53.4137 C   0  0  0  0  0  0  0  0  0  0  0  0
   18.4076    5.9808   53.6395 C   0  0  0  0  0  0  0  0  0  0  0  0
   17.2042    5.3728   53.9860 C   0  0  0  0  0  0  0  0  0  0  0  0
   17.1199    3.9972   54.1178 C   0  0  0  0  0  0  0  0  0  0  0  0
   18.2527    3.2602   53.8968 C   0  0  0  0  0  0  0  0  0  0  0  0
   19.4435    3.8763   53.5528 C   0  0  0  0  0  0  0  0  0  0  0  0
   22.3775   10.4372   55.1358 C   0  0  0  0  0  0  0  0  0  0  0  0
   21.8996   10.3912   53.7350 C   0  0  0  0  0  0  0  0  0  0  0  0
   21.8444   11.5522   52.9855 C   0  0  0  0  0  0  0  0  0  0  0  0
   21.3999   11.5167   51.6817 C   0  0  0  0  0  0  0  0  0  0  0  0
   20.9989   10.3273   51.0884 C   0  0  0  0  0  0  0  0  0  0  0  0
   21.0456    9.1707   51.8105 C   0  0  0  0  0  0  0  0  0  0  0  0
   21.4955    9.2235   53.1222 C   0  0  0  0  0  0  0  0  0  0  0  0
 25 26  1  0  0  0
 26 27  2  0  0  0
 26 23  1  0  0  0
 23 22  1  0  0  0
 22 21  1  0  0  0
 21 20  1  0  0  0
 20 12  1  0  0  0
 12  8  1  0  0  0
  8  9  1  0  0  0
  9 10  2  0  0  0
  9  1  1  0  0  0
  1  2  1  0  0  0
  2  3  1  0  0  0
  3  4  1  0  0  0
  4  5  1  0  0  0
  5  6  1  0  0  0
  6  7  2  0  0  0
  6 31  1  0  0  0
 31 44  1  0  0  0
 44 45  1  0  0  0
 45 46  2  0  0  0
 46 47  1  0  0  0
 47 48  2  0  0  0
 48 49  1  0  0  0
 49 50  2  0  0  0
 31 32  1  0  0  0
 32 33  1  0  0  0
 33 34  2  0  0  0
 33 36  1  0  0  0
 36 37  1  0  0  0
 37 38  1  0  0  0
 38 39  2  0  0  0
 39 40  1  0  0  0
 40 41  2  0  0  0
 41 42  1  0  0  0
 42 43  2  0  0  0
 12 13  1  0  0  0
 13 14  2  0  0  0
 13 15  1  0  0  0
 15 16  2  0  0  0
 16 17  1  0  0  0
 17 18  2  0  0  0
 18 19  1  0  0  0
  5  1  1  0  0  0
 50 45  1  0  0  0
 43 38  1  0  0  0
 19 15  1  0  0  0
 25 28  1  0  0  0
 25 29  1  0  0  0
 27 30  1  0  0  0
 23 24  1  0  0  0
  8 11  1  0  0  0
 32 35  1  0  0  0
M  END
> <minimizedAffinity>
13.94088

> <CNNscore>
0.4910898805

> <CNNaffinity>
7.0284013748

> <CNN_VS>
3.4515767097

> <CNNaffinity_variance>
0.1575148553

$$$$
[H]N=C(N([H])[H])N([H])C([H])([H])C([H])([H])C([H])([H])[C@@]([H])(C(=O)c1nc([H])c([H])s1)N([H])C(=O)[C@@]1([H])N(C(=O)[C@]([H])(N([H])C(=O)OC([H])([H])c2c([H])c([H])c([H])c([H])c2[H])C([H])([H])c2c([H])c([H])c([H])c([H])c2[H])C([H])([H])C([H])([H])C1([H])[H]


 50 53  0  0  0  0  0  0  0  0999 V2000
   28.1184    9.0200   52.9000 C   0  0  0  0  0  0  0  0  0  0  0  0
   28.9658    7.7780   53.1827 C   0  0  0  0  0  0  0  0  0  0  0  0
   28.9012    7.7588   54.7112 C   0  0  0  0  0  0  0  0  0  0  0  0
   27.8240    8.7639   55.1082 C   0  0  0  0  0  0  0  0  0  0  0  0
   27.0660    8.8170   53.8260 N   0  0  0  0  0  0  0  0  0  0  0  0
   25.6789    8.6369   53.8172 C   0  0  0  0  0  0  0  0  0  0  0  0
   25.0658    8.5903   52.7337 O   0  0  0  0  0  0  0  0  0  0  0  0
   28.6883    9.9337   50.5881 N   0  0  0  0  0  0  0  0  0  0  0  0
   27.8708    9.2910   51.5096 C   0  0  0  0  0  0  0  0  0  0  0  0
   26.7309    8.8984   51.0308 O   0  0  0  0  0  0  0  0  0  0  0  0
   29.6299   10.2670   50.8502 H   0  0  0  0  0  0  0  0  0  0  0  0
   28.3140   10.2108   49.1634 C   0  0  0  0  0  0  0  0  0  0  0  0
   28.7305    9.1386   48.3169 C   0  0  0  0  0  0  0  0  0  0  0  0
   29.5638    8.3141   48.9322 O   0  0  0  0  0  0  0  0  0  0  0  0
   28.4702    8.7303   46.9554 C   0  0  0  0  0  0  0  0  0  0  0  0
   29.1300    8.1981   45.9749 N   0  0  0  0  0  0  0  0  0  0  0  0
   28.6123    7.9488   44.8249 C   0  0  0  0  0  0  0  0  0  0  0  0
   27.2918    8.2699   44.6458 C   0  0  0  0  0  0  0  0  0  0  0  0
   26.9086    8.9134   46.1791 S   0  0  0  0  0  0  0  0  0  0  0  0
   28.5266   11.6339   48.9132 C   0  0  0  0  0  0  0  0  0  0  0  0
   28.6337   12.2117   47.5725 C   0  0  0  0  0  0  0  0  0  0  0  0
   27.7560   13.4591   47.3903 C   0  0  0  0  0  0  0  0  0  0  0  0
   26.6395   13.4432   48.2821 N   0  0  0  0  0  0  0  0  0  0  0  0
   26.4907   12.6187   48.8961 H   0  0  0  0  0  0  0  0  0  0  0  0
   26.1591   15.8580   48.2769 N   0  0  0  0  0  0  0  0  0  0  0  0
   25.7195   14.5156   48.3638 C   0  0  0  0  0  0  0  0  0  0  0  0
   24.4723   14.2641   48.5193 N   0  0  0  0  0  0  0  0  0  0  0  0
   25.9166   16.4459   47.4444 H   0  0  0  0  0  0  0  0  0  0  0  0
   26.7315   16.3324   49.0066 H   0  0  0  0  0  0  0  0  0  0  0  0
   24.0476   13.3262   48.5940 H   0  0  0  0  0  0  0  0  0  0  0  0
   24.8450    8.4880   55.0362 C   0  0  0  0  0  0  0  0  0  0  0  0
   25.6734    8.1847   56.2004 N   0  0  0  0  0  0  0  0  0  0  0  0
   26.1275    9.2510   57.0425 C   0  0  0  0  0  0  0  0  0  0  0  0
   25.7660   10.4371   56.7312 O   0  0  0  0  0  0  0  0  0  0  0  0
   25.9471    7.2258   56.4425 H   0  0  0  0  0  0  0  0  0  0  0  0
   26.9155    9.1043   58.1503 O   0  0  0  0  0  0  0  0  0  0  0  0
   28.2960    9.3423   58.1679 C   0  0  0  0  0  0  0  0  0  0  0  0
   28.7342   10.3572   59.1522 C   0  0  0  0  0  0  0  0  0  0  0  0
   28.3307   11.6853   59.0666 C   0  0  0  0  0  0  0  0  0  0  0  0
   28.7393   12.6356   59.9982 C   0  0  0  0  0  0  0  0  0  0  0  0
   29.5686   12.2835   61.0493 C   0  0  0  0  0  0  0  0  0  0  0  0
   29.9702   10.9774   61.1410 C   0  0  0  0  0  0  0  0  0  0  0  0
   29.5572   10.0416   60.2084 C   0  0  0  0  0  0  0  0  0  0  0  0
   23.9832    7.2634   54.8034 C   0  0  0  0  0  0  0  0  0  0  0  0
   22.6842    7.5929   54.1734 C   0  0  0  0  0  0  0  0  0  0  0  0
   21.5803    7.8565   54.9637 C   0  0  0  0  0  0  0  0  0  0  0  0
   20.3684    8.1629   54.3841 C   0  0  0  0  0  0  0  0  0  0  0  0
   20.2214    8.2157   53.0045 C   0  0  0  0  0  0  0  0  0  0  0  0
   21.2981    7.9589   52.2069 C   0  0  0  0  0  0  0  0  0  0  0  0
   22.5113    7.6518   52.8063 C   0  0  0  0  0  0  0  0  0  0  0  0
 25 26  1  0  0  0
 26 27  2  0  0  0
 26 23  1  0  0  0
 23 22  1  0  0  0
 22 21  1  0  0  0
 21 20  1  0  0  0
 20 12  1  0  0  0
 12  8  1  0  0  0
  8  9  1  0  0  0
  9 10  2  0  0  0
  9  1  1  0  0  0
  1  2  1  0  0  0
  2  3  1  0  0  0
  3  4  1  0  0  0
  4  5  1  0  0  0
  5  6  1  0  0  0
  6  7  2  0  0  0
  6 31  1  0  0  0
 31 44  1  0  0  0
 44 45  1  0  0  0
 45 46  2  0  0  0
 46 47  1  0  0  0
 47 48  2  0  0  0
 48 49  1  0  0  0
 49 50  2  0  0  0
 31 32  1  0  0  0
 32 33  1  0  0  0
 33 34  2  0  0  0
 33 36  1  0  0  0
 36 37  1  0  0  0
 37 38  1  0  0  0
 38 39  2  0  0  0
 39 40  1  0  0  0
 40 41  2  0  0  0
 41 42  1  0  0  0
 42 43  2  0  0  0
 12 13  1  0  0  0
 13 14  2  0  0  0
 13 15  1  0  0  0
 15 16  2  0  0  0
 16 17  1  0  0  0
 17 18  2  0  0  0
 18 19  1  0  0  0
  5  1  1  0  0  0
 50 45  1  0  0  0
 43 38  1  0  0  0
 19 15  1  0  0  0
 25 28  1  0  0  0
 25 29  1  0  0  0
 27 30  1  0  0  0
 23 24  1  0  0  0
  8 11  1  0  0  0
 32 35  1  0  0  0
M  END
> <minimizedAffinity>
27.14202

> <CNNscore>
0.4829710722

> <CNNaffinity>
6.5855340958

> <CNN_VS>
3.1806225777

> <CNNaffinity_variance>
0.6966849566

$$$$
[H]N=C(N([H])[H])N([H])C([H])([H])C([H])([H])C([H])([H])[C@@]([H])(C(=O)c1nc([H])c([H])s1)N([H])C(=O)[C@@]1([H])N(C(=O)[C@]([H])(N([H])C(=O)OC([H])([H])c2c([H])c([H])c([H])c([H])c2[H])C([H])([H])c2c([H])c([H])c([H])c([H])c2[H])C([H])([H])C([H])([H])C1([H])[H]


 50 53  0  0  0  0  0  0  0  0999 V2000
   23.3251    9.4560   55.0827 C   0  0  0  0  0  0  0  0  0  0  0  0
   22.5714    9.4348   56.4139 C   0  0  0  0  0  0  0  0  0  0  0  0
   21.2097    9.9579   55.9526 C   0  0  0  0  0  0  0  0  0  0  0  0
   21.2345    9.9338   54.4272 C   0  0  0  0  0  0  0  0  0  0  0  0
   22.3248    8.9379   54.2242 N   0  0  0  0  0  0  0  0  0  0  0  0
   22.1305    7.8397   53.3799 C   0  0  0  0  0  0  0  0  0  0  0  0
   23.0116    6.9638   53.2879 O   0  0  0  0  0  0  0  0  0  0  0  0
   25.8257    9.5020   55.5820 N   0  0  0  0  0  0  0  0  0  0  0  0
   24.6555    8.9114   55.1216 C   0  0  0  0  0  0  0  0  0  0  0  0
   24.8090    7.7085   54.6608 O   0  0  0  0  0  0  0  0  0  0  0  0
   25.8201   10.4488   55.9944 H   0  0  0  0  0  0  0  0  0  0  0  0
   27.1803    8.8622   55.5336 C   0  0  0  0  0  0  0  0  0  0  0  0
   28.1282    9.6364   56.2696 C   0  0  0  0  0  0  0  0  0  0  0  0
   28.9292   10.3288   55.4748 O   0  0  0  0  0  0  0  0  0  0  0  0
   28.4320    9.8511   57.6660 C   0  0  0  0  0  0  0  0  0  0  0  0
   28.7231   10.8508   58.4377 N   0  0  0  0  0  0  0  0  0  0  0  0
   28.9637   10.7295   59.6947 C   0  0  0  0  0  0  0  0  0  0  0  0
   28.9042    9.4683   60.2283 C   0  0  0  0  0  0  0  0  0  0  0  0
   28.4992    8.5548   58.8449 S   0  0  0  0  0  0  0  0  0  0  0  0
   27.3723    8.3209   54.1908 C   0  0  0  0  0  0  0  0  0  0  0  0
   28.1303    9.0072   53.1433 C   0  0  0  0  0  0  0  0  0  0  0  0
   27.5361    8.7952   51.7427 C   0  0  0  0  0  0  0  0  0  0  0  0
   27.6234    9.9852   50.9562 N   0  0  0  0  0  0  0  0  0  0  0  0
   27.1799   10.8580   51.3032 H   0  0  0  0  0  0  0  0  0  0  0  0
   28.5777    8.8321   49.0012 N   0  0  0  0  0  0  0  0  0  0  0  0
   28.2965   10.0233   49.7117 C   0  0  0  0  0  0  0  0  0  0  0  0
   28.6555   11.1535   49.2250 N   0  0  0  0  0  0  0  0  0  0  0  0
   28.0888    8.6212   48.0990 H   0  0  0  0  0  0  0  0  0  0  0  0
   29.2628    8.1133   49.3161 H   0  0  0  0  0  0  0  0  0  0  0  0
   28.5005   12.0772   49.6589 H   0  0  0  0  0  0  0  0  0  0  0  0
   20.9156    7.6205   52.5554 C   0  0  0  0  0  0  0  0  0  0  0  0
   20.4620    8.8715   51.9531 N   0  0  0  0  0  0  0  0  0  0  0  0
   21.4206    9.8786   51.6077 C   0  0  0  0  0  0  0  0  0  0  0  0
   22.6510    9.6192   51.8386 O   0  0  0  0  0  0  0  0  0  0  0  0
   19.4712    9.0607   51.7651 H   0  0  0  0  0  0  0  0  0  0  0  0
   21.1277   11.0933   51.0525 O   0  0  0  0  0  0  0  0  0  0  0  0
   21.9272   12.2347   51.1966 C   0  0  0  0  0  0  0  0  0  0  0  0
   21.1812   13.4749   51.5070 C   0  0  0  0  0  0  0  0  0  0  0  0
   21.2188   14.5837   50.6685 C   0  0  0  0  0  0  0  0  0  0  0  0
   20.5103   15.7460   50.9602 C   0  0  0  0  0  0  0  0  0  0  0  0
   19.7387   15.8341   52.1063 C   0  0  0  0  0  0  0  0  0  0  0  0
   19.6962   14.7464   52.9373 C   0  0  0  0  0  0  0  0  0  0  0  0
   20.4051   13.5962   52.6363 C   0  0  0  0  0  0  0  0  0  0  0  0
   19.8269    7.2011   53.5226 C   0  0  0  0  0  0  0  0  0  0  0  0
   19.5621    5.7447   53.4848 C   0  0  0  0  0  0  0  0  0  0  0  0
   18.3272    5.2568   53.8718 C   0  0  0  0  0  0  0  0  0  0  0  0
   18.0744    3.9027   53.8399 C   0  0  0  0  0  0  0  0  0  0  0  0
   19.0412    2.9979   53.4226 C   0  0  0  0  0  0  0  0  0  0  0  0
   20.2660    3.4587   53.0366 C   0  0  0  0  0  0  0  0  0  0  0  0
   20.5047    4.8250   53.0748 C   0  0  0  0  0  0  0  0  0  0  0  0
 25 26  1  0  0  0
 26 27  2  0  0  0
 26 23  1  0  0  0
 23 22  1  0  0  0
 22 21  1  0  0  0
 21 20  1  0  0  0
 20 12  1  0  0  0
 12  8  1  0  0  0
  8  9  1  0  0  0
  9 10  2  0  0  0
  9  1  1  0  0  0
  1  2  1  0  0  0
  2  3  1  0  0  0
  3  4  1  0  0  0
  4  5  1  0  0  0
  5  6  1  0  0  0
  6  7  2  0  0  0
  6 31  1  0  0  0
 31 44  1  0  0  0
 44 45  1  0  0  0
 45 46  2  0  0  0
 46 47  1  0  0  0
 47 48  2  0  0  0
 48 49  1  0  0  0
 49 50  2  0  0  0
 31 32  1  0  0  0
 32 33  1  0  0  0
 33 34  2  0  0  0
 33 36  1  0  0  0
 36 37  1  0  0  0
 37 38  1  0  0  0
 38 39  2  0  0  0
 39 40  1  0  0  0
 40 41  2  0  0  0
 41 42  1  0  0  0
 42 43  2  0  0  0
 12 13  1  0  0  0
 13 14  2  0  0  0
 13 15  1  0  0  0
 15 16  2  0  0  0
 16 17  1  0  0  0
 17 18  2  0  0  0
 18 19  1  0  0  0
  5  1  1  0  0  0
 50 45  1  0  0  0
 43 38  1  0  0  0
 19 15  1  0  0  0
 25 28  1  0  0  0
 25 29  1  0  0  0
 27 30  1  0  0  0
 23 24  1  0  0  0
  8 11  1  0  0  0
 32 35  1  0  0  0
M  END
> <minimizedAffinity>
24.76587

> <CNNscore>
0.4686029255

> <CNNaffinity>
6.8124952316

> <CNN_VS>
3.1923551559

> <CNNaffinity_variance>
0.5480874181

$$$$
[H]N=C(N([H])[H])N([H])C([H])([H])C([H])([H])C([H])([H])[C@@]([H])(C(=O)c1nc([H])c([H])s1)N([H])C(=O)[C@@]1([H])N(C(=O)[C@]([H])(N([H])C(=O)OC([H])([H])c2c([H])c([H])c([H])c([H])c2[H])C([H])([H])c2c([H])c([H])c([H])c([H])c2[H])C([H])([H])C([H])([H])C1([H])[H]


 50 53  0  0  0  0  0  0  0  0999 V2000
   26.6291    8.3798   55.2185 C   0  0  0  0  0  0  0  0  0  0  0  0
   26.7919    8.4382   53.6984 C   0  0  0  0  0  0  0  0  0  0  0  0
   25.6261    7.5423   53.2752 C   0  0  0  0  0  0  0  0  0  0  0  0
   24.7763    7.3248   54.5237 C   0  0  0  0  0  0  0  0  0  0  0  0
   25.2217    8.5026   55.3211 N   0  0  0  0  0  0  0  0  0  0  0  0
   24.2811    9.3731   55.8814 C   0  0  0  0  0  0  0  0  0  0  0  0
   24.6615   10.4048   56.4670 O   0  0  0  0  0  0  0  0  0  0  0  0
   27.5070    9.5285   57.3195 N   0  0  0  0  0  0  0  0  0  0  0  0
   27.5256    9.2207   55.9648 C   0  0  0  0  0  0  0  0  0  0  0  0
   28.4857    9.7869   55.3011 O   0  0  0  0  0  0  0  0  0  0  0  0
   26.8027    9.1151   57.9517 H   0  0  0  0  0  0  0  0  0  0  0  0
   28.4658   10.4613   57.9956 C   0  0  0  0  0  0  0  0  0  0  0  0
   28.9971    9.8645   59.1792 C   0  0  0  0  0  0  0  0  0  0  0  0
   29.4984   10.7663   60.0089 O   0  0  0  0  0  0  0  0  0  0  0  0
   29.1256    8.5212   59.6963 C   0  0  0  0  0  0  0  0  0  0  0  0
   28.6438    7.3467   59.4349 N   0  0  0  0  0  0  0  0  0  0  0  0
   28.9482    6.2911   60.1024 C   0  0  0  0  0  0  0  0  0  0  0  0
   29.8304    6.4357   61.1414 C   0  0  0  0  0  0  0  0  0  0  0  0
   30.1476    8.1105   61.0607 S   0  0  0  0  0  0  0  0  0  0  0  0
   27.9280   11.8146   57.8840 C   0  0  0  0  0  0  0  0  0  0  0  0
   28.4080   12.9436   58.6826 C   0  0  0  0  0  0  0  0  0  0  0  0
   27.9639   12.8654   60.1510 C   0  0  0  0  0  0  0  0  0  0  0  0
   28.3427   14.0402   60.8712 N   0  0  0  0  0  0  0  0  0  0  0  0
   27.6624   14.4797   61.5215 H   0  0  0  0  0  0  0  0  0  0  0  0
   29.7606   15.9375   60.1988 N   0  0  0  0  0  0  0  0  0  0  0  0
   29.6198   14.6347   60.7333 C   0  0  0  0  0  0  0  0  0  0  0  0
   30.6606   13.9814   61.0979 N   0  0  0  0  0  0  0  0  0  0  0  0
   30.0712   16.7326   60.8061 H   0  0  0  0  0  0  0  0  0  0  0  0
   29.5717   16.1831   59.2042 H   0  0  0  0  0  0  0  0  0  0  0  0
   30.6698   13.0299   61.4982 H   0  0  0  0  0  0  0  0  0  0  0  0
   22.8121    9.1645   55.8327 C   0  0  0  0  0  0  0  0  0  0  0  0
   22.4623    8.1520   54.8396 N   0  0  0  0  0  0  0  0  0  0  0  0
   22.0762    6.8417   55.2712 C   0  0  0  0  0  0  0  0  0  0  0  0
   22.0456    6.6259   56.5310 O   0  0  0  0  0  0  0  0  0  0  0  0
   22.4826    8.3440   53.8318 H   0  0  0  0  0  0  0  0  0  0  0  0
   21.7387    5.8040   54.4472 O   0  0  0  0  0  0  0  0  0  0  0  0
   20.8243    5.9069   53.3908 C   0  0  0  0  0  0  0  0  0  0  0  0
   19.7054    4.9396   53.4473 C   0  0  0  0  0  0  0  0  0  0  0  0
   19.8042    3.6692   52.8903 C   0  0  0  0  0  0  0  0  0  0  0  0
   18.7522    2.7596   52.9515 C   0  0  0  0  0  0  0  0  0  0  0  0
   17.5630    3.0959   53.5755 C   0  0  0  0  0  0  0  0  0  0  0  0
   17.4577    4.3450   54.1269 C   0  0  0  0  0  0  0  0  0  0  0  0
   18.5108    5.2407   54.0595 C   0  0  0  0  0  0  0  0  0  0  0  0
   22.2237   10.4672   55.3294 C   0  0  0  0  0  0  0  0  0  0  0  0
   21.8443   10.4056   53.8994 C   0  0  0  0  0  0  0  0  0  0  0  0
   21.4891    9.1961   53.3305 C   0  0  0  0  0  0  0  0  0  0  0  0
   21.1359    9.1314   52.0002 C   0  0  0  0  0  0  0  0  0  0  0  0
   21.1260   10.2663   51.2004 C   0  0  0  0  0  0  0  0  0  0  0  0
   21.4731   11.4693   51.7423 C   0  0  0  0  0  0  0  0  0  0  0  0
   21.8265   11.5174   53.0833 C   0  0  0  0  0  0  0  0  0  0  0  0
 25 26  1  0  0  0
 26 27  2  0  0  0
 26 23  1  0  0  0
 23 22  1  0  0  0
 22 21  1  0  0  0
 21 20  1  0  0  0
 20 12  1  0  0  0
 12  8  1  0  0  0
  8  9  1  0  0  0
  9 10  2  0  0  0
  9  1  1  0  0  0
  1  2  1  0  0  0
  2  3  1  0  0  0
  3  4  1  0  0  0
  4  5  1  0  0  0
  5  6  1  0  0  0
  6  7  2  0  0  0
  6 31  1  0  0  0
 31 44  1  0  0  0
 44 45  1  0  0  0
 45 46  2  0  0  0
 46 47  1  0  0  0
 47 48  2  0  0  0
 48 49  1  0  0  0
 49 50  2  0  0  0
 31 32  1  0  0  0
 32 33  1  0  0  0
 33 34  2  0  0  0
 33 36  1  0  0  0
 36 37  1  0  0  0
 37 38  1  0  0  0
 38 39  2  0  0  0
 39 40  1  0  0  0
 40 41  2  0  0  0
 41 42  1  0  0  0
 42 43  2  0  0  0
 12 13  1  0  0  0
 13 14  2  0  0  0
 13 15  1  0  0  0
 15 16  2  0  0  0
 16 17  1  0  0  0
 17 18  2  0  0  0
 18 19  1  0  0  0
  5  1  1  0  0  0
 50 45  1  0  0  0
 43 38  1  0  0  0
 19 15  1  0  0  0
 25 28  1  0  0  0
 25 29  1  0  0  0
 27 30  1  0  0  0
 23 24  1  0  0  0
  8 11  1  0  0  0
 32 35  1  0  0  0
M  END
> <minimizedAffinity>
13.97004

> <CNNscore>
0.4429565966

> <CNNaffinity>
6.9863648415

> <CNN_VS>
3.0946564674

> <CNNaffinity_variance>
0.2143952399

$$$$
[H]N=C(N([H])[H])N([H])C([H])([H])C([H])([H])C([H])([H])[C@@]([H])(C(=O)c1nc([H])c([H])s1)N([H])C(=O)[C@@]1([H])N(C(=O)[C@]([H])(N([H])C(=O)OC([H])([H])c2c([H])c([H])c([H])c([H])c2[H])C([H])([H])c2c([H])c([H])c([H])c([H])c2[H])C([H])([H])C([H])([H])C1([H])[H]


 50 53  0  0  0  0  0  0  0  0999 V2000
   28.0441    9.1584   53.0868 C   0  0  0  0  0  0  0  0  0  0  0  0
   29.1484    8.1593   53.4375 C   0  0  0  0  0  0  0  0  0  0  0  0
   28.9749    8.0990   54.9563 C   0  0  0  0  0  0  0  0  0  0  0  0
   27.6558    8.8004   55.2662 C   0  0  0  0  0  0  0  0  0  0  0  0
   27.0076    8.6865   53.9289 N   0  0  0  0  0  0  0  0  0  0  0  0
   25.7129    8.1699   53.8130 C   0  0  0  0  0  0  0  0  0  0  0  0
   25.2142    7.9917   52.6852 O   0  0  0  0  0  0  0  0  0  0  0  0
   28.6277   10.1103   50.7939 N   0  0  0  0  0  0  0  0  0  0  0  0
   27.8433    9.3833   51.6808 C   0  0  0  0  0  0  0  0  0  0  0  0
   26.7869    8.8514   51.1481 O   0  0  0  0  0  0  0  0  0  0  0  0
   29.5067   10.5573   51.1006 H   0  0  0  0  0  0  0  0  0  0  0  0
   28.3025   10.3257   49.3467 C   0  0  0  0  0  0  0  0  0  0  0  0
   28.6435    9.1714   48.5779 C   0  0  0  0  0  0  0  0  0  0  0  0
   29.2110    8.2312   49.3174 O   0  0  0  0  0  0  0  0  0  0  0  0
   28.5249    8.7745   47.1935 C   0  0  0  0  0  0  0  0  0  0  0  0
   27.8873    9.1713   46.1371 N   0  0  0  0  0  0  0  0  0  0  0  0
   27.9757    8.5880   44.9950 C   0  0  0  0  0  0  0  0  0  0  0  0
   28.7923    7.4904   44.9100 C   0  0  0  0  0  0  0  0  0  0  0  0
   29.3698    7.3969   46.5131 S   0  0  0  0  0  0  0  0  0  0  0  0
   28.6365   11.7078   49.0135 C   0  0  0  0  0  0  0  0  0  0  0  0
   27.9166   12.4941   48.0103 C   0  0  0  0  0  0  0  0  0  0  0  0
   26.7467   13.2914   48.6062 C   0  0  0  0  0  0  0  0  0  0  0  0
   26.3401   14.3473   47.7333 N   0  0  0  0  0  0  0  0  0  0  0  0
   26.6451   14.3325   46.7405 H   0  0  0  0  0  0  0  0  0  0  0  0
   25.6519   15.9361   49.4838 N   0  0  0  0  0  0  0  0  0  0  0  0
   25.5304   15.4227   48.1707 C   0  0  0  0  0  0  0  0  0  0  0  0
   24.6761   15.9355   47.3642 N   0  0  0  0  0  0  0  0  0  0  0  0
   26.0426   16.8942   49.6480 H   0  0  0  0  0  0  0  0  0  0  0  0
   25.3720   15.4155   50.3416 H   0  0  0  0  0  0  0  0  0  0  0  0
   24.5074   15.6382   46.3902 H   0  0  0  0  0  0  0  0  0  0  0  0
   24.8517    7.7994   54.9640 C   0  0  0  0  0  0  0  0  0  0  0  0
   23.5877    7.2280   54.5063 N   0  0  0  0  0  0  0  0  0  0  0  0
   23.1742    5.9455   54.9927 C   0  0  0  0  0  0  0  0  0  0  0  0
   23.9440    5.3608   55.8294 O   0  0  0  0  0  0  0  0  0  0  0  0
   22.9761    7.7145   53.8415 H   0  0  0  0  0  0  0  0  0  0  0  0
   22.0252    5.2960   54.6352 O   0  0  0  0  0  0  0  0  0  0  0  0
   21.4836    5.3141   53.3433 C   0  0  0  0  0  0  0  0  0  0  0  0
   21.3252    6.6652   52.7600 C   0  0  0  0  0  0  0  0  0  0  0  0
   22.4208    7.4455   52.4070 C   0  0  0  0  0  0  0  0  0  0  0  0
   22.2680    8.7130   51.8520 C   0  0  0  0  0  0  0  0  0  0  0  0
   21.0069    9.2407   51.6326 C   0  0  0  0  0  0  0  0  0  0  0  0
   19.9227    8.4784   51.9772 C   0  0  0  0  0  0  0  0  0  0  0  0
   20.0876    7.2194   52.5282 C   0  0  0  0  0  0  0  0  0  0  0  0
   24.4984    9.1011   55.6548 C   0  0  0  0  0  0  0  0  0  0  0  0
   23.0950    9.5091   55.4169 C   0  0  0  0  0  0  0  0  0  0  0  0
   22.8190   10.7521   54.8769 C   0  0  0  0  0  0  0  0  0  0  0  0
   21.5153   11.1384   54.6537 C   0  0  0  0  0  0  0  0  0  0  0  0
   20.4519   10.3003   54.9608 C   0  0  0  0  0  0  0  0  0  0  0  0
   20.7026    9.0699   55.4942 C   0  0  0  0  0  0  0  0  0  0  0  0
   22.0209    8.6960   55.7130 C   0  0  0  0  0  0  0  0  0  0  0  0
 25 26  1  0  0  0
 26 27  2  0  0  0
 26 23  1  0  0  0
 23 22  1  0  0  0
 22 21  1  0  0  0
 21 20  1  0  0  0
 20 12  1  0  0  0
 12  8  1  0  0  0
  8  9  1  0  0  0
  9 10  2  0  0  0
  9  1  1  0  0  0
  1  2  1  0  0  0
  2  3  1  0  0  0
  3  4  1  0  0  0
  4  5  1  0  0  0
  5  6  1  0  0  0
  6  7  2  0  0  0
  6 31  1  0  0  0
 31 44  1  0  0  0
 44 45  1  0  0  0
 45 46  2  0  0  0
 46 47  1  0  0  0
 47 48  2  0  0  0
 48 49  1  0  0  0
 49 50  2  0  0  0
 31 32  1  0  0  0
 32 33  1  0  0  0
 33 34  2  0  0  0
 33 36  1  0  0  0
 36 37  1  0  0  0
 37 38  1  0  0  0
 38 39  2  0  0  0
 39 40  1  0  0  0
 40 41  2  0  0  0
 41 42  1  0  0  0
 42 43  2  0  0  0
 12 13  1  0  0  0
 13 14  2  0  0  0
 13 15  1  0  0  0
 15 16  2  0  0  0
 16 17  1  0  0  0
 17 18  2  0  0  0
 18 19  1  0  0  0
  5  1  1  0  0  0
 50 45  1  0  0  0
 43 38  1  0  0  0
 19 15  1  0  0  0
 25 28  1  0  0  0
 25 29  1  0  0  0
 27 30  1  0  0  0
 23 24  1  0  0  0
  8 11  1  0  0  0
 32 35  1  0  0  0
M  END
> <minimizedAffinity>
26.17896

> <CNNscore>
0.4420311749

> <CNNaffinity>
6.8897795677

> <CNN_VS>
3.0454974174

> <CNNaffinity_variance>
0.8389752507

$$$$
[H]c1nc(N([H])c2c([H])c([H])c(N3C([H])([H])C([H])([H])C([H])(N(C([H])([H])[H])C([H])([H])[H])C([H])([H])C3([H])[H])c([H])c2OC([H])([H])[H])nc(N([H])c2c([H])c([H])c([H])c([H])c2S(=O)(=O)C([H])(C([H])([H])[H])C([H])([H])[H])c1Cl


 40 43  0  0  0  0  0  0  0  0999 V2000
   24.9743    7.5836   53.6444 C   0  0  0  0  0  0  0  0  0  0  0  0
   24.6782    6.3219   53.9373 N   0  0  0  0  0  0  0  0  0  0  0  0
   23.4779    5.7768   53.7032 C   0  0  0  0  0  0  0  0  0  0  0  0
   22.4741    6.5139   53.1363 C   0  0  0  0  0  0  0  0  0  0  0  0
   20.8911    5.8507   52.7997 Cl  0  0  0  0  0  0  0  0  0  0  0  0
   22.7313    7.8638   52.8032 C   0  0  0  0  0  0  0  0  0  0  0  0
   23.9458    8.2834   53.0810 N   0  0  0  0  0  0  0  0  0  0  0  0
   26.2147    8.2438   53.8563 N   0  0  0  0  0  0  0  0  0  0  0  0
   26.8156    8.4326   52.9758 H   0  0  0  0  0  0  0  0  0  0  0  0
   28.1673    8.6179   55.2025 C   0  0  0  0  0  0  0  0  0  0  0  0
   28.7106    9.0435   56.3747 C   0  0  0  0  0  0  0  0  0  0  0  0
   27.9706    9.5302   57.4195 C   0  0  0  0  0  0  0  0  0  0  0  0
   26.6105    9.5832   57.2557 C   0  0  0  0  0  0  0  0  0  0  0  0
   25.9972    9.1630   56.0820 C   0  0  0  0  0  0  0  0  0  0  0  0
   26.7593    8.6802   55.0513 C   0  0  0  0  0  0  0  0  0  0  0  0
   28.5490    9.9804   58.6568 N   0  0  0  0  0  0  0  0  0  0  0  0
   28.9523    8.9427   59.5740 C   0  0  0  0  0  0  0  0  0  0  0  0
   29.7131    9.3954   60.7661 C   0  0  0  0  0  0  0  0  0  0  0  0
   30.2710   10.7771   60.6167 C   0  0  0  0  0  0  0  0  0  0  0  0
   29.1301   11.7192   60.2923 C   0  0  0  0  0  0  0  0  0  0  0  0
   28.6826   11.3805   58.8932 C   0  0  0  0  0  0  0  0  0  0  0  0
   30.9981   11.1698   61.7992 N   0  0  0  0  0  0  0  0  0  0  0  0
   31.8675   10.1406   62.2848 C   0  0  0  0  0  0  0  0  0  0  0  0
   31.6577   12.4465   61.6550 C   0  0  0  0  0  0  0  0  0  0  0  0
   28.7813    6.8003   53.7444 C   0  0  0  0  0  0  0  0  0  0  0  0
   28.9245    8.1292   54.1559 O   0  0  0  0  0  0  0  0  0  0  0  0
   21.6935    8.6493   52.2554 N   0  0  0  0  0  0  0  0  0  0  0  0
   20.9042    8.1093   51.8454 H   0  0  0  0  0  0  0  0  0  0  0  0
   21.6608   10.0396   52.1947 C   0  0  0  0  0  0  0  0  0  0  0  0
   21.6434   10.7578   50.9988 C   0  0  0  0  0  0  0  0  0  0  0  0
   21.4885   12.1357   50.9722 C   0  0  0  0  0  0  0  0  0  0  0  0
   21.3448   12.8479   52.1298 C   0  0  0  0  0  0  0  0  0  0  0  0
   21.3628   12.1440   53.3028 C   0  0  0  0  0  0  0  0  0  0  0  0
   21.5183   10.7538   53.3854 C   0  0  0  0  0  0  0  0  0  0  0  0
   21.6380   10.0581   54.9447 S   0  0  0  0  0  0  0  0  0  0  0  0
   23.1102   10.1876   55.4002 O   0  0  0  0  0  0  0  0  0  0  0  0
   20.8929   10.7967   56.0295 O   0  0  0  0  0  0  0  0  0  0  0  0
   21.2976    8.3310   55.0461 C   0  0  0  0  0  0  0  0  0  0  0  0
   21.8602    7.7467   56.3456 C   0  0  0  0  0  0  0  0  0  0  0  0
   19.8778    7.9472   54.9786 C   0  0  0  0  0  0  0  0  0  0  0  0
 25 26  1  0  0  0
 26 10  1  0  0  0
 10 11  2  0  0  0
 11 12  1  0  0  0
 12 13  2  0  0  0
 13 14  1  0  0  0
 14 15  2  0  0  0
 15  8  1  0  0  0
  8  1  1  0  0  0
  1  2  2  0  0  0
  2  3  1  0  0  0
  3  4  2  0  0  0
  4  5  1  0  0  0
  4  6  1  0  0  0
  6 27  1  0  0  0
 27 29  1  0  0  0
 29 30  2  0  0  0
 30 31  1  0  0  0
 31 32  2  0  0  0
 32 33  1  0  0  0
 33 34  2  0  0  0
 34 35  1  0  0  0
 35 36  2  0  0  0
 35 37  2  0  0  0
 35 38  1  0  0  0
 38 39  1  0  0  0
 38 40  1  0  0  0
  6  7  2  0  0  0
 12 16  1  0  0  0
 16 17  1  0  0  0
 17 18  1  0  0  0
 18 19  1  0  0  0
 19 20  1  0  0  0
 20 21  1  0  0  0
 19 22  1  0  0  0
 22 23  1  0  0  0
 22 24  1  0  0  0
 15 10  1  0  0  0
  7  1  1  0  0  0
 21 16  1  0  0  0
 34 29  1  0  0  0
  8  9  1  0  0  0
 27 28  1  0  0  0
M  END
> <minimizedAffinity>
11.72983

> <CNNscore>
0.6791891456

> <CNNaffinity>
7.1920042038

> <CNN_VS>
4.8847312927

> <CNNaffinity_variance>
0.4300743639

$$$$
[H]c1nc(N([H])c2c([H])c([H])c(N3C([H])([H])C([H])([H])C([H])(N(C([H])([H])[H])C([H])([H])[H])C([H])([H])C3([H])[H])c([H])c2OC([H])([H])[H])nc(N([H])c2c([H])c([H])c([H])c([H])c2S(=O)(=O)C([H])(C([H])([H])[H])C([H])([H])[H])c1Cl


 40 43  0  0  0  0  0  0  0  0999 V2000
   25.0667    7.5502   53.4253 C   0  0  0  0  0  0  0  0  0  0  0  0
   24.7863    6.2760   53.6770 N   0  0  0  0  0  0  0  0  0  0  0  0
   23.5793    5.7356   53.4682 C   0  0  0  0  0  0  0  0  0  0  0  0
   22.5514    6.4909   52.9728 C   0  0  0  0  0  0  0  0  0  0  0  0
   20.9583    5.8349   52.6720 Cl  0  0  0  0  0  0  0  0  0  0  0  0
   22.7912    7.8546   52.6862 C   0  0  0  0  0  0  0  0  0  0  0  0
   24.0145    8.2680   52.9328 N   0  0  0  0  0  0  0  0  0  0  0  0
   26.3126    8.2068   53.6151 N   0  0  0  0  0  0  0  0  0  0  0  0
   26.8677    8.4534   52.7189 H   0  0  0  0  0  0  0  0  0  0  0  0
   26.0849    9.0649   55.8460 C   0  0  0  0  0  0  0  0  0  0  0  0
   26.6682    9.4303   57.0192 C   0  0  0  0  0  0  0  0  0  0  0  0
   28.0157    9.3506   57.2517 C   0  0  0  0  0  0  0  0  0  0  0  0
   28.8022    8.8743   56.2348 C   0  0  0  0  0  0  0  0  0  0  0  0
   28.2649    8.4856   55.0140 C   0  0  0  0  0  0  0  0  0  0  0  0
   26.9139    8.5748   54.8059 C   0  0  0  0  0  0  0  0  0  0  0  0
   28.6285    9.7368   58.4942 N   0  0  0  0  0  0  0  0  0  0  0  0
   29.0108    8.6541   59.3672 C   0  0  0  0  0  0  0  0  0  0  0  0
   29.8052    9.0382   60.5614 C   0  0  0  0  0  0  0  0  0  0  0  0
   30.4073   10.4049   60.4513 C   0  0  0  0  0  0  0  0  0  0  0  0
   29.2941   11.3956   60.1798 C   0  0  0  0  0  0  0  0  0  0  0  0
   28.8133   11.1223   58.7774 C   0  0  0  0  0  0  0  0  0  0  0  0
   31.1659   10.7306   61.6344 N   0  0  0  0  0  0  0  0  0  0  0  0
   31.9715    9.6403   62.0960 C   0  0  0  0  0  0  0  0  0  0  0  0
   31.9043   11.9653   61.5061 C   0  0  0  0  0  0  0  0  0  0  0  0
   24.0375   10.3341   55.9093 C   0  0  0  0  0  0  0  0  0  0  0  0
   24.7243    9.1499   55.6237 O   0  0  0  0  0  0  0  0  0  0  0  0
   21.7300    8.6573   52.2131 N   0  0  0  0  0  0  0  0  0  0  0  0
   20.9398    8.1326   51.7854 H   0  0  0  0  0  0  0  0  0  0  0  0
   21.6755   10.0479   52.2443 C   0  0  0  0  0  0  0  0  0  0  0  0
   21.8222   10.8497   51.1121 C   0  0  0  0  0  0  0  0  0  0  0  0
   21.6421   12.2241   51.1575 C   0  0  0  0  0  0  0  0  0  0  0  0
   21.3098   12.8497   52.3263 C   0  0  0  0  0  0  0  0  0  0  0  0
   21.1667   12.0638   53.4370 C   0  0  0  0  0  0  0  0  0  0  0  0
   21.3393   10.6731   53.4460 C   0  0  0  0  0  0  0  0  0  0  0  0
   21.2385    9.8690   54.9536 S   0  0  0  0  0  0  0  0  0  0  0  0
   22.5480   10.1581   55.7238 O   0  0  0  0  0  0  0  0  0  0  0  0
   20.1825   10.4033   55.8900 O   0  0  0  0  0  0  0  0  0  0  0  0
   21.1498    8.1093   54.8838 C   0  0  0  0  0  0  0  0  0  0  0  0
   21.6497    7.4926   56.1939 C   0  0  0  0  0  0  0  0  0  0  0  0
   19.8186    7.5395   54.6181 C   0  0  0  0  0  0  0  0  0  0  0  0
 25 26  1  0  0  0
 26 10  1  0  0  0
 10 11  2  0  0  0
 11 12  1  0  0  0
 12 13  2  0  0  0
 13 14  1  0  0  0
 14 15  2  0  0  0
 15  8  1  0  0  0
  8  1  1  0  0  0
  1  2  2  0  0  0
  2  3  1  0  0  0
  3  4  2  0  0  0
  4  5  1  0  0  0
  4  6  1  0  0  0
  6 27  1  0  0  0
 27 29  1  0  0  0
 29 30  2  0  0  0
 30 31  1  0  0  0
 31 32  2  0  0  0
 32 33  1  0  0  0
 33 34  2  0  0  0
 34 35  1  0  0  0
 35 36  2  0  0  0
 35 37  2  0  0  0
 35 38  1  0  0  0
 38 39  1  0  0  0
 38 40  1  0  0  0
  6  7  2  0  0  0
 12 16  1  0  0  0
 16 17  1  0  0  0
 17 18  1  0  0  0
 18 19  1  0  0  0
 19 20  1  0  0  0
 20 21  1  0  0  0
 19 22  1  0  0  0
 22 23  1  0  0  0
 22 24  1  0  0  0
 15 10  1  0  0  0
  7  1  1  0  0  0
 21 16  1  0  0  0
 34 29  1  0  0  0
  8  9  1  0  0  0
 27 28  1  0  0  0
M  END
> <minimizedAffinity>
11.51266

> <CNNscore>
0.6645872593

> <CNNaffinity>
7.2227983475

> <CNN_VS>
4.8001799583

> <CNNaffinity_variance>
0.2973119915

$$$$
[H]c1nc(N([H])c2c([H])c([H])c(N3C([H])([H])C([H])([H])C([H])(N(C([H])([H])[H])C([H])([H])[H])C([H])([H])C3([H])[H])c([H])c2OC([H])([H])[H])nc(N([H])c2c([H])c([H])c([H])c([H])c2S(=O)(=O)C([H])(C([H])([H])[H])C([H])([H])[H])c1Cl


 40 43  0  0  0  0  0  0  0  0999 V2000
   24.7119    7.3645   53.4978 C   0  0  0  0  0  0  0  0  0  0  0  0
   24.2949    6.1587   53.8687 N   0  0  0  0  0  0  0  0  0  0  0  0
   23.0464    5.7198   53.6659 C   0  0  0  0  0  0  0  0  0  0  0  0
   22.1176    6.5143   53.0506 C   0  0  0  0  0  0  0  0  0  0  0  0
   20.4763    5.9889   52.7518 Cl  0  0  0  0  0  0  0  0  0  0  0  0
   22.5044    7.8088   52.6338 C   0  0  0  0  0  0  0  0  0  0  0  0
   23.7549    8.1245   52.8883 N   0  0  0  0  0  0  0  0  0  0  0  0
   26.0115    7.9124   53.6714 N   0  0  0  0  0  0  0  0  0  0  0  0
   26.6403    7.9473   52.7907 H   0  0  0  0  0  0  0  0  0  0  0  0
   27.9789    8.2416   55.0078 C   0  0  0  0  0  0  0  0  0  0  0  0
   28.5483    8.7275   56.1435 C   0  0  0  0  0  0  0  0  0  0  0  0
   27.8458    9.3731   57.1263 C   0  0  0  0  0  0  0  0  0  0  0  0
   26.4968    9.5280   56.9364 C   0  0  0  0  0  0  0  0  0  0  0  0
   25.8582    9.0535   55.7976 C   0  0  0  0  0  0  0  0  0  0  0  0
   26.5830    8.4110   54.8289 C   0  0  0  0  0  0  0  0  0  0  0  0
   28.4518    9.8865   58.3252 N   0  0  0  0  0  0  0  0  0  0  0  0
   28.4905   11.3238   58.4414 C   0  0  0  0  0  0  0  0  0  0  0  0
   28.9461   11.8528   59.7519 C   0  0  0  0  0  0  0  0  0  0  0  0
   28.9066   10.8292   60.8442 C   0  0  0  0  0  0  0  0  0  0  0  0
   29.7300    9.6349   60.4081 C   0  0  0  0  0  0  0  0  0  0  0  0
   28.9617    8.9719   59.2934 C   0  0  0  0  0  0  0  0  0  0  0  0
   29.3591   11.3910   62.0936 N   0  0  0  0  0  0  0  0  0  0  0  0
   30.7624   11.6767   62.0988 C   0  0  0  0  0  0  0  0  0  0  0  0
   28.5528   12.5057   62.5331 C   0  0  0  0  0  0  0  0  0  0  0  0
   30.0965    7.6184   54.0413 C   0  0  0  0  0  0  0  0  0  0  0  0
   28.6984    7.5923   54.0237 O   0  0  0  0  0  0  0  0  0  0  0  0
   21.5466    8.6559   52.0344 N   0  0  0  0  0  0  0  0  0  0  0  0
   20.8103    8.1665   51.4857 H   0  0  0  0  0  0  0  0  0  0  0  0
   21.5300   10.0466   52.0919 C   0  0  0  0  0  0  0  0  0  0  0  0
   21.7023   10.8654   50.9756 C   0  0  0  0  0  0  0  0  0  0  0  0
   21.5597   12.2430   51.0467 C   0  0  0  0  0  0  0  0  0  0  0  0
   21.2408   12.8553   52.2262 C   0  0  0  0  0  0  0  0  0  0  0  0
   21.0726   12.0527   53.3214 C   0  0  0  0  0  0  0  0  0  0  0  0
   21.2071   10.6579   53.3044 C   0  0  0  0  0  0  0  0  0  0  0  0
   21.0794    9.8284   54.7961 S   0  0  0  0  0  0  0  0  0  0  0  0
   20.6742   10.8637   55.8711 O   0  0  0  0  0  0  0  0  0  0  0  0
   19.9569    8.8223   54.8702 O   0  0  0  0  0  0  0  0  0  0  0  0
   22.5704    9.1167   55.4121 C   0  0  0  0  0  0  0  0  0  0  0  0
   23.3609   10.1446   56.2276 C   0  0  0  0  0  0  0  0  0  0  0  0
   22.4147    7.9214   56.2574 C   0  0  0  0  0  0  0  0  0  0  0  0
 25 26  1  0  0  0
 26 10  1  0  0  0
 10 11  2  0  0  0
 11 12  1  0  0  0
 12 13  2  0  0  0
 13 14  1  0  0  0
 14 15  2  0  0  0
 15  8  1  0  0  0
  8  1  1  0  0  0
  1  2  2  0  0  0
  2  3  1  0  0  0
  3  4  2  0  0  0
  4  5  1  0  0  0
  4  6  1  0  0  0
  6 27  1  0  0  0
 27 29  1  0  0  0
 29 30  2  0  0  0
 30 31  1  0  0  0
 31 32  2  0  0  0
 32 33  1  0  0  0
 33 34  2  0  0  0
 34 35  1  0  0  0
 35 36  2  0  0  0
 35 37  2  0  0  0
 35 38  1  0  0  0
 38 39  1  0  0  0
 38 40  1  0  0  0
  6  7  2  0  0  0
 12 16  1  0  0  0
 16 17  1  0  0  0
 17 18  1  0  0  0
 18 19  1  0  0  0
 19 20  1  0  0  0
 20 21  1  0  0  0
 19 22  1  0  0  0
 22 23  1  0  0  0
 22 24  1  0  0  0
 15 10  1  0  0  0
  7  1  1  0  0  0
 21 16  1  0  0  0
 34 29  1  0  0  0
  8  9  1  0  0  0
 27 28  1  0  0  0
M  END
> <minimizedAffinity>
14.08950

> <CNNscore>
0.6610145569

> <CNNaffinity>
7.1862969398

> <CNN_VS>
4.7502470016

> <CNNaffinity_variance>
0.5178084373

$$$$
[H]c1nc(N([H])c2c([H])c([H])c(N3C([H])([H])C([H])([H])C([H])(N(C([H])([H])[H])C([H])([H])[H])C([H])([H])C3([H])[H])c([H])c2OC([H])([H])[H])nc(N([H])c2c([H])c([H])c([H])c([H])c2S(=O)(=O)C([H])(C([H])([H])[H])C([H])([H])[H])c1Cl


 40 43  0  0  0  0  0  0  0  0999 V2000
   25.2944    7.4549   53.9982 C   0  0  0  0  0  0  0  0  0  0  0  0
   25.2802    6.2706   53.3961 N   0  0  0  0  0  0  0  0  0  0  0  0
   24.1733    5.5294   53.2615 C   0  0  0  0  0  0  0  0  0  0  0  0
   22.9737    5.9696   53.7509 C   0  0  0  0  0  0  0  0  0  0  0  0
   21.4956    5.0477   53.5947 Cl  0  0  0  0  0  0  0  0  0  0  0  0
   22.9279    7.2238   54.4021 C   0  0  0  0  0  0  0  0  0  0  0  0
   24.0781    7.8565   54.4718 N   0  0  0  0  0  0  0  0  0  0  0  0
   26.4161    8.3068   54.1864 N   0  0  0  0  0  0  0  0  0  0  0  0
   26.9101    8.6569   53.2888 H   0  0  0  0  0  0  0  0  0  0  0  0
   28.3769    8.7881   55.4857 C   0  0  0  0  0  0  0  0  0  0  0  0
   28.9238    9.2217   56.6533 C   0  0  0  0  0  0  0  0  0  0  0  0
   28.1829    9.6252   57.7324 C   0  0  0  0  0  0  0  0  0  0  0  0
   26.8181    9.5825   57.6094 C   0  0  0  0  0  0  0  0  0  0  0  0
   26.2011    9.1492   56.4425 C   0  0  0  0  0  0  0  0  0  0  0  0
   26.9641    8.7506   55.3770 C   0  0  0  0  0  0  0  0  0  0  0  0
   28.7649   10.0843   58.9648 N   0  0  0  0  0  0  0  0  0  0  0  0
   29.2600    9.0548   59.8455 C   0  0  0  0  0  0  0  0  0  0  0  0
   30.0226    9.5292   61.0279 C   0  0  0  0  0  0  0  0  0  0  0  0
   30.4852   10.9475   60.8978 C   0  0  0  0  0  0  0  0  0  0  0  0
   29.2769   11.8199   60.6265 C   0  0  0  0  0  0  0  0  0  0  0  0
   28.8138   11.4844   59.2317 C   0  0  0  0  0  0  0  0  0  0  0  0
   31.2178   11.3602   62.0701 N   0  0  0  0  0  0  0  0  0  0  0  0
   31.9994   10.3032   62.6380 C   0  0  0  0  0  0  0  0  0  0  0  0
   31.9728   12.5738   61.8624 C   0  0  0  0  0  0  0  0  0  0  0  0
   29.0644    7.0631   53.9500 C   0  0  0  0  0  0  0  0  0  0  0  0
   29.1351    8.3838   54.4043 O   0  0  0  0  0  0  0  0  0  0  0  0
   21.7059    7.6735   54.9487 N   0  0  0  0  0  0  0  0  0  0  0  0
   21.0850    6.9219   55.3126 H   0  0  0  0  0  0  0  0  0  0  0  0
   21.2692    8.9939   55.0071 C   0  0  0  0  0  0  0  0  0  0  0  0
   20.8751    9.6229   56.1884 C   0  0  0  0  0  0  0  0  0  0  0  0
   20.5614   10.9731   56.2318 C   0  0  0  0  0  0  0  0  0  0  0  0
   20.6286   11.7453   55.1062 C   0  0  0  0  0  0  0  0  0  0  0  0
   21.0142   11.1286   53.9474 C   0  0  0  0  0  0  0  0  0  0  0  0
   21.3394    9.7692   53.8486 C   0  0  0  0  0  0  0  0  0  0  0  0
   21.6834    9.1447   52.2926 S   0  0  0  0  0  0  0  0  0  0  0  0
   21.3799   10.2606   51.2657 O   0  0  0  0  0  0  0  0  0  0  0  0
   23.1404    8.8486   52.0340 O   0  0  0  0  0  0  0  0  0  0  0  0
   20.6887    7.7856   51.7706 C   0  0  0  0  0  0  0  0  0  0  0  0
   19.7090    7.3795   52.8760 C   0  0  0  0  0  0  0  0  0  0  0  0
   19.8970    7.9965   50.5474 C   0  0  0  0  0  0  0  0  0  0  0  0
 25 26  1  0  0  0
 26 10  1  0  0  0
 10 11  2  0  0  0
 11 12  1  0  0  0
 12 13  2  0  0  0
 13 14  1  0  0  0
 14 15  2  0  0  0
 15  8  1  0  0  0
  8  1  1  0  0  0
  1  2  2  0  0  0
  2  3  1  0  0  0
  3  4  2  0  0  0
  4  5  1  0  0  0
  4  6  1  0  0  0
  6 27  1  0  0  0
 27 29  1  0  0  0
 29 30  2  0  0  0
 30 31  1  0  0  0
 31 32  2  0  0  0
 32 33  1  0  0  0
 33 34  2  0  0  0
 34 35  1  0  0  0
 35 36  2  0  0  0
 35 37  2  0  0  0
 35 38  1  0  0  0
 38 39  1  0  0  0
 38 40  1  0  0  0
  6  7  2  0  0  0
 12 16  1  0  0  0
 16 17  1  0  0  0
 17 18  1  0  0  0
 18 19  1  0  0  0
 19 20  1  0  0  0
 20 21  1  0  0  0
 19 22  1  0  0  0
 22 23  1  0  0  0
 22 24  1  0  0  0
 15 10  1  0  0  0
  7  1  1  0  0  0
 21 16  1  0  0  0
 34 29  1  0  0  0
  8  9  1  0  0  0
 27 28  1  0  0  0
M  END
> <minimizedAffinity>
17.57517

> <CNNscore>
0.6450737715

> <CNNaffinity>
7.1820764542

> <CNN_VS>
4.6329693794

> <CNNaffinity_variance>
0.7054001689

$$$$
[H]c1nc(N([H])c2c([H])c([H])c(N3C([H])([H])C([H])([H])C([H])(N(C([H])([H])[H])C([H])([H])[H])C([H])([H])C3([H])[H])c([H])c2OC([H])([H])[H])nc(N([H])c2c([H])c([H])c([H])c([H])c2S(=O)(=O)C([H])(C([H])([H])[H])C([H])([H])[H])c1Cl


 40 43  0  0  0  0  0  0  0  0999 V2000
   24.2152    7.4623   52.7986 C   0  0  0  0  0  0  0  0  0  0  0  0
   23.3294    6.5262   52.4752 N   0  0  0  0  0  0  0  0  0  0  0  0
   22.0880    6.8039   52.0577 C   0  0  0  0  0  0  0  0  0  0  0  0
   21.6631    8.0994   51.9418 C   0  0  0  0  0  0  0  0  0  0  0  0
   20.0566    8.5198   51.3927 Cl  0  0  0  0  0  0  0  0  0  0  0  0
   22.5630    9.1387   52.2725 C   0  0  0  0  0  0  0  0  0  0  0  0
   23.7513    8.7402   52.6690 N   0  0  0  0  0  0  0  0  0  0  0  0
   25.5479    7.2615   53.2491 N   0  0  0  0  0  0  0  0  0  0  0  0
   26.1518    6.5723   52.6725 H   0  0  0  0  0  0  0  0  0  0  0  0
   25.3705    8.3318   55.3910 C   0  0  0  0  0  0  0  0  0  0  0  0
   25.9835    8.9000   56.4642 C   0  0  0  0  0  0  0  0  0  0  0  0
   27.3426    9.0202   56.5838 C   0  0  0  0  0  0  0  0  0  0  0  0
   28.1095    8.5358   55.5557 C   0  0  0  0  0  0  0  0  0  0  0  0
   27.5417    7.9451   54.4338 C   0  0  0  0  0  0  0  0  0  0  0  0
   26.1796    7.8366   54.3378 C   0  0  0  0  0  0  0  0  0  0  0  0
   27.9870    9.6204   57.7208 N   0  0  0  0  0  0  0  0  0  0  0  0
   28.5270    8.7011   58.6923 C   0  0  0  0  0  0  0  0  0  0  0  0
   29.3491    9.3096   59.7688 C   0  0  0  0  0  0  0  0  0  0  0  0
   29.8040   10.6993   59.4458 C   0  0  0  0  0  0  0  0  0  0  0  0
   28.5831   11.5399   59.1336 C   0  0  0  0  0  0  0  0  0  0  0  0
   28.0491   11.0422   57.8147 C   0  0  0  0  0  0  0  0  0  0  0  0
   30.5957   11.2454   60.5211 N   0  0  0  0  0  0  0  0  0  0  0  0
   31.2619   10.2367   61.2888 C   0  0  0  0  0  0  0  0  0  0  0  0
   31.4791   12.3025   60.0875 C   0  0  0  0  0  0  0  0  0  0  0  0
   23.3495    7.0697   55.7513 C   0  0  0  0  0  0  0  0  0  0  0  0
   23.9984    8.2163   55.2822 O   0  0  0  0  0  0  0  0  0  0  0  0
   22.1265   10.4796   52.1973 N   0  0  0  0  0  0  0  0  0  0  0  0
   22.4814   11.0112   51.3761 H   0  0  0  0  0  0  0  0  0  0  0  0
   21.3135   11.1314   53.1203 C   0  0  0  0  0  0  0  0  0  0  0  0
   21.0505   10.6375   54.3983 C   0  0  0  0  0  0  0  0  0  0  0  0
   20.3360   11.3689   55.3352 C   0  0  0  0  0  0  0  0  0  0  0  0
   19.8591   12.6145   55.0374 C   0  0  0  0  0  0  0  0  0  0  0  0
   20.1160   13.0988   53.7839 C   0  0  0  0  0  0  0  0  0  0  0  0
   20.8300   12.4010   52.8005 C   0  0  0  0  0  0  0  0  0  0  0  0
   20.9505   13.1136   51.2490 S   0  0  0  0  0  0  0  0  0  0  0  0
   22.4149   13.5739   51.0607 O   0  0  0  0  0  0  0  0  0  0  0  0
   20.7553   12.1611   50.0948 O   0  0  0  0  0  0  0  0  0  0  0  0
   19.9954   14.5739   50.9954 C   0  0  0  0  0  0  0  0  0  0  0  0
   19.3828   15.0525   52.3154 C   0  0  0  0  0  0  0  0  0  0  0  0
   20.7103   15.7200   50.4100 C   0  0  0  0  0  0  0  0  0  0  0  0
 25 26  1  0  0  0
 26 10  1  0  0  0
 10 11  2  0  0  0
 11 12  1  0  0  0
 12 13  2  0  0  0
 13 14  1  0  0  0
 14 15  2  0  0  0
 15  8  1  0  0  0
  8  1  1  0  0  0
  1  2  2  0  0  0
  2  3  1  0  0  0
  3  4  2  0  0  0
  4  5  1  0  0  0
  4  6  1  0  0  0
  6 27  1  0  0  0
 27 29  1  0  0  0
 29 30  2  0  0  0
 30 31  1  0  0  0
 31 32  2  0  0  0
 32 33  1  0  0  0
 33 34  2  0  0  0
 34 35  1  0  0  0
 35 36  2  0  0  0
 35 37  2  0  0  0
 35 38  1  0  0  0
 38 39  1  0  0  0
 38 40  1  0  0  0
  6  7  2  0  0  0
 12 16  1  0  0  0
 16 17  1  0  0  0
 17 18  1  0  0  0
 18 19  1  0  0  0
 19 20  1  0  0  0
 20 21  1  0  0  0
 19 22  1  0  0  0
 22 23  1  0  0  0
 22 24  1  0  0  0
 15 10  1  0  0  0
  7  1  1  0  0  0
 21 16  1  0  0  0
 34 29  1  0  0  0
  8  9  1  0  0  0
 27 28  1  0  0  0
M  END
> <minimizedAffinity>
33.74369

> <CNNscore>
0.6120914817

> <CNNaffinity>
7.0185952187

> <CNN_VS>
4.2960224152

> <CNNaffinity_variance>
0.5333700776

$$$$
[H]c1nc(N([H])c2c([H])c([H])c(N3C([H])([H])C([H])([H])C([H])(N(C([H])([H])[H])C([H])([H])[H])C([H])([H])C3([H])[H])c([H])c2OC([H])([H])[H])nc(N([H])c2c([H])c([H])c([H])c([H])c2S(=O)(=O)C([H])(C([H])([H])[H])C([H])([H])[H])c1Cl


 40 43  0  0  0  0  0  0  0  0999 V2000
   24.8449    7.0594   53.4664 C   0  0  0  0  0  0  0  0  0  0  0  0
   24.8573    5.7489   53.2475 N   0  0  0  0  0  0  0  0  0  0  0  0
   23.7450    5.0076   53.1709 C   0  0  0  0  0  0  0  0  0  0  0  0
   22.5114    5.5810   53.3184 C   0  0  0  0  0  0  0  0  0  0  0  0
   21.0262    4.6628   53.2183 Cl  0  0  0  0  0  0  0  0  0  0  0  0
   22.4362    6.9732   53.5537 C   0  0  0  0  0  0  0  0  0  0  0  0
   23.5952    7.5914   53.6078 N   0  0  0  0  0  0  0  0  0  0  0  0
   25.9698    7.9224   53.5629 N   0  0  0  0  0  0  0  0  0  0  0  0
   26.3967    8.2624   52.6279 H   0  0  0  0  0  0  0  0  0  0  0  0
   25.7963    9.0157   55.6935 C   0  0  0  0  0  0  0  0  0  0  0  0
   26.4042    9.4780   56.8190 C   0  0  0  0  0  0  0  0  0  0  0  0
   27.7498    9.3706   57.0512 C   0  0  0  0  0  0  0  0  0  0  0  0
   28.5079    8.7611   56.0850 C   0  0  0  0  0  0  0  0  0  0  0  0
   27.9446    8.2688   54.9143 C   0  0  0  0  0  0  0  0  0  0  0  0
   26.5960    8.3884   54.7055 C   0  0  0  0  0  0  0  0  0  0  0  0
   28.3887    9.8596   58.2433 N   0  0  0  0  0  0  0  0  0  0  0  0
   28.7969    8.8535   59.1929 C   0  0  0  0  0  0  0  0  0  0  0  0
   29.6163    9.3371   60.3328 C   0  0  0  0  0  0  0  0  0  0  0  0
   30.2080   10.6924   60.0973 C   0  0  0  0  0  0  0  0  0  0  0  0
   29.0833   11.6534   59.7715 C   0  0  0  0  0  0  0  0  0  0  0  0
   28.5722   11.2643   58.4078 C   0  0  0  0  0  0  0  0  0  0  0  0
   30.9917   11.1168   61.2318 N   0  0  0  0  0  0  0  0  0  0  0  0
   31.9137   10.1154   61.6765 C   0  0  0  0  0  0  0  0  0  0  0  0
   31.6088   12.4079   61.0369 C   0  0  0  0  0  0  0  0  0  0  0  0
   23.6844   10.0671   56.1851 C   0  0  0  0  0  0  0  0  0  0  0  0
   24.4379    9.1300   55.4710 O   0  0  0  0  0  0  0  0  0  0  0  0
   21.1728    7.5730   53.7489 N   0  0  0  0  0  0  0  0  0  0  0  0
   20.3665    7.0270   53.3821 H   0  0  0  0  0  0  0  0  0  0  0  0
   20.9336    8.8086   54.3437 C   0  0  0  0  0  0  0  0  0  0  0  0
   20.5827    8.9621   55.6852 C   0  0  0  0  0  0  0  0  0  0  0  0
   20.4701   10.2117   56.2762 C   0  0  0  0  0  0  0  0  0  0  0  0
   20.7024   11.3509   55.5577 C   0  0  0  0  0  0  0  0  0  0  0  0
   21.0456   11.2007   54.2418 C   0  0  0  0  0  0  0  0  0  0  0  0
   21.1708    9.9632   53.5963 C   0  0  0  0  0  0  0  0  0  0  0  0
   21.4901    9.9720   51.9148 S   0  0  0  0  0  0  0  0  0  0  0  0
   22.8150    9.2071   51.6886 O   0  0  0  0  0  0  0  0  0  0  0  0
   20.5108    9.1863   51.0774 O   0  0  0  0  0  0  0  0  0  0  0  0
   21.7688   11.5559   51.1917 C   0  0  0  0  0  0  0  0  0  0  0  0
   20.6657   11.8885   50.1822 C   0  0  0  0  0  0  0  0  0  0  0  0
   21.8530   12.6882   52.1288 C   0  0  0  0  0  0  0  0  0  0  0  0
 25 26  1  0  0  0
 26 10  1  0  0  0
 10 11  2  0  0  0
 11 12  1  0  0  0
 12 13  2  0  0  0
 13 14  1  0  0  0
 14 15  2  0  0  0
 15  8  1  0  0  0
  8  1  1  0  0  0
  1  2  2  0  0  0
  2  3  1  0  0  0
  3  4  2  0  0  0
  4  5  1  0  0  0
  4  6  1  0  0  0
  6 27  1  0  0  0
 27 29  1  0  0  0
 29 30  2  0  0  0
 30 31  1  0  0  0
 31 32  2  0  0  0
 32 33  1  0  0  0
 33 34  2  0  0  0
 34 35  1  0  0  0
 35 36  2  0  0  0
 35 37  2  0  0  0
 35 38  1  0  0  0
 38 39  1  0  0  0
 38 40  1  0  0  0
  6  7  2  0  0  0
 12 16  1  0  0  0
 16 17  1  0  0  0
 17 18  1  0  0  0
 18 19  1  0  0  0
 19 20  1  0  0  0
 20 21  1  0  0  0
 19 22  1  0  0  0
 22 23  1  0  0  0
 22 24  1  0  0  0
 15 10  1  0  0  0
  7  1  1  0  0  0
 21 16  1  0  0  0
 34 29  1  0  0  0
  8  9  1  0  0  0
 27 28  1  0  0  0
M  END
> <minimizedAffinity>
18.19500

> <CNNscore>
0.5488800406

> <CNNaffinity>
7.0785799026

> <CNN_VS>
3.8852913380

> <CNNaffinity_variance>
0.5271143317

$$$$
[H]c1nc(N([H])c2c([H])c([H])c(N3C([H])([H])C([H])([H])C([H])(N(C([H])([H])[H])C([H])([H])[H])C([H])([H])C3([H])[H])c([H])c2OC([H])([H])[H])nc(N([H])c2c([H])c([H])c([H])c([H])c2S(=O)(=O)C([H])(C([H])([H])[H])C([H])([H])[H])c1Cl


 40 43  0  0  0  0  0  0  0  0999 V2000
   24.8175    7.0691   53.5148 C   0  0  0  0  0  0  0  0  0  0  0  0
   24.8036    5.7599   53.2884 N   0  0  0  0  0  0  0  0  0  0  0  0
   23.6761    5.0447   53.1887 C   0  0  0  0  0  0  0  0  0  0  0  0
   22.4536    5.6455   53.3188 C   0  0  0  0  0  0  0  0  0  0  0  0
   20.9497    4.7622   53.1883 Cl  0  0  0  0  0  0  0  0  0  0  0  0
   22.4063    7.0377   53.5612 C   0  0  0  0  0  0  0  0  0  0  0  0
   23.5780    7.6288   53.6384 N   0  0  0  0  0  0  0  0  0  0  0  0
   25.9600    7.9054   53.6353 N   0  0  0  0  0  0  0  0  0  0  0  0
   26.4593    8.1735   52.7128 H   0  0  0  0  0  0  0  0  0  0  0  0
   27.9184    8.2673   54.9766 C   0  0  0  0  0  0  0  0  0  0  0  0
   28.4790    8.7747   56.1073 C   0  0  0  0  0  0  0  0  0  0  0  0
   27.7676    9.4322   57.0756 C   0  0  0  0  0  0  0  0  0  0  0  0
   26.4189    9.5765   56.8762 C   0  0  0  0  0  0  0  0  0  0  0  0
   25.7890    9.0799   55.7418 C   0  0  0  0  0  0  0  0  0  0  0  0
   26.5225    8.4259   54.7875 C   0  0  0  0  0  0  0  0  0  0  0  0
   28.3643    9.9684   58.2692 N   0  0  0  0  0  0  0  0  0  0  0  0
   28.3828   11.4073   58.3683 C   0  0  0  0  0  0  0  0  0  0  0  0
   28.8287   11.9584   59.6730 C   0  0  0  0  0  0  0  0  0  0  0  0
   28.8015   10.9475   60.7775 C   0  0  0  0  0  0  0  0  0  0  0  0
   29.6423    9.7597   60.3571 C   0  0  0  0  0  0  0  0  0  0  0  0
   28.8853    9.0727   59.2492 C   0  0  0  0  0  0  0  0  0  0  0  0
   29.2440   11.5305   62.0207 N   0  0  0  0  0  0  0  0  0  0  0  0
   30.6614   11.7300   62.0679 C   0  0  0  0  0  0  0  0  0  0  0  0
   28.4940   12.7092   62.3868 C   0  0  0  0  0  0  0  0  0  0  0  0
   30.0444    7.6088   54.0530 C   0  0  0  0  0  0  0  0  0  0  0  0
   28.6468    7.6060   54.0070 O   0  0  0  0  0  0  0  0  0  0  0  0
   21.1538    7.6653   53.7387 N   0  0  0  0  0  0  0  0  0  0  0  0
   20.3545    7.1892   53.2726 H   0  0  0  0  0  0  0  0  0  0  0  0
   20.9190    8.8465   54.4367 C   0  0  0  0  0  0  0  0  0  0  0  0
   20.6280    8.8900   55.8004 C   0  0  0  0  0  0  0  0  0  0  0  0
   20.5191   10.0883   56.4900 C   0  0  0  0  0  0  0  0  0  0  0  0
   20.6958   11.2836   55.8514 C   0  0  0  0  0  0  0  0  0  0  0  0
   20.9802   11.2414   54.5138 C   0  0  0  0  0  0  0  0  0  0  0  0
   21.0989   10.0595   53.7702 C   0  0  0  0  0  0  0  0  0  0  0  0
   21.3393   10.2030   52.0817 S   0  0  0  0  0  0  0  0  0  0  0  0
   22.8086    9.8211   51.7867 O   0  0  0  0  0  0  0  0  0  0  0  0
   20.5685    9.2129   51.2432 O   0  0  0  0  0  0  0  0  0  0  0  0
   21.1649   11.8255   51.4136 C   0  0  0  0  0  0  0  0  0  0  0  0
   22.3749   12.6910   51.7788 C   0  0  0  0  0  0  0  0  0  0  0  0
   20.9990   11.9085   49.9532 C   0  0  0  0  0  0  0  0  0  0  0  0
 25 26  1  0  0  0
 26 10  1  0  0  0
 10 11  2  0  0  0
 11 12  1  0  0  0
 12 13  2  0  0  0
 13 14  1  0  0  0
 14 15  2  0  0  0
 15  8  1  0  0  0
  8  1  1  0  0  0
  1  2  2  0  0  0
  2  3  1  0  0  0
  3  4  2  0  0  0
  4  5  1  0  0  0
  4  6  1  0  0  0
  6 27  1  0  0  0
 27 29  1  0  0  0
 29 30  2  0  0  0
 30 31  1  0  0  0
 31 32  2  0  0  0
 32 33  1  0  0  0
 33 34  2  0  0  0
 34 35  1  0  0  0
 35 36  2  0  0  0
 35 37  2  0  0  0
 35 38  1  0  0  0
 38 39  1  0  0  0
 38 40  1  0  0  0
  6  7  2  0  0  0
 12 16  1  0  0  0
 16 17  1  0  0  0
 17 18  1  0  0  0
 18 19  1  0  0  0
 19 20  1  0  0  0
 20 21  1  0  0  0
 19 22  1  0  0  0
 22 23  1  0  0  0
 22 24  1  0  0  0
 15 10  1  0  0  0
  7  1  1  0  0  0
 21 16  1  0  0  0
 34 29  1  0  0  0
  8  9  1  0  0  0
 27 28  1  0  0  0
M  END
> <minimizedAffinity>
22.47196

> <CNNscore>
0.5193348527

> <CNNaffinity>
6.9334259033

> <CNN_VS>
3.6007697582

> <CNNaffinity_variance>
0.6851961017

$$$$
[H]c1nc(N([H])c2c([H])c([H])c(N3C([H])([H])C([H])([H])C([H])(N(C([H])([H])[H])C([H])([H])[H])C([H])([H])C3([H])[H])c([H])c2OC([H])([H])[H])nc(N([H])c2c([H])c([H])c([H])c([H])c2S(=O)(=O)C([H])(C([H])([H])[H])C([H])([H])[H])c1Cl


 40 43  0  0  0  0  0  0  0  0999 V2000
   24.8096    8.1313   53.1850 C   0  0  0  0  0  0  0  0  0  0  0  0
   24.0771    9.1979   52.8830 N   0  0  0  0  0  0  0  0  0  0  0  0
   22.8024    9.1222   52.4806 C   0  0  0  0  0  0  0  0  0  0  0  0
   22.1788    7.9104   52.3586 C   0  0  0  0  0  0  0  0  0  0  0  0
   20.5137    7.7535   51.8467 Cl  0  0  0  0  0  0  0  0  0  0  0  0
   22.9093    6.7396   52.6664 C   0  0  0  0  0  0  0  0  0  0  0  0
   24.1502    6.9431   53.0500 N   0  0  0  0  0  0  0  0  0  0  0  0
   26.1630    8.1162   53.6182 N   0  0  0  0  0  0  0  0  0  0  0  0
   26.8830    7.6895   52.9315 H   0  0  0  0  0  0  0  0  0  0  0  0
   28.0904    8.5291   54.9892 C   0  0  0  0  0  0  0  0  0  0  0  0
   28.6113    8.9810   56.1616 C   0  0  0  0  0  0  0  0  0  0  0  0
   27.8509    9.4833   57.1841 C   0  0  0  0  0  0  0  0  0  0  0  0
   26.4934    9.5245   56.9967 C   0  0  0  0  0  0  0  0  0  0  0  0
   25.9025    9.0775   55.8214 C   0  0  0  0  0  0  0  0  0  0  0  0
   26.6848    8.5794   54.8133 C   0  0  0  0  0  0  0  0  0  0  0  0
   28.4057    9.9614   58.4219 N   0  0  0  0  0  0  0  0  0  0  0  0
   28.7749    8.9453   59.3767 C   0  0  0  0  0  0  0  0  0  0  0  0
   29.5131    9.4224   60.5735 C   0  0  0  0  0  0  0  0  0  0  0  0
   30.0910   10.7929   60.3991 C   0  0  0  0  0  0  0  0  0  0  0  0
   28.9695   11.7386   60.0218 C   0  0  0  0  0  0  0  0  0  0  0  0
   28.5507   11.3660   58.6224 C   0  0  0  0  0  0  0  0  0  0  0  0
   30.7950   11.2102   61.5871 N   0  0  0  0  0  0  0  0  0  0  0  0
   32.1027   10.6353   61.6894 C   0  0  0  0  0  0  0  0  0  0  0  0
   30.7910   12.6431   61.7683 C   0  0  0  0  0  0  0  0  0  0  0  0
   28.8234    6.6622   53.6534 C   0  0  0  0  0  0  0  0  0  0  0  0
   28.8680    8.0247   53.9651 O   0  0  0  0  0  0  0  0  0  0  0  0
   22.2928    5.4792   52.5063 N   0  0  0  0  0  0  0  0  0  0  0  0
   22.7610    4.8449   51.8272 H   0  0  0  0  0  0  0  0  0  0  0  0
   21.1309    5.0472   53.1396 C   0  0  0  0  0  0  0  0  0  0  0  0
   20.1513    4.2787   52.5103 C   0  0  0  0  0  0  0  0  0  0  0  0
   19.0657    3.7632   53.2024 C   0  0  0  0  0  0  0  0  0  0  0  0
   18.9150    3.9913   54.5415 C   0  0  0  0  0  0  0  0  0  0  0  0
   19.8750    4.7458   55.1587 C   0  0  0  0  0  0  0  0  0  0  0  0
   20.9888    5.2914   54.5064 C   0  0  0  0  0  0  0  0  0  0  0  0
   22.0222    6.3099   55.4143 S   0  0  0  0  0  0  0  0  0  0  0  0
   21.6502    6.1401   56.9057 O   0  0  0  0  0  0  0  0  0  0  0  0
   23.4796    5.9187   55.3933 O   0  0  0  0  0  0  0  0  0  0  0  0
   21.8565    8.0397   55.1149 C   0  0  0  0  0  0  0  0  0  0  0  0
   20.3797    8.4469   55.1139 C   0  0  0  0  0  0  0  0  0  0  0  0
   22.5494    8.9287   56.0620 C   0  0  0  0  0  0  0  0  0  0  0  0
 25 26  1  0  0  0
 26 10  1  0  0  0
 10 11  2  0  0  0
 11 12  1  0  0  0
 12 13  2  0  0  0
 13 14  1  0  0  0
 14 15  2  0  0  0
 15  8  1  0  0  0
  8  1  1  0  0  0
  1  2  2  0  0  0
  2  3  1  0  0  0
  3  4  2  0  0  0
  4  5  1  0  0  0
  4  6  1  0  0  0
  6 27  1  0  0  0
 27 29  1  0  0  0
 29 30  2  0  0  0
 30 31  1  0  0  0
 31 32  2  0  0  0
 32 33  1  0  0  0
 33 34  2  0  0  0
 34 35  1  0  0  0
 35 36  2  0  0  0
 35 37  2  0  0  0
 35 38  1  0  0  0
 38 39  1  0  0  0
 38 40  1  0  0  0
  6  7  2  0  0  0
 12 16  1  0  0  0
 16 17  1  0  0  0
 17 18  1  0  0  0
 18 19  1  0  0  0
 19 20  1  0  0  0
 20 21  1  0  0  0
 19 22  1  0  0  0
 22 23  1  0  0  0
 22 24  1  0  0  0
 15 10  1  0  0  0
  7  1  1  0  0  0
 21 16  1  0  0  0
 34 29  1  0  0  0
  8  9  1  0  0  0
 27 28  1  0  0  0
M  END
> <minimizedAffinity>
24.73248

> <CNNscore>
0.4972450137

> <CNNaffinity>
7.1468605995

> <CNN_VS>
3.5537407398

> <CNNaffinity_variance>
0.3560754657

$$$$
[H]c1nc(N([H])c2c([H])c([H])c(N3C([H])([H])C([H])([H])C([H])(N(C([H])([H])[H])C([H])([H])[H])C([H])([H])C3([H])[H])c([H])c2OC([H])([H])[H])nc(N([H])c2c([H])c([H])c([H])c([H])c2S(=O)(=O)C([H])(C([H])([H])[H])C([H])([H])[H])c1Cl


 40 43  0  0  0  0  0  0  0  0999 V2000
   24.9011    8.4943   53.5984 C   0  0  0  0  0  0  0  0  0  0  0  0
   24.7660    9.1829   52.4701 N   0  0  0  0  0  0  0  0  0  0  0  0
   23.5773    9.4870   51.9343 C   0  0  0  0  0  0  0  0  0  0  0  0
   22.4158    9.0919   52.5403 C   0  0  0  0  0  0  0  0  0  0  0  0
   20.8367    9.4694   51.8900 Cl  0  0  0  0  0  0  0  0  0  0  0  0
   22.4977    8.3555   53.7445 C   0  0  0  0  0  0  0  0  0  0  0  0
   23.7189    8.1196   54.1702 N   0  0  0  0  0  0  0  0  0  0  0  0
   26.1159    8.1272   54.2376 N   0  0  0  0  0  0  0  0  0  0  0  0
   26.6770    7.3229   53.7787 H   0  0  0  0  0  0  0  0  0  0  0  0
   28.0824    8.8729   55.3959 C   0  0  0  0  0  0  0  0  0  0  0  0
   28.6450    9.4025   56.5154 C   0  0  0  0  0  0  0  0  0  0  0  0
   27.9296    9.7496   57.6306 C   0  0  0  0  0  0  0  0  0  0  0  0
   26.5744    9.5445   57.5973 C   0  0  0  0  0  0  0  0  0  0  0  0
   25.9422    9.0070   56.4830 C   0  0  0  0  0  0  0  0  0  0  0  0
   26.6800    8.6678   55.3798 C   0  0  0  0  0  0  0  0  0  0  0  0
   28.5280   10.3107   58.8119 N   0  0  0  0  0  0  0  0  0  0  0  0
   29.0502    9.3591   59.7619 C   0  0  0  0  0  0  0  0  0  0  0  0
   29.8281    9.9333   60.8888 C   0  0  0  0  0  0  0  0  0  0  0  0
   30.2723   11.3413   60.6384 C   0  0  0  0  0  0  0  0  0  0  0  0
   29.0497   12.1775   60.3214 C   0  0  0  0  0  0  0  0  0  0  0  0
   28.5658   11.7280   58.9663 C   0  0  0  0  0  0  0  0  0  0  0  0
   31.0208   11.8528   61.7607 N   0  0  0  0  0  0  0  0  0  0  0  0
   31.8283   10.8530   62.3926 C   0  0  0  0  0  0  0  0  0  0  0  0
   31.7541   13.0564   61.4452 C   0  0  0  0  0  0  0  0  0  0  0  0
   29.2136    7.2012   54.0797 C   0  0  0  0  0  0  0  0  0  0  0  0
   28.8150    8.5270   54.2773 O   0  0  0  0  0  0  0  0  0  0  0  0
   21.3093    7.9053   54.3604 N   0  0  0  0  0  0  0  0  0  0  0  0
   20.9812    8.4869   55.1585 H   0  0  0  0  0  0  0  0  0  0  0  0
   20.5863    6.7669   54.0157 C   0  0  0  0  0  0  0  0  0  0  0  0
   19.2132    6.7725   53.7684 C   0  0  0  0  0  0  0  0  0  0  0  0
   18.5454    5.6470   53.3096 C   0  0  0  0  0  0  0  0  0  0  0  0
   19.2160    4.4785   53.0796 C   0  0  0  0  0  0  0  0  0  0  0  0
   20.5624    4.4724   53.3229 C   0  0  0  0  0  0  0  0  0  0  0  0
   21.2841    5.5797   53.7884 C   0  0  0  0  0  0  0  0  0  0  0  0
   22.9413    5.3533   54.1517 S   0  0  0  0  0  0  0  0  0  0  0  0
   23.2942    3.8848   53.8194 O   0  0  0  0  0  0  0  0  0  0  0  0
   23.8959    6.1264   53.2751 O   0  0  0  0  0  0  0  0  0  0  0  0
   23.3911    5.5400   55.8464 C   0  0  0  0  0  0  0  0  0  0  0  0
   22.2147    6.0910   56.6582 C   0  0  0  0  0  0  0  0  0  0  0  0
   23.8548    4.3213   56.5299 C   0  0  0  0  0  0  0  0  0  0  0  0
 25 26  1  0  0  0
 26 10  1  0  0  0
 10 11  2  0  0  0
 11 12  1  0  0  0
 12 13  2  0  0  0
 13 14  1  0  0  0
 14 15  2  0  0  0
 15  8  1  0  0  0
  8  1  1  0  0  0
  1  2  2  0  0  0
  2  3  1  0  0  0
  3  4  2  0  0  0
  4  5  1  0  0  0
  4  6  1  0  0  0
  6 27  1  0  0  0
 27 29  1  0  0  0
 29 30  2  0  0  0
 30 31  1  0  0  0
 31 32  2  0  0  0
 32 33  1  0  0  0
 33 34  2  0  0  0
 34 35  1  0  0  0
 35 36  2  0  0  0
 35 37  2  0  0  0
 35 38  1  0  0  0
 38 39  1  0  0  0
 38 40  1  0  0  0
  6  7  2  0  0  0
 12 16  1  0  0  0
 16 17  1  0  0  0
 17 18  1  0  0  0
 18 19  1  0  0  0
 19 20  1  0  0  0
 20 21  1  0  0  0
 19 22  1  0  0  0
 22 23  1  0  0  0
 22 24  1  0  0  0
 15 10  1  0  0  0
  7  1  1  0  0  0
 21 16  1  0  0  0
 34 29  1  0  0  0
  8  9  1  0  0  0
 27 28  1  0  0  0
M  END
> <minimizedAffinity>
33.19963

> <CNNscore>
0.4743672013

> <CNNaffinity>
6.6274847984

> <CNN_VS>
3.1438615322

> <CNNaffinity_variance>
0.4731865823

$$$$
[H]N=C(N([H])[H])N([H])C([H])([H])C([H])([H])C([H])([H])[C@@]([H])(C(=O)N([H])[C@]([H])(C(=O)N([H])[H])C([H])([H])c1c([H])n([H])c2c([H])c([H])c([H])c([H])c12)N([H])C(=O)[C@@]([H])(N([H])C(=O)[C@]([H])(N([H])[H])[C@]([H])(O[H])C([H])([H])[H])C([H])([H])c1c([H])c([H])c([H])c([H])c1[H]


 57 59  0  0  0  0  0  0  0  0999 V2000
   24.2698    6.4453   53.9771 C   0  0  0  0  0  0  0  0  0  0  0  0
   25.1006    7.6709   53.9710 C   0  0  0  0  0  0  0  0  0  0  0  0
   25.0725    8.4500   52.9927 O   0  0  0  0  0  0  0  0  0  0  0  0
   25.9269    7.9727   55.0701 N   0  0  0  0  0  0  0  0  0  0  0  0
   25.9531    7.3320   55.8943 H   0  0  0  0  0  0  0  0  0  0  0  0
   26.7658    9.1976   55.0573 C   0  0  0  0  0  0  0  0  0  0  0  0
   28.1422    8.7861   54.8623 C   0  0  0  0  0  0  0  0  0  0  0  0
   29.1930    9.7352   54.8749 N   0  0  0  0  0  0  0  0  0  0  0  0
   28.5025    7.5796   54.6693 O   0  0  0  0  0  0  0  0  0  0  0  0
   29.9867    9.6779   55.5314 H   0  0  0  0  0  0  0  0  0  0  0  0
   29.1615   10.5162   54.1908 H   0  0  0  0  0  0  0  0  0  0  0  0
   26.4724    9.8542   56.3946 C   0  0  0  0  0  0  0  0  0  0  0  0
   27.4541    9.5548   57.4374 C   0  0  0  0  0  0  0  0  0  0  0  0
   27.9936    8.3435   57.7854 C   0  0  0  0  0  0  0  0  0  0  0  0
   28.8455    8.4877   58.8088 N   0  0  0  0  0  0  0  0  0  0  0  0
   28.8657    9.8034   59.1355 C   0  0  0  0  0  0  0  0  0  0  0  0
   29.5301   10.5497   60.0856 C   0  0  0  0  0  0  0  0  0  0  0  0
   29.3545   11.9089   60.1990 C   0  0  0  0  0  0  0  0  0  0  0  0
   28.4883   12.5790   59.3454 C   0  0  0  0  0  0  0  0  0  0  0  0
   27.8035   11.8574   58.3780 C   0  0  0  0  0  0  0  0  0  0  0  0
   28.0079   10.4906   58.2967 C   0  0  0  0  0  0  0  0  0  0  0  0
   29.4118    7.7451   59.2962 H   0  0  0  0  0  0  0  0  0  0  0  0
   21.8085    6.3136   53.5059 C   0  0  0  0  0  0  0  0  0  0  0  0
   21.6052    5.9229   54.6957 O   0  0  0  0  0  0  0  0  0  0  0  0
   23.1385    6.5886   53.0638 N   0  0  0  0  0  0  0  0  0  0  0  0
   23.2676    6.8895   52.0855 H   0  0  0  0  0  0  0  0  0  0  0  0
   20.6123    6.4660   52.6346 C   0  0  0  0  0  0  0  0  0  0  0  0
   19.2644    4.5269   53.4156 C   0  0  0  0  0  0  0  0  0  0  0  0
   20.2317    3.7564   53.0789 O   0  0  0  0  0  0  0  0  0  0  0  0
   19.4212    5.8978   53.2058 N   0  0  0  0  0  0  0  0  0  0  0  0
   18.6555    6.5507   53.4605 H   0  0  0  0  0  0  0  0  0  0  0  0
   18.0989    3.8528   53.9819 C   0  0  0  0  0  0  0  0  0  0  0  0
   18.0307    2.5173   53.3615 N   0  0  0  0  0  0  0  0  0  0  0  0
   17.4883    2.6642   52.4519 H   0  0  0  0  0  0  0  0  0  0  0  0
   18.9779    2.1335   53.1835 H   0  0  0  0  0  0  0  0  0  0  0  0
   15.6241    3.7923   54.4861 C   0  0  0  0  0  0  0  0  0  0  0  0
   16.7869    4.5233   53.8627 C   0  0  0  0  0  0  0  0  0  0  0  0
   16.8021    5.8896   54.1423 O   0  0  0  0  0  0  0  0  0  0  0  0
   16.3775    6.0080   55.0287 H   0  0  0  0  0  0  0  0  0  0  0  0
   20.4441    7.8921   52.1556 C   0  0  0  0  0  0  0  0  0  0  0  0
   20.9104    8.8206   53.2094 C   0  0  0  0  0  0  0  0  0  0  0  0
   21.5159   10.0135   52.8863 C   0  0  0  0  0  0  0  0  0  0  0  0
   21.9896   10.9120   53.8449 C   0  0  0  0  0  0  0  0  0  0  0  0
   21.8562   10.6133   55.1977 C   0  0  0  0  0  0  0  0  0  0  0  0
   21.2510    9.4222   55.5267 C   0  0  0  0  0  0  0  0  0  0  0  0
   20.7921    8.5521   54.5629 C   0  0  0  0  0  0  0  0  0  0  0  0
   25.1599    5.3110   53.5831 C   0  0  0  0  0  0  0  0  0  0  0  0
   24.4850    4.0142   53.3032 C   0  0  0  0  0  0  0  0  0  0  0  0
   25.2497    3.1256   52.3468 C   0  0  0  0  0  0  0  0  0  0  0  0
   26.0712    2.2161   53.1499 N   0  0  0  0  0  0  0  0  0  0  0  0
   26.6632    2.6290   53.8843 H   0  0  0  0  0  0  0  0  0  0  0  0
   26.0829    0.8257   52.9624 C   0  0  0  0  0  0  0  0  0  0  0  0
   27.2254    0.0236   53.2743 N   0  0  0  0  0  0  0  0  0  0  0  0
   25.0260    0.2452   52.4909 N   0  0  0  0  0  0  0  0  0  0  0  0
   27.2970   -0.3471   54.2418 H   0  0  0  0  0  0  0  0  0  0  0  0
   27.9647   -0.1922   52.5777 H   0  0  0  0  0  0  0  0  0  0  0  0
   24.1817    0.8010   52.2549 H   0  0  0  0  0  0  0  0  0  0  0  0
 36 37  1  0  0  0
 37 38  1  0  0  0
 37 32  1  0  0  0
 32 33  1  0  0  0
 32 28  1  0  0  0
 28 29  2  0  0  0
 28 30  1  0  0  0
 30 27  1  0  0  0
 27 40  1  0  0  0
 40 41  1  0  0  0
 41 42  2  0  0  0
 42 43  1  0  0  0
 43 44  2  0  0  0
 44 45  1  0  0  0
 45 46  2  0  0  0
 27 23  1  0  0  0
 23 24  2  0  0  0
 23 25  1  0  0  0
 25  1  1  0  0  0
  1 47  1  0  0  0
 47 48  1  0  0  0
 48 49  1  0  0  0
 49 50  1  0  0  0
 50 52  1  0  0  0
 52 53  1  0  0  0
 52 54  2  0  0  0
  1  2  1  0  0  0
  2  3  2  0  0  0
  2  4  1  0  0  0
  4  6  1  0  0  0
  6 12  1  0  0  0
 12 13  1  0  0  0
 13 14  2  0  0  0
 14 15  1  0  0  0
 15 16  1  0  0  0
 16 17  2  0  0  0
 17 18  1  0  0  0
 18 19  2  0  0  0
 19 20  1  0  0  0
 20 21  2  0  0  0
  6  7  1  0  0  0
  7  8  1  0  0  0
  7  9  2  0  0  0
 46 41  1  0  0  0
 21 13  1  0  0  0
 21 16  1  0  0  0
 38 39  1  0  0  0
 33 34  1  0  0  0
 33 35  1  0  0  0
 30 31  1  0  0  0
 25 26  1  0  0  0
 50 51  1  0  0  0
 53 55  1  0  0  0
 53 56  1  0  0  0
 54 57  1  0  0  0
  4  5  1  0  0  0
 15 22  1  0  0  0
  8 10  1  0  0  0
  8 11  1  0  0  0
M  END
> <minimizedAffinity>
23.00580

> <CNNscore>
0.5080376267

> <CNNaffinity>
7.0939283371

> <CNN_VS>
3.6039824486

> <CNNaffinity_variance>
1.2495195866

$$$$
[H]N=C(N([H])[H])N([H])C([H])([H])C([H])([H])C([H])([H])[C@@]([H])(C(=O)N([H])[C@]([H])(C(=O)N([H])[H])C([H])([H])c1c([H])n([H])c2c([H])c([H])c([H])c([H])c12)N([H])C(=O)[C@@]([H])(N([H])C(=O)[C@]([H])(N([H])[H])[C@]([H])(O[H])C([H])([H])[H])C([H])([H])c1c([H])c([H])c([H])c([H])c1[H]


 57 59  0  0  0  0  0  0  0  0999 V2000
   23.9554    8.3852   54.9041 C   0  0  0  0  0  0  0  0  0  0  0  0
   23.0334    7.7282   53.9499 C   0  0  0  0  0  0  0  0  0  0  0  0
   23.0760    8.0103   52.7319 O   0  0  0  0  0  0  0  0  0  0  0  0
   22.1027    6.7751   54.4053 N   0  0  0  0  0  0  0  0  0  0  0  0
   22.0630    6.5280   55.4192 H   0  0  0  0  0  0  0  0  0  0  0  0
   21.1733    6.1247   53.4475 C   0  0  0  0  0  0  0  0  0  0  0  0
   20.4523    7.1733   52.7530 C   0  0  0  0  0  0  0  0  0  0  0  0
   20.6967    7.4391   51.3838 N   0  0  0  0  0  0  0  0  0  0  0  0
   19.5731    7.9143   53.3013 O   0  0  0  0  0  0  0  0  0  0  0  0
   19.9551    7.3972   50.6678 H   0  0  0  0  0  0  0  0  0  0  0  0
   21.6620    7.6901   51.0940 H   0  0  0  0  0  0  0  0  0  0  0  0
   20.3185    5.2254   54.3230 C   0  0  0  0  0  0  0  0  0  0  0  0
   19.6394    4.1520   53.5966 C   0  0  0  0  0  0  0  0  0  0  0  0
   20.1693    3.2399   52.7210 C   0  0  0  0  0  0  0  0  0  0  0  0
   19.2106    2.4314   52.2509 N   0  0  0  0  0  0  0  0  0  0  0  0
   18.0424    2.8153   52.8217 C   0  0  0  0  0  0  0  0  0  0  0  0
   16.7375    2.3791   52.7319 C   0  0  0  0  0  0  0  0  0  0  0  0
   15.7197    2.9722   53.4416 C   0  0  0  0  0  0  0  0  0  0  0  0
   15.9824    4.0452   54.2828 C   0  0  0  0  0  0  0  0  0  0  0  0
   17.2852    4.5093   54.3959 C   0  0  0  0  0  0  0  0  0  0  0  0
   18.2812    3.8850   53.6644 C   0  0  0  0  0  0  0  0  0  0  0  0
   19.3050    1.6364   51.5662 H   0  0  0  0  0  0  0  0  0  0  0  0
   26.2862    8.1256   54.0113 C   0  0  0  0  0  0  0  0  0  0  0  0
   26.3254    6.9424   54.4675 O   0  0  0  0  0  0  0  0  0  0  0  0
   25.1184    8.9250   54.2038 N   0  0  0  0  0  0  0  0  0  0  0  0
   25.1279    9.8875   53.8327 H   0  0  0  0  0  0  0  0  0  0  0  0
   27.4919    8.6060   53.2841 C   0  0  0  0  0  0  0  0  0  0  0  0
   27.9826    9.7662   51.1392 C   0  0  0  0  0  0  0  0  0  0  0  0
   28.9011   10.4274   51.7409 O   0  0  0  0  0  0  0  0  0  0  0  0
   27.2522    8.8402   51.8856 N   0  0  0  0  0  0  0  0  0  0  0  0
   26.4963    8.2919   51.4324 H   0  0  0  0  0  0  0  0  0  0  0  0
   27.8152   10.0800   49.7226 C   0  0  0  0  0  0  0  0  0  0  0  0
   28.5112    9.0254   48.9631 N   0  0  0  0  0  0  0  0  0  0  0  0
   29.5267    9.3546   48.9033 H   0  0  0  0  0  0  0  0  0  0  0  0
   28.4353    8.1052   49.4361 H   0  0  0  0  0  0  0  0  0  0  0  0
   29.0954   11.4055   47.9945 C   0  0  0  0  0  0  0  0  0  0  0  0
   28.2614   11.4080   49.2513 C   0  0  0  0  0  0  0  0  0  0  0  0
   27.2750   12.3940   49.2648 O   0  0  0  0  0  0  0  0  0  0  0  0
   27.0087   12.5493   48.3241 H   0  0  0  0  0  0  0  0  0  0  0  0
   28.1529    9.7664   53.9970 C   0  0  0  0  0  0  0  0  0  0  0  0
   28.1672    9.5021   55.4531 C   0  0  0  0  0  0  0  0  0  0  0  0
   27.6577   10.4181   56.3450 C   0  0  0  0  0  0  0  0  0  0  0  0
   27.6671   10.2218   57.7278 C   0  0  0  0  0  0  0  0  0  0  0  0
   28.2102    9.0545   58.2565 C   0  0  0  0  0  0  0  0  0  0  0  0
   28.7205    8.1348   57.3694 C   0  0  0  0  0  0  0  0  0  0  0  0
   28.7001    8.3512   56.0095 C   0  0  0  0  0  0  0  0  0  0  0  0
   23.1779    9.4580   55.5960 C   0  0  0  0  0  0  0  0  0  0  0  0
   21.7132    9.4808   55.3317 C   0  0  0  0  0  0  0  0  0  0  0  0
   21.2427   10.7342   54.6271 C   0  0  0  0  0  0  0  0  0  0  0  0
   22.1220   10.9499   53.4751 N   0  0  0  0  0  0  0  0  0  0  0  0
   23.1364   10.9883   53.6484 H   0  0  0  0  0  0  0  0  0  0  0  0
   21.6453   11.1029   52.1644 C   0  0  0  0  0  0  0  0  0  0  0  0
   21.6643   12.3631   51.4880 N   0  0  0  0  0  0  0  0  0  0  0  0
   21.1710   10.0710   51.5427 N   0  0  0  0  0  0  0  0  0  0  0  0
   22.5196   12.6014   50.9493 H   0  0  0  0  0  0  0  0  0  0  0  0
   20.8670   13.0277   51.5204 H   0  0  0  0  0  0  0  0  0  0  0  0
   21.1438    9.1434   52.0078 H   0  0  0  0  0  0  0  0  0  0  0  0
 36 37  1  0  0  0
 37 38  1  0  0  0
 37 32  1  0  0  0
 32 33  1  0  0  0
 32 28  1  0  0  0
 28 29  2  0  0  0
 28 30  1  0  0  0
 30 27  1  0  0  0
 27 40  1  0  0  0
 40 41  1  0  0  0
 41 42  2  0  0  0
 42 43  1  0  0  0
 43 44  2  0  0  0
 44 45  1  0  0  0
 45 46  2  0  0  0
 27 23  1  0  0  0
 23 24  2  0  0  0
 23 25  1  0  0  0
 25  1  1  0  0  0
  1 47  1  0  0  0
 47 48  1  0  0  0
 48 49  1  0  0  0
 49 50  1  0  0  0
 50 52  1  0  0  0
 52 53  1  0  0  0
 52 54  2  0  0  0
  1  2  1  0  0  0
  2  3  2  0  0  0
  2  4  1  0  0  0
  4  6  1  0  0  0
  6 12  1  0  0  0
 12 13  1  0  0  0
 13 14  2  0  0  0
 14 15  1  0  0  0
 15 16  1  0  0  0
 16 17  2  0  0  0
 17 18  1  0  0  0
 18 19  2  0  0  0
 19 20  1  0  0  0
 20 21  2  0  0  0
  6  7  1  0  0  0
  7  8  1  0  0  0
  7  9  2  0  0  0
 46 41  1  0  0  0
 21 13  1  0  0  0
 21 16  1  0  0  0
 38 39  1  0  0  0
 33 34  1  0  0  0
 33 35  1  0  0  0
 30 31  1  0  0  0
 25 26  1  0  0  0
 50 51  1  0  0  0
 53 55  1  0  0  0
 53 56  1  0  0  0
 54 57  1  0  0  0
  4  5  1  0  0  0
 15 22  1  0  0  0
  8 10  1  0  0  0
  8 11  1  0  0  0
M  END
> <minimizedAffinity>
28.12049

> <CNNscore>
0.4626612067

> <CNNaffinity>
6.7633628845

> <CNN_VS>
3.1291456223

> <CNNaffinity_variance>
0.6248827577

$$$$
[H]N=C(N([H])[H])N([H])C([H])([H])C([H])([H])C([H])([H])[C@@]([H])(C(=O)N([H])[C@]([H])(C(=O)N([H])[H])C([H])([H])c1c([H])n([H])c2c([H])c([H])c([H])c([H])c12)N([H])C(=O)[C@@]([H])(N([H])C(=O)[C@]([H])(N([H])[H])[C@]([H])(O[H])C([H])([H])[H])C([H])([H])c1c([H])c([H])c([H])c([H])c1[H]


 57 59  0  0  0  0  0  0  0  0999 V2000
   25.2542    7.8745   53.5321 C   0  0  0  0  0  0  0  0  0  0  0  0
   26.2858    8.0055   54.5861 C   0  0  0  0  0  0  0  0  0  0  0  0
   26.3875    7.1400   55.4836 O   0  0  0  0  0  0  0  0  0  0  0  0
   27.1656    9.1045   54.5843 N   0  0  0  0  0  0  0  0  0  0  0  0
   27.0930    9.8294   53.8362 H   0  0  0  0  0  0  0  0  0  0  0  0
   28.1931    9.2380   55.6477 C   0  0  0  0  0  0  0  0  0  0  0  0
   29.1932    8.2124   55.4244 C   0  0  0  0  0  0  0  0  0  0  0  0
   29.2402    7.4968   54.2035 N   0  0  0  0  0  0  0  0  0  0  0  0
   30.0775    7.8841   56.2806 O   0  0  0  0  0  0  0  0  0  0  0  0
   30.0767    7.4805   53.5999 H   0  0  0  0  0  0  0  0  0  0  0  0
   28.3977    6.9648   53.9100 H   0  0  0  0  0  0  0  0  0  0  0  0
   27.4032    9.0985   56.9371 C   0  0  0  0  0  0  0  0  0  0  0  0
   28.1869    9.3398   58.1489 C   0  0  0  0  0  0  0  0  0  0  0  0
   28.8230    8.4309   58.9543 C   0  0  0  0  0  0  0  0  0  0  0  0
   29.4172    9.0518   59.9816 N   0  0  0  0  0  0  0  0  0  0  0  0
   29.1696   10.3782   59.8500 C   0  0  0  0  0  0  0  0  0  0  0  0
   29.5055   11.4978   60.5813 C   0  0  0  0  0  0  0  0  0  0  0  0
   29.1051   12.7595   60.2085 C   0  0  0  0  0  0  0  0  0  0  0  0
   28.3383   12.9443   59.0658 C   0  0  0  0  0  0  0  0  0  0  0  0
   27.9825   11.8382   58.3073 C   0  0  0  0  0  0  0  0  0  0  0  0
   28.4053   10.5851   58.7166 C   0  0  0  0  0  0  0  0  0  0  0  0
   29.9795    8.6265   60.7644 H   0  0  0  0  0  0  0  0  0  0  0  0
   23.8087    9.2791   55.0270 C   0  0  0  0  0  0  0  0  0  0  0  0
   24.8418    9.8743   55.4608 O   0  0  0  0  0  0  0  0  0  0  0  0
   23.9399    8.2430   54.0528 N   0  0  0  0  0  0  0  0  0  0  0  0
   23.0797    7.7706   53.7344 H   0  0  0  0  0  0  0  0  0  0  0  0
   22.4984    9.7198   55.5766 C   0  0  0  0  0  0  0  0  0  0  0  0
   21.7832   10.4405   53.3059 C   0  0  0  0  0  0  0  0  0  0  0  0
   22.4571    9.4663   52.8165 O   0  0  0  0  0  0  0  0  0  0  0  0
   21.7817   10.5989   54.6926 N   0  0  0  0  0  0  0  0  0  0  0  0
   21.2522   11.3810   55.1230 H   0  0  0  0  0  0  0  0  0  0  0  0
   21.0954   11.2770   52.3257 C   0  0  0  0  0  0  0  0  0  0  0  0
   20.9565   10.4743   51.0971 N   0  0  0  0  0  0  0  0  0  0  0  0
   21.8717   10.6253   50.5653 H   0  0  0  0  0  0  0  0  0  0  0  0
   20.8024    9.4718   51.3149 H   0  0  0  0  0  0  0  0  0  0  0  0
   22.6471   12.5949   50.8299 C   0  0  0  0  0  0  0  0  0  0  0  0
   21.6916   12.5890   51.9970 C   0  0  0  0  0  0  0  0  0  0  0  0
   20.7904   13.6535   51.9863 O   0  0  0  0  0  0  0  0  0  0  0  0
   20.6350   13.8910   51.0379 H   0  0  0  0  0  0  0  0  0  0  0  0
   21.6780    8.5510   56.0789 C   0  0  0  0  0  0  0  0  0  0  0  0
   21.4063    7.6255   54.9565 C   0  0  0  0  0  0  0  0  0  0  0  0
   20.3723    7.8593   54.0790 C   0  0  0  0  0  0  0  0  0  0  0  0
   20.0655    7.0049   53.0177 C   0  0  0  0  0  0  0  0  0  0  0  0
   20.8242    5.8560   52.8137 C   0  0  0  0  0  0  0  0  0  0  0  0
   21.8598    5.6175   53.6876 C   0  0  0  0  0  0  0  0  0  0  0  0
   22.1427    6.4751   54.7273 C   0  0  0  0  0  0  0  0  0  0  0  0
   25.6697    8.7583   52.4006 C   0  0  0  0  0  0  0  0  0  0  0  0
   27.1222    8.7684   52.0754 C   0  0  0  0  0  0  0  0  0  0  0  0
   27.5098    9.8205   51.0596 C   0  0  0  0  0  0  0  0  0  0  0  0
   28.1142    9.1302   49.9173 N   0  0  0  0  0  0  0  0  0  0  0  0
   28.2709    8.1158   49.9999 H   0  0  0  0  0  0  0  0  0  0  0  0
   28.4818    9.7852   48.7322 C   0  0  0  0  0  0  0  0  0  0  0  0
   28.7503    9.0752   47.5199 N   0  0  0  0  0  0  0  0  0  0  0  0
   28.5829   11.0760   48.7320 N   0  0  0  0  0  0  0  0  0  0  0  0
   27.9472    8.8927   46.8873 H   0  0  0  0  0  0  0  0  0  0  0  0
   29.7013    8.7468   47.2626 H   0  0  0  0  0  0  0  0  0  0  0  0
   28.3946   11.6185   49.5966 H   0  0  0  0  0  0  0  0  0  0  0  0
 36 37  1  0  0  0
 37 38  1  0  0  0
 37 32  1  0  0  0
 32 33  1  0  0  0
 32 28  1  0  0  0
 28 29  2  0  0  0
 28 30  1  0  0  0
 30 27  1  0  0  0
 27 40  1  0  0  0
 40 41  1  0  0  0
 41 42  2  0  0  0
 42 43  1  0  0  0
 43 44  2  0  0  0
 44 45  1  0  0  0
 45 46  2  0  0  0
 27 23  1  0  0  0
 23 24  2  0  0  0
 23 25  1  0  0  0
 25  1  1  0  0  0
  1 47  1  0  0  0
 47 48  1  0  0  0
 48 49  1  0  0  0
 49 50  1  0  0  0
 50 52  1  0  0  0
 52 53  1  0  0  0
 52 54  2  0  0  0
  1  2  1  0  0  0
  2  3  2  0  0  0
  2  4  1  0  0  0
  4  6  1  0  0  0
  6 12  1  0  0  0
 12 13  1  0  0  0
 13 14  2  0  0  0
 14 15  1  0  0  0
 15 16  1  0  0  0
 16 17  2  0  0  0
 17 18  1  0  0  0
 18 19  2  0  0  0
 19 20  1  0  0  0
 20 21  2  0  0  0
  6  7  1  0  0  0
  7  8  1  0  0  0
  7  9  2  0  0  0
 46 41  1  0  0  0
 21 13  1  0  0  0
 21 16  1  0  0  0
 38 39  1  0  0  0
 33 34  1  0  0  0
 33 35  1  0  0  0
 30 31  1  0  0  0
 25 26  1  0  0  0
 50 51  1  0  0  0
 53 55  1  0  0  0
 53 56  1  0  0  0
 54 57  1  0  0  0
  4  5  1  0  0  0
 15 22  1  0  0  0
  8 10  1  0  0  0
  8 11  1  0  0  0
M  END
> <minimizedAffinity>
19.83563

> <CNNscore>
0.4591574967

> <CNNaffinity>
6.7993674278

> <CNN_VS>
3.1219804287

> <CNNaffinity_variance>
0.9550343752

$$$$
[H]N=C(N([H])[H])N([H])C([H])([H])C([H])([H])C([H])([H])[C@@]([H])(C(=O)N([H])[C@]([H])(C(=O)N([H])[H])C([H])([H])c1c([H])n([H])c2c([H])c([H])c([H])c([H])c12)N([H])C(=O)[C@@]([H])(N([H])C(=O)[C@]([H])(N([H])[H])[C@]([H])(O[H])C([H])([H])[H])C([H])([H])c1c([H])c([H])c([H])c([H])c1[H]


 57 59  0  0  0  0  0  0  0  0999 V2000
   23.4789    9.0554   55.3805 C   0  0  0  0  0  0  0  0  0  0  0  0
   22.9846    8.0557   54.4064 C   0  0  0  0  0  0  0  0  0  0  0  0
   23.6268    7.8213   53.3587 O   0  0  0  0  0  0  0  0  0  0  0  0
   21.7884    7.3560   54.6537 N   0  0  0  0  0  0  0  0  0  0  0  0
   21.2479    7.5399   55.5281 H   0  0  0  0  0  0  0  0  0  0  0  0
   21.2905    6.3609   53.6708 C   0  0  0  0  0  0  0  0  0  0  0  0
   20.7769    7.0903   52.5279 C   0  0  0  0  0  0  0  0  0  0  0  0
   21.6206    7.4266   51.4416 N   0  0  0  0  0  0  0  0  0  0  0  0
   19.5676    7.4745   52.4154 O   0  0  0  0  0  0  0  0  0  0  0  0
   21.4270    7.1278   50.4734 H   0  0  0  0  0  0  0  0  0  0  0  0
   22.4649    8.0012   51.6313 H   0  0  0  0  0  0  0  0  0  0  0  0
   20.2549    5.5678   54.4479 C   0  0  0  0  0  0  0  0  0  0  0  0
   19.7174    4.4145   53.7254 C   0  0  0  0  0  0  0  0  0  0  0  0
   20.3762    3.5274   52.9139 C   0  0  0  0  0  0  0  0  0  0  0  0
   19.5222    2.6204   52.4221 N   0  0  0  0  0  0  0  0  0  0  0  0
   18.2934    2.9138   52.9141 C   0  0  0  0  0  0  0  0  0  0  0  0
   17.0401    2.3578   52.7693 C   0  0  0  0  0  0  0  0  0  0  0  0
   15.9343    2.8775   53.4004 C   0  0  0  0  0  0  0  0  0  0  0  0
   16.0512    3.9960   54.2149 C   0  0  0  0  0  0  0  0  0  0  0  0
   17.2986    4.5804   54.3817 C   0  0  0  0  0  0  0  0  0  0  0  0
   18.3868    4.0269   53.7289 C   0  0  0  0  0  0  0  0  0  0  0  0
   19.7265    1.8161   51.7732 H   0  0  0  0  0  0  0  0  0  0  0  0
   25.7024    9.2911   56.5195 C   0  0  0  0  0  0  0  0  0  0  0  0
   25.1163    9.3539   57.6430 O   0  0  0  0  0  0  0  0  0  0  0  0
   24.9356    9.1503   55.3229 N   0  0  0  0  0  0  0  0  0  0  0  0
   25.4449    9.1181   54.4263 H   0  0  0  0  0  0  0  0  0  0  0  0
   27.1882    9.3658   56.5312 C   0  0  0  0  0  0  0  0  0  0  0  0
   28.4609   10.5347   58.3204 C   0  0  0  0  0  0  0  0  0  0  0  0
   28.6292   11.5190   57.5170 O   0  0  0  0  0  0  0  0  0  0  0  0
   27.7401    9.4328   57.8574 N   0  0  0  0  0  0  0  0  0  0  0  0
   27.5901    8.6150   58.4788 H   0  0  0  0  0  0  0  0  0  0  0  0
   29.0631   10.6982   59.6411 C   0  0  0  0  0  0  0  0  0  0  0  0
   28.5578    9.5989   60.4834 N   0  0  0  0  0  0  0  0  0  0  0  0
   27.6301    9.9574   60.8757 H   0  0  0  0  0  0  0  0  0  0  0  0
   28.4291    8.7287   59.9333 H   0  0  0  0  0  0  0  0  0  0  0  0
   30.1167   12.7932   60.5808 C   0  0  0  0  0  0  0  0  0  0  0  0
   28.8652   11.9876   60.3362 C   0  0  0  0  0  0  0  0  0  0  0  0
   27.7955   12.7476   59.8634 O   0  0  0  0  0  0  0  0  0  0  0  0
   28.1809   13.4977   59.3450 H   0  0  0  0  0  0  0  0  0  0  0  0
   27.8115    8.2966   55.6595 C   0  0  0  0  0  0  0  0  0  0  0  0
   27.8064    8.7494   54.2506 C   0  0  0  0  0  0  0  0  0  0  0  0
   26.8824    8.2644   53.3533 C   0  0  0  0  0  0  0  0  0  0  0  0
   26.8508    8.6468   52.0104 C   0  0  0  0  0  0  0  0  0  0  0  0
   27.7849    9.5596   51.5295 C   0  0  0  0  0  0  0  0  0  0  0  0
   28.7107   10.0483   52.4223 C   0  0  0  0  0  0  0  0  0  0  0  0
   28.7220    9.6557   53.7422 C   0  0  0  0  0  0  0  0  0  0  0  0
   22.8248   10.3562   55.0428 C   0  0  0  0  0  0  0  0  0  0  0  0
   21.4951   10.2692   54.3798 C   0  0  0  0  0  0  0  0  0  0  0  0
   21.5544   10.4295   52.8765 C   0  0  0  0  0  0  0  0  0  0  0  0
   21.9897   11.8000   52.5952 N   0  0  0  0  0  0  0  0  0  0  0  0
   22.7398   12.1932   53.1811 H   0  0  0  0  0  0  0  0  0  0  0  0
   21.4351   12.5866   51.5744 C   0  0  0  0  0  0  0  0  0  0  0  0
   21.0743   13.9558   51.7770 N   0  0  0  0  0  0  0  0  0  0  0  0
   21.2413   12.0589   50.4081 N   0  0  0  0  0  0  0  0  0  0  0  0
   21.8062   14.6717   51.6030 H   0  0  0  0  0  0  0  0  0  0  0  0
   20.1256   14.2449   52.0849 H   0  0  0  0  0  0  0  0  0  0  0  0
   21.4928   11.0676   50.2309 H   0  0  0  0  0  0  0  0  0  0  0  0
 36 37  1  0  0  0
 37 38  1  0  0  0
 37 32  1  0  0  0
 32 33  1  0  0  0
 32 28  1  0  0  0
 28 29  2  0  0  0
 28 30  1  0  0  0
 30 27  1  0  0  0
 27 40  1  0  0  0
 40 41  1  0  0  0
 41 42  2  0  0  0
 42 43  1  0  0  0
 43 44  2  0  0  0
 44 45  1  0  0  0
 45 46  2  0  0  0
 27 23  1  0  0  0
 23 24  2  0  0  0
 23 25  1  0  0  0
 25  1  1  0  0  0
  1 47  1  0  0  0
 47 48  1  0  0  0
 48 49  1  0  0  0
 49 50  1  0  0  0
 50 52  1  0  0  0
 52 53  1  0  0  0
 52 54  2  0  0  0
  1  2  1  0  0  0
  2  3  2  0  0  0
  2  4  1  0  0  0
  4  6  1  0  0  0
  6 12  1  0  0  0
 12 13  1  0  0  0
 13 14  2  0  0  0
 14 15  1  0  0  0
 15 16  1  0  0  0
 16 17  2  0  0  0
 17 18  1  0  0  0
 18 19  2  0  0  0
 19 20  1  0  0  0
 20 21  2  0  0  0
  6  7  1  0  0  0
  7  8  1  0  0  0
  7  9  2  0  0  0
 46 41  1  0  0  0
 21 13  1  0  0  0
 21 16  1  0  0  0
 38 39  1  0  0  0
 33 34  1  0  0  0
 33 35  1  0  0  0
 30 31  1  0  0  0
 25 26  1  0  0  0
 50 51  1  0  0  0
 53 55  1  0  0  0
 53 56  1  0  0  0
 54 57  1  0  0  0
  4  5  1  0  0  0
 15 22  1  0  0  0
  8 10  1  0  0  0
  8 11  1  0  0  0
M  END
> <minimizedAffinity>
25.72169

> <CNNscore>
0.4523115456

> <CNNaffinity>
6.6941881180

> <CNN_VS>
3.0278584957

> <CNNaffinity_variance>
0.9704598188

$$$$
[H]N=C(N([H])[H])N([H])C([H])([H])C([H])([H])C([H])([H])[C@@]([H])(C(=O)N([H])[C@]([H])(C(=O)N([H])[H])C([H])([H])c1c([H])n([H])c2c([H])c([H])c([H])c([H])c12)N([H])C(=O)[C@@]([H])(N([H])C(=O)[C@]([H])(N([H])[H])[C@]([H])(O[H])C([H])([H])[H])C([H])([H])c1c([H])c([H])c([H])c([H])c1[H]


 57 59  0  0  0  0  0  0  0  0999 V2000
   26.0712    7.4794   53.2121 C   0  0  0  0  0  0  0  0  0  0  0  0
   26.9560    8.0340   54.2619 C   0  0  0  0  0  0  0  0  0  0  0  0
   28.0036    7.4336   54.5892 O   0  0  0  0  0  0  0  0  0  0  0  0
   26.6279    9.2462   54.8981 N   0  0  0  0  0  0  0  0  0  0  0  0
   25.7587    9.7583   54.6280 H   0  0  0  0  0  0  0  0  0  0  0  0
   27.5122    9.7951   55.9568 C   0  0  0  0  0  0  0  0  0  0  0  0
   28.8687    9.7862   55.4453 C   0  0  0  0  0  0  0  0  0  0  0  0
   29.6610    8.6143   55.5073 N   0  0  0  0  0  0  0  0  0  0  0  0
   29.4362   10.7981   54.9192 O   0  0  0  0  0  0  0  0  0  0  0  0
   30.0703    8.1744   54.6687 H   0  0  0  0  0  0  0  0  0  0  0  0
   29.8381    8.1863   56.4370 H   0  0  0  0  0  0  0  0  0  0  0  0
   27.2656    8.8839   57.1462 C   0  0  0  0  0  0  0  0  0  0  0  0
   28.1451    9.1374   58.2877 C   0  0  0  0  0  0  0  0  0  0  0  0
   28.8435    8.2363   59.0493 C   0  0  0  0  0  0  0  0  0  0  0  0
   29.5196    8.8676   60.0178 N   0  0  0  0  0  0  0  0  0  0  0  0
   29.2635   10.1930   59.8917 C   0  0  0  0  0  0  0  0  0  0  0  0
   29.6587   11.3201   60.5805 C   0  0  0  0  0  0  0  0  0  0  0  0
   29.2307   12.5783   60.2271 C   0  0  0  0  0  0  0  0  0  0  0  0
   28.3739   12.7516   59.1482 C   0  0  0  0  0  0  0  0  0  0  0  0
   27.9567   11.6377   58.4337 C   0  0  0  0  0  0  0  0  0  0  0  0
   28.4100   10.3885   58.8217 C   0  0  0  0  0  0  0  0  0  0  0  0
   30.1430    8.4501   60.7573 H   0  0  0  0  0  0  0  0  0  0  0  0
   23.6859    6.7100   53.3355 C   0  0  0  0  0  0  0  0  0  0  0  0
   24.0254    5.5902   52.8451 O   0  0  0  0  0  0  0  0  0  0  0  0
   24.6692    7.7252   53.5412 N   0  0  0  0  0  0  0  0  0  0  0  0
   24.3543    8.6285   53.9274 H   0  0  0  0  0  0  0  0  0  0  0  0
   22.2483    6.8872   53.6748 C   0  0  0  0  0  0  0  0  0  0  0  0
   20.2382    5.4238   53.6023 C   0  0  0  0  0  0  0  0  0  0  0  0
   19.6010    6.3771   53.0296 O   0  0  0  0  0  0  0  0  0  0  0  0
   21.5736    5.6457   53.9421 N   0  0  0  0  0  0  0  0  0  0  0  0
   22.1184    4.8981   54.4131 H   0  0  0  0  0  0  0  0  0  0  0  0
   19.4639    4.2070   53.8332 C   0  0  0  0  0  0  0  0  0  0  0  0
   19.8479    3.2469   52.7825 N   0  0  0  0  0  0  0  0  0  0  0  0
   19.2136    3.4785   51.9535 H   0  0  0  0  0  0  0  0  0  0  0  0
   20.8507    3.3390   52.5335 H   0  0  0  0  0  0  0  0  0  0  0  0
   17.3023    3.4291   54.8843 C   0  0  0  0  0  0  0  0  0  0  0  0
   17.9912    4.3242   53.8846 C   0  0  0  0  0  0  0  0  0  0  0  0
   17.5093    5.6330   53.8818 O   0  0  0  0  0  0  0  0  0  0  0  0
   17.1965    5.8277   54.8006 H   0  0  0  0  0  0  0  0  0  0  0  0
   22.0492    7.9378   54.7463 C   0  0  0  0  0  0  0  0  0  0  0  0
   21.8255    9.2533   54.1064 C   0  0  0  0  0  0  0  0  0  0  0  0
   21.7239   10.4003   54.8601 C   0  0  0  0  0  0  0  0  0  0  0  0
   21.4936   11.6602   54.3031 C   0  0  0  0  0  0  0  0  0  0  0  0
   21.3567   11.7919   52.9243 C   0  0  0  0  0  0  0  0  0  0  0  0
   21.4581   10.6484   52.1657 C   0  0  0  0  0  0  0  0  0  0  0  0
   21.6853    9.4167   52.7383 C   0  0  0  0  0  0  0  0  0  0  0  0
   26.4602    8.1293   51.9235 C   0  0  0  0  0  0  0  0  0  0  0  0
   27.3170    9.3415   52.0327 C   0  0  0  0  0  0  0  0  0  0  0  0
   28.3789    9.4334   50.9589 C   0  0  0  0  0  0  0  0  0  0  0  0
   27.7057    9.7577   49.6985 N   0  0  0  0  0  0  0  0  0  0  0  0
   26.6816    9.8638   49.7170 H   0  0  0  0  0  0  0  0  0  0  0  0
   28.3898    9.9281   48.4854 C   0  0  0  0  0  0  0  0  0  0  0  0
   28.8795   11.2023   48.0583 N   0  0  0  0  0  0  0  0  0  0  0  0
   28.5860    8.8996   47.7237 N   0  0  0  0  0  0  0  0  0  0  0  0
   29.8367   11.4698   48.3596 H   0  0  0  0  0  0  0  0  0  0  0  0
   28.3185   11.8491   47.4707 H   0  0  0  0  0  0  0  0  0  0  0  0
   28.2420    7.9622   48.0068 H   0  0  0  0  0  0  0  0  0  0  0  0
 36 37  1  0  0  0
 37 38  1  0  0  0
 37 32  1  0  0  0
 32 33  1  0  0  0
 32 28  1  0  0  0
 28 29  2  0  0  0
 28 30  1  0  0  0
 30 27  1  0  0  0
 27 40  1  0  0  0
 40 41  1  0  0  0
 41 42  2  0  0  0
 42 43  1  0  0  0
 43 44  2  0  0  0
 44 45  1  0  0  0
 45 46  2  0  0  0
 27 23  1  0  0  0
 23 24  2  0  0  0
 23 25  1  0  0  0
 25  1  1  0  0  0
  1 47  1  0  0  0
 47 48  1  0  0  0
 48 49  1  0  0  0
 49 50  1  0  0  0
 50 52  1  0  0  0
 52 53  1  0  0  0
 52 54  2  0  0  0
  1  2  1  0  0  0
  2  3  2  0  0  0
  2  4  1  0  0  0
  4  6  1  0  0  0
  6 12  1  0  0  0
 12 13  1  0  0  0
 13 14  2  0  0  0
 14 15  1  0  0  0
 15 16  1  0  0  0
 16 17  2  0  0  0
 17 18  1  0  0  0
 18 19  2  0  0  0
 19 20  1  0  0  0
 20 21  2  0  0  0
  6  7  1  0  0  0
  7  8  1  0  0  0
  7  9  2  0  0  0
 46 41  1  0  0  0
 21 13  1  0  0  0
 21 16  1  0  0  0
 38 39  1  0  0  0
 33 34  1  0  0  0
 33 35  1  0  0  0
 30 31  1  0  0  0
 25 26  1  0  0  0
 50 51  1  0  0  0
 53 55  1  0  0  0
 53 56  1  0  0  0
 54 57  1  0  0  0
  4  5  1  0  0  0
 15 22  1  0  0  0
  8 10  1  0  0  0
  8 11  1  0  0  0
M  END
> <minimizedAffinity>
19.15256

> <CNNscore>
0.4316897690

> <CNNaffinity>
6.7323966026

> <CNN_VS>
2.9063067436

> <CNNaffinity_variance>
0.6349540353

$$$$
[H]N=C(N([H])[H])N([H])C([H])([H])C([H])([H])C([H])([H])[C@@]([H])(C(=O)N([H])[C@]([H])(C(=O)N([H])[H])C([H])([H])c1c([H])n([H])c2c([H])c([H])c([H])c([H])c12)N([H])C(=O)[C@@]([H])(N([H])C(=O)[C@]([H])(N([H])[H])[C@]([H])(O[H])C([H])([H])[H])C([H])([H])c1c([H])c([H])c([H])c([H])c1[H]


 57 59  0  0  0  0  0  0  0  0999 V2000
   25.5163    7.1558   53.7095 C   0  0  0  0  0  0  0  0  0  0  0  0
   26.5454    7.7395   54.5998 C   0  0  0  0  0  0  0  0  0  0  0  0
   27.6721    7.2053   54.7006 O   0  0  0  0  0  0  0  0  0  0  0  0
   26.2658    8.9052   55.3379 N   0  0  0  0  0  0  0  0  0  0  0  0
   25.3303    9.3623   55.2562 H   0  0  0  0  0  0  0  0  0  0  0  0
   27.2964    9.4829   56.2367 C   0  0  0  0  0  0  0  0  0  0  0  0
   28.5876    9.2922   55.6056 C   0  0  0  0  0  0  0  0  0  0  0  0
   29.0162   10.1413   54.5566 N   0  0  0  0  0  0  0  0  0  0  0  0
   29.4098    8.3759   55.9327 O   0  0  0  0  0  0  0  0  0  0  0  0
   29.8873   10.6917   54.6069 H   0  0  0  0  0  0  0  0  0  0  0  0
   28.4290   10.2061   53.7023 H   0  0  0  0  0  0  0  0  0  0  0  0
   27.1008    8.7350   57.5436 C   0  0  0  0  0  0  0  0  0  0  0  0
   28.1011    9.0433   58.5661 C   0  0  0  0  0  0  0  0  0  0  0  0
   28.8927    8.1807   59.2793 C   0  0  0  0  0  0  0  0  0  0  0  0
   29.6665    8.8576   60.1378 N   0  0  0  0  0  0  0  0  0  0  0  0
   29.3810   10.1744   59.9874 C   0  0  0  0  0  0  0  0  0  0  0  0
   29.8376   11.3327   60.5798 C   0  0  0  0  0  0  0  0  0  0  0  0
   29.3563   12.5715   60.2262 C   0  0  0  0  0  0  0  0  0  0  0  0
   28.3804   12.6923   59.2458 C   0  0  0  0  0  0  0  0  0  0  0  0
   27.8988   11.5460   58.6298 C   0  0  0  0  0  0  0  0  0  0  0  0
   28.4091   10.3179   59.0145 C   0  0  0  0  0  0  0  0  0  0  0  0
   30.3751    8.4766   60.8179 H   0  0  0  0  0  0  0  0  0  0  0  0
   23.1420    6.3839   53.9632 C   0  0  0  0  0  0  0  0  0  0  0  0
   23.3590    5.4535   53.1285 O   0  0  0  0  0  0  0  0  0  0  0  0
   24.1877    7.2963   54.3007 N   0  0  0  0  0  0  0  0  0  0  0  0
   23.9708    8.0496   54.9714 H   0  0  0  0  0  0  0  0  0  0  0  0
   21.7768    6.4559   54.5499 C   0  0  0  0  0  0  0  0  0  0  0  0
   19.9558    4.9044   53.8689 C   0  0  0  0  0  0  0  0  0  0  0  0
   19.4755    5.8377   53.1334 O   0  0  0  0  0  0  0  0  0  0  0  0
   21.1141    5.1806   54.5969 N   0  0  0  0  0  0  0  0  0  0  0  0
   21.5270    4.4503   55.2082 H   0  0  0  0  0  0  0  0  0  0  0  0
   19.2079    3.6498   53.8511 C   0  0  0  0  0  0  0  0  0  0  0  0
   19.7411    2.8469   52.7357 N   0  0  0  0  0  0  0  0  0  0  0  0
   19.1931    3.1713   51.8769 H   0  0  0  0  0  0  0  0  0  0  0  0
   20.7610    2.9948   52.6162 H   0  0  0  0  0  0  0  0  0  0  0  0
   17.0783    2.6016   52.9861 C   0  0  0  0  0  0  0  0  0  0  0  0
   17.7351    3.7244   53.7496 C   0  0  0  0  0  0  0  0  0  0  0  0
   17.0834    4.0462   54.9400 O   0  0  0  0  0  0  0  0  0  0  0  0
   16.6582    3.2156   55.2703 H   0  0  0  0  0  0  0  0  0  0  0  0
   21.7701    7.2008   55.8677 C   0  0  0  0  0  0  0  0  0  0  0  0
   21.7833    8.6574   55.6066 C   0  0  0  0  0  0  0  0  0  0  0  0
   22.8645    9.4316   55.9613 C   0  0  0  0  0  0  0  0  0  0  0  0
   22.9145   10.8118   55.7532 C   0  0  0  0  0  0  0  0  0  0  0  0
   21.8352   11.4611   55.1613 C   0  0  0  0  0  0  0  0  0  0  0  0
   20.7517   10.6920   54.8040 C   0  0  0  0  0  0  0  0  0  0  0  0
   20.7257    9.3321   55.0198 C   0  0  0  0  0  0  0  0  0  0  0  0
   25.6175    7.8665   52.3985 C   0  0  0  0  0  0  0  0  0  0  0  0
   24.5543    8.8680   52.1115 C   0  0  0  0  0  0  0  0  0  0  0  0
   23.2695    8.6248   52.8725 C   0  0  0  0  0  0  0  0  0  0  0  0
   22.3247    7.9871   51.9518 N   0  0  0  0  0  0  0  0  0  0  0  0
   22.5600    7.0484   51.5997 H   0  0  0  0  0  0  0  0  0  0  0  0
   21.1295    8.5939   51.5375 C   0  0  0  0  0  0  0  0  0  0  0  0
   20.9861   10.0143   51.4485 N   0  0  0  0  0  0  0  0  0  0  0  0
   20.1197    7.8464   51.2245 N   0  0  0  0  0  0  0  0  0  0  0  0
   21.2459   10.4635   50.5489 H   0  0  0  0  0  0  0  0  0  0  0  0
   20.6382   10.5922   52.2380 H   0  0  0  0  0  0  0  0  0  0  0  0
   20.1935    6.8126   51.2796 H   0  0  0  0  0  0  0  0  0  0  0  0
 36 37  1  0  0  0
 37 38  1  0  0  0
 37 32  1  0  0  0
 32 33  1  0  0  0
 32 28  1  0  0  0
 28 29  2  0  0  0
 28 30  1  0  0  0
 30 27  1  0  0  0
 27 40  1  0  0  0
 40 41  1  0  0  0
 41 42  2  0  0  0
 42 43  1  0  0  0
 43 44  2  0  0  0
 44 45  1  0  0  0
 45 46  2  0  0  0
 27 23  1  0  0  0
 23 24  2  0  0  0
 23 25  1  0  0  0
 25  1  1  0  0  0
  1 47  1  0  0  0
 47 48  1  0  0  0
 48 49  1  0  0  0
 49 50  1  0  0  0
 50 52  1  0  0  0
 52 53  1  0  0  0
 52 54  2  0  0  0
  1  2  1  0  0  0
  2  3  2  0  0  0
  2  4  1  0  0  0
  4  6  1  0  0  0
  6 12  1  0  0  0
 12 13  1  0  0  0
 13 14  2  0  0  0
 14 15  1  0  0  0
 15 16  1  0  0  0
 16 17  2  0  0  0
 17 18  1  0  0  0
 18 19  2  0  0  0
 19 20  1  0  0  0
 20 21  2  0  0  0
  6  7  1  0  0  0
  7  8  1  0  0  0
  7  9  2  0  0  0
 46 41  1  0  0  0
 21 13  1  0  0  0
 21 16  1  0  0  0
 38 39  1  0  0  0
 33 34  1  0  0  0
 33 35  1  0  0  0
 30 31  1  0  0  0
 25 26  1  0  0  0
 50 51  1  0  0  0
 53 55  1  0  0  0
 53 56  1  0  0  0
 54 57  1  0  0  0
  4  5  1  0  0  0
 15 22  1  0  0  0
  8 10  1  0  0  0
  8 11  1  0  0  0
M  END
> <minimizedAffinity>
20.97843

> <CNNscore>
0.3986725211

> <CNNaffinity>
6.7294511795

> <CNN_VS>
2.6828472614

> <CNNaffinity_variance>
0.9897344708

$$$$
[H]N=C(N([H])[H])N([H])C([H])([H])C([H])([H])C([H])([H])[C@@]([H])(C(=O)N([H])[C@]([H])(C(=O)N([H])[H])C([H])([H])c1c([H])n([H])c2c([H])c([H])c([H])c([H])c12)N([H])C(=O)[C@@]([H])(N([H])C(=O)[C@]([H])(N([H])[H])[C@]([H])(O[H])C([H])([H])[H])C([H])([H])c1c([H])c([H])c([H])c([H])c1[H]


 57 59  0  0  0  0  0  0  0  0999 V2000
   24.0890    7.4180   53.1349 C   0  0  0  0  0  0  0  0  0  0  0  0
   23.1133    8.5316   53.1446 C   0  0  0  0  0  0  0  0  0  0  0  0
   22.3688    8.7297   52.1590 O   0  0  0  0  0  0  0  0  0  0  0  0
   23.0114    9.3753   54.2670 N   0  0  0  0  0  0  0  0  0  0  0  0
   23.6241    9.2148   55.0973 H   0  0  0  0  0  0  0  0  0  0  0  0
   22.0385   10.4967   54.2702 C   0  0  0  0  0  0  0  0  0  0  0  0
   21.1341   10.2914   55.3845 C   0  0  0  0  0  0  0  0  0  0  0  0
   20.8974    8.9935   55.8986 N   0  0  0  0  0  0  0  0  0  0  0  0
   20.5012   11.2303   55.9681 O   0  0  0  0  0  0  0  0  0  0  0  0
   21.0753    8.7443   56.8838 H   0  0  0  0  0  0  0  0  0  0  0  0
   20.5255    8.2676   55.2554 H   0  0  0  0  0  0  0  0  0  0  0  0
   21.3957   10.4253   52.8964 C   0  0  0  0  0  0  0  0  0  0  0  0
   21.5183   11.6548   52.1127 C   0  0  0  0  0  0  0  0  0  0  0  0
   22.2798   11.8885   50.9969 C   0  0  0  0  0  0  0  0  0  0  0  0
   22.1310   13.1546   50.5861 N   0  0  0  0  0  0  0  0  0  0  0  0
   21.2656   13.7570   51.4384 C   0  0  0  0  0  0  0  0  0  0  0  0
   20.7356   15.0261   51.5352 C   0  0  0  0  0  0  0  0  0  0  0  0
   19.8558   15.3749   52.5329 C   0  0  0  0  0  0  0  0  0  0  0  0
   19.4701   14.4426   53.4869 C   0  0  0  0  0  0  0  0  0  0  0  0
   19.9854   13.1561   53.4185 C   0  0  0  0  0  0  0  0  0  0  0  0
   20.8686   12.8451   52.3988 C   0  0  0  0  0  0  0  0  0  0  0  0
   22.5830   13.6309   49.7623 H   0  0  0  0  0  0  0  0  0  0  0  0
   26.1558    8.5320   54.0206 C   0  0  0  0  0  0  0  0  0  0  0  0
   25.6020    8.6490   55.1560 O   0  0  0  0  0  0  0  0  0  0  0  0
   25.4448    7.9262   52.9402 N   0  0  0  0  0  0  0  0  0  0  0  0
   25.9209    7.8619   52.0272 H   0  0  0  0  0  0  0  0  0  0  0  0
   27.5469    9.0443   53.8951 C   0  0  0  0  0  0  0  0  0  0  0  0
   27.6825    9.3509   56.3598 C   0  0  0  0  0  0  0  0  0  0  0  0
   26.4445    9.6828   56.3572 O   0  0  0  0  0  0  0  0  0  0  0  0
   28.2710    9.0233   55.1374 N   0  0  0  0  0  0  0  0  0  0  0  0
   29.2734    8.7562   55.1012 H   0  0  0  0  0  0  0  0  0  0  0  0
   28.3286    9.3648   57.6697 C   0  0  0  0  0  0  0  0  0  0  0  0
   27.4338    8.6504   58.5984 N   0  0  0  0  0  0  0  0  0  0  0  0
   26.7463    9.3929   58.9434 H   0  0  0  0  0  0  0  0  0  0  0  0
   26.9446    7.8671   58.1257 H   0  0  0  0  0  0  0  0  0  0  0  0
   27.9568   11.8636   57.6825 C   0  0  0  0  0  0  0  0  0  0  0  0
   28.6969   10.6757   58.2449 C   0  0  0  0  0  0  0  0  0  0  0  0
   28.8064   10.6932   59.6352 O   0  0  0  0  0  0  0  0  0  0  0  0
   28.0108   11.1695   59.9818 H   0  0  0  0  0  0  0  0  0  0  0  0
   28.2835    8.3941   52.7435 C   0  0  0  0  0  0  0  0  0  0  0  0
   28.2961    9.3174   51.5870 C   0  0  0  0  0  0  0  0  0  0  0  0
   27.8915    8.8978   50.3403 C   0  0  0  0  0  0  0  0  0  0  0  0
   27.9045    9.7264   49.2160 C   0  0  0  0  0  0  0  0  0  0  0  0
   28.3417   11.0426   49.3324 C   0  0  0  0  0  0  0  0  0  0  0  0
   28.7468   11.4677   50.5767 C   0  0  0  0  0  0  0  0  0  0  0  0
   28.7251   10.6316   51.6707 C   0  0  0  0  0  0  0  0  0  0  0  0
   23.9479    6.7010   54.4388 C   0  0  0  0  0  0  0  0  0  0  0  0
   22.6581    5.9923   54.6614 C   0  0  0  0  0  0  0  0  0  0  0  0
   22.0330    5.4557   53.3923 C   0  0  0  0  0  0  0  0  0  0  0  0
   20.6019    5.7667   53.4391 N   0  0  0  0  0  0  0  0  0  0  0  0
   19.9729    5.0631   53.8509 H   0  0  0  0  0  0  0  0  0  0  0  0
   20.0617    6.9672   52.9537 C   0  0  0  0  0  0  0  0  0  0  0  0
   20.2446    7.3940   51.6008 N   0  0  0  0  0  0  0  0  0  0  0  0
   19.3741    7.7171   53.7545 N   0  0  0  0  0  0  0  0  0  0  0  0
   19.5448    7.0757   50.9026 H   0  0  0  0  0  0  0  0  0  0  0  0
   21.0368    7.9975   51.3066 H   0  0  0  0  0  0  0  0  0  0  0  0
   19.2248    7.4339   54.7419 H   0  0  0  0  0  0  0  0  0  0  0  0
 36 37  1  0  0  0
 37 38  1  0  0  0
 37 32  1  0  0  0
 32 33  1  0  0  0
 32 28  1  0  0  0
 28 29  2  0  0  0
 28 30  1  0  0  0
 30 27  1  0  0  0
 27 40  1  0  0  0
 40 41  1  0  0  0
 41 42  2  0  0  0
 42 43  1  0  0  0
 43 44  2  0  0  0
 44 45  1  0  0  0
 45 46  2  0  0  0
 27 23  1  0  0  0
 23 24  2  0  0  0
 23 25  1  0  0  0
 25  1  1  0  0  0
  1 47  1  0  0  0
 47 48  1  0  0  0
 48 49  1  0  0  0
 49 50  1  0  0  0
 50 52  1  0  0  0
 52 53  1  0  0  0
 52 54  2  0  0  0
  1  2  1  0  0  0
  2  3  2  0  0  0
  2  4  1  0  0  0
  4  6  1  0  0  0
  6 12  1  0  0  0
 12 13  1  0  0  0
 13 14  2  0  0  0
 14 15  1  0  0  0
 15 16  1  0  0  0
 16 17  2  0  0  0
 17 18  1  0  0  0
 18 19  2  0  0  0
 19 20  1  0  0  0
 20 21  2  0  0  0
  6  7  1  0  0  0
  7  8  1  0  0  0
  7  9  2  0  0  0
 46 41  1  0  0  0
 21 13  1  0  0  0
 21 16  1  0  0  0
 38 39  1  0  0  0
 33 34  1  0  0  0
 33 35  1  0  0  0
 30 31  1  0  0  0
 25 26  1  0  0  0
 50 51  1  0  0  0
 53 55  1  0  0  0
 53 56  1  0  0  0
 54 57  1  0  0  0
  4  5  1  0  0  0
 15 22  1  0  0  0
  8 10  1  0  0  0
  8 11  1  0  0  0
M  END
> <minimizedAffinity>
26.74748

> <CNNscore>
0.3960292339

> <CNNaffinity>
6.9301514626

> <CNN_VS>
2.7445425987

> <CNNaffinity_variance>
1.0976281166

$$$$
[H]N=C(N([H])[H])N([H])C([H])([H])C([H])([H])C([H])([H])[C@@]([H])(C(=O)N([H])[C@]([H])(C(=O)N([H])[H])C([H])([H])c1c([H])n([H])c2c([H])c([H])c([H])c([H])c12)N([H])C(=O)[C@@]([H])(N([H])C(=O)[C@]([H])(N([H])[H])[C@]([H])(O[H])C([H])([H])[H])C([H])([H])c1c([H])c([H])c([H])c([H])c1[H]


 57 59  0  0  0  0  0  0  0  0999 V2000
   24.9222    8.0417   54.3506 C   0  0  0  0  0  0  0  0  0  0  0  0
   26.1577    8.7107   54.8181 C   0  0  0  0  0  0  0  0  0  0  0  0
   26.9812    9.1670   53.9942 O   0  0  0  0  0  0  0  0  0  0  0  0
   26.4142    8.8435   56.1959 N   0  0  0  0  0  0  0  0  0  0  0  0
   25.7303    8.4713   56.8919 H   0  0  0  0  0  0  0  0  0  0  0  0
   27.6582    9.5065   56.6616 C   0  0  0  0  0  0  0  0  0  0  0  0
   28.6084    9.4780   55.5669 C   0  0  0  0  0  0  0  0  0  0  0  0
   29.0997   10.6788   54.9997 N   0  0  0  0  0  0  0  0  0  0  0  0
   29.0595    8.4069   55.0455 O   0  0  0  0  0  0  0  0  0  0  0  0
   30.1053   10.9066   54.9639 H   0  0  0  0  0  0  0  0  0  0  0  0
   28.4169   11.3524   54.6009 H   0  0  0  0  0  0  0  0  0  0  0  0
   28.0617    8.7051   57.8865 C   0  0  0  0  0  0  0  0  0  0  0  0
   28.7929    9.4757   58.8927 C   0  0  0  0  0  0  0  0  0  0  0  0
   29.6933    9.0314   59.8262 C   0  0  0  0  0  0  0  0  0  0  0  0
   30.1277   10.0505   60.5790 N   0  0  0  0  0  0  0  0  0  0  0  0
   29.5081   11.1724   60.1368 C   0  0  0  0  0  0  0  0  0  0  0  0
   29.5413   12.5003   60.5065 C   0  0  0  0  0  0  0  0  0  0  0  0
   28.7840   13.4542   59.8680 C   0  0  0  0  0  0  0  0  0  0  0  0
   27.9506   13.1006   58.8152 C   0  0  0  0  0  0  0  0  0  0  0  0
   27.8934   11.7723   58.4182 C   0  0  0  0  0  0  0  0  0  0  0  0
   28.6712   10.8425   59.0869 C   0  0  0  0  0  0  0  0  0  0  0  0
   30.8188   10.0267   61.3736 H   0  0  0  0  0  0  0  0  0  0  0  0
   23.1679    9.7470   54.9088 C   0  0  0  0  0  0  0  0  0  0  0  0
   23.3380    9.5125   56.1440 O   0  0  0  0  0  0  0  0  0  0  0  0
   23.9296    9.0303   53.9361 N   0  0  0  0  0  0  0  0  0  0  0  0
   23.7539    9.2361   52.9406 H   0  0  0  0  0  0  0  0  0  0  0  0
   22.1625   10.7844   54.5536 C   0  0  0  0  0  0  0  0  0  0  0  0
   21.5471   12.3258   52.7008 C   0  0  0  0  0  0  0  0  0  0  0  0
   20.4506   12.5785   53.3145 O   0  0  0  0  0  0  0  0  0  0  0  0
   22.4333   11.4263   53.2955 N   0  0  0  0  0  0  0  0  0  0  0  0
   23.3278   11.1932   52.8234 H   0  0  0  0  0  0  0  0  0  0  0  0
   21.7255   13.0241   51.4304 C   0  0  0  0  0  0  0  0  0  0  0  0
   23.1768   13.1843   51.2275 N   0  0  0  0  0  0  0  0  0  0  0  0
   23.4286   14.0859   51.7442 H   0  0  0  0  0  0  0  0  0  0  0  0
   23.7032   12.3713   51.5993 H   0  0  0  0  0  0  0  0  0  0  0  0
   20.1050   14.7226   52.3639 C   0  0  0  0  0  0  0  0  0  0  0  0
   21.0530   14.3292   51.2586 C   0  0  0  0  0  0  0  0  0  0  0  0
   21.8884   15.3662   50.8440 O   0  0  0  0  0  0  0  0  0  0  0  0
   22.0342   15.9513   51.6291 H   0  0  0  0  0  0  0  0  0  0  0  0
   20.7472   10.2639   54.6857 C   0  0  0  0  0  0  0  0  0  0  0  0
   20.5365    9.1671   53.7148 C   0  0  0  0  0  0  0  0  0  0  0  0
   21.0002    9.2650   52.4227 C   0  0  0  0  0  0  0  0  0  0  0  0
   20.8084    8.2654   51.4663 C   0  0  0  0  0  0  0  0  0  0  0  0
   20.1198    7.1051   51.8079 C   0  0  0  0  0  0  0  0  0  0  0  0
   19.6544    7.0014   53.0985 C   0  0  0  0  0  0  0  0  0  0  0  0
   19.8559    8.0012   54.0240 C   0  0  0  0  0  0  0  0  0  0  0  0
   25.3118    7.1412   53.2232 C   0  0  0  0  0  0  0  0  0  0  0  0
   24.4617    5.9359   53.0225 C   0  0  0  0  0  0  0  0  0  0  0  0
   22.9970    6.2535   52.8155 C   0  0  0  0  0  0  0  0  0  0  0  0
   22.2572    5.6808   53.9431 N   0  0  0  0  0  0  0  0  0  0  0  0
   21.4829    5.0364   53.7291 H   0  0  0  0  0  0  0  0  0  0  0  0
   22.5570    5.9694   55.2830 C   0  0  0  0  0  0  0  0  0  0  0  0
   21.7806    6.8876   56.0577 N   0  0  0  0  0  0  0  0  0  0  0  0
   23.5703    5.3875   55.8406 N   0  0  0  0  0  0  0  0  0  0  0  0
   20.9644    6.5043   56.5729 H   0  0  0  0  0  0  0  0  0  0  0  0
   22.0057    7.8996   56.1172 H   0  0  0  0  0  0  0  0  0  0  0  0
   24.1526    4.7167   55.3037 H   0  0  0  0  0  0  0  0  0  0  0  0
 36 37  1  0  0  0
 37 38  1  0  0  0
 37 32  1  0  0  0
 32 33  1  0  0  0
 32 28  1  0  0  0
 28 29  2  0  0  0
 28 30  1  0  0  0
 30 27  1  0  0  0
 27 40  1  0  0  0
 40 41  1  0  0  0
 41 42  2  0  0  0
 42 43  1  0  0  0
 43 44  2  0  0  0
 44 45  1  0  0  0
 45 46  2  0  0  0
 27 23  1  0  0  0
 23 24  2  0  0  0
 23 25  1  0  0  0
 25  1  1  0  0  0
  1 47  1  0  0  0
 47 48  1  0  0  0
 48 49  1  0  0  0
 49 50  1  0  0  0
 50 52  1  0  0  0
 52 53  1  0  0  0
 52 54  2  0  0  0
  1  2  1  0  0  0
  2  3  2  0  0  0
  2  4  1  0  0  0
  4  6  1  0  0  0
  6 12  1  0  0  0
 12 13  1  0  0  0
 13 14  2  0  0  0
 14 15  1  0  0  0
 15 16  1  0  0  0
 16 17  2  0  0  0
 17 18  1  0  0  0
 18 19  2  0  0  0
 19 20  1  0  0  0
 20 21  2  0  0  0
  6  7  1  0  0  0
  7  8  1  0  0  0
  7  9  2  0  0  0
 46 41  1  0  0  0
 21 13  1  0  0  0
 21 16  1  0  0  0
 38 39  1  0  0  0
 33 34  1  0  0  0
 33 35  1  0  0  0
 30 31  1  0  0  0
 25 26  1  0  0  0
 50 51  1  0  0  0
 53 55  1  0  0  0
 53 56  1  0  0  0
 54 57  1  0  0  0
  4  5  1  0  0  0
 15 22  1  0  0  0
  8 10  1  0  0  0
  8 11  1  0  0  0
M  END
> <minimizedAffinity>
17.35819

> <CNNscore>
0.3907361627

> <CNNaffinity>
6.6444702148

> <CNN_VS>
2.5962347984

> <CNNaffinity_variance>
1.0509566069

$$$$
[H]N=C(N([H])[H])N([H])C([H])([H])C([H])([H])C([H])([H])[C@@]([H])(C(=O)N([H])[C@]([H])(C(=O)N([H])[H])C([H])([H])c1c([H])n([H])c2c([H])c([H])c([H])c([H])c12)N([H])C(=O)[C@@]([H])(N([H])C(=O)[C@]([H])(N([H])[H])[C@]([H])(O[H])C([H])([H])[H])C([H])([H])c1c([H])c([H])c([H])c([H])c1[H]


 57 59  0  0  0  0  0  0  0  0999 V2000
   25.1674    7.6169   53.6334 C   0  0  0  0  0  0  0  0  0  0  0  0
   26.3413    8.0541   54.4229 C   0  0  0  0  0  0  0  0  0  0  0  0
   27.4656    7.5442   54.2210 O   0  0  0  0  0  0  0  0  0  0  0  0
   26.2027    9.0526   55.4056 N   0  0  0  0  0  0  0  0  0  0  0  0
   25.2697    9.4889   55.5777 H   0  0  0  0  0  0  0  0  0  0  0  0
   27.3797    9.4824   56.2019 C   0  0  0  0  0  0  0  0  0  0  0  0
   28.5679    9.1873   55.4254 C   0  0  0  0  0  0  0  0  0  0  0  0
   29.0000   10.0606   54.3980 N   0  0  0  0  0  0  0  0  0  0  0  0
   29.2915    8.1535   55.5993 O   0  0  0  0  0  0  0  0  0  0  0  0
   29.9361   10.4941   54.3933 H   0  0  0  0  0  0  0  0  0  0  0  0
   28.3463   10.2666   53.6175 H   0  0  0  0  0  0  0  0  0  0  0  0
   27.2467    8.7032   57.4984 C   0  0  0  0  0  0  0  0  0  0  0  0
   28.2126    9.0852   58.5289 C   0  0  0  0  0  0  0  0  0  0  0  0
   29.0404    8.2811   59.2691 C   0  0  0  0  0  0  0  0  0  0  0  0
   29.7622    9.0155   60.1256 N   0  0  0  0  0  0  0  0  0  0  0  0
   29.4059   10.3113   59.9469 C   0  0  0  0  0  0  0  0  0  0  0  0
   29.7881   11.5036   60.5242 C   0  0  0  0  0  0  0  0  0  0  0  0
   29.2438   12.7070   60.1410 C   0  0  0  0  0  0  0  0  0  0  0  0
   28.2775   12.7556   59.1450 C   0  0  0  0  0  0  0  0  0  0  0  0
   27.8700   11.5734   58.5435 C   0  0  0  0  0  0  0  0  0  0  0  0
   28.4422   10.3828   58.9580 C   0  0  0  0  0  0  0  0  0  0  0  0
   30.4806    8.6869   60.8225 H   0  0  0  0  0  0  0  0  0  0  0  0
   23.4377    6.8048   55.2599 C   0  0  0  0  0  0  0  0  0  0  0  0
   23.1336    8.0063   55.5311 O   0  0  0  0  0  0  0  0  0  0  0  0
   24.4700    6.5276   54.3126 N   0  0  0  0  0  0  0  0  0  0  0  0
   24.7008    5.5391   54.1284 H   0  0  0  0  0  0  0  0  0  0  0  0
   22.6716    5.7419   55.9648 C   0  0  0  0  0  0  0  0  0  0  0  0
   21.2576    5.5334   53.9290 C   0  0  0  0  0  0  0  0  0  0  0  0
   22.2414    5.9748   53.2361 O   0  0  0  0  0  0  0  0  0  0  0  0
   21.4385    5.4036   55.3068 N   0  0  0  0  0  0  0  0  0  0  0  0
   20.6609    5.0555   55.8998 H   0  0  0  0  0  0  0  0  0  0  0  0
   20.0497    5.2229   53.1688 C   0  0  0  0  0  0  0  0  0  0  0  0
   19.1316    6.3642   53.3348 N   0  0  0  0  0  0  0  0  0  0  0  0
   18.5998    6.1598   54.2396 H   0  0  0  0  0  0  0  0  0  0  0  0
   19.6491    7.2616   53.3905 H   0  0  0  0  0  0  0  0  0  0  0  0
   17.9259    4.1236   53.9834 C   0  0  0  0  0  0  0  0  0  0  0  0
   19.3398    3.9648   53.4825 C   0  0  0  0  0  0  0  0  0  0  0  0
   19.4840    2.9592   52.5269 O   0  0  0  0  0  0  0  0  0  0  0  0
   18.6253    2.9000   52.0379 H   0  0  0  0  0  0  0  0  0  0  0  0
   23.5407    4.5469   56.2935 C   0  0  0  0  0  0  0  0  0  0  0  0
   23.4492    4.2588   57.7422 C   0  0  0  0  0  0  0  0  0  0  0  0
   24.3006    3.3589   58.3414 C   0  0  0  0  0  0  0  0  0  0  0  0
   24.2395    3.0402   59.6998 C   0  0  0  0  0  0  0  0  0  0  0  0
   23.2832    3.6459   60.5095 C   0  0  0  0  0  0  0  0  0  0  0  0
   22.4296    4.5470   59.9159 C   0  0  0  0  0  0  0  0  0  0  0  0
   22.5093    4.8448   58.5737 C   0  0  0  0  0  0  0  0  0  0  0  0
   24.2885    8.8128   53.4568 C   0  0  0  0  0  0  0  0  0  0  0  0
   23.2788    8.7297   52.3663 C   0  0  0  0  0  0  0  0  0  0  0  0
   22.1131    9.6775   52.5444 C   0  0  0  0  0  0  0  0  0  0  0  0
   21.1058    8.9909   53.3574 N   0  0  0  0  0  0  0  0  0  0  0  0
   20.5289    8.2724   52.8977 H   0  0  0  0  0  0  0  0  0  0  0  0
   20.8992    9.2677   54.7173 C   0  0  0  0  0  0  0  0  0  0  0  0
   21.4198   10.4432   55.3442 N   0  0  0  0  0  0  0  0  0  0  0  0
   20.2149    8.4331   55.4325 N   0  0  0  0  0  0  0  0  0  0  0  0
   20.8258   11.2948   55.3268 H   0  0  0  0  0  0  0  0  0  0  0  0
   22.3507   10.4666   55.8039 H   0  0  0  0  0  0  0  0  0  0  0  0
   19.8246    7.5712   55.0056 H   0  0  0  0  0  0  0  0  0  0  0  0
 36 37  1  0  0  0
 37 38  1  0  0  0
 37 32  1  0  0  0
 32 33  1  0  0  0
 32 28  1  0  0  0
 28 29  2  0  0  0
 28 30  1  0  0  0
 30 27  1  0  0  0
 27 40  1  0  0  0
 40 41  1  0  0  0
 41 42  2  0  0  0
 42 43  1  0  0  0
 43 44  2  0  0  0
 44 45  1  0  0  0
 45 46  2  0  0  0
 27 23  1  0  0  0
 23 24  2  0  0  0
 23 25  1  0  0  0
 25  1  1  0  0  0
  1 47  1  0  0  0
 47 48  1  0  0  0
 48 49  1  0  0  0
 49 50  1  0  0  0
 50 52  1  0  0  0
 52 53  1  0  0  0
 52 54  2  0  0  0
  1  2  1  0  0  0
  2  3  2  0  0  0
  2  4  1  0  0  0
  4  6  1  0  0  0
  6 12  1  0  0  0
 12 13  1  0  0  0
 13 14  2  0  0  0
 14 15  1  0  0  0
 15 16  1  0  0  0
 16 17  2  0  0  0
 17 18  1  0  0  0
 18 19  2  0  0  0
 19 20  1  0  0  0
 20 21  2  0  0  0
  6  7  1  0  0  0
  7  8  1  0  0  0
  7  9  2  0  0  0
 46 41  1  0  0  0
 21 13  1  0  0  0
 21 16  1  0  0  0
 38 39  1  0  0  0
 33 34  1  0  0  0
 33 35  1  0  0  0
 30 31  1  0  0  0
 25 26  1  0  0  0
 50 51  1  0  0  0
 53 55  1  0  0  0
 53 56  1  0  0  0
 54 57  1  0  0  0
  4  5  1  0  0  0
 15 22  1  0  0  0
  8 10  1  0  0  0
  8 11  1  0  0  0
M  END
> <minimizedAffinity>
23.46256

> <CNNscore>
0.3897487521

> <CNNaffinity>
6.5892858505

> <CNN_VS>
2.5681660175

> <CNNaffinity_variance>
0.5811729431

$$$$
[H]c1c([H])c([H])c2c(c1[H])C([H])([H])[C@@]1([H])O[C@]2(C([H])([H])[H])[C@]1([H])N([H])C(=O)c1c([H])c(OC([H])([H])[H])c(OC([H])([H])[H])c(OC([H])([H])[H])c1[H]


 28 31  0  0  0  0  0  0  0  0999 V2000
   23.5551    9.4012   55.2696 C   0  0  0  0  0  0  0  0  0  0  0  0
   23.0031    9.8604   56.3004 O   0  0  0  0  0  0  0  0  0  0  0  0
   24.9563    9.2727   55.2494 N   0  0  0  0  0  0  0  0  0  0  0  0
   25.4475    8.8977   54.4133 H   0  0  0  0  0  0  0  0  0  0  0  0
   25.7959    9.6500   56.3760 C   0  0  0  0  0  0  0  0  0  0  0  0
   26.7395   10.7599   55.9685 C   0  0  0  0  0  0  0  0  0  0  0  0
   27.2683   11.4437   57.1991 C   0  0  0  0  0  0  0  0  0  0  0  0
   28.0009   10.4301   58.0035 C   0  0  0  0  0  0  0  0  0  0  0  0
   28.7172   10.7810   59.1180 C   0  0  0  0  0  0  0  0  0  0  0  0
   29.3790    9.8060   59.8303 C   0  0  0  0  0  0  0  0  0  0  0  0
   29.2960    8.5041   59.3927 C   0  0  0  0  0  0  0  0  0  0  0  0
   28.5595    8.1560   58.2498 C   0  0  0  0  0  0  0  0  0  0  0  0
   27.9073    9.1305   57.5512 C   0  0  0  0  0  0  0  0  0  0  0  0
   27.1045    8.8910   56.3394 C   0  0  0  0  0  0  0  0  0  0  0  0
   26.9413    7.4931   55.8780 C   0  0  0  0  0  0  0  0  0  0  0  0
   27.5468    9.8178   55.3652 O   0  0  0  0  0  0  0  0  0  0  0  0
   21.5638    9.5503   52.1696 C   0  0  0  0  0  0  0  0  0  0  0  0
   22.3516    9.9557   53.2280 C   0  0  0  0  0  0  0  0  0  0  0  0
   22.7398    9.0267   54.1556 C   0  0  0  0  0  0  0  0  0  0  0  0
   22.3225    7.7131   53.9897 C   0  0  0  0  0  0  0  0  0  0  0  0
   21.5369    7.3011   52.9371 C   0  0  0  0  0  0  0  0  0  0  0  0
   21.1627    8.2541   52.0225 C   0  0  0  0  0  0  0  0  0  0  0  0
   21.4628   11.8851   51.4139 C   0  0  0  0  0  0  0  0  0  0  0  0
   21.1797   10.5163   51.2354 O   0  0  0  0  0  0  0  0  0  0  0  0
   21.1107    6.0025   52.7525 O   0  0  0  0  0  0  0  0  0  0  0  0
   19.9252    5.5702   53.3900 C   0  0  0  0  0  0  0  0  0  0  0  0
   20.3596    7.9147   50.9168 O   0  0  0  0  0  0  0  0  0  0  0  0
   18.9949    8.3298   50.9148 C   0  0  0  0  0  0  0  0  0  0  0  0
 23 24  1  0  0  0
 24 17  1  0  0  0
 17 18  2  0  0  0
 18 19  1  0  0  0
 19 20  2  0  0  0
 20 21  1  0  0  0
 21 25  1  0  0  0
 25 26  1  0  0  0
 21 22  2  0  0  0
 22 27  1  0  0  0
 27 28  1  0  0  0
 19  1  1  0  0  0
  1  2  2  0  0  0
  1  3  1  0  0  0
  3  5  1  0  0  0
  5  6  1  0  0  0
  6  7  1  0  0  0
  7  8  1  0  0  0
  8  9  2  0  0  0
  9 10  1  0  0  0
 10 11  2  0  0  0
 11 12  1  0  0  0
 12 13  2  0  0  0
 13 14  1  0  0  0
 14 15  1  0  0  0
 14 16  1  0  0  0
 22 17  1  0  0  0
 14  5  1  0  0  0
 16  6  1  0  0  0
 13  8  1  0  0  0
  3  4  1  0  0  0
M  END
> <minimizedAffinity>
23.64767

> <CNNscore>
0.5185533762

> <CNNaffinity>
5.6014623642

> <CNN_VS>
2.9046571255

> <CNNaffinity_variance>
0.1048335209

$$$$
[H]c1c([H])c([H])c2c(c1[H])C([H])([H])[C@@]1([H])O[C@]2(C([H])([H])[H])[C@]1([H])N([H])C(=O)c1c([H])c(OC([H])([H])[H])c(OC([H])([H])[H])c(OC([H])([H])[H])c1[H]


 28 31  0  0  0  0  0  0  0  0999 V2000
   23.9260    9.4861   55.5081 C   0  0  0  0  0  0  0  0  0  0  0  0
   23.3616   10.5989   55.6539 O   0  0  0  0  0  0  0  0  0  0  0  0
   25.2091    9.2985   56.0545 N   0  0  0  0  0  0  0  0  0  0  0  0
   25.7071    8.3914   55.9525 H   0  0  0  0  0  0  0  0  0  0  0  0
   25.9124   10.3423   56.7842 C   0  0  0  0  0  0  0  0  0  0  0  0
   26.6881   11.2135   55.8210 C   0  0  0  0  0  0  0  0  0  0  0  0
   27.0301   12.5164   56.4895 C   0  0  0  0  0  0  0  0  0  0  0  0
   27.8684   12.2112   57.6791 C   0  0  0  0  0  0  0  0  0  0  0  0
   28.4550   13.2061   58.4169 C   0  0  0  0  0  0  0  0  0  0  0  0
   29.2226   12.8732   59.5105 C   0  0  0  0  0  0  0  0  0  0  0  0
   29.3736   11.5421   59.8247 C   0  0  0  0  0  0  0  0  0  0  0  0
   28.7683   10.5312   59.0620 C   0  0  0  0  0  0  0  0  0  0  0  0
   28.0095   10.8725   57.9800 C   0  0  0  0  0  0  0  0  0  0  0  0
   27.3254    9.9054   57.1041 C   0  0  0  0  0  0  0  0  0  0  0  0
   27.4141    8.4684   57.4514 C   0  0  0  0  0  0  0  0  0  0  0  0
   27.6685   10.2440   55.7732 O   0  0  0  0  0  0  0  0  0  0  0  0
   21.4999    7.7029   53.3793 C   0  0  0  0  0  0  0  0  0  0  0  0
   22.1268    8.7318   54.0527 C   0  0  0  0  0  0  0  0  0  0  0  0
   23.2442    8.4520   54.7925 C   0  0  0  0  0  0  0  0  0  0  0  0
   23.6990    7.1411   54.8326 C   0  0  0  0  0  0  0  0  0  0  0  0
   23.0794    6.1097   54.1638 C   0  0  0  0  0  0  0  0  0  0  0  0
   21.9612    6.4194   53.4301 C   0  0  0  0  0  0  0  0  0  0  0  0
   20.4086    8.1909   51.2337 C   0  0  0  0  0  0  0  0  0  0  0  0
   20.3610    8.0124   52.6307 O   0  0  0  0  0  0  0  0  0  0  0  0
   23.5132    4.8008   54.1893 O   0  0  0  0  0  0  0  0  0  0  0  0
   23.7485    4.1781   55.4366 C   0  0  0  0  0  0  0  0  0  0  0  0
   21.2691    5.4220   52.7167 O   0  0  0  0  0  0  0  0  0  0  0  0
   20.2326    4.7042   53.3839 C   0  0  0  0  0  0  0  0  0  0  0  0
 23 24  1  0  0  0
 24 17  1  0  0  0
 17 18  2  0  0  0
 18 19  1  0  0  0
 19 20  2  0  0  0
 20 21  1  0  0  0
 21 25  1  0  0  0
 25 26  1  0  0  0
 21 22  2  0  0  0
 22 27  1  0  0  0
 27 28  1  0  0  0
 19  1  1  0  0  0
  1  2  2  0  0  0
  1  3  1  0  0  0
  3  5  1  0  0  0
  5  6  1  0  0  0
  6  7  1  0  0  0
  7  8  1  0  0  0
  8  9  2  0  0  0
  9 10  1  0  0  0
 10 11  2  0  0  0
 11 12  1  0  0  0
 12 13  2  0  0  0
 13 14  1  0  0  0
 14 15  1  0  0  0
 14 16  1  0  0  0
 22 17  1  0  0  0
 14  5  1  0  0  0
 16  6  1  0  0  0
 13  8  1  0  0  0
  3  4  1  0  0  0
M  END
> <minimizedAffinity>
33.84830

> <CNNscore>
0.4591535628

> <CNNaffinity>
5.3207111359

> <CNN_VS>
2.4430234432

> <CNNaffinity_variance>
0.1380964071

$$$$
[H]c1c([H])c([H])c2c(c1[H])C([H])([H])[C@@]1([H])O[C@]2(C([H])([H])[H])[C@]1([H])N([H])C(=O)c1c([H])c(OC([H])([H])[H])c(OC([H])([H])[H])c(OC([H])([H])[H])c1[H]


 28 31  0  0  0  0  0  0  0  0999 V2000
   21.1143    6.0443   54.1996 C   0  0  0  0  0  0  0  0  0  0  0  0
   20.8288    7.2664   54.1469 O   0  0  0  0  0  0  0  0  0  0  0  0
   22.4000    5.6650   54.6277 N   0  0  0  0  0  0  0  0  0  0  0  0
   22.6721    4.6629   54.6828 H   0  0  0  0  0  0  0  0  0  0  0  0
   23.4163    6.6317   55.0138 C   0  0  0  0  0  0  0  0  0  0  0  0
   22.9813    8.0252   54.6172 C   0  0  0  0  0  0  0  0  0  0  0  0
   23.7787    9.0376   55.3924 C   0  0  0  0  0  0  0  0  0  0  0  0
   25.2134    8.8427   55.0538 C   0  0  0  0  0  0  0  0  0  0  0  0
   26.1786    9.7087   55.4974 C   0  0  0  0  0  0  0  0  0  0  0  0
   27.4941    9.4859   55.1573 C   0  0  0  0  0  0  0  0  0  0  0  0
   27.7936    8.3923   54.3778 C   0  0  0  0  0  0  0  0  0  0  0  0
   26.7970    7.5117   53.9289 C   0  0  0  0  0  0  0  0  0  0  0  0
   25.4961    7.7421   54.2719 C   0  0  0  0  0  0  0  0  0  0  0  0
   24.3641    6.8925   53.8633 C   0  0  0  0  0  0  0  0  0  0  0  0
   24.6585    5.6718   53.0779 C   0  0  0  0  0  0  0  0  0  0  0  0
   23.3788    7.7541   53.3243 O   0  0  0  0  0  0  0  0  0  0  0  0
   19.4834    3.0439   52.8084 C   0  0  0  0  0  0  0  0  0  0  0  0
   20.4728    3.9422   53.1537 C   0  0  0  0  0  0  0  0  0  0  0  0
   20.1231    5.0843   53.8226 C   0  0  0  0  0  0  0  0  0  0  0  0
   18.7838    5.2891   54.1252 C   0  0  0  0  0  0  0  0  0  0  0  0
   17.7914    4.3981   53.7842 C   0  0  0  0  0  0  0  0  0  0  0  0
   18.1712    3.2617   53.1140 C   0  0  0  0  0  0  0  0  0  0  0  0
   20.9533    1.0943   52.5427 C   0  0  0  0  0  0  0  0  0  0  0  0
   19.8641    1.8852   52.1259 O   0  0  0  0  0  0  0  0  0  0  0  0
   16.4555    4.5808   54.0742 O   0  0  0  0  0  0  0  0  0  0  0  0
   15.9228    4.0090   55.2524 C   0  0  0  0  0  0  0  0  0  0  0  0
   17.2172    2.3001   52.7293 O   0  0  0  0  0  0  0  0  0  0  0  0
   15.8366    2.6556   52.7759 C   0  0  0  0  0  0  0  0  0  0  0  0
 23 24  1  0  0  0
 24 17  1  0  0  0
 17 18  2  0  0  0
 18 19  1  0  0  0
 19 20  2  0  0  0
 20 21  1  0  0  0
 21 25  1  0  0  0
 25 26  1  0  0  0
 21 22  2  0  0  0
 22 27  1  0  0  0
 27 28  1  0  0  0
 19  1  1  0  0  0
  1  2  2  0  0  0
  1  3  1  0  0  0
  3  5  1  0  0  0
  5  6  1  0  0  0
  6  7  1  0  0  0
  7  8  1  0  0  0
  8  9  2  0  0  0
  9 10  1  0  0  0
 10 11  2  0  0  0
 11 12  1  0  0  0
 12 13  2  0  0  0
 13 14  1  0  0  0
 14 15  1  0  0  0
 14 16  1  0  0  0
 22 17  1  0  0  0
 14  5  1  0  0  0
 16  6  1  0  0  0
 13  8  1  0  0  0
  3  4  1  0  0  0
M  END
> <minimizedAffinity>
31.22336

> <CNNscore>
0.4572815895

> <CNNaffinity>
5.6598501205

> <CNN_VS>
2.5881452560

> <CNNaffinity_variance>
0.2449830472

$$$$
[H]c1c([H])c([H])c2c(c1[H])C([H])([H])[C@@]1([H])O[C@]2(C([H])([H])[H])[C@]1([H])N([H])C(=O)c1c([H])c(OC([H])([H])[H])c(OC([H])([H])[H])c(OC([H])([H])[H])c1[H]


 28 31  0  0  0  0  0  0  0  0999 V2000
   20.6524    6.9249   53.6708 C   0  0  0  0  0  0  0  0  0  0  0  0
   19.7552    7.6538   53.1790 O   0  0  0  0  0  0  0  0  0  0  0  0
   20.3810    5.5597   53.8777 N   0  0  0  0  0  0  0  0  0  0  0  0
   21.0990    4.9267   54.2837 H   0  0  0  0  0  0  0  0  0  0  0  0
   19.1008    4.9541   53.5446 C   0  0  0  0  0  0  0  0  0  0  0  0
   18.3011    4.7095   54.8052 C   0  0  0  0  0  0  0  0  0  0  0  0
   16.8524    4.5192   54.4493 C   0  0  0  0  0  0  0  0  0  0  0  0
   16.7555    3.3359   53.5540 C   0  0  0  0  0  0  0  0  0  0  0  0
   15.5430    2.8249   53.1705 C   0  0  0  0  0  0  0  0  0  0  0  0
   15.5048    1.7273   52.3398 C   0  0  0  0  0  0  0  0  0  0  0  0
   16.6959    1.1795   51.9221 C   0  0  0  0  0  0  0  0  0  0  0  0
   17.9321    1.7110   52.3212 C   0  0  0  0  0  0  0  0  0  0  0  0
   17.9584    2.7992   53.1447 C   0  0  0  0  0  0  0  0  0  0  0  0
   19.1894    3.4460   53.6312 C   0  0  0  0  0  0  0  0  0  0  0  0
   20.4879    2.9215   53.1493 C   0  0  0  0  0  0  0  0  0  0  0  0
   19.0560    3.5777   55.0342 O   0  0  0  0  0  0  0  0  0  0  0  0
   23.2386    9.0564   55.2089 C   0  0  0  0  0  0  0  0  0  0  0  0
   21.9995    8.5211   54.9204 C   0  0  0  0  0  0  0  0  0  0  0  0
   21.9154    7.5091   54.0023 C   0  0  0  0  0  0  0  0  0  0  0  0
   23.0843    7.0644   53.4000 C   0  0  0  0  0  0  0  0  0  0  0  0
   24.3236    7.5931   53.6824 C   0  0  0  0  0  0  0  0  0  0  0  0
   24.3779    8.6067   54.6067 C   0  0  0  0  0  0  0  0  0  0  0  0
   23.9382   11.3146   55.8749 C   0  0  0  0  0  0  0  0  0  0  0  0
   23.3000   10.0885   56.1492 O   0  0  0  0  0  0  0  0  0  0  0  0
   25.4973    7.1674   53.0966 O   0  0  0  0  0  0  0  0  0  0  0  0
   26.5732    8.0760   52.9719 C   0  0  0  0  0  0  0  0  0  0  0  0
   25.6067    9.2013   54.9517 O   0  0  0  0  0  0  0  0  0  0  0  0
   26.0094    9.1853   56.3200 C   0  0  0  0  0  0  0  0  0  0  0  0
 23 24  1  0  0  0
 24 17  1  0  0  0
 17 18  2  0  0  0
 18 19  1  0  0  0
 19 20  2  0  0  0
 20 21  1  0  0  0
 21 25  1  0  0  0
 25 26  1  0  0  0
 21 22  2  0  0  0
 22 27  1  0  0  0
 27 28  1  0  0  0
 19  1  1  0  0  0
  1  2  2  0  0  0
  1  3  1  0  0  0
  3  5  1  0  0  0
  5  6  1  0  0  0
  6  7  1  0  0  0
  7  8  1  0  0  0
  8  9  2  0  0  0
  9 10  1  0  0  0
 10 11  2  0  0  0
 11 12  1  0  0  0
 12 13  2  0  0  0
 13 14  1  0  0  0
 14 15  1  0  0  0
 14 16  1  0  0  0
 22 17  1  0  0  0
 14  5  1  0  0  0
 16  6  1  0  0  0
 13  8  1  0  0  0
  3  4  1  0  0  0
M  END
> <minimizedAffinity>
38.91935

> <CNNscore>
0.3987828493

> <CNNaffinity>
5.7147226334

> <CNN_VS>
2.2789332867

> <CNNaffinity_variance>
0.2960569859

$$$$
[H]c1c([H])c([H])c2c(c1[H])C([H])([H])[C@@]1([H])O[C@]2(C([H])([H])[H])[C@]1([H])N([H])C(=O)c1c([H])c(OC([H])([H])[H])c(OC([H])([H])[H])c(OC([H])([H])[H])c1[H]


 28 31  0  0  0  0  0  0  0  0999 V2000
   24.6389    9.4477   55.9554 C   0  0  0  0  0  0  0  0  0  0  0  0
   23.7497   10.3179   55.7814 O   0  0  0  0  0  0  0  0  0  0  0  0
   24.4088    8.1393   55.4915 N   0  0  0  0  0  0  0  0  0  0  0  0
   25.1215    7.3930   55.6188 H   0  0  0  0  0  0  0  0  0  0  0  0
   23.1805    7.7500   54.8160 C   0  0  0  0  0  0  0  0  0  0  0  0
   23.3025    6.3345   54.2965 C   0  0  0  0  0  0  0  0  0  0  0  0
   21.9312    5.7851   54.0152 C   0  0  0  0  0  0  0  0  0  0  0  0
   21.2986    6.6477   52.9823 C   0  0  0  0  0  0  0  0  0  0  0  0
   20.0948    6.3205   52.4146 C   0  0  0  0  0  0  0  0  0  0  0  0
   19.5491    7.1515   51.4619 C   0  0  0  0  0  0  0  0  0  0  0  0
   20.2387    8.2897   51.1121 C   0  0  0  0  0  0  0  0  0  0  0  0
   21.4710    8.6151   51.7000 C   0  0  0  0  0  0  0  0  0  0  0  0
   22.0029    7.7842   52.6433 C   0  0  0  0  0  0  0  0  0  0  0  0
   23.2852    8.0167   53.3302 C   0  0  0  0  0  0  0  0  0  0  0  0
   24.0219    9.2646   53.0244 C   0  0  0  0  0  0  0  0  0  0  0  0
   24.0287    6.8166   53.2271 O   0  0  0  0  0  0  0  0  0  0  0  0
   27.8614    9.2676   57.7386 C   0  0  0  0  0  0  0  0  0  0  0  0
   26.7035    8.8645   57.1049 C   0  0  0  0  0  0  0  0  0  0  0  0
   25.8511    9.8187   56.6181 C   0  0  0  0  0  0  0  0  0  0  0  0
   26.1905   11.1545   56.7840 C   0  0  0  0  0  0  0  0  0  0  0  0
   27.3433   11.5644   57.4148 C   0  0  0  0  0  0  0  0  0  0  0  0
   28.1792   10.5859   57.8930 C   0  0  0  0  0  0  0  0  0  0  0  0
   28.8743    8.0368   59.6072 C   0  0  0  0  0  0  0  0  0  0  0  0
   28.7162    8.2758   58.2275 O   0  0  0  0  0  0  0  0  0  0  0  0
   27.7005   12.8848   57.5908 O   0  0  0  0  0  0  0  0  0  0  0  0
   27.8382   13.3913   58.9036 C   0  0  0  0  0  0  0  0  0  0  0  0
   29.3782   10.9215   58.5505 O   0  0  0  0  0  0  0  0  0  0  0  0
   29.2999   11.5477   59.8297 C   0  0  0  0  0  0  0  0  0  0  0  0
 23 24  1  0  0  0
 24 17  1  0  0  0
 17 18  2  0  0  0
 18 19  1  0  0  0
 19 20  2  0  0  0
 20 21  1  0  0  0
 21 25  1  0  0  0
 25 26  1  0  0  0
 21 22  2  0  0  0
 22 27  1  0  0  0
 27 28  1  0  0  0
 19  1  1  0  0  0
  1  2  2  0  0  0
  1  3  1  0  0  0
  3  5  1  0  0  0
  5  6  1  0  0  0
  6  7  1  0  0  0
  7  8  1  0  0  0
  8  9  2  0  0  0
  9 10  1  0  0  0
 10 11  2  0  0  0
 11 12  1  0  0  0
 12 13  2  0  0  0
 13 14  1  0  0  0
 14 15  1  0  0  0
 14 16  1  0  0  0
 22 17  1  0  0  0
 14  5  1  0  0  0
 16  6  1  0  0  0
 13  8  1  0  0  0
  3  4  1  0  0  0
M  END
> <minimizedAffinity>
23.94263

> <CNNscore>
0.3986897767

> <CNNaffinity>
5.0816569328

> <CNN_VS>
2.0260045528

> <CNNaffinity_variance>
0.0639588609

$$$$
[H]c1c([H])c([H])c2c(c1[H])C([H])([H])[C@@]1([H])O[C@]2(C([H])([H])[H])[C@]1([H])N([H])C(=O)c1c([H])c(OC([H])([H])[H])c(OC([H])([H])[H])c(OC([H])([H])[H])c1[H]


 28 31  0  0  0  0  0  0  0  0999 V2000
   24.7007    7.2437   54.6689 C   0  0  0  0  0  0  0  0  0  0  0  0
   24.7728    6.0370   55.0105 O   0  0  0  0  0  0  0  0  0  0  0  0
   23.4458    7.7776   54.3217 N   0  0  0  0  0  0  0  0  0  0  0  0
   23.3482    8.7717   54.0331 H   0  0  0  0  0  0  0  0  0  0  0  0
   22.2237    6.9885   54.3421 C   0  0  0  0  0  0  0  0  0  0  0  0
   22.3054    5.8824   53.3134 C   0  0  0  0  0  0  0  0  0  0  0  0
   21.2842    4.8258   53.6330 C   0  0  0  0  0  0  0  0  0  0  0  0
   19.9408    5.4615   53.5830 C   0  0  0  0  0  0  0  0  0  0  0  0
   18.7930    4.7210   53.6939 C   0  0  0  0  0  0  0  0  0  0  0  0
   17.5720    5.3556   53.6418 C   0  0  0  0  0  0  0  0  0  0  0  0
   17.5496    6.7216   53.4787 C   0  0  0  0  0  0  0  0  0  0  0  0
   18.7315    7.4703   53.3660 C   0  0  0  0  0  0  0  0  0  0  0  0
   19.9364    6.8311   53.4191 C   0  0  0  0  0  0  0  0  0  0  0  0
   21.2421    7.5050   53.3129 C   0  0  0  0  0  0  0  0  0  0  0  0
   21.2556    8.9818   53.2013 C   0  0  0  0  0  0  0  0  0  0  0  0
   21.9874    6.8025   52.3358 O   0  0  0  0  0  0  0  0  0  0  0  0
   27.5710    9.3006   55.7311 C   0  0  0  0  0  0  0  0  0  0  0  0
   26.4167    8.5469   55.8007 C   0  0  0  0  0  0  0  0  0  0  0  0
   25.8957    8.0297   54.6452 C   0  0  0  0  0  0  0  0  0  0  0  0
   26.5538    8.2870   53.4504 C   0  0  0  0  0  0  0  0  0  0  0  0
   27.7051    9.0376   53.3728 C   0  0  0  0  0  0  0  0  0  0  0  0
   28.2048    9.5436   54.5471 C   0  0  0  0  0  0  0  0  0  0  0  0
   28.0865    9.0775   58.1221 C   0  0  0  0  0  0  0  0  0  0  0  0
   28.0843    9.8184   56.9235 O   0  0  0  0  0  0  0  0  0  0  0  0
   28.3753    9.3058   52.1977 O   0  0  0  0  0  0  0  0  0  0  0  0
   27.6366    9.4413   50.9998 C   0  0  0  0  0  0  0  0  0  0  0  0
   29.3785   10.3215   54.5540 O   0  0  0  0  0  0  0  0  0  0  0  0
   29.2705   11.7124   54.8511 C   0  0  0  0  0  0  0  0  0  0  0  0
 23 24  1  0  0  0
 24 17  1  0  0  0
 17 18  2  0  0  0
 18 19  1  0  0  0
 19 20  2  0  0  0
 20 21  1  0  0  0
 21 25  1  0  0  0
 25 26  1  0  0  0
 21 22  2  0  0  0
 22 27  1  0  0  0
 27 28  1  0  0  0
 19  1  1  0  0  0
  1  2  2  0  0  0
  1  3  1  0  0  0
  3  5  1  0  0  0
  5  6  1  0  0  0
  6  7  1  0  0  0
  7  8  1  0  0  0
  8  9  2  0  0  0
  9 10  1  0  0  0
 10 11  2  0  0  0
 11 12  1  0  0  0
 12 13  2  0  0  0
 13 14  1  0  0  0
 14 15  1  0  0  0
 14 16  1  0  0  0
 22 17  1  0  0  0
 14  5  1  0  0  0
 16  6  1  0  0  0
 13  8  1  0  0  0
  3  4  1  0  0  0
M  END
> <minimizedAffinity>
29.59286

> <CNNscore>
0.3801330626

> <CNNaffinity>
5.4053516388

> <CNN_VS>
2.0547528267

> <CNNaffinity_variance>
0.1499923021

$$$$
[H]c1c([H])c([H])c2c(c1[H])C([H])([H])[C@@]1([H])O[C@]2(C([H])([H])[H])[C@]1([H])N([H])C(=O)c1c([H])c(OC([H])([H])[H])c(OC([H])([H])[H])c(OC([H])([H])[H])c1[H]


 28 31  0  0  0  0  0  0  0  0999 V2000
   24.6870    7.2492   54.6819 C   0  0  0  0  0  0  0  0  0  0  0  0
   24.7575    6.0282   54.9690 O   0  0  0  0  0  0  0  0  0  0  0  0
   23.4307    7.8030   54.3735 N   0  0  0  0  0  0  0  0  0  0  0  0
   23.3343    8.8093   54.1302 H   0  0  0  0  0  0  0  0  0  0  0  0
   22.2053    7.0188   54.3733 C   0  0  0  0  0  0  0  0  0  0  0  0
   22.2884    5.9303   53.3261 C   0  0  0  0  0  0  0  0  0  0  0  0
   21.2610    4.8726   53.6216 C   0  0  0  0  0  0  0  0  0  0  0  0
   19.9206    5.5147   53.5749 C   0  0  0  0  0  0  0  0  0  0  0  0
   18.7691    4.7772   53.6665 C   0  0  0  0  0  0  0  0  0  0  0  0
   17.5510    5.4177   53.6184 C   0  0  0  0  0  0  0  0  0  0  0  0
   17.5351    6.7865   53.4788 C   0  0  0  0  0  0  0  0  0  0  0  0
   18.7207    7.5320   53.3858 C   0  0  0  0  0  0  0  0  0  0  0  0
   19.9227    6.8869   53.4347 C   0  0  0  0  0  0  0  0  0  0  0  0
   21.2317    7.5571   53.3475 C   0  0  0  0  0  0  0  0  0  0  0  0
   21.2519    9.0355   53.2616 C   0  0  0  0  0  0  0  0  0  0  0  0
   21.9798    6.8684   52.3628 O   0  0  0  0  0  0  0  0  0  0  0  0
   27.7106    9.0347   53.5563 C   0  0  0  0  0  0  0  0  0  0  0  0
   26.5578    8.2769   53.5124 C   0  0  0  0  0  0  0  0  0  0  0  0
   25.8852    8.0305   54.6790 C   0  0  0  0  0  0  0  0  0  0  0  0
   26.3942    8.5559   55.8588 C   0  0  0  0  0  0  0  0  0  0  0  0
   27.5431    9.3124   55.9108 C   0  0  0  0  0  0  0  0  0  0  0  0
   28.1967    9.5433   54.7258 C   0  0  0  0  0  0  0  0  0  0  0  0
   27.6947    9.4201   51.1307 C   0  0  0  0  0  0  0  0  0  0  0  0
   28.3803    9.2730   52.3530 O   0  0  0  0  0  0  0  0  0  0  0  0
   28.0668    9.8440   57.0706 O   0  0  0  0  0  0  0  0  0  0  0  0
   28.1247    9.0392   58.2315 C   0  0  0  0  0  0  0  0  0  0  0  0
   29.3788   10.3077   54.6928 O   0  0  0  0  0  0  0  0  0  0  0  0
   29.2831   11.6944   54.3726 C   0  0  0  0  0  0  0  0  0  0  0  0
 23 24  1  0  0  0
 24 17  1  0  0  0
 17 18  2  0  0  0
 18 19  1  0  0  0
 19 20  2  0  0  0
 20 21  1  0  0  0
 21 25  1  0  0  0
 25 26  1  0  0  0
 21 22  2  0  0  0
 22 27  1  0  0  0
 27 28  1  0  0  0
 19  1  1  0  0  0
  1  2  2  0  0  0
  1  3  1  0  0  0
  3  5  1  0  0  0
  5  6  1  0  0  0
  6  7  1  0  0  0
  7  8  1  0  0  0
  8  9  2  0  0  0
  9 10  1  0  0  0
 10 11  2  0  0  0
 11 12  1  0  0  0
 12 13  2  0  0  0
 13 14  1  0  0  0
 14 15  1  0  0  0
 14 16  1  0  0  0
 22 17  1  0  0  0
 14  5  1  0  0  0
 16  6  1  0  0  0
 13  8  1  0  0  0
  3  4  1  0  0  0
M  END
> <minimizedAffinity>
29.55948

> <CNNscore>
0.3366506398

> <CNNaffinity>
5.3750963211

> <CNN_VS>
1.8095296621

> <CNNaffinity_variance>
0.1746009588

$$$$
[H]c1c([H])c([H])c2c(c1[H])C([H])([H])[C@@]1([H])O[C@]2(C([H])([H])[H])[C@]1([H])N([H])C(=O)c1c([H])c(OC([H])([H])[H])c(OC([H])([H])[H])c(OC([H])([H])[H])c1[H]


 28 31  0  0  0  0  0  0  0  0999 V2000
   22.4972    5.7734   54.1111 C   0  0  0  0  0  0  0  0  0  0  0  0
   22.8179    4.7844   53.4061 O   0  0  0  0  0  0  0  0  0  0  0  0
   21.1809    5.8601   54.6011 N   0  0  0  0  0  0  0  0  0  0  0  0
   20.8795    6.6646   55.1867 H   0  0  0  0  0  0  0  0  0  0  0  0
   20.1720    4.8489   54.3252 C   0  0  0  0  0  0  0  0  0  0  0  0
   20.3195    4.3450   52.9065 C   0  0  0  0  0  0  0  0  0  0  0  0
   19.6084    3.0273   52.7673 C   0  0  0  0  0  0  0  0  0  0  0  0
   18.1710    3.2513   53.0750 C   0  0  0  0  0  0  0  0  0  0  0  0
   17.2378    2.2633   52.8980 C   0  0  0  0  0  0  0  0  0  0  0  0
   15.9182    2.5189   53.1972 C   0  0  0  0  0  0  0  0  0  0  0  0
   15.5826    3.7680   53.6667 C   0  0  0  0  0  0  0  0  0  0  0  0
   16.5466    4.7726   53.8442 C   0  0  0  0  0  0  0  0  0  0  0  0
   17.8517    4.5084   53.5445 C   0  0  0  0  0  0  0  0  0  0  0  0
   18.9519    5.4776   53.6879 C   0  0  0  0  0  0  0  0  0  0  0  0
   18.6358    6.8103   54.2514 C   0  0  0  0  0  0  0  0  0  0  0  0
   19.6627    5.4746   52.4638 O   0  0  0  0  0  0  0  0  0  0  0  0
   24.1062    8.9058   55.2051 C   0  0  0  0  0  0  0  0  0  0  0  0
   23.1243    7.9685   54.9552 C   0  0  0  0  0  0  0  0  0  0  0  0
   23.4809    6.7740   54.3893 C   0  0  0  0  0  0  0  0  0  0  0  0
   24.8192    6.5576   54.0909 C   0  0  0  0  0  0  0  0  0  0  0  0
   25.8041    7.4874   54.3370 C   0  0  0  0  0  0  0  0  0  0  0  0
   25.4176    8.6759   54.9050 C   0  0  0  0  0  0  0  0  0  0  0  0
   22.3914   10.5873   55.7194 C   0  0  0  0  0  0  0  0  0  0  0  0
   23.7185   10.1178   55.7832 O   0  0  0  0  0  0  0  0  0  0  0  0
   27.1389    7.2941   54.0490 O   0  0  0  0  0  0  0  0  0  0  0  0
   28.0044    8.4115   54.0156 C   0  0  0  0  0  0  0  0  0  0  0  0
   26.3636    9.6795   55.1888 O   0  0  0  0  0  0  0  0  0  0  0  0
   26.9563    9.7079   56.4859 C   0  0  0  0  0  0  0  0  0  0  0  0
 23 24  1  0  0  0
 24 17  1  0  0  0
 17 18  2  0  0  0
 18 19  1  0  0  0
 19 20  2  0  0  0
 20 21  1  0  0  0
 21 25  1  0  0  0
 25 26  1  0  0  0
 21 22  2  0  0  0
 22 27  1  0  0  0
 27 28  1  0  0  0
 19  1  1  0  0  0
  1  2  2  0  0  0
  1  3  1  0  0  0
  3  5  1  0  0  0
  5  6  1  0  0  0
  6  7  1  0  0  0
  7  8  1  0  0  0
  8  9  2  0  0  0
  9 10  1  0  0  0
 10 11  2  0  0  0
 11 12  1  0  0  0
 12 13  2  0  0  0
 13 14  1  0  0  0
 14 15  1  0  0  0
 14 16  1  0  0  0
 22 17  1  0  0  0
 14  5  1  0  0  0
 16  6  1  0  0  0
 13  8  1  0  0  0
  3  4  1  0  0  0
M  END
> <minimizedAffinity>
34.32346

> <CNNscore>
0.3327142298

> <CNNaffinity>
5.3303651810

> <CNN_VS>
1.7734884024

> <CNNaffinity_variance>
0.1992183030

$$$$
[H]c1c([H])c([H])c2c(c1[H])C([H])([H])[C@@]1([H])O[C@]2(C([H])([H])[H])[C@]1([H])N([H])C(=O)c1c([H])c(OC([H])([H])[H])c(OC([H])([H])[H])c(OC([H])([H])[H])c1[H]


 28 31  0  0  0  0  0  0  0  0999 V2000
   24.4153    8.4361   55.0541 C   0  0  0  0  0  0  0  0  0  0  0  0
   24.3875    7.2244   54.7238 O   0  0  0  0  0  0  0  0  0  0  0  0
   23.2567    9.2150   54.8776 N   0  0  0  0  0  0  0  0  0  0  0  0
   23.2432   10.2214   55.1386 H   0  0  0  0  0  0  0  0  0  0  0  0
   22.0233    8.6745   54.3271 C   0  0  0  0  0  0  0  0  0  0  0  0
   22.2216    7.2260   53.9388 C   0  0  0  0  0  0  0  0  0  0  0  0
   20.8819    6.5562   53.8047 C   0  0  0  0  0  0  0  0  0  0  0  0
   20.1241    7.2639   52.7388 C   0  0  0  0  0  0  0  0  0  0  0  0
   18.9168    6.7976   52.2878 C   0  0  0  0  0  0  0  0  0  0  0  0
   18.2527    7.4881   51.2988 C   0  0  0  0  0  0  0  0  0  0  0  0
   18.8309    8.6308   50.7956 C   0  0  0  0  0  0  0  0  0  0  0  0
   20.0680    9.0994   51.2650 C   0  0  0  0  0  0  0  0  0  0  0  0
   20.7177    8.4070   52.2456 C   0  0  0  0  0  0  0  0  0  0  0  0
   22.0175    8.7969   52.8188 C   0  0  0  0  0  0  0  0  0  0  0  0
   22.6369   10.0563   52.3457 C   0  0  0  0  0  0  0  0  0  0  0  0
   22.8430    7.6477   52.7814 O   0  0  0  0  0  0  0  0  0  0  0  0
   27.9777    8.9900   55.8284 C   0  0  0  0  0  0  0  0  0  0  0  0
   26.8386    8.4352   55.2810 C   0  0  0  0  0  0  0  0  0  0  0  0
   25.6225    8.9788   55.5967 C   0  0  0  0  0  0  0  0  0  0  0  0
   25.5888   10.0681   56.4565 C   0  0  0  0  0  0  0  0  0  0  0  0
   26.7203   10.6270   57.0064 C   0  0  0  0  0  0  0  0  0  0  0  0
   27.9257   10.0613   56.6724 C   0  0  0  0  0  0  0  0  0  0  0  0
   29.3787    7.6386   54.3306 C   0  0  0  0  0  0  0  0  0  0  0  0
   29.2079    8.4182   55.4919 O   0  0  0  0  0  0  0  0  0  0  0  0
   26.7106   11.7084   57.8623 O   0  0  0  0  0  0  0  0  0  0  0  0
   27.8265   12.5761   57.8873 C   0  0  0  0  0  0  0  0  0  0  0  0
   29.1299   10.5736   57.1922 O   0  0  0  0  0  0  0  0  0  0  0  0
   29.3789   10.4385   58.5902 C   0  0  0  0  0  0  0  0  0  0  0  0
 23 24  1  0  0  0
 24 17  1  0  0  0
 17 18  2  0  0  0
 18 19  1  0  0  0
 19 20  2  0  0  0
 20 21  1  0  0  0
 21 25  1  0  0  0
 25 26  1  0  0  0
 21 22  2  0  0  0
 22 27  1  0  0  0
 27 28  1  0  0  0
 19  1  1  0  0  0
  1  2  2  0  0  0
  1  3  1  0  0  0
  3  5  1  0  0  0
  5  6  1  0  0  0
  6  7  1  0  0  0
  7  8  1  0  0  0
  8  9  2  0  0  0
  9 10  1  0  0  0
 10 11  2  0  0  0
 11 12  1  0  0  0
 12 13  2  0  0  0
 13 14  1  0  0  0
 14 15  1  0  0  0
 14 16  1  0  0  0
 22 17  1  0  0  0
 14  5  1  0  0  0
 16  6  1  0  0  0
 13  8  1  0  0  0
  3  4  1  0  0  0
M  END
> <minimizedAffinity>
34.96518

> <CNNscore>
0.3324136734

> <CNNaffinity>
5.1732225418

> <CNN_VS>
1.7196499109

> <CNNaffinity_variance>
0.2849041820

$$$$
[H]OC(=O)c1c([H])c([H])c(-c2sc(N([H])C(=O)c3c([H])c([H])c(OC([H])([H])[H])c([H])c3[H])nc2[H])c(OC([H])([H])c2c([H])c([H])c([H])c([H])c2OC([H])([H])[H])c1[H]


 37 40  0  0  0  0  0  0  0  0999 V2000
   21.3805    9.5750   52.6627 C   0  0  0  0  0  0  0  0  0  0  0  0
   20.9553    9.9945   51.3934 C   0  0  0  0  0  0  0  0  0  0  0  0
   21.1213   11.3054   50.9672 C   0  0  0  0  0  0  0  0  0  0  0  0
   21.7115   12.2203   51.7915 C   0  0  0  0  0  0  0  0  0  0  0  0
   22.1387   11.8229   53.0518 C   0  0  0  0  0  0  0  0  0  0  0  0
   21.9702   10.4879   53.4864 C   0  0  0  0  0  0  0  0  0  0  0  0
   20.1441    5.7982   53.3817 C   0  0  0  0  0  0  0  0  0  0  0  0
   21.1924    6.1562   54.1055 N   0  0  0  0  0  0  0  0  0  0  0  0
   21.6923    7.3479   53.9651 C   0  0  0  0  0  0  0  0  0  0  0  0
   21.1245    8.1970   53.0750 C   0  0  0  0  0  0  0  0  0  0  0  0
   19.8372    7.1767   52.4571 S   0  0  0  0  0  0  0  0  0  0  0  0
   18.0424    4.5227   53.6222 C   0  0  0  0  0  0  0  0  0  0  0  0
   17.4400    5.6607   53.7925 O   0  0  0  0  0  0  0  0  0  0  0  0
   19.4286    4.5391   53.4487 N   0  0  0  0  0  0  0  0  0  0  0  0
   19.9785    3.6598   53.3170 H   0  0  0  0  0  0  0  0  0  0  0  0
   15.5284    1.0712   53.5367 C   0  0  0  0  0  0  0  0  0  0  0  0
   15.1930    2.1980   54.2682 C   0  0  0  0  0  0  0  0  0  0  0  0
   16.0138    3.3201   54.3151 C   0  0  0  0  0  0  0  0  0  0  0  0
   17.2059    3.3431   53.6221 C   0  0  0  0  0  0  0  0  0  0  0  0
   17.5605    2.2394   52.8927 C   0  0  0  0  0  0  0  0  0  0  0  0
   16.7317    1.1404   52.8615 C   0  0  0  0  0  0  0  0  0  0  0  0
   14.9726   -1.2151   54.2365 C   0  0  0  0  0  0  0  0  0  0  0  0
   14.6978   -0.0394   53.4947 O   0  0  0  0  0  0  0  0  0  0  0  0
   21.9103   13.5805   51.3390 C   0  0  0  0  0  0  0  0  0  0  0  0
   20.9087   14.5462   51.5530 O   0  0  0  0  0  0  0  0  0  0  0  0
   22.9607   13.9358   50.7553 O   0  0  0  0  0  0  0  0  0  0  0  0
   21.2045   15.3733   52.0280 H   0  0  0  0  0  0  0  0  0  0  0  0
   22.3972   10.1043   54.7139 O   0  0  0  0  0  0  0  0  0  0  0  0
   23.0168    9.0178   55.2543 C   0  0  0  0  0  0  0  0  0  0  0  0
   24.4740    8.8977   55.0613 C   0  0  0  0  0  0  0  0  0  0  0  0
   25.2977    9.4329   56.0311 C   0  0  0  0  0  0  0  0  0  0  0  0
   26.6745    9.3514   56.0005 C   0  0  0  0  0  0  0  0  0  0  0  0
   27.2542    8.6937   54.9322 C   0  0  0  0  0  0  0  0  0  0  0  0
   26.4562    8.1479   53.9486 C   0  0  0  0  0  0  0  0  0  0  0  0
   25.0889    8.2505   54.0169 C   0  0  0  0  0  0  0  0  0  0  0  0
   24.2991    7.7020   53.0283 O   0  0  0  0  0  0  0  0  0  0  0  0
   24.1883    6.3014   52.8167 C   0  0  0  0  0  0  0  0  0  0  0  0
 22 23  1  0  0  0
 23 16  1  0  0  0
 16 17  2  0  0  0
 17 18  1  0  0  0
 18 19  2  0  0  0
 19 20  1  0  0  0
 20 21  2  0  0  0
 19 12  1  0  0  0
 12 13  2  0  0  0
 12 14  1  0  0  0
 14  7  1  0  0  0
  7  8  2  0  0  0
  8  9  1  0  0  0
  9 10  2  0  0  0
 10 11  1  0  0  0
 10  1  1  0  0  0
  1  2  2  0  0  0
  2  3  1  0  0  0
  3  4  2  0  0  0
  4  5  1  0  0  0
  5  6  2  0  0  0
  6 28  1  0  0  0
 28 29  1  0  0  0
 29 30  1  0  0  0
 30 31  2  0  0  0
 31 32  1  0  0  0
 32 33  2  0  0  0
 33 34  1  0  0  0
 34 35  2  0  0  0
 35 36  1  0  0  0
 36 37  1  0  0  0
  4 24  1  0  0  0
 24 25  1  0  0  0
 24 26  2  0  0  0
 21 16  1  0  0  0
 11  7  1  0  0  0
  6  1  1  0  0  0
 35 30  1  0  0  0
 14 15  1  0  0  0
 25 27  1  0  0  0
M  END
> <minimizedAffinity>
33.29198

> <CNNscore>
0.5528699756

> <CNNaffinity>
6.4611196518

> <CNN_VS>
3.5721590519

> <CNNaffinity_variance>
0.0994045362

$$$$
[H]OC(=O)c1c([H])c([H])c(-c2sc(N([H])C(=O)c3c([H])c([H])c(OC([H])([H])[H])c([H])c3[H])nc2[H])c(OC([H])([H])c2c([H])c([H])c([H])c([H])c2OC([H])([H])[H])c1[H]


 37 40  0  0  0  0  0  0  0  0999 V2000
   22.3184    6.3953   55.0116 C   0  0  0  0  0  0  0  0  0  0  0  0
   21.4612    6.0728   56.0742 C   0  0  0  0  0  0  0  0  0  0  0  0
   21.8306    5.1639   57.0567 C   0  0  0  0  0  0  0  0  0  0  0  0
   23.0548    4.5613   57.0017 C   0  0  0  0  0  0  0  0  0  0  0  0
   23.9166    4.8683   55.9568 C   0  0  0  0  0  0  0  0  0  0  0  0
   23.5412    5.7941   54.9562 C   0  0  0  0  0  0  0  0  0  0  0  0
   21.4559    9.3760   52.4268 C   0  0  0  0  0  0  0  0  0  0  0  0
   20.7226    8.2900   52.2424 N   0  0  0  0  0  0  0  0  0  0  0  0
   20.9057    7.2548   53.0069 C   0  0  0  0  0  0  0  0  0  0  0  0
   21.8489    7.3145   53.9777 C   0  0  0  0  0  0  0  0  0  0  0  0
   22.4516    8.9424   53.7191 S   0  0  0  0  0  0  0  0  0  0  0  0
   21.4646   11.8459   52.3902 C   0  0  0  0  0  0  0  0  0  0  0  0
   21.5963   11.8061   53.6817 O   0  0  0  0  0  0  0  0  0  0  0  0
   21.3486   10.6313   51.7096 N   0  0  0  0  0  0  0  0  0  0  0  0
   21.2296   10.5897   50.6718 H   0  0  0  0  0  0  0  0  0  0  0  0
   21.3992   15.6823   50.5145 C   0  0  0  0  0  0  0  0  0  0  0  0
   22.4848   14.8314   50.3935 C   0  0  0  0  0  0  0  0  0  0  0  0
   22.5215   13.5872   51.0146 C   0  0  0  0  0  0  0  0  0  0  0  0
   21.4592   13.1579   51.7820 C   0  0  0  0  0  0  0  0  0  0  0  0
   20.3744   13.9829   51.9183 C   0  0  0  0  0  0  0  0  0  0  0  0
   20.3609   15.2100   51.2940 C   0  0  0  0  0  0  0  0  0  0  0  0
   21.6036   17.0617   48.4943 C   0  0  0  0  0  0  0  0  0  0  0  0
   21.3736   16.9186   49.8852 O   0  0  0  0  0  0  0  0  0  0  0  0
   23.4527    3.6343   58.0394 C   0  0  0  0  0  0  0  0  0  0  0  0
   23.2421    2.2532   57.8670 O   0  0  0  0  0  0  0  0  0  0  0  0
   23.9888    4.0235   59.1030 O   0  0  0  0  0  0  0  0  0  0  0  0
   24.0515    1.6787   57.9771 H   0  0  0  0  0  0  0  0  0  0  0  0
   24.3902    6.0961   53.9441 O   0  0  0  0  0  0  0  0  0  0  0  0
   24.9673    7.2205   53.4351 C   0  0  0  0  0  0  0  0  0  0  0  0
   25.9402    7.9322   54.2850 C   0  0  0  0  0  0  0  0  0  0  0  0
   27.2786    7.8129   53.9692 C   0  0  0  0  0  0  0  0  0  0  0  0
   28.2894    8.4600   54.6495 C   0  0  0  0  0  0  0  0  0  0  0  0
   27.9314    9.2729   55.7082 C   0  0  0  0  0  0  0  0  0  0  0  0
   26.6014    9.4121   56.0462 C   0  0  0  0  0  0  0  0  0  0  0  0
   25.6256    8.7508   55.3426 C   0  0  0  0  0  0  0  0  0  0  0  0
   24.2984    8.8958   55.6883 O   0  0  0  0  0  0  0  0  0  0  0  0
   23.7230   10.1478   56.0347 C   0  0  0  0  0  0  0  0  0  0  0  0
 22 23  1  0  0  0
 23 16  1  0  0  0
 16 17  2  0  0  0
 17 18  1  0  0  0
 18 19  2  0  0  0
 19 20  1  0  0  0
 20 21  2  0  0  0
 19 12  1  0  0  0
 12 13  2  0  0  0
 12 14  1  0  0  0
 14  7  1  0  0  0
  7  8  2  0  0  0
  8  9  1  0  0  0
  9 10  2  0  0  0
 10 11  1  0  0  0
 10  1  1  0  0  0
  1  2  2  0  0  0
  2  3  1  0  0  0
  3  4  2  0  0  0
  4  5  1  0  0  0
  5  6  2  0  0  0
  6 28  1  0  0  0
 28 29  1  0  0  0
 29 30  1  0  0  0
 30 31  2  0  0  0
 31 32  1  0  0  0
 32 33  2  0  0  0
 33 34  1  0  0  0
 34 35  2  0  0  0
 35 36  1  0  0  0
 36 37  1  0  0  0
  4 24  1  0  0  0
 24 25  1  0  0  0
 24 26  2  0  0  0
 21 16  1  0  0  0
 11  7  1  0  0  0
  6  1  1  0  0  0
 35 30  1  0  0  0
 14 15  1  0  0  0
 25 27  1  0  0  0
M  END
> <minimizedAffinity>
25.06640

> <CNNscore>
0.5425742269

> <CNNaffinity>
6.2527389526

> <CNN_VS>
3.3925750256

> <CNNaffinity_variance>
0.2594071925

$$$$
[H]OC(=O)c1c([H])c([H])c(-c2sc(N([H])C(=O)c3c([H])c([H])c(OC([H])([H])[H])c([H])c3[H])nc2[H])c(OC([H])([H])c2c([H])c([H])c([H])c([H])c2OC([H])([H])[H])c1[H]


 37 40  0  0  0  0  0  0  0  0999 V2000
   22.4110    6.2392   53.7201 C   0  0  0  0  0  0  0  0  0  0  0  0
   22.0533    5.2415   54.6392 C   0  0  0  0  0  0  0  0  0  0  0  0
   20.8471    4.5609   54.5412 C   0  0  0  0  0  0  0  0  0  0  0  0
   19.9774    4.8578   53.5311 C   0  0  0  0  0  0  0  0  0  0  0  0
   20.3147    5.8429   52.6120 C   0  0  0  0  0  0  0  0  0  0  0  0
   21.5431    6.5362   52.7110 C   0  0  0  0  0  0  0  0  0  0  0  0
   25.8186    8.0578   54.8992 C   0  0  0  0  0  0  0  0  0  0  0  0
   25.5492    8.2255   53.6146 N   0  0  0  0  0  0  0  0  0  0  0  0
   24.4812    7.6855   53.1072 C   0  0  0  0  0  0  0  0  0  0  0  0
   23.6675    6.9596   53.9113 C   0  0  0  0  0  0  0  0  0  0  0  0
   24.5334    7.1015   55.4313 S   0  0  0  0  0  0  0  0  0  0  0  0
   26.6905    9.4185   56.7675 C   0  0  0  0  0  0  0  0  0  0  0  0
   25.4561    9.6750   57.0793 O   0  0  0  0  0  0  0  0  0  0  0  0
   26.9266    8.6300   55.6385 N   0  0  0  0  0  0  0  0  0  0  0  0
   27.8951    8.3931   55.3239 H   0  0  0  0  0  0  0  0  0  0  0  0
   29.6169   11.0711   59.4028 C   0  0  0  0  0  0  0  0  0  0  0  0
   28.9146   11.8607   58.5081 C   0  0  0  0  0  0  0  0  0  0  0  0
   27.9718   11.3284   57.6347 C   0  0  0  0  0  0  0  0  0  0  0  0
   27.7047    9.9754   57.6349 C   0  0  0  0  0  0  0  0  0  0  0  0
   28.3883    9.1733   58.5097 C   0  0  0  0  0  0  0  0  0  0  0  0
   29.3169    9.7231   59.3648 C   0  0  0  0  0  0  0  0  0  0  0  0
   30.1922   12.5493   61.2764 C   0  0  0  0  0  0  0  0  0  0  0  0
   30.5510   11.6160   60.2721 O   0  0  0  0  0  0  0  0  0  0  0  0
   18.7318    4.1309   53.4110 C   0  0  0  0  0  0  0  0  0  0  0  0
   17.5712    4.6152   54.0433 O   0  0  0  0  0  0  0  0  0  0  0  0
   18.6476    3.0687   52.7514 O   0  0  0  0  0  0  0  0  0  0  0  0
   16.7784    4.7390   53.4487 H   0  0  0  0  0  0  0  0  0  0  0  0
   21.8704    7.4900   51.8059 O   0  0  0  0  0  0  0  0  0  0  0  0
   21.4492    8.7474   51.4931 C   0  0  0  0  0  0  0  0  0  0  0  0
   21.3645    9.7306   52.5891 C   0  0  0  0  0  0  0  0  0  0  0  0
   21.2342    9.2495   53.8763 C   0  0  0  0  0  0  0  0  0  0  0  0
   21.1902   10.0535   54.9965 C   0  0  0  0  0  0  0  0  0  0  0  0
   21.2823   11.4196   54.8091 C   0  0  0  0  0  0  0  0  0  0  0  0
   21.4142   11.9292   53.5343 C   0  0  0  0  0  0  0  0  0  0  0  0
   21.4547   11.0941   52.4455 C   0  0  0  0  0  0  0  0  0  0  0  0
   21.5863   11.6128   51.1744 O   0  0  0  0  0  0  0  0  0  0  0  0
   22.0683   12.9253   50.9221 C   0  0  0  0  0  0  0  0  0  0  0  0
 22 23  1  0  0  0
 23 16  1  0  0  0
 16 17  2  0  0  0
 17 18  1  0  0  0
 18 19  2  0  0  0
 19 20  1  0  0  0
 20 21  2  0  0  0
 19 12  1  0  0  0
 12 13  2  0  0  0
 12 14  1  0  0  0
 14  7  1  0  0  0
  7  8  2  0  0  0
  8  9  1  0  0  0
  9 10  2  0  0  0
 10 11  1  0  0  0
 10  1  1  0  0  0
  1  2  2  0  0  0
  2  3  1  0  0  0
  3  4  2  0  0  0
  4  5  1  0  0  0
  5  6  2  0  0  0
  6 28  1  0  0  0
 28 29  1  0  0  0
 29 30  1  0  0  0
 30 31  2  0  0  0
 31 32  1  0  0  0
 32 33  2  0  0  0
 33 34  1  0  0  0
 34 35  2  0  0  0
 35 36  1  0  0  0
 36 37  1  0  0  0
  4 24  1  0  0  0
 24 25  1  0  0  0
 24 26  2  0  0  0
 21 16  1  0  0  0
 11  7  1  0  0  0
  6  1  1  0  0  0
 35 30  1  0  0  0
 14 15  1  0  0  0
 25 27  1  0  0  0
M  END
> <minimizedAffinity>
20.05469

> <CNNscore>
0.5153277516

> <CNNaffinity>
6.5760293007

> <CNN_VS>
3.3888103962

> <CNNaffinity_variance>
0.6076012850

$$$$
[H]OC(=O)c1c([H])c([H])c(-c2sc(N([H])C(=O)c3c([H])c([H])c(OC([H])([H])[H])c([H])c3[H])nc2[H])c(OC([H])([H])c2c([H])c([H])c([H])c([H])c2OC([H])([H])[H])c1[H]


 37 40  0  0  0  0  0  0  0  0999 V2000
   23.8561    7.0961   54.2012 C   0  0  0  0  0  0  0  0  0  0  0  0
   23.5891    5.8483   54.7841 C   0  0  0  0  0  0  0  0  0  0  0  0
   22.4224    5.1496   54.5044 C   0  0  0  0  0  0  0  0  0  0  0  0
   21.5029    5.6760   53.6427 C   0  0  0  0  0  0  0  0  0  0  0  0
   21.7504    6.9104   53.0563 C   0  0  0  0  0  0  0  0  0  0  0  0
   22.9386    7.6224   53.3405 C   0  0  0  0  0  0  0  0  0  0  0  0
   26.9108    9.1657   55.8430 C   0  0  0  0  0  0  0  0  0  0  0  0
   27.1275    8.8153   54.5855 N   0  0  0  0  0  0  0  0  0  0  0  0
   26.2221    8.1394   53.9427 C   0  0  0  0  0  0  0  0  0  0  0  0
   25.0739    7.8083   54.5810 C   0  0  0  0  0  0  0  0  0  0  0  0
   25.3805    8.5246   56.1536 S   0  0  0  0  0  0  0  0  0  0  0  0
   27.9217    9.6564   58.0428 C   0  0  0  0  0  0  0  0  0  0  0  0
   27.1988    8.6909   58.5246 O   0  0  0  0  0  0  0  0  0  0  0  0
   27.7795    9.9623   56.6871 N   0  0  0  0  0  0  0  0  0  0  0  0
   28.3221   10.7336   56.2358 H   0  0  0  0  0  0  0  0  0  0  0  0
   30.4964   11.5871   60.8506 C   0  0  0  0  0  0  0  0  0  0  0  0
   29.5536   12.2931   60.1226 C   0  0  0  0  0  0  0  0  0  0  0  0
   28.7224   11.6751   59.1941 C   0  0  0  0  0  0  0  0  0  0  0  0
   28.8149   10.3178   58.9679 C   0  0  0  0  0  0  0  0  0  0  0  0
   29.7415    9.5981   59.6746 C   0  0  0  0  0  0  0  0  0  0  0  0
   30.5533   10.2318   60.5885 C   0  0  0  0  0  0  0  0  0  0  0  0
   31.8042   13.5313   61.5824 C   0  0  0  0  0  0  0  0  0  0  0  0
   31.3157   12.2154   61.7774 O   0  0  0  0  0  0  0  0  0  0  0  0
   20.2988    4.9371   53.3286 C   0  0  0  0  0  0  0  0  0  0  0  0
   19.0681    5.6116   53.2201 O   0  0  0  0  0  0  0  0  0  0  0  0
   20.3133    3.6976   53.1447 O   0  0  0  0  0  0  0  0  0  0  0  0
   18.5745    5.4688   52.3638 H   0  0  0  0  0  0  0  0  0  0  0  0
   23.1783    8.8222   52.7582 O   0  0  0  0  0  0  0  0  0  0  0  0
   22.5810    9.6055   51.8169 C   0  0  0  0  0  0  0  0  0  0  0  0
   21.9625   10.8651   52.2706 C   0  0  0  0  0  0  0  0  0  0  0  0
   21.8893   11.9074   51.3685 C   0  0  0  0  0  0  0  0  0  0  0  0
   21.2967   13.1222   51.6442 C   0  0  0  0  0  0  0  0  0  0  0  0
   20.7470   13.2970   52.9000 C   0  0  0  0  0  0  0  0  0  0  0  0
   20.8042   12.2727   53.8219 C   0  0  0  0  0  0  0  0  0  0  0  0
   21.4028   11.0781   53.5072 C   0  0  0  0  0  0  0  0  0  0  0  0
   21.4557   10.0597   54.4357 O   0  0  0  0  0  0  0  0  0  0  0  0
   22.2063   10.1497   55.6386 C   0  0  0  0  0  0  0  0  0  0  0  0
 22 23  1  0  0  0
 23 16  1  0  0  0
 16 17  2  0  0  0
 17 18  1  0  0  0
 18 19  2  0  0  0
 19 20  1  0  0  0
 20 21  2  0  0  0
 19 12  1  0  0  0
 12 13  2  0  0  0
 12 14  1  0  0  0
 14  7  1  0  0  0
  7  8  2  0  0  0
  8  9  1  0  0  0
  9 10  2  0  0  0
 10 11  1  0  0  0
 10  1  1  0  0  0
  1  2  2  0  0  0
  2  3  1  0  0  0
  3  4  2  0  0  0
  4  5  1  0  0  0
  5  6  2  0  0  0
  6 28  1  0  0  0
 28 29  1  0  0  0
 29 30  1  0  0  0
 30 31  2  0  0  0
 31 32  1  0  0  0
 32 33  2  0  0  0
 33 34  1  0  0  0
 34 35  2  0  0  0
 35 36  1  0  0  0
 36 37  1  0  0  0
  4 24  1  0  0  0
 24 25  1  0  0  0
 24 26  2  0  0  0
 21 16  1  0  0  0
 11  7  1  0  0  0
  6  1  1  0  0  0
 35 30  1  0  0  0
 14 15  1  0  0  0
 25 27  1  0  0  0
M  END
> <minimizedAffinity>
16.86611

> <CNNscore>
0.4887206256

> <CNNaffinity>
5.9516844749

> <CNN_VS>
2.9087109566

> <CNNaffinity_variance>
0.1534395665

$$$$
[H]OC(=O)c1c([H])c([H])c(-c2sc(N([H])C(=O)c3c([H])c([H])c(OC([H])([H])[H])c([H])c3[H])nc2[H])c(OC([H])([H])c2c([H])c([H])c([H])c([H])c2OC([H])([H])[H])c1[H]


 37 40  0  0  0  0  0  0  0  0999 V2000
   28.2880   10.3464   57.9307 C   0  0  0  0  0  0  0  0  0  0  0  0
   28.2173   11.7444   58.0239 C   0  0  0  0  0  0  0  0  0  0  0  0
   28.7017   12.4249   59.1329 C   0  0  0  0  0  0  0  0  0  0  0  0
   29.2642   11.7310   60.1660 C   0  0  0  0  0  0  0  0  0  0  0  0
   29.3426   10.3465   60.0911 C   0  0  0  0  0  0  0  0  0  0  0  0
   28.8497    9.6528   58.9618 C   0  0  0  0  0  0  0  0  0  0  0  0
   26.0948    8.7608   54.9333 C   0  0  0  0  0  0  0  0  0  0  0  0
   27.3777    8.4426   54.8726 N   0  0  0  0  0  0  0  0  0  0  0  0
   28.1943    8.8944   55.7776 C   0  0  0  0  0  0  0  0  0  0  0  0
   27.7078    9.6848   56.7646 C   0  0  0  0  0  0  0  0  0  0  0  0
   26.0140    9.7373   56.3078 S   0  0  0  0  0  0  0  0  0  0  0  0
   23.7188    8.7009   54.2598 C   0  0  0  0  0  0  0  0  0  0  0  0
   23.4642    9.4234   55.3087 O   0  0  0  0  0  0  0  0  0  0  0  0
   25.0415    8.3042   54.0478 N   0  0  0  0  0  0  0  0  0  0  0  0
   25.3159    7.7134   53.2301 H   0  0  0  0  0  0  0  0  0  0  0  0
   20.3420    7.8209   51.7976 C   0  0  0  0  0  0  0  0  0  0  0  0
   20.7505    6.9643   52.8058 C   0  0  0  0  0  0  0  0  0  0  0  0
   21.8590    7.2349   53.6016 C   0  0  0  0  0  0  0  0  0  0  0  0
   22.5956    8.3842   53.4059 C   0  0  0  0  0  0  0  0  0  0  0  0
   22.2123    9.2464   52.4131 C   0  0  0  0  0  0  0  0  0  0  0  0
   21.1115    8.9572   51.6383 C   0  0  0  0  0  0  0  0  0  0  0  0
   18.2289    8.5086   50.7546 C   0  0  0  0  0  0  0  0  0  0  0  0
   19.2312    7.5411   51.0146 O   0  0  0  0  0  0  0  0  0  0  0  0
   29.7945   12.4401   61.3107 C   0  0  0  0  0  0  0  0  0  0  0  0
   30.5760   11.7565   62.2611 O   0  0  0  0  0  0  0  0  0  0  0  0
   29.5807   13.6621   61.4881 O   0  0  0  0  0  0  0  0  0  0  0  0
   31.4731   12.1545   62.4453 H   0  0  0  0  0  0  0  0  0  0  0  0
   28.9373    8.3025   58.8908 O   0  0  0  0  0  0  0  0  0  0  0  0
   29.7368    7.3310   59.4137 C   0  0  0  0  0  0  0  0  0  0  0  0
   29.0970    6.2981   60.2497 C   0  0  0  0  0  0  0  0  0  0  0  0
   28.1878    5.4535   59.6453 C   0  0  0  0  0  0  0  0  0  0  0  0
   27.5516    4.4167   60.2960 C   0  0  0  0  0  0  0  0  0  0  0  0
   27.8479    4.2200   61.6314 C   0  0  0  0  0  0  0  0  0  0  0  0
   28.7533    5.0478   62.2617 C   0  0  0  0  0  0  0  0  0  0  0  0
   29.3655    6.0684   61.5775 C   0  0  0  0  0  0  0  0  0  0  0  0
   30.2692    6.8914   62.2163 O   0  0  0  0  0  0  0  0  0  0  0  0
   30.9401    7.9581   61.5601 C   0  0  0  0  0  0  0  0  0  0  0  0
 22 23  1  0  0  0
 23 16  1  0  0  0
 16 17  2  0  0  0
 17 18  1  0  0  0
 18 19  2  0  0  0
 19 20  1  0  0  0
 20 21  2  0  0  0
 19 12  1  0  0  0
 12 13  2  0  0  0
 12 14  1  0  0  0
 14  7  1  0  0  0
  7  8  2  0  0  0
  8  9  1  0  0  0
  9 10  2  0  0  0
 10 11  1  0  0  0
 10  1  1  0  0  0
  1  2  2  0  0  0
  2  3  1  0  0  0
  3  4  2  0  0  0
  4  5  1  0  0  0
  5  6  2  0  0  0
  6 28  1  0  0  0
 28 29  1  0  0  0
 29 30  1  0  0  0
 30 31  2  0  0  0
 31 32  1  0  0  0
 32 33  2  0  0  0
 33 34  1  0  0  0
 34 35  2  0  0  0
 35 36  1  0  0  0
 36 37  1  0  0  0
  4 24  1  0  0  0
 24 25  1  0  0  0
 24 26  2  0  0  0
 21 16  1  0  0  0
 11  7  1  0  0  0
  6  1  1  0  0  0
 35 30  1  0  0  0
 14 15  1  0  0  0
 25 27  1  0  0  0
M  END
> <minimizedAffinity>
11.52578

> <CNNscore>
0.4777172208

> <CNNaffinity>
5.9105315208

> <CNN_VS>
2.8235626221

> <CNNaffinity_variance>
0.1042628512

$$$$
[H]OC(=O)c1c([H])c([H])c(-c2sc(N([H])C(=O)c3c([H])c([H])c(OC([H])([H])[H])c([H])c3[H])nc2[H])c(OC([H])([H])c2c([H])c([H])c([H])c([H])c2OC([H])([H])[H])c1[H]


 37 40  0  0  0  0  0  0  0  0999 V2000
   23.9322    6.8981   54.1619 C   0  0  0  0  0  0  0  0  0  0  0  0
   23.5552    5.7667   54.9007 C   0  0  0  0  0  0  0  0  0  0  0  0
   22.3777    5.0819   54.6322 C   0  0  0  0  0  0  0  0  0  0  0  0
   21.5562    5.5069   53.6275 C   0  0  0  0  0  0  0  0  0  0  0  0
   21.9133    6.6254   52.8856 C   0  0  0  0  0  0  0  0  0  0  0  0
   23.1125    7.3231   53.1583 C   0  0  0  0  0  0  0  0  0  0  0  0
   27.0200    8.9278   55.7914 C   0  0  0  0  0  0  0  0  0  0  0  0
   27.1902    8.6503   54.5088 N   0  0  0  0  0  0  0  0  0  0  0  0
   26.2695    7.9948   53.8665 C   0  0  0  0  0  0  0  0  0  0  0  0
   25.1536    7.6096   54.5311 C   0  0  0  0  0  0  0  0  0  0  0  0
   25.5137    8.2442   56.1274 S   0  0  0  0  0  0  0  0  0  0  0  0
   27.9011    9.5018   58.0266 C   0  0  0  0  0  0  0  0  0  0  0  0
   27.0245    8.6793   58.5186 O   0  0  0  0  0  0  0  0  0  0  0  0
   27.9105    9.6921   56.6426 N   0  0  0  0  0  0  0  0  0  0  0  0
   28.5817   10.3470   56.1804 H   0  0  0  0  0  0  0  0  0  0  0  0
   30.4598   11.3731   60.8887 C   0  0  0  0  0  0  0  0  0  0  0  0
   29.6968   12.1128   60.0011 C   0  0  0  0  0  0  0  0  0  0  0  0
   28.8735   11.5115   59.0547 C   0  0  0  0  0  0  0  0  0  0  0  0
   28.7919   10.1373   58.9719 C   0  0  0  0  0  0  0  0  0  0  0  0
   29.5389    9.3838   59.8380 C   0  0  0  0  0  0  0  0  0  0  0  0
   30.3466   10.0016   60.7663 C   0  0  0  0  0  0  0  0  0  0  0  0
   31.8164   13.2794   61.6313 C   0  0  0  0  0  0  0  0  0  0  0  0
   31.2730   11.9859   61.8311 O   0  0  0  0  0  0  0  0  0  0  0  0
   20.3419    4.7787   53.3281 C   0  0  0  0  0  0  0  0  0  0  0  0
   20.3977    3.3974   53.0629 O   0  0  0  0  0  0  0  0  0  0  0  0
   19.2235    5.3430   53.2977 O   0  0  0  0  0  0  0  0  0  0  0  0
   19.8023    2.8277   53.6271 H   0  0  0  0  0  0  0  0  0  0  0  0
   23.4597    8.4083   52.4249 O   0  0  0  0  0  0  0  0  0  0  0  0
   22.9487    9.6482   52.1841 C   0  0  0  0  0  0  0  0  0  0  0  0
   22.1040   10.2528   53.2311 C   0  0  0  0  0  0  0  0  0  0  0  0
   21.8042    9.4854   54.3386 C   0  0  0  0  0  0  0  0  0  0  0  0
   21.0650    9.9397   55.4111 C   0  0  0  0  0  0  0  0  0  0  0  0
   20.6011   11.2406   55.3649 C   0  0  0  0  0  0  0  0  0  0  0  0
   20.8860   12.0314   54.2713 C   0  0  0  0  0  0  0  0  0  0  0  0
   21.6261   11.5409   53.2244 C   0  0  0  0  0  0  0  0  0  0  0  0
   21.9055   12.3389   52.1348 O   0  0  0  0  0  0  0  0  0  0  0  0
   21.2343   12.2082   50.8895 C   0  0  0  0  0  0  0  0  0  0  0  0
 22 23  1  0  0  0
 23 16  1  0  0  0
 16 17  2  0  0  0
 17 18  1  0  0  0
 18 19  2  0  0  0
 19 20  1  0  0  0
 20 21  2  0  0  0
 19 12  1  0  0  0
 12 13  2  0  0  0
 12 14  1  0  0  0
 14  7  1  0  0  0
  7  8  2  0  0  0
  8  9  1  0  0  0
  9 10  2  0  0  0
 10 11  1  0  0  0
 10  1  1  0  0  0
  1  2  2  0  0  0
  2  3  1  0  0  0
  3  4  2  0  0  0
  4  5  1  0  0  0
  5  6  2  0  0  0
  6 28  1  0  0  0
 28 29  1  0  0  0
 29 30  1  0  0  0
 30 31  2  0  0  0
 31 32  1  0  0  0
 32 33  2  0  0  0
 33 34  1  0  0  0
 34 35  2  0  0  0
 35 36  1  0  0  0
 36 37  1  0  0  0
  4 24  1  0  0  0
 24 25  1  0  0  0
 24 26  2  0  0  0
 21 16  1  0  0  0
 11  7  1  0  0  0
  6  1  1  0  0  0
 35 30  1  0  0  0
 14 15  1  0  0  0
 25 27  1  0  0  0
M  END
> <minimizedAffinity>
16.77485

> <CNNscore>
0.4770003259

> <CNNaffinity>
6.2328658104

> <CNN_VS>
2.9730789661

> <CNNaffinity_variance>
0.1839693040

$$$$
[H]OC(=O)c1c([H])c([H])c(-c2sc(N([H])C(=O)c3c([H])c([H])c(OC([H])([H])[H])c([H])c3[H])nc2[H])c(OC([H])([H])c2c([H])c([H])c([H])c([H])c2OC([H])([H])[H])c1[H]


 37 40  0  0  0  0  0  0  0  0999 V2000
   21.3359   10.0211   52.1699 C   0  0  0  0  0  0  0  0  0  0  0  0
   21.1237   10.5439   50.8855 C   0  0  0  0  0  0  0  0  0  0  0  0
   21.2169   11.9054   50.6300 C   0  0  0  0  0  0  0  0  0  0  0  0
   21.5223   12.7694   51.6425 C   0  0  0  0  0  0  0  0  0  0  0  0
   21.7356   12.2696   52.9206 C   0  0  0  0  0  0  0  0  0  0  0  0
   21.6411   10.8831   53.1815 C   0  0  0  0  0  0  0  0  0  0  0  0
   20.2023    6.1881   52.7472 C   0  0  0  0  0  0  0  0  0  0  0  0
   21.5137    6.3607   52.7827 N   0  0  0  0  0  0  0  0  0  0  0  0
   22.0095    7.5493   52.6055 C   0  0  0  0  0  0  0  0  0  0  0  0
   21.1656    8.5864   52.3867 C   0  0  0  0  0  0  0  0  0  0  0  0
   19.6258    7.7465   52.4493 S   0  0  0  0  0  0  0  0  0  0  0  0
   18.1366    4.9804   53.3607 C   0  0  0  0  0  0  0  0  0  0  0  0
   17.5907    6.1402   53.5699 O   0  0  0  0  0  0  0  0  0  0  0  0
   19.4800    4.9525   52.9780 N   0  0  0  0  0  0  0  0  0  0  0  0
   19.9853    4.0541   52.8034 H   0  0  0  0  0  0  0  0  0  0  0  0
   15.6868    1.5343   53.9636 C   0  0  0  0  0  0  0  0  0  0  0  0
   16.6685    1.5677   52.9878 C   0  0  0  0  0  0  0  0  0  0  0  0
   17.4597    2.6917   52.7734 C   0  0  0  0  0  0  0  0  0  0  0  0
   17.2862    3.8247   53.5402 C   0  0  0  0  0  0  0  0  0  0  0  0
   16.3198    3.8167   54.5108 C   0  0  0  0  0  0  0  0  0  0  0  0
   15.5489    2.6924   54.7044 C   0  0  0  0  0  0  0  0  0  0  0  0
   15.4645   -0.8982   54.2073 C   0  0  0  0  0  0  0  0  0  0  0  0
   14.9081    0.4047   54.1701 O   0  0  0  0  0  0  0  0  0  0  0  0
   21.6469   14.1858   51.3729 C   0  0  0  0  0  0  0  0  0  0  0  0
   22.8709   14.7097   50.9160 O   0  0  0  0  0  0  0  0  0  0  0  0
   20.6872   14.9756   51.5325 O   0  0  0  0  0  0  0  0  0  0  0  0
   22.8228   15.2368   50.0692 H   0  0  0  0  0  0  0  0  0  0  0  0
   21.8590   10.4008   54.4289 O   0  0  0  0  0  0  0  0  0  0  0  0
   22.9083    9.8731   55.1195 C   0  0  0  0  0  0  0  0  0  0  0  0
   22.9247    8.4126   55.3241 C   0  0  0  0  0  0  0  0  0  0  0  0
   21.7851    7.8211   55.8307 C   0  0  0  0  0  0  0  0  0  0  0  0
   21.6470    6.4627   56.0279 C   0  0  0  0  0  0  0  0  0  0  0  0
   22.7179    5.6547   55.6964 C   0  0  0  0  0  0  0  0  0  0  0  0
   23.8695    6.2176   55.1870 C   0  0  0  0  0  0  0  0  0  0  0  0
   23.9660    7.5749   55.0053 C   0  0  0  0  0  0  0  0  0  0  0  0
   25.1217    8.1288   54.4958 O   0  0  0  0  0  0  0  0  0  0  0  0
   25.2935    8.4247   53.1168 C   0  0  0  0  0  0  0  0  0  0  0  0
 22 23  1  0  0  0
 23 16  1  0  0  0
 16 17  2  0  0  0
 17 18  1  0  0  0
 18 19  2  0  0  0
 19 20  1  0  0  0
 20 21  2  0  0  0
 19 12  1  0  0  0
 12 13  2  0  0  0
 12 14  1  0  0  0
 14  7  1  0  0  0
  7  8  2  0  0  0
  8  9  1  0  0  0
  9 10  2  0  0  0
 10 11  1  0  0  0
 10  1  1  0  0  0
  1  2  2  0  0  0
  2  3  1  0  0  0
  3  4  2  0  0  0
  4  5  1  0  0  0
  5  6  2  0  0  0
  6 28  1  0  0  0
 28 29  1  0  0  0
 29 30  1  0  0  0
 30 31  2  0  0  0
 31 32  1  0  0  0
 32 33  2  0  0  0
 33 34  1  0  0  0
 34 35  2  0  0  0
 35 36  1  0  0  0
 36 37  1  0  0  0
  4 24  1  0  0  0
 24 25  1  0  0  0
 24 26  2  0  0  0
 21 16  1  0  0  0
 11  7  1  0  0  0
  6  1  1  0  0  0
 35 30  1  0  0  0
 14 15  1  0  0  0
 25 27  1  0  0  0
M  END
> <minimizedAffinity>
37.67744

> <CNNscore>
0.4677051604

> <CNNaffinity>
6.3219552040

> <CNN_VS>
2.9568111897

> <CNNaffinity_variance>
0.1330205649

$$$$
[H]OC(=O)c1c([H])c([H])c(-c2sc(N([H])C(=O)c3c([H])c([H])c(OC([H])([H])[H])c([H])c3[H])nc2[H])c(OC([H])([H])c2c([H])c([H])c([H])c([H])c2OC([H])([H])[H])c1[H]


 37 40  0  0  0  0  0  0  0  0999 V2000
   22.8318   10.5544   53.0933 C   0  0  0  0  0  0  0  0  0  0  0  0
   22.7497   11.9509   53.1986 C   0  0  0  0  0  0  0  0  0  0  0  0
   21.9746   12.7018   52.3251 C   0  0  0  0  0  0  0  0  0  0  0  0
   21.2686   12.0808   51.3346 C   0  0  0  0  0  0  0  0  0  0  0  0
   21.3380   10.6989   51.2152 C   0  0  0  0  0  0  0  0  0  0  0  0
   22.1270    9.9335   52.1046 C   0  0  0  0  0  0  0  0  0  0  0  0
   25.1942    9.0812   56.0188 C   0  0  0  0  0  0  0  0  0  0  0  0
   25.1114    8.2912   54.9605 N   0  0  0  0  0  0  0  0  0  0  0  0
   24.3770    8.6483   53.9491 C   0  0  0  0  0  0  0  0  0  0  0  0
   23.7106    9.8266   54.0056 C   0  0  0  0  0  0  0  0  0  0  0  0
   24.2033   10.3808   55.5963 S   0  0  0  0  0  0  0  0  0  0  0  0
   27.3077    9.3668   57.2653 C   0  0  0  0  0  0  0  0  0  0  0  0
   27.7832    9.9533   56.2085 O   0  0  0  0  0  0  0  0  0  0  0  0
   26.0037    8.8692   57.2026 N   0  0  0  0  0  0  0  0  0  0  0  0
   25.5616    8.3769   58.0121 H   0  0  0  0  0  0  0  0  0  0  0  0
   29.9754    9.1592   60.5940 C   0  0  0  0  0  0  0  0  0  0  0  0
   29.4421    8.0193   60.0165 C   0  0  0  0  0  0  0  0  0  0  0  0
   28.5596    8.0784   58.9428 C   0  0  0  0  0  0  0  0  0  0  0  0
   28.1840    9.2951   58.4133 C   0  0  0  0  0  0  0  0  0  0  0  0
   28.6967   10.4372   58.9690 C   0  0  0  0  0  0  0  0  0  0  0  0
   29.5687   10.3536   60.0312 C   0  0  0  0  0  0  0  0  0  0  0  0
   31.4462    7.8627   62.0710 C   0  0  0  0  0  0  0  0  0  0  0  0
   30.8587    9.0855   61.6614 O   0  0  0  0  0  0  0  0  0  0  0  0
   20.4386   12.8588   50.4401 C   0  0  0  0  0  0  0  0  0  0  0  0
   19.9408   12.2774   49.2587 O   0  0  0  0  0  0  0  0  0  0  0  0
   20.1405   14.0512   50.6848 O   0  0  0  0  0  0  0  0  0  0  0  0
   18.9507   12.3290   49.1393 H   0  0  0  0  0  0  0  0  0  0  0  0
   22.1834    8.5846   51.9884 O   0  0  0  0  0  0  0  0  0  0  0  0
   21.4597    7.5191   52.4327 C   0  0  0  0  0  0  0  0  0  0  0  0
   21.8607    6.9090   53.7141 C   0  0  0  0  0  0  0  0  0  0  0  0
   22.8183    5.9154   53.6818 C   0  0  0  0  0  0  0  0  0  0  0  0
   23.3181    5.2928   54.8069 C   0  0  0  0  0  0  0  0  0  0  0  0
   22.8248    5.6938   56.0340 C   0  0  0  0  0  0  0  0  0  0  0  0
   21.8679    6.6852   56.0972 C   0  0  0  0  0  0  0  0  0  0  0  0
   21.3973    7.2803   54.9531 C   0  0  0  0  0  0  0  0  0  0  0  0
   20.4402    8.2705   55.0263 O   0  0  0  0  0  0  0  0  0  0  0  0
   20.7408    9.6095   55.3940 C   0  0  0  0  0  0  0  0  0  0  0  0
 22 23  1  0  0  0
 23 16  1  0  0  0
 16 17  2  0  0  0
 17 18  1  0  0  0
 18 19  2  0  0  0
 19 20  1  0  0  0
 20 21  2  0  0  0
 19 12  1  0  0  0
 12 13  2  0  0  0
 12 14  1  0  0  0
 14  7  1  0  0  0
  7  8  2  0  0  0
  8  9  1  0  0  0
  9 10  2  0  0  0
 10 11  1  0  0  0
 10  1  1  0  0  0
  1  2  2  0  0  0
  2  3  1  0  0  0
  3  4  2  0  0  0
  4  5  1  0  0  0
  5  6  2  0  0  0
  6 28  1  0  0  0
 28 29  1  0  0  0
 29 30  1  0  0  0
 30 31  2  0  0  0
 31 32  1  0  0  0
 32 33  2  0  0  0
 33 34  1  0  0  0
 34 35  2  0  0  0
 35 36  1  0  0  0
 36 37  1  0  0  0
  4 24  1  0  0  0
 24 25  1  0  0  0
 24 26  2  0  0  0
 21 16  1  0  0  0
 11  7  1  0  0  0
  6  1  1  0  0  0
 35 30  1  0  0  0
 14 15  1  0  0  0
 25 27  1  0  0  0
M  END
> <minimizedAffinity>
27.28182

> <CNNscore>
0.4287464023

> <CNNaffinity>
5.9781608582

> <CNN_VS>
2.5631148815

> <CNNaffinity_variance>
0.4510034919

$$$$
[H]OC(=O)c1c([H])c([H])c(-c2sc(N([H])C(=O)c3c([H])c([H])c(OC([H])([H])[H])c([H])c3[H])nc2[H])c(OC([H])([H])c2c([H])c([H])c([H])c([H])c2OC([H])([H])[H])c1[H]


 37 40  0  0  0  0  0  0  0  0999 V2000
   27.7474   10.4717   57.3364 C   0  0  0  0  0  0  0  0  0  0  0  0
   27.7859   11.8733   57.2914 C   0  0  0  0  0  0  0  0  0  0  0  0
   28.3966   12.6167   58.2924 C   0  0  0  0  0  0  0  0  0  0  0  0
   28.9789   11.9831   59.3527 C   0  0  0  0  0  0  0  0  0  0  0  0
   28.9504   10.5959   59.4141 C   0  0  0  0  0  0  0  0  0  0  0  0
   28.3289    9.8381   58.3949 C   0  0  0  0  0  0  0  0  0  0  0  0
   25.2336    8.5989   54.7903 C   0  0  0  0  0  0  0  0  0  0  0  0
   26.5039    8.5227   54.4278 N   0  0  0  0  0  0  0  0  0  0  0  0
   27.4154    9.0898   55.1607 C   0  0  0  0  0  0  0  0  0  0  0  0
   27.0388    9.7491   56.2829 C   0  0  0  0  0  0  0  0  0  0  0  0
   25.3023    9.5039   56.2135 S   0  0  0  0  0  0  0  0  0  0  0  0
   23.5562    6.7936   54.6184 C   0  0  0  0  0  0  0  0  0  0  0  0
   24.1433    6.2317   55.6316 O   0  0  0  0  0  0  0  0  0  0  0  0
   24.1005    7.9831   54.1279 N   0  0  0  0  0  0  0  0  0  0  0  0
   23.6855    8.4832   53.3090 H   0  0  0  0  0  0  0  0  0  0  0  0
   20.0607    4.8012   53.1858 C   0  0  0  0  0  0  0  0  0  0  0  0
   21.2834    4.1568   53.2684 C   0  0  0  0  0  0  0  0  0  0  0  0
   22.4305    4.8027   53.7180 C   0  0  0  0  0  0  0  0  0  0  0  0
   22.3820    6.1266   54.1014 C   0  0  0  0  0  0  0  0  0  0  0  0
   21.1839    6.7863   54.0267 C   0  0  0  0  0  0  0  0  0  0  0  0
   20.0620    6.1259   53.5785 C   0  0  0  0  0  0  0  0  0  0  0  0
   17.7107    4.1529   53.4736 C   0  0  0  0  0  0  0  0  0  0  0  0
   18.9233    4.1433   52.7403 O   0  0  0  0  0  0  0  0  0  0  0  0
   29.6398   12.7547   60.3834 C   0  0  0  0  0  0  0  0  0  0  0  0
   28.8891   13.3086   61.4374 O   0  0  0  0  0  0  0  0  0  0  0  0
   30.8778   12.9489   60.3719 O   0  0  0  0  0  0  0  0  0  0  0  0
   29.1994   13.0710   62.3564 H   0  0  0  0  0  0  0  0  0  0  0  0
   28.3123    8.4846   58.4561 O   0  0  0  0  0  0  0  0  0  0  0  0
   28.3429    7.5349   59.4326 C   0  0  0  0  0  0  0  0  0  0  0  0
   29.5012    7.5327   60.3456 C   0  0  0  0  0  0  0  0  0  0  0  0
   30.5040    8.4527   60.1147 C   0  0  0  0  0  0  0  0  0  0  0  0
   31.6189    8.5914   60.9154 C   0  0  0  0  0  0  0  0  0  0  0  0
   31.7298    7.7555   62.0103 C   0  0  0  0  0  0  0  0  0  0  0  0
   30.7425    6.8271   62.2666 C   0  0  0  0  0  0  0  0  0  0  0  0
   29.6479    6.7217   61.4449 C   0  0  0  0  0  0  0  0  0  0  0  0
   28.6660    5.7899   61.7089 O   0  0  0  0  0  0  0  0  0  0  0  0
   28.9445    4.5083   62.2551 C   0  0  0  0  0  0  0  0  0  0  0  0
 22 23  1  0  0  0
 23 16  1  0  0  0
 16 17  2  0  0  0
 17 18  1  0  0  0
 18 19  2  0  0  0
 19 20  1  0  0  0
 20 21  2  0  0  0
 19 12  1  0  0  0
 12 13  2  0  0  0
 12 14  1  0  0  0
 14  7  1  0  0  0
  7  8  2  0  0  0
  8  9  1  0  0  0
  9 10  2  0  0  0
 10 11  1  0  0  0
 10  1  1  0  0  0
  1  2  2  0  0  0
  2  3  1  0  0  0
  3  4  2  0  0  0
  4  5  1  0  0  0
  5  6  2  0  0  0
  6 28  1  0  0  0
 28 29  1  0  0  0
 29 30  1  0  0  0
 30 31  2  0  0  0
 31 32  1  0  0  0
 32 33  2  0  0  0
 33 34  1  0  0  0
 34 35  2  0  0  0
 35 36  1  0  0  0
 36 37  1  0  0  0
  4 24  1  0  0  0
 24 25  1  0  0  0
 24 26  2  0  0  0
 21 16  1  0  0  0
 11  7  1  0  0  0
  6  1  1  0  0  0
 35 30  1  0  0  0
 14 15  1  0  0  0
 25 27  1  0  0  0
M  END
> <minimizedAffinity>
23.10274

> <CNNscore>
0.4080483913

> <CNNaffinity>
5.8266944885

> <CNN_VS>
2.3775732517

> <CNNaffinity_variance>
0.1430741996

$$$$
[H]c1nc(Oc2c([H])c([H])c(N([H])c3nc4c([H])c([H])c([H])c([H])c4s3)c([H])c2[H])c(C2([H])C([H])([H])C([H])([H])N(C(=O)C([H])([H])[H])C([H])([H])C2([H])[H])c([H])c1[H]


 33 37  0  0  0  0  0  0  0  0999 V2000
   24.9248    6.9649   54.0790 C   0  0  0  0  0  0  0  0  0  0  0  0
   26.0264    7.1766   54.8770 C   0  0  0  0  0  0  0  0  0  0  0  0
   27.0301    8.0364   54.4578 C   0  0  0  0  0  0  0  0  0  0  0  0
   26.9610    8.6878   53.2636 C   0  0  0  0  0  0  0  0  0  0  0  0
   25.8329    8.4640   52.4593 C   0  0  0  0  0  0  0  0  0  0  0  0
   24.8425    7.6365   52.8378 C   0  0  0  0  0  0  0  0  0  0  0  0
   27.9335    9.5444   52.7686 N   0  0  0  0  0  0  0  0  0  0  0  0
   28.5645   10.0544   53.4738 H   0  0  0  0  0  0  0  0  0  0  0  0
   28.1585    9.7917   51.3855 C   0  0  0  0  0  0  0  0  0  0  0  0
   28.3726   10.8776   50.6994 N   0  0  0  0  0  0  0  0  0  0  0  0
   28.5549   10.8499   49.4064 C   0  0  0  0  0  0  0  0  0  0  0  0
   28.7920   11.9715   48.5825 C   0  0  0  0  0  0  0  0  0  0  0  0
   28.9624   11.7843   47.2531 C   0  0  0  0  0  0  0  0  0  0  0  0
   28.9273   10.5690   46.5948 C   0  0  0  0  0  0  0  0  0  0  0  0
   28.6937    9.4721   47.4118 C   0  0  0  0  0  0  0  0  0  0  0  0
   28.5122    9.6276   48.7961 C   0  0  0  0  0  0  0  0  0  0  0  0
   28.2122    8.5904   50.1172 S   0  0  0  0  0  0  0  0  0  0  0  0
   23.9335    6.1472   54.4380 O   0  0  0  0  0  0  0  0  0  0  0  0
   22.0953    6.6530   55.8332 C   0  0  0  0  0  0  0  0  0  0  0  0
   21.3661    6.3245   56.9472 C   0  0  0  0  0  0  0  0  0  0  0  0
   21.7241    5.2416   57.7210 C   0  0  0  0  0  0  0  0  0  0  0  0
   22.8188    4.4725   57.3881 C   0  0  0  0  0  0  0  0  0  0  0  0
   23.5236    4.7991   56.3014 N   0  0  0  0  0  0  0  0  0  0  0  0
   23.2063    5.8421   55.5272 C   0  0  0  0  0  0  0  0  0  0  0  0
   21.2345   11.9139   52.5205 C   0  0  0  0  0  0  0  0  0  0  0  0
   21.2885   10.5025   52.0717 C   0  0  0  0  0  0  0  0  0  0  0  0
   20.7296   10.1183   51.0083 O   0  0  0  0  0  0  0  0  0  0  0  0
   21.9790    9.5535   52.8438 N   0  0  0  0  0  0  0  0  0  0  0  0
   22.6293    9.9716   54.0672 C   0  0  0  0  0  0  0  0  0  0  0  0
   22.8891    8.7937   54.9864 C   0  0  0  0  0  0  0  0  0  0  0  0
   21.7515    7.8090   54.9687 C   0  0  0  0  0  0  0  0  0  0  0  0
   21.4223    7.3445   53.5687 C   0  0  0  0  0  0  0  0  0  0  0  0
   22.0904    8.1533   52.4927 C   0  0  0  0  0  0  0  0  0  0  0  0
 25 26  1  0  0  0
 26 27  2  0  0  0
 26 28  1  0  0  0
 28 29  1  0  0  0
 29 30  1  0  0  0
 30 31  1  0  0  0
 31 32  1  0  0  0
 32 33  1  0  0  0
 31 19  1  0  0  0
 19 20  2  0  0  0
 20 21  1  0  0  0
 21 22  2  0  0  0
 22 23  1  0  0  0
 23 24  2  0  0  0
 24 18  1  0  0  0
 18  1  1  0  0  0
  1  2  2  0  0  0
  2  3  1  0  0  0
  3  4  2  0  0  0
  4  7  1  0  0  0
  7  9  1  0  0  0
  9 10  2  0  0  0
 10 11  1  0  0  0
 11 12  2  0  0  0
 12 13  1  0  0  0
 13 14  2  0  0  0
 14 15  1  0  0  0
 15 16  2  0  0  0
 16 17  1  0  0  0
  4  5  1  0  0  0
  5  6  2  0  0  0
 33 28  1  0  0  0
 24 19  1  0  0  0
  6  1  1  0  0  0
 17  9  1  0  0  0
 16 11  1  0  0  0
  7  8  1  0  0  0
M  END
> <minimizedAffinity>
37.23180

> <CNNscore>
0.6368836761

> <CNNaffinity>
6.2462511063

> <CNN_VS>
3.9781353474

> <CNNaffinity_variance>
0.4136976302

$$$$
[H]c1nc(Oc2c([H])c([H])c(N([H])c3nc4c([H])c([H])c([H])c([H])c4s3)c([H])c2[H])c(C2([H])C([H])([H])C([H])([H])N(C(=O)C([H])([H])[H])C([H])([H])C2([H])[H])c([H])c1[H]


 33 37  0  0  0  0  0  0  0  0999 V2000
   25.5057    8.1464   54.1383 C   0  0  0  0  0  0  0  0  0  0  0  0
   26.7167    8.4691   54.7079 C   0  0  0  0  0  0  0  0  0  0  0  0
   27.7272    9.0090   53.9270 C   0  0  0  0  0  0  0  0  0  0  0  0
   27.5584    9.2333   52.5941 C   0  0  0  0  0  0  0  0  0  0  0  0
   26.3193    8.9006   52.0254 C   0  0  0  0  0  0  0  0  0  0  0  0
   25.3194    8.3757   52.7559 C   0  0  0  0  0  0  0  0  0  0  0  0
   28.5278    9.7491   51.7464 N   0  0  0  0  0  0  0  0  0  0  0  0
   29.3038   10.3565   52.1760 H   0  0  0  0  0  0  0  0  0  0  0  0
   28.5697    9.5244   50.3420 C   0  0  0  0  0  0  0  0  0  0  0  0
   28.8763    8.4879   49.6158 N   0  0  0  0  0  0  0  0  0  0  0  0
   28.8391    8.5267   48.3108 C   0  0  0  0  0  0  0  0  0  0  0  0
   29.1537    7.4575   47.4444 C   0  0  0  0  0  0  0  0  0  0  0  0
   29.0687    7.6499   46.1075 C   0  0  0  0  0  0  0  0  0  0  0  0
   28.6936    8.8233   45.4800 C   0  0  0  0  0  0  0  0  0  0  0  0
   28.3863    9.8690   46.3387 C   0  0  0  0  0  0  0  0  0  0  0  0
   28.4630    9.7065   47.7319 C   0  0  0  0  0  0  0  0  0  0  0  0
   28.1852   10.6903   49.0979 S   0  0  0  0  0  0  0  0  0  0  0  0
   24.5031    7.6244   54.8474 O   0  0  0  0  0  0  0  0  0  0  0  0
   22.4069    7.0984   53.8932 C   0  0  0  0  0  0  0  0  0  0  0  0
   21.3986    6.1791   53.7555 C   0  0  0  0  0  0  0  0  0  0  0  0
   21.4761    4.9583   54.3905 C   0  0  0  0  0  0  0  0  0  0  0  0
   22.5664    4.6422   55.1728 C   0  0  0  0  0  0  0  0  0  0  0  0
   23.5442    5.5431   55.3016 N   0  0  0  0  0  0  0  0  0  0  0  0
   23.5036    6.7369   54.7008 C   0  0  0  0  0  0  0  0  0  0  0  0
   21.7871   12.3812   50.5615 C   0  0  0  0  0  0  0  0  0  0  0  0
   21.6688   12.1551   52.0214 C   0  0  0  0  0  0  0  0  0  0  0  0
   21.8583   13.0800   52.8577 O   0  0  0  0  0  0  0  0  0  0  0  0
   21.3366   10.8776   52.5022 N   0  0  0  0  0  0  0  0  0  0  0  0
   21.1131    9.8011   51.5612 C   0  0  0  0  0  0  0  0  0  0  0  0
   21.2486    8.4458   52.2281 C   0  0  0  0  0  0  0  0  0  0  0  0
   22.3700    8.4259   53.2312 C   0  0  0  0  0  0  0  0  0  0  0  0
   22.2350    9.5266   54.2581 C   0  0  0  0  0  0  0  0  0  0  0  0
   21.1966   10.5545   53.9067 C   0  0  0  0  0  0  0  0  0  0  0  0
 25 26  1  0  0  0
 26 27  2  0  0  0
 26 28  1  0  0  0
 28 29  1  0  0  0
 29 30  1  0  0  0
 30 31  1  0  0  0
 31 32  1  0  0  0
 32 33  1  0  0  0
 31 19  1  0  0  0
 19 20  2  0  0  0
 20 21  1  0  0  0
 21 22  2  0  0  0
 22 23  1  0  0  0
 23 24  2  0  0  0
 24 18  1  0  0  0
 18  1  1  0  0  0
  1  2  2  0  0  0
  2  3  1  0  0  0
  3  4  2  0  0  0
  4  7  1  0  0  0
  7  9  1  0  0  0
  9 10  2  0  0  0
 10 11  1  0  0  0
 11 12  2  0  0  0
 12 13  1  0  0  0
 13 14  2  0  0  0
 14 15  1  0  0  0
 15 16  2  0  0  0
 16 17  1  0  0  0
  4  5  1  0  0  0
  5  6  2  0  0  0
 33 28  1  0  0  0
 24 19  1  0  0  0
  6  1  1  0  0  0
 17  9  1  0  0  0
 16 11  1  0  0  0
  7  8  1  0  0  0
M  END
> <minimizedAffinity>
32.15664

> <CNNscore>
0.5625433922

> <CNNaffinity>
6.5439887047

> <CNN_VS>
3.6812775135

> <CNNaffinity_variance>
0.1778166294

$$$$
[H]c1nc(Oc2c([H])c([H])c(N([H])c3nc4c([H])c([H])c([H])c([H])c4s3)c([H])c2[H])c(C2([H])C([H])([H])C([H])([H])N(C(=O)C([H])([H])[H])C([H])([H])C2([H])[H])c([H])c1[H]


 33 37  0  0  0  0  0  0  0  0999 V2000
   28.0788    9.2141   57.0066 C   0  0  0  0  0  0  0  0  0  0  0  0
   28.9930    8.8124   56.0589 C   0  0  0  0  0  0  0  0  0  0  0  0
   28.5779    8.5570   54.7609 C   0  0  0  0  0  0  0  0  0  0  0  0
   27.2749    8.6919   54.3874 C   0  0  0  0  0  0  0  0  0  0  0  0
   26.3527    9.1023   55.3624 C   0  0  0  0  0  0  0  0  0  0  0  0
   26.7241    9.3580   56.6295 C   0  0  0  0  0  0  0  0  0  0  0  0
   26.7823    8.4344   53.1164 N   0  0  0  0  0  0  0  0  0  0  0  0
   25.9318    7.7831   53.0260 H   0  0  0  0  0  0  0  0  0  0  0  0
   27.3236    8.9796   51.9186 C   0  0  0  0  0  0  0  0  0  0  0  0
   27.4872    8.5017   50.7184 N   0  0  0  0  0  0  0  0  0  0  0  0
   28.0218    9.2124   49.7618 C   0  0  0  0  0  0  0  0  0  0  0  0
   28.2387    8.7801   48.4355 C   0  0  0  0  0  0  0  0  0  0  0  0
   28.8059    9.6340   47.5519 C   0  0  0  0  0  0  0  0  0  0  0  0
   29.2090   10.9288   47.8209 C   0  0  0  0  0  0  0  0  0  0  0  0
   28.9924   11.3455   49.1265 C   0  0  0  0  0  0  0  0  0  0  0  0
   28.4060   10.4871   50.0713 C   0  0  0  0  0  0  0  0  0  0  0  0
   27.9761   10.5887   51.7193 S   0  0  0  0  0  0  0  0  0  0  0  0
   28.4291    9.4713   58.2681 O   0  0  0  0  0  0  0  0  0  0  0  0
   29.6149    9.6772   60.3011 C   0  0  0  0  0  0  0  0  0  0  0  0
   30.2360    9.0412   61.3454 C   0  0  0  0  0  0  0  0  0  0  0  0
   30.2875    7.6647   61.3925 C   0  0  0  0  0  0  0  0  0  0  0  0
   29.7165    6.9065   60.3928 C   0  0  0  0  0  0  0  0  0  0  0  0
   29.1133    7.5336   59.3793 N   0  0  0  0  0  0  0  0  0  0  0  0
   29.0437    8.8666   59.3000 C   0  0  0  0  0  0  0  0  0  0  0  0
   28.6107   15.8726   60.3011 C   0  0  0  0  0  0  0  0  0  0  0  0
   29.8432   15.1064   60.6015 C   0  0  0  0  0  0  0  0  0  0  0  0
   30.9914   15.6124   60.4748 O   0  0  0  0  0  0  0  0  0  0  0  0
   29.7445   13.7758   61.0411 N   0  0  0  0  0  0  0  0  0  0  0  0
   28.4373   13.1744   61.1953 C   0  0  0  0  0  0  0  0  0  0  0  0
   28.5212   11.6602   61.1962 C   0  0  0  0  0  0  0  0  0  0  0  0
   29.5337   11.1556   60.2040 C   0  0  0  0  0  0  0  0  0  0  0  0
   30.8955   11.7762   60.4147 C   0  0  0  0  0  0  0  0  0  0  0  0
   30.8858   12.9440   61.3605 C   0  0  0  0  0  0  0  0  0  0  0  0
 25 26  1  0  0  0
 26 27  2  0  0  0
 26 28  1  0  0  0
 28 29  1  0  0  0
 29 30  1  0  0  0
 30 31  1  0  0  0
 31 32  1  0  0  0
 32 33  1  0  0  0
 31 19  1  0  0  0
 19 20  2  0  0  0
 20 21  1  0  0  0
 21 22  2  0  0  0
 22 23  1  0  0  0
 23 24  2  0  0  0
 24 18  1  0  0  0
 18  1  1  0  0  0
  1  2  2  0  0  0
  2  3  1  0  0  0
  3  4  2  0  0  0
  4  7  1  0  0  0
  7  9  1  0  0  0
  9 10  2  0  0  0
 10 11  1  0  0  0
 11 12  2  0  0  0
 12 13  1  0  0  0
 13 14  2  0  0  0
 14 15  1  0  0  0
 15 16  2  0  0  0
 16 17  1  0  0  0
  4  5  1  0  0  0
  5  6  2  0  0  0
 33 28  1  0  0  0
 24 19  1  0  0  0
  6  1  1  0  0  0
 17  9  1  0  0  0
 16 11  1  0  0  0
  7  8  1  0  0  0
M  END
> <minimizedAffinity>
23.70349

> <CNNscore>
0.5532293916

> <CNNaffinity>
5.9712867737

> <CNN_VS>
3.3034913540

> <CNNaffinity_variance>
0.0208428241

$$$$
[H]c1nc(Oc2c([H])c([H])c(N([H])c3nc4c([H])c([H])c([H])c([H])c4s3)c([H])c2[H])c(C2([H])C([H])([H])C([H])([H])N(C(=O)C([H])([H])[H])C([H])([H])C2([H])[H])c([H])c1[H]


 33 37  0  0  0  0  0  0  0  0999 V2000
   24.5226    8.9438   54.9632 C   0  0  0  0  0  0  0  0  0  0  0  0
   23.4903    9.6749   55.5064 C   0  0  0  0  0  0  0  0  0  0  0  0
   22.2050    9.5363   55.0051 C   0  0  0  0  0  0  0  0  0  0  0  0
   21.9263    8.6878   53.9767 C   0  0  0  0  0  0  0  0  0  0  0  0
   22.9870    7.9478   53.4317 C   0  0  0  0  0  0  0  0  0  0  0  0
   24.2444    8.0597   53.8958 C   0  0  0  0  0  0  0  0  0  0  0  0
   20.6726    8.5121   53.4094 N   0  0  0  0  0  0  0  0  0  0  0  0
   20.2532    9.3268   52.8473 H   0  0  0  0  0  0  0  0  0  0  0  0
   19.9020    7.3206   53.5156 C   0  0  0  0  0  0  0  0  0  0  0  0
   18.6374    7.0954   53.7296 N   0  0  0  0  0  0  0  0  0  0  0  0
   18.1542    5.8832   53.7860 C   0  0  0  0  0  0  0  0  0  0  0  0
   16.8029    5.5435   54.0129 C   0  0  0  0  0  0  0  0  0  0  0  0
   16.4516    4.2370   54.0445 C   0  0  0  0  0  0  0  0  0  0  0  0
   17.3060    3.1638   53.8723 C   0  0  0  0  0  0  0  0  0  0  0  0
   18.6320    3.5065   53.6499 C   0  0  0  0  0  0  0  0  0  0  0  0
   19.0339    4.8519   53.6103 C   0  0  0  0  0  0  0  0  0  0  0  0
   20.5037    5.6857   53.3746 S   0  0  0  0  0  0  0  0  0  0  0  0
   25.7759    9.0425   55.4103 O   0  0  0  0  0  0  0  0  0  0  0  0
   28.0693    8.9300   55.9661 C   0  0  0  0  0  0  0  0  0  0  0  0
   29.3175    8.4704   55.6320 C   0  0  0  0  0  0  0  0  0  0  0  0
   29.5022    7.7207   54.4903 C   0  0  0  0  0  0  0  0  0  0  0  0
   28.4375    7.4211   53.6675 C   0  0  0  0  0  0  0  0  0  0  0  0
   27.2250    7.8724   54.0002 N   0  0  0  0  0  0  0  0  0  0  0  0
   27.0078    8.6021   55.0994 C   0  0  0  0  0  0  0  0  0  0  0  0
   27.2438   11.7370   61.5187 C   0  0  0  0  0  0  0  0  0  0  0  0
   27.9150   12.2283   60.2923 C   0  0  0  0  0  0  0  0  0  0  0  0
   28.0363   13.4591   60.0451 O   0  0  0  0  0  0  0  0  0  0  0  0
   28.4364   11.3071   59.3687 N   0  0  0  0  0  0  0  0  0  0  0  0
   28.3104    9.8897   59.6318 C   0  0  0  0  0  0  0  0  0  0  0  0
   28.4722    9.0745   58.3633 C   0  0  0  0  0  0  0  0  0  0  0  0
   27.8188    9.7412   57.1831 C   0  0  0  0  0  0  0  0  0  0  0  0
   28.3083   11.1574   56.9861 C   0  0  0  0  0  0  0  0  0  0  0  0
   29.1091   11.6847   58.1433 C   0  0  0  0  0  0  0  0  0  0  0  0
 25 26  1  0  0  0
 26 27  2  0  0  0
 26 28  1  0  0  0
 28 29  1  0  0  0
 29 30  1  0  0  0
 30 31  1  0  0  0
 31 32  1  0  0  0
 32 33  1  0  0  0
 31 19  1  0  0  0
 19 20  2  0  0  0
 20 21  1  0  0  0
 21 22  2  0  0  0
 22 23  1  0  0  0
 23 24  2  0  0  0
 24 18  1  0  0  0
 18  1  1  0  0  0
  1  2  2  0  0  0
  2  3  1  0  0  0
  3  4  2  0  0  0
  4  7  1  0  0  0
  7  9  1  0  0  0
  9 10  2  0  0  0
 10 11  1  0  0  0
 11 12  2  0  0  0
 12 13  1  0  0  0
 13 14  2  0  0  0
 14 15  1  0  0  0
 15 16  2  0  0  0
 16 17  1  0  0  0
  4  5  1  0  0  0
  5  6  2  0  0  0
 33 28  1  0  0  0
 24 19  1  0  0  0
  6  1  1  0  0  0
 17  9  1  0  0  0
 16 11  1  0  0  0
  7  8  1  0  0  0
M  END
> <minimizedAffinity>
26.81829

> <CNNscore>
0.5481237173

> <CNNaffinity>
6.4658088684

> <CNN_VS>
3.5440630913

> <CNNaffinity_variance>
0.2734118998

$$$$
[H]c1nc(Oc2c([H])c([H])c(N([H])c3nc4c([H])c([H])c([H])c([H])c4s3)c([H])c2[H])c(C2([H])C([H])([H])C([H])([H])N(C(=O)C([H])([H])[H])C([H])([H])C2([H])[H])c([H])c1[H]


 33 37  0  0  0  0  0  0  0  0999 V2000
   24.5847    8.3374   54.1645 C   0  0  0  0  0  0  0  0  0  0  0  0
   25.7262    8.3383   54.9340 C   0  0  0  0  0  0  0  0  0  0  0  0
   26.9715    8.3730   54.3254 C   0  0  0  0  0  0  0  0  0  0  0  0
   27.1043    8.4062   52.9702 C   0  0  0  0  0  0  0  0  0  0  0  0
   25.9333    8.4054   52.1967 C   0  0  0  0  0  0  0  0  0  0  0  0
   24.7110    8.3724   52.7569 C   0  0  0  0  0  0  0  0  0  0  0  0
   28.3137    8.4205   52.2907 N   0  0  0  0  0  0  0  0  0  0  0  0
   29.2157    8.2911   52.8611 H   0  0  0  0  0  0  0  0  0  0  0  0
   28.4435    8.5896   50.8839 C   0  0  0  0  0  0  0  0  0  0  0  0
   28.3226    9.6201   50.0970 N   0  0  0  0  0  0  0  0  0  0  0  0
   28.4933    9.5237   48.8057 C   0  0  0  0  0  0  0  0  0  0  0  0
   28.3826   10.5817   47.8776 C   0  0  0  0  0  0  0  0  0  0  0  0
   28.5884   10.3265   46.5646 C   0  0  0  0  0  0  0  0  0  0  0  0
   28.9062    9.0969   46.0182 C   0  0  0  0  0  0  0  0  0  0  0  0
   29.0129    8.0627   46.9371 C   0  0  0  0  0  0  0  0  0  0  0  0
   28.8062    8.2897   48.3080 C   0  0  0  0  0  0  0  0  0  0  0  0
   28.8365    7.3410   49.7257 S   0  0  0  0  0  0  0  0  0  0  0  0
   23.3644    8.3043   54.7029 O   0  0  0  0  0  0  0  0  0  0  0  0
   21.0870    8.7182   55.1757 C   0  0  0  0  0  0  0  0  0  0  0  0
   20.1464    9.5988   55.6454 C   0  0  0  0  0  0  0  0  0  0  0  0
   20.5196   10.8531   56.0778 C   0  0  0  0  0  0  0  0  0  0  0  0
   21.8418   11.2420   56.0453 C   0  0  0  0  0  0  0  0  0  0  0  0
   22.7516   10.3783   55.5865 N   0  0  0  0  0  0  0  0  0  0  0  0
   22.4270    9.1537   55.1590 C   0  0  0  0  0  0  0  0  0  0  0  0
   19.1899    3.3194   52.5977 C   0  0  0  0  0  0  0  0  0  0  0  0
   20.5417    3.7471   53.0288 C   0  0  0  0  0  0  0  0  0  0  0  0
   21.4365    2.9155   53.3429 O   0  0  0  0  0  0  0  0  0  0  0  0
   20.8497    5.1161   53.0944 N   0  0  0  0  0  0  0  0  0  0  0  0
   19.8393    6.0887   52.7372 C   0  0  0  0  0  0  0  0  0  0  0  0
   20.1586    7.4553   53.3121 C   0  0  0  0  0  0  0  0  0  0  0  0
   20.7360    7.3578   54.6982 C   0  0  0  0  0  0  0  0  0  0  0  0
   21.9433    6.4501   54.7496 C   0  0  0  0  0  0  0  0  0  0  0  0
   22.1383    5.6355   53.5020 C   0  0  0  0  0  0  0  0  0  0  0  0
 25 26  1  0  0  0
 26 27  2  0  0  0
 26 28  1  0  0  0
 28 29  1  0  0  0
 29 30  1  0  0  0
 30 31  1  0  0  0
 31 32  1  0  0  0
 32 33  1  0  0  0
 31 19  1  0  0  0
 19 20  2  0  0  0
 20 21  1  0  0  0
 21 22  2  0  0  0
 22 23  1  0  0  0
 23 24  2  0  0  0
 24 18  1  0  0  0
 18  1  1  0  0  0
  1  2  2  0  0  0
  2  3  1  0  0  0
  3  4  2  0  0  0
  4  7  1  0  0  0
  7  9  1  0  0  0
  9 10  2  0  0  0
 10 11  1  0  0  0
 11 12  2  0  0  0
 12 13  1  0  0  0
 13 14  2  0  0  0
 14 15  1  0  0  0
 15 16  2  0  0  0
 16 17  1  0  0  0
  4  5  1  0  0  0
  5  6  2  0  0  0
 33 28  1  0  0  0
 24 19  1  0  0  0
  6  1  1  0  0  0
 17  9  1  0  0  0
 16 11  1  0  0  0
  7  8  1  0  0  0
M  END
> <minimizedAffinity>
48.82854

> <CNNscore>
0.5417348742

> <CNNaffinity>
6.2179689407

> <CNN_VS>
3.3684906960

> <CNNaffinity_variance>
0.5226276517

$$$$
[H]c1nc(Oc2c([H])c([H])c(N([H])c3nc4c([H])c([H])c([H])c([H])c4s3)c([H])c2[H])c(C2([H])C([H])([H])C([H])([H])N(C(=O)C([H])([H])[H])C([H])([H])C2([H])[H])c([H])c1[H]


 33 37  0  0  0  0  0  0  0  0999 V2000
   24.2243    8.7908   54.3044 C   0  0  0  0  0  0  0  0  0  0  0  0
   25.2987    8.2080   53.6708 C   0  0  0  0  0  0  0  0  0  0  0  0
   26.5357    8.1732   54.2961 C   0  0  0  0  0  0  0  0  0  0  0  0
   26.7256    8.7054   55.5355 C   0  0  0  0  0  0  0  0  0  0  0  0
   25.6227    9.2962   56.1711 C   0  0  0  0  0  0  0  0  0  0  0  0
   24.4101    9.3456   55.5912 C   0  0  0  0  0  0  0  0  0  0  0  0
   27.9356    8.7270   56.2137 N   0  0  0  0  0  0  0  0  0  0  0  0
   28.7393    8.1228   55.8334 H   0  0  0  0  0  0  0  0  0  0  0  0
   28.1897    9.5013   57.3801 C   0  0  0  0  0  0  0  0  0  0  0  0
   28.1479   10.7794   57.6258 N   0  0  0  0  0  0  0  0  0  0  0  0
   28.4311   11.2630   58.8056 C   0  0  0  0  0  0  0  0  0  0  0  0
   28.4132   12.6285   59.1635 C   0  0  0  0  0  0  0  0  0  0  0  0
   28.7323   12.9783   60.4313 C   0  0  0  0  0  0  0  0  0  0  0  0
   29.0859   12.1096   61.4470 C   0  0  0  0  0  0  0  0  0  0  0  0
   29.1011   10.7698   61.0867 C   0  0  0  0  0  0  0  0  0  0  0  0
   28.7757   10.3689   59.7803 C   0  0  0  0  0  0  0  0  0  0  0  0
   28.6724    8.8858   58.9431 S   0  0  0  0  0  0  0  0  0  0  0  0
   23.0148    8.8494   53.7442 O   0  0  0  0  0  0  0  0  0  0  0  0
   21.2900    9.0441   52.1415 C   0  0  0  0  0  0  0  0  0  0  0  0
   20.5878    9.8624   51.2941 C   0  0  0  0  0  0  0  0  0  0  0  0
   20.8903   11.2044   51.2104 C   0  0  0  0  0  0  0  0  0  0  0  0
   21.9016   11.7448   51.9757 C   0  0  0  0  0  0  0  0  0  0  0  0
   22.5806   10.9410   52.7986 N   0  0  0  0  0  0  0  0  0  0  0  0
   22.3154    9.6350   52.9064 C   0  0  0  0  0  0  0  0  0  0  0  0
   20.7965    2.8421   52.9682 C   0  0  0  0  0  0  0  0  0  0  0  0
   19.8527    3.9291   53.3203 C   0  0  0  0  0  0  0  0  0  0  0  0
   18.6143    3.7243   53.4427 O   0  0  0  0  0  0  0  0  0  0  0  0
   20.3380    5.2312   53.5266 N   0  0  0  0  0  0  0  0  0  0  0  0
   21.7556    5.4897   53.3931 C   0  0  0  0  0  0  0  0  0  0  0  0
   22.0307    6.9641   53.1685 C   0  0  0  0  0  0  0  0  0  0  0  0
   21.0035    7.5936   52.2670 C   0  0  0  0  0  0  0  0  0  0  0  0
   19.5947    7.3730   52.7679 C   0  0  0  0  0  0  0  0  0  0  0  0
   19.5001    6.3599   53.8737 C   0  0  0  0  0  0  0  0  0  0  0  0
 25 26  1  0  0  0
 26 27  2  0  0  0
 26 28  1  0  0  0
 28 29  1  0  0  0
 29 30  1  0  0  0
 30 31  1  0  0  0
 31 32  1  0  0  0
 32 33  1  0  0  0
 31 19  1  0  0  0
 19 20  2  0  0  0
 20 21  1  0  0  0
 21 22  2  0  0  0
 22 23  1  0  0  0
 23 24  2  0  0  0
 24 18  1  0  0  0
 18  1  1  0  0  0
  1  2  2  0  0  0
  2  3  1  0  0  0
  3  4  2  0  0  0
  4  7  1  0  0  0
  7  9  1  0  0  0
  9 10  2  0  0  0
 10 11  1  0  0  0
 11 12  2  0  0  0
 12 13  1  0  0  0
 13 14  2  0  0  0
 14 15  1  0  0  0
 15 16  2  0  0  0
 16 17  1  0  0  0
  4  5  1  0  0  0
  5  6  2  0  0  0
 33 28  1  0  0  0
 24 19  1  0  0  0
  6  1  1  0  0  0
 17  9  1  0  0  0
 16 11  1  0  0  0
  7  8  1  0  0  0
M  END
> <minimizedAffinity>
18.05841

> <CNNscore>
0.5405398011

> <CNNaffinity>
6.3309631348

> <CNN_VS>
3.4221374989

> <CNNaffinity_variance>
0.0386033244

$$$$
[H]c1nc(Oc2c([H])c([H])c(N([H])c3nc4c([H])c([H])c([H])c([H])c4s3)c([H])c2[H])c(C2([H])C([H])([H])C([H])([H])N(C(=O)C([H])([H])[H])C([H])([H])C2([H])[H])c([H])c1[H]


 33 37  0  0  0  0  0  0  0  0999 V2000
   23.9026    7.8657   54.2755 C   0  0  0  0  0  0  0  0  0  0  0  0
   24.7887    8.4445   55.1559 C   0  0  0  0  0  0  0  0  0  0  0  0
   26.0625    8.7886   54.7304 C   0  0  0  0  0  0  0  0  0  0  0  0
   26.4724    8.5688   53.4501 C   0  0  0  0  0  0  0  0  0  0  0  0
   25.5599    7.9786   52.5620 C   0  0  0  0  0  0  0  0  0  0  0  0
   24.3174    7.6337   52.9442 C   0  0  0  0  0  0  0  0  0  0  0  0
   27.7350    8.8659   52.9582 N   0  0  0  0  0  0  0  0  0  0  0  0
   28.5744    8.7573   53.6211 H   0  0  0  0  0  0  0  0  0  0  0  0
   27.9982    9.3011   51.6293 C   0  0  0  0  0  0  0  0  0  0  0  0
   28.0298    8.6863   50.4818 N   0  0  0  0  0  0  0  0  0  0  0  0
   28.3030    9.3164   49.3708 C   0  0  0  0  0  0  0  0  0  0  0  0
   28.3603    8.7353   48.0855 C   0  0  0  0  0  0  0  0  0  0  0  0
   28.6576    9.5201   47.0238 C   0  0  0  0  0  0  0  0  0  0  0  0
   28.9203   10.8767   47.0672 C   0  0  0  0  0  0  0  0  0  0  0  0
   28.8620   11.4397   48.3340 C   0  0  0  0  0  0  0  0  0  0  0  0
   28.5563   10.6567   49.4595 C   0  0  0  0  0  0  0  0  0  0  0  0
   28.3871   10.9318   51.1349 S   0  0  0  0  0  0  0  0  0  0  0  0
   22.6667    7.5166   54.6372 O   0  0  0  0  0  0  0  0  0  0  0  0
   20.6418    7.2382   53.4524 C   0  0  0  0  0  0  0  0  0  0  0  0
   19.6454    6.3848   53.0527 C   0  0  0  0  0  0  0  0  0  0  0  0
   19.6785    5.0555   53.4152 C   0  0  0  0  0  0  0  0  0  0  0  0
   20.7117    4.5631   54.1836 C   0  0  0  0  0  0  0  0  0  0  0  0
   21.6783    5.4009   54.5686 N   0  0  0  0  0  0  0  0  0  0  0  0
   21.6797    6.6960   54.2363 C   0  0  0  0  0  0  0  0  0  0  0  0
   20.8775   13.4598   52.6595 C   0  0  0  0  0  0  0  0  0  0  0  0
   21.4544   12.3710   51.8361 C   0  0  0  0  0  0  0  0  0  0  0  0
   21.7076   12.5238   50.6100 O   0  0  0  0  0  0  0  0  0  0  0  0
   21.7325   11.1265   52.4254 N   0  0  0  0  0  0  0  0  0  0  0  0
   21.4516   10.9284   53.8312 C   0  0  0  0  0  0  0  0  0  0  0  0
   21.3483    9.4544   54.1728 C   0  0  0  0  0  0  0  0  0  0  0  0
   20.6511    8.6769   53.0894 C   0  0  0  0  0  0  0  0  0  0  0  0
   21.2974    8.8784   51.7381 C   0  0  0  0  0  0  0  0  0  0  0  0
   22.2957   10.0013   51.7090 C   0  0  0  0  0  0  0  0  0  0  0  0
 25 26  1  0  0  0
 26 27  2  0  0  0
 26 28  1  0  0  0
 28 29  1  0  0  0
 29 30  1  0  0  0
 30 31  1  0  0  0
 31 32  1  0  0  0
 32 33  1  0  0  0
 31 19  1  0  0  0
 19 20  2  0  0  0
 20 21  1  0  0  0
 21 22  2  0  0  0
 22 23  1  0  0  0
 23 24  2  0  0  0
 24 18  1  0  0  0
 18  1  1  0  0  0
  1  2  2  0  0  0
  2  3  1  0  0  0
  3  4  2  0  0  0
  4  7  1  0  0  0
  7  9  1  0  0  0
  9 10  2  0  0  0
 10 11  1  0  0  0
 11 12  2  0  0  0
 12 13  1  0  0  0
 13 14  2  0  0  0
 14 15  1  0  0  0
 15 16  2  0  0  0
 16 17  1  0  0  0
  4  5  1  0  0  0
  5  6  2  0  0  0
 33 28  1  0  0  0
 24 19  1  0  0  0
  6  1  1  0  0  0
 17  9  1  0  0  0
 16 11  1  0  0  0
  7  8  1  0  0  0
M  END
> <minimizedAffinity>
33.42209

> <CNNscore>
0.5257973075

> <CNNaffinity>
6.2493195534

> <CNN_VS>
3.2858753204

> <CNNaffinity_variance>
0.2339120656

$$$$
[H]c1nc(Oc2c([H])c([H])c(N([H])c3nc4c([H])c([H])c([H])c([H])c4s3)c([H])c2[H])c(C2([H])C([H])([H])C([H])([H])N(C(=O)C([H])([H])[H])C([H])([H])C2([H])[H])c([H])c1[H]


 33 37  0  0  0  0  0  0  0  0999 V2000
   25.2496    8.4222   55.1691 C   0  0  0  0  0  0  0  0  0  0  0  0
   24.9067    7.5806   54.1349 C   0  0  0  0  0  0  0  0  0  0  0  0
   23.8292    7.8896   53.3190 C   0  0  0  0  0  0  0  0  0  0  0  0
   23.0870    9.0156   53.5106 C   0  0  0  0  0  0  0  0  0  0  0  0
   23.4467    9.8656   54.5678 C   0  0  0  0  0  0  0  0  0  0  0  0
   24.4864    9.5939   55.3765 C   0  0  0  0  0  0  0  0  0  0  0  0
   21.9849    9.3794   52.7506 N   0  0  0  0  0  0  0  0  0  0  0  0
   21.3851    8.5966   52.3227 H   0  0  0  0  0  0  0  0  0  0  0  0
   21.5881   10.7229   52.5016 C   0  0  0  0  0  0  0  0  0  0  0  0
   21.6137   11.4756   51.4393 N   0  0  0  0  0  0  0  0  0  0  0  0
   21.1834   12.7087   51.4591 C   0  0  0  0  0  0  0  0  0  0  0  0
   21.1725   13.5963   50.3614 C   0  0  0  0  0  0  0  0  0  0  0  0
   20.6936   14.8499   50.5365 C   0  0  0  0  0  0  0  0  0  0  0  0
   20.1973   15.3701   51.7173 C   0  0  0  0  0  0  0  0  0  0  0  0
   20.2117   14.4913   52.7909 C   0  0  0  0  0  0  0  0  0  0  0  0
   20.7012   13.1824   52.6470 C   0  0  0  0  0  0  0  0  0  0  0  0
   20.8951   11.8274   53.6655 S   0  0  0  0  0  0  0  0  0  0  0  0
   26.2771    8.1683   55.9814 O   0  0  0  0  0  0  0  0  0  0  0  0
   27.9929    9.7674   56.2648 C   0  0  0  0  0  0  0  0  0  0  0  0
   28.8272   10.4248   57.1322 C   0  0  0  0  0  0  0  0  0  0  0  0
   28.7810   10.1560   58.4832 C   0  0  0  0  0  0  0  0  0  0  0  0
   27.8970    9.2239   58.9834 C   0  0  0  0  0  0  0  0  0  0  0  0
   27.0877    8.5881   58.1318 N   0  0  0  0  0  0  0  0  0  0  0  0
   27.1042    8.8227   56.8156 C   0  0  0  0  0  0  0  0  0  0  0  0
   28.7432   11.1626   50.1917 C   0  0  0  0  0  0  0  0  0  0  0  0
   28.3048    9.9006   50.8330 C   0  0  0  0  0  0  0  0  0  0  0  0
   27.5954    9.0539   50.2245 O   0  0  0  0  0  0  0  0  0  0  0  0
   28.6831    9.6263   52.1578 N   0  0  0  0  0  0  0  0  0  0  0  0
   29.4983   10.5826   52.8757 C   0  0  0  0  0  0  0  0  0  0  0  0
   29.4029   10.3762   54.3751 C   0  0  0  0  0  0  0  0  0  0  0  0
   28.0048   10.0203   54.8027 C   0  0  0  0  0  0  0  0  0  0  0  0
   27.4676    8.8228   54.0532 C   0  0  0  0  0  0  0  0  0  0  0  0
   28.3076    8.4243   52.8726 C   0  0  0  0  0  0  0  0  0  0  0  0
 25 26  1  0  0  0
 26 27  2  0  0  0
 26 28  1  0  0  0
 28 29  1  0  0  0
 29 30  1  0  0  0
 30 31  1  0  0  0
 31 32  1  0  0  0
 32 33  1  0  0  0
 31 19  1  0  0  0
 19 20  2  0  0  0
 20 21  1  0  0  0
 21 22  2  0  0  0
 22 23  1  0  0  0
 23 24  2  0  0  0
 24 18  1  0  0  0
 18  1  1  0  0  0
  1  2  2  0  0  0
  2  3  1  0  0  0
  3  4  2  0  0  0
  4  7  1  0  0  0
  7  9  1  0  0  0
  9 10  2  0  0  0
 10 11  1  0  0  0
 11 12  2  0  0  0
 12 13  1  0  0  0
 13 14  2  0  0  0
 14 15  1  0  0  0
 15 16  2  0  0  0
 16 17  1  0  0  0
  4  5  1  0  0  0
  5  6  2  0  0  0
 33 28  1  0  0  0
 24 19  1  0  0  0
  6  1  1  0  0  0
 17  9  1  0  0  0
 16 11  1  0  0  0
  7  8  1  0  0  0
M  END
> <minimizedAffinity>
47.90033

> <CNNscore>
0.5231719613

> <CNNaffinity>
5.8784584999

> <CNN_VS>
3.0754446983

> <CNNaffinity_variance>
0.8024750948

$$$$
[H]c1nc(Oc2c([H])c([H])c(N([H])c3nc4c([H])c([H])c([H])c([H])c4s3)c([H])c2[H])c(C2([H])C([H])([H])C([H])([H])N(C(=O)C([H])([H])[H])C([H])([H])C2([H])[H])c([H])c1[H]


 33 37  0  0  0  0  0  0  0  0999 V2000
   25.1951    8.8614   55.1191 C   0  0  0  0  0  0  0  0  0  0  0  0
   24.5391    8.3585   54.0182 C   0  0  0  0  0  0  0  0  0  0  0  0
   23.2714    8.8193   53.6973 C   0  0  0  0  0  0  0  0  0  0  0  0
   22.6441    9.7674   54.4476 C   0  0  0  0  0  0  0  0  0  0  0  0
   23.3233   10.2724   55.5670 C   0  0  0  0  0  0  0  0  0  0  0  0
   24.5535    9.8462   55.9045 C   0  0  0  0  0  0  0  0  0  0  0  0
   21.3711   10.2607   54.2018 N   0  0  0  0  0  0  0  0  0  0  0  0
   20.5312    9.6959   54.5640 H   0  0  0  0  0  0  0  0  0  0  0  0
   21.0986   11.4711   53.5051 C   0  0  0  0  0  0  0  0  0  0  0  0
   20.4340   12.5466   53.8170 N   0  0  0  0  0  0  0  0  0  0  0  0
   20.3211   13.5503   52.9887 C   0  0  0  0  0  0  0  0  0  0  0  0
   19.6229   14.7515   53.2385 C   0  0  0  0  0  0  0  0  0  0  0  0
   19.5939   15.7050   52.2785 C   0  0  0  0  0  0  0  0  0  0  0  0
   20.1966   15.6233   51.0370 C   0  0  0  0  0  0  0  0  0  0  0  0
   20.8805   14.4396   50.7997 C   0  0  0  0  0  0  0  0  0  0  0  0
   20.9324   13.4274   51.7724 C   0  0  0  0  0  0  0  0  0  0  0  0
   21.6331   11.8763   51.8911 S   0  0  0  0  0  0  0  0  0  0  0  0
   26.4151    8.4499   55.4691 O   0  0  0  0  0  0  0  0  0  0  0  0
   28.7761    8.3912   55.4084 C   0  0  0  0  0  0  0  0  0  0  0  0
   29.9040    7.8884   54.8119 C   0  0  0  0  0  0  0  0  0  0  0  0
   29.8014    7.0078   53.7566 C   0  0  0  0  0  0  0  0  0  0  0  0
   28.5660    6.6188   53.2847 C   0  0  0  0  0  0  0  0  0  0  0  0
   27.4724    7.1131   53.8714 N   0  0  0  0  0  0  0  0  0  0  0  0
   27.5329    7.9689   54.8969 C   0  0  0  0  0  0  0  0  0  0  0  0
   28.4723   12.8221   59.8432 C   0  0  0  0  0  0  0  0  0  0  0  0
   28.4638   11.3454   59.9684 C   0  0  0  0  0  0  0  0  0  0  0  0
   28.8365   10.7628   61.0231 O   0  0  0  0  0  0  0  0  0  0  0  0
   28.0305   10.5587   58.8883 N   0  0  0  0  0  0  0  0  0  0  0  0
   27.5968   11.2053   57.6683 C   0  0  0  0  0  0  0  0  0  0  0  0
   27.6342   10.2493   56.4916 C   0  0  0  0  0  0  0  0  0  0  0  0
   28.8335    9.3421   56.5461 C   0  0  0  0  0  0  0  0  0  0  0  0
   28.9234    8.5953   57.8570 C   0  0  0  0  0  0  0  0  0  0  0  0
   27.9841    9.1117   58.9103 C   0  0  0  0  0  0  0  0  0  0  0  0
 25 26  1  0  0  0
 26 27  2  0  0  0
 26 28  1  0  0  0
 28 29  1  0  0  0
 29 30  1  0  0  0
 30 31  1  0  0  0
 31 32  1  0  0  0
 32 33  1  0  0  0
 31 19  1  0  0  0
 19 20  2  0  0  0
 20 21  1  0  0  0
 21 22  2  0  0  0
 22 23  1  0  0  0
 23 24  2  0  0  0
 24 18  1  0  0  0
 18  1  1  0  0  0
  1  2  2  0  0  0
  2  3  1  0  0  0
  3  4  2  0  0  0
  4  7  1  0  0  0
  7  9  1  0  0  0
  9 10  2  0  0  0
 10 11  1  0  0  0
 11 12  2  0  0  0
 12 13  1  0  0  0
 13 14  2  0  0  0
 14 15  1  0  0  0
 15 16  2  0  0  0
 16 17  1  0  0  0
  4  5  1  0  0  0
  5  6  2  0  0  0
 33 28  1  0  0  0
 24 19  1  0  0  0
  6  1  1  0  0  0
 17  9  1  0  0  0
 16 11  1  0  0  0
  7  8  1  0  0  0
M  END
> <minimizedAffinity>
41.20258

> <CNNscore>
0.5108102560

> <CNNaffinity>
5.8346209526

> <CNN_VS>
2.9803841114

> <CNNaffinity_variance>
0.1858076155

$$$$
[H]c1nc(N([H])c2c([H])c([H])c(N3C([H])([H])C([H])([H])N(C([H])([H])[H])C([H])([H])C3([H])[H])c([H])c2OC([H])([H])[H])nc(N([H])c2c([H])c([H])c([H])c([H])c2S(=O)(=O)C([H])(C([H])([H])[H])C([H])([H])[H])c1Cl


 38 41  0  0  0  0  0  0  0  0999 V2000
   25.0185    7.5463   53.7381 C   0  0  0  0  0  0  0  0  0  0  0  0
   24.7855    6.2657   54.0249 N   0  0  0  0  0  0  0  0  0  0  0  0
   23.6273    5.6383   53.8740 C   0  0  0  0  0  0  0  0  0  0  0  0
   22.5571    6.3500   53.3799 C   0  0  0  0  0  0  0  0  0  0  0  0
   20.9974    5.5829   53.1559 Cl  0  0  0  0  0  0  0  0  0  0  0  0
   22.7174    7.7200   53.0483 C   0  0  0  0  0  0  0  0  0  0  0  0
   23.9265    8.2100   53.2510 N   0  0  0  0  0  0  0  0  0  0  0  0
   26.2401    8.2413   53.8881 N   0  0  0  0  0  0  0  0  0  0  0  0
   26.7906    8.3572   52.9649 H   0  0  0  0  0  0  0  0  0  0  0  0
   28.1726    8.7667   55.2251 C   0  0  0  0  0  0  0  0  0  0  0  0
   28.7301    9.2775   56.3699 C   0  0  0  0  0  0  0  0  0  0  0  0
   28.0046    9.8051   57.3986 C   0  0  0  0  0  0  0  0  0  0  0  0
   26.6317    9.8071   57.2416 C   0  0  0  0  0  0  0  0  0  0  0  0
   26.0511    9.2870   56.0753 C   0  0  0  0  0  0  0  0  0  0  0  0
   26.7752    8.7657   55.0589 C   0  0  0  0  0  0  0  0  0  0  0  0
   28.6220   10.3321   58.5538 N   0  0  0  0  0  0  0  0  0  0  0  0
   28.6603   11.7518   58.8775 C   0  0  0  0  0  0  0  0  0  0  0  0
   28.3022   11.9886   60.3313 C   0  0  0  0  0  0  0  0  0  0  0  0
   28.8177   11.0100   61.2341 N   0  0  0  0  0  0  0  0  0  0  0  0
   30.2037   11.1807   61.5573 C   0  0  0  0  0  0  0  0  0  0  0  0
   28.5031    9.6440   60.8125 C   0  0  0  0  0  0  0  0  0  0  0  0
   29.2835    9.4651   59.4997 C   0  0  0  0  0  0  0  0  0  0  0  0
   28.7934    6.9014   53.8202 C   0  0  0  0  0  0  0  0  0  0  0  0
   28.9743    8.2432   54.2130 O   0  0  0  0  0  0  0  0  0  0  0  0
   21.5974    8.4058   52.5241 N   0  0  0  0  0  0  0  0  0  0  0  0
   20.7547    7.7920   52.3137 H   0  0  0  0  0  0  0  0  0  0  0  0
   21.5359    9.7904   52.3051 C   0  0  0  0  0  0  0  0  0  0  0  0
   21.3969   10.3987   51.0778 C   0  0  0  0  0  0  0  0  0  0  0  0
   21.4055   11.7943   50.9091 C   0  0  0  0  0  0  0  0  0  0  0  0
   21.5626   12.5663   52.0412 C   0  0  0  0  0  0  0  0  0  0  0  0
   21.7029   11.9854   53.2764 C   0  0  0  0  0  0  0  0  0  0  0  0
   21.6927   10.6134   53.4373 C   0  0  0  0  0  0  0  0  0  0  0  0
   21.8200    9.8767   55.0074 S   0  0  0  0  0  0  0  0  0  0  0  0
   23.1367   10.1267   55.6831 O   0  0  0  0  0  0  0  0  0  0  0  0
   20.8052   10.6290   55.8915 O   0  0  0  0  0  0  0  0  0  0  0  0
   21.3035    8.2007   55.0435 C   0  0  0  0  0  0  0  0  0  0  0  0
   19.7698    8.1251   55.0288 C   0  0  0  0  0  0  0  0  0  0  0  0
   21.6991    7.5211   56.3598 C   0  0  0  0  0  0  0  0  0  0  0  0
 23 24  1  0  0  0
 24 10  1  0  0  0
 10 11  2  0  0  0
 11 12  1  0  0  0
 12 13  2  0  0  0
 13 14  1  0  0  0
 14 15  2  0  0  0
 15  8  1  0  0  0
  8  1  1  0  0  0
  1  2  2  0  0  0
  2  3  1  0  0  0
  3  4  2  0  0  0
  4  5  1  0  0  0
  4  6  1  0  0  0
  6 25  1  0  0  0
 25 27  1  0  0  0
 27 28  2  0  0  0
 28 29  1  0  0  0
 29 30  2  0  0  0
 30 31  1  0  0  0
 31 32  2  0  0  0
 32 33  1  0  0  0
 33 34  2  0  0  0
 33 35  2  0  0  0
 33 36  1  0  0  0
 36 37  1  0  0  0
 36 38  1  0  0  0
  6  7  2  0  0  0
 12 16  1  0  0  0
 16 17  1  0  0  0
 17 18  1  0  0  0
 18 19  1  0  0  0
 19 20  1  0  0  0
 19 21  1  0  0  0
 21 22  1  0  0  0
 15 10  1  0  0  0
  7  1  1  0  0  0
 22 16  1  0  0  0
 32 27  1  0  0  0
  8  9  1  0  0  0
 25 26  1  0  0  0
M  END
> <minimizedAffinity>
12.48378

> <CNNscore>
0.6317015886

> <CNNaffinity>
7.1021757126

> <CNN_VS>
4.4864559174

> <CNNaffinity_variance>
0.4002474844

$$$$
[H]c1nc(N([H])c2c([H])c([H])c(N3C([H])([H])C([H])([H])N(C([H])([H])[H])C([H])([H])C3([H])[H])c([H])c2OC([H])([H])[H])nc(N([H])c2c([H])c([H])c([H])c([H])c2S(=O)(=O)C([H])(C([H])([H])[H])C([H])([H])[H])c1Cl


 38 41  0  0  0  0  0  0  0  0999 V2000
   25.3374    7.8646   53.4814 C   0  0  0  0  0  0  0  0  0  0  0  0
   24.8771    6.6383   53.2353 N   0  0  0  0  0  0  0  0  0  0  0  0
   23.6464    6.3390   52.8433 C   0  0  0  0  0  0  0  0  0  0  0  0
   22.7472    7.3670   52.6683 C   0  0  0  0  0  0  0  0  0  0  0  0
   21.1042    7.0424   52.1522 Cl  0  0  0  0  0  0  0  0  0  0  0  0
   23.1541    8.7047   52.9085 C   0  0  0  0  0  0  0  0  0  0  0  0
   24.4085    8.8505   53.2937 N   0  0  0  0  0  0  0  0  0  0  0  0
   26.6416    8.2139   53.8996 N   0  0  0  0  0  0  0  0  0  0  0  0
   27.3861    8.1265   53.1205 H   0  0  0  0  0  0  0  0  0  0  0  0
   28.3978    8.9249   55.3857 C   0  0  0  0  0  0  0  0  0  0  0  0
   28.8193    9.3472   56.6211 C   0  0  0  0  0  0  0  0  0  0  0  0
   27.9880    9.5185   57.6901 C   0  0  0  0  0  0  0  0  0  0  0  0
   26.6514    9.2402   57.4770 C   0  0  0  0  0  0  0  0  0  0  0  0
   26.2096    8.8075   56.2178 C   0  0  0  0  0  0  0  0  0  0  0  0
   27.0381    8.6398   55.1619 C   0  0  0  0  0  0  0  0  0  0  0  0
   28.4641    9.9680   58.9410 N   0  0  0  0  0  0  0  0  0  0  0  0
   28.7443    9.0871   60.0668 C   0  0  0  0  0  0  0  0  0  0  0  0
   30.0778    9.4248   60.7036 C   0  0  0  0  0  0  0  0  0  0  0  0
   30.3653   10.8218   60.7681 N   0  0  0  0  0  0  0  0  0  0  0  0
   29.6940   11.5116   61.8302 C   0  0  0  0  0  0  0  0  0  0  0  0
   30.1979   11.4844   59.4736 C   0  0  0  0  0  0  0  0  0  0  0  0
   28.6919   11.3726   59.1844 C   0  0  0  0  0  0  0  0  0  0  0  0
   30.2124    7.6956   54.3685 C   0  0  0  0  0  0  0  0  0  0  0  0
   29.3022    8.7717   54.3370 O   0  0  0  0  0  0  0  0  0  0  0  0
   22.2039    9.7301   52.6953 N   0  0  0  0  0  0  0  0  0  0  0  0
   22.0167    9.9618   51.6743 H   0  0  0  0  0  0  0  0  0  0  0  0
   21.5101   10.4037   53.7120 C   0  0  0  0  0  0  0  0  0  0  0  0
   21.1869    9.8764   54.9420 C   0  0  0  0  0  0  0  0  0  0  0  0
   20.4330   10.5752   55.9010 C   0  0  0  0  0  0  0  0  0  0  0  0
   20.0097   11.8451   55.5687 C   0  0  0  0  0  0  0  0  0  0  0  0
   20.3183   12.3943   54.3496 C   0  0  0  0  0  0  0  0  0  0  0  0
   21.0604   11.7041   53.4109 C   0  0  0  0  0  0  0  0  0  0  0  0
   21.4950   12.4174   51.8855 S   0  0  0  0  0  0  0  0  0  0  0  0
   22.9714   12.6324   51.7221 O   0  0  0  0  0  0  0  0  0  0  0  0
   21.1608   11.3465   50.8277 O   0  0  0  0  0  0  0  0  0  0  0  0
   20.5167   13.8077   51.4534 C   0  0  0  0  0  0  0  0  0  0  0  0
   21.3837   14.8577   50.7437 C   0  0  0  0  0  0  0  0  0  0  0  0
   19.9942   14.5336   52.6988 C   0  0  0  0  0  0  0  0  0  0  0  0
 23 24  1  0  0  0
 24 10  1  0  0  0
 10 11  2  0  0  0
 11 12  1  0  0  0
 12 13  2  0  0  0
 13 14  1  0  0  0
 14 15  2  0  0  0
 15  8  1  0  0  0
  8  1  1  0  0  0
  1  2  2  0  0  0
  2  3  1  0  0  0
  3  4  2  0  0  0
  4  5  1  0  0  0
  4  6  1  0  0  0
  6 25  1  0  0  0
 25 27  1  0  0  0
 27 28  2  0  0  0
 28 29  1  0  0  0
 29 30  2  0  0  0
 30 31  1  0  0  0
 31 32  2  0  0  0
 32 33  1  0  0  0
 33 34  2  0  0  0
 33 35  2  0  0  0
 33 36  1  0  0  0
 36 37  1  0  0  0
 36 38  1  0  0  0
  6  7  2  0  0  0
 12 16  1  0  0  0
 16 17  1  0  0  0
 17 18  1  0  0  0
 18 19  1  0  0  0
 19 20  1  0  0  0
 19 21  1  0  0  0
 21 22  1  0  0  0
 15 10  1  0  0  0
  7  1  1  0  0  0
 22 16  1  0  0  0
 32 27  1  0  0  0
  8  9  1  0  0  0
 25 26  1  0  0  0
M  END
> <minimizedAffinity>
30.98721

> <CNNscore>
0.6256766915

> <CNNaffinity>
6.8724241257

> <CNN_VS>
4.2999157906

> <CNNaffinity_variance>
0.5566004515

$$$$
[H]c1nc(N([H])c2c([H])c([H])c(N3C([H])([H])C([H])([H])N(C([H])([H])[H])C([H])([H])C3([H])[H])c([H])c2OC([H])([H])[H])nc(N([H])c2c([H])c([H])c([H])c([H])c2S(=O)(=O)C([H])(C([H])([H])[H])C([H])([H])[H])c1Cl


 38 41  0  0  0  0  0  0  0  0999 V2000
   25.2811    7.2725   53.9398 C   0  0  0  0  0  0  0  0  0  0  0  0
   25.2212    6.0218   53.4833 N   0  0  0  0  0  0  0  0  0  0  0  0
   24.1208    5.2902   53.3758 C   0  0  0  0  0  0  0  0  0  0  0  0
   22.9233    5.8488   53.7630 C   0  0  0  0  0  0  0  0  0  0  0  0
   21.4306    4.9377   53.6479 Cl  0  0  0  0  0  0  0  0  0  0  0  0
   22.8961    7.1768   54.2613 C   0  0  0  0  0  0  0  0  0  0  0  0
   24.0680    7.7829   54.3113 N   0  0  0  0  0  0  0  0  0  0  0  0
   26.4372    8.0760   54.0657 N   0  0  0  0  0  0  0  0  0  0  0  0
   26.9849    8.1978   53.1415 H   0  0  0  0  0  0  0  0  0  0  0  0
   28.2883    8.6194   55.5066 C   0  0  0  0  0  0  0  0  0  0  0  0
   28.7882    9.2213   56.6336 C   0  0  0  0  0  0  0  0  0  0  0  0
   28.0245    9.9151   57.5270 C   0  0  0  0  0  0  0  0  0  0  0  0
   26.6737    9.9940   57.2464 C   0  0  0  0  0  0  0  0  0  0  0  0
   26.1519    9.3821   56.0969 C   0  0  0  0  0  0  0  0  0  0  0  0
   26.9138    8.6959   55.2149 C   0  0  0  0  0  0  0  0  0  0  0  0
   28.5843   10.5301   58.6680 N   0  0  0  0  0  0  0  0  0  0  0  0
   28.4448   11.9467   58.9772 C   0  0  0  0  0  0  0  0  0  0  0  0
   28.0783   12.1526   60.4336 C   0  0  0  0  0  0  0  0  0  0  0  0
   28.7264   11.2584   61.3384 N   0  0  0  0  0  0  0  0  0  0  0  0
   30.0833   11.6086   61.6400 C   0  0  0  0  0  0  0  0  0  0  0  0
   28.5838    9.8586   60.9349 C   0  0  0  0  0  0  0  0  0  0  0  0
   29.3635    9.7657   59.6128 C   0  0  0  0  0  0  0  0  0  0  0  0
   30.4581    8.3607   54.4754 C   0  0  0  0  0  0  0  0  0  0  0  0
   29.1267    7.9262   54.6361 O   0  0  0  0  0  0  0  0  0  0  0  0
   21.6415    7.7172   54.6268 N   0  0  0  0  0  0  0  0  0  0  0  0
   20.8586    7.0041   54.7258 H   0  0  0  0  0  0  0  0  0  0  0  0
   21.3970    9.0754   54.8801 C   0  0  0  0  0  0  0  0  0  0  0  0
   21.2092    9.6338   56.1245 C   0  0  0  0  0  0  0  0  0  0  0  0
   20.9032   10.9925   56.3162 C   0  0  0  0  0  0  0  0  0  0  0  0
   20.7910   11.7797   55.1893 C   0  0  0  0  0  0  0  0  0  0  0  0
   20.9736   11.2483   53.9374 C   0  0  0  0  0  0  0  0  0  0  0  0
   21.2752    9.9127   53.7541 C   0  0  0  0  0  0  0  0  0  0  0  0
   21.5564    9.2484   52.1717 S   0  0  0  0  0  0  0  0  0  0  0  0
   21.3643   10.2398   51.0613 O   0  0  0  0  0  0  0  0  0  0  0  0
   23.0653    8.9344   52.1263 O   0  0  0  0  0  0  0  0  0  0  0  0
   20.7608    7.7085   51.9023 C   0  0  0  0  0  0  0  0  0  0  0  0
   20.0625    7.7121   50.5347 C   0  0  0  0  0  0  0  0  0  0  0  0
   19.6215    7.4842   52.9036 C   0  0  0  0  0  0  0  0  0  0  0  0
 23 24  1  0  0  0
 24 10  1  0  0  0
 10 11  2  0  0  0
 11 12  1  0  0  0
 12 13  2  0  0  0
 13 14  1  0  0  0
 14 15  2  0  0  0
 15  8  1  0  0  0
  8  1  1  0  0  0
  1  2  2  0  0  0
  2  3  1  0  0  0
  3  4  2  0  0  0
  4  5  1  0  0  0
  4  6  1  0  0  0
  6 25  1  0  0  0
 25 27  1  0  0  0
 27 28  2  0  0  0
 28 29  1  0  0  0
 29 30  2  0  0  0
 30 31  1  0  0  0
 31 32  2  0  0  0
 32 33  1  0  0  0
 33 34  2  0  0  0
 33 35  2  0  0  0
 33 36  1  0  0  0
 36 37  1  0  0  0
 36 38  1  0  0  0
  6  7  2  0  0  0
 12 16  1  0  0  0
 16 17  1  0  0  0
 17 18  1  0  0  0
 18 19  1  0  0  0
 19 20  1  0  0  0
 19 21  1  0  0  0
 21 22  1  0  0  0
 15 10  1  0  0  0
  7  1  1  0  0  0
 22 16  1  0  0  0
 32 27  1  0  0  0
  8  9  1  0  0  0
 25 26  1  0  0  0
M  END
> <minimizedAffinity>
21.62938

> <CNNscore>
0.5882691145

> <CNNaffinity>
6.8751611710

> <CNN_VS>
4.0444450378

> <CNNaffinity_variance>
0.8549262881

$$$$
[H]c1nc(N([H])c2c([H])c([H])c(N3C([H])([H])C([H])([H])N(C([H])([H])[H])C([H])([H])C3([H])[H])c([H])c2OC([H])([H])[H])nc(N([H])c2c([H])c([H])c([H])c([H])c2S(=O)(=O)C([H])(C([H])([H])[H])C([H])([H])[H])c1Cl


 38 41  0  0  0  0  0  0  0  0999 V2000
   25.9765    7.6735   54.2374 C   0  0  0  0  0  0  0  0  0  0  0  0
   26.0083    6.3411   54.2477 N   0  0  0  0  0  0  0  0  0  0  0  0
   24.9652    5.5418   54.0726 C   0  0  0  0  0  0  0  0  0  0  0  0
   23.7309    6.1138   53.8598 C   0  0  0  0  0  0  0  0  0  0  0  0
   22.3099    5.1162   53.6214 Cl  0  0  0  0  0  0  0  0  0  0  0  0
   23.6066    7.5268   53.8334 C   0  0  0  0  0  0  0  0  0  0  0  0
   24.7302    8.1939   54.0226 N   0  0  0  0  0  0  0  0  0  0  0  0
   27.0698    8.5504   54.4207 N   0  0  0  0  0  0  0  0  0  0  0  0
   27.6107    8.7674   53.5101 H   0  0  0  0  0  0  0  0  0  0  0  0
   28.5846   10.0231   55.5761 C   0  0  0  0  0  0  0  0  0  0  0  0
   29.0271   10.6139   56.7326 C   0  0  0  0  0  0  0  0  0  0  0  0
   28.4691   10.3958   57.9589 C   0  0  0  0  0  0  0  0  0  0  0  0
   27.3986    9.5228   57.9981 C   0  0  0  0  0  0  0  0  0  0  0  0
   26.9382    8.9130   56.8216 C   0  0  0  0  0  0  0  0  0  0  0  0
   27.4950    9.1332   55.6089 C   0  0  0  0  0  0  0  0  0  0  0  0
   28.9495   11.0363   59.1218 N   0  0  0  0  0  0  0  0  0  0  0  0
   28.4245   12.2965   59.6300 C   0  0  0  0  0  0  0  0  0  0  0  0
   28.1922   12.2258   61.1263 C   0  0  0  0  0  0  0  0  0  0  0  0
   29.1863   11.4952   61.8450 N   0  0  0  0  0  0  0  0  0  0  0  0
   30.3985   12.2241   62.0770 C   0  0  0  0  0  0  0  0  0  0  0  0
   29.4281   10.1712   61.2694 C   0  0  0  0  0  0  0  0  0  0  0  0
   30.0328   10.4656   59.8866 C   0  0  0  0  0  0  0  0  0  0  0  0
   30.2353   11.2491   54.3070 C   0  0  0  0  0  0  0  0  0  0  0  0
   29.2018   10.2916   54.3561 O   0  0  0  0  0  0  0  0  0  0  0  0
   22.3240    8.0704   53.5904 N   0  0  0  0  0  0  0  0  0  0  0  0
   21.7765    7.5954   52.8121 H   0  0  0  0  0  0  0  0  0  0  0  0
   21.7552    9.1337   54.3078 C   0  0  0  0  0  0  0  0  0  0  0  0
   21.5467    9.1570   55.6685 C   0  0  0  0  0  0  0  0  0  0  0  0
   20.9128   10.2244   56.3283 C   0  0  0  0  0  0  0  0  0  0  0  0
   20.4895   11.2838   55.5532 C   0  0  0  0  0  0  0  0  0  0  0  0
   20.6851   11.2858   54.1950 C   0  0  0  0  0  0  0  0  0  0  0  0
   21.3096   10.2351   53.5513 C   0  0  0  0  0  0  0  0  0  0  0  0
   21.6032   10.2584   51.8374 S   0  0  0  0  0  0  0  0  0  0  0  0
   22.6133    9.2436   51.3874 O   0  0  0  0  0  0  0  0  0  0  0  0
   20.2873    9.7764   51.1943 O   0  0  0  0  0  0  0  0  0  0  0  0
   21.8663   11.8669   51.1892 C   0  0  0  0  0  0  0  0  0  0  0  0
   21.6881   12.9139   52.2982 C   0  0  0  0  0  0  0  0  0  0  0  0
   20.7982   12.2344   50.1524 C   0  0  0  0  0  0  0  0  0  0  0  0
 23 24  1  0  0  0
 24 10  1  0  0  0
 10 11  2  0  0  0
 11 12  1  0  0  0
 12 13  2  0  0  0
 13 14  1  0  0  0
 14 15  2  0  0  0
 15  8  1  0  0  0
  8  1  1  0  0  0
  1  2  2  0  0  0
  2  3  1  0  0  0
  3  4  2  0  0  0
  4  5  1  0  0  0
  4  6  1  0  0  0
  6 25  1  0  0  0
 25 27  1  0  0  0
 27 28  2  0  0  0
 28 29  1  0  0  0
 29 30  2  0  0  0
 30 31  1  0  0  0
 31 32  2  0  0  0
 32 33  1  0  0  0
 33 34  2  0  0  0
 33 35  2  0  0  0
 33 36  1  0  0  0
 36 37  1  0  0  0
 36 38  1  0  0  0
  6  7  2  0  0  0
 12 16  1  0  0  0
 16 17  1  0  0  0
 17 18  1  0  0  0
 18 19  1  0  0  0
 19 20  1  0  0  0
 19 21  1  0  0  0
 21 22  1  0  0  0
 15 10  1  0  0  0
  7  1  1  0  0  0
 22 16  1  0  0  0
 32 27  1  0  0  0
  8  9  1  0  0  0
 25 26  1  0  0  0
M  END
> <minimizedAffinity>
25.65054

> <CNNscore>
0.5825009346

> <CNNaffinity>
6.8591995239

> <CNN_VS>
3.9954900742

> <CNNaffinity_variance>
0.7454980016

$$$$
[H]c1nc(N([H])c2c([H])c([H])c(N3C([H])([H])C([H])([H])N(C([H])([H])[H])C([H])([H])C3([H])[H])c([H])c2OC([H])([H])[H])nc(N([H])c2c([H])c([H])c([H])c([H])c2S(=O)(=O)C([H])(C([H])([H])[H])C([H])([H])[H])c1Cl


 38 41  0  0  0  0  0  0  0  0999 V2000
   27.7412    8.8459   56.8045 C   0  0  0  0  0  0  0  0  0  0  0  0
   28.5418    9.0584   55.7604 N   0  0  0  0  0  0  0  0  0  0  0  0
   28.1927    8.9564   54.4854 C   0  0  0  0  0  0  0  0  0  0  0  0
   26.8960    8.6014   54.1885 C   0  0  0  0  0  0  0  0  0  0  0  0
   26.3675    8.4478   52.5246 Cl  0  0  0  0  0  0  0  0  0  0  0  0
   25.9762    8.3564   55.2405 C   0  0  0  0  0  0  0  0  0  0  0  0
   26.4650    8.4963   56.4589 N   0  0  0  0  0  0  0  0  0  0  0  0
   28.0843    8.9468   58.1719 N   0  0  0  0  0  0  0  0  0  0  0  0
   28.0009    8.0135   58.7113 H   0  0  0  0  0  0  0  0  0  0  0  0
   28.1843   11.3476   58.3271 C   0  0  0  0  0  0  0  0  0  0  0  0
   28.5810   12.4870   58.9804 C   0  0  0  0  0  0  0  0  0  0  0  0
   29.2852   12.4865   60.1496 C   0  0  0  0  0  0  0  0  0  0  0  0
   29.5984   11.2474   60.6751 C   0  0  0  0  0  0  0  0  0  0  0  0
   29.1980   10.0760   60.0153 C   0  0  0  0  0  0  0  0  0  0  0  0
   28.5000   10.0827   58.8568 C   0  0  0  0  0  0  0  0  0  0  0  0
   29.6616   13.6847   60.7945 N   0  0  0  0  0  0  0  0  0  0  0  0
   30.7181   13.7714   61.7936 C   0  0  0  0  0  0  0  0  0  0  0  0
   31.6286   14.9526   61.5222 C   0  0  0  0  0  0  0  0  0  0  0  0
   30.9564   16.1216   61.0533 N   0  0  0  0  0  0  0  0  0  0  0  0
   30.3009   16.8750   62.0815 C   0  0  0  0  0  0  0  0  0  0  0  0
   30.0783   15.8400   59.9165 C   0  0  0  0  0  0  0  0  0  0  0  0
   28.9873   14.9267   60.4996 C   0  0  0  0  0  0  0  0  0  0  0  0
   26.8522   12.6397   56.7796 C   0  0  0  0  0  0  0  0  0  0  0  0
   27.4664   11.4216   57.1353 O   0  0  0  0  0  0  0  0  0  0  0  0
   24.6496    8.0154   54.8890 N   0  0  0  0  0  0  0  0  0  0  0  0
   24.4844    6.9790   54.7163 H   0  0  0  0  0  0  0  0  0  0  0  0
   23.5875    8.9270   54.7891 C   0  0  0  0  0  0  0  0  0  0  0  0
   23.4556   10.0822   55.5263 C   0  0  0  0  0  0  0  0  0  0  0  0
   22.3367   10.9280   55.4313 C   0  0  0  0  0  0  0  0  0  0  0  0
   21.3396   10.5600   54.5523 C   0  0  0  0  0  0  0  0  0  0  0  0
   21.4463    9.4138   53.8055 C   0  0  0  0  0  0  0  0  0  0  0  0
   22.5483    8.5863   53.9015 C   0  0  0  0  0  0  0  0  0  0  0  0
   22.7082    7.1600   52.9195 S   0  0  0  0  0  0  0  0  0  0  0  0
   22.2848    7.3619   51.4938 O   0  0  0  0  0  0  0  0  0  0  0  0
   24.2256    6.9053   52.8190 O   0  0  0  0  0  0  0  0  0  0  0  0
   22.0504    5.7143   53.6639 C   0  0  0  0  0  0  0  0  0  0  0  0
   20.5162    5.7492   53.6097 C   0  0  0  0  0  0  0  0  0  0  0  0
   22.3708    5.6608   55.1624 C   0  0  0  0  0  0  0  0  0  0  0  0
 23 24  1  0  0  0
 24 10  1  0  0  0
 10 11  2  0  0  0
 11 12  1  0  0  0
 12 13  2  0  0  0
 13 14  1  0  0  0
 14 15  2  0  0  0
 15  8  1  0  0  0
  8  1  1  0  0  0
  1  2  2  0  0  0
  2  3  1  0  0  0
  3  4  2  0  0  0
  4  5  1  0  0  0
  4  6  1  0  0  0
  6 25  1  0  0  0
 25 27  1  0  0  0
 27 28  2  0  0  0
 28 29  1  0  0  0
 29 30  2  0  0  0
 30 31  1  0  0  0
 31 32  2  0  0  0
 32 33  1  0  0  0
 33 34  2  0  0  0
 33 35  2  0  0  0
 33 36  1  0  0  0
 36 37  1  0  0  0
 36 38  1  0  0  0
  6  7  2  0  0  0
 12 16  1  0  0  0
 16 17  1  0  0  0
 17 18  1  0  0  0
 18 19  1  0  0  0
 19 20  1  0  0  0
 19 21  1  0  0  0
 21 22  1  0  0  0
 15 10  1  0  0  0
  7  1  1  0  0  0
 22 16  1  0  0  0
 32 27  1  0  0  0
  8  9  1  0  0  0
 25 26  1  0  0  0
M  END
> <minimizedAffinity>
9.46502

> <CNNscore>
0.5437920094

> <CNNaffinity>
6.9581222534

> <CNN_VS>
3.7837712765

> <CNNaffinity_variance>
0.1355629712

$$$$
[H]c1nc(N([H])c2c([H])c([H])c(N3C([H])([H])C([H])([H])N(C([H])([H])[H])C([H])([H])C3([H])[H])c([H])c2OC([H])([H])[H])nc(N([H])c2c([H])c([H])c([H])c([H])c2S(=O)(=O)C([H])(C([H])([H])[H])C([H])([H])[H])c1Cl


 38 41  0  0  0  0  0  0  0  0999 V2000
   25.5514    7.8419   54.7950 C   0  0  0  0  0  0  0  0  0  0  0  0
   25.4029    6.5199   54.8751 N   0  0  0  0  0  0  0  0  0  0  0  0
   24.2525    5.8653   54.7970 C   0  0  0  0  0  0  0  0  0  0  0  0
   23.0970    6.5922   54.6177 C   0  0  0  0  0  0  0  0  0  0  0  0
   21.5423    5.7908   54.5066 Cl  0  0  0  0  0  0  0  0  0  0  0  0
   23.1641    8.0061   54.5221 C   0  0  0  0  0  0  0  0  0  0  0  0
   24.3768    8.5193   54.6172 N   0  0  0  0  0  0  0  0  0  0  0  0
   26.7623    8.5666   54.8746 N   0  0  0  0  0  0  0  0  0  0  0  0
   27.2798    8.6539   53.9294 H   0  0  0  0  0  0  0  0  0  0  0  0
   28.4651    9.9606   55.8522 C   0  0  0  0  0  0  0  0  0  0  0  0
   29.0422   10.5508   56.9481 C   0  0  0  0  0  0  0  0  0  0  0  0
   28.5755   10.4068   58.2226 C   0  0  0  0  0  0  0  0  0  0  0  0
   27.4552    9.6129   58.3784 C   0  0  0  0  0  0  0  0  0  0  0  0
   26.8575    9.0044   57.2647 C   0  0  0  0  0  0  0  0  0  0  0  0
   27.3242    9.1510   56.0038 C   0  0  0  0  0  0  0  0  0  0  0  0
   29.1941   11.0441   59.3201 N   0  0  0  0  0  0  0  0  0  0  0  0
   28.7376   12.3048   59.8895 C   0  0  0  0  0  0  0  0  0  0  0  0
   28.6868   12.2320   61.4028 C   0  0  0  0  0  0  0  0  0  0  0  0
   29.7581   11.4977   61.9956 N   0  0  0  0  0  0  0  0  0  0  0  0
   30.9914   12.2231   62.0811 C   0  0  0  0  0  0  0  0  0  0  0  0
   29.9252   10.1740   61.3933 C   0  0  0  0  0  0  0  0  0  0  0  0
   30.3600   10.4692   59.9482 C   0  0  0  0  0  0  0  0  0  0  0  0
   29.9877   11.1333   54.3874 C   0  0  0  0  0  0  0  0  0  0  0  0
   28.9947   10.1509   54.5775 O   0  0  0  0  0  0  0  0  0  0  0  0
   21.9550    8.7101   54.3167 N   0  0  0  0  0  0  0  0  0  0  0  0
   21.1277    8.3535   54.8820 H   0  0  0  0  0  0  0  0  0  0  0  0
   21.8067    9.8177   53.4682 C   0  0  0  0  0  0  0  0  0  0  0  0
   22.0471   11.1277   53.8168 C   0  0  0  0  0  0  0  0  0  0  0  0
   21.8202   12.2066   52.9444 C   0  0  0  0  0  0  0  0  0  0  0  0
   21.3337   11.9114   51.6881 C   0  0  0  0  0  0  0  0  0  0  0  0
   21.0859   10.6143   51.3152 C   0  0  0  0  0  0  0  0  0  0  0  0
   21.3114    9.5573   52.1756 C   0  0  0  0  0  0  0  0  0  0  0  0
   21.0455    7.9094   51.6878 S   0  0  0  0  0  0  0  0  0  0  0  0
   20.9479    7.7316   50.2007 O   0  0  0  0  0  0  0  0  0  0  0  0
   22.3410    7.1619   52.0624 O   0  0  0  0  0  0  0  0  0  0  0  0
   19.7755    7.1034   52.5902 C   0  0  0  0  0  0  0  0  0  0  0  0
   19.6096    7.7654   53.9657 C   0  0  0  0  0  0  0  0  0  0  0  0
   20.1537    5.6536   52.9158 C   0  0  0  0  0  0  0  0  0  0  0  0
 23 24  1  0  0  0
 24 10  1  0  0  0
 10 11  2  0  0  0
 11 12  1  0  0  0
 12 13  2  0  0  0
 13 14  1  0  0  0
 14 15  2  0  0  0
 15  8  1  0  0  0
  8  1  1  0  0  0
  1  2  2  0  0  0
  2  3  1  0  0  0
  3  4  2  0  0  0
  4  5  1  0  0  0
  4  6  1  0  0  0
  6 25  1  0  0  0
 25 27  1  0  0  0
 27 28  2  0  0  0
 28 29  1  0  0  0
 29 30  2  0  0  0
 30 31  1  0  0  0
 31 32  2  0  0  0
 32 33  1  0  0  0
 33 34  2  0  0  0
 33 35  2  0  0  0
 33 36  1  0  0  0
 36 37  1  0  0  0
 36 38  1  0  0  0
  6  7  2  0  0  0
 12 16  1  0  0  0
 16 17  1  0  0  0
 17 18  1  0  0  0
 18 19  1  0  0  0
 19 20  1  0  0  0
 19 21  1  0  0  0
 21 22  1  0  0  0
 15 10  1  0  0  0
  7  1  1  0  0  0
 22 16  1  0  0  0
 32 27  1  0  0  0
  8  9  1  0  0  0
 25 26  1  0  0  0
M  END
> <minimizedAffinity>
15.23885

> <CNNscore>
0.5360098481

> <CNNaffinity>
6.9389700890

> <CNN_VS>
3.7193562984

> <CNNaffinity_variance>
0.5038969517

$$$$
[H]c1nc(N([H])c2c([H])c([H])c(N3C([H])([H])C([H])([H])N(C([H])([H])[H])C([H])([H])C3([H])[H])c([H])c2OC([H])([H])[H])nc(N([H])c2c([H])c([H])c([H])c([H])c2S(=O)(=O)C([H])(C([H])([H])[H])C([H])([H])[H])c1Cl


 38 41  0  0  0  0  0  0  0  0999 V2000
   27.6575    8.9313   56.5464 C   0  0  0  0  0  0  0  0  0  0  0  0
   28.5038    9.0658   55.5257 N   0  0  0  0  0  0  0  0  0  0  0  0
   28.2075    8.8816   54.2466 C   0  0  0  0  0  0  0  0  0  0  0  0
   26.9202    8.5194   53.9188 C   0  0  0  0  0  0  0  0  0  0  0  0
   26.4603    8.2593   52.2478 Cl  0  0  0  0  0  0  0  0  0  0  0  0
   25.9541    8.3541   54.9445 C   0  0  0  0  0  0  0  0  0  0  0  0
   26.3929    8.5710   56.1707 N   0  0  0  0  0  0  0  0  0  0  0  0
   27.9439    9.1207   57.9175 N   0  0  0  0  0  0  0  0  0  0  0  0
   27.8436    8.2225   58.5109 H   0  0  0  0  0  0  0  0  0  0  0  0
   29.1869   10.2304   59.6558 C   0  0  0  0  0  0  0  0  0  0  0  0
   29.5807   11.3780   60.2964 C   0  0  0  0  0  0  0  0  0  0  0  0
   29.1853   12.6301   59.9239 C   0  0  0  0  0  0  0  0  0  0  0  0
   28.3389   12.7061   58.8342 C   0  0  0  0  0  0  0  0  0  0  0  0
   27.9298   11.5390   58.1720 C   0  0  0  0  0  0  0  0  0  0  0  0
   28.3253   10.3007   58.5455 C   0  0  0  0  0  0  0  0  0  0  0  0
   29.6264   13.7854   60.6052 N   0  0  0  0  0  0  0  0  0  0  0  0
   30.8738   13.8596   61.3538 C   0  0  0  0  0  0  0  0  0  0  0  0
   31.6290   15.1331   61.0288 C   0  0  0  0  0  0  0  0  0  0  0  0
   30.8011   16.2833   60.8552 N   0  0  0  0  0  0  0  0  0  0  0  0
   30.3510   16.8740   62.0813 C   0  0  0  0  0  0  0  0  0  0  0  0
   29.7076   16.0443   59.9120 C   0  0  0  0  0  0  0  0  0  0  0  0
   28.8314   14.9904   60.6092 C   0  0  0  0  0  0  0  0  0  0  0  0
   30.4484    8.9066   61.2353 C   0  0  0  0  0  0  0  0  0  0  0  0
   29.6300    8.9828   60.0900 O   0  0  0  0  0  0  0  0  0  0  0  0
   24.6394    8.0025   54.5601 N   0  0  0  0  0  0  0  0  0  0  0  0
   24.5531    7.0644   54.0663 H   0  0  0  0  0  0  0  0  0  0  0  0
   23.4969    8.7777   54.8102 C   0  0  0  0  0  0  0  0  0  0  0  0
   23.4678    9.9420   55.5444 C   0  0  0  0  0  0  0  0  0  0  0  0
   22.2819   10.6456   55.8181 C   0  0  0  0  0  0  0  0  0  0  0  0
   21.1078   10.1234   55.3170 C   0  0  0  0  0  0  0  0  0  0  0  0
   21.1090    8.9646   54.5821 C   0  0  0  0  0  0  0  0  0  0  0  0
   22.2771    8.2773   54.3148 C   0  0  0  0  0  0  0  0  0  0  0  0
   22.2869    6.8362   53.3415 S   0  0  0  0  0  0  0  0  0  0  0  0
   23.6320    6.5143   52.7586 O   0  0  0  0  0  0  0  0  0  0  0  0
   22.0281    5.6795   54.3277 O   0  0  0  0  0  0  0  0  0  0  0  0
   20.9685    6.7563   52.1872 C   0  0  0  0  0  0  0  0  0  0  0  0
   20.8714    8.0777   51.4110 C   0  0  0  0  0  0  0  0  0  0  0  0
   19.6127    6.6364   52.8932 C   0  0  0  0  0  0  0  0  0  0  0  0
 23 24  1  0  0  0
 24 10  1  0  0  0
 10 11  2  0  0  0
 11 12  1  0  0  0
 12 13  2  0  0  0
 13 14  1  0  0  0
 14 15  2  0  0  0
 15  8  1  0  0  0
  8  1  1  0  0  0
  1  2  2  0  0  0
  2  3  1  0  0  0
  3  4  2  0  0  0
  4  5  1  0  0  0
  4  6  1  0  0  0
  6 25  1  0  0  0
 25 27  1  0  0  0
 27 28  2  0  0  0
 28 29  1  0  0  0
 29 30  2  0  0  0
 30 31  1  0  0  0
 31 32  2  0  0  0
 32 33  1  0  0  0
 33 34  2  0  0  0
 33 35  2  0  0  0
 33 36  1  0  0  0
 36 37  1  0  0  0
 36 38  1  0  0  0
  6  7  2  0  0  0
 12 16  1  0  0  0
 16 17  1  0  0  0
 17 18  1  0  0  0
 18 19  1  0  0  0
 19 20  1  0  0  0
 19 21  1  0  0  0
 21 22  1  0  0  0
 15 10  1  0  0  0
  7  1  1  0  0  0
 22 16  1  0  0  0
 32 27  1  0  0  0
  8  9  1  0  0  0
 25 26  1  0  0  0
M  END
> <minimizedAffinity>
3.93098

> <CNNscore>
0.4874168634

> <CNNaffinity>
6.8296442032

> <CNN_VS>
3.3288836479

> <CNNaffinity_variance>
0.3716832101

$$$$
[H]c1nc(N([H])c2c([H])c([H])c(N3C([H])([H])C([H])([H])N(C([H])([H])[H])C([H])([H])C3([H])[H])c([H])c2OC([H])([H])[H])nc(N([H])c2c([H])c([H])c([H])c([H])c2S(=O)(=O)C([H])(C([H])([H])[H])C([H])([H])[H])c1Cl


 38 41  0  0  0  0  0  0  0  0999 V2000
   24.9395    7.0429   53.4352 C   0  0  0  0  0  0  0  0  0  0  0  0
   24.8058    5.7185   53.3698 N   0  0  0  0  0  0  0  0  0  0  0  0
   23.6567    5.0571   53.3633 C   0  0  0  0  0  0  0  0  0  0  0  0
   22.4859    5.7789   53.4291 C   0  0  0  0  0  0  0  0  0  0  0  0
   20.9321    4.9684   53.4253 Cl  0  0  0  0  0  0  0  0  0  0  0  0
   22.5367    7.1948   53.5013 C   0  0  0  0  0  0  0  0  0  0  0  0
   23.7502    7.7150   53.4988 N   0  0  0  0  0  0  0  0  0  0  0  0
   26.1487    7.7748   53.4437 N   0  0  0  0  0  0  0  0  0  0  0  0
   26.5913    7.8948   52.4647 H   0  0  0  0  0  0  0  0  0  0  0  0
   26.0288    9.0348   55.4922 C   0  0  0  0  0  0  0  0  0  0  0  0
   26.6359    9.5934   56.5884 C   0  0  0  0  0  0  0  0  0  0  0  0
   27.9754    9.5134   56.8383 C   0  0  0  0  0  0  0  0  0  0  0  0
   28.7311    8.8220   55.9107 C   0  0  0  0  0  0  0  0  0  0  0  0
   28.1205    8.2472   54.7861 C   0  0  0  0  0  0  0  0  0  0  0  0
   26.7924    8.3294   54.5438 C   0  0  0  0  0  0  0  0  0  0  0  0
   28.5559   10.0930   57.9874 N   0  0  0  0  0  0  0  0  0  0  0  0
   28.6969   11.5288   58.1892 C   0  0  0  0  0  0  0  0  0  0  0  0
   28.2619   11.9277   59.5854 C   0  0  0  0  0  0  0  0  0  0  0  0
   28.6258   10.9982   60.6061 N   0  0  0  0  0  0  0  0  0  0  0  0
   29.9959   11.0844   61.0184 C   0  0  0  0  0  0  0  0  0  0  0  0
   28.2218    9.6293   60.2815 C   0  0  0  0  0  0  0  0  0  0  0  0
   29.0717    9.2663   59.0526 C   0  0  0  0  0  0  0  0  0  0  0  0
   23.9041    9.9510   56.1887 C   0  0  0  0  0  0  0  0  0  0  0  0
   24.6541    9.1549   55.2993 O   0  0  0  0  0  0  0  0  0  0  0  0
   21.3095    7.8961   53.5457 N   0  0  0  0  0  0  0  0  0  0  0  0
   20.5409    7.4928   52.9310 H   0  0  0  0  0  0  0  0  0  0  0  0
   21.0595    9.0242   54.3416 C   0  0  0  0  0  0  0  0  0  0  0  0
   20.7458    9.0014   55.6820 C   0  0  0  0  0  0  0  0  0  0  0  0
   20.4413   10.1602   56.4174 C   0  0  0  0  0  0  0  0  0  0  0  0
   20.4645   11.3618   55.7407 C   0  0  0  0  0  0  0  0  0  0  0  0
   20.7742   11.4126   54.4049 C   0  0  0  0  0  0  0  0  0  0  0  0
   21.0738   10.2712   53.6867 C   0  0  0  0  0  0  0  0  0  0  0  0
   21.5155   10.3388   52.0061 S   0  0  0  0  0  0  0  0  0  0  0  0
   22.8734    9.7680   51.7186 O   0  0  0  0  0  0  0  0  0  0  0  0
   20.5514    9.3685   51.2944 O   0  0  0  0  0  0  0  0  0  0  0  0
   21.2232   11.9006   51.2629 C   0  0  0  0  0  0  0  0  0  0  0  0
   22.2544   12.1538   50.1536 C   0  0  0  0  0  0  0  0  0  0  0  0
   21.4537   13.0454   52.2565 C   0  0  0  0  0  0  0  0  0  0  0  0
 23 24  1  0  0  0
 24 10  1  0  0  0
 10 11  2  0  0  0
 11 12  1  0  0  0
 12 13  2  0  0  0
 13 14  1  0  0  0
 14 15  2  0  0  0
 15  8  1  0  0  0
  8  1  1  0  0  0
  1  2  2  0  0  0
  2  3  1  0  0  0
  3  4  2  0  0  0
  4  5  1  0  0  0
  4  6  1  0  0  0
  6 25  1  0  0  0
 25 27  1  0  0  0
 27 28  2  0  0  0
 28 29  1  0  0  0
 29 30  2  0  0  0
 30 31  1  0  0  0
 31 32  2  0  0  0
 32 33  1  0  0  0
 33 34  2  0  0  0
 33 35  2  0  0  0
 33 36  1  0  0  0
 36 37  1  0  0  0
 36 38  1  0  0  0
  6  7  2  0  0  0
 12 16  1  0  0  0
 16 17  1  0  0  0
 17 18  1  0  0  0
 18 19  1  0  0  0
 19 20  1  0  0  0
 19 21  1  0  0  0
 21 22  1  0  0  0
 15 10  1  0  0  0
  7  1  1  0  0  0
 22 16  1  0  0  0
 32 27  1  0  0  0
  8  9  1  0  0  0
 25 26  1  0  0  0
M  END
> <minimizedAffinity>
24.50949

> <CNNscore>
0.4824649990

> <CNNaffinity>
6.6343216896

> <CNN_VS>
3.2008280754

> <CNNaffinity_variance>
0.6966670156

$$$$
[H]c1nc(N([H])c2c([H])c([H])c(N3C([H])([H])C([H])([H])N(C([H])([H])[H])C([H])([H])C3([H])[H])c([H])c2OC([H])([H])[H])nc(N([H])c2c([H])c([H])c([H])c([H])c2S(=O)(=O)C([H])(C([H])([H])[H])C([H])([H])[H])c1Cl


 38 41  0  0  0  0  0  0  0  0999 V2000
   26.2758    7.8957   54.0902 C   0  0  0  0  0  0  0  0  0  0  0  0
   26.0234    6.6015   54.2842 N   0  0  0  0  0  0  0  0  0  0  0  0
   24.8871    5.9836   53.9927 C   0  0  0  0  0  0  0  0  0  0  0  0
   23.8639    6.7214   53.4409 C   0  0  0  0  0  0  0  0  0  0  0  0
   22.3353    5.9682   53.0320 Cl  0  0  0  0  0  0  0  0  0  0  0  0
   24.0477    8.1075   53.2005 C   0  0  0  0  0  0  0  0  0  0  0  0
   25.2305    8.5853   53.5407 N   0  0  0  0  0  0  0  0  0  0  0  0
   27.4750    8.5811   54.3902 N   0  0  0  0  0  0  0  0  0  0  0  0
   28.1847    8.5933   53.5747 H   0  0  0  0  0  0  0  0  0  0  0  0
   28.8595   10.1514   55.5801 C   0  0  0  0  0  0  0  0  0  0  0  0
   29.2145   10.7906   56.7409 C   0  0  0  0  0  0  0  0  0  0  0  0
   28.6048   10.5767   57.9432 C   0  0  0  0  0  0  0  0  0  0  0  0
   27.5747    9.6557   57.9521 C   0  0  0  0  0  0  0  0  0  0  0  0
   27.2037    8.9961   56.7709 C   0  0  0  0  0  0  0  0  0  0  0  0
   27.8115    9.2123   55.5821 C   0  0  0  0  0  0  0  0  0  0  0  0
   28.9951   11.2675   59.1110 N   0  0  0  0  0  0  0  0  0  0  0  0
   28.3080   12.4444   59.6257 C   0  0  0  0  0  0  0  0  0  0  0  0
   28.0849   12.3342   61.1210 C   0  0  0  0  0  0  0  0  0  0  0  0
   29.1655   11.7364   61.8374 N   0  0  0  0  0  0  0  0  0  0  0  0
   30.2708   12.6170   62.0766 C   0  0  0  0  0  0  0  0  0  0  0  0
   29.5803   10.4594   61.2544 C   0  0  0  0  0  0  0  0  0  0  0  0
   30.1430   10.8395   59.8748 C   0  0  0  0  0  0  0  0  0  0  0  0
   30.3365   11.5682   54.2956 C   0  0  0  0  0  0  0  0  0  0  0  0
   29.5257   10.4185   54.3858 O   0  0  0  0  0  0  0  0  0  0  0  0
   22.9778    8.8212   52.6127 N   0  0  0  0  0  0  0  0  0  0  0  0
   23.1895    9.8383   52.3852 H   0  0  0  0  0  0  0  0  0  0  0  0
   21.7230    8.2741   52.3044 C   0  0  0  0  0  0  0  0  0  0  0  0
   21.3191    7.8578   51.0558 C   0  0  0  0  0  0  0  0  0  0  0  0
   20.0254    7.3757   50.7903 C   0  0  0  0  0  0  0  0  0  0  0  0
   19.1398    7.3288   51.8466 C   0  0  0  0  0  0  0  0  0  0  0  0
   19.5169    7.7374   53.1011 C   0  0  0  0  0  0  0  0  0  0  0  0
   20.7897    8.2094   53.3574 C   0  0  0  0  0  0  0  0  0  0  0  0
   21.2847    8.6804   54.9565 S   0  0  0  0  0  0  0  0  0  0  0  0
   20.1402    8.8624   55.9103 O   0  0  0  0  0  0  0  0  0  0  0  0
   22.0428    7.4623   55.5213 O   0  0  0  0  0  0  0  0  0  0  0  0
   22.4488    9.9925   54.9762 C   0  0  0  0  0  0  0  0  0  0  0  0
   22.9419   10.2336   56.4103 C   0  0  0  0  0  0  0  0  0  0  0  0
   21.8000   11.3226   54.5749 C   0  0  0  0  0  0  0  0  0  0  0  0
 23 24  1  0  0  0
 24 10  1  0  0  0
 10 11  2  0  0  0
 11 12  1  0  0  0
 12 13  2  0  0  0
 13 14  1  0  0  0
 14 15  2  0  0  0
 15  8  1  0  0  0
  8  1  1  0  0  0
  1  2  2  0  0  0
  2  3  1  0  0  0
  3  4  2  0  0  0
  4  5  1  0  0  0
  4  6  1  0  0  0
  6 25  1  0  0  0
 25 27  1  0  0  0
 27 28  2  0  0  0
 28 29  1  0  0  0
 29 30  2  0  0  0
 30 31  1  0  0  0
 31 32  2  0  0  0
 32 33  1  0  0  0
 33 34  2  0  0  0
 33 35  2  0  0  0
 33 36  1  0  0  0
 36 37  1  0  0  0
 36 38  1  0  0  0
  6  7  2  0  0  0
 12 16  1  0  0  0
 16 17  1  0  0  0
 17 18  1  0  0  0
 18 19  1  0  0  0
 19 20  1  0  0  0
 19 21  1  0  0  0
 21 22  1  0  0  0
 15 10  1  0  0  0
  7  1  1  0  0  0
 22 16  1  0  0  0
 32 27  1  0  0  0
  8  9  1  0  0  0
 25 26  1  0  0  0
M  END
> <minimizedAffinity>
19.13518

> <CNNscore>
0.4516185522

> <CNNaffinity>
6.9205865860

> <CNN_VS>
3.1254653931

> <CNNaffinity_variance>
0.4511645734

$$$$
[H]C([H])([H])C([H])([H])[C@@]1([H])[C]2[C@](C([H])([H])[H])(C([H])([H])C([H])([H])C(=O)C([H])([H])[C@]([H])(C([H])([H])[H])[C@]2([H])C([H])([H])[H])[C@@]2([H])C([H])([H])C([H])([H])[C@]3(C([H])([H])[H])[C@@]([H])(C([H])([H])[H])C([H])([H])C([H])([H])C([H])([H])[C@@]3([H])[C@]2([H])C1([H])[H]


 28 31  0  0  0  0  0  0  0  0999 V2000
   27.2175    8.2278   54.8864 C   0  0  0  0  0  0  0  0  0  0  0  0
   25.9016    7.4961   54.5294 C   0  0  0  0  0  0  0  0  0  0  0  0
   24.8205    8.4443   54.2694 C   0  0  0  0  0  0  0  0  0  0  0  0
   23.5258    7.6208   54.1368 C   0  0  0  0  0  0  0  0  0  0  0  0
   23.6890    6.4071   53.2999 C   0  0  0  0  0  0  0  0  0  0  0  0
   22.4241    5.5831   53.4422 C   0  0  0  0  0  0  0  0  0  0  0  0
   21.3720    6.2845   54.2591 C   0  0  0  0  0  0  0  0  0  0  0  0
   21.1123    7.6635   53.7430 C   0  0  0  0  0  0  0  0  0  0  0  0
   20.5116    7.5482   52.3684 C   0  0  0  0  0  0  0  0  0  0  0  0
   22.3770    8.4982   53.7715 C   0  0  0  0  0  0  0  0  0  0  0  0
   22.4943    9.1901   52.4631 C   0  0  0  0  0  0  0  0  0  0  0  0
   22.2295    9.4874   54.9372 C   0  0  0  0  0  0  0  0  0  0  0  0
   23.5375   10.2910   55.0623 C   0  0  0  0  0  0  0  0  0  0  0  0
   24.6114    9.3155   55.4456 C   0  0  0  0  0  0  0  0  0  0  0  0
   25.8404    9.9523   56.0698 C   0  0  0  0  0  0  0  0  0  0  0  0
   25.9755   11.2766   55.3119 C   0  0  0  0  0  0  0  0  0  0  0  0
   25.3477   10.3531   57.4437 C   0  0  0  0  0  0  0  0  0  0  0  0
   25.9624   11.5584   58.0309 C   0  0  0  0  0  0  0  0  0  0  0  0
   27.3963   11.7419   57.8502 C   0  0  0  0  0  0  0  0  0  0  0  0
   27.7133   12.8961   57.7263 O   0  0  0  0  0  0  0  0  0  0  0  0
   28.6053   10.8739   57.7753 C   0  0  0  0  0  0  0  0  0  0  0  0
   28.1896    9.5135   58.2966 C   0  0  0  0  0  0  0  0  0  0  0  0
   29.3778    9.0099   59.0815 C   0  0  0  0  0  0  0  0  0  0  0  0
   27.6569    8.5918   57.2572 C   0  0  0  0  0  0  0  0  0  0  0  0
   28.6835    7.5377   56.9936 C   0  0  0  0  0  0  0  0  0  0  0  0
   27.0608    9.1278   56.0504 C   0  0  0  0  0  0  0  0  0  0  0  0
   26.8196    8.7276   52.4232 C   0  0  0  0  0  0  0  0  0  0  0  0
   27.7082    8.8316   53.6100 C   0  0  0  0  0  0  0  0  0  0  0  0
 27 28  1  0  0  0
 28  1  1  0  0  0
  1  2  1  0  0  0
  2  3  1  0  0  0
  3  4  1  0  0  0
  4  5  1  0  0  0
  5  6  1  0  0  0
  6  7  1  0  0  0
  7  8  1  0  0  0
  8  9  1  0  0  0
  8 10  1  0  0  0
 10 11  1  0  0  0
 10 12  1  0  0  0
 12 13  1  0  0  0
 13 14  1  0  0  0
 14 15  1  0  0  0
 15 16  1  0  0  0
 15 17  1  0  0  0
 17 18  1  0  0  0
 18 19  1  0  0  0
 19 20  2  0  0  0
 19 21  1  0  0  0
 21 22  1  0  0  0
 22 23  1  0  0  0
 22 24  1  0  0  0
 24 25  1  0  0  0
 24 26  1  0  0  0
 26  1  1  0  0  0
 14  3  1  0  0  0
 26 15  1  0  0  0
 10  4  1  0  0  0
M  END
> <minimizedAffinity>
54.43439

> <CNNscore>
0.4842287600

> <CNNaffinity>
6.2293930054

> <CNN_VS>
3.0164513588

> <CNNaffinity_variance>
0.6089601517

$$$$
[H]C([H])([H])C([H])([H])[C@@]1([H])[C]2[C@](C([H])([H])[H])(C([H])([H])C([H])([H])C(=O)C([H])([H])[C@]([H])(C([H])([H])[H])[C@]2([H])C([H])([H])[H])[C@@]2([H])C([H])([H])C([H])([H])[C@]3(C([H])([H])[H])[C@@]([H])(C([H])([H])[H])C([H])([H])C([H])([H])C([H])([H])[C@@]3([H])[C@]2([H])C1([H])[H]


 28 31  0  0  0  0  0  0  0  0999 V2000
   26.3969    8.2222   53.7709 C   0  0  0  0  0  0  0  0  0  0  0  0
   25.0780    7.4437   53.5500 C   0  0  0  0  0  0  0  0  0  0  0  0
   23.9147    8.3128   53.7136 C   0  0  0  0  0  0  0  0  0  0  0  0
   22.6708    7.4050   53.6848 C   0  0  0  0  0  0  0  0  0  0  0  0
   22.7141    6.3894   52.6045 C   0  0  0  0  0  0  0  0  0  0  0  0
   21.5597    5.4332   52.8328 C   0  0  0  0  0  0  0  0  0  0  0  0
   20.6752    5.8642   53.9721 C   0  0  0  0  0  0  0  0  0  0  0  0
   20.2313    7.2826   53.8094 C   0  0  0  0  0  0  0  0  0  0  0  0
   19.3508    7.3656   52.5924 C   0  0  0  0  0  0  0  0  0  0  0  0
   21.4224    8.2177   53.7470 C   0  0  0  0  0  0  0  0  0  0  0  0
   21.2104    9.1482   52.6097 C   0  0  0  0  0  0  0  0  0  0  0  0
   21.4793    8.9544   55.0935 C   0  0  0  0  0  0  0  0  0  0  0  0
   22.7355    9.8454   55.1084 C   0  0  0  0  0  0  0  0  0  0  0  0
   23.9205    8.9261   55.0590 C   0  0  0  0  0  0  0  0  0  0  0  0
   25.2188    9.5538   55.5342 C   0  0  0  0  0  0  0  0  0  0  0  0
   25.1093   11.0024   55.0484 C   0  0  0  0  0  0  0  0  0  0  0  0
   25.0182    9.6427   57.0319 C   0  0  0  0  0  0  0  0  0  0  0  0
   25.6781   10.7727   57.7123 C   0  0  0  0  0  0  0  0  0  0  0  0
   27.0247   11.1264   57.2832 C   0  0  0  0  0  0  0  0  0  0  0  0
   27.2414   12.3090   57.3330 O   0  0  0  0  0  0  0  0  0  0  0  0
   28.2345   10.4104   56.7889 C   0  0  0  0  0  0  0  0  0  0  0  0
   28.0206    8.9428   57.0983 C   0  0  0  0  0  0  0  0  0  0  0  0
   29.3786    8.4217   57.5055 C   0  0  0  0  0  0  0  0  0  0  0  0
   27.3252    8.1820   56.0254 C   0  0  0  0  0  0  0  0  0  0  0  0
   28.3265    7.3009   55.3500 C   0  0  0  0  0  0  0  0  0  0  0  0
   26.4494    8.8710   55.0997 C   0  0  0  0  0  0  0  0  0  0  0  0
   27.9431    9.3112   52.0681 C   0  0  0  0  0  0  0  0  0  0  0  0
   26.5605    9.0974   52.5701 C   0  0  0  0  0  0  0  0  0  0  0  0
 27 28  1  0  0  0
 28  1  1  0  0  0
  1  2  1  0  0  0
  2  3  1  0  0  0
  3  4  1  0  0  0
  4  5  1  0  0  0
  5  6  1  0  0  0
  6  7  1  0  0  0
  7  8  1  0  0  0
  8  9  1  0  0  0
  8 10  1  0  0  0
 10 11  1  0  0  0
 10 12  1  0  0  0
 12 13  1  0  0  0
 13 14  1  0  0  0
 14 15  1  0  0  0
 15 16  1  0  0  0
 15 17  1  0  0  0
 17 18  1  0  0  0
 18 19  1  0  0  0
 19 20  2  0  0  0
 19 21  1  0  0  0
 21 22  1  0  0  0
 22 23  1  0  0  0
 22 24  1  0  0  0
 24 25  1  0  0  0
 24 26  1  0  0  0
 26  1  1  0  0  0
 14  3  1  0  0  0
 26 15  1  0  0  0
 10  4  1  0  0  0
M  END
> <minimizedAffinity>
56.92609

> <CNNscore>
0.4763628542

> <CNNaffinity>
6.2779188156

> <CNN_VS>
2.9905672073

> <CNNaffinity_variance>
0.6481221914

$$$$
[H]C([H])([H])C([H])([H])[C@@]1([H])[C]2[C@](C([H])([H])[H])(C([H])([H])C([H])([H])C(=O)C([H])([H])[C@]([H])(C([H])([H])[H])[C@]2([H])C([H])([H])[H])[C@@]2([H])C([H])([H])C([H])([H])[C@]3(C([H])([H])[H])[C@@]([H])(C([H])([H])[H])C([H])([H])C([H])([H])C([H])([H])[C@@]3([H])[C@]2([H])C1([H])[H]


 28 31  0  0  0  0  0  0  0  0999 V2000
   22.9502    9.6631   55.1471 C   0  0  0  0  0  0  0  0  0  0  0  0
   22.5766   10.7210   54.0814 C   0  0  0  0  0  0  0  0  0  0  0  0
   21.7037   10.1555   53.0550 C   0  0  0  0  0  0  0  0  0  0  0  0
   21.5698   11.2172   51.9473 C   0  0  0  0  0  0  0  0  0  0  0  0
   21.3363   12.5841   52.4739 C   0  0  0  0  0  0  0  0  0  0  0  0
   21.4540   13.5467   51.3083 C   0  0  0  0  0  0  0  0  0  0  0  0
   21.6382   12.8357   49.9942 C   0  0  0  0  0  0  0  0  0  0  0  0
   20.5837   11.7966   49.7855 C   0  0  0  0  0  0  0  0  0  0  0  0
   19.2549   12.4907   49.6589 C   0  0  0  0  0  0  0  0  0  0  0  0
   20.6133   10.7660   50.8964 C   0  0  0  0  0  0  0  0  0  0  0  0
   19.2174   10.5519   51.3546 C   0  0  0  0  0  0  0  0  0  0  0  0
   21.2286    9.4905   50.3020 C   0  0  0  0  0  0  0  0  0  0  0  0
   21.3669    8.4470   51.4264 C   0  0  0  0  0  0  0  0  0  0  0  0
   22.3578    8.9971   52.4098 C   0  0  0  0  0  0  0  0  0  0  0  0
   22.9824    7.9529   53.3183 C   0  0  0  0  0  0  0  0  0  0  0  0
   21.8360    6.9669   53.5634 C   0  0  0  0  0  0  0  0  0  0  0  0
   23.9198    7.2164   52.3856 C   0  0  0  0  0  0  0  0  0  0  0  0
   24.1351    5.7859   52.6734 C   0  0  0  0  0  0  0  0  0  0  0  0
   24.2730    5.3909   54.0688 C   0  0  0  0  0  0  0  0  0  0  0  0
   23.8009    4.3090   54.3028 O   0  0  0  0  0  0  0  0  0  0  0  0
   24.8511    5.9710   55.3138 C   0  0  0  0  0  0  0  0  0  0  0  0
   25.7294    7.1270   54.8808 C   0  0  0  0  0  0  0  0  0  0  0  0
   26.9244    7.0840   55.8036 C   0  0  0  0  0  0  0  0  0  0  0  0
   25.0252    8.4341   54.7865 C   0  0  0  0  0  0  0  0  0  0  0  0
   25.4607    9.2861   55.9351 C   0  0  0  0  0  0  0  0  0  0  0  0
   23.5960    8.4719   54.5526 C   0  0  0  0  0  0  0  0  0  0  0  0
   20.5162   10.2510   55.6007 C   0  0  0  0  0  0  0  0  0  0  0  0
   21.7125    9.4439   55.9563 C   0  0  0  0  0  0  0  0  0  0  0  0
 27 28  1  0  0  0
 28  1  1  0  0  0
  1  2  1  0  0  0
  2  3  1  0  0  0
  3  4  1  0  0  0
  4  5  1  0  0  0
  5  6  1  0  0  0
  6  7  1  0  0  0
  7  8  1  0  0  0
  8  9  1  0  0  0
  8 10  1  0  0  0
 10 11  1  0  0  0
 10 12  1  0  0  0
 12 13  1  0  0  0
 13 14  1  0  0  0
 14 15  1  0  0  0
 15 16  1  0  0  0
 15 17  1  0  0  0
 17 18  1  0  0  0
 18 19  1  0  0  0
 19 20  2  0  0  0
 19 21  1  0  0  0
 21 22  1  0  0  0
 22 23  1  0  0  0
 22 24  1  0  0  0
 24 25  1  0  0  0
 24 26  1  0  0  0
 26  1  1  0  0  0
 14  3  1  0  0  0
 26 15  1  0  0  0
 10  4  1  0  0  0
M  END
> <minimizedAffinity>
68.21309

> <CNNscore>
0.4003219306

> <CNNaffinity>
6.3931207657

> <CNN_VS>
2.5593063831

> <CNNaffinity_variance>
0.7326316833

$$$$
[H]C([H])([H])C([H])([H])[C@@]1([H])[C]2[C@](C([H])([H])[H])(C([H])([H])C([H])([H])C(=O)C([H])([H])[C@]([H])(C([H])([H])[H])[C@]2([H])C([H])([H])[H])[C@@]2([H])C([H])([H])C([H])([H])[C@]3(C([H])([H])[H])[C@@]([H])(C([H])([H])[H])C([H])([H])C([H])([H])C([H])([H])[C@@]3([H])[C@]2([H])C1([H])[H]


 28 31  0  0  0  0  0  0  0  0999 V2000
   22.1226    9.9165   54.3506 C   0  0  0  0  0  0  0  0  0  0  0  0
   23.4864    9.9719   55.0796 C   0  0  0  0  0  0  0  0  0  0  0  0
   24.4930    9.1724   54.3846 C   0  0  0  0  0  0  0  0  0  0  0  0
   25.7334    9.1243   55.2962 C   0  0  0  0  0  0  0  0  0  0  0  0
   26.0810   10.4433   55.8791 C   0  0  0  0  0  0  0  0  0  0  0  0
   27.1600   10.2108   56.9188 C   0  0  0  0  0  0  0  0  0  0  0  0
   27.6255    8.7796   56.9515 C   0  0  0  0  0  0  0  0  0  0  0  0
   28.0188    8.3043   55.5896 C   0  0  0  0  0  0  0  0  0  0  0  0
   29.2253    9.0861   55.1464 C   0  0  0  0  0  0  0  0  0  0  0  0
   26.8550    8.4079   54.6243 C   0  0  0  0  0  0  0  0  0  0  0  0
   27.3553    9.0360   53.3755 C   0  0  0  0  0  0  0  0  0  0  0  0
   26.3457    6.9783   54.3883 C   0  0  0  0  0  0  0  0  0  0  0  0
   25.0987    7.0482   53.4869 C   0  0  0  0  0  0  0  0  0  0  0  0
   24.0393    7.7701   54.2668 C   0  0  0  0  0  0  0  0  0  0  0  0
   22.6250    7.5337   53.7671 C   0  0  0  0  0  0  0  0  0  0  0  0
   22.7985    7.4382   52.2481 C   0  0  0  0  0  0  0  0  0  0  0  0
   22.3494    6.1112   54.2049 C   0  0  0  0  0  0  0  0  0  0  0  0
   21.4507    5.3250   53.3392 C   0  0  0  0  0  0  0  0  0  0  0  0
   20.2843    6.0002   52.7859 C   0  0  0  0  0  0  0  0  0  0  0  0
   19.9978    5.6199   51.6808 O   0  0  0  0  0  0  0  0  0  0  0  0
   19.3270    7.0557   53.2221 C   0  0  0  0  0  0  0  0  0  0  0  0
   19.5160    7.2150   54.7168 C   0  0  0  0  0  0  0  0  0  0  0  0
   18.1295    7.4488   55.2688 C   0  0  0  0  0  0  0  0  0  0  0  0
   20.5489    8.2132   55.1043 C   0  0  0  0  0  0  0  0  0  0  0  0
   19.8546    9.4215   55.6454 C   0  0  0  0  0  0  0  0  0  0  0  0
   21.6277    8.5312   54.1912 C   0  0  0  0  0  0  0  0  0  0  0  0
   22.1664   12.2103   53.2495 C   0  0  0  0  0  0  0  0  0  0  0  0
   22.2887   10.7355   53.1111 C   0  0  0  0  0  0  0  0  0  0  0  0
 27 28  1  0  0  0
 28  1  1  0  0  0
  1  2  1  0  0  0
  2  3  1  0  0  0
  3  4  1  0  0  0
  4  5  1  0  0  0
  5  6  1  0  0  0
  6  7  1  0  0  0
  7  8  1  0  0  0
  8  9  1  0  0  0
  8 10  1  0  0  0
 10 11  1  0  0  0
 10 12  1  0  0  0
 12 13  1  0  0  0
 13 14  1  0  0  0
 14 15  1  0  0  0
 15 16  1  0  0  0
 15 17  1  0  0  0
 17 18  1  0  0  0
 18 19  1  0  0  0
 19 20  2  0  0  0
 19 21  1  0  0  0
 21 22  1  0  0  0
 22 23  1  0  0  0
 22 24  1  0  0  0
 24 25  1  0  0  0
 24 26  1  0  0  0
 26  1  1  0  0  0
 14  3  1  0  0  0
 26 15  1  0  0  0
 10  4  1  0  0  0
M  END
> <minimizedAffinity>
49.36729

> <CNNscore>
0.3960635364

> <CNNaffinity>
6.3080534935

> <CNN_VS>
2.4983899593

> <CNNaffinity_variance>
0.7002010345

$$$$
[H]C([H])([H])C([H])([H])[C@@]1([H])[C]2[C@](C([H])([H])[H])(C([H])([H])C([H])([H])C(=O)C([H])([H])[C@]([H])(C([H])([H])[H])[C@]2([H])C([H])([H])[H])[C@@]2([H])C([H])([H])C([H])([H])[C@]3(C([H])([H])[H])[C@@]([H])(C([H])([H])[H])C([H])([H])C([H])([H])C([H])([H])[C@@]3([H])[C@]2([H])C1([H])[H]


 28 31  0  0  0  0  0  0  0  0999 V2000
   23.0963    6.6104   53.9045 C   0  0  0  0  0  0  0  0  0  0  0  0
   22.0646    5.5266   54.2987 C   0  0  0  0  0  0  0  0  0  0  0  0
   20.8248    5.6723   53.5391 C   0  0  0  0  0  0  0  0  0  0  0  0
   19.8068    4.6930   54.1528 C   0  0  0  0  0  0  0  0  0  0  0  0
   20.3779    3.3511   54.4240 C   0  0  0  0  0  0  0  0  0  0  0  0
   19.3522    2.5740   55.2260 C   0  0  0  0  0  0  0  0  0  0  0  0
   18.0595    3.3285   55.3874 C   0  0  0  0  0  0  0  0  0  0  0  0
   17.5335    3.7948   54.0679 C   0  0  0  0  0  0  0  0  0  0  0  0
   17.1680    2.5855   53.2508 C   0  0  0  0  0  0  0  0  0  0  0  0
   18.5337    4.6998   53.3768 C   0  0  0  0  0  0  0  0  0  0  0  0
   18.6461    4.2575   51.9640 C   0  0  0  0  0  0  0  0  0  0  0  0
   17.9904    6.1317   53.4926 C   0  0  0  0  0  0  0  0  0  0  0  0
   19.0272    7.0963   52.8868 C   0  0  0  0  0  0  0  0  0  0  0  0
   20.2506    7.0181   53.7521 C   0  0  0  0  0  0  0  0  0  0  0  0
   21.1874    8.2057   53.6189 C   0  0  0  0  0  0  0  0  0  0  0  0
   21.0855    8.5711   52.1349 C   0  0  0  0  0  0  0  0  0  0  0  0
   20.4327    9.3079   54.3309 C   0  0  0  0  0  0  0  0  0  0  0  0
   20.6428   10.6761   53.8218 C   0  0  0  0  0  0  0  0  0  0  0  0
   21.9960   11.0527   53.4352 C   0  0  0  0  0  0  0  0  0  0  0  0
   22.0275   11.8044   52.4961 O   0  0  0  0  0  0  0  0  0  0  0  0
   23.3827   10.7566   53.8935 C   0  0  0  0  0  0  0  0  0  0  0  0
   23.2556   10.1249   55.2647 C   0  0  0  0  0  0  0  0  0  0  0  0
   24.4175   10.6700   56.0613 C   0  0  0  0  0  0  0  0  0  0  0  0
   23.1130    8.6440   55.2499 C   0  0  0  0  0  0  0  0  0  0  0  0
   24.3964    8.0438   55.7268 C   0  0  0  0  0  0  0  0  0  0  0  0
   22.5667    7.9804   54.0837 C   0  0  0  0  0  0  0  0  0  0  0  0
   24.5191    5.0813   52.4509 C   0  0  0  0  0  0  0  0  0  0  0  0
   23.5846    6.2334   52.5429 C   0  0  0  0  0  0  0  0  0  0  0  0
 27 28  1  0  0  0
 28  1  1  0  0  0
  1  2  1  0  0  0
  2  3  1  0  0  0
  3  4  1  0  0  0
  4  5  1  0  0  0
  5  6  1  0  0  0
  6  7  1  0  0  0
  7  8  1  0  0  0
  8  9  1  0  0  0
  8 10  1  0  0  0
 10 11  1  0  0  0
 10 12  1  0  0  0
 12 13  1  0  0  0
 13 14  1  0  0  0
 14 15  1  0  0  0
 15 16  1  0  0  0
 15 17  1  0  0  0
 17 18  1  0  0  0
 18 19  1  0  0  0
 19 20  2  0  0  0
 19 21  1  0  0  0
 21 22  1  0  0  0
 22 23  1  0  0  0
 22 24  1  0  0  0
 24 25  1  0  0  0
 24 26  1  0  0  0
 26  1  1  0  0  0
 14  3  1  0  0  0
 26 15  1  0  0  0
 10  4  1  0  0  0
M  END
> <minimizedAffinity>
64.97026

> <CNNscore>
0.3890306354

> <CNNaffinity>
6.1717176437

> <CNN_VS>
2.4009871483

> <CNNaffinity_variance>
0.7225829959

$$$$
[H]C([H])([H])C([H])([H])[C@@]1([H])[C]2[C@](C([H])([H])[H])(C([H])([H])C([H])([H])C(=O)C([H])([H])[C@]([H])(C([H])([H])[H])[C@]2([H])C([H])([H])[H])[C@@]2([H])C([H])([H])C([H])([H])[C@]3(C([H])([H])[H])[C@@]([H])(C([H])([H])[H])C([H])([H])C([H])([H])C([H])([H])[C@@]3([H])[C@]2([H])C1([H])[H]


 28 31  0  0  0  0  0  0  0  0999 V2000
   22.2592    9.9861   54.9602 C   0  0  0  0  0  0  0  0  0  0  0  0
   23.5983    9.7553   55.7004 C   0  0  0  0  0  0  0  0  0  0  0  0
   24.6709    9.4211   54.7659 C   0  0  0  0  0  0  0  0  0  0  0  0
   25.8891    9.0079   55.6126 C   0  0  0  0  0  0  0  0  0  0  0  0
   26.1370    9.9143   56.7603 C   0  0  0  0  0  0  0  0  0  0  0  0
   27.2029    9.2711   57.6258 C   0  0  0  0  0  0  0  0  0  0  0  0
   27.7585    8.0140   57.0116 C   0  0  0  0  0  0  0  0  0  0  0  0
   28.2146    8.2504   55.6075 C   0  0  0  0  0  0  0  0  0  0  0  0
   29.3790    9.2026   55.6430 C   0  0  0  0  0  0  0  0  0  0  0  0
   27.0706    8.7413   54.7431 C   0  0  0  0  0  0  0  0  0  0  0  0
   27.5598    9.9032   53.9589 C   0  0  0  0  0  0  0  0  0  0  0  0
   26.6601    7.5674   53.8418 C   0  0  0  0  0  0  0  0  0  0  0  0
   25.4335    7.9948   53.0140 C   0  0  0  0  0  0  0  0  0  0  0  0
   24.3112    8.2184   53.9846 C   0  0  0  0  0  0  0  0  0  0  0  0
   22.9277    8.1799   53.3599 C   0  0  0  0  0  0  0  0  0  0  0  0
   23.1441    8.8150   51.9829 C   0  0  0  0  0  0  0  0  0  0  0  0
   22.7334    6.7071   53.0692 C   0  0  0  0  0  0  0  0  0  0  0  0
   21.9085    6.3783   51.8916 C   0  0  0  0  0  0  0  0  0  0  0  0
   20.7151    7.1803   51.6575 C   0  0  0  0  0  0  0  0  0  0  0  0
   20.4807    7.3495   50.4894 O   0  0  0  0  0  0  0  0  0  0  0  0
   19.6816    7.8639   52.4854 C   0  0  0  0  0  0  0  0  0  0  0  0
   19.8233    7.3128   53.8895 C   0  0  0  0  0  0  0  0  0  0  0  0
   18.4116    7.1977   54.4143 C   0  0  0  0  0  0  0  0  0  0  0  0
   20.7802    8.0588   54.7505 C   0  0  0  0  0  0  0  0  0  0  0  0
   19.9967    8.8400   55.7558 C   0  0  0  0  0  0  0  0  0  0  0  0
   21.8583    8.8161   54.1481 C   0  0  0  0  0  0  0  0  0  0  0  0
   21.5000   11.5512   53.1028 C   0  0  0  0  0  0  0  0  0  0  0  0
   22.4025   11.2969   54.2560 C   0  0  0  0  0  0  0  0  0  0  0  0
 27 28  1  0  0  0
 28  1  1  0  0  0
  1  2  1  0  0  0
  2  3  1  0  0  0
  3  4  1  0  0  0
  4  5  1  0  0  0
  5  6  1  0  0  0
  6  7  1  0  0  0
  7  8  1  0  0  0
  8  9  1  0  0  0
  8 10  1  0  0  0
 10 11  1  0  0  0
 10 12  1  0  0  0
 12 13  1  0  0  0
 13 14  1  0  0  0
 14 15  1  0  0  0
 15 16  1  0  0  0
 15 17  1  0  0  0
 17 18  1  0  0  0
 18 19  1  0  0  0
 19 20  2  0  0  0
 19 21  1  0  0  0
 21 22  1  0  0  0
 22 23  1  0  0  0
 22 24  1  0  0  0
 24 25  1  0  0  0
 24 26  1  0  0  0
 26  1  1  0  0  0
 14  3  1  0  0  0
 26 15  1  0  0  0
 10  4  1  0  0  0
M  END
> <minimizedAffinity>
43.99362

> <CNNscore>
0.3563076258

> <CNNaffinity>
6.3601622581

> <CNN_VS>
2.2661743164

> <CNNaffinity_variance>
1.1125010252

$$$$
[H]C([H])([H])C([H])([H])[C@@]1([H])[C]2[C@](C([H])([H])[H])(C([H])([H])C([H])([H])C(=O)C([H])([H])[C@]([H])(C([H])([H])[H])[C@]2([H])C([H])([H])[H])[C@@]2([H])C([H])([H])C([H])([H])[C@]3(C([H])([H])[H])[C@@]([H])(C([H])([H])[H])C([H])([H])C([H])([H])C([H])([H])[C@@]3([H])[C@]2([H])C1([H])[H]


 28 31  0  0  0  0  0  0  0  0999 V2000
   24.1644    9.9129   56.4123 C   0  0  0  0  0  0  0  0  0  0  0  0
   23.1508    9.9670   55.2443 C   0  0  0  0  0  0  0  0  0  0  0  0
   23.1575    8.7233   54.4773 C   0  0  0  0  0  0  0  0  0  0  0  0
   22.2833    8.9613   53.2318 C   0  0  0  0  0  0  0  0  0  0  0  0
   21.0101    9.6584   53.5368 C   0  0  0  0  0  0  0  0  0  0  0  0
   20.3664   10.0286   52.2147 C   0  0  0  0  0  0  0  0  0  0  0  0
   21.1250    9.4819   51.0350 C   0  0  0  0  0  0  0  0  0  0  0  0
   21.3622    8.0124   51.1745 C   0  0  0  0  0  0  0  0  0  0  0  0
   20.0313    7.3124   51.1278 C   0  0  0  0  0  0  0  0  0  0  0  0
   22.1501    7.7093   52.4332 C   0  0  0  0  0  0  0  0  0  0  0  0
   21.4818    6.5792   53.1264 C   0  0  0  0  0  0  0  0  0  0  0  0
   23.5764    7.3526   51.9887 C   0  0  0  0  0  0  0  0  0  0  0  0
   24.4375    7.1320   53.2466 C   0  0  0  0  0  0  0  0  0  0  0  0
   24.5146    8.4516   53.9568 C   0  0  0  0  0  0  0  0  0  0  0  0
   25.6726    8.5700   54.9317 C   0  0  0  0  0  0  0  0  0  0  0  0
   25.7872    7.1591   55.5170 C   0  0  0  0  0  0  0  0  0  0  0  0
   26.8701    8.6956   54.0143 C   0  0  0  0  0  0  0  0  0  0  0  0
   28.1374    8.1317   54.5154 C   0  0  0  0  0  0  0  0  0  0  0  0
   28.4578    8.3347   55.9221 C   0  0  0  0  0  0  0  0  0  0  0  0
   29.0445    7.4055   56.4122 O   0  0  0  0  0  0  0  0  0  0  0  0
   28.2544    9.4006   56.9434 C   0  0  0  0  0  0  0  0  0  0  0  0
   27.8564   10.6506   56.1854 C   0  0  0  0  0  0  0  0  0  0  0  0
   28.5364   11.7875   56.9113 C   0  0  0  0  0  0  0  0  0  0  0  0
   26.3921   10.7991   55.9678 C   0  0  0  0  0  0  0  0  0  0  0  0
   25.8909   11.8817   56.8686 C   0  0  0  0  0  0  0  0  0  0  0  0
   25.5401    9.6277   55.9482 C   0  0  0  0  0  0  0  0  0  0  0  0
   22.3428    8.2477   57.0325 C   0  0  0  0  0  0  0  0  0  0  0  0
   23.5724    8.9852   57.4240 C   0  0  0  0  0  0  0  0  0  0  0  0
 27 28  1  0  0  0
 28  1  1  0  0  0
  1  2  1  0  0  0
  2  3  1  0  0  0
  3  4  1  0  0  0
  4  5  1  0  0  0
  5  6  1  0  0  0
  6  7  1  0  0  0
  7  8  1  0  0  0
  8  9  1  0  0  0
  8 10  1  0  0  0
 10 11  1  0  0  0
 10 12  1  0  0  0
 12 13  1  0  0  0
 13 14  1  0  0  0
 14 15  1  0  0  0
 15 16  1  0  0  0
 15 17  1  0  0  0
 17 18  1  0  0  0
 18 19  1  0  0  0
 19 20  2  0  0  0
 19 21  1  0  0  0
 21 22  1  0  0  0
 22 23  1  0  0  0
 22 24  1  0  0  0
 24 25  1  0  0  0
 24 26  1  0  0  0
 26  1  1  0  0  0
 14  3  1  0  0  0
 26 15  1  0  0  0
 10  4  1  0  0  0
M  END
> <minimizedAffinity>
59.58698

> <CNNscore>
0.3561868668

> <CNNaffinity>
6.0765089989

> <CNN_VS>
2.1643726826

> <CNNaffinity_variance>
0.5915216208

$$$$
[H]C([H])([H])C([H])([H])[C@@]1([H])[C]2[C@](C([H])([H])[H])(C([H])([H])C([H])([H])C(=O)C([H])([H])[C@]([H])(C([H])([H])[H])[C@]2([H])C([H])([H])[H])[C@@]2([H])C([H])([H])C([H])([H])[C@]3(C([H])([H])[H])[C@@]([H])(C([H])([H])[H])C([H])([H])C([H])([H])C([H])([H])[C@@]3([H])[C@]2([H])C1([H])[H]


 28 31  0  0  0  0  0  0  0  0999 V2000
   21.1310    8.4817   51.7002 C   0  0  0  0  0  0  0  0  0  0  0  0
   22.2319    7.4305   51.4222 C   0  0  0  0  0  0  0  0  0  0  0  0
   22.5041    6.6203   52.6074 C   0  0  0  0  0  0  0  0  0  0  0  0
   23.7444    5.7646   52.2890 C   0  0  0  0  0  0  0  0  0  0  0  0
   23.6970    5.1466   50.9413 C   0  0  0  0  0  0  0  0  0  0  0  0
   25.0581    4.5344   50.6737 C   0  0  0  0  0  0  0  0  0  0  0  0
   25.9716    4.6243   51.8668 C   0  0  0  0  0  0  0  0  0  0  0  0
   25.3186    4.0750   53.0945 C   0  0  0  0  0  0  0  0  0  0  0  0
   25.1000    2.6000   52.8937 C   0  0  0  0  0  0  0  0  0  0  0  0
   24.0419    4.8281   53.4104 C   0  0  0  0  0  0  0  0  0  0  0  0
   22.9847    3.8275   53.7026 C   0  0  0  0  0  0  0  0  0  0  0  0
   24.3425    5.7221   54.6225 C   0  0  0  0  0  0  0  0  0  0  0  0
   23.0968    6.5789   54.9165 C   0  0  0  0  0  0  0  0  0  0  0  0
   22.9055    7.4862   53.7367 C   0  0  0  0  0  0  0  0  0  0  0  0
   22.0478    8.7068   54.0196 C   0  0  0  0  0  0  0  0  0  0  0  0
   20.9982    8.1806   55.0034 C   0  0  0  0  0  0  0  0  0  0  0  0
   22.9604    9.5673   54.8669 C   0  0  0  0  0  0  0  0  0  0  0  0
   22.3024   10.4193   55.8750 C   0  0  0  0  0  0  0  0  0  0  0  0
   21.0641   11.0849   55.4928 C   0  0  0  0  0  0  0  0  0  0  0  0
   20.2797   11.1814   56.4002 O   0  0  0  0  0  0  0  0  0  0  0  0
   20.4891   11.6926   54.2596 C   0  0  0  0  0  0  0  0  0  0  0  0
   21.6399   11.8643   53.2893 C   0  0  0  0  0  0  0  0  0  0  0  0
   21.3743   13.1753   52.5877 C   0  0  0  0  0  0  0  0  0  0  0  0
   21.8829   10.6906   52.4079 C   0  0  0  0  0  0  0  0  0  0  0  0
   21.4238   11.0366   51.0280 C   0  0  0  0  0  0  0  0  0  0  0  0
   21.4750    9.3676   52.8343 C   0  0  0  0  0  0  0  0  0  0  0  0
   19.7520    6.6712   52.8388 C   0  0  0  0  0  0  0  0  0  0  0  0
   19.8493    7.7173   51.7875 C   0  0  0  0  0  0  0  0  0  0  0  0
 27 28  1  0  0  0
 28  1  1  0  0  0
  1  2  1  0  0  0
  2  3  1  0  0  0
  3  4  1  0  0  0
  4  5  1  0  0  0
  5  6  1  0  0  0
  6  7  1  0  0  0
  7  8  1  0  0  0
  8  9  1  0  0  0
  8 10  1  0  0  0
 10 11  1  0  0  0
 10 12  1  0  0  0
 12 13  1  0  0  0
 13 14  1  0  0  0
 14 15  1  0  0  0
 15 16  1  0  0  0
 15 17  1  0  0  0
 17 18  1  0  0  0
 18 19  1  0  0  0
 19 20  2  0  0  0
 19 21  1  0  0  0
 21 22  1  0  0  0
 22 23  1  0  0  0
 22 24  1  0  0  0
 24 25  1  0  0  0
 24 26  1  0  0  0
 26  1  1  0  0  0
 14  3  1  0  0  0
 26 15  1  0  0  0
 10  4  1  0  0  0
M  END
> <minimizedAffinity>
65.85116

> <CNNscore>
0.3080823720

> <CNNaffinity>
6.2139444351

> <CNN_VS>
1.9144067764

> <CNNaffinity_variance>
0.5426929593

$$$$
[H]C([H])([H])C([H])([H])[C@@]1([H])[C]2[C@](C([H])([H])[H])(C([H])([H])C([H])([H])C(=O)C([H])([H])[C@]([H])(C([H])([H])[H])[C@]2([H])C([H])([H])[H])[C@@]2([H])C([H])([H])C([H])([H])[C@]3(C([H])([H])[H])[C@@]([H])(C([H])([H])[H])C([H])([H])C([H])([H])C([H])([H])[C@@]3([H])[C@]2([H])C1([H])[H]


 28 31  0  0  0  0  0  0  0  0999 V2000
   20.7031    7.3409   54.5877 C   0  0  0  0  0  0  0  0  0  0  0  0
   20.6273    8.8805   54.4529 C   0  0  0  0  0  0  0  0  0  0  0  0
   21.1476    9.3268   53.1624 C   0  0  0  0  0  0  0  0  0  0  0  0
   21.2232   10.8641   53.2181 C   0  0  0  0  0  0  0  0  0  0  0  0
   20.0118   11.4872   53.8050 C   0  0  0  0  0  0  0  0  0  0  0  0
   20.3114   12.9595   54.0093 C   0  0  0  0  0  0  0  0  0  0  0  0
   21.6544   13.3534   53.4550 C   0  0  0  0  0  0  0  0  0  0  0  0
   21.8027   12.9224   52.0311 C   0  0  0  0  0  0  0  0  0  0  0  0
   20.8094   13.6877   51.1998 C   0  0  0  0  0  0  0  0  0  0  0  0
   21.6534   11.4196   51.9031 C   0  0  0  0  0  0  0  0  0  0  0  0
   20.7371   11.1493   50.7666 C   0  0  0  0  0  0  0  0  0  0  0  0
   23.0599   10.8531   51.6589 C   0  0  0  0  0  0  0  0  0  0  0  0
   22.9659    9.3162   51.6200 C   0  0  0  0  0  0  0  0  0  0  0  0
   22.5441    8.8723   52.9899 C   0  0  0  0  0  0  0  0  0  0  0  0
   22.8470    7.4162   53.2960 C   0  0  0  0  0  0  0  0  0  0  0  0
   22.6215    6.7184   51.9512 C   0  0  0  0  0  0  0  0  0  0  0  0
   24.3504    7.4177   53.4722 C   0  0  0  0  0  0  0  0  0  0  0  0
   25.0544    6.1835   53.0769 C   0  0  0  0  0  0  0  0  0  0  0  0
   24.4298    4.9115   53.4153 C   0  0  0  0  0  0  0  0  0  0  0  0
   24.6181    4.0577   52.5886 O   0  0  0  0  0  0  0  0  0  0  0  0
   23.6037    4.3650   54.5286 C   0  0  0  0  0  0  0  0  0  0  0  0
   23.7187    5.3517   55.6724 C   0  0  0  0  0  0  0  0  0  0  0  0
   23.7667    4.5053   56.9226 C   0  0  0  0  0  0  0  0  0  0  0  0
   22.6984    6.4345   55.6570 C   0  0  0  0  0  0  0  0  0  0  0  0
   21.7123    6.1662   56.7481 C   0  0  0  0  0  0  0  0  0  0  0  0
   22.0798    6.8292   54.4079 C   0  0  0  0  0  0  0  0  0  0  0  0
   19.6967    5.3480   53.3665 C   0  0  0  0  0  0  0  0  0  0  0  0
   19.6432    6.7991   53.6834 C   0  0  0  0  0  0  0  0  0  0  0  0
 27 28  1  0  0  0
 28  1  1  0  0  0
  1  2  1  0  0  0
  2  3  1  0  0  0
  3  4  1  0  0  0
  4  5  1  0  0  0
  5  6  1  0  0  0
  6  7  1  0  0  0
  7  8  1  0  0  0
  8  9  1  0  0  0
  8 10  1  0  0  0
 10 11  1  0  0  0
 10 12  1  0  0  0
 12 13  1  0  0  0
 13 14  1  0  0  0
 14 15  1  0  0  0
 15 16  1  0  0  0
 15 17  1  0  0  0
 17 18  1  0  0  0
 18 19  1  0  0  0
 19 20  2  0  0  0
 19 21  1  0  0  0
 21 22  1  0  0  0
 22 23  1  0  0  0
 22 24  1  0  0  0
 24 25  1  0  0  0
 24 26  1  0  0  0
 26  1  1  0  0  0
 14  3  1  0  0  0
 26 15  1  0  0  0
 10  4  1  0  0  0
M  END
> <minimizedAffinity>
70.96727

> <CNNscore>
0.3051073849

> <CNNaffinity>
6.0148491859

> <CNN_VS>
1.8351749182

> <CNNaffinity_variance>
0.8635171652

$$$$
[H]c1nc(N([H])c2c([H])c([H])c(C(=O)N3C([H])([H])C([H])([H])N(C([H])([H])[H])C([H])([H])C3([H])[H])c([H])c2OC([H])([H])[H])nc2c1N(C([H])([H])[H])C(=O)[C@@]([H])(C([H])([H])[H])N2C1([H])C([H])([H])C([H])([H])C([H])([H])C1([H])[H]


 37 41  0  0  0  0  0  0  0  0999 V2000
   26.2916    8.0899   53.7807 N   0  0  0  0  0  0  0  0  0  0  0  0
   26.8417    8.1765   52.8668 H   0  0  0  0  0  0  0  0  0  0  0  0
   24.9987    7.5579   53.6351 C   0  0  0  0  0  0  0  0  0  0  0  0
   24.7104    6.2545   53.7003 N   0  0  0  0  0  0  0  0  0  0  0  0
   23.4966    5.7018   53.5671 C   0  0  0  0  0  0  0  0  0  0  0  0
   22.4650    6.6064   53.3401 C   0  0  0  0  0  0  0  0  0  0  0  0
   21.1265    6.1772   53.1810 N   0  0  0  0  0  0  0  0  0  0  0  0
   20.7427    4.7760   53.2446 C   0  0  0  0  0  0  0  0  0  0  0  0
   20.1260    7.1840   52.9520 C   0  0  0  0  0  0  0  0  0  0  0  0
   19.0713    6.9161   52.3650 O   0  0  0  0  0  0  0  0  0  0  0  0
   20.3649    8.5884   53.4355 C   0  0  0  0  0  0  0  0  0  0  0  0
   20.3276    8.5113   54.9646 C   0  0  0  0  0  0  0  0  0  0  0  0
   21.7148    8.9351   53.0285 N   0  0  0  0  0  0  0  0  0  0  0  0
   22.7407    7.9539   53.2685 C   0  0  0  0  0  0  0  0  0  0  0  0
   23.9662    8.4459   53.4088 N   0  0  0  0  0  0  0  0  0  0  0  0
   21.9034   10.2013   52.4292 C   0  0  0  0  0  0  0  0  0  0  0  0
   21.1160   10.5615   51.2436 C   0  0  0  0  0  0  0  0  0  0  0  0
   21.4757   12.0512   51.0823 C   0  0  0  0  0  0  0  0  0  0  0  0
   21.7910   12.5406   52.4810 C   0  0  0  0  0  0  0  0  0  0  0  0
   21.5636   11.3523   53.3922 C   0  0  0  0  0  0  0  0  0  0  0  0
   26.1638    8.9710   56.0200 C   0  0  0  0  0  0  0  0  0  0  0  0
   26.7545    9.3996   57.1661 C   0  0  0  0  0  0  0  0  0  0  0  0
   28.1531    9.4177   57.3534 C   0  0  0  0  0  0  0  0  0  0  0  0
   28.9086    8.9736   56.3044 C   0  0  0  0  0  0  0  0  0  0  0  0
   28.2923    8.5360   55.1326 C   0  0  0  0  0  0  0  0  0  0  0  0
   26.9440    8.5146   54.9425 C   0  0  0  0  0  0  0  0  0  0  0  0
   28.6732    9.8822   58.6088 C   0  0  0  0  0  0  0  0  0  0  0  0
   29.2267    8.9696   59.3613 O   0  0  0  0  0  0  0  0  0  0  0  0
   28.6899   11.1490   59.1694 N   0  0  0  0  0  0  0  0  0  0  0  0
   28.1836   12.3992   58.6743 C   0  0  0  0  0  0  0  0  0  0  0  0
   28.3140   13.4595   59.7686 C   0  0  0  0  0  0  0  0  0  0  0  0
   29.6811   13.6580   60.1880 N   0  0  0  0  0  0  0  0  0  0  0  0
   29.6352   14.2760   61.5181 C   0  0  0  0  0  0  0  0  0  0  0  0
   30.3683   12.3826   60.3508 C   0  0  0  0  0  0  0  0  0  0  0  0
   29.3387   11.2978   60.5194 C   0  0  0  0  0  0  0  0  0  0  0  0
   24.0614   10.1817   55.9003 C   0  0  0  0  0  0  0  0  0  0  0  0
   24.7727    8.9717   55.8824 O   0  0  0  0  0  0  0  0  0  0  0  0
 36 37  1  0  0  0
 37 21  1  0  0  0
 21 22  2  0  0  0
 22 23  1  0  0  0
 23 24  2  0  0  0
 24 25  1  0  0  0
 25 26  2  0  0  0
 26  1  1  0  0  0
  1  3  1  0  0  0
  3  4  2  0  0  0
  4  5  1  0  0  0
  5  6  2  0  0  0
  6  7  1  0  0  0
  7  8  1  0  0  0
  7  9  1  0  0  0
  9 10  2  0  0  0
  9 11  1  0  0  0
 11 12  1  0  0  0
 11 13  1  0  0  0
 13 16  1  0  0  0
 16 17  1  0  0  0
 17 18  1  0  0  0
 18 19  1  0  0  0
 19 20  1  0  0  0
 13 14  1  0  0  0
 14 15  2  0  0  0
 23 27  1  0  0  0
 27 28  2  0  0  0
 27 29  1  0  0  0
 29 30  1  0  0  0
 30 31  1  0  0  0
 31 32  1  0  0  0
 32 33  1  0  0  0
 32 34  1  0  0  0
 34 35  1  0  0  0
 26 21  1  0  0  0
 15  3  1  0  0  0
 35 29  1  0  0  0
 14  6  1  0  0  0
 20 16  1  0  0  0
  1  2  1  0  0  0
M  END
> <minimizedAffinity>
14.15120

> <CNNscore>
0.4727345109

> <CNNaffinity>
6.6851067543

> <CNN_VS>
3.1602807045

> <CNNaffinity_variance>
0.2806746662

$$$$
[H]c1nc(N([H])c2c([H])c([H])c(C(=O)N3C([H])([H])C([H])([H])N(C([H])([H])[H])C([H])([H])C3([H])[H])c([H])c2OC([H])([H])[H])nc2c1N(C([H])([H])[H])C(=O)[C@@]([H])(C([H])([H])[H])N2C1([H])C([H])([H])C([H])([H])C([H])([H])C1([H])[H]


 37 41  0  0  0  0  0  0  0  0999 V2000
   26.4364    8.3846   54.3988 N   0  0  0  0  0  0  0  0  0  0  0  0
   27.0528    8.4842   53.5296 H   0  0  0  0  0  0  0  0  0  0  0  0
   25.1947    7.7685   54.1659 C   0  0  0  0  0  0  0  0  0  0  0  0
   24.9845    6.4505   54.2359 N   0  0  0  0  0  0  0  0  0  0  0  0
   23.8218    5.8191   54.0219 C   0  0  0  0  0  0  0  0  0  0  0  0
   22.7562    6.6519   53.6981 C   0  0  0  0  0  0  0  0  0  0  0  0
   21.4637    6.1352   53.4462 N   0  0  0  0  0  0  0  0  0  0  0  0
   21.1648    4.7135   53.5093 C   0  0  0  0  0  0  0  0  0  0  0  0
   20.4227    7.0721   53.1206 C   0  0  0  0  0  0  0  0  0  0  0  0
   19.4355    6.7277   52.4604 O   0  0  0  0  0  0  0  0  0  0  0  0
   20.5348    8.4964   53.5918 C   0  0  0  0  0  0  0  0  0  0  0  0
   20.3840    8.4412   55.1148 C   0  0  0  0  0  0  0  0  0  0  0  0
   21.8878    8.9225   53.2820 N   0  0  0  0  0  0  0  0  0  0  0  0
   22.9515    8.0130   53.6199 C   0  0  0  0  0  0  0  0  0  0  0  0
   24.1292    8.5847   53.8431 N   0  0  0  0  0  0  0  0  0  0  0  0
   22.0425   10.1885   52.6728 C   0  0  0  0  0  0  0  0  0  0  0  0
   21.3236   10.4808   51.4265 C   0  0  0  0  0  0  0  0  0  0  0  0
   21.6029   11.9873   51.2619 C   0  0  0  0  0  0  0  0  0  0  0  0
   21.7846   12.5169   52.6697 C   0  0  0  0  0  0  0  0  0  0  0  0
   21.5637   11.3309   53.5856 C   0  0  0  0  0  0  0  0  0  0  0  0
   28.2165    9.5180   55.5624 C   0  0  0  0  0  0  0  0  0  0  0  0
   28.7720   10.0063   56.7022 C   0  0  0  0  0  0  0  0  0  0  0  0
   28.1521    9.9087   57.9661 C   0  0  0  0  0  0  0  0  0  0  0  0
   26.9360    9.2853   57.9958 C   0  0  0  0  0  0  0  0  0  0  0  0
   26.3748    8.7877   56.8202 C   0  0  0  0  0  0  0  0  0  0  0  0
   26.9650    8.8771   55.5962 C   0  0  0  0  0  0  0  0  0  0  0  0
   28.8229   10.4674   59.1065 C   0  0  0  0  0  0  0  0  0  0  0  0
   29.4700    9.6136   59.8532 O   0  0  0  0  0  0  0  0  0  0  0  0
   28.9039   11.7741   59.5594 N   0  0  0  0  0  0  0  0  0  0  0  0
   28.3342   12.9844   59.0349 C   0  0  0  0  0  0  0  0  0  0  0  0
   28.5956   14.1265   60.0177 C   0  0  0  0  0  0  0  0  0  0  0  0
   30.0034   14.3498   60.2463 N   0  0  0  0  0  0  0  0  0  0  0  0
   30.1213   15.0704   61.5190 C   0  0  0  0  0  0  0  0  0  0  0  0
   30.7112   13.0874   60.4215 C   0  0  0  0  0  0  0  0  0  0  0  0
   29.7155   12.0248   60.8020 C   0  0  0  0  0  0  0  0  0  0  0  0
   29.8439   10.6327   54.1450 C   0  0  0  0  0  0  0  0  0  0  0  0
   28.8701    9.6395   54.3327 O   0  0  0  0  0  0  0  0  0  0  0  0
 36 37  1  0  0  0
 37 21  1  0  0  0
 21 22  2  0  0  0
 22 23  1  0  0  0
 23 24  2  0  0  0
 24 25  1  0  0  0
 25 26  2  0  0  0
 26  1  1  0  0  0
  1  3  1  0  0  0
  3  4  2  0  0  0
  4  5  1  0  0  0
  5  6  2  0  0  0
  6  7  1  0  0  0
  7  8  1  0  0  0
  7  9  1  0  0  0
  9 10  2  0  0  0
  9 11  1  0  0  0
 11 12  1  0  0  0
 11 13  1  0  0  0
 13 16  1  0  0  0
 16 17  1  0  0  0
 17 18  1  0  0  0
 18 19  1  0  0  0
 19 20  1  0  0  0
 13 14  1  0  0  0
 14 15  2  0  0  0
 23 27  1  0  0  0
 27 28  2  0  0  0
 27 29  1  0  0  0
 29 30  1  0  0  0
 30 31  1  0  0  0
 31 32  1  0  0  0
 32 33  1  0  0  0
 32 34  1  0  0  0
 34 35  1  0  0  0
 26 21  1  0  0  0
 15  3  1  0  0  0
 35 29  1  0  0  0
 14  6  1  0  0  0
 20 16  1  0  0  0
  1  2  1  0  0  0
M  END
> <minimizedAffinity>
16.87130

> <CNNscore>
0.4271683693

> <CNNaffinity>
6.5380797386

> <CNN_VS>
2.7928607464

> <CNNaffinity_variance>
0.3726142347

$$$$
[H]c1nc(N([H])c2c([H])c([H])c(C(=O)N3C([H])([H])C([H])([H])N(C([H])([H])[H])C([H])([H])C3([H])[H])c([H])c2OC([H])([H])[H])nc2c1N(C([H])([H])[H])C(=O)[C@@]([H])(C([H])([H])[H])N2C1([H])C([H])([H])C([H])([H])C([H])([H])C1([H])[H]


 37 41  0  0  0  0  0  0  0  0999 V2000
   25.5998    6.8652   55.0417 N   0  0  0  0  0  0  0  0  0  0  0  0
   25.8454    5.8779   55.3736 H   0  0  0  0  0  0  0  0  0  0  0  0
   24.6188    6.9155   54.0363 C   0  0  0  0  0  0  0  0  0  0  0  0
   24.7676    6.3954   52.8141 N   0  0  0  0  0  0  0  0  0  0  0  0
   23.8634    6.4196   51.8252 C   0  0  0  0  0  0  0  0  0  0  0  0
   22.6685    7.0568   52.1420 C   0  0  0  0  0  0  0  0  0  0  0  0
   21.6149    7.1618   51.2040 N   0  0  0  0  0  0  0  0  0  0  0  0
   21.7084    6.6152   49.8597 C   0  0  0  0  0  0  0  0  0  0  0  0
   20.4154    7.8362   51.6210 C   0  0  0  0  0  0  0  0  0  0  0  0
   19.6635    8.3716   50.7983 O   0  0  0  0  0  0  0  0  0  0  0  0
   20.0675    7.8911   53.0836 C   0  0  0  0  0  0  0  0  0  0  0  0
   19.7225    6.4528   53.4809 C   0  0  0  0  0  0  0  0  0  0  0  0
   21.2832    8.2774   53.7771 N   0  0  0  0  0  0  0  0  0  0  0  0
   22.4950    7.6002   53.3956 C   0  0  0  0  0  0  0  0  0  0  0  0
   23.4285    7.5459   54.3386 N   0  0  0  0  0  0  0  0  0  0  0  0
   21.1724    9.2858   54.7614 C   0  0  0  0  0  0  0  0  0  0  0  0
   22.1970    9.3864   55.8081 C   0  0  0  0  0  0  0  0  0  0  0  0
   21.8043   10.7113   56.4900 C   0  0  0  0  0  0  0  0  0  0  0  0
   21.1404   11.5374   55.4073 C   0  0  0  0  0  0  0  0  0  0  0  0
   21.2107   10.6969   54.1492 C   0  0  0  0  0  0  0  0  0  0  0  0
   27.3776    8.4909   54.9786 C   0  0  0  0  0  0  0  0  0  0  0  0
   28.0786    9.5106   55.5398 C   0  0  0  0  0  0  0  0  0  0  0  0
   27.7725   10.0524   56.8063 C   0  0  0  0  0  0  0  0  0  0  0  0
   26.7118    9.4927   57.4622 C   0  0  0  0  0  0  0  0  0  0  0  0
   25.9991    8.4466   56.8774 C   0  0  0  0  0  0  0  0  0  0  0  0
   26.2867    7.9171   55.6561 C   0  0  0  0  0  0  0  0  0  0  0  0
   28.5729   11.1365   57.3026 C   0  0  0  0  0  0  0  0  0  0  0  0
   29.3957   11.6699   56.4401 O   0  0  0  0  0  0  0  0  0  0  0  0
   28.6253   11.7238   58.5563 N   0  0  0  0  0  0  0  0  0  0  0  0
   27.8999   11.4274   59.7606 C   0  0  0  0  0  0  0  0  0  0  0  0
   28.4652   12.2704   60.9045 C   0  0  0  0  0  0  0  0  0  0  0  0
   28.3636   13.6880   60.6511 N   0  0  0  0  0  0  0  0  0  0  0  0
   29.3448   14.3493   61.5189 C   0  0  0  0  0  0  0  0  0  0  0  0
   28.7486   14.0029   59.2807 C   0  0  0  0  0  0  0  0  0  0  0  0
   29.5817   12.8713   58.7415 C   0  0  0  0  0  0  0  0  0  0  0  0
   27.3870    8.7034   52.5590 C   0  0  0  0  0  0  0  0  0  0  0  0
   27.7196    7.9881   53.7199 O   0  0  0  0  0  0  0  0  0  0  0  0
 36 37  1  0  0  0
 37 21  1  0  0  0
 21 22  2  0  0  0
 22 23  1  0  0  0
 23 24  2  0  0  0
 24 25  1  0  0  0
 25 26  2  0  0  0
 26  1  1  0  0  0
  1  3  1  0  0  0
  3  4  2  0  0  0
  4  5  1  0  0  0
  5  6  2  0  0  0
  6  7  1  0  0  0
  7  8  1  0  0  0
  7  9  1  0  0  0
  9 10  2  0  0  0
  9 11  1  0  0  0
 11 12  1  0  0  0
 11 13  1  0  0  0
 13 16  1  0  0  0
 16 17  1  0  0  0
 17 18  1  0  0  0
 18 19  1  0  0  0
 19 20  1  0  0  0
 13 14  1  0  0  0
 14 15  2  0  0  0
 23 27  1  0  0  0
 27 28  2  0  0  0
 27 29  1  0  0  0
 29 30  1  0  0  0
 30 31  1  0  0  0
 31 32  1  0  0  0
 32 33  1  0  0  0
 32 34  1  0  0  0
 34 35  1  0  0  0
 26 21  1  0  0  0
 15  3  1  0  0  0
 35 29  1  0  0  0
 14  6  1  0  0  0
 20 16  1  0  0  0
  1  2  1  0  0  0
M  END
> <minimizedAffinity>
45.60329

> <CNNscore>
0.3341189027

> <CNNaffinity>
6.1616835594

> <CNN_VS>
2.0587348938

> <CNNaffinity_variance>
1.3579493761

$$$$
[H]c1nc(N([H])c2c([H])c([H])c(C(=O)N3C([H])([H])C([H])([H])N(C([H])([H])[H])C([H])([H])C3([H])[H])c([H])c2OC([H])([H])[H])nc2c1N(C([H])([H])[H])C(=O)[C@@]([H])(C([H])([H])[H])N2C1([H])C([H])([H])C([H])([H])C([H])([H])C1([H])[H]


 37 41  0  0  0  0  0  0  0  0999 V2000
   23.6176    8.0908   54.8083 N   0  0  0  0  0  0  0  0  0  0  0  0
   23.3375    9.0354   55.2262 H   0  0  0  0  0  0  0  0  0  0  0  0
   24.9915    7.9538   54.5450 C   0  0  0  0  0  0  0  0  0  0  0  0
   25.5003    7.1533   53.6035 N   0  0  0  0  0  0  0  0  0  0  0  0
   26.7994    6.9896   53.3173 C   0  0  0  0  0  0  0  0  0  0  0  0
   27.6688    7.7432   54.0985 C   0  0  0  0  0  0  0  0  0  0  0  0
   29.0701    7.6814   53.9152 N   0  0  0  0  0  0  0  0  0  0  0  0
   29.6897    6.8357   52.9075 C   0  0  0  0  0  0  0  0  0  0  0  0
   29.8909    8.4977   54.7681 C   0  0  0  0  0  0  0  0  0  0  0  0
   31.0650    8.1933   55.0082 O   0  0  0  0  0  0  0  0  0  0  0  0
   29.3124    9.7449   55.3790 C   0  0  0  0  0  0  0  0  0  0  0  0
   29.0881   10.7112   54.2121 C   0  0  0  0  0  0  0  0  0  0  0  0
   28.0171    9.3713   55.9180 N   0  0  0  0  0  0  0  0  0  0  0  0
   27.1651    8.5738   55.0749 C   0  0  0  0  0  0  0  0  0  0  0  0
   25.8647    8.6964   55.3144 N   0  0  0  0  0  0  0  0  0  0  0  0
   27.7074    9.8182   57.2228 C   0  0  0  0  0  0  0  0  0  0  0  0
   28.1318    9.0177   58.3780 C   0  0  0  0  0  0  0  0  0  0  0  0
   27.7922    9.9657   59.5445 C   0  0  0  0  0  0  0  0  0  0  0  0
   27.9103   11.3633   58.9718 C   0  0  0  0  0  0  0  0  0  0  0  0
   28.3496   11.1814   57.5337 C   0  0  0  0  0  0  0  0  0  0  0  0
   21.8950    7.2055   53.3744 C   0  0  0  0  0  0  0  0  0  0  0  0
   20.8798    6.3360   53.1302 C   0  0  0  0  0  0  0  0  0  0  0  0
   20.4553    5.3642   54.0612 C   0  0  0  0  0  0  0  0  0  0  0  0
   21.1272    5.3338   55.2512 C   0  0  0  0  0  0  0  0  0  0  0  0
   22.1675    6.2306   55.4916 C   0  0  0  0  0  0  0  0  0  0  0  0
   22.5844    7.1717   54.5998 C   0  0  0  0  0  0  0  0  0  0  0  0
   19.3772    4.4879   53.6978 C   0  0  0  0  0  0  0  0  0  0  0  0
   19.7278    3.2815   53.3414 O   0  0  0  0  0  0  0  0  0  0  0  0
   18.0092    4.7029   53.6584 N   0  0  0  0  0  0  0  0  0  0  0  0
   17.2360    5.8755   53.9613 C   0  0  0  0  0  0  0  0  0  0  0  0
   15.7749    5.6205   53.5889 C   0  0  0  0  0  0  0  0  0  0  0  0
   15.2065    4.5045   54.3070 N   0  0  0  0  0  0  0  0  0  0  0  0
   14.0406    4.0512   53.5400 C   0  0  0  0  0  0  0  0  0  0  0  0
   16.1347    3.3811   54.3466 C   0  0  0  0  0  0  0  0  0  0  0  0
   17.1406    3.5471   53.2395 C   0  0  0  0  0  0  0  0  0  0  0  0
   21.4620    9.2609   52.1547 C   0  0  0  0  0  0  0  0  0  0  0  0
   22.2795    8.1511   52.4193 O   0  0  0  0  0  0  0  0  0  0  0  0
 36 37  1  0  0  0
 37 21  1  0  0  0
 21 22  2  0  0  0
 22 23  1  0  0  0
 23 24  2  0  0  0
 24 25  1  0  0  0
 25 26  2  0  0  0
 26  1  1  0  0  0
  1  3  1  0  0  0
  3  4  2  0  0  0
  4  5  1  0  0  0
  5  6  2  0  0  0
  6  7  1  0  0  0
  7  8  1  0  0  0
  7  9  1  0  0  0
  9 10  2  0  0  0
  9 11  1  0  0  0
 11 12  1  0  0  0
 11 13  1  0  0  0
 13 16  1  0  0  0
 16 17  1  0  0  0
 17 18  1  0  0  0
 18 19  1  0  0  0
 19 20  1  0  0  0
 13 14  1  0  0  0
 14 15  2  0  0  0
 23 27  1  0  0  0
 27 28  2  0  0  0
 27 29  1  0  0  0
 29 30  1  0  0  0
 30 31  1  0  0  0
 31 32  1  0  0  0
 32 33  1  0  0  0
 32 34  1  0  0  0
 34 35  1  0  0  0
 26 21  1  0  0  0
 15  3  1  0  0  0
 35 29  1  0  0  0
 14  6  1  0  0  0
 20 16  1  0  0  0
  1  2  1  0  0  0
M  END
> <minimizedAffinity>
51.89168

> <CNNscore>
0.3187365234

> <CNNaffinity>
6.4657964706

> <CNN_VS>
2.0608854294

> <CNNaffinity_variance>
0.7465179563

$$$$
[H]c1nc(N([H])c2c([H])c([H])c(C(=O)N3C([H])([H])C([H])([H])N(C([H])([H])[H])C([H])([H])C3([H])[H])c([H])c2OC([H])([H])[H])nc2c1N(C([H])([H])[H])C(=O)[C@@]([H])(C([H])([H])[H])N2C1([H])C([H])([H])C([H])([H])C([H])([H])C1([H])[H]


 37 41  0  0  0  0  0  0  0  0999 V2000
   23.4414    7.2787   52.5016 N   0  0  0  0  0  0  0  0  0  0  0  0
   23.7328    7.1591   51.4789 H   0  0  0  0  0  0  0  0  0  0  0  0
   24.4540    7.7710   53.3430 C   0  0  0  0  0  0  0  0  0  0  0  0
   24.3665    7.8198   54.6757 N   0  0  0  0  0  0  0  0  0  0  0  0
   25.3029    8.2801   55.5169 C   0  0  0  0  0  0  0  0  0  0  0  0
   26.4622    8.7425   54.9035 C   0  0  0  0  0  0  0  0  0  0  0  0
   27.5432    9.2568   55.6572 N   0  0  0  0  0  0  0  0  0  0  0  0
   27.5160    9.3348   57.1091 C   0  0  0  0  0  0  0  0  0  0  0  0
   28.7023    9.7103   54.9373 C   0  0  0  0  0  0  0  0  0  0  0  0
   29.4622   10.5591   55.4177 O   0  0  0  0  0  0  0  0  0  0  0  0
   28.9972    9.1420   53.5759 C   0  0  0  0  0  0  0  0  0  0  0  0
   29.3802    7.6782   53.8130 C   0  0  0  0  0  0  0  0  0  0  0  0
   27.7451    9.1733   52.8416 N   0  0  0  0  0  0  0  0  0  0  0  0
   26.5724    8.7020   53.5313 C   0  0  0  0  0  0  0  0  0  0  0  0
   25.6096    8.2335   52.7458 N   0  0  0  0  0  0  0  0  0  0  0  0
   27.7851    9.6670   51.5177 C   0  0  0  0  0  0  0  0  0  0  0  0
   28.7324   10.7352   51.1757 C   0  0  0  0  0  0  0  0  0  0  0  0
   28.5866   10.7899   49.6426 C   0  0  0  0  0  0  0  0  0  0  0  0
   28.1921    9.3872   49.2278 C   0  0  0  0  0  0  0  0  0  0  0  0
   28.1676    8.5735   50.5050 C   0  0  0  0  0  0  0  0  0  0  0  0
   21.0964    7.8340   52.4974 C   0  0  0  0  0  0  0  0  0  0  0  0
   19.8030    7.5403   52.7923 C   0  0  0  0  0  0  0  0  0  0  0  0
   19.4085    6.3416   53.4239 C   0  0  0  0  0  0  0  0  0  0  0  0
   20.4101    5.4648   53.7346 C   0  0  0  0  0  0  0  0  0  0  0  0
   21.7342    5.7761   53.4276 C   0  0  0  0  0  0  0  0  0  0  0  0
   22.1247    6.9298   52.8184 C   0  0  0  0  0  0  0  0  0  0  0  0
   18.0122    6.1269   53.6818 C   0  0  0  0  0  0  0  0  0  0  0  0
   17.3107    7.2033   53.9152 O   0  0  0  0  0  0  0  0  0  0  0  0
   17.2685    4.9589   53.7271 N   0  0  0  0  0  0  0  0  0  0  0  0
   17.6619    3.5900   53.5383 C   0  0  0  0  0  0  0  0  0  0  0  0
   16.4770    2.6801   53.8650 C   0  0  0  0  0  0  0  0  0  0  0  0
   15.3300    2.9418   53.0285 N   0  0  0  0  0  0  0  0  0  0  0  0
   14.1574    2.4076   53.7305 C   0  0  0  0  0  0  0  0  0  0  0  0
   15.1048    4.3748   52.8835 C   0  0  0  0  0  0  0  0  0  0  0  0
   15.7965    5.0886   54.0137 C   0  0  0  0  0  0  0  0  0  0  0  0
   21.4310   10.2379   52.5948 C   0  0  0  0  0  0  0  0  0  0  0  0
   21.4375    9.0358   51.8701 O   0  0  0  0  0  0  0  0  0  0  0  0
 36 37  1  0  0  0
 37 21  1  0  0  0
 21 22  2  0  0  0
 22 23  1  0  0  0
 23 24  2  0  0  0
 24 25  1  0  0  0
 25 26  2  0  0  0
 26  1  1  0  0  0
  1  3  1  0  0  0
  3  4  2  0  0  0
  4  5  1  0  0  0
  5  6  2  0  0  0
  6  7  1  0  0  0
  7  8  1  0  0  0
  7  9  1  0  0  0
  9 10  2  0  0  0
  9 11  1  0  0  0
 11 12  1  0  0  0
 11 13  1  0  0  0
 13 16  1  0  0  0
 16 17  1  0  0  0
 17 18  1  0  0  0
 18 19  1  0  0  0
 19 20  1  0  0  0
 13 14  1  0  0  0
 14 15  2  0  0  0
 23 27  1  0  0  0
 27 28  2  0  0  0
 27 29  1  0  0  0
 29 30  1  0  0  0
 30 31  1  0  0  0
 31 32  1  0  0  0
 32 33  1  0  0  0
 32 34  1  0  0  0
 34 35  1  0  0  0
 26 21  1  0  0  0
 15  3  1  0  0  0
 35 29  1  0  0  0
 14  6  1  0  0  0
 20 16  1  0  0  0
  1  2  1  0  0  0
M  END
> <minimizedAffinity>
51.89448

> <CNNscore>
0.2804641426

> <CNNaffinity>
6.4404144287

> <CNN_VS>
1.8063052893

> <CNNaffinity_variance>
0.1930868179

$$$$
[H]c1nc(N([H])c2c([H])c([H])c(C(=O)N3C([H])([H])C([H])([H])N(C([H])([H])[H])C([H])([H])C3([H])[H])c([H])c2OC([H])([H])[H])nc2c1N(C([H])([H])[H])C(=O)[C@@]([H])(C([H])([H])[H])N2C1([H])C([H])([H])C([H])([H])C([H])([H])C1([H])[H]


 37 41  0  0  0  0  0  0  0  0999 V2000
   24.5599    8.8174   52.5540 N   0  0  0  0  0  0  0  0  0  0  0  0
   24.9157    9.1645   51.6062 H   0  0  0  0  0  0  0  0  0  0  0  0
   23.2046    8.4452   52.5676 C   0  0  0  0  0  0  0  0  0  0  0  0
   22.2232    9.1591   52.0077 N   0  0  0  0  0  0  0  0  0  0  0  0
   20.9202    8.8458   51.9960 C   0  0  0  0  0  0  0  0  0  0  0  0
   20.6003    7.6552   52.6396 C   0  0  0  0  0  0  0  0  0  0  0  0
   19.2671    7.1875   52.7100 N   0  0  0  0  0  0  0  0  0  0  0  0
   18.1530    7.9117   52.1193 C   0  0  0  0  0  0  0  0  0  0  0  0
   19.0314    5.9449   53.3941 C   0  0  0  0  0  0  0  0  0  0  0  0
   17.9318    5.6914   53.8995 O   0  0  0  0  0  0  0  0  0  0  0  0
   20.1411    4.9344   53.4966 C   0  0  0  0  0  0  0  0  0  0  0  0
   20.3660    4.4212   52.0712 C   0  0  0  0  0  0  0  0  0  0  0  0
   21.3236    5.6686   53.9096 N   0  0  0  0  0  0  0  0  0  0  0  0
   21.5964    6.9048   53.2239 C   0  0  0  0  0  0  0  0  0  0  0  0
   22.8743    7.2655   53.2040 N   0  0  0  0  0  0  0  0  0  0  0  0
   22.1002    5.1094   54.9499 C   0  0  0  0  0  0  0  0  0  0  0  0
   23.5238    4.8347   54.7182 C   0  0  0  0  0  0  0  0  0  0  0  0
   23.9949    4.4611   56.1370 C   0  0  0  0  0  0  0  0  0  0  0  0
   23.0783    5.2188   57.0757 C   0  0  0  0  0  0  0  0  0  0  0  0
   22.1551    6.0246   56.1855 C   0  0  0  0  0  0  0  0  0  0  0  0
   25.0232    8.9509   54.9151 C   0  0  0  0  0  0  0  0  0  0  0  0
   25.8915    8.9424   55.9601 C   0  0  0  0  0  0  0  0  0  0  0  0
   27.2848    8.7815   55.8046 C   0  0  0  0  0  0  0  0  0  0  0  0
   27.7359    8.6304   54.5231 C   0  0  0  0  0  0  0  0  0  0  0  0
   26.8363    8.6407   53.4577 C   0  0  0  0  0  0  0  0  0  0  0  0
   25.4905    8.7951   53.5977 C   0  0  0  0  0  0  0  0  0  0  0  0
   28.1124    8.7783   56.9782 C   0  0  0  0  0  0  0  0  0  0  0  0
   28.9439    7.7764   57.0781 O   0  0  0  0  0  0  0  0  0  0  0  0
   28.1829    9.6663   58.0393 N   0  0  0  0  0  0  0  0  0  0  0  0
   27.4430   10.8689   58.3052 C   0  0  0  0  0  0  0  0  0  0  0  0
   27.7992   11.3758   59.7033 C   0  0  0  0  0  0  0  0  0  0  0  0
   29.2058   11.6680   59.8453 N   0  0  0  0  0  0  0  0  0  0  0  0
   29.5041   11.6482   61.2819 C   0  0  0  0  0  0  0  0  0  0  0  0
   30.0208   10.6207   59.2417 C   0  0  0  0  0  0  0  0  0  0  0  0
   29.1890    9.3723   59.1196 C   0  0  0  0  0  0  0  0  0  0  0  0
   23.0944   10.3998   55.1984 C   0  0  0  0  0  0  0  0  0  0  0  0
   23.6500    9.1133   55.1203 O   0  0  0  0  0  0  0  0  0  0  0  0
 36 37  1  0  0  0
 37 21  1  0  0  0
 21 22  2  0  0  0
 22 23  1  0  0  0
 23 24  2  0  0  0
 24 25  1  0  0  0
 25 26  2  0  0  0
 26  1  1  0  0  0
  1  3  1  0  0  0
  3  4  2  0  0  0
  4  5  1  0  0  0
  5  6  2  0  0  0
  6  7  1  0  0  0
  7  8  1  0  0  0
  7  9  1  0  0  0
  9 10  2  0  0  0
  9 11  1  0  0  0
 11 12  1  0  0  0
 11 13  1  0  0  0
 13 16  1  0  0  0
 16 17  1  0  0  0
 17 18  1  0  0  0
 18 19  1  0  0  0
 19 20  1  0  0  0
 13 14  1  0  0  0
 14 15  2  0  0  0
 23 27  1  0  0  0
 27 28  2  0  0  0
 27 29  1  0  0  0
 29 30  1  0  0  0
 30 31  1  0  0  0
 31 32  1  0  0  0
 32 33  1  0  0  0
 32 34  1  0  0  0
 34 35  1  0  0  0
 26 21  1  0  0  0
 15  3  1  0  0  0
 35 29  1  0  0  0
 14  6  1  0  0  0
 20 16  1  0  0  0
  1  2  1  0  0  0
M  END
> <minimizedAffinity>
49.15606

> <CNNscore>
0.2705866396

> <CNNaffinity>
6.0510125160

> <CNN_VS>
1.6373231411

> <CNNaffinity_variance>
1.0171064138

$$$$
[H]c1nc(N([H])c2c([H])c([H])c(C(=O)N3C([H])([H])C([H])([H])N(C([H])([H])[H])C([H])([H])C3([H])[H])c([H])c2OC([H])([H])[H])nc2c1N(C([H])([H])[H])C(=O)[C@@]([H])(C([H])([H])[H])N2C1([H])C([H])([H])C([H])([H])C([H])([H])C1([H])[H]


 37 41  0  0  0  0  0  0  0  0999 V2000
   26.5187    8.5224   54.5614 N   0  0  0  0  0  0  0  0  0  0  0  0
   27.1117    7.8762   55.1746 H   0  0  0  0  0  0  0  0  0  0  0  0
   25.3290    8.9677   55.1630 C   0  0  0  0  0  0  0  0  0  0  0  0
   25.2478    9.4361   56.4121 N   0  0  0  0  0  0  0  0  0  0  0  0
   24.1389    9.8699   57.0273 C   0  0  0  0  0  0  0  0  0  0  0  0
   22.9825    9.8101   56.2569 C   0  0  0  0  0  0  0  0  0  0  0  0
   21.7325   10.2348   56.7650 N   0  0  0  0  0  0  0  0  0  0  0  0
   21.5740   10.7582   58.1124 C   0  0  0  0  0  0  0  0  0  0  0  0
   20.5915   10.1381   55.8954 C   0  0  0  0  0  0  0  0  0  0  0  0
   19.4465   10.0375   56.3512 O   0  0  0  0  0  0  0  0  0  0  0  0
   20.7929   10.1605   54.4048 C   0  0  0  0  0  0  0  0  0  0  0  0
   21.2678   11.5782   54.0729 C   0  0  0  0  0  0  0  0  0  0  0  0
   21.8791    9.2382   54.1266 N   0  0  0  0  0  0  0  0  0  0  0  0
   23.0441    9.3299   54.9675 C   0  0  0  0  0  0  0  0  0  0  0  0
   24.1742    8.9127   54.4085 N   0  0  0  0  0  0  0  0  0  0  0  0
   21.6971    8.3292   53.0596 C   0  0  0  0  0  0  0  0  0  0  0  0
   20.8302    7.1596   53.2497 C   0  0  0  0  0  0  0  0  0  0  0  0
   20.7527    6.6037   51.8145 C   0  0  0  0  0  0  0  0  0  0  0  0
   20.9283    7.8059   50.9095 C   0  0  0  0  0  0  0  0  0  0  0  0
   21.0537    8.9997   51.8333 C   0  0  0  0  0  0  0  0  0  0  0  0
   28.1939    9.5784   53.1881 C   0  0  0  0  0  0  0  0  0  0  0  0
   28.7158    9.8850   51.9716 C   0  0  0  0  0  0  0  0  0  0  0  0
   28.1372    9.4641   50.7553 C   0  0  0  0  0  0  0  0  0  0  0  0
   26.9987    8.7143   50.8557 C   0  0  0  0  0  0  0  0  0  0  0  0
   26.4714    8.4054   52.1091 C   0  0  0  0  0  0  0  0  0  0  0  0
   27.0223    8.8067   53.2880 C   0  0  0  0  0  0  0  0  0  0  0  0
   28.7762    9.8365   49.5243 C   0  0  0  0  0  0  0  0  0  0  0  0
   29.7715   10.6741   49.6374 O   0  0  0  0  0  0  0  0  0  0  0  0
   28.5162    9.4562   48.2177 N   0  0  0  0  0  0  0  0  0  0  0  0
   27.5178    8.5740   47.6797 C   0  0  0  0  0  0  0  0  0  0  0  0
   27.5650    8.6382   46.1525 C   0  0  0  0  0  0  0  0  0  0  0  0
   28.8492    8.2478   45.6208 N   0  0  0  0  0  0  0  0  0  0  0  0
   28.9419    8.8114   44.2691 C   0  0  0  0  0  0  0  0  0  0  0  0
   29.9359    8.8424   46.3895 C   0  0  0  0  0  0  0  0  0  0  0  0
   29.4002   10.0301   47.1430 C   0  0  0  0  0  0  0  0  0  0  0  0
   30.0343   10.6932   54.3151 C   0  0  0  0  0  0  0  0  0  0  0  0
   28.8044   10.0188   54.3660 O   0  0  0  0  0  0  0  0  0  0  0  0
 36 37  1  0  0  0
 37 21  1  0  0  0
 21 22  2  0  0  0
 22 23  1  0  0  0
 23 24  2  0  0  0
 24 25  1  0  0  0
 25 26  2  0  0  0
 26  1  1  0  0  0
  1  3  1  0  0  0
  3  4  2  0  0  0
  4  5  1  0  0  0
  5  6  2  0  0  0
  6  7  1  0  0  0
  7  8  1  0  0  0
  7  9  1  0  0  0
  9 10  2  0  0  0
  9 11  1  0  0  0
 11 12  1  0  0  0
 11 13  1  0  0  0
 13 16  1  0  0  0
 16 17  1  0  0  0
 17 18  1  0  0  0
 18 19  1  0  0  0
 19 20  1  0  0  0
 13 14  1  0  0  0
 14 15  2  0  0  0
 23 27  1  0  0  0
 27 28  2  0  0  0
 27 29  1  0  0  0
 29 30  1  0  0  0
 30 31  1  0  0  0
 31 32  1  0  0  0
 32 33  1  0  0  0
 32 34  1  0  0  0
 34 35  1  0  0  0
 26 21  1  0  0  0
 15  3  1  0  0  0
 35 29  1  0  0  0
 14  6  1  0  0  0
 20 16  1  0  0  0
  1  2  1  0  0  0
M  END
> <minimizedAffinity>
67.31361

> <CNNscore>
0.2426894009

> <CNNaffinity>
5.8719043732

> <CNN_VS>
1.4250489473

> <CNNaffinity_variance>
0.8341543078

$$$$
[H]c1nc(N([H])c2c([H])c([H])c(C(=O)N3C([H])([H])C([H])([H])N(C([H])([H])[H])C([H])([H])C3([H])[H])c([H])c2OC([H])([H])[H])nc2c1N(C([H])([H])[H])C(=O)[C@@]([H])(C([H])([H])[H])N2C1([H])C([H])([H])C([H])([H])C([H])([H])C1([H])[H]


 37 41  0  0  0  0  0  0  0  0999 V2000
   21.6566    7.0341   52.0249 N   0  0  0  0  0  0  0  0  0  0  0  0
   21.6035    7.2186   50.9720 H   0  0  0  0  0  0  0  0  0  0  0  0
   20.4411    6.6387   52.6098 C   0  0  0  0  0  0  0  0  0  0  0  0
   19.4867    7.4862   53.0060 N   0  0  0  0  0  0  0  0  0  0  0  0
   18.3153    7.1569   53.5678 C   0  0  0  0  0  0  0  0  0  0  0  0
   18.1125    5.7916   53.7375 C   0  0  0  0  0  0  0  0  0  0  0  0
   16.9237    5.2864   54.3142 N   0  0  0  0  0  0  0  0  0  0  0  0
   15.8442    6.1513   54.7627 C   0  0  0  0  0  0  0  0  0  0  0  0
   16.8011    3.8601   54.4480 C   0  0  0  0  0  0  0  0  0  0  0  0
   16.0691    3.3588   55.3093 O   0  0  0  0  0  0  0  0  0  0  0  0
   17.5758    2.9606   53.5239 C   0  0  0  0  0  0  0  0  0  0  0  0
   16.9545    3.1577   52.1380 C   0  0  0  0  0  0  0  0  0  0  0  0
   18.9320    3.4782   53.4942 N   0  0  0  0  0  0  0  0  0  0  0  0
   19.0838    4.9012   53.3368 C   0  0  0  0  0  0  0  0  0  0  0  0
   20.2284    5.2859   52.7840 N   0  0  0  0  0  0  0  0  0  0  0  0
   19.9832    2.5425   53.6266 C   0  0  0  0  0  0  0  0  0  0  0  0
   19.7885    1.3546   54.4670 C   0  0  0  0  0  0  0  0  0  0  0  0
   21.0581    0.5433   54.1435 C   0  0  0  0  0  0  0  0  0  0  0  0
   21.4363    0.9383   52.7306 C   0  0  0  0  0  0  0  0  0  0  0  0
   20.3680    1.9116   52.2771 C   0  0  0  0  0  0  0  0  0  0  0  0
   23.3172    8.5254   52.9337 C   0  0  0  0  0  0  0  0  0  0  0  0
   24.5257    8.7506   53.5124 C   0  0  0  0  0  0  0  0  0  0  0  0
   25.4301    7.7173   53.8376 C   0  0  0  0  0  0  0  0  0  0  0  0
   25.0277    6.4459   53.5377 C   0  0  0  0  0  0  0  0  0  0  0  0
   23.7854    6.2258   52.9438 C   0  0  0  0  0  0  0  0  0  0  0  0
   22.9060    7.2160   52.6264 C   0  0  0  0  0  0  0  0  0  0  0  0
   26.6786    8.0652   54.4562 C   0  0  0  0  0  0  0  0  0  0  0  0
   27.7502    7.7230   53.7929 O   0  0  0  0  0  0  0  0  0  0  0  0
   26.9483    8.7100   55.6523 N   0  0  0  0  0  0  0  0  0  0  0  0
   26.0622    9.2279   56.6579 C   0  0  0  0  0  0  0  0  0  0  0  0
   26.8868    9.6925   57.8591 C   0  0  0  0  0  0  0  0  0  0  0  0
   27.8349   10.7252   57.5145 N   0  0  0  0  0  0  0  0  0  0  0  0
   28.8655   10.7258   58.5590 C   0  0  0  0  0  0  0  0  0  0  0  0
   28.5167   10.4129   56.2644 C   0  0  0  0  0  0  0  0  0  0  0  0
   28.3943    8.9355   56.0041 C   0  0  0  0  0  0  0  0  0  0  0  0
   21.6524   10.1501   53.6328 C   0  0  0  0  0  0  0  0  0  0  0  0
   22.4550    9.5831   52.6306 O   0  0  0  0  0  0  0  0  0  0  0  0
 36 37  1  0  0  0
 37 21  1  0  0  0
 21 22  2  0  0  0
 22 23  1  0  0  0
 23 24  2  0  0  0
 24 25  1  0  0  0
 25 26  2  0  0  0
 26  1  1  0  0  0
  1  3  1  0  0  0
  3  4  2  0  0  0
  4  5  1  0  0  0
  5  6  2  0  0  0
  6  7  1  0  0  0
  7  8  1  0  0  0
  7  9  1  0  0  0
  9 10  2  0  0  0
  9 11  1  0  0  0
 11 12  1  0  0  0
 11 13  1  0  0  0
 13 16  1  0  0  0
 16 17  1  0  0  0
 17 18  1  0  0  0
 18 19  1  0  0  0
 19 20  1  0  0  0
 13 14  1  0  0  0
 14 15  2  0  0  0
 23 27  1  0  0  0
 27 28  2  0  0  0
 27 29  1  0  0  0
 29 30  1  0  0  0
 30 31  1  0  0  0
 31 32  1  0  0  0
 32 33  1  0  0  0
 32 34  1  0  0  0
 34 35  1  0  0  0
 26 21  1  0  0  0
 15  3  1  0  0  0
 35 29  1  0  0  0
 14  6  1  0  0  0
 20 16  1  0  0  0
  1  2  1  0  0  0
M  END
> <minimizedAffinity>
56.30009

> <CNNscore>
0.2331074029

> <CNNaffinity>
6.3100018501

> <CNN_VS>
1.4709081650

> <CNNaffinity_variance>
0.5174157023

$$$$
[H]c1nc(N([H])c2c([H])c([H])c(C(=O)N3C([H])([H])C([H])([H])N(C([H])([H])[H])C([H])([H])C3([H])[H])c([H])c2OC([H])([H])[H])nc2c1N(C([H])([H])[H])C(=O)[C@@]([H])(C([H])([H])[H])N2C1([H])C([H])([H])C([H])([H])C([H])([H])C1([H])[H]


 37 41  0  0  0  0  0  0  0  0999 V2000
   23.9351    9.7789   54.0842 N   0  0  0  0  0  0  0  0  0  0  0  0
   23.8239   10.4629   53.2686 H   0  0  0  0  0  0  0  0  0  0  0  0
   24.8270   10.2036   55.0842 C   0  0  0  0  0  0  0  0  0  0  0  0
   24.6876   11.3325   55.7859 N   0  0  0  0  0  0  0  0  0  0  0  0
   25.5102   11.7779   56.7456 C   0  0  0  0  0  0  0  0  0  0  0  0
   26.6022   10.9569   57.0059 C   0  0  0  0  0  0  0  0  0  0  0  0
   27.5591   11.2897   57.9932 N   0  0  0  0  0  0  0  0  0  0  0  0
   27.4660   12.4993   58.7950 C   0  0  0  0  0  0  0  0  0  0  0  0
   28.6539   10.3796   58.1945 C   0  0  0  0  0  0  0  0  0  0  0  0
   29.7314   10.7680   58.6602 O   0  0  0  0  0  0  0  0  0  0  0  0
   28.4863    8.9288   57.8334 C   0  0  0  0  0  0  0  0  0  0  0  0
   27.4772    8.3663   58.8388 C   0  0  0  0  0  0  0  0  0  0  0  0
   27.8791    8.9048   56.5148 N   0  0  0  0  0  0  0  0  0  0  0  0
   26.7649    9.7894   56.2936 C   0  0  0  0  0  0  0  0  0  0  0  0
   25.9152    9.3972   55.3514 N   0  0  0  0  0  0  0  0  0  0  0  0
   28.4361    8.0202   55.5634 C   0  0  0  0  0  0  0  0  0  0  0  0
   27.6385    7.6215   54.3970 C   0  0  0  0  0  0  0  0  0  0  0  0
   28.6872    6.8676   53.5565 C   0  0  0  0  0  0  0  0  0  0  0  0
   30.0168    7.4992   53.9149 C   0  0  0  0  0  0  0  0  0  0  0  0
   29.6935    8.6057   54.8974 C   0  0  0  0  0  0  0  0  0  0  0  0
   21.9925    8.6082   53.2701 C   0  0  0  0  0  0  0  0  0  0  0  0
   21.2288    7.4880   53.1796 C   0  0  0  0  0  0  0  0  0  0  0  0
   21.5673    6.2705   53.8076 C   0  0  0  0  0  0  0  0  0  0  0  0
   22.7276    6.2658   54.5301 C   0  0  0  0  0  0  0  0  0  0  0  0
   23.5040    7.4209   54.6165 C   0  0  0  0  0  0  0  0  0  0  0  0
   23.1859    8.6001   54.0143 C   0  0  0  0  0  0  0  0  0  0  0  0
   20.6933    5.1433   53.6396 C   0  0  0  0  0  0  0  0  0  0  0  0
   21.2849    3.9994   53.4232 O   0  0  0  0  0  0  0  0  0  0  0  0
   19.3109    5.0571   53.6670 N   0  0  0  0  0  0  0  0  0  0  0  0
   18.3127    6.0715   53.8643 C   0  0  0  0  0  0  0  0  0  0  0  0
   16.9292    5.4631   53.6315 C   0  0  0  0  0  0  0  0  0  0  0  0
   16.6469    4.3683   54.5292 N   0  0  0  0  0  0  0  0  0  0  0  0
   15.5791    3.5732   53.9120 C   0  0  0  0  0  0  0  0  0  0  0  0
   17.7989    3.4836   54.6533 C   0  0  0  0  0  0  0  0  0  0  0  0
   18.7002    3.6960   53.4667 C   0  0  0  0  0  0  0  0  0  0  0  0
   21.4329   10.9697   53.3700 C   0  0  0  0  0  0  0  0  0  0  0  0
   21.6148    9.7916   52.6290 O   0  0  0  0  0  0  0  0  0  0  0  0
 36 37  1  0  0  0
 37 21  1  0  0  0
 21 22  2  0  0  0
 22 23  1  0  0  0
 23 24  2  0  0  0
 24 25  1  0  0  0
 25 26  2  0  0  0
 26  1  1  0  0  0
  1  3  1  0  0  0
  3  4  2  0  0  0
  4  5  1  0  0  0
  5  6  2  0  0  0
  6  7  1  0  0  0
  7  8  1  0  0  0
  7  9  1  0  0  0
  9 10  2  0  0  0
  9 11  1  0  0  0
 11 12  1  0  0  0
 11 13  1  0  0  0
 13 16  1  0  0  0
 16 17  1  0  0  0
 17 18  1  0  0  0
 18 19  1  0  0  0
 19 20  1  0  0  0
 13 14  1  0  0  0
 14 15  2  0  0  0
 23 27  1  0  0  0
 27 28  2  0  0  0
 27 29  1  0  0  0
 29 30  1  0  0  0
 30 31  1  0  0  0
 31 32  1  0  0  0
 32 33  1  0  0  0
 32 34  1  0  0  0
 34 35  1  0  0  0
 26 21  1  0  0  0
 15  3  1  0  0  0
 35 29  1  0  0  0
 14  6  1  0  0  0
 20 16  1  0  0  0
  1  2  1  0  0  0
M  END
> <minimizedAffinity>
57.45989

> <CNNscore>
0.2304446101

> <CNNaffinity>
6.0825433731

> <CNN_VS>
1.4016892910

> <CNNaffinity_variance>
1.0644266605

$$$$
[H]c1c([H])c([H])c2c(c1[H])c(C(=O)OC1([H])C([H])([H])C3([H])N(C([H])([H])[H])C([H])(C([H])([H])C3([H])[H])C1([H])[H])c([H])n2C([H])([H])[H]


 22 25  0  0  0  0  0  0  0  0999 V2000
   23.6273    9.5503   55.9276 C   0  0  0  0  0  0  0  0  0  0  0  0
   23.1543   10.6698   55.6037 O   0  0  0  0  0  0  0  0  0  0  0  0
   25.0750    9.3893   56.0319 C   0  0  0  0  0  0  0  0  0  0  0  0
   25.8569    9.7011   57.1245 C   0  0  0  0  0  0  0  0  0  0  0  0
   27.1384    9.4246   56.8683 N   0  0  0  0  0  0  0  0  0  0  0  0
   28.2276    9.6317   57.7999 C   0  0  0  0  0  0  0  0  0  0  0  0
   27.2450    8.9258   55.6106 C   0  0  0  0  0  0  0  0  0  0  0  0
   28.3112    8.4862   54.8532 C   0  0  0  0  0  0  0  0  0  0  0  0
   28.1447    8.0146   53.5673 C   0  0  0  0  0  0  0  0  0  0  0  0
   26.8684    7.9911   53.0455 C   0  0  0  0  0  0  0  0  0  0  0  0
   25.7969    8.4374   53.8185 C   0  0  0  0  0  0  0  0  0  0  0  0
   25.9557    8.9039   55.0883 C   0  0  0  0  0  0  0  0  0  0  0  0
   22.7490    8.5311   56.1676 O   0  0  0  0  0  0  0  0  0  0  0  0
   19.9603    7.0697   51.7185 C   0  0  0  0  0  0  0  0  0  0  0  0
   20.6002    7.4055   52.9493 N   0  0  0  0  0  0  0  0  0  0  0  0
   22.0369    7.2145   52.8705 C   0  0  0  0  0  0  0  0  0  0  0  0
   22.6047    8.4536   52.2190 C   0  0  0  0  0  0  0  0  0  0  0  0
   21.4003    9.3877   52.1084 C   0  0  0  0  0  0  0  0  0  0  0  0
   20.5167    8.8321   53.2107 C   0  0  0  0  0  0  0  0  0  0  0  0
   21.1374    9.1881   54.5285 C   0  0  0  0  0  0  0  0  0  0  0  0
   21.8080    8.0476   55.2247 C   0  0  0  0  0  0  0  0  0  0  0  0
   22.5083    7.0875   54.3208 C   0  0  0  0  0  0  0  0  0  0  0  0
 14 15  1  0  0  0
 15 16  1  0  0  0
 16 17  1  0  0  0
 17 18  1  0  0  0
 18 19  1  0  0  0
 19 20  1  0  0  0
 20 21  1  0  0  0
 21 22  1  0  0  0
 21 13  1  0  0  0
 13  1  1  0  0  0
  1  2  2  0  0  0
  1  3  1  0  0  0
  3  4  2  0  0  0
  4  5  1  0  0  0
  5  6  1  0  0  0
  5  7  1  0  0  0
  7  8  2  0  0  0
  8  9  1  0  0  0
  9 10  2  0  0  0
 10 11  1  0  0  0
 11 12  2  0  0  0
 19 15  1  0  0  0
 12  3  1  0  0  0
 22 16  1  0  0  0
 12  7  1  0  0  0
M  END
> <minimizedAffinity>
10.07426

> <CNNscore>
0.7722304463

> <CNNaffinity>
5.7472548485

> <CNN_VS>
4.4382052422

> <CNNaffinity_variance>
0.4923517704

$$$$
[H]c1c([H])c([H])c2c(c1[H])c(C(=O)OC1([H])C([H])([H])C3([H])N(C([H])([H])[H])C([H])(C([H])([H])C3([H])[H])C1([H])[H])c([H])n2C([H])([H])[H]


 22 25  0  0  0  0  0  0  0  0999 V2000
   24.8532    7.2498   53.4895 C   0  0  0  0  0  0  0  0  0  0  0  0
   25.0119    6.0035   53.4295 O   0  0  0  0  0  0  0  0  0  0  0  0
   23.5206    7.8112   53.2854 C   0  0  0  0  0  0  0  0  0  0  0  0
   22.6578    7.5166   52.2505 C   0  0  0  0  0  0  0  0  0  0  0  0
   21.5263    8.2145   52.3808 N   0  0  0  0  0  0  0  0  0  0  0  0
   20.4058    8.1447   51.4659 C   0  0  0  0  0  0  0  0  0  0  0  0
   21.6028    8.9856   53.4950 C   0  0  0  0  0  0  0  0  0  0  0  0
   20.7366    9.8802   54.0891 C   0  0  0  0  0  0  0  0  0  0  0  0
   21.0657   10.5504   55.2494 C   0  0  0  0  0  0  0  0  0  0  0  0
   22.2999   10.3034   55.8129 C   0  0  0  0  0  0  0  0  0  0  0  0
   23.1689    9.3976   55.2052 C   0  0  0  0  0  0  0  0  0  0  0  0
   22.8490    8.7334   54.0599 C   0  0  0  0  0  0  0  0  0  0  0  0
   25.9516    8.0218   53.7457 O   0  0  0  0  0  0  0  0  0  0  0  0
   28.5618    9.1832   58.3874 C   0  0  0  0  0  0  0  0  0  0  0  0
   27.9013    8.7622   57.1942 N   0  0  0  0  0  0  0  0  0  0  0  0
   26.7152    9.5576   56.9347 C   0  0  0  0  0  0  0  0  0  0  0  0
   27.1809   10.8211   56.2499 C   0  0  0  0  0  0  0  0  0  0  0  0
   28.6697   10.5742   56.0099 C   0  0  0  0  0  0  0  0  0  0  0  0
   28.7039    9.0565   56.0196 C   0  0  0  0  0  0  0  0  0  0  0  0
   28.0441    8.5682   54.7648 C   0  0  0  0  0  0  0  0  0  0  0  0
   26.6734    8.0059   54.9651 C   0  0  0  0  0  0  0  0  0  0  0  0
   25.8544    8.7068   55.9982 C   0  0  0  0  0  0  0  0  0  0  0  0
 14 15  1  0  0  0
 15 16  1  0  0  0
 16 17  1  0  0  0
 17 18  1  0  0  0
 18 19  1  0  0  0
 19 20  1  0  0  0
 20 21  1  0  0  0
 21 22  1  0  0  0
 21 13  1  0  0  0
 13  1  1  0  0  0
  1  2  2  0  0  0
  1  3  1  0  0  0
  3  4  2  0  0  0
  4  5  1  0  0  0
  5  6  1  0  0  0
  5  7  1  0  0  0
  7  8  2  0  0  0
  8  9  1  0  0  0
  9 10  2  0  0  0
 10 11  1  0  0  0
 11 12  2  0  0  0
 19 15  1  0  0  0
 12  3  1  0  0  0
 22 16  1  0  0  0
 12  7  1  0  0  0
M  END
> <minimizedAffinity>
11.15739

> <CNNscore>
0.7430176139

> <CNNaffinity>
5.7217583656

> <CNN_VS>
4.2513670921

> <CNNaffinity_variance>
0.4394197464

$$$$
[H]c1c([H])c([H])c2c(c1[H])c(C(=O)OC1([H])C([H])([H])C3([H])N(C([H])([H])[H])C([H])(C([H])([H])C3([H])[H])C1([H])[H])c([H])n2C([H])([H])[H]


 22 25  0  0  0  0  0  0  0  0999 V2000
   23.6279    8.7997   55.6876 C   0  0  0  0  0  0  0  0  0  0  0  0
   23.2418    9.8622   56.2389 O   0  0  0  0  0  0  0  0  0  0  0  0
   24.9680    8.7402   55.1105 C   0  0  0  0  0  0  0  0  0  0  0  0
   25.2823    8.4582   53.7975 C   0  0  0  0  0  0  0  0  0  0  0  0
   26.6063    8.4895   53.6234 N   0  0  0  0  0  0  0  0  0  0  0  0
   27.2775    8.2390   52.3647 C   0  0  0  0  0  0  0  0  0  0  0  0
   27.2051    8.7904   54.8036 C   0  0  0  0  0  0  0  0  0  0  0  0
   28.5218    8.9478   55.1847 C   0  0  0  0  0  0  0  0  0  0  0  0
   28.8711    9.2618   56.4819 C   0  0  0  0  0  0  0  0  0  0  0  0
   27.8595    9.4179   57.4061 C   0  0  0  0  0  0  0  0  0  0  0  0
   26.5316    9.2569   57.0117 C   0  0  0  0  0  0  0  0  0  0  0  0
   26.1813    8.9469   55.7325 C   0  0  0  0  0  0  0  0  0  0  0  0
   22.7604    7.7439   55.6579 O   0  0  0  0  0  0  0  0  0  0  0  0
   19.7647    7.6301   51.1059 C   0  0  0  0  0  0  0  0  0  0  0  0
   20.4632    7.5922   52.3500 N   0  0  0  0  0  0  0  0  0  0  0  0
   21.8968    7.4813   52.1512 C   0  0  0  0  0  0  0  0  0  0  0  0
   22.4082    8.8783   51.8886 C   0  0  0  0  0  0  0  0  0  0  0  0
   21.1840    9.7617   52.1262 C   0  0  0  0  0  0  0  0  0  0  0  0
   20.3697    8.8661   53.0422 C   0  0  0  0  0  0  0  0  0  0  0  0
   21.0533    8.8200   54.3760 C   0  0  0  0  0  0  0  0  0  0  0  0
   21.7790    7.5432   54.6555 C   0  0  0  0  0  0  0  0  0  0  0  0
   22.4466    6.9304   53.4688 C   0  0  0  0  0  0  0  0  0  0  0  0
 14 15  1  0  0  0
 15 16  1  0  0  0
 16 17  1  0  0  0
 17 18  1  0  0  0
 18 19  1  0  0  0
 19 20  1  0  0  0
 20 21  1  0  0  0
 21 22  1  0  0  0
 21 13  1  0  0  0
 13  1  1  0  0  0
  1  2  2  0  0  0
  1  3  1  0  0  0
  3  4  2  0  0  0
  4  5  1  0  0  0
  5  6  1  0  0  0
  5  7  1  0  0  0
  7  8  2  0  0  0
  8  9  1  0  0  0
  9 10  2  0  0  0
 10 11  1  0  0  0
 11 12  2  0  0  0
 19 15  1  0  0  0
 12  3  1  0  0  0
 22 16  1  0  0  0
 12  7  1  0  0  0
M  END
> <minimizedAffinity>
11.23557

> <CNNscore>
0.7316344976

> <CNNaffinity>
5.7554483414

> <CNN_VS>
4.2108845711

> <CNNaffinity_variance>
0.3055829704

$$$$
[H]c1c([H])c([H])c2c(c1[H])c(C(=O)OC1([H])C([H])([H])C3([H])N(C([H])([H])[H])C([H])(C([H])([H])C3([H])[H])C1([H])[H])c([H])n2C([H])([H])[H]


 22 25  0  0  0  0  0  0  0  0999 V2000
   24.3457    9.1354   55.5912 C   0  0  0  0  0  0  0  0  0  0  0  0
   23.5540   10.0523   55.9296 O   0  0  0  0  0  0  0  0  0  0  0  0
   25.7609    9.2510   55.9329 C   0  0  0  0  0  0  0  0  0  0  0  0
   26.2876    9.8946   57.0332 C   0  0  0  0  0  0  0  0  0  0  0  0
   27.6200    9.8015   57.0277 N   0  0  0  0  0  0  0  0  0  0  0  0
   28.4892   10.3669   58.0388 C   0  0  0  0  0  0  0  0  0  0  0  0
   28.0144    9.1003   55.9346 C   0  0  0  0  0  0  0  0  0  0  0  0
   29.2479    8.7176   55.4490 C   0  0  0  0  0  0  0  0  0  0  0  0
   29.3772    7.9899   54.2840 C   0  0  0  0  0  0  0  0  0  0  0  0
   28.2282    7.6470   53.6028 C   0  0  0  0  0  0  0  0  0  0  0  0
   26.9859    8.0382   54.1013 C   0  0  0  0  0  0  0  0  0  0  0  0
   26.8526    8.7566   55.2508 C   0  0  0  0  0  0  0  0  0  0  0  0
   23.8319    8.0661   54.9127 O   0  0  0  0  0  0  0  0  0  0  0  0
   20.2930    8.2667   50.7722 C   0  0  0  0  0  0  0  0  0  0  0  0
   21.3079    8.2313   51.7751 N   0  0  0  0  0  0  0  0  0  0  0  0
   20.8740    8.8903   52.9935 C   0  0  0  0  0  0  0  0  0  0  0  0
   20.0548    7.8821   53.7645 C   0  0  0  0  0  0  0  0  0  0  0  0
   20.2194    6.5926   52.9611 C   0  0  0  0  0  0  0  0  0  0  0  0
   21.5295    6.8757   52.2483 C   0  0  0  0  0  0  0  0  0  0  0  0
   22.6326    6.8195   53.2624 C   0  0  0  0  0  0  0  0  0  0  0  0
   23.1771    8.1542   53.6589 C   0  0  0  0  0  0  0  0  0  0  0  0
   22.1609    9.2449   53.7420 C   0  0  0  0  0  0  0  0  0  0  0  0
 14 15  1  0  0  0
 15 16  1  0  0  0
 16 17  1  0  0  0
 17 18  1  0  0  0
 18 19  1  0  0  0
 19 20  1  0  0  0
 20 21  1  0  0  0
 21 22  1  0  0  0
 21 13  1  0  0  0
 13  1  1  0  0  0
  1  2  2  0  0  0
  1  3  1  0  0  0
  3  4  2  0  0  0
  4  5  1  0  0  0
  5  6  1  0  0  0
  5  7  1  0  0  0
  7  8  2  0  0  0
  8  9  1  0  0  0
  9 10  2  0  0  0
 10 11  1  0  0  0
 11 12  2  0  0  0
 19 15  1  0  0  0
 12  3  1  0  0  0
 22 16  1  0  0  0
 12  7  1  0  0  0
M  END
> <minimizedAffinity>
11.17550

> <CNNscore>
0.6982371211

> <CNNaffinity>
5.5038475990

> <CNN_VS>
3.8429906368

> <CNNaffinity_variance>
0.4133347571

$$$$
[H]c1c([H])c([H])c2c(c1[H])c(C(=O)OC1([H])C([H])([H])C3([H])N(C([H])([H])[H])C([H])(C([H])([H])C3([H])[H])C1([H])[H])c([H])n2C([H])([H])[H]


 22 25  0  0  0  0  0  0  0  0999 V2000
   23.8589    9.7599   55.2509 C   0  0  0  0  0  0  0  0  0  0  0  0
   23.3800    9.8746   56.4083 O   0  0  0  0  0  0  0  0  0  0  0  0
   25.2071    9.2235   55.0854 C   0  0  0  0  0  0  0  0  0  0  0  0
   25.6613    8.4619   54.0290 C   0  0  0  0  0  0  0  0  0  0  0  0
   26.9467    8.1458   54.2076 N   0  0  0  0  0  0  0  0  0  0  0  0
   27.7355    7.3537   53.2868 C   0  0  0  0  0  0  0  0  0  0  0  0
   27.3806    8.6826   55.3762 C   0  0  0  0  0  0  0  0  0  0  0  0
   28.5940    8.6674   56.0327 C   0  0  0  0  0  0  0  0  0  0  0  0
   28.7757    9.3092   57.2405 C   0  0  0  0  0  0  0  0  0  0  0  0
   27.7008    9.9778   57.7876 C   0  0  0  0  0  0  0  0  0  0  0  0
   26.4782    9.9876   57.1168 C   0  0  0  0  0  0  0  0  0  0  0  0
   26.2934    9.3558   55.9243 C   0  0  0  0  0  0  0  0  0  0  0  0
   23.0812   10.1488   54.1965 O   0  0  0  0  0  0  0  0  0  0  0  0
   19.4658    6.2974   52.8537 C   0  0  0  0  0  0  0  0  0  0  0  0
   20.3540    7.3801   53.1295 N   0  0  0  0  0  0  0  0  0  0  0  0
   20.7337    7.4121   54.5302 C   0  0  0  0  0  0  0  0  0  0  0  0
   21.8629    6.4226   54.6967 C   0  0  0  0  0  0  0  0  0  0  0  0
   22.1735    5.9847   53.2659 C   0  0  0  0  0  0  0  0  0  0  0  0
   21.6424    7.1765   52.4900 C   0  0  0  0  0  0  0  0  0  0  0  0
   22.5646    8.3347   52.7275 C   0  0  0  0  0  0  0  0  0  0  0  0
   22.0243    9.3759   53.6544 C   0  0  0  0  0  0  0  0  0  0  0  0
   21.2107    8.8432   54.7874 C   0  0  0  0  0  0  0  0  0  0  0  0
 14 15  1  0  0  0
 15 16  1  0  0  0
 16 17  1  0  0  0
 17 18  1  0  0  0
 18 19  1  0  0  0
 19 20  1  0  0  0
 20 21  1  0  0  0
 21 22  1  0  0  0
 21 13  1  0  0  0
 13  1  1  0  0  0
  1  2  2  0  0  0
  1  3  1  0  0  0
  3  4  2  0  0  0
  4  5  1  0  0  0
  5  6  1  0  0  0
  5  7  1  0  0  0
  7  8  2  0  0  0
  8  9  1  0  0  0
  9 10  2  0  0  0
 10 11  1  0  0  0
 11 12  2  0  0  0
 19 15  1  0  0  0
 12  3  1  0  0  0
 22 16  1  0  0  0
 12  7  1  0  0  0
M  END
> <minimizedAffinity>
15.14754

> <CNNscore>
0.6822806001

> <CNNaffinity>
5.4926962852

> <CNN_VS>
3.7475600243

> <CNNaffinity_variance>
0.3065509498

$$$$
[H]c1c([H])c([H])c2c(c1[H])c(C(=O)OC1([H])C([H])([H])C3([H])N(C([H])([H])[H])C([H])(C([H])([H])C3([H])[H])C1([H])[H])c([H])n2C([H])([H])[H]


 22 25  0  0  0  0  0  0  0  0999 V2000
   23.0536    9.6061   55.7242 C   0  0  0  0  0  0  0  0  0  0  0  0
   22.9535    9.5788   56.9777 O   0  0  0  0  0  0  0  0  0  0  0  0
   24.0649    8.7803   55.0700 C   0  0  0  0  0  0  0  0  0  0  0  0
   23.8324    7.7542   54.1782 C   0  0  0  0  0  0  0  0  0  0  0  0
   24.9894    7.2183   53.7801 N   0  0  0  0  0  0  0  0  0  0  0  0
   25.1091    6.1193   52.8446 C   0  0  0  0  0  0  0  0  0  0  0  0
   26.0148    7.8659   54.3893 C   0  0  0  0  0  0  0  0  0  0  0  0
   27.3864    7.7248   54.3409 C   0  0  0  0  0  0  0  0  0  0  0  0
   28.2274    8.5330   55.0780 C   0  0  0  0  0  0  0  0  0  0  0  0
   27.6588    9.5017   55.8782 C   0  0  0  0  0  0  0  0  0  0  0  0
   26.2715    9.6368   55.9207 C   0  0  0  0  0  0  0  0  0  0  0  0
   25.4368    8.8418   55.1951 C   0  0  0  0  0  0  0  0  0  0  0  0
   22.1991   10.4184   55.0328 O   0  0  0  0  0  0  0  0  0  0  0  0
   19.2851    7.6222   51.3726 C   0  0  0  0  0  0  0  0  0  0  0  0
   19.9715    8.4466   52.3140 N   0  0  0  0  0  0  0  0  0  0  0  0
   20.4367    7.6775   53.4538 C   0  0  0  0  0  0  0  0  0  0  0  0
   21.7405    7.0356   53.0415 C   0  0  0  0  0  0  0  0  0  0  0  0
   22.0256    7.6456   51.6696 C   0  0  0  0  0  0  0  0  0  0  0  0
   21.2266    8.9327   51.7673 C   0  0  0  0  0  0  0  0  0  0  0  0
   21.9295    9.8449   52.7276 C   0  0  0  0  0  0  0  0  0  0  0  0
   21.2704    9.9625   54.0643 C   0  0  0  0  0  0  0  0  0  0  0  0
   20.6536    8.7007   54.5709 C   0  0  0  0  0  0  0  0  0  0  0  0
 14 15  1  0  0  0
 15 16  1  0  0  0
 16 17  1  0  0  0
 17 18  1  0  0  0
 18 19  1  0  0  0
 19 20  1  0  0  0
 20 21  1  0  0  0
 21 22  1  0  0  0
 21 13  1  0  0  0
 13  1  1  0  0  0
  1  2  2  0  0  0
  1  3  1  0  0  0
  3  4  2  0  0  0
  4  5  1  0  0  0
  5  6  1  0  0  0
  5  7  1  0  0  0
  7  8  2  0  0  0
  8  9  1  0  0  0
  9 10  2  0  0  0
 10 11  1  0  0  0
 11 12  2  0  0  0
 19 15  1  0  0  0
 12  3  1  0  0  0
 22 16  1  0  0  0
 12  7  1  0  0  0
M  END
> <minimizedAffinity>
9.00096

> <CNNscore>
0.6732454300

> <CNNaffinity>
5.8305721283

> <CNN_VS>
3.9254059792

> <CNNaffinity_variance>
0.3807986677

$$$$
[H]c1c([H])c([H])c2c(c1[H])c(C(=O)OC1([H])C([H])([H])C3([H])N(C([H])([H])[H])C([H])(C([H])([H])C3([H])[H])C1([H])[H])c([H])n2C([H])([H])[H]


 22 25  0  0  0  0  0  0  0  0999 V2000
   24.7768    7.0057   54.5487 C   0  0  0  0  0  0  0  0  0  0  0  0
   24.5966    6.0958   55.3981 O   0  0  0  0  0  0  0  0  0  0  0  0
   23.6223    7.5906   53.8722 C   0  0  0  0  0  0  0  0  0  0  0  0
   23.0933    7.1916   52.6625 C   0  0  0  0  0  0  0  0  0  0  0  0
   22.0396    7.9496   52.3476 N   0  0  0  0  0  0  0  0  0  0  0  0
   21.2488    7.8011   51.1434 C   0  0  0  0  0  0  0  0  0  0  0  0
   21.8390    8.8656   53.3288 C   0  0  0  0  0  0  0  0  0  0  0  0
   20.9126    9.8719   53.5102 C   0  0  0  0  0  0  0  0  0  0  0  0
   20.9291   10.6834   54.6259 C   0  0  0  0  0  0  0  0  0  0  0  0
   21.9077   10.4643   55.5726 C   0  0  0  0  0  0  0  0  0  0  0  0
   22.8398    9.4449   55.3806 C   0  0  0  0  0  0  0  0  0  0  0  0
   22.8280    8.6410   54.2811 C   0  0  0  0  0  0  0  0  0  0  0  0
   26.0609    7.4031   54.3012 O   0  0  0  0  0  0  0  0  0  0  0  0
   28.6632   11.2909   57.0978 C   0  0  0  0  0  0  0  0  0  0  0  0
   27.9542   10.3575   56.2834 N   0  0  0  0  0  0  0  0  0  0  0  0
   28.6116    9.0635   56.2629 C   0  0  0  0  0  0  0  0  0  0  0  0
   28.1718    8.3333   57.5101 C   0  0  0  0  0  0  0  0  0  0  0  0
   27.1087    9.2521   58.1108 C   0  0  0  0  0  0  0  0  0  0  0  0
   26.6715   10.0157   56.8738 C   0  0  0  0  0  0  0  0  0  0  0  0
   25.8944    9.0783   55.9987 C   0  0  0  0  0  0  0  0  0  0  0  0
   26.6349    8.6030   54.7901 C   0  0  0  0  0  0  0  0  0  0  0  0
   28.0936    8.3664   55.0030 C   0  0  0  0  0  0  0  0  0  0  0  0
 14 15  1  0  0  0
 15 16  1  0  0  0
 16 17  1  0  0  0
 17 18  1  0  0  0
 18 19  1  0  0  0
 19 20  1  0  0  0
 20 21  1  0  0  0
 21 22  1  0  0  0
 21 13  1  0  0  0
 13  1  1  0  0  0
  1  2  2  0  0  0
  1  3  1  0  0  0
  3  4  2  0  0  0
  4  5  1  0  0  0
  5  6  1  0  0  0
  5  7  1  0  0  0
  7  8  2  0  0  0
  8  9  1  0  0  0
  9 10  2  0  0  0
 10 11  1  0  0  0
 11 12  2  0  0  0
 19 15  1  0  0  0
 12  3  1  0  0  0
 22 16  1  0  0  0
 12  7  1  0  0  0
M  END
> <minimizedAffinity>
10.92621

> <CNNscore>
0.6729137301

> <CNNaffinity>
5.6957283020

> <CNN_VS>
3.8327338696

> <CNNaffinity_variance>
0.5313488841

$$$$
[H]c1c([H])c([H])c2c(c1[H])c(C(=O)OC1([H])C([H])([H])C3([H])N(C([H])([H])[H])C([H])(C([H])([H])C3([H])[H])C1([H])[H])c([H])n2C([H])([H])[H]


 22 25  0  0  0  0  0  0  0  0999 V2000
   24.1776    6.5893   54.3839 C   0  0  0  0  0  0  0  0  0  0  0  0
   24.2236    5.8164   55.3751 O   0  0  0  0  0  0  0  0  0  0  0  0
   25.3344    7.4257   54.0757 C   0  0  0  0  0  0  0  0  0  0  0  0
   25.8342    7.7013   52.8201 C   0  0  0  0  0  0  0  0  0  0  0  0
   26.9000    8.5009   52.9134 N   0  0  0  0  0  0  0  0  0  0  0  0
   27.6675    8.9852   51.7848 C   0  0  0  0  0  0  0  0  0  0  0  0
   27.1378    8.7778   54.2207 C   0  0  0  0  0  0  0  0  0  0  0  0
   28.0902    9.5356   54.8704 C   0  0  0  0  0  0  0  0  0  0  0  0
   28.1107    9.6560   56.2447 C   0  0  0  0  0  0  0  0  0  0  0  0
   27.1428    8.9917   56.9683 C   0  0  0  0  0  0  0  0  0  0  0  0
   26.1842    8.2280   56.3029 C   0  0  0  0  0  0  0  0  0  0  0  0
   26.1594    8.1058   54.9465 C   0  0  0  0  0  0  0  0  0  0  0  0
   23.0319    6.6049   53.6389 O   0  0  0  0  0  0  0  0  0  0  0  0
   20.8145   11.5793   53.4236 C   0  0  0  0  0  0  0  0  0  0  0  0
   21.3267   10.2477   53.3843 N   0  0  0  0  0  0  0  0  0  0  0  0
   22.7434   10.2139   53.6988 C   0  0  0  0  0  0  0  0  0  0  0  0
   22.8543   10.2290   55.2053 C   0  0  0  0  0  0  0  0  0  0  0  0
   21.4057   10.1032   55.6754 C   0  0  0  0  0  0  0  0  0  0  0  0
   20.7768    9.4430   54.4617 C   0  0  0  0  0  0  0  0  0  0  0  0
   21.2657    8.0270   54.3966 C   0  0  0  0  0  0  0  0  0  0  0  0
   22.2900    7.7741   53.3374 C   0  0  0  0  0  0  0  0  0  0  0  0
   23.2549    8.8927   53.1204 C   0  0  0  0  0  0  0  0  0  0  0  0
 14 15  1  0  0  0
 15 16  1  0  0  0
 16 17  1  0  0  0
 17 18  1  0  0  0
 18 19  1  0  0  0
 19 20  1  0  0  0
 20 21  1  0  0  0
 21 22  1  0  0  0
 21 13  1  0  0  0
 13  1  1  0  0  0
  1  2  2  0  0  0
  1  3  1  0  0  0
  3  4  2  0  0  0
  4  5  1  0  0  0
  5  6  1  0  0  0
  5  7  1  0  0  0
  7  8  2  0  0  0
  8  9  1  0  0  0
  9 10  2  0  0  0
 10 11  1  0  0  0
 11 12  2  0  0  0
 19 15  1  0  0  0
 12  3  1  0  0  0
 22 16  1  0  0  0
 12  7  1  0  0  0
M  END
> <minimizedAffinity>
14.82719

> <CNNscore>
0.6625466943

> <CNNaffinity>
5.6932134628

> <CNN_VS>
3.7720198631

> <CNNaffinity_variance>
0.4675602913

$$$$
[H]c1c([H])c([H])c2c(c1[H])c(C(=O)OC1([H])C([H])([H])C3([H])N(C([H])([H])[H])C([H])(C([H])([H])C3([H])[H])C1([H])[H])c([H])n2C([H])([H])[H]


 22 25  0  0  0  0  0  0  0  0999 V2000
   25.1585    7.4729   54.1451 C   0  0  0  0  0  0  0  0  0  0  0  0
   24.9744    7.0093   52.9905 O   0  0  0  0  0  0  0  0  0  0  0  0
   26.3584    8.2599   54.4164 C   0  0  0  0  0  0  0  0  0  0  0  0
   27.2801    8.6943   53.4868 C   0  0  0  0  0  0  0  0  0  0  0  0
   28.2501    9.3877   54.0887 N   0  0  0  0  0  0  0  0  0  0  0  0
   29.3783    9.9875   53.4068 C   0  0  0  0  0  0  0  0  0  0  0  0
   28.0043    9.4344   55.4226 C   0  0  0  0  0  0  0  0  0  0  0  0
   28.6677   10.0065   56.4886 C   0  0  0  0  0  0  0  0  0  0  0  0
   28.1933    9.9046   57.7802 C   0  0  0  0  0  0  0  0  0  0  0  0
   27.0219    9.2069   57.9874 C   0  0  0  0  0  0  0  0  0  0  0  0
   26.3584    8.6320   56.9039 C   0  0  0  0  0  0  0  0  0  0  0  0
   26.8223    8.7296   55.6270 C   0  0  0  0  0  0  0  0  0  0  0  0
   24.2127    7.2114   55.0965 O   0  0  0  0  0  0  0  0  0  0  0  0
   19.1805    7.4033   53.0114 C   0  0  0  0  0  0  0  0  0  0  0  0
   20.4489    7.3094   53.6591 N   0  0  0  0  0  0  0  0  0  0  0  0
   21.4852    6.8799   52.7380 C   0  0  0  0  0  0  0  0  0  0  0  0
   21.9401    8.1116   51.9911 C   0  0  0  0  0  0  0  0  0  0  0  0
   21.2002    9.2517   52.6898 C   0  0  0  0  0  0  0  0  0  0  0  0
   20.9379    8.6217   54.0458 C   0  0  0  0  0  0  0  0  0  0  0  0
   22.2440    8.5296   54.7766 C   0  0  0  0  0  0  0  0  0  0  0  0
   22.8195    7.1514   54.8439 C   0  0  0  0  0  0  0  0  0  0  0  0
   22.6052    6.3235   53.6200 C   0  0  0  0  0  0  0  0  0  0  0  0
 14 15  1  0  0  0
 15 16  1  0  0  0
 16 17  1  0  0  0
 17 18  1  0  0  0
 18 19  1  0  0  0
 19 20  1  0  0  0
 20 21  1  0  0  0
 21 22  1  0  0  0
 21 13  1  0  0  0
 13  1  1  0  0  0
  1  2  2  0  0  0
  1  3  1  0  0  0
  3  4  2  0  0  0
  4  5  1  0  0  0
  5  6  1  0  0  0
  5  7  1  0  0  0
  7  8  2  0  0  0
  8  9  1  0  0  0
  9 10  2  0  0  0
 10 11  1  0  0  0
 11 12  2  0  0  0
 19 15  1  0  0  0
 12  3  1  0  0  0
 22 16  1  0  0  0
 12  7  1  0  0  0
M  END
> <minimizedAffinity>
12.52755

> <CNNscore>
0.6513974667

> <CNNaffinity>
5.4565825462

> <CNN_VS>
3.5544040203

> <CNNaffinity_variance>
0.4613715708

$$$$
[H]c1c([H])c(C2=C(c3c([H])n(C([H])([H])[H])c4c([H])c([H])c([H])c([H])c34)C(=O)N([H])C2=O)c([H])c(C(F)(F)F)c1[H]


 28 31  0  0  0  0  0  0  0  0999 V2000
   22.5059    7.9885   52.1543 C   0  0  0  0  0  0  0  0  0  0  0  0
   23.5104    7.3239   52.5907 C   0  0  0  0  0  0  0  0  0  0  0  0
   23.4361    5.8886   52.0946 C   0  0  0  0  0  0  0  0  0  0  0  0
   24.3178    5.0307   52.3722 O   0  0  0  0  0  0  0  0  0  0  0  0
   22.2849    5.7626   51.3312 N   0  0  0  0  0  0  0  0  0  0  0  0
   21.6759    7.0407   51.3393 C   0  0  0  0  0  0  0  0  0  0  0  0
   20.6049    7.2792   50.7418 O   0  0  0  0  0  0  0  0  0  0  0  0
   21.9758    4.8630   50.8730 H   0  0  0  0  0  0  0  0  0  0  0  0
   21.6732   12.8618   51.1717 C   0  0  0  0  0  0  0  0  0  0  0  0
   21.6995   11.5420   51.8282 N   0  0  0  0  0  0  0  0  0  0  0  0
   22.1196   10.3690   51.3382 C   0  0  0  0  0  0  0  0  0  0  0  0
   22.0666    9.3884   52.3085 C   0  0  0  0  0  0  0  0  0  0  0  0
   21.5842   10.0007   53.4434 C   0  0  0  0  0  0  0  0  0  0  0  0
   21.3145    9.6101   54.7355 C   0  0  0  0  0  0  0  0  0  0  0  0
   20.8301   10.5013   55.6619 C   0  0  0  0  0  0  0  0  0  0  0  0
   20.5937   11.8057   55.3640 C   0  0  0  0  0  0  0  0  0  0  0  0
   20.8755   12.1995   54.0616 C   0  0  0  0  0  0  0  0  0  0  0  0
   21.3655   11.3369   53.1063 C   0  0  0  0  0  0  0  0  0  0  0  0
   24.5655    7.5488   53.6051 C   0  0  0  0  0  0  0  0  0  0  0  0
   24.2531    7.8366   54.8875 C   0  0  0  0  0  0  0  0  0  0  0  0
   25.1964    8.3754   55.7786 C   0  0  0  0  0  0  0  0  0  0  0  0
   26.4626    8.6046   55.3131 C   0  0  0  0  0  0  0  0  0  0  0  0
   26.8157    8.3115   54.0194 C   0  0  0  0  0  0  0  0  0  0  0  0
   25.8682    7.7805   53.1646 C   0  0  0  0  0  0  0  0  0  0  0  0
   28.1726    8.6597   53.4755 C   0  0  0  0  0  0  0  0  0  0  0  0
   28.5138    9.8716   54.1267 F   0  0  0  0  0  0  0  0  0  0  0  0
   28.1291    8.8076   52.1352 F   0  0  0  0  0  0  0  0  0  0  0  0
   29.0640    7.7112   53.9459 F   0  0  0  0  0  0  0  0  0  0  0  0
  9 10  1  0  0  0
 10 11  1  0  0  0
 11 12  2  0  0  0
 12  1  1  0  0  0
  1  2  2  0  0  0
  2  3  1  0  0  0
  3  4  2  0  0  0
  3  5  1  0  0  0
  5  6  1  0  0  0
  6  7  2  0  0  0
  2 19  1  0  0  0
 19 20  2  0  0  0
 20 21  1  0  0  0
 21 22  2  0  0  0
 22 23  1  0  0  0
 23 24  2  0  0  0
 23 25  1  0  0  0
 25 26  1  0  0  0
 25 27  1  0  0  0
 25 28  1  0  0  0
 12 13  1  0  0  0
 13 14  2  0  0  0
 14 15  1  0  0  0
 15 16  2  0  0  0
 16 17  1  0  0  0
 17 18  2  0  0  0
 18 10  1  0  0  0
  6  1  1  0  0  0
 24 19  1  0  0  0
 18 13  1  0  0  0
  5  8  1  0  0  0
M  END
> <minimizedAffinity>
31.84599

> <CNNscore>
0.5483611226

> <CNNaffinity>
5.9246082306

> <CNN_VS>
3.2488248348

> <CNNaffinity_variance>
0.6083476543

$$$$
[H]c1c([H])c(C2=C(c3c([H])n(C([H])([H])[H])c4c([H])c([H])c([H])c([H])c34)C(=O)N([H])C2=O)c([H])c(C(F)(F)F)c1[H]


 28 31  0  0  0  0  0  0  0  0999 V2000
   22.9829    7.7657   53.9332 C   0  0  0  0  0  0  0  0  0  0  0  0
   24.2187    7.4847   53.7459 C   0  0  0  0  0  0  0  0  0  0  0  0
   24.3707    6.0056   53.4288 C   0  0  0  0  0  0  0  0  0  0  0  0
   25.4900    5.4773   53.1870 O   0  0  0  0  0  0  0  0  0  0  0  0
   23.1074    5.4336   53.4573 N   0  0  0  0  0  0  0  0  0  0  0  0
   22.2143    6.4881   53.7653 C   0  0  0  0  0  0  0  0  0  0  0  0
   20.9814    6.3158   53.8723 O   0  0  0  0  0  0  0  0  0  0  0  0
   22.9191    4.4088   53.2861 H   0  0  0  0  0  0  0  0  0  0  0  0
   20.2345   11.1642   56.4442 C   0  0  0  0  0  0  0  0  0  0  0  0
   21.0522   10.4976   55.4143 N   0  0  0  0  0  0  0  0  0  0  0  0
   21.6803    9.3167   55.4759 C   0  0  0  0  0  0  0  0  0  0  0  0
   22.2599    9.0092   54.2612 C   0  0  0  0  0  0  0  0  0  0  0  0
   21.9707   10.0626   53.4231 C   0  0  0  0  0  0  0  0  0  0  0  0
   22.2261   10.3741   52.1068 C   0  0  0  0  0  0  0  0  0  0  0  0
   21.7729   11.5461   51.5520 C   0  0  0  0  0  0  0  0  0  0  0  0
   21.0520   12.4558   52.2585 C   0  0  0  0  0  0  0  0  0  0  0  0
   20.7878   12.1347   53.5843 C   0  0  0  0  0  0  0  0  0  0  0  0
   21.2215   10.9684   54.1747 C   0  0  0  0  0  0  0  0  0  0  0  0
   25.5063    8.1793   53.9752 C   0  0  0  0  0  0  0  0  0  0  0  0
   26.4930    8.1460   53.0531 C   0  0  0  0  0  0  0  0  0  0  0  0
   27.8163    8.4978   53.3684 C   0  0  0  0  0  0  0  0  0  0  0  0
   28.0900    8.8845   54.6522 C   0  0  0  0  0  0  0  0  0  0  0  0
   27.1079    8.9412   55.6096 C   0  0  0  0  0  0  0  0  0  0  0  0
   25.8142    8.5914   55.2714 C   0  0  0  0  0  0  0  0  0  0  0  0
   27.4235    9.2626   57.0432 C   0  0  0  0  0  0  0  0  0  0  0  0
   28.6043    8.5281   57.3180 F   0  0  0  0  0  0  0  0  0  0  0  0
   26.4077    8.8966   57.8521 F   0  0  0  0  0  0  0  0  0  0  0  0
   27.7843   10.5975   57.0994 F   0  0  0  0  0  0  0  0  0  0  0  0
  9 10  1  0  0  0
 10 11  1  0  0  0
 11 12  2  0  0  0
 12  1  1  0  0  0
  1  2  2  0  0  0
  2  3  1  0  0  0
  3  4  2  0  0  0
  3  5  1  0  0  0
  5  6  1  0  0  0
  6  7  2  0  0  0
  2 19  1  0  0  0
 19 20  2  0  0  0
 20 21  1  0  0  0
 21 22  2  0  0  0
 22 23  1  0  0  0
 23 24  2  0  0  0
 23 25  1  0  0  0
 25 26  1  0  0  0
 25 27  1  0  0  0
 25 28  1  0  0  0
 12 13  1  0  0  0
 13 14  2  0  0  0
 14 15  1  0  0  0
 15 16  2  0  0  0
 16 17  1  0  0  0
 17 18  2  0  0  0
 18 10  1  0  0  0
  6  1  1  0  0  0
 24 19  1  0  0  0
 18 13  1  0  0  0
  5  8  1  0  0  0
M  END
> <minimizedAffinity>
17.51814

> <CNNscore>
0.5380471349

> <CNNaffinity>
6.1251969337

> <CNN_VS>
3.2956447601

> <CNNaffinity_variance>
0.2260485590

$$$$
[H]c1c([H])c(C2=C(c3c([H])n(C([H])([H])[H])c4c([H])c([H])c([H])c([H])c34)C(=O)N([H])C2=O)c([H])c(C(F)(F)F)c1[H]


 28 31  0  0  0  0  0  0  0  0999 V2000
   22.2051    7.5963   53.2612 C   0  0  0  0  0  0  0  0  0  0  0  0
   23.2270    7.1263   53.8744 C   0  0  0  0  0  0  0  0  0  0  0  0
   23.0990    5.6176   54.0122 C   0  0  0  0  0  0  0  0  0  0  0  0
   23.9850    4.9115   54.5663 O   0  0  0  0  0  0  0  0  0  0  0  0
   21.8974    5.2390   53.4319 N   0  0  0  0  0  0  0  0  0  0  0  0
   21.3088    6.4336   52.9514 C   0  0  0  0  0  0  0  0  0  0  0  0
   20.2035    6.4519   52.3691 O   0  0  0  0  0  0  0  0  0  0  0  0
   21.5454    4.2441   53.3985 H   0  0  0  0  0  0  0  0  0  0  0  0
   21.3262   11.6601   50.4114 C   0  0  0  0  0  0  0  0  0  0  0  0
   21.4051   10.7314   51.5537 N   0  0  0  0  0  0  0  0  0  0  0  0
   21.7624    9.4411   51.5633 C   0  0  0  0  0  0  0  0  0  0  0  0
   21.7973    8.9547   52.8549 C   0  0  0  0  0  0  0  0  0  0  0  0
   21.4371   10.0057   53.6680 C   0  0  0  0  0  0  0  0  0  0  0  0
   21.2945   10.1998   55.0233 C   0  0  0  0  0  0  0  0  0  0  0  0
   20.9142   11.4179   55.5316 C   0  0  0  0  0  0  0  0  0  0  0  0
   20.6620   12.4919   54.7383 C   0  0  0  0  0  0  0  0  0  0  0  0
   20.8157   12.2959   53.3714 C   0  0  0  0  0  0  0  0  0  0  0  0
   21.1990   11.0914   52.8245 C   0  0  0  0  0  0  0  0  0  0  0  0
   24.3510    7.7011   54.6484 C   0  0  0  0  0  0  0  0  0  0  0  0
   24.1307    8.5451   55.6799 C   0  0  0  0  0  0  0  0  0  0  0  0
   25.1507    9.3544   56.2082 C   0  0  0  0  0  0  0  0  0  0  0  0
   26.3960    9.2666   55.6476 C   0  0  0  0  0  0  0  0  0  0  0  0
   26.6559    8.4100   54.6070 C   0  0  0  0  0  0  0  0  0  0  0  0
   25.6343    7.6241   54.1080 C   0  0  0  0  0  0  0  0  0  0  0  0
   27.9925    8.3879   53.9206 C   0  0  0  0  0  0  0  0  0  0  0  0
   27.7242    8.8562   52.6099 F   0  0  0  0  0  0  0  0  0  0  0  0
   28.5061    7.1404   53.9102 F   0  0  0  0  0  0  0  0  0  0  0  0
   28.7811    9.3566   54.5166 F   0  0  0  0  0  0  0  0  0  0  0  0
  9 10  1  0  0  0
 10 11  1  0  0  0
 11 12  2  0  0  0
 12  1  1  0  0  0
  1  2  2  0  0  0
  2  3  1  0  0  0
  3  4  2  0  0  0
  3  5  1  0  0  0
  5  6  1  0  0  0
  6  7  2  0  0  0
  2 19  1  0  0  0
 19 20  2  0  0  0
 20 21  1  0  0  0
 21 22  2  0  0  0
 22 23  1  0  0  0
 23 24  2  0  0  0
 23 25  1  0  0  0
 25 26  1  0  0  0
 25 27  1  0  0  0
 25 28  1  0  0  0
 12 13  1  0  0  0
 13 14  2  0  0  0
 14 15  1  0  0  0
 15 16  2  0  0  0
 16 17  1  0  0  0
 17 18  2  0  0  0
 18 10  1  0  0  0
  6  1  1  0  0  0
 24 19  1  0  0  0
 18 13  1  0  0  0
  5  8  1  0  0  0
M  END
> <minimizedAffinity>
19.64101

> <CNNscore>
0.5350192189

> <CNNaffinity>
6.5237417221

> <CNN_VS>
3.4903271198

> <CNNaffinity_variance>
0.5176357031

$$$$
[H]c1c([H])c(C2=C(c3c([H])n(C([H])([H])[H])c4c([H])c([H])c([H])c([H])c34)C(=O)N([H])C2=O)c([H])c(C(F)(F)F)c1[H]


 28 31  0  0  0  0  0  0  0  0999 V2000
   22.3469    8.0250   53.7565 C   0  0  0  0  0  0  0  0  0  0  0  0
   23.4982    7.5034   53.9650 C   0  0  0  0  0  0  0  0  0  0  0  0
   23.4959    6.0496   53.5198 C   0  0  0  0  0  0  0  0  0  0  0  0
   24.5174    5.3149   53.6041 O   0  0  0  0  0  0  0  0  0  0  0  0
   22.2290    5.7556   53.0376 N   0  0  0  0  0  0  0  0  0  0  0  0
   21.4820    6.9517   53.1638 C   0  0  0  0  0  0  0  0  0  0  0  0
   20.2839    7.0359   52.8198 O   0  0  0  0  0  0  0  0  0  0  0  0
   21.9409    4.8070   52.6743 H   0  0  0  0  0  0  0  0  0  0  0  0
   19.9605   11.8853   55.9502 C   0  0  0  0  0  0  0  0  0  0  0  0
   20.7296   11.0623   54.9989 N   0  0  0  0  0  0  0  0  0  0  0  0
   21.1914    9.8148   55.1507 C   0  0  0  0  0  0  0  0  0  0  0  0
   21.7812    9.3683   53.9851 C   0  0  0  0  0  0  0  0  0  0  0  0
   21.6744   10.4030   53.0831 C   0  0  0  0  0  0  0  0  0  0  0  0
   22.0304   10.6060   51.7690 C   0  0  0  0  0  0  0  0  0  0  0  0
   21.7637   11.7951   51.1350 C   0  0  0  0  0  0  0  0  0  0  0  0
   21.1380   12.8283   51.7573 C   0  0  0  0  0  0  0  0  0  0  0  0
   20.7715   12.6174   53.0809 C   0  0  0  0  0  0  0  0  0  0  0  0
   21.0180   11.4386   53.7490 C   0  0  0  0  0  0  0  0  0  0  0  0
   24.7156    7.8948   54.7119 C   0  0  0  0  0  0  0  0  0  0  0  0
   24.6335    8.5751   55.8761 C   0  0  0  0  0  0  0  0  0  0  0  0
   25.7413    9.2415   56.4265 C   0  0  0  0  0  0  0  0  0  0  0  0
   26.9282    9.1842   55.7477 C   0  0  0  0  0  0  0  0  0  0  0  0
   27.0481    8.4911   54.5690 C   0  0  0  0  0  0  0  0  0  0  0  0
   25.9425    7.8431   54.0511 C   0  0  0  0  0  0  0  0  0  0  0  0
   28.3194    8.5140   53.7681 C   0  0  0  0  0  0  0  0  0  0  0  0
   27.9084    8.8866   52.4636 F   0  0  0  0  0  0  0  0  0  0  0  0
   28.9147    7.3033   53.7777 F   0  0  0  0  0  0  0  0  0  0  0  0
   29.0877    9.5642   54.2393 F   0  0  0  0  0  0  0  0  0  0  0  0
  9 10  1  0  0  0
 10 11  1  0  0  0
 11 12  2  0  0  0
 12  1  1  0  0  0
  1  2  2  0  0  0
  2  3  1  0  0  0
  3  4  2  0  0  0
  3  5  1  0  0  0
  5  6  1  0  0  0
  6  7  2  0  0  0
  2 19  1  0  0  0
 19 20  2  0  0  0
 20 21  1  0  0  0
 21 22  2  0  0  0
 22 23  1  0  0  0
 23 24  2  0  0  0
 23 25  1  0  0  0
 25 26  1  0  0  0
 25 27  1  0  0  0
 25 28  1  0  0  0
 12 13  1  0  0  0
 13 14  2  0  0  0
 14 15  1  0  0  0
 15 16  2  0  0  0
 16 17  1  0  0  0
 17 18  2  0  0  0
 18 10  1  0  0  0
  6  1  1  0  0  0
 24 19  1  0  0  0
 18 13  1  0  0  0
  5  8  1  0  0  0
M  END
> <minimizedAffinity>
20.94327

> <CNNscore>
0.5344920754

> <CNNaffinity>
6.3069944382

> <CNN_VS>
3.3710384369

> <CNNaffinity_variance>
0.4011302888

$$$$
[H]c1c([H])c(C2=C(c3c([H])n(C([H])([H])[H])c4c([H])c([H])c([H])c([H])c34)C(=O)N([H])C2=O)c([H])c(C(F)(F)F)c1[H]


 28 31  0  0  0  0  0  0  0  0999 V2000
   23.8133    7.6322   54.2182 C   0  0  0  0  0  0  0  0  0  0  0  0
   22.6821    8.2113   54.0563 C   0  0  0  0  0  0  0  0  0  0  0  0
   21.6832    7.2362   53.4536 C   0  0  0  0  0  0  0  0  0  0  0  0
   20.4881    7.5567   53.2098 O   0  0  0  0  0  0  0  0  0  0  0  0
   22.3338    6.0261   53.2629 N   0  0  0  0  0  0  0  0  0  0  0  0
   23.6577    6.2240   53.7240 C   0  0  0  0  0  0  0  0  0  0  0  0
   24.5225    5.3229   53.6929 O   0  0  0  0  0  0  0  0  0  0  0  0
   21.8789    5.1710   52.8425 H   0  0  0  0  0  0  0  0  0  0  0  0
   27.3775    9.1858   57.4262 C   0  0  0  0  0  0  0  0  0  0  0  0
   26.6749    8.7456   56.2071 N   0  0  0  0  0  0  0  0  0  0  0  0
   25.4225    8.2902   56.0782 C   0  0  0  0  0  0  0  0  0  0  0  0
   25.1167    8.0744   54.7493 C   0  0  0  0  0  0  0  0  0  0  0  0
   26.2461    8.4128   54.0384 C   0  0  0  0  0  0  0  0  0  0  0  0
   26.6003    8.4482   52.7087 C   0  0  0  0  0  0  0  0  0  0  0  0
   27.8512    8.8581   52.3161 C   0  0  0  0  0  0  0  0  0  0  0  0
   28.8013    9.2513   53.2044 C   0  0  0  0  0  0  0  0  0  0  0  0
   28.4381    9.2235   54.5452 C   0  0  0  0  0  0  0  0  0  0  0  0
   27.1933    8.8228   54.9773 C   0  0  0  0  0  0  0  0  0  0  0  0
   22.1944    9.6087   54.1042 C   0  0  0  0  0  0  0  0  0  0  0  0
   21.4240   10.0463   55.1239 C   0  0  0  0  0  0  0  0  0  0  0  0
   20.6818   11.2361   55.0365 C   0  0  0  0  0  0  0  0  0  0  0  0
   20.7588   11.9578   53.8764 C   0  0  0  0  0  0  0  0  0  0  0  0
   21.5422   11.5474   52.8265 C   0  0  0  0  0  0  0  0  0  0  0  0
   22.2632   10.3738   52.9403 C   0  0  0  0  0  0  0  0  0  0  0  0
   21.5467   12.2798   51.5144 C   0  0  0  0  0  0  0  0  0  0  0  0
   20.6980   13.3947   51.7292 F   0  0  0  0  0  0  0  0  0  0  0  0
   21.0905   11.4886   50.5214 F   0  0  0  0  0  0  0  0  0  0  0  0
   22.8170   12.7983   51.3329 F   0  0  0  0  0  0  0  0  0  0  0  0
  9 10  1  0  0  0
 10 11  1  0  0  0
 11 12  2  0  0  0
 12  1  1  0  0  0
  1  2  2  0  0  0
  2  3  1  0  0  0
  3  4  2  0  0  0
  3  5  1  0  0  0
  5  6  1  0  0  0
  6  7  2  0  0  0
  2 19  1  0  0  0
 19 20  2  0  0  0
 20 21  1  0  0  0
 21 22  2  0  0  0
 22 23  1  0  0  0
 23 24  2  0  0  0
 23 25  1  0  0  0
 25 26  1  0  0  0
 25 27  1  0  0  0
 25 28  1  0  0  0
 12 13  1  0  0  0
 13 14  2  0  0  0
 14 15  1  0  0  0
 15 16  2  0  0  0
 16 17  1  0  0  0
 17 18  2  0  0  0
 18 10  1  0  0  0
  6  1  1  0  0  0
 24 19  1  0  0  0
 18 13  1  0  0  0
  5  8  1  0  0  0
M  END
> <minimizedAffinity>
18.03046

> <CNNscore>
0.5295004249

> <CNNaffinity>
6.2080011368

> <CNN_VS>
3.2871391773

> <CNNaffinity_variance>
0.2975843847

$$$$
[H]c1c([H])c(C2=C(c3c([H])n(C([H])([H])[H])c4c([H])c([H])c([H])c([H])c34)C(=O)N([H])C2=O)c([H])c(C(F)(F)F)c1[H]


 28 31  0  0  0  0  0  0  0  0999 V2000
   23.7509    9.6039   55.0460 C   0  0  0  0  0  0  0  0  0  0  0  0
   22.8643    8.8893   54.4591 C   0  0  0  0  0  0  0  0  0  0  0  0
   21.6092    9.7139   54.2217 C   0  0  0  0  0  0  0  0  0  0  0  0
   20.5912    9.2449   53.6435 O   0  0  0  0  0  0  0  0  0  0  0  0
   21.8322   10.9832   54.7345 N   0  0  0  0  0  0  0  0  0  0  0  0
   23.1486   10.9621   55.2553 C   0  0  0  0  0  0  0  0  0  0  0  0
   23.6723   11.9569   55.8005 O   0  0  0  0  0  0  0  0  0  0  0  0
   21.1179   11.7606   54.7182 H   0  0  0  0  0  0  0  0  0  0  0  0
   27.8559    9.4843   57.9688 C   0  0  0  0  0  0  0  0  0  0  0  0
   26.9211    9.2920   56.8451 N   0  0  0  0  0  0  0  0  0  0  0  0
   25.6175    9.5895   56.7775 C   0  0  0  0  0  0  0  0  0  0  0  0
   25.1259    9.3408   55.5115 C   0  0  0  0  0  0  0  0  0  0  0  0
   26.1880    8.8631   54.7771 C   0  0  0  0  0  0  0  0  0  0  0  0
   26.3833    8.4541   53.4774 C   0  0  0  0  0  0  0  0  0  0  0  0
   27.6141    8.0255   53.0435 C   0  0  0  0  0  0  0  0  0  0  0  0
   28.6999    7.9826   53.8593 C   0  0  0  0  0  0  0  0  0  0  0  0
   28.5022    8.4047   55.1682 C   0  0  0  0  0  0  0  0  0  0  0  0
   27.2851    8.8446   55.6391 C   0  0  0  0  0  0  0  0  0  0  0  0
   22.6923    7.4473   54.1692 C   0  0  0  0  0  0  0  0  0  0  0  0
   21.9264    6.6617   54.9573 C   0  0  0  0  0  0  0  0  0  0  0  0
   22.0084    5.2598   54.9126 C   0  0  0  0  0  0  0  0  0  0  0  0
   22.8948    4.6955   54.0360 C   0  0  0  0  0  0  0  0  0  0  0  0
   23.6784    5.4651   53.2126 C   0  0  0  0  0  0  0  0  0  0  0  0
   23.5760    6.8420   53.2762 C   0  0  0  0  0  0  0  0  0  0  0  0
   24.7266    4.8537   52.3262 C   0  0  0  0  0  0  0  0  0  0  0  0
   25.9282    5.5077   52.6973 F   0  0  0  0  0  0  0  0  0  0  0  0
   24.4306    5.0527   51.0250 F   0  0  0  0  0  0  0  0  0  0  0  0
   24.8775    3.5332   52.7121 F   0  0  0  0  0  0  0  0  0  0  0  0
  9 10  1  0  0  0
 10 11  1  0  0  0
 11 12  2  0  0  0
 12  1  1  0  0  0
  1  2  2  0  0  0
  2  3  1  0  0  0
  3  4  2  0  0  0
  3  5  1  0  0  0
  5  6  1  0  0  0
  6  7  2  0  0  0
  2 19  1  0  0  0
 19 20  2  0  0  0
 20 21  1  0  0  0
 21 22  2  0  0  0
 22 23  1  0  0  0
 23 24  2  0  0  0
 23 25  1  0  0  0
 25 26  1  0  0  0
 25 27  1  0  0  0
 25 28  1  0  0  0
 12 13  1  0  0  0
 13 14  2  0  0  0
 14 15  1  0  0  0
 15 16  2  0  0  0
 16 17  1  0  0  0
 17 18  2  0  0  0
 18 10  1  0  0  0
  6  1  1  0  0  0
 24 19  1  0  0  0
 18 13  1  0  0  0
  5  8  1  0  0  0
M  END
> <minimizedAffinity>
33.39814

> <CNNscore>
0.5219923854

> <CNNaffinity>
5.8156924248

> <CNN_VS>
3.0357470512

> <CNNaffinity_variance>
0.2499202788

$$$$
[H]c1c([H])c(C2=C(c3c([H])n(C([H])([H])[H])c4c([H])c([H])c([H])c([H])c34)C(=O)N([H])C2=O)c([H])c(C(F)(F)F)c1[H]


 28 31  0  0  0  0  0  0  0  0999 V2000
   23.8636    7.3497   53.8265 C   0  0  0  0  0  0  0  0  0  0  0  0
   22.7532    7.9871   53.8715 C   0  0  0  0  0  0  0  0  0  0  0  0
   21.6115    7.0664   53.4710 C   0  0  0  0  0  0  0  0  0  0  0  0
   20.4100    7.4490   53.4494 O   0  0  0  0  0  0  0  0  0  0  0  0
   22.1526    5.8245   53.1730 N   0  0  0  0  0  0  0  0  0  0  0  0
   23.5473    5.9525   53.3804 C   0  0  0  0  0  0  0  0  0  0  0  0
   24.3440    5.0077   53.1974 O   0  0  0  0  0  0  0  0  0  0  0  0
   21.5846    4.9949   52.8506 H   0  0  0  0  0  0  0  0  0  0  0  0
   28.9001    7.4457   53.6449 C   0  0  0  0  0  0  0  0  0  0  0  0
   27.4970    7.7475   53.9825 N   0  0  0  0  0  0  0  0  0  0  0  0
   26.3779    7.2546   53.4373 C   0  0  0  0  0  0  0  0  0  0  0  0
   25.2636    7.7227   54.1046 C   0  0  0  0  0  0  0  0  0  0  0  0
   25.7347    8.5460   55.1026 C   0  0  0  0  0  0  0  0  0  0  0  0
   25.1714    9.2945   56.1112 C   0  0  0  0  0  0  0  0  0  0  0  0
   25.9502   10.0251   56.9752 C   0  0  0  0  0  0  0  0  0  0  0  0
   27.3061   10.0505   56.8900 C   0  0  0  0  0  0  0  0  0  0  0  0
   27.8726    9.2867   55.8769 C   0  0  0  0  0  0  0  0  0  0  0  0
   27.1257    8.5385   54.9942 C   0  0  0  0  0  0  0  0  0  0  0  0
   22.3553    9.4080   53.9976 C   0  0  0  0  0  0  0  0  0  0  0  0
   21.7367    9.8653   55.1080 C   0  0  0  0  0  0  0  0  0  0  0  0
   21.0586   11.0957   55.1270 C   0  0  0  0  0  0  0  0  0  0  0  0
   21.0394   11.8367   53.9767 C   0  0  0  0  0  0  0  0  0  0  0  0
   21.6687   11.4064   52.8352 C   0  0  0  0  0  0  0  0  0  0  0  0
   22.3299   10.1927   52.8451 C   0  0  0  0  0  0  0  0  0  0  0  0
   21.5604   12.1654   51.5427 C   0  0  0  0  0  0  0  0  0  0  0  0
   20.7090   13.2577   51.8449 F   0  0  0  0  0  0  0  0  0  0  0  0
   21.0460   11.3851   50.5696 F   0  0  0  0  0  0  0  0  0  0  0  0
   22.8033   12.7137   51.2780 F   0  0  0  0  0  0  0  0  0  0  0  0
  9 10  1  0  0  0
 10 11  1  0  0  0
 11 12  2  0  0  0
 12  1  1  0  0  0
  1  2  2  0  0  0
  2  3  1  0  0  0
  3  4  2  0  0  0
  3  5  1  0  0  0
  5  6  1  0  0  0
  6  7  2  0  0  0
  2 19  1  0  0  0
 19 20  2  0  0  0
 20 21  1  0  0  0
 21 22  2  0  0  0
 22 23  1  0  0  0
 23 24  2  0  0  0
 23 25  1  0  0  0
 25 26  1  0  0  0
 25 27  1  0  0  0
 25 28  1  0  0  0
 12 13  1  0  0  0
 13 14  2  0  0  0
 14 15  1  0  0  0
 15 16  2  0  0  0
 16 17  1  0  0  0
 17 18  2  0  0  0
 18 10  1  0  0  0
  6  1  1  0  0  0
 24 19  1  0  0  0
 18 13  1  0  0  0
  5  8  1  0  0  0
M  END
> <minimizedAffinity>
15.40251

> <CNNscore>
0.5199195743

> <CNNaffinity>
6.1646547318

> <CNN_VS>
3.2051246166

> <CNNaffinity_variance>
0.3236622512

$$$$
[H]c1c([H])c(C2=C(c3c([H])n(C([H])([H])[H])c4c([H])c([H])c([H])c([H])c34)C(=O)N([H])C2=O)c([H])c(C(F)(F)F)c1[H]


 28 31  0  0  0  0  0  0  0  0999 V2000
   24.0743    7.5373   54.3134 C   0  0  0  0  0  0  0  0  0  0  0  0
   22.9650    8.0798   54.6545 C   0  0  0  0  0  0  0  0  0  0  0  0
   21.8959    7.0115   54.8201 C   0  0  0  0  0  0  0  0  0  0  0  0
   20.7151    7.2847   55.1685 O   0  0  0  0  0  0  0  0  0  0  0  0
   22.4747    5.7840   54.5334 N   0  0  0  0  0  0  0  0  0  0  0  0
   23.8262    6.0608   54.2147 C   0  0  0  0  0  0  0  0  0  0  0  0
   24.6401    5.1663   53.9011 O   0  0  0  0  0  0  0  0  0  0  0  0
   21.9538    4.8659   54.5555 H   0  0  0  0  0  0  0  0  0  0  0  0
   28.2686    8.7941   51.8161 C   0  0  0  0  0  0  0  0  0  0  0  0
   27.2578    8.6252   52.8760 N   0  0  0  0  0  0  0  0  0  0  0  0
   26.0085    8.1538   52.7769 C   0  0  0  0  0  0  0  0  0  0  0  0
   25.4200    8.0675   54.0228 C   0  0  0  0  0  0  0  0  0  0  0  0
   26.3622    8.5153   54.9214 C   0  0  0  0  0  0  0  0  0  0  0  0
   26.4277    8.6663   56.2880 C   0  0  0  0  0  0  0  0  0  0  0  0
   27.5595    9.1509   56.8970 C   0  0  0  0  0  0  0  0  0  0  0  0
   28.6696    9.5031   56.1971 C   0  0  0  0  0  0  0  0  0  0  0  0
   28.6041    9.3410   54.8186 C   0  0  0  0  0  0  0  0  0  0  0  0
   27.4893    8.8549   54.1724 C   0  0  0  0  0  0  0  0  0  0  0  0
   22.4372    9.4625   54.7059 C   0  0  0  0  0  0  0  0  0  0  0  0
   21.6208    9.8629   55.7049 C   0  0  0  0  0  0  0  0  0  0  0  0
   20.8491   11.0332   55.6094 C   0  0  0  0  0  0  0  0  0  0  0  0
   20.9452   11.7746   54.4632 C   0  0  0  0  0  0  0  0  0  0  0  0
   21.7747   11.4021   53.4349 C   0  0  0  0  0  0  0  0  0  0  0  0
   22.5240   10.2470   53.5563 C   0  0  0  0  0  0  0  0  0  0  0  0
   21.8033   12.1545   52.1344 C   0  0  0  0  0  0  0  0  0  0  0  0
   22.2189   11.1931   51.1792 F   0  0  0  0  0  0  0  0  0  0  0  0
   22.6591   13.1954   52.2008 F   0  0  0  0  0  0  0  0  0  0  0  0
   20.4959   12.4723   51.8101 F   0  0  0  0  0  0  0  0  0  0  0  0
  9 10  1  0  0  0
 10 11  1  0  0  0
 11 12  2  0  0  0
 12  1  1  0  0  0
  1  2  2  0  0  0
  2  3  1  0  0  0
  3  4  2  0  0  0
  3  5  1  0  0  0
  5  6  1  0  0  0
  6  7  2  0  0  0
  2 19  1  0  0  0
 19 20  2  0  0  0
 20 21  1  0  0  0
 21 22  2  0  0  0
 22 23  1  0  0  0
 23 24  2  0  0  0
 23 25  1  0  0  0
 25 26  1  0  0  0
 25 27  1  0  0  0
 25 28  1  0  0  0
 12 13  1  0  0  0
 13 14  2  0  0  0
 14 15  1  0  0  0
 15 16  2  0  0  0
 16 17  1  0  0  0
 17 18  2  0  0  0
 18 10  1  0  0  0
  6  1  1  0  0  0
 24 19  1  0  0  0
 18 13  1  0  0  0
  5  8  1  0  0  0
M  END
> <minimizedAffinity>
22.74930

> <CNNscore>
0.5171787739

> <CNNaffinity>
6.1487555504

> <CNN_VS>
3.1800057888

> <CNNaffinity_variance>
0.2438592017

$$$$
[H]c1c([H])c(C2=C(c3c([H])n(C([H])([H])[H])c4c([H])c([H])c([H])c([H])c34)C(=O)N([H])C2=O)c([H])c(C(F)(F)F)c1[H]


 28 31  0  0  0  0  0  0  0  0999 V2000
   23.9386    7.8528   54.6593 C   0  0  0  0  0  0  0  0  0  0  0  0
   22.8152    8.3767   54.3358 C   0  0  0  0  0  0  0  0  0  0  0  0
   21.8835    7.3066   53.7896 C   0  0  0  0  0  0  0  0  0  0  0  0
   20.7069    7.5619   53.4139 O   0  0  0  0  0  0  0  0  0  0  0  0
   22.5660    6.0993   53.8094 N   0  0  0  0  0  0  0  0  0  0  0  0
   23.8453    6.3892   54.3423 C   0  0  0  0  0  0  0  0  0  0  0  0
   24.7238    5.5142   54.4964 O   0  0  0  0  0  0  0  0  0  0  0  0
   22.1599    5.1856   53.4702 H   0  0  0  0  0  0  0  0  0  0  0  0
   27.1116   10.4850   57.5596 C   0  0  0  0  0  0  0  0  0  0  0  0
   26.5641    9.5640   56.5469 N   0  0  0  0  0  0  0  0  0  0  0  0
   25.2911    9.2038   56.3409 C   0  0  0  0  0  0  0  0  0  0  0  0
   25.1880    8.3934   55.2280 C   0  0  0  0  0  0  0  0  0  0  0  0
   26.4673    8.2527   54.7388 C   0  0  0  0  0  0  0  0  0  0  0  0
   27.0490    7.6083   53.6706 C   0  0  0  0  0  0  0  0  0  0  0  0
   28.4033    7.6753   53.4508 C   0  0  0  0  0  0  0  0  0  0  0  0
   29.2395    8.3749   54.2618 C   0  0  0  0  0  0  0  0  0  0  0  0
   28.6484    9.0320   55.3339 C   0  0  0  0  0  0  0  0  0  0  0  0
   27.2949    8.9917   55.5849 C   0  0  0  0  0  0  0  0  0  0  0  0
   22.3035    9.7556   54.1630 C   0  0  0  0  0  0  0  0  0  0  0  0
   21.5375   10.3412   55.1091 C   0  0  0  0  0  0  0  0  0  0  0  0
   20.7734   11.4892   54.8402 C   0  0  0  0  0  0  0  0  0  0  0  0
   20.8241   12.0136   53.5772 C   0  0  0  0  0  0  0  0  0  0  0  0
   21.6022   11.4501   52.5968 C   0  0  0  0  0  0  0  0  0  0  0  0
   22.3451   10.3219   52.8893 C   0  0  0  0  0  0  0  0  0  0  0  0
   21.5784   11.9592   51.1831 C   0  0  0  0  0  0  0  0  0  0  0  0
   22.5442   11.1715   50.5078 F   0  0  0  0  0  0  0  0  0  0  0  0
   21.8860   13.2721   51.1405 F   0  0  0  0  0  0  0  0  0  0  0  0
   20.3550   11.6115   50.6374 F   0  0  0  0  0  0  0  0  0  0  0  0
  9 10  1  0  0  0
 10 11  1  0  0  0
 11 12  2  0  0  0
 12  1  1  0  0  0
  1  2  2  0  0  0
  2  3  1  0  0  0
  3  4  2  0  0  0
  3  5  1  0  0  0
  5  6  1  0  0  0
  6  7  2  0  0  0
  2 19  1  0  0  0
 19 20  2  0  0  0
 20 21  1  0  0  0
 21 22  2  0  0  0
 22 23  1  0  0  0
 23 24  2  0  0  0
 23 25  1  0  0  0
 25 26  1  0  0  0
 25 27  1  0  0  0
 25 28  1  0  0  0
 12 13  1  0  0  0
 13 14  2  0  0  0
 14 15  1  0  0  0
 15 16  2  0  0  0
 16 17  1  0  0  0
 17 18  2  0  0  0
 18 10  1  0  0  0
  6  1  1  0  0  0
 24 19  1  0  0  0
 18 13  1  0  0  0
  5  8  1  0  0  0
M  END
> <minimizedAffinity>
22.87334

> <CNNscore>
0.5151903033

> <CNNaffinity>
6.1400537491

> <CNN_VS>
3.1632962227

> <CNNaffinity_variance>
0.3492918909

$$$$
[H]c1c(N([H])C(=O)[C@]2([H])N(C(=O)c3c([H])c([H])c([H])c(C(F)(F)F)c3[H])C([H])([H])c3c([H])c([H])c([H])c([H])c3C2([H])[H])noc1C(C([H])([H])[H])(C([H])([H])[H])C([H])([H])[H]


 35 38  0  0  0  0  0  0  0  0999 V2000
   21.6313    6.8463   54.3801 C   0  0  0  0  0  0  0  0  0  0  0  0
   21.1065    8.0501   55.2489 C   0  0  0  0  0  0  0  0  0  0  0  0
   21.3715    9.3078   54.5433 C   0  0  0  0  0  0  0  0  0  0  0  0
   21.3694   10.5058   55.2985 C   0  0  0  0  0  0  0  0  0  0  0  0
   21.5901   11.7158   54.7106 C   0  0  0  0  0  0  0  0  0  0  0  0
   21.8226   11.7446   53.3234 C   0  0  0  0  0  0  0  0  0  0  0  0
   21.8288   10.5932   52.5859 C   0  0  0  0  0  0  0  0  0  0  0  0
   21.6040    9.3661   53.1895 C   0  0  0  0  0  0  0  0  0  0  0  0
   21.5968    8.1908   52.3056 C   0  0  0  0  0  0  0  0  0  0  0  0
   21.0996    7.0239   53.0841 N   0  0  0  0  0  0  0  0  0  0  0  0
   20.1226    6.2758   52.4624 C   0  0  0  0  0  0  0  0  0  0  0  0
   19.6995    6.6673   51.2780 O   0  0  0  0  0  0  0  0  0  0  0  0
   19.4632    5.0914   52.9337 C   0  0  0  0  0  0  0  0  0  0  0  0
   20.1952    3.8785   52.9838 C   0  0  0  0  0  0  0  0  0  0  0  0
   19.6780    2.7095   53.4770 C   0  0  0  0  0  0  0  0  0  0  0  0
   18.3939    2.6694   53.9583 C   0  0  0  0  0  0  0  0  0  0  0  0
   17.6482    3.8123   53.9360 C   0  0  0  0  0  0  0  0  0  0  0  0
   18.1893    5.0035   53.4268 C   0  0  0  0  0  0  0  0  0  0  0  0
   16.2403    3.8690   54.4434 C   0  0  0  0  0  0  0  0  0  0  0  0
   16.2367    3.7023   55.8143 F   0  0  0  0  0  0  0  0  0  0  0  0
   15.6803    5.0868   54.1531 F   0  0  0  0  0  0  0  0  0  0  0  0
   15.5042    2.8832   53.8139 F   0  0  0  0  0  0  0  0  0  0  0  0
   23.6938    8.0904   53.8255 N   0  0  0  0  0  0  0  0  0  0  0  0
   23.1015    6.9954   54.5373 C   0  0  0  0  0  0  0  0  0  0  0  0
   23.8583    6.2721   55.1950 O   0  0  0  0  0  0  0  0  0  0  0  0
   23.0920    8.7311   53.2711 H   0  0  0  0  0  0  0  0  0  0  0  0
   27.2323    8.7288   54.3597 C   0  0  0  0  0  0  0  0  0  0  0  0
   25.9561    8.5406   54.8292 C   0  0  0  0  0  0  0  0  0  0  0  0
   25.0994    8.2879   53.7849 C   0  0  0  0  0  0  0  0  0  0  0  0
   25.9074    8.3295   52.6925 N   0  0  0  0  0  0  0  0  0  0  0  0
   27.1438    8.5856   53.0438 O   0  0  0  0  0  0  0  0  0  0  0  0
   29.3510    7.8209   55.1297 C   0  0  0  0  0  0  0  0  0  0  0  0
   28.4255    9.0333   55.1883 C   0  0  0  0  0  0  0  0  0  0  0  0
   28.1041    9.2814   56.6346 C   0  0  0  0  0  0  0  0  0  0  0  0
   29.2079   10.2059   54.5979 C   0  0  0  0  0  0  0  0  0  0  0  0
 32 33  1  0  0  0
 33 34  1  0  0  0
 33 35  1  0  0  0
 33 27  1  0  0  0
 27 28  2  0  0  0
 28 29  1  0  0  0
 29 23  1  0  0  0
 23 24  1  0  0  0
 24 25  2  0  0  0
 24  1  1  0  0  0
  1  2  1  0  0  0
  2  3  1  0  0  0
  3  4  2  0  0  0
  4  5  1  0  0  0
  5  6  2  0  0  0
  6  7  1  0  0  0
  7  8  2  0  0  0
  8  9  1  0  0  0
  9 10  1  0  0  0
 10 11  1  0  0  0
 11 12  2  0  0  0
 11 13  1  0  0  0
 13 14  2  0  0  0
 14 15  1  0  0  0
 15 16  2  0  0  0
 16 17  1  0  0  0
 17 18  2  0  0  0
 17 19  1  0  0  0
 19 20  1  0  0  0
 19 21  1  0  0  0
 19 22  1  0  0  0
 29 30  2  0  0  0
 30 31  1  0  0  0
 31 27  1  0  0  0
 10  1  1  0  0  0
 18 13  1  0  0  0
  8  3  1  0  0  0
 23 26  1  0  0  0
M  END
> <minimizedAffinity>
22.36551

> <CNNscore>
0.5513285398

> <CNNaffinity>
6.7945990562

> <CNN_VS>
3.7460563183

> <CNNaffinity_variance>
0.2169901580

$$$$
[H]c1c(N([H])C(=O)[C@]2([H])N(C(=O)c3c([H])c([H])c([H])c(C(F)(F)F)c3[H])C([H])([H])c3c([H])c([H])c([H])c([H])c3C2([H])[H])noc1C(C([H])([H])[H])(C([H])([H])[H])C([H])([H])[H]


 35 38  0  0  0  0  0  0  0  0999 V2000
   21.5310    7.2939   53.7823 C   0  0  0  0  0  0  0  0  0  0  0  0
   21.3484    8.4948   54.7843 C   0  0  0  0  0  0  0  0  0  0  0  0
   21.5060    9.7590   54.0583 C   0  0  0  0  0  0  0  0  0  0  0  0
   21.7945   10.9243   54.8095 C   0  0  0  0  0  0  0  0  0  0  0  0
   21.9377   12.1392   54.2079 C   0  0  0  0  0  0  0  0  0  0  0  0
   21.7910   12.2066   52.8104 C   0  0  0  0  0  0  0  0  0  0  0  0
   21.5147   11.0867   52.0760 C   0  0  0  0  0  0  0  0  0  0  0  0
   21.3705    9.8544   52.6935 C   0  0  0  0  0  0  0  0  0  0  0  0
   21.0402    8.7174   51.8214 C   0  0  0  0  0  0  0  0  0  0  0  0
   20.6858    7.5562   52.6821 N   0  0  0  0  0  0  0  0  0  0  0  0
   19.5256    6.8982   52.3329 C   0  0  0  0  0  0  0  0  0  0  0  0
   18.8303    7.3623   51.3150 O   0  0  0  0  0  0  0  0  0  0  0  0
   18.9316    5.7421   52.9414 C   0  0  0  0  0  0  0  0  0  0  0  0
   17.7066    5.8930   53.6386 C   0  0  0  0  0  0  0  0  0  0  0  0
   17.0273    4.8429   54.1983 C   0  0  0  0  0  0  0  0  0  0  0  0
   17.5213    3.5670   54.0985 C   0  0  0  0  0  0  0  0  0  0  0  0
   18.6962    3.3677   53.4333 C   0  0  0  0  0  0  0  0  0  0  0  0
   19.3835    4.4523   52.8654 C   0  0  0  0  0  0  0  0  0  0  0  0
   19.3117    2.0125   53.2676 C   0  0  0  0  0  0  0  0  0  0  0  0
   18.3868    1.1503   52.7125 F   0  0  0  0  0  0  0  0  0  0  0  0
   20.3958    2.0832   52.4304 F   0  0  0  0  0  0  0  0  0  0  0  0
   19.7373    1.5667   54.5045 F   0  0  0  0  0  0  0  0  0  0  0  0
   23.7716    8.0044   54.5464 N   0  0  0  0  0  0  0  0  0  0  0  0
   22.9963    7.3404   53.5392 C   0  0  0  0  0  0  0  0  0  0  0  0
   23.6050    6.8875   52.5631 O   0  0  0  0  0  0  0  0  0  0  0  0
   23.3014    8.3881   55.3900 H   0  0  0  0  0  0  0  0  0  0  0  0
   27.3087    8.8129   54.7697 C   0  0  0  0  0  0  0  0  0  0  0  0
   26.0665    8.6673   55.3356 C   0  0  0  0  0  0  0  0  0  0  0  0
   25.1654    8.2303   54.3946 C   0  0  0  0  0  0  0  0  0  0  0  0
   25.9126    8.1206   53.2644 N   0  0  0  0  0  0  0  0  0  0  0  0
   27.1560    8.4616   53.4996 O   0  0  0  0  0  0  0  0  0  0  0  0
   29.3777    8.0451   55.7875 C   0  0  0  0  0  0  0  0  0  0  0  0
   28.5324    9.2760   55.4705 C   0  0  0  0  0  0  0  0  0  0  0  0
   28.2515    9.9728   56.7713 C   0  0  0  0  0  0  0  0  0  0  0  0
   29.3780   10.1593   54.5538 C   0  0  0  0  0  0  0  0  0  0  0  0
 32 33  1  0  0  0
 33 34  1  0  0  0
 33 35  1  0  0  0
 33 27  1  0  0  0
 27 28  2  0  0  0
 28 29  1  0  0  0
 29 23  1  0  0  0
 23 24  1  0  0  0
 24 25  2  0  0  0
 24  1  1  0  0  0
  1  2  1  0  0  0
  2  3  1  0  0  0
  3  4  2  0  0  0
  4  5  1  0  0  0
  5  6  2  0  0  0
  6  7  1  0  0  0
  7  8  2  0  0  0
  8  9  1  0  0  0
  9 10  1  0  0  0
 10 11  1  0  0  0
 11 12  2  0  0  0
 11 13  1  0  0  0
 13 14  2  0  0  0
 14 15  1  0  0  0
 15 16  2  0  0  0
 16 17  1  0  0  0
 17 18  2  0  0  0
 17 19  1  0  0  0
 19 20  1  0  0  0
 19 21  1  0  0  0
 19 22  1  0  0  0
 29 30  2  0  0  0
 30 31  1  0  0  0
 31 27  1  0  0  0
 10  1  1  0  0  0
 18 13  1  0  0  0
  8  3  1  0  0  0
 23 26  1  0  0  0
M  END
> <minimizedAffinity>
35.04501

> <CNNscore>
0.5071782470

> <CNNaffinity>
6.4677987099

> <CNN_VS>
3.2803268433

> <CNNaffinity_variance>
0.1856965423

$$$$
[H]c1c(N([H])C(=O)[C@]2([H])N(C(=O)c3c([H])c([H])c([H])c(C(F)(F)F)c3[H])C([H])([H])c3c([H])c([H])c([H])c([H])c3C2([H])[H])noc1C(C([H])([H])[H])(C([H])([H])[H])C([H])([H])[H]


 35 38  0  0  0  0  0  0  0  0999 V2000
   23.8852    7.9990   53.2738 C   0  0  0  0  0  0  0  0  0  0  0  0
   23.0897    9.2507   52.7448 C   0  0  0  0  0  0  0  0  0  0  0  0
   22.3089    9.8277   53.8437 C   0  0  0  0  0  0  0  0  0  0  0  0
   21.2240   10.6758   53.5133 C   0  0  0  0  0  0  0  0  0  0  0  0
   20.4626   11.2633   54.4794 C   0  0  0  0  0  0  0  0  0  0  0  0
   20.7841   11.0032   55.8241 C   0  0  0  0  0  0  0  0  0  0  0  0
   21.8282   10.1840   56.1534 C   0  0  0  0  0  0  0  0  0  0  0  0
   22.5984    9.5895   55.1665 C   0  0  0  0  0  0  0  0  0  0  0  0
   23.7191    8.7536   55.6223 C   0  0  0  0  0  0  0  0  0  0  0  0
   24.5601    8.4158   54.4418 N   0  0  0  0  0  0  0  0  0  0  0  0
   25.9150    8.6069   54.6115 C   0  0  0  0  0  0  0  0  0  0  0  0
   26.3349    9.0918   55.7619 O   0  0  0  0  0  0  0  0  0  0  0  0
   26.9799    8.3558   53.6828 C   0  0  0  0  0  0  0  0  0  0  0  0
   27.9126    7.3297   53.9772 C   0  0  0  0  0  0  0  0  0  0  0  0
   28.9251    6.9692   53.1274 C   0  0  0  0  0  0  0  0  0  0  0  0
   29.0763    7.6057   51.9216 C   0  0  0  0  0  0  0  0  0  0  0  0
   28.2012    8.5987   51.5889 C   0  0  0  0  0  0  0  0  0  0  0  0
   27.1686    8.9597   52.4690 C   0  0  0  0  0  0  0  0  0  0  0  0
   28.2818    9.3472   50.2941 C   0  0  0  0  0  0  0  0  0  0  0  0
   27.0147    9.7345   49.9051 F   0  0  0  0  0  0  0  0  0  0  0  0
   29.0524   10.4718   50.4437 F   0  0  0  0  0  0  0  0  0  0  0  0
   28.8718    8.5303   49.3482 F   0  0  0  0  0  0  0  0  0  0  0  0
   21.4795    7.4667   53.0772 N   0  0  0  0  0  0  0  0  0  0  0  0
   22.7894    7.0089   53.4393 C   0  0  0  0  0  0  0  0  0  0  0  0
   22.8870    5.8533   53.8678 O   0  0  0  0  0  0  0  0  0  0  0  0
   21.3546    8.4268   52.7000 H   0  0  0  0  0  0  0  0  0  0  0  0
   18.9297    4.9343   53.6246 C   0  0  0  0  0  0  0  0  0  0  0  0
   20.2428    5.3237   53.5320 C   0  0  0  0  0  0  0  0  0  0  0  0
   20.3206    6.6746   53.2920 C   0  0  0  0  0  0  0  0  0  0  0  0
   19.0197    7.0663   53.2500 N   0  0  0  0  0  0  0  0  0  0  0  0
   18.2242    6.0434   53.4463 O   0  0  0  0  0  0  0  0  0  0  0  0
   16.9262    3.5957   53.9409 C   0  0  0  0  0  0  0  0  0  0  0  0
   18.4502    3.5507   53.8669 C   0  0  0  0  0  0  0  0  0  0  0  0
   18.9436    2.9621   55.1580 C   0  0  0  0  0  0  0  0  0  0  0  0
   18.8012    2.6433   52.6883 C   0  0  0  0  0  0  0  0  0  0  0  0
 32 33  1  0  0  0
 33 34  1  0  0  0
 33 35  1  0  0  0
 33 27  1  0  0  0
 27 28  2  0  0  0
 28 29  1  0  0  0
 29 23  1  0  0  0
 23 24  1  0  0  0
 24 25  2  0  0  0
 24  1  1  0  0  0
  1  2  1  0  0  0
  2  3  1  0  0  0
  3  4  2  0  0  0
  4  5  1  0  0  0
  5  6  2  0  0  0
  6  7  1  0  0  0
  7  8  2  0  0  0
  8  9  1  0  0  0
  9 10  1  0  0  0
 10 11  1  0  0  0
 11 12  2  0  0  0
 11 13  1  0  0  0
 13 14  2  0  0  0
 14 15  1  0  0  0
 15 16  2  0  0  0
 16 17  1  0  0  0
 17 18  2  0  0  0
 17 19  1  0  0  0
 19 20  1  0  0  0
 19 21  1  0  0  0
 19 22  1  0  0  0
 29 30  2  0  0  0
 30 31  1  0  0  0
 31 27  1  0  0  0
 10  1  1  0  0  0
 18 13  1  0  0  0
  8  3  1  0  0  0
 23 26  1  0  0  0
M  END
> <minimizedAffinity>
45.96117

> <CNNscore>
0.5031690001

> <CNNaffinity>
6.5114531517

> <CNN_VS>
3.2763614655

> <CNNaffinity_variance>
0.4089174271

$$$$
[H]c1c(N([H])C(=O)[C@]2([H])N(C(=O)c3c([H])c([H])c([H])c(C(F)(F)F)c3[H])C([H])([H])c3c([H])c([H])c([H])c([H])c3C2([H])[H])noc1C(C([H])([H])[H])(C([H])([H])[H])C([H])([H])[H]


 35 38  0  0  0  0  0  0  0  0999 V2000
   21.6756    6.7028   52.7186 C   0  0  0  0  0  0  0  0  0  0  0  0
   23.1421    6.2813   52.3301 C   0  0  0  0  0  0  0  0  0  0  0  0
   24.0881    6.9103   53.2572 C   0  0  0  0  0  0  0  0  0  0  0  0
   25.4426    7.0117   52.8563 C   0  0  0  0  0  0  0  0  0  0  0  0
   26.3840    7.5677   53.6705 C   0  0  0  0  0  0  0  0  0  0  0  0
   25.9726    8.0427   54.9292 C   0  0  0  0  0  0  0  0  0  0  0  0
   24.6668    7.9514   55.3246 C   0  0  0  0  0  0  0  0  0  0  0  0
   23.7143    7.3852   54.4922 C   0  0  0  0  0  0  0  0  0  0  0  0
   22.3451    7.3020   55.0220 C   0  0  0  0  0  0  0  0  0  0  0  0
   21.5390    6.4543   54.1018 N   0  0  0  0  0  0  0  0  0  0  0  0
   20.7865    5.4743   54.7135 C   0  0  0  0  0  0  0  0  0  0  0  0
   20.8697    5.3530   56.0224 O   0  0  0  0  0  0  0  0  0  0  0  0
   19.8968    4.5209   54.1141 C   0  0  0  0  0  0  0  0  0  0  0  0
   20.4428    3.5011   53.2948 C   0  0  0  0  0  0  0  0  0  0  0  0
   19.6876    2.5072   52.7299 C   0  0  0  0  0  0  0  0  0  0  0  0
   18.3337    2.4590   52.9460 C   0  0  0  0  0  0  0  0  0  0  0  0
   17.7595    3.4162   53.7313 C   0  0  0  0  0  0  0  0  0  0  0  0
   18.5441    4.4302   54.3033 C   0  0  0  0  0  0  0  0  0  0  0  0
   16.2920    3.4444   54.0291 C   0  0  0  0  0  0  0  0  0  0  0  0
   15.6584    2.4407   53.3232 F   0  0  0  0  0  0  0  0  0  0  0  0
   16.0755    3.2367   55.3674 F   0  0  0  0  0  0  0  0  0  0  0  0
   15.7966    4.6891   53.6896 F   0  0  0  0  0  0  0  0  0  0  0  0
   21.6361    9.0975   53.3294 N   0  0  0  0  0  0  0  0  0  0  0  0
   21.6563    8.1220   52.2784 C   0  0  0  0  0  0  0  0  0  0  0  0
   21.6380    8.5419   51.1157 O   0  0  0  0  0  0  0  0  0  0  0  0
   21.6639    8.7880   54.3210 H   0  0  0  0  0  0  0  0  0  0  0  0
   21.3215   12.4741   52.0204 C   0  0  0  0  0  0  0  0  0  0  0  0
   21.3695   11.1131   51.8479 C   0  0  0  0  0  0  0  0  0  0  0  0
   21.4977   10.4856   53.0638 C   0  0  0  0  0  0  0  0  0  0  0  0
   21.5201   11.5140   53.9524 N   0  0  0  0  0  0  0  0  0  0  0  0
   21.4155   12.6626   53.3301 O   0  0  0  0  0  0  0  0  0  0  0  0
   20.0689   14.4357   51.3210 C   0  0  0  0  0  0  0  0  0  0  0  0
   21.1974   13.4819   50.9378 C   0  0  0  0  0  0  0  0  0  0  0  0
   20.8476   12.8885   49.6028 C   0  0  0  0  0  0  0  0  0  0  0  0
   22.4664   14.3278   50.8395 C   0  0  0  0  0  0  0  0  0  0  0  0
 32 33  1  0  0  0
 33 34  1  0  0  0
 33 35  1  0  0  0
 33 27  1  0  0  0
 27 28  2  0  0  0
 28 29  1  0  0  0
 29 23  1  0  0  0
 23 24  1  0  0  0
 24 25  2  0  0  0
 24  1  1  0  0  0
  1  2  1  0  0  0
  2  3  1  0  0  0
  3  4  2  0  0  0
  4  5  1  0  0  0
  5  6  2  0  0  0
  6  7  1  0  0  0
  7  8  2  0  0  0
  8  9  1  0  0  0
  9 10  1  0  0  0
 10 11  1  0  0  0
 11 12  2  0  0  0
 11 13  1  0  0  0
 13 14  2  0  0  0
 14 15  1  0  0  0
 15 16  2  0  0  0
 16 17  1  0  0  0
 17 18  2  0  0  0
 17 19  1  0  0  0
 19 20  1  0  0  0
 19 21  1  0  0  0
 19 22  1  0  0  0
 29 30  2  0  0  0
 30 31  1  0  0  0
 31 27  1  0  0  0
 10  1  1  0  0  0
 18 13  1  0  0  0
  8  3  1  0  0  0
 23 26  1  0  0  0
M  END
> <minimizedAffinity>
42.66357

> <CNNscore>
0.4624782503

> <CNNaffinity>
6.1815719604

> <CNN_VS>
2.8588426113

> <CNNaffinity_variance>
0.2255220413

$$$$
[H]c1c(N([H])C(=O)[C@]2([H])N(C(=O)c3c([H])c([H])c([H])c(C(F)(F)F)c3[H])C([H])([H])c3c([H])c([H])c([H])c([H])c3C2([H])[H])noc1C(C([H])([H])[H])(C([H])([H])[H])C([H])([H])[H]


 35 38  0  0  0  0  0  0  0  0999 V2000
   21.4432    8.3054   54.1395 C   0  0  0  0  0  0  0  0  0  0  0  0
   20.7823    9.6598   54.5954 C   0  0  0  0  0  0  0  0  0  0  0  0
   21.1402   10.7171   53.6445 C   0  0  0  0  0  0  0  0  0  0  0  0
   21.0130   12.0623   54.0687 C   0  0  0  0  0  0  0  0  0  0  0  0
   21.3098   13.1001   53.2361 C   0  0  0  0  0  0  0  0  0  0  0  0
   21.7496   12.7986   51.9342 C   0  0  0  0  0  0  0  0  0  0  0  0
   21.8777   11.5031   51.5159 C   0  0  0  0  0  0  0  0  0  0  0  0
   21.5747   10.4524   52.3673 C   0  0  0  0  0  0  0  0  0  0  0  0
   21.7119    9.0973   51.8128 C   0  0  0  0  0  0  0  0  0  0  0  0
   21.1127    8.1352   52.7773 N   0  0  0  0  0  0  0  0  0  0  0  0
   20.2479    7.2131   52.2271 C   0  0  0  0  0  0  0  0  0  0  0  0
   20.0058    7.2824   50.9342 O   0  0  0  0  0  0  0  0  0  0  0  0
   19.5350    6.1513   52.8783 C   0  0  0  0  0  0  0  0  0  0  0  0
   18.3516    6.4638   53.5933 C   0  0  0  0  0  0  0  0  0  0  0  0
   17.5654    5.5161   54.1943 C   0  0  0  0  0  0  0  0  0  0  0  0
   17.9034    4.1885   54.1211 C   0  0  0  0  0  0  0  0  0  0  0  0
   19.0321    3.8348   53.4403 C   0  0  0  0  0  0  0  0  0  0  0  0
   19.8301    4.8155   52.8299 C   0  0  0  0  0  0  0  0  0  0  0  0
   19.4800    2.4124   53.3011 C   0  0  0  0  0  0  0  0  0  0  0  0
   18.4873    1.6739   52.6877 F   0  0  0  0  0  0  0  0  0  0  0  0
   20.6111    2.3449   52.5284 F   0  0  0  0  0  0  0  0  0  0  0  0
   19.7733    1.9170   54.5575 F   0  0  0  0  0  0  0  0  0  0  0  0
   23.8254    7.9215   53.6035 N   0  0  0  0  0  0  0  0  0  0  0  0
   22.8712    8.5562   54.4656 C   0  0  0  0  0  0  0  0  0  0  0  0
   23.3149    9.2318   55.4011 O   0  0  0  0  0  0  0  0  0  0  0  0
   23.4954    7.3553   52.7970 H   0  0  0  0  0  0  0  0  0  0  0  0
   27.2410    8.5159   54.6963 C   0  0  0  0  0  0  0  0  0  0  0  0
   25.8860    8.6978   54.8199 C   0  0  0  0  0  0  0  0  0  0  0  0
   25.2211    7.9728   53.8603 C   0  0  0  0  0  0  0  0  0  0  0  0
   26.2213    7.3593   53.1741 N   0  0  0  0  0  0  0  0  0  0  0  0
   27.3888    7.6844   53.6732 O   0  0  0  0  0  0  0  0  0  0  0  0
   29.3788    8.1084   55.7778 C   0  0  0  0  0  0  0  0  0  0  0  0
   28.2820    9.1447   55.5472 C   0  0  0  0  0  0  0  0  0  0  0  0
   27.7774    9.5699   56.8967 C   0  0  0  0  0  0  0  0  0  0  0  0
   28.9384   10.3174   54.8196 C   0  0  0  0  0  0  0  0  0  0  0  0
 32 33  1  0  0  0
 33 34  1  0  0  0
 33 35  1  0  0  0
 33 27  1  0  0  0
 27 28  2  0  0  0
 28 29  1  0  0  0
 29 23  1  0  0  0
 23 24  1  0  0  0
 24 25  2  0  0  0
 24  1  1  0  0  0
  1  2  1  0  0  0
  2  3  1  0  0  0
  3  4  2  0  0  0
  4  5  1  0  0  0
  5  6  2  0  0  0
  6  7  1  0  0  0
  7  8  2  0  0  0
  8  9  1  0  0  0
  9 10  1  0  0  0
 10 11  1  0  0  0
 11 12  2  0  0  0
 11 13  1  0  0  0
 13 14  2  0  0  0
 14 15  1  0  0  0
 15 16  2  0  0  0
 16 17  1  0  0  0
 17 18  2  0  0  0
 17 19  1  0  0  0
 19 20  1  0  0  0
 19 21  1  0  0  0
 19 22  1  0  0  0
 29 30  2  0  0  0
 30 31  1  0  0  0
 31 27  1  0  0  0
 10  1  1  0  0  0
 18 13  1  0  0  0
  8  3  1  0  0  0
 23 26  1  0  0  0
M  END
> <minimizedAffinity>
33.94652

> <CNNscore>
0.4316600263

> <CNNaffinity>
6.4738912582

> <CNN_VS>
2.7945201397

> <CNNaffinity_variance>
0.2470423728

$$$$
[H]c1c(N([H])C(=O)[C@]2([H])N(C(=O)c3c([H])c([H])c([H])c(C(F)(F)F)c3[H])C([H])([H])c3c([H])c([H])c([H])c([H])c3C2([H])[H])noc1C(C([H])([H])[H])(C([H])([H])[H])C([H])([H])[H]


 35 38  0  0  0  0  0  0  0  0999 V2000
   22.1221    6.7169   54.0497 C   0  0  0  0  0  0  0  0  0  0  0  0
   21.9930    7.6692   55.2970 C   0  0  0  0  0  0  0  0  0  0  0  0
   22.1052    9.0630   54.8554 C   0  0  0  0  0  0  0  0  0  0  0  0
   22.4322   10.0422   55.8248 C   0  0  0  0  0  0  0  0  0  0  0  0
   22.5373   11.3606   55.4945 C   0  0  0  0  0  0  0  0  0  0  0  0
   22.3112   11.7269   54.1551 C   0  0  0  0  0  0  0  0  0  0  0  0
   21.9971   10.7886   53.2113 C   0  0  0  0  0  0  0  0  0  0  0  0
   21.8921    9.4498   53.5534 C   0  0  0  0  0  0  0  0  0  0  0  0
   21.5163    8.5237   52.4746 C   0  0  0  0  0  0  0  0  0  0  0  0
   21.2150    7.1983   53.0807 N   0  0  0  0  0  0  0  0  0  0  0  0
   20.0389    6.6139   52.6610 C   0  0  0  0  0  0  0  0  0  0  0  0
   19.2854    7.2767   51.8078 O   0  0  0  0  0  0  0  0  0  0  0  0
   19.4841    5.3444   53.0355 C   0  0  0  0  0  0  0  0  0  0  0  0
   20.3257    4.2037   53.0258 C   0  0  0  0  0  0  0  0  0  0  0  0
   19.9105    2.9611   53.4269 C   0  0  0  0  0  0  0  0  0  0  0  0
   18.6261    2.7700   53.8695 C   0  0  0  0  0  0  0  0  0  0  0  0
   17.7768    3.8378   53.9019 C   0  0  0  0  0  0  0  0  0  0  0  0
   18.2141    5.1058   53.4869 C   0  0  0  0  0  0  0  0  0  0  0  0
   16.3595    3.7296   54.3735 C   0  0  0  0  0  0  0  0  0  0  0  0
   15.6894    4.9045   54.0951 F   0  0  0  0  0  0  0  0  0  0  0  0
   15.7215    2.7025   53.7262 F   0  0  0  0  0  0  0  0  0  0  0  0
   16.3647    3.4615   55.7293 F   0  0  0  0  0  0  0  0  0  0  0  0
   24.0481    8.1704   53.5137 N   0  0  0  0  0  0  0  0  0  0  0  0
   23.5712    6.8375   53.7426 C   0  0  0  0  0  0  0  0  0  0  0  0
   24.3924    5.9182   53.6481 O   0  0  0  0  0  0  0  0  0  0  0  0
   23.3941    8.9736   53.5963 H   0  0  0  0  0  0  0  0  0  0  0  0
   27.1815    9.0166   51.8765 C   0  0  0  0  0  0  0  0  0  0  0  0
   25.8096    8.9966   51.9189 C   0  0  0  0  0  0  0  0  0  0  0  0
   25.3799    8.4304   53.0950 C   0  0  0  0  0  0  0  0  0  0  0  0
   26.5355    8.1227   53.7414 N   0  0  0  0  0  0  0  0  0  0  0  0
   27.5731    8.4708   53.0205 O   0  0  0  0  0  0  0  0  0  0  0  0
   27.1108   10.4258   49.8979 C   0  0  0  0  0  0  0  0  0  0  0  0
   28.0075    9.5418   50.7608 C   0  0  0  0  0  0  0  0  0  0  0  0
   28.5666    8.4681   49.8712 C   0  0  0  0  0  0  0  0  0  0  0  0
   29.1230   10.4414   51.2917 C   0  0  0  0  0  0  0  0  0  0  0  0
 32 33  1  0  0  0
 33 34  1  0  0  0
 33 35  1  0  0  0
 33 27  1  0  0  0
 27 28  2  0  0  0
 28 29  1  0  0  0
 29 23  1  0  0  0
 23 24  1  0  0  0
 24 25  2  0  0  0
 24  1  1  0  0  0
  1  2  1  0  0  0
  2  3  1  0  0  0
  3  4  2  0  0  0
  4  5  1  0  0  0
  5  6  2  0  0  0
  6  7  1  0  0  0
  7  8  2  0  0  0
  8  9  1  0  0  0
  9 10  1  0  0  0
 10 11  1  0  0  0
 11 12  2  0  0  0
 11 13  1  0  0  0
 13 14  2  0  0  0
 14 15  1  0  0  0
 15 16  2  0  0  0
 16 17  1  0  0  0
 17 18  2  0  0  0
 17 19  1  0  0  0
 19 20  1  0  0  0
 19 21  1  0  0  0
 19 22  1  0  0  0
 29 30  2  0  0  0
 30 31  1  0  0  0
 31 27  1  0  0  0
 10  1  1  0  0  0
 18 13  1  0  0  0
  8  3  1  0  0  0
 23 26  1  0  0  0
M  END
> <minimizedAffinity>
41.87615

> <CNNscore>
0.3703252971

> <CNNaffinity>
6.2647843361

> <CNN_VS>
2.3200080395

> <CNNaffinity_variance>
0.1710173339

$$$$
[H]c1c(N([H])C(=O)[C@]2([H])N(C(=O)c3c([H])c([H])c([H])c(C(F)(F)F)c3[H])C([H])([H])c3c([H])c([H])c([H])c([H])c3C2([H])[H])noc1C(C([H])([H])[H])(C([H])([H])[H])C([H])([H])[H]


 35 38  0  0  0  0  0  0  0  0999 V2000
   23.3377    7.2720   54.1879 C   0  0  0  0  0  0  0  0  0  0  0  0
   23.3051    7.3452   52.6154 C   0  0  0  0  0  0  0  0  0  0  0  0
   22.0286    7.9236   52.1842 C   0  0  0  0  0  0  0  0  0  0  0  0
   21.6172    7.7018   50.8473 C   0  0  0  0  0  0  0  0  0  0  0  0
   20.4518    8.2217   50.3679 C   0  0  0  0  0  0  0  0  0  0  0  0
   19.6612    8.9900   51.2420 C   0  0  0  0  0  0  0  0  0  0  0  0
   20.0487    9.2079   52.5351 C   0  0  0  0  0  0  0  0  0  0  0  0
   21.2346    8.6764   53.0166 C   0  0  0  0  0  0  0  0  0  0  0  0
   21.5796    8.9960   54.4099 C   0  0  0  0  0  0  0  0  0  0  0  0
   22.9791    8.5543   54.6576 N   0  0  0  0  0  0  0  0  0  0  0  0
   23.7885    9.4846   55.2744 C   0  0  0  0  0  0  0  0  0  0  0  0
   23.2769   10.6658   55.5533 O   0  0  0  0  0  0  0  0  0  0  0  0
   25.1634    9.3586   55.6662 C   0  0  0  0  0  0  0  0  0  0  0  0
   25.4932    9.4732   57.0401 C   0  0  0  0  0  0  0  0  0  0  0  0
   26.7643    9.3050   57.5234 C   0  0  0  0  0  0  0  0  0  0  0  0
   27.7957    9.0071   56.6694 C   0  0  0  0  0  0  0  0  0  0  0  0
   27.5296    8.8819   55.3366 C   0  0  0  0  0  0  0  0  0  0  0  0
   26.2231    9.0580   54.8537 C   0  0  0  0  0  0  0  0  0  0  0  0
   28.5873    8.5538   54.3283 C   0  0  0  0  0  0  0  0  0  0  0  0
   27.9918    8.1857   53.1379 F   0  0  0  0  0  0  0  0  0  0  0  0
   29.3782    9.6501   54.0969 F   0  0  0  0  0  0  0  0  0  0  0  0
   29.3772    7.5378   54.8320 F   0  0  0  0  0  0  0  0  0  0  0  0
   21.4155    5.9245   53.4141 N   0  0  0  0  0  0  0  0  0  0  0  0
   22.3829    6.1628   54.4456 C   0  0  0  0  0  0  0  0  0  0  0  0
   22.3263    5.4461   55.4514 O   0  0  0  0  0  0  0  0  0  0  0  0
   21.4359    6.4953   52.5460 H   0  0  0  0  0  0  0  0  0  0  0  0
   18.3641    4.0248   53.9566 C   0  0  0  0  0  0  0  0  0  0  0  0
   19.0353    5.2134   53.8111 C   0  0  0  0  0  0  0  0  0  0  0  0
   20.3678    4.9788   53.5704 C   0  0  0  0  0  0  0  0  0  0  0  0
   20.4586    3.6225   53.5754 N   0  0  0  0  0  0  0  0  0  0  0  0
   19.2854    3.0833   53.7999 O   0  0  0  0  0  0  0  0  0  0  0  0
   16.7664    3.4471   55.6943 C   0  0  0  0  0  0  0  0  0  0  0  0
   16.9142    3.8759   54.2367 C   0  0  0  0  0  0  0  0  0  0  0  0
   16.2443    2.8295   53.3924 C   0  0  0  0  0  0  0  0  0  0  0  0
   16.1978    5.2195   54.1045 C   0  0  0  0  0  0  0  0  0  0  0  0
 32 33  1  0  0  0
 33 34  1  0  0  0
 33 35  1  0  0  0
 33 27  1  0  0  0
 27 28  2  0  0  0
 28 29  1  0  0  0
 29 23  1  0  0  0
 23 24  1  0  0  0
 24 25  2  0  0  0
 24  1  1  0  0  0
  1  2  1  0  0  0
  2  3  1  0  0  0
  3  4  2  0  0  0
  4  5  1  0  0  0
  5  6  2  0  0  0
  6  7  1  0  0  0
  7  8  2  0  0  0
  8  9  1  0  0  0
  9 10  1  0  0  0
 10 11  1  0  0  0
 11 12  2  0  0  0
 11 13  1  0  0  0
 13 14  2  0  0  0
 14 15  1  0  0  0
 15 16  2  0  0  0
 16 17  1  0  0  0
 17 18  2  0  0  0
 17 19  1  0  0  0
 19 20  1  0  0  0
 19 21  1  0  0  0
 19 22  1  0  0  0
 29 30  2  0  0  0
 30 31  1  0  0  0
 31 27  1  0  0  0
 10  1  1  0  0  0
 18 13  1  0  0  0
  8  3  1  0  0  0
 23 26  1  0  0  0
M  END
> <minimizedAffinity>
32.50185

> <CNNscore>
0.3586493134

> <CNNaffinity>
6.3253183365

> <CNN_VS>
2.2685711384

> <CNNaffinity_variance>
0.3941606581

$$$$
[H]c1c(N([H])C(=O)[C@]2([H])N(C(=O)c3c([H])c([H])c([H])c(C(F)(F)F)c3[H])C([H])([H])c3c([H])c([H])c([H])c([H])c3C2([H])[H])noc1C(C([H])([H])[H])(C([H])([H])[H])C([H])([H])[H]


 35 38  0  0  0  0  0  0  0  0999 V2000
   23.5762    7.0951   54.1036 C   0  0  0  0  0  0  0  0  0  0  0  0
   23.4154    7.2351   52.5435 C   0  0  0  0  0  0  0  0  0  0  0  0
   22.1574    7.9276   52.2470 C   0  0  0  0  0  0  0  0  0  0  0  0
   21.6168    7.7934   50.9450 C   0  0  0  0  0  0  0  0  0  0  0  0
   20.4603    8.4209   50.5885 C   0  0  0  0  0  0  0  0  0  0  0  0
   19.8117    9.2113   51.5549 C   0  0  0  0  0  0  0  0  0  0  0  0
   20.3245    9.3454   52.8153 C   0  0  0  0  0  0  0  0  0  0  0  0
   21.5006    8.7046   53.1717 C   0  0  0  0  0  0  0  0  0  0  0  0
   21.9880    8.9391   54.5391 C   0  0  0  0  0  0  0  0  0  0  0  0
   23.3634    8.3809   54.6468 N   0  0  0  0  0  0  0  0  0  0  0  0
   24.2948    9.2197   55.2210 C   0  0  0  0  0  0  0  0  0  0  0  0
   23.9057   10.4245   55.5844 O   0  0  0  0  0  0  0  0  0  0  0  0
   25.6835    8.9719   55.4852 C   0  0  0  0  0  0  0  0  0  0  0  0
   26.5080    8.5178   54.4253 C   0  0  0  0  0  0  0  0  0  0  0  0
   27.8564    8.3139   54.5576 C   0  0  0  0  0  0  0  0  0  0  0  0
   28.4780    8.5524   55.7571 C   0  0  0  0  0  0  0  0  0  0  0  0
   27.7288    8.9949   56.8086 C   0  0  0  0  0  0  0  0  0  0  0  0
   26.3476    9.1986   56.6605 C   0  0  0  0  0  0  0  0  0  0  0  0
   28.3174    9.2876   58.1543 C   0  0  0  0  0  0  0  0  0  0  0  0
   28.7618   10.5946   58.1894 F   0  0  0  0  0  0  0  0  0  0  0  0
   27.3694    9.1253   59.1320 F   0  0  0  0  0  0  0  0  0  0  0  0
   29.3491    8.3981   58.3877 F   0  0  0  0  0  0  0  0  0  0  0  0
   21.6299    5.7691   53.3534 N   0  0  0  0  0  0  0  0  0  0  0  0
   22.5608    6.0532   54.4067 C   0  0  0  0  0  0  0  0  0  0  0  0
   22.4268    5.4279   55.4647 O   0  0  0  0  0  0  0  0  0  0  0  0
   21.7149    6.2625   52.4428 H   0  0  0  0  0  0  0  0  0  0  0  0
   18.4935    4.0461   53.9925 C   0  0  0  0  0  0  0  0  0  0  0  0
   19.2295    5.1948   53.8402 C   0  0  0  0  0  0  0  0  0  0  0  0
   20.5338    4.8853   53.5375 C   0  0  0  0  0  0  0  0  0  0  0  0
   20.5414    3.5262   53.5131 N   0  0  0  0  0  0  0  0  0  0  0  0
   19.3479    3.0542   53.7784 O   0  0  0  0  0  0  0  0  0  0  0  0
   16.4726    5.3834   54.1762 C   0  0  0  0  0  0  0  0  0  0  0  0
   17.0503    3.9792   54.3327 C   0  0  0  0  0  0  0  0  0  0  0  0
   16.7865    3.5418   55.7454 C   0  0  0  0  0  0  0  0  0  0  0  0
   16.3025    3.0889   53.3409 C   0  0  0  0  0  0  0  0  0  0  0  0
 32 33  1  0  0  0
 33 34  1  0  0  0
 33 35  1  0  0  0
 33 27  1  0  0  0
 27 28  2  0  0  0
 28 29  1  0  0  0
 29 23  1  0  0  0
 23 24  1  0  0  0
 24 25  2  0  0  0
 24  1  1  0  0  0
  1  2  1  0  0  0
  2  3  1  0  0  0
  3  4  2  0  0  0
  4  5  1  0  0  0
  5  6  2  0  0  0
  6  7  1  0  0  0
  7  8  2  0  0  0
  8  9  1  0  0  0
  9 10  1  0  0  0
 10 11  1  0  0  0
 11 12  2  0  0  0
 11 13  1  0  0  0
 13 14  2  0  0  0
 14 15  1  0  0  0
 15 16  2  0  0  0
 16 17  1  0  0  0
 17 18  2  0  0  0
 17 19  1  0  0  0
 19 20  1  0  0  0
 19 21  1  0  0  0
 19 22  1  0  0  0
 29 30  2  0  0  0
 30 31  1  0  0  0
 31 27  1  0  0  0
 10  1  1  0  0  0
 18 13  1  0  0  0
  8  3  1  0  0  0
 23 26  1  0  0  0
M  END
> <minimizedAffinity>
25.81368

> <CNNscore>
0.3413162827

> <CNNaffinity>
6.3359932899

> <CNN_VS>
2.1625776291

> <CNNaffinity_variance>
0.2699107528

$$$$
[H]c1c(N([H])C(=O)[C@]2([H])N(C(=O)c3c([H])c([H])c([H])c(C(F)(F)F)c3[H])C([H])([H])c3c([H])c([H])c([H])c([H])c3C2([H])[H])noc1C(C([H])([H])[H])(C([H])([H])[H])C([H])([H])[H]


 35 38  0  0  0  0  0  0  0  0999 V2000
   21.2093    6.9736   54.4760 C   0  0  0  0  0  0  0  0  0  0  0  0
   20.9628    8.3965   55.1035 C   0  0  0  0  0  0  0  0  0  0  0  0
   21.2954    9.4261   54.1138 C   0  0  0  0  0  0  0  0  0  0  0  0
   21.5471   10.7391   54.5809 C   0  0  0  0  0  0  0  0  0  0  0  0
   21.8453   11.7535   53.7204 C   0  0  0  0  0  0  0  0  0  0  0  0
   21.8975   11.4606   52.3454 C   0  0  0  0  0  0  0  0  0  0  0  0
   21.6581   10.1955   51.8847 C   0  0  0  0  0  0  0  0  0  0  0  0
   21.3558    9.1685   52.7647 C   0  0  0  0  0  0  0  0  0  0  0  0
   21.0811    7.8525   52.1687 C   0  0  0  0  0  0  0  0  0  0  0  0
   20.5417    6.9617   53.2319 N   0  0  0  0  0  0  0  0  0  0  0  0
   19.4033    6.2625   52.8911 C   0  0  0  0  0  0  0  0  0  0  0  0
   18.8846    6.4634   51.6972 O   0  0  0  0  0  0  0  0  0  0  0  0
   18.6621    5.3169   53.6762 C   0  0  0  0  0  0  0  0  0  0  0  0
   17.2929    5.1068   53.3755 C   0  0  0  0  0  0  0  0  0  0  0  0
   16.5158    4.1818   54.0220 C   0  0  0  0  0  0  0  0  0  0  0  0
   17.0518    3.3985   55.0124 C   0  0  0  0  0  0  0  0  0  0  0  0
   18.3677    3.5592   55.3371 C   0  0  0  0  0  0  0  0  0  0  0  0
   19.1530    4.5115   54.6681 C   0  0  0  0  0  0  0  0  0  0  0  0
   19.0432    2.7481   56.3996 C   0  0  0  0  0  0  0  0  0  0  0  0
   19.6399    1.6423   55.8267 F   0  0  0  0  0  0  0  0  0  0  0  0
   20.0141    3.4927   57.0192 F   0  0  0  0  0  0  0  0  0  0  0  0
   18.1003    2.3809   57.3409 F   0  0  0  0  0  0  0  0  0  0  0  0
   23.3548    8.1750   54.2255 N   0  0  0  0  0  0  0  0  0  0  0  0
   22.6943    6.9221   54.4504 C   0  0  0  0  0  0  0  0  0  0  0  0
   23.4081    5.9215   54.5833 O   0  0  0  0  0  0  0  0  0  0  0  0
   22.7930    9.0430   54.1217 H   0  0  0  0  0  0  0  0  0  0  0  0
   26.9602    8.5948   54.4217 C   0  0  0  0  0  0  0  0  0  0  0  0
   25.7181    8.5453   55.0039 C   0  0  0  0  0  0  0  0  0  0  0  0
   24.7622    8.2631   54.0579 C   0  0  0  0  0  0  0  0  0  0  0  0
   25.4769    8.1453   52.9077 N   0  0  0  0  0  0  0  0  0  0  0  0
   26.7527    8.3397   53.1365 O   0  0  0  0  0  0  0  0  0  0  0  0
   28.8467   10.1258   54.4784 C   0  0  0  0  0  0  0  0  0  0  0  0
   28.2362    8.8840   55.1227 C   0  0  0  0  0  0  0  0  0  0  0  0
   29.2469    7.7784   55.0094 C   0  0  0  0  0  0  0  0  0  0  0  0
   27.9797    9.2362   56.5875 C   0  0  0  0  0  0  0  0  0  0  0  0
 32 33  1  0  0  0
 33 34  1  0  0  0
 33 35  1  0  0  0
 33 27  1  0  0  0
 27 28  2  0  0  0
 28 29  1  0  0  0
 29 23  1  0  0  0
 23 24  1  0  0  0
 24 25  2  0  0  0
 24  1  1  0  0  0
  1  2  1  0  0  0
  2  3  1  0  0  0
  3  4  2  0  0  0
  4  5  1  0  0  0
  5  6  2  0  0  0
  6  7  1  0  0  0
  7  8  2  0  0  0
  8  9  1  0  0  0
  9 10  1  0  0  0
 10 11  1  0  0  0
 11 12  2  0  0  0
 11 13  1  0  0  0
 13 14  2  0  0  0
 14 15  1  0  0  0
 15 16  2  0  0  0
 16 17  1  0  0  0
 17 18  2  0  0  0
 17 19  1  0  0  0
 19 20  1  0  0  0
 19 21  1  0  0  0
 19 22  1  0  0  0
 29 30  2  0  0  0
 30 31  1  0  0  0
 31 27  1  0  0  0
 10  1  1  0  0  0
 18 13  1  0  0  0
  8  3  1  0  0  0
 23 26  1  0  0  0
M  END
> <minimizedAffinity>
35.69926

> <CNNscore>
0.3303180933

> <CNNaffinity>
6.2642087936

> <CNN_VS>
2.0691814423

> <CNNaffinity_variance>
0.3173685968

$$$$
[H]N=C(N([H])[H])N([H])C([H])([H])C([H])([H])C([H])([H])[C@@]1([H])C(=O)N2C([H])([H])C([H])([H])C([H])([H])[C@@]2([H])C(=O)N([H])[C@@]([H])(C([H])([H])c2c([H])c([H])c([H])c([H])c2[H])C(=O)N([H])[C@]([H])(C([H])([H])c2c([H])c([H])c([H])c([H])c2[H])C(=O)N2C([H])([H])C([H])([H])C([H])([H])[C@@]2([H])C(=O)N1[H]


 54 58  0  0  0  0  0  0  0  0999 V2000
   24.3851    8.9688   55.5734 C   0  0  0  0  0  0  0  0  0  0  0  0
   23.5856    8.1883   56.4807 N   0  0  0  0  0  0  0  0  0  0  0  0
   22.4175    7.4835   56.4352 C   0  0  0  0  0  0  0  0  0  0  0  0
   21.4944    8.0142   57.2349 O   0  0  0  0  0  0  0  0  0  0  0  0
   21.8090    6.3328   55.8120 C   0  0  0  0  0  0  0  0  0  0  0  0
   21.4791    5.4049   57.0394 C   0  0  0  0  0  0  0  0  0  0  0  0
   22.8120    4.7625   57.3283 C   0  0  0  0  0  0  0  0  0  0  0  0
   23.5760    4.9634   56.0498 C   0  0  0  0  0  0  0  0  0  0  0  0
   22.5501    5.3674   55.0598 N   0  0  0  0  0  0  0  0  0  0  0  0
   22.2920    4.9509   53.7126 C   0  0  0  0  0  0  0  0  0  0  0  0
   23.3546    5.1170   52.9758 O   0  0  0  0  0  0  0  0  0  0  0  0
   21.1628    4.4084   53.0199 C   0  0  0  0  0  0  0  0  0  0  0  0
   20.2300    5.2560   52.3393 N   0  0  0  0  0  0  0  0  0  0  0  0
   19.5938    6.4617   52.6213 C   0  0  0  0  0  0  0  0  0  0  0  0
   18.3919    6.3697   53.1605 O   0  0  0  0  0  0  0  0  0  0  0  0
   19.9835    7.8702   52.4373 C   0  0  0  0  0  0  0  0  0  0  0  0
   21.3672    8.1167   52.1868 N   0  0  0  0  0  0  0  0  0  0  0  0
   22.0005    9.3724   52.4885 C   0  0  0  0  0  0  0  0  0  0  0  0
   22.7606    9.7727   51.5440 O   0  0  0  0  0  0  0  0  0  0  0  0
   21.8396   10.1500   53.7057 C   0  0  0  0  0  0  0  0  0  0  0  0
   20.9130   11.3612   53.5033 C   0  0  0  0  0  0  0  0  0  0  0  0
   21.7748   12.5788   53.4232 C   0  0  0  0  0  0  0  0  0  0  0  0
   23.1547   12.0171   53.4956 C   0  0  0  0  0  0  0  0  0  0  0  0
   23.0124   10.7618   54.2628 N   0  0  0  0  0  0  0  0  0  0  0  0
   23.8418   10.3162   55.3114 C   0  0  0  0  0  0  0  0  0  0  0  0
   24.1911   11.2175   56.1933 O   0  0  0  0  0  0  0  0  0  0  0  0
   24.0243    8.1502   57.4891 H   0  0  0  0  0  0  0  0  0  0  0  0
   19.8871    4.8648   51.3619 H   0  0  0  0  0  0  0  0  0  0  0  0
   21.9330    7.3433   51.7568 H   0  0  0  0  0  0  0  0  0  0  0  0
   24.8995    8.2146   54.4009 C   0  0  0  0  0  0  0  0  0  0  0  0
   26.3795    8.3365   54.1388 C   0  0  0  0  0  0  0  0  0  0  0  0
   27.1590    8.2016   55.4415 C   0  0  0  0  0  0  0  0  0  0  0  0
   27.6847    9.4788   55.8665 N   0  0  0  0  0  0  0  0  0  0  0  0
   27.8362   10.2118   55.1439 H   0  0  0  0  0  0  0  0  0  0  0  0
   28.0528    8.7864   58.2296 N   0  0  0  0  0  0  0  0  0  0  0  0
   28.0008    9.7772   57.2073 C   0  0  0  0  0  0  0  0  0  0  0  0
   28.2559   10.9942   57.5315 N   0  0  0  0  0  0  0  0  0  0  0  0
   28.5910    7.9097   58.0779 H   0  0  0  0  0  0  0  0  0  0  0  0
   27.5654    8.9120   59.1316 H   0  0  0  0  0  0  0  0  0  0  0  0
   28.4880   11.2281   58.5066 H   0  0  0  0  0  0  0  0  0  0  0  0
   20.4716    3.1778   53.6006 C   0  0  0  0  0  0  0  0  0  0  0  0
   19.0039    3.2408   53.5536 C   0  0  0  0  0  0  0  0  0  0  0  0
   18.3331    3.8865   54.5735 C   0  0  0  0  0  0  0  0  0  0  0  0
   16.9383    3.9671   54.5903 C   0  0  0  0  0  0  0  0  0  0  0  0
   16.2321    3.3850   53.5599 C   0  0  0  0  0  0  0  0  0  0  0  0
   16.8789    2.7353   52.5305 C   0  0  0  0  0  0  0  0  0  0  0  0
   18.2716    2.6756   52.5492 C   0  0  0  0  0  0  0  0  0  0  0  0
   19.0782    8.5363   51.4295 C   0  0  0  0  0  0  0  0  0  0  0  0
   19.5535    9.7754   50.8488 C   0  0  0  0  0  0  0  0  0  0  0  0
   18.8013   10.3926   49.8730 C   0  0  0  0  0  0  0  0  0  0  0  0
   19.2236   11.5892   49.2789 C   0  0  0  0  0  0  0  0  0  0  0  0
   20.4080   12.1749   49.6619 C   0  0  0  0  0  0  0  0  0  0  0  0
   21.1688   11.5736   50.6309 C   0  0  0  0  0  0  0  0  0  0  0  0
   20.7371   10.4086   51.1955 C   0  0  0  0  0  0  0  0  0  0  0  0
 35 36  1  0  0  0
 36 37  2  0  0  0
 36 33  1  0  0  0
 33 32  1  0  0  0
 32 31  1  0  0  0
 31 30  1  0  0  0
 30  1  1  0  0  0
  1  2  1  0  0  0
  2  3  1  0  0  0
  3  4  2  0  0  0
  3  5  1  0  0  0
  5  6  1  0  0  0
  6  7  1  0  0  0
  7  8  1  0  0  0
  8  9  1  0  0  0
  9 10  1  0  0  0
 10 11  2  0  0  0
 10 12  1  0  0  0
 12 41  1  0  0  0
 41 42  1  0  0  0
 42 43  2  0  0  0
 43 44  1  0  0  0
 44 45  2  0  0  0
 45 46  1  0  0  0
 46 47  2  0  0  0
 12 13  1  0  0  0
 13 14  1  0  0  0
 14 15  2  0  0  0
 14 16  1  0  0  0
 16 48  1  0  0  0
 48 49  1  0  0  0
 49 50  2  0  0  0
 50 51  1  0  0  0
 51 52  2  0  0  0
 52 53  1  0  0  0
 53 54  2  0  0  0
 16 17  1  0  0  0
 17 18  1  0  0  0
 18 19  2  0  0  0
 18 20  1  0  0  0
 20 21  1  0  0  0
 21 22  1  0  0  0
 22 23  1  0  0  0
 23 24  1  0  0  0
 24 25  1  0  0  0
 25 26  2  0  0  0
 25  1  1  0  0  0
  9  5  1  0  0  0
 47 42  1  0  0  0
 54 49  1  0  0  0
 24 20  1  0  0  0
 35 38  1  0  0  0
 35 39  1  0  0  0
 37 40  1  0  0  0
 33 34  1  0  0  0
  2 27  1  0  0  0
 13 28  1  0  0  0
 17 29  1  0  0  0
M  END
> <minimizedAffinity>
83.88644

> <CNNscore>
0.1649480462

> <CNNaffinity>
6.0892438889

> <CNN_VS>
1.0044088364

> <CNNaffinity_variance>
2.7187740803

$$$$
[H]N=C(N([H])[H])N([H])C([H])([H])C([H])([H])C([H])([H])[C@@]1([H])C(=O)N2C([H])([H])C([H])([H])C([H])([H])[C@@]2([H])C(=O)N([H])[C@@]([H])(C([H])([H])c2c([H])c([H])c([H])c([H])c2[H])C(=O)N([H])[C@]([H])(C([H])([H])c2c([H])c([H])c([H])c([H])c2[H])C(=O)N2C([H])([H])C([H])([H])C([H])([H])[C@@]2([H])C(=O)N1[H]


 54 58  0  0  0  0  0  0  0  0999 V2000
   18.6854    7.5497   52.9958 C   0  0  0  0  0  0  0  0  0  0  0  0
   19.1183    8.4376   54.0428 N   0  0  0  0  0  0  0  0  0  0  0  0
   20.2023    8.5682   54.8620 C   0  0  0  0  0  0  0  0  0  0  0  0
   19.8715    8.4028   56.1412 O   0  0  0  0  0  0  0  0  0  0  0  0
   21.6210    8.8313   54.8349 C   0  0  0  0  0  0  0  0  0  0  0  0
   21.7442   10.1658   55.6596 C   0  0  0  0  0  0  0  0  0  0  0  0
   21.3535   11.2111   54.6460 C   0  0  0  0  0  0  0  0  0  0  0  0
   21.5309   10.5017   53.3331 C   0  0  0  0  0  0  0  0  0  0  0  0
   22.3099    9.2861   53.6663 N   0  0  0  0  0  0  0  0  0  0  0  0
   23.4521    8.6736   53.0537 C   0  0  0  0  0  0  0  0  0  0  0  0
   23.2092    8.4155   51.7991 O   0  0  0  0  0  0  0  0  0  0  0  0
   24.7592    8.2966   53.4996 C   0  0  0  0  0  0  0  0  0  0  0  0
   25.0244    6.9799   53.9972 N   0  0  0  0  0  0  0  0  0  0  0  0
   24.3766    6.0908   54.8503 C   0  0  0  0  0  0  0  0  0  0  0  0
   24.7467    6.1306   56.1174 O   0  0  0  0  0  0  0  0  0  0  0  0
   23.3324    5.0741   54.6371 C   0  0  0  0  0  0  0  0  0  0  0  0
   22.6103    5.1564   53.4083 N   0  0  0  0  0  0  0  0  0  0  0  0
   21.2832    4.6250   53.2491 C   0  0  0  0  0  0  0  0  0  0  0  0
   21.1466    3.9775   52.1572 O   0  0  0  0  0  0  0  0  0  0  0  0
   20.1779    4.7694   54.1815 C   0  0  0  0  0  0  0  0  0  0  0  0
   19.9350    3.4883   54.9977 C   0  0  0  0  0  0  0  0  0  0  0  0
   18.7268    2.8163   54.4317 C   0  0  0  0  0  0  0  0  0  0  0  0
   18.3758    3.6829   53.2695 C   0  0  0  0  0  0  0  0  0  0  0  0
   18.8760    5.0252   53.6338 N   0  0  0  0  0  0  0  0  0  0  0  0
   18.1915    6.2482   53.4871 C   0  0  0  0  0  0  0  0  0  0  0  0
   16.9298    6.2484   53.8341 O   0  0  0  0  0  0  0  0  0  0  0  0
   18.3763    9.2232   54.2505 H   0  0  0  0  0  0  0  0  0  0  0  0
   25.9909    6.5531   53.6661 H   0  0  0  0  0  0  0  0  0  0  0  0
   23.0823    5.6193   52.5923 H   0  0  0  0  0  0  0  0  0  0  0  0
   19.5739    7.5225   51.8051 C   0  0  0  0  0  0  0  0  0  0  0  0
   20.7383    8.4804   51.8317 C   0  0  0  0  0  0  0  0  0  0  0  0
   20.4167    9.7250   51.0128 C   0  0  0  0  0  0  0  0  0  0  0  0
   21.4522   10.7226   51.1562 N   0  0  0  0  0  0  0  0  0  0  0  0
   22.3729   10.4227   51.5365 H   0  0  0  0  0  0  0  0  0  0  0  0
   21.8906   13.1466   51.5183 N   0  0  0  0  0  0  0  0  0  0  0  0
   21.2748   12.0766   50.8073 C   0  0  0  0  0  0  0  0  0  0  0  0
   20.5269   12.3689   49.8041 N   0  0  0  0  0  0  0  0  0  0  0  0
   22.9092   13.1158   51.7256 H   0  0  0  0  0  0  0  0  0  0  0  0
   21.3499   13.9657   51.8402 H   0  0  0  0  0  0  0  0  0  0  0  0
   20.3872   13.3531   49.5371 H   0  0  0  0  0  0  0  0  0  0  0  0
   25.6187    9.3401   54.2080 C   0  0  0  0  0  0  0  0  0  0  0  0
   26.9201    8.8308   54.6633 C   0  0  0  0  0  0  0  0  0  0  0  0
   27.6968    8.1073   53.7800 C   0  0  0  0  0  0  0  0  0  0  0  0
   28.9365    7.5863   54.1594 C   0  0  0  0  0  0  0  0  0  0  0  0
   29.3790    7.8085   55.4456 C   0  0  0  0  0  0  0  0  0  0  0  0
   28.6221    8.5279   56.3453 C   0  0  0  0  0  0  0  0  0  0  0  0
   27.3903    9.0312   55.9295 C   0  0  0  0  0  0  0  0  0  0  0  0
   23.8840    3.6938   54.9009 C   0  0  0  0  0  0  0  0  0  0  0  0
   24.7015    3.1108   53.8568 C   0  0  0  0  0  0  0  0  0  0  0  0
   25.1199    1.8037   53.9816 C   0  0  0  0  0  0  0  0  0  0  0  0
   25.9162    1.1994   52.9998 C   0  0  0  0  0  0  0  0  0  0  0  0
   26.2989    1.9062   51.8835 C   0  0  0  0  0  0  0  0  0  0  0  0
   25.8919    3.2079   51.7440 C   0  0  0  0  0  0  0  0  0  0  0  0
   25.1164    3.7754   52.7131 C   0  0  0  0  0  0  0  0  0  0  0  0
 35 36  1  0  0  0
 36 37  2  0  0  0
 36 33  1  0  0  0
 33 32  1  0  0  0
 32 31  1  0  0  0
 31 30  1  0  0  0
 30  1  1  0  0  0
  1  2  1  0  0  0
  2  3  1  0  0  0
  3  4  2  0  0  0
  3  5  1  0  0  0
  5  6  1  0  0  0
  6  7  1  0  0  0
  7  8  1  0  0  0
  8  9  1  0  0  0
  9 10  1  0  0  0
 10 11  2  0  0  0
 10 12  1  0  0  0
 12 41  1  0  0  0
 41 42  1  0  0  0
 42 43  2  0  0  0
 43 44  1  0  0  0
 44 45  2  0  0  0
 45 46  1  0  0  0
 46 47  2  0  0  0
 12 13  1  0  0  0
 13 14  1  0  0  0
 14 15  2  0  0  0
 14 16  1  0  0  0
 16 48  1  0  0  0
 48 49  1  0  0  0
 49 50  2  0  0  0
 50 51  1  0  0  0
 51 52  2  0  0  0
 52 53  1  0  0  0
 53 54  2  0  0  0
 16 17  1  0  0  0
 17 18  1  0  0  0
 18 19  2  0  0  0
 18 20  1  0  0  0
 20 21  1  0  0  0
 21 22  1  0  0  0
 22 23  1  0  0  0
 23 24  1  0  0  0
 24 25  1  0  0  0
 25 26  2  0  0  0
 25  1  1  0  0  0
  9  5  1  0  0  0
 47 42  1  0  0  0
 54 49  1  0  0  0
 24 20  1  0  0  0
 35 38  1  0  0  0
 35 39  1  0  0  0
 37 40  1  0  0  0
 33 34  1  0  0  0
  2 27  1  0  0  0
 13 28  1  0  0  0
 17 29  1  0  0  0
M  END
> <minimizedAffinity>
85.35888

> <CNNscore>
0.1523785740

> <CNNaffinity>
6.2728128433

> <CNN_VS>
0.9558422565

> <CNNaffinity_variance>
3.0718908310

$$$$
[H]N=C(N([H])[H])N([H])C([H])([H])C([H])([H])C([H])([H])[C@@]1([H])C(=O)N2C([H])([H])C([H])([H])C([H])([H])[C@@]2([H])C(=O)N([H])[C@@]([H])(C([H])([H])c2c([H])c([H])c([H])c([H])c2[H])C(=O)N([H])[C@]([H])(C([H])([H])c2c([H])c([H])c([H])c([H])c2[H])C(=O)N2C([H])([H])C([H])([H])C([H])([H])[C@@]2([H])C(=O)N1[H]


 54 58  0  0  0  0  0  0  0  0999 V2000
   23.9531    3.6956   54.0227 C   0  0  0  0  0  0  0  0  0  0  0  0
   24.3999    4.8397   53.2723 N   0  0  0  0  0  0  0  0  0  0  0  0
   23.8635    6.0062   52.8088 C   0  0  0  0  0  0  0  0  0  0  0  0
   23.8643    6.0501   51.4778 O   0  0  0  0  0  0  0  0  0  0  0  0
   23.2801    7.2464   53.2606 C   0  0  0  0  0  0  0  0  0  0  0  0
   24.2786    8.3261   52.7006 C   0  0  0  0  0  0  0  0  0  0  0  0
   25.4003    8.2839   53.7069 C   0  0  0  0  0  0  0  0  0  0  0  0
   24.7663    7.6311   54.9030 C   0  0  0  0  0  0  0  0  0  0  0  0
   23.3113    7.6737   54.6257 N   0  0  0  0  0  0  0  0  0  0  0  0
   22.1851    8.0396   55.4337 C   0  0  0  0  0  0  0  0  0  0  0  0
   22.1583    7.3247   56.5235 O   0  0  0  0  0  0  0  0  0  0  0  0
   21.1188    8.9873   55.3138 C   0  0  0  0  0  0  0  0  0  0  0  0
   19.8644    8.6249   54.7250 N   0  0  0  0  0  0  0  0  0  0  0  0
   19.4641    7.8950   53.6092 C   0  0  0  0  0  0  0  0  0  0  0  0
   19.2387    8.5932   52.5112 O   0  0  0  0  0  0  0  0  0  0  0  0
   19.2241    6.4598   53.3807 C   0  0  0  0  0  0  0  0  0  0  0  0
   19.7475    5.5662   54.3635 N   0  0  0  0  0  0  0  0  0  0  0  0
   20.0652    4.1933   54.0755 C   0  0  0  0  0  0  0  0  0  0  0  0
   19.6510    3.3977   54.9841 O   0  0  0  0  0  0  0  0  0  0  0  0
   20.7723    3.6977   52.9065 C   0  0  0  0  0  0  0  0  0  0  0  0
   19.8217    3.0569   51.8807 C   0  0  0  0  0  0  0  0  0  0  0  0
   19.9721    1.5748   51.9922 C   0  0  0  0  0  0  0  0  0  0  0  0
   20.9299    1.4201   53.1252 C   0  0  0  0  0  0  0  0  0  0  0  0
   21.7397    2.6565   53.1074 N   0  0  0  0  0  0  0  0  0  0  0  0
   23.1402    2.7486   53.2342 C   0  0  0  0  0  0  0  0  0  0  0  0
   23.8394    1.8729   52.5587 O   0  0  0  0  0  0  0  0  0  0  0  0
   25.4584    4.7562   52.9838 H   0  0  0  0  0  0  0  0  0  0  0  0
   18.9795    9.0421   55.2437 H   0  0  0  0  0  0  0  0  0  0  0  0
   19.8942    5.9372   55.3350 H   0  0  0  0  0  0  0  0  0  0  0  0
   23.4751    4.0074   55.3947 C   0  0  0  0  0  0  0  0  0  0  0  0
   22.6264    5.2466   55.5292 C   0  0  0  0  0  0  0  0  0  0  0  0
   22.1871    5.4308   56.9770 C   0  0  0  0  0  0  0  0  0  0  0  0
   22.2484    4.1817   57.7010 N   0  0  0  0  0  0  0  0  0  0  0  0
   21.3841    3.6055   57.7591 H   0  0  0  0  0  0  0  0  0  0  0  0
   23.5338    3.5645   59.7420 N   0  0  0  0  0  0  0  0  0  0  0  0
   23.4181    3.7091   58.3295 C   0  0  0  0  0  0  0  0  0  0  0  0
   24.4303    3.3911   57.6045 N   0  0  0  0  0  0  0  0  0  0  0  0
   22.7935    3.0672   60.2768 H   0  0  0  0  0  0  0  0  0  0  0  0
   24.3421    3.9437   60.2615 H   0  0  0  0  0  0  0  0  0  0  0  0
   25.2918    3.0448   58.0487 H   0  0  0  0  0  0  0  0  0  0  0  0
   21.4661   10.4451   55.0245 C   0  0  0  0  0  0  0  0  0  0  0  0
   21.4757   10.7828   53.5940 C   0  0  0  0  0  0  0  0  0  0  0  0
   21.3964    9.7606   52.6689 C   0  0  0  0  0  0  0  0  0  0  0  0
   21.4147   10.0189   51.2959 C   0  0  0  0  0  0  0  0  0  0  0  0
   21.5142   11.3267   50.8725 C   0  0  0  0  0  0  0  0  0  0  0  0
   21.5943   12.3642   51.7765 C   0  0  0  0  0  0  0  0  0  0  0  0
   21.5734   12.0663   53.1383 C   0  0  0  0  0  0  0  0  0  0  0  0
   17.7645    6.2140   53.0838 C   0  0  0  0  0  0  0  0  0  0  0  0
   17.1465    5.0875   53.7526 C   0  0  0  0  0  0  0  0  0  0  0  0
   16.5621    4.0946   52.9965 C   0  0  0  0  0  0  0  0  0  0  0  0
   15.9478    2.9892   53.5995 C   0  0  0  0  0  0  0  0  0  0  0  0
   15.9159    2.8738   54.9699 C   0  0  0  0  0  0  0  0  0  0  0  0
   16.4920    3.8531   55.7371 C   0  0  0  0  0  0  0  0  0  0  0  0
   17.0849    4.9205   55.1275 C   0  0  0  0  0  0  0  0  0  0  0  0
 35 36  1  0  0  0
 36 37  2  0  0  0
 36 33  1  0  0  0
 33 32  1  0  0  0
 32 31  1  0  0  0
 31 30  1  0  0  0
 30  1  1  0  0  0
  1  2  1  0  0  0
  2  3  1  0  0  0
  3  4  2  0  0  0
  3  5  1  0  0  0
  5  6  1  0  0  0
  6  7  1  0  0  0
  7  8  1  0  0  0
  8  9  1  0  0  0
  9 10  1  0  0  0
 10 11  2  0  0  0
 10 12  1  0  0  0
 12 41  1  0  0  0
 41 42  1  0  0  0
 42 43  2  0  0  0
 43 44  1  0  0  0
 44 45  2  0  0  0
 45 46  1  0  0  0
 46 47  2  0  0  0
 12 13  1  0  0  0
 13 14  1  0  0  0
 14 15  2  0  0  0
 14 16  1  0  0  0
 16 48  1  0  0  0
 48 49  1  0  0  0
 49 50  2  0  0  0
 50 51  1  0  0  0
 51 52  2  0  0  0
 52 53  1  0  0  0
 53 54  2  0  0  0
 16 17  1  0  0  0
 17 18  1  0  0  0
 18 19  2  0  0  0
 18 20  1  0  0  0
 20 21  1  0  0  0
 21 22  1  0  0  0
 22 23  1  0  0  0
 23 24  1  0  0  0
 24 25  1  0  0  0
 25 26  2  0  0  0
 25  1  1  0  0  0
  9  5  1  0  0  0
 47 42  1  0  0  0
 54 49  1  0  0  0
 24 20  1  0  0  0
 35 38  1  0  0  0
 35 39  1  0  0  0
 37 40  1  0  0  0
 33 34  1  0  0  0
  2 27  1  0  0  0
 13 28  1  0  0  0
 17 29  1  0  0  0
M  END
> <minimizedAffinity>
87.45448

> <CNNscore>
0.1394244432

> <CNNaffinity>
6.3002781868

> <CNN_VS>
0.8784127831

> <CNNaffinity_variance>
2.9574961662

$$$$
[H]N=C(N([H])[H])N([H])C([H])([H])C([H])([H])C([H])([H])[C@@]1([H])C(=O)N2C([H])([H])C([H])([H])C([H])([H])[C@@]2([H])C(=O)N([H])[C@@]([H])(C([H])([H])c2c([H])c([H])c([H])c([H])c2[H])C(=O)N([H])[C@]([H])(C([H])([H])c2c([H])c([H])c([H])c([H])c2[H])C(=O)N2C([H])([H])C([H])([H])C([H])([H])[C@@]2([H])C(=O)N1[H]


 54 58  0  0  0  0  0  0  0  0999 V2000
   24.0235    6.2487   52.9628 C   0  0  0  0  0  0  0  0  0  0  0  0
   25.2685    6.9128   52.6782 N   0  0  0  0  0  0  0  0  0  0  0  0
   25.8012    8.1584   52.8451 C   0  0  0  0  0  0  0  0  0  0  0  0
   26.0681    8.7370   51.6758 O   0  0  0  0  0  0  0  0  0  0  0  0
   26.1914    9.0989   53.8677 C   0  0  0  0  0  0  0  0  0  0  0  0
   27.7373    9.2602   53.6218 C   0  0  0  0  0  0  0  0  0  0  0  0
   28.3021    8.0323   54.2894 C   0  0  0  0  0  0  0  0  0  0  0  0
   27.1948    7.5993   55.2086 C   0  0  0  0  0  0  0  0  0  0  0  0
   26.2717    8.7575   55.2548 N   0  0  0  0  0  0  0  0  0  0  0  0
   25.6103    9.4219   56.3393 C   0  0  0  0  0  0  0  0  0  0  0  0
   24.8963    8.5721   57.0231 O   0  0  0  0  0  0  0  0  0  0  0  0
   25.5634   10.7683   56.8234 C   0  0  0  0  0  0  0  0  0  0  0  0
   24.5488   11.6806   56.3875 N   0  0  0  0  0  0  0  0  0  0  0  0
   23.9574   12.0009   55.1686 C   0  0  0  0  0  0  0  0  0  0  0  0
   24.4874   13.0208   54.5184 O   0  0  0  0  0  0  0  0  0  0  0  0
   22.8235   11.4303   54.4215 C   0  0  0  0  0  0  0  0  0  0  0  0
   22.3818   10.1363   54.8321 N   0  0  0  0  0  0  0  0  0  0  0  0
   21.6863    9.2364   53.9516 C   0  0  0  0  0  0  0  0  0  0  0  0
   20.6809    8.6862   54.5141 O   0  0  0  0  0  0  0  0  0  0  0  0
   22.0317    8.9400   52.5714 C   0  0  0  0  0  0  0  0  0  0  0  0
   21.1080    9.6597   51.5738 C   0  0  0  0  0  0  0  0  0  0  0  0
   20.1499    8.6473   51.0365 C   0  0  0  0  0  0  0  0  0  0  0  0
   20.5003    7.4160   51.8020 C   0  0  0  0  0  0  0  0  0  0  0  0
   21.9305    7.5748   52.1399 N   0  0  0  0  0  0  0  0  0  0  0  0
   22.9374    6.5956   52.0251 C   0  0  0  0  0  0  0  0  0  0  0  0
   22.9228    5.8787   50.9306 O   0  0  0  0  0  0  0  0  0  0  0  0
   25.9898    6.2435   52.1857 H   0  0  0  0  0  0  0  0  0  0  0  0
   24.1409   12.3263   57.1891 H   0  0  0  0  0  0  0  0  0  0  0  0
   22.5718    9.8450   55.8231 H   0  0  0  0  0  0  0  0  0  0  0  0
   23.6707    6.1936   54.4052 C   0  0  0  0  0  0  0  0  0  0  0  0
   22.3433    5.5577   54.7334 C   0  0  0  0  0  0  0  0  0  0  0  0
   22.0939    4.3586   53.8262 C   0  0  0  0  0  0  0  0  0  0  0  0
   20.6974    3.9874   53.8287 N   0  0  0  0  0  0  0  0  0  0  0  0
   20.4589    2.9751   53.8022 H   0  0  0  0  0  0  0  0  0  0  0  0
   18.3853    4.6555   54.4665 N   0  0  0  0  0  0  0  0  0  0  0  0
   19.6477    4.9273   53.8650 C   0  0  0  0  0  0  0  0  0  0  0  0
   19.8284    6.0841   53.3353 N   0  0  0  0  0  0  0  0  0  0  0  0
   18.3408    4.2553   55.4253 H   0  0  0  0  0  0  0  0  0  0  0  0
   17.4977    4.8459   53.9737 H   0  0  0  0  0  0  0  0  0  0  0  0
   19.0713    6.7811   53.3534 H   0  0  0  0  0  0  0  0  0  0  0  0
   26.8787   11.4923   57.0976 C   0  0  0  0  0  0  0  0  0  0  0  0
   27.7603   10.7897   58.0408 C   0  0  0  0  0  0  0  0  0  0  0  0
   27.7753    9.4089   58.0344 C   0  0  0  0  0  0  0  0  0  0  0  0
   28.5823    8.6859   58.9165 C   0  0  0  0  0  0  0  0  0  0  0  0
   29.3742    9.3806   59.8052 C   0  0  0  0  0  0  0  0  0  0  0  0
   29.3770   10.7587   59.8306 C   0  0  0  0  0  0  0  0  0  0  0  0
   28.5578   11.4447   58.9350 C   0  0  0  0  0  0  0  0  0  0  0  0
   21.6979   12.4324   54.3326 C   0  0  0  0  0  0  0  0  0  0  0  0
   21.4253   12.9882   53.0230 C   0  0  0  0  0  0  0  0  0  0  0  0
   21.9818   12.3939   51.9112 C   0  0  0  0  0  0  0  0  0  0  0  0
   21.7506   12.8995   50.6251 C   0  0  0  0  0  0  0  0  0  0  0  0
   20.9571   14.0090   50.4470 C   0  0  0  0  0  0  0  0  0  0  0  0
   20.3962   14.6129   51.5426 C   0  0  0  0  0  0  0  0  0  0  0  0
   20.6353   14.1024   52.7854 C   0  0  0  0  0  0  0  0  0  0  0  0
 35 36  1  0  0  0
 36 37  2  0  0  0
 36 33  1  0  0  0
 33 32  1  0  0  0
 32 31  1  0  0  0
 31 30  1  0  0  0
 30  1  1  0  0  0
  1  2  1  0  0  0
  2  3  1  0  0  0
  3  4  2  0  0  0
  3  5  1  0  0  0
  5  6  1  0  0  0
  6  7  1  0  0  0
  7  8  1  0  0  0
  8  9  1  0  0  0
  9 10  1  0  0  0
 10 11  2  0  0  0
 10 12  1  0  0  0
 12 41  1  0  0  0
 41 42  1  0  0  0
 42 43  2  0  0  0
 43 44  1  0  0  0
 44 45  2  0  0  0
 45 46  1  0  0  0
 46 47  2  0  0  0
 12 13  1  0  0  0
 13 14  1  0  0  0
 14 15  2  0  0  0
 14 16  1  0  0  0
 16 48  1  0  0  0
 48 49  1  0  0  0
 49 50  2  0  0  0
 50 51  1  0  0  0
 51 52  2  0  0  0
 52 53  1  0  0  0
 53 54  2  0  0  0
 16 17  1  0  0  0
 17 18  1  0  0  0
 18 19  2  0  0  0
 18 20  1  0  0  0
 20 21  1  0  0  0
 21 22  1  0  0  0
 22 23  1  0  0  0
 23 24  1  0  0  0
 24 25  1  0  0  0
 25 26  2  0  0  0
 25  1  1  0  0  0
  9  5  1  0  0  0
 47 42  1  0  0  0
 54 49  1  0  0  0
 24 20  1  0  0  0
 35 38  1  0  0  0
 35 39  1  0  0  0
 37 40  1  0  0  0
 33 34  1  0  0  0
  2 27  1  0  0  0
 13 28  1  0  0  0
 17 29  1  0  0  0
M  END
> <minimizedAffinity>
69.17879

> <CNNscore>
0.1325874329

> <CNNaffinity>
6.2382531166

> <CNN_VS>
0.8271139860

> <CNNaffinity_variance>
3.3431179523

$$$$
[H]N=C(N([H])[H])N([H])C([H])([H])C([H])([H])C([H])([H])[C@@]1([H])C(=O)N2C([H])([H])C([H])([H])C([H])([H])[C@@]2([H])C(=O)N([H])[C@@]([H])(C([H])([H])c2c([H])c([H])c([H])c([H])c2[H])C(=O)N([H])[C@]([H])(C([H])([H])c2c([H])c([H])c([H])c([H])c2[H])C(=O)N2C([H])([H])C([H])([H])C([H])([H])[C@@]2([H])C(=O)N1[H]


 54 58  0  0  0  0  0  0  0  0999 V2000
   18.8691    7.5337   52.7656 C   0  0  0  0  0  0  0  0  0  0  0  0
   19.2283    8.5927   53.6719 N   0  0  0  0  0  0  0  0  0  0  0  0
   20.2497    8.8714   54.5335 C   0  0  0  0  0  0  0  0  0  0  0  0
   19.8247    8.9274   55.7943 O   0  0  0  0  0  0  0  0  0  0  0  0
   21.6679    9.1366   54.5656 C   0  0  0  0  0  0  0  0  0  0  0  0
   21.7369   10.5946   55.1535 C   0  0  0  0  0  0  0  0  0  0  0  0
   21.4274   11.4457   53.9483 C   0  0  0  0  0  0  0  0  0  0  0  0
   21.6974   10.5211   52.7947 C   0  0  0  0  0  0  0  0  0  0  0  0
   22.4434    9.3875   53.3897 N   0  0  0  0  0  0  0  0  0  0  0  0
   23.6244    8.6869   52.9781 C   0  0  0  0  0  0  0  0  0  0  0  0
   23.4732    8.2138   51.7727 O   0  0  0  0  0  0  0  0  0  0  0  0
   24.8931    8.4028   53.5772 C   0  0  0  0  0  0  0  0  0  0  0  0
   25.1140    7.1942   54.3135 N   0  0  0  0  0  0  0  0  0  0  0  0
   24.4005    6.4612   55.2578 C   0  0  0  0  0  0  0  0  0  0  0  0
   24.6764    6.7225   56.5225 O   0  0  0  0  0  0  0  0  0  0  0  0
   23.3695    5.4150   55.1477 C   0  0  0  0  0  0  0  0  0  0  0  0
   22.7404    5.2778   53.8735 N   0  0  0  0  0  0  0  0  0  0  0  0
   21.4258    4.7169   53.7117 C   0  0  0  0  0  0  0  0  0  0  0  0
   21.3667    3.8891   52.7414 O   0  0  0  0  0  0  0  0  0  0  0  0
   20.2556    5.0120   54.5213 C   0  0  0  0  0  0  0  0  0  0  0  0
   19.9465    3.8897   55.5269 C   0  0  0  0  0  0  0  0  0  0  0  0
   18.7798    3.1207   54.9986 C   0  0  0  0  0  0  0  0  0  0  0  0
   18.5200    3.7704   53.6813 C   0  0  0  0  0  0  0  0  0  0  0  0
   18.9989    5.1592   53.8434 N   0  0  0  0  0  0  0  0  0  0  0  0
   18.3335    6.3332   53.4373 C   0  0  0  0  0  0  0  0  0  0  0  0
   17.0497    6.3837   53.6853 O   0  0  0  0  0  0  0  0  0  0  0  0
   18.4772    9.3967   53.6854 H   0  0  0  0  0  0  0  0  0  0  0  0
   26.1000    6.7239   54.1332 H   0  0  0  0  0  0  0  0  0  0  0  0
   23.2737    5.5962   53.0266 H   0  0  0  0  0  0  0  0  0  0  0  0
   19.8428    7.3075   51.6661 C   0  0  0  0  0  0  0  0  0  0  0  0
   21.2969    7.4662   52.0328 C   0  0  0  0  0  0  0  0  0  0  0  0
   22.1495    6.4734   51.2515 C   0  0  0  0  0  0  0  0  0  0  0  0
   23.4293    6.2719   51.8917 N   0  0  0  0  0  0  0  0  0  0  0  0
   23.7275    6.9548   52.6176 H   0  0  0  0  0  0  0  0  0  0  0  0
   24.5713    4.7960   50.2435 N   0  0  0  0  0  0  0  0  0  0  0  0
   24.2890    5.1992   51.5803 C   0  0  0  0  0  0  0  0  0  0  0  0
   24.8485    4.5506   52.5382 N   0  0  0  0  0  0  0  0  0  0  0  0
   24.8540    5.5030   49.5352 H   0  0  0  0  0  0  0  0  0  0  0  0
   24.5034    3.8082   49.9493 H   0  0  0  0  0  0  0  0  0  0  0  0
   25.4785    3.7646   52.3270 H   0  0  0  0  0  0  0  0  0  0  0  0
   25.7035    9.5597   54.1554 C   0  0  0  0  0  0  0  0  0  0  0  0
   26.8674    9.1353   54.9463 C   0  0  0  0  0  0  0  0  0  0  0  0
   27.9036    8.4835   54.3072 C   0  0  0  0  0  0  0  0  0  0  0  0
   29.0295    8.0445   55.0085 C   0  0  0  0  0  0  0  0  0  0  0  0
   29.0919    8.2749   56.3658 C   0  0  0  0  0  0  0  0  0  0  0  0
   28.0706    8.9238   57.0261 C   0  0  0  0  0  0  0  0  0  0  0  0
   26.9633    9.3464   56.2920 C   0  0  0  0  0  0  0  0  0  0  0  0
   23.8930    4.1055   55.6863 C   0  0  0  0  0  0  0  0  0  0  0  0
   23.6747    3.8491   57.0952 C   0  0  0  0  0  0  0  0  0  0  0  0
   22.7124    4.5700   57.7685 C   0  0  0  0  0  0  0  0  0  0  0  0
   22.4699    4.3603   59.1324 C   0  0  0  0  0  0  0  0  0  0  0  0
   23.1949    3.4229   59.8310 C   0  0  0  0  0  0  0  0  0  0  0  0
   24.1565    2.6974   59.1765 C   0  0  0  0  0  0  0  0  0  0  0  0
   24.3750    2.9188   57.8477 C   0  0  0  0  0  0  0  0  0  0  0  0
 35 36  1  0  0  0
 36 37  2  0  0  0
 36 33  1  0  0  0
 33 32  1  0  0  0
 32 31  1  0  0  0
 31 30  1  0  0  0
 30  1  1  0  0  0
  1  2  1  0  0  0
  2  3  1  0  0  0
  3  4  2  0  0  0
  3  5  1  0  0  0
  5  6  1  0  0  0
  6  7  1  0  0  0
  7  8  1  0  0  0
  8  9  1  0  0  0
  9 10  1  0  0  0
 10 11  2  0  0  0
 10 12  1  0  0  0
 12 41  1  0  0  0
 41 42  1  0  0  0
 42 43  2  0  0  0
 43 44  1  0  0  0
 44 45  2  0  0  0
 45 46  1  0  0  0
 46 47  2  0  0  0
 12 13  1  0  0  0
 13 14  1  0  0  0
 14 15  2  0  0  0
 14 16  1  0  0  0
 16 48  1  0  0  0
 48 49  1  0  0  0
 49 50  2  0  0  0
 50 51  1  0  0  0
 51 52  2  0  0  0
 52 53  1  0  0  0
 53 54  2  0  0  0
 16 17  1  0  0  0
 17 18  1  0  0  0
 18 19  2  0  0  0
 18 20  1  0  0  0
 20 21  1  0  0  0
 21 22  1  0  0  0
 22 23  1  0  0  0
 23 24  1  0  0  0
 24 25  1  0  0  0
 25 26  2  0  0  0
 25  1  1  0  0  0
  9  5  1  0  0  0
 47 42  1  0  0  0
 54 49  1  0  0  0
 24 20  1  0  0  0
 35 38  1  0  0  0
 35 39  1  0  0  0
 37 40  1  0  0  0
 33 34  1  0  0  0
  2 27  1  0  0  0
 13 28  1  0  0  0
 17 29  1  0  0  0
M  END
> <minimizedAffinity>
84.80829

> <CNNscore>
0.1266275793

> <CNNaffinity>
5.9594984055

> <CNN_VS>
0.7546368837

> <CNNaffinity_variance>
3.5078806877

$$$$
[H]N=C(N([H])[H])N([H])C([H])([H])C([H])([H])C([H])([H])[C@@]1([H])C(=O)N2C([H])([H])C([H])([H])C([H])([H])[C@@]2([H])C(=O)N([H])[C@@]([H])(C([H])([H])c2c([H])c([H])c([H])c([H])c2[H])C(=O)N([H])[C@]([H])(C([H])([H])c2c([H])c([H])c([H])c([H])c2[H])C(=O)N2C([H])([H])C([H])([H])C([H])([H])[C@@]2([H])C(=O)N1[H]


 54 58  0  0  0  0  0  0  0  0999 V2000
   24.4866    6.2075   53.2312 C   0  0  0  0  0  0  0  0  0  0  0  0
   25.7301    6.8919   52.9927 N   0  0  0  0  0  0  0  0  0  0  0  0
   26.2487    8.1349   53.2143 C   0  0  0  0  0  0  0  0  0  0  0  0
   26.5302    8.7584   52.0718 O   0  0  0  0  0  0  0  0  0  0  0  0
   26.6131    9.0404   54.2773 C   0  0  0  0  0  0  0  0  0  0  0  0
   28.1614    9.2236   54.0642 C   0  0  0  0  0  0  0  0  0  0  0  0
   28.7259    7.9767   54.6959 C   0  0  0  0  0  0  0  0  0  0  0  0
   27.6072    7.5008   55.5794 C   0  0  0  0  0  0  0  0  0  0  0  0
   26.6730    8.6488   55.6521 N   0  0  0  0  0  0  0  0  0  0  0  0
   25.9874    9.2673   56.7486 C   0  0  0  0  0  0  0  0  0  0  0  0
   25.2697    8.3869   57.3884 O   0  0  0  0  0  0  0  0  0  0  0  0
   25.9202   10.5945   57.2810 C   0  0  0  0  0  0  0  0  0  0  0  0
   24.9050   11.5137   56.8614 N   0  0  0  0  0  0  0  0  0  0  0  0
   24.3314   11.8737   55.6451 C   0  0  0  0  0  0  0  0  0  0  0  0
   24.8631   12.9213   55.0420 O   0  0  0  0  0  0  0  0  0  0  0  0
   23.2155   11.3216   54.8581 C   0  0  0  0  0  0  0  0  0  0  0  0
   22.7786   10.0096   55.2133 N   0  0  0  0  0  0  0  0  0  0  0  0
   22.1062    9.1370   54.2885 C   0  0  0  0  0  0  0  0  0  0  0  0
   21.0964    8.5580   54.8131 O   0  0  0  0  0  0  0  0  0  0  0  0
   22.4776    8.8945   52.9045 C   0  0  0  0  0  0  0  0  0  0  0  0
   21.5644    9.6427   51.9182 C   0  0  0  0  0  0  0  0  0  0  0  0
   20.6247    8.6428   51.3277 C   0  0  0  0  0  0  0  0  0  0  0  0
   20.9732    7.3871   52.0535 C   0  0  0  0  0  0  0  0  0  0  0  0
   22.3959    7.5453   52.4215 N   0  0  0  0  0  0  0  0  0  0  0  0
   23.4134    6.5795   52.2883 C   0  0  0  0  0  0  0  0  0  0  0  0
   23.4238    5.9033   51.1681 O   0  0  0  0  0  0  0  0  0  0  0  0
   26.4657    6.2473   52.4885 H   0  0  0  0  0  0  0  0  0  0  0  0
   24.4778   12.1260   57.6790 H   0  0  0  0  0  0  0  0  0  0  0  0
   22.9544    9.6836   56.1961 H   0  0  0  0  0  0  0  0  0  0  0  0
   24.1100    6.0963   54.6643 C   0  0  0  0  0  0  0  0  0  0  0  0
   22.6343    5.9705   54.9483 C   0  0  0  0  0  0  0  0  0  0  0  0
   21.9959    4.9713   53.9906 C   0  0  0  0  0  0  0  0  0  0  0  0
   20.5600    5.1300   53.9562 N   0  0  0  0  0  0  0  0  0  0  0  0
   20.1606    6.0458   54.2462 H   0  0  0  0  0  0  0  0  0  0  0  0
   20.1186    2.9194   52.8992 N   0  0  0  0  0  0  0  0  0  0  0  0
   19.6788    4.1075   53.5506 C   0  0  0  0  0  0  0  0  0  0  0  0
   18.4208    4.2434   53.7750 N   0  0  0  0  0  0  0  0  0  0  0  0
   20.9081    2.3703   53.2952 H   0  0  0  0  0  0  0  0  0  0  0  0
   19.6721    2.5794   52.0320 H   0  0  0  0  0  0  0  0  0  0  0  0
   17.7646    3.5056   53.4844 H   0  0  0  0  0  0  0  0  0  0  0  0
   27.2241   11.3189   57.6042 C   0  0  0  0  0  0  0  0  0  0  0  0
   27.8153   12.0224   56.4571 C   0  0  0  0  0  0  0  0  0  0  0  0
   28.7715   11.3742   55.7004 C   0  0  0  0  0  0  0  0  0  0  0  0
   29.3786   11.9966   54.6067 C   0  0  0  0  0  0  0  0  0  0  0  0
   29.0039   13.2844   54.2895 C   0  0  0  0  0  0  0  0  0  0  0  0
   28.0515   13.9521   55.0293 C   0  0  0  0  0  0  0  0  0  0  0  0
   27.4687   13.2978   56.1137 C   0  0  0  0  0  0  0  0  0  0  0  0
   22.0826   12.3168   54.7866 C   0  0  0  0  0  0  0  0  0  0  0  0
   21.6601   12.7258   53.4628 C   0  0  0  0  0  0  0  0  0  0  0  0
   22.1427   12.0486   52.3639 C   0  0  0  0  0  0  0  0  0  0  0  0
   21.7662   12.4119   51.0641 C   0  0  0  0  0  0  0  0  0  0  0  0
   20.9006   13.4612   50.8591 C   0  0  0  0  0  0  0  0  0  0  0  0
   20.4116   14.1460   51.9414 C   0  0  0  0  0  0  0  0  0  0  0  0
   20.7922   13.7740   53.1981 C   0  0  0  0  0  0  0  0  0  0  0  0
 35 36  1  0  0  0
 36 37  2  0  0  0
 36 33  1  0  0  0
 33 32  1  0  0  0
 32 31  1  0  0  0
 31 30  1  0  0  0
 30  1  1  0  0  0
  1  2  1  0  0  0
  2  3  1  0  0  0
  3  4  2  0  0  0
  3  5  1  0  0  0
  5  6  1  0  0  0
  6  7  1  0  0  0
  7  8  1  0  0  0
  8  9  1  0  0  0
  9 10  1  0  0  0
 10 11  2  0  0  0
 10 12  1  0  0  0
 12 41  1  0  0  0
 41 42  1  0  0  0
 42 43  2  0  0  0
 43 44  1  0  0  0
 44 45  2  0  0  0
 45 46  1  0  0  0
 46 47  2  0  0  0
 12 13  1  0  0  0
 13 14  1  0  0  0
 14 15  2  0  0  0
 14 16  1  0  0  0
 16 48  1  0  0  0
 48 49  1  0  0  0
 49 50  2  0  0  0
 50 51  1  0  0  0
 51 52  2  0  0  0
 52 53  1  0  0  0
 53 54  2  0  0  0
 16 17  1  0  0  0
 17 18  1  0  0  0
 18 19  2  0  0  0
 18 20  1  0  0  0
 20 21  1  0  0  0
 21 22  1  0  0  0
 22 23  1  0  0  0
 23 24  1  0  0  0
 24 25  1  0  0  0
 25 26  2  0  0  0
 25  1  1  0  0  0
  9  5  1  0  0  0
 47 42  1  0  0  0
 54 49  1  0  0  0
 24 20  1  0  0  0
 35 38  1  0  0  0
 35 39  1  0  0  0
 37 40  1  0  0  0
 33 34  1  0  0  0
  2 27  1  0  0  0
 13 28  1  0  0  0
 17 29  1  0  0  0
M  END
> <minimizedAffinity>
84.32755

> <CNNscore>
0.0935399681

> <CNNaffinity>
6.1919212341

> <CNN_VS>
0.5791921020

> <CNNaffinity_variance>
2.2980527878

$$$$
[H]N=C(N([H])[H])N([H])C([H])([H])C([H])([H])C([H])([H])[C@@]1([H])C(=O)N2C([H])([H])C([H])([H])C([H])([H])[C@@]2([H])C(=O)N([H])[C@@]([H])(C([H])([H])c2c([H])c([H])c([H])c([H])c2[H])C(=O)N([H])[C@]([H])(C([H])([H])c2c([H])c([H])c([H])c([H])c2[H])C(=O)N2C([H])([H])C([H])([H])C([H])([H])[C@@]2([H])C(=O)N1[H]


 54 58  0  0  0  0  0  0  0  0999 V2000
   19.0442    7.6461   52.7440 C   0  0  0  0  0  0  0  0  0  0  0  0
   19.3894    8.6613   53.7042 N   0  0  0  0  0  0  0  0  0  0  0  0
   20.3867    8.8886   54.6080 C   0  0  0  0  0  0  0  0  0  0  0  0
   19.9227    8.8993   55.8562 O   0  0  0  0  0  0  0  0  0  0  0  0
   21.8068    9.1303   54.6953 C   0  0  0  0  0  0  0  0  0  0  0  0
   21.8777   10.5617   55.3451 C   0  0  0  0  0  0  0  0  0  0  0  0
   21.6188   11.4663   54.1672 C   0  0  0  0  0  0  0  0  0  0  0  0
   21.9122   10.5858   52.9852 C   0  0  0  0  0  0  0  0  0  0  0  0
   22.6227    9.4173   53.5556 N   0  0  0  0  0  0  0  0  0  0  0  0
   23.8062    8.7160   53.1522 C   0  0  0  0  0  0  0  0  0  0  0  0
   23.6867    8.2952   51.9241 O   0  0  0  0  0  0  0  0  0  0  0  0
   25.0511    8.3880   53.7783 C   0  0  0  0  0  0  0  0  0  0  0  0
   25.2313    7.1469   54.4702 N   0  0  0  0  0  0  0  0  0  0  0  0
   24.4779    6.3868   55.3606 C   0  0  0  0  0  0  0  0  0  0  0  0
   24.7172    6.5917   56.6430 O   0  0  0  0  0  0  0  0  0  0  0  0
   23.4362    5.3621   55.1751 C   0  0  0  0  0  0  0  0  0  0  0  0
   22.8460    5.2871   53.8773 N   0  0  0  0  0  0  0  0  0  0  0  0
   21.5295    4.7536   53.6514 C   0  0  0  0  0  0  0  0  0  0  0  0
   21.4895    3.9675   52.6462 O   0  0  0  0  0  0  0  0  0  0  0  0
   20.3384    5.0334   54.4357 C   0  0  0  0  0  0  0  0  0  0  0  0
   19.9817    3.8756   55.3837 C   0  0  0  0  0  0  0  0  0  0  0  0
   18.8216    3.1470   54.7879 C   0  0  0  0  0  0  0  0  0  0  0  0
   18.6129    3.8542   53.4912 C   0  0  0  0  0  0  0  0  0  0  0  0
   19.1061    5.2277   53.7257 N   0  0  0  0  0  0  0  0  0  0  0  0
   18.4706    6.4274   53.3481 C   0  0  0  0  0  0  0  0  0  0  0  0
   17.1805    6.4876   53.5579 O   0  0  0  0  0  0  0  0  0  0  0  0
   18.6497    9.4755   53.7276 H   0  0  0  0  0  0  0  0  0  0  0  0
   26.2159    6.6692   54.3014 H   0  0  0  0  0  0  0  0  0  0  0  0
   23.4104    5.6317   53.0613 H   0  0  0  0  0  0  0  0  0  0  0  0
   20.0490    7.4503   51.6668 C   0  0  0  0  0  0  0  0  0  0  0  0
   20.1543    8.5642   50.6558 C   0  0  0  0  0  0  0  0  0  0  0  0
   20.8586    9.7687   51.2691 C   0  0  0  0  0  0  0  0  0  0  0  0
   20.8947   10.8765   50.3419 N   0  0  0  0  0  0  0  0  0  0  0  0
   20.6565   10.6908   49.3464 H   0  0  0  0  0  0  0  0  0  0  0  0
   22.4920   12.5273   51.3025 N   0  0  0  0  0  0  0  0  0  0  0  0
   21.2360   12.1906   50.7205 C   0  0  0  0  0  0  0  0  0  0  0  0
   20.3833   13.1339   50.5355 N   0  0  0  0  0  0  0  0  0  0  0  0
   23.3748   12.2009   50.8603 H   0  0  0  0  0  0  0  0  0  0  0  0
   22.5560   13.0941   52.1636 H   0  0  0  0  0  0  0  0  0  0  0  0
   20.6177   14.0987   50.8071 H   0  0  0  0  0  0  0  0  0  0  0  0
   25.8589    9.5075   54.4290 C   0  0  0  0  0  0  0  0  0  0  0  0
   27.0769    9.0454   55.1097 C   0  0  0  0  0  0  0  0  0  0  0  0
   27.1828    9.2212   56.4753 C   0  0  0  0  0  0  0  0  0  0  0  0
   28.3218    8.8147   57.1750 C   0  0  0  0  0  0  0  0  0  0  0  0
   29.3521    8.2274   56.4728 C   0  0  0  0  0  0  0  0  0  0  0  0
   29.2698    8.0407   55.1096 C   0  0  0  0  0  0  0  0  0  0  0  0
   28.1173    8.4600   54.4466 C   0  0  0  0  0  0  0  0  0  0  0  0
   23.9238    4.0237   55.6749 C   0  0  0  0  0  0  0  0  0  0  0  0
   23.7317    3.7474   57.0838 C   0  0  0  0  0  0  0  0  0  0  0  0
   22.7989    4.4751   57.7906 C   0  0  0  0  0  0  0  0  0  0  0  0
   22.5825    4.2468   59.1559 C   0  0  0  0  0  0  0  0  0  0  0  0
   23.3043    3.2838   59.8222 C   0  0  0  0  0  0  0  0  0  0  0  0
   24.2368    2.5512   59.1343 C   0  0  0  0  0  0  0  0  0  0  0  0
   24.4300    2.7911   57.8047 C   0  0  0  0  0  0  0  0  0  0  0  0
 35 36  1  0  0  0
 36 37  2  0  0  0
 36 33  1  0  0  0
 33 32  1  0  0  0
 32 31  1  0  0  0
 31 30  1  0  0  0
 30  1  1  0  0  0
  1  2  1  0  0  0
  2  3  1  0  0  0
  3  4  2  0  0  0
  3  5  1  0  0  0
  5  6  1  0  0  0
  6  7  1  0  0  0
  7  8  1  0  0  0
  8  9  1  0  0  0
  9 10  1  0  0  0
 10 11  2  0  0  0
 10 12  1  0  0  0
 12 41  1  0  0  0
 41 42  1  0  0  0
 42 43  2  0  0  0
 43 44  1  0  0  0
 44 45  2  0  0  0
 45 46  1  0  0  0
 46 47  2  0  0  0
 12 13  1  0  0  0
 13 14  1  0  0  0
 14 15  2  0  0  0
 14 16  1  0  0  0
 16 48  1  0  0  0
 48 49  1  0  0  0
 49 50  2  0  0  0
 50 51  1  0  0  0
 51 52  2  0  0  0
 52 53  1  0  0  0
 53 54  2  0  0  0
 16 17  1  0  0  0
 17 18  1  0  0  0
 18 19  2  0  0  0
 18 20  1  0  0  0
 20 21  1  0  0  0
 21 22  1  0  0  0
 22 23  1  0  0  0
 23 24  1  0  0  0
 24 25  1  0  0  0
 25 26  2  0  0  0
 25  1  1  0  0  0
  9  5  1  0  0  0
 47 42  1  0  0  0
 54 49  1  0  0  0
 24 20  1  0  0  0
 35 38  1  0  0  0
 35 39  1  0  0  0
 37 40  1  0  0  0
 33 34  1  0  0  0
  2 27  1  0  0  0
 13 28  1  0  0  0
 17 29  1  0  0  0
M  END
> <minimizedAffinity>
81.44290

> <CNNscore>
0.0921842977

> <CNNaffinity>
6.0455179214

> <CNN_VS>
0.5573018193

> <CNNaffinity_variance>
2.7897567749

$$$$
[H]N=C(N([H])[H])N([H])C([H])([H])C([H])([H])C([H])([H])[C@@]1([H])C(=O)N2C([H])([H])C([H])([H])C([H])([H])[C@@]2([H])C(=O)N([H])[C@@]([H])(C([H])([H])c2c([H])c([H])c([H])c([H])c2[H])C(=O)N([H])[C@]([H])(C([H])([H])c2c([H])c([H])c([H])c([H])c2[H])C(=O)N2C([H])([H])C([H])([H])C([H])([H])[C@@]2([H])C(=O)N1[H]


 54 58  0  0  0  0  0  0  0  0999 V2000
   18.5992    7.3696   52.8837 C   0  0  0  0  0  0  0  0  0  0  0  0
   19.0515    8.4641   53.7017 N   0  0  0  0  0  0  0  0  0  0  0  0
   20.1410    8.7582   54.4696 C   0  0  0  0  0  0  0  0  0  0  0  0
   19.8128    8.8932   55.7531 O   0  0  0  0  0  0  0  0  0  0  0  0
   21.5639    8.9833   54.3833 C   0  0  0  0  0  0  0  0  0  0  0  0
   21.7132   10.4678   54.8835 C   0  0  0  0  0  0  0  0  0  0  0  0
   21.3362   11.2625   53.6593 C   0  0  0  0  0  0  0  0  0  0  0  0
   21.4960   10.2707   52.5415 C   0  0  0  0  0  0  0  0  0  0  0  0
   22.2556    9.1489   53.1418 N   0  0  0  0  0  0  0  0  0  0  0  0
   23.3846    8.3934   52.6840 C   0  0  0  0  0  0  0  0  0  0  0  0
   23.1320    7.8617   51.5207 O   0  0  0  0  0  0  0  0  0  0  0  0
   24.6869    8.1045   53.2035 C   0  0  0  0  0  0  0  0  0  0  0  0
   24.9316    6.9307   53.9869 N   0  0  0  0  0  0  0  0  0  0  0  0
   24.2724    6.2698   55.0197 C   0  0  0  0  0  0  0  0  0  0  0  0
   24.6484    6.5896   56.2446 O   0  0  0  0  0  0  0  0  0  0  0  0
   23.2101    5.2497   55.0430 C   0  0  0  0  0  0  0  0  0  0  0  0
   22.4844    5.0637   53.8277 N   0  0  0  0  0  0  0  0  0  0  0  0
   21.1478    4.5335   53.7936 C   0  0  0  0  0  0  0  0  0  0  0  0
   20.9956    3.6576   52.8772 O   0  0  0  0  0  0  0  0  0  0  0  0
   20.0489    4.9051   54.6691 C   0  0  0  0  0  0  0  0  0  0  0  0
   19.7876    3.8470   55.7548 C   0  0  0  0  0  0  0  0  0  0  0  0
   18.5658    3.0855   55.3563 C   0  0  0  0  0  0  0  0  0  0  0  0
   18.2248    3.6718   54.0278 C   0  0  0  0  0  0  0  0  0  0  0  0
   18.7493    5.0528   54.0779 N   0  0  0  0  0  0  0  0  0  0  0  0
   18.0852    6.2224   53.6576 C   0  0  0  0  0  0  0  0  0  0  0  0
   16.8252    6.3234   53.9958 O   0  0  0  0  0  0  0  0  0  0  0  0
   18.3239    9.2893   53.7258 H   0  0  0  0  0  0  0  0  0  0  0  0
   25.8894    6.4230   53.7612 H   0  0  0  0  0  0  0  0  0  0  0  0
   22.9608    5.3211   52.9278 H   0  0  0  0  0  0  0  0  0  0  0  0
   19.4821    7.0572   51.7299 C   0  0  0  0  0  0  0  0  0  0  0  0
   19.9459    8.2403   50.9180 C   0  0  0  0  0  0  0  0  0  0  0  0
   18.8824    8.6299   49.8980 C   0  0  0  0  0  0  0  0  0  0  0  0
   17.6334    8.9541   50.5484 N   0  0  0  0  0  0  0  0  0  0  0  0
   17.4042    8.4691   51.4398 H   0  0  0  0  0  0  0  0  0  0  0  0
   16.9806   10.6838   48.8808 N   0  0  0  0  0  0  0  0  0  0  0  0
   16.7148    9.8915   50.0345 C   0  0  0  0  0  0  0  0  0  0  0  0
   15.5842   10.0448   50.6256 N   0  0  0  0  0  0  0  0  0  0  0  0
   17.3305   10.2350   48.0104 H   0  0  0  0  0  0  0  0  0  0  0  0
   16.8350   11.7064   48.8801 H   0  0  0  0  0  0  0  0  0  0  0  0
   14.9030   10.7257   50.2627 H   0  0  0  0  0  0  0  0  0  0  0  0
   25.5670    9.2663   53.6564 C   0  0  0  0  0  0  0  0  0  0  0  0
   26.7655    8.8517   54.3993 C   0  0  0  0  0  0  0  0  0  0  0  0
   26.8761    9.2002   55.7309 C   0  0  0  0  0  0  0  0  0  0  0  0
   27.9978    8.8461   56.4849 C   0  0  0  0  0  0  0  0  0  0  0  0
   29.0060    8.1340   55.8719 C   0  0  0  0  0  0  0  0  0  0  0  0
   28.9186    7.7741   54.5442 C   0  0  0  0  0  0  0  0  0  0  0  0
   27.7838    8.1461   53.8249 C   0  0  0  0  0  0  0  0  0  0  0  0
   23.7392    3.9559   55.6131 C   0  0  0  0  0  0  0  0  0  0  0  0
   23.6080    3.7751   57.0443 C   0  0  0  0  0  0  0  0  0  0  0  0
   22.6852    4.5300   57.7355 C   0  0  0  0  0  0  0  0  0  0  0  0
   22.5268    4.3934   59.1209 C   0  0  0  0  0  0  0  0  0  0  0  0
   23.2970    3.4956   59.8231 C   0  0  0  0  0  0  0  0  0  0  0  0
   24.2203    2.7372   59.1510 C   0  0  0  0  0  0  0  0  0  0  0  0
   24.3567    2.8873   57.8014 C   0  0  0  0  0  0  0  0  0  0  0  0
 35 36  1  0  0  0
 36 37  2  0  0  0
 36 33  1  0  0  0
 33 32  1  0  0  0
 32 31  1  0  0  0
 31 30  1  0  0  0
 30  1  1  0  0  0
  1  2  1  0  0  0
  2  3  1  0  0  0
  3  4  2  0  0  0
  3  5  1  0  0  0
  5  6  1  0  0  0
  6  7  1  0  0  0
  7  8  1  0  0  0
  8  9  1  0  0  0
  9 10  1  0  0  0
 10 11  2  0  0  0
 10 12  1  0  0  0
 12 41  1  0  0  0
 41 42  1  0  0  0
 42 43  2  0  0  0
 43 44  1  0  0  0
 44 45  2  0  0  0
 45 46  1  0  0  0
 46 47  2  0  0  0
 12 13  1  0  0  0
 13 14  1  0  0  0
 14 15  2  0  0  0
 14 16  1  0  0  0
 16 48  1  0  0  0
 48 49  1  0  0  0
 49 50  2  0  0  0
 50 51  1  0  0  0
 51 52  2  0  0  0
 52 53  1  0  0  0
 53 54  2  0  0  0
 16 17  1  0  0  0
 17 18  1  0  0  0
 18 19  2  0  0  0
 18 20  1  0  0  0
 20 21  1  0  0  0
 21 22  1  0  0  0
 22 23  1  0  0  0
 23 24  1  0  0  0
 24 25  1  0  0  0
 25 26  2  0  0  0
 25  1  1  0  0  0
  9  5  1  0  0  0
 47 42  1  0  0  0
 54 49  1  0  0  0
 24 20  1  0  0  0
 35 38  1  0  0  0
 35 39  1  0  0  0
 37 40  1  0  0  0
 33 34  1  0  0  0
  2 27  1  0  0  0
 13 28  1  0  0  0
 17 29  1  0  0  0
M  END
> <minimizedAffinity>
85.05267

> <CNNscore>
0.0800781101

> <CNNaffinity>
6.1693925858

> <CNN_VS>
0.4940333068

> <CNNaffinity_variance>
2.8162367344

$$$$
[H]N=C(N([H])[H])N([H])C([H])([H])C([H])([H])C([H])([H])[C@@]1([H])C(=O)N2C([H])([H])C([H])([H])C([H])([H])[C@@]2([H])C(=O)N([H])[C@@]([H])(C([H])([H])c2c([H])c([H])c([H])c([H])c2[H])C(=O)N([H])[C@]([H])(C([H])([H])c2c([H])c([H])c([H])c([H])c2[H])C(=O)N2C([H])([H])C([H])([H])C([H])([H])[C@@]2([H])C(=O)N1[H]


 54 58  0  0  0  0  0  0  0  0999 V2000
   21.0390   10.9260   54.4845 C   0  0  0  0  0  0  0  0  0  0  0  0
   20.8336   10.4748   53.1332 N   0  0  0  0  0  0  0  0  0  0  0  0
   21.2640    9.4486   52.3426 C   0  0  0  0  0  0  0  0  0  0  0  0
   21.9770    9.8929   51.3094 O   0  0  0  0  0  0  0  0  0  0  0  0
   21.2188    8.0112   52.2231 C   0  0  0  0  0  0  0  0  0  0  0  0
   20.4771    7.7982   50.8517 C   0  0  0  0  0  0  0  0  0  0  0  0
   19.0306    7.9874   51.2320 C   0  0  0  0  0  0  0  0  0  0  0  0
   19.0377    7.7932   52.7223 C   0  0  0  0  0  0  0  0  0  0  0  0
   20.3578    7.1873   53.0149 N   0  0  0  0  0  0  0  0  0  0  0  0
   20.7508    6.0799   53.8361 C   0  0  0  0  0  0  0  0  0  0  0  0
   20.3372    6.2546   55.0601 O   0  0  0  0  0  0  0  0  0  0  0  0
   21.4718    4.8628   53.6165 C   0  0  0  0  0  0  0  0  0  0  0  0
   22.8877    4.7900   53.8202 N   0  0  0  0  0  0  0  0  0  0  0  0
   23.9787    5.5991   53.5150 C   0  0  0  0  0  0  0  0  0  0  0  0
   24.6047    5.3246   52.3851 O   0  0  0  0  0  0  0  0  0  0  0  0
   24.6124    6.7342   54.2074 C   0  0  0  0  0  0  0  0  0  0  0  0
   23.8505    7.3461   55.2482 N   0  0  0  0  0  0  0  0  0  0  0  0
   24.0510    8.7096   55.6600 C   0  0  0  0  0  0  0  0  0  0  0  0
   24.0675    8.8362   56.9303 O   0  0  0  0  0  0  0  0  0  0  0  0
   24.2223    9.8588   54.7870 C   0  0  0  0  0  0  0  0  0  0  0  0
   25.6906   10.3093   54.7007 C   0  0  0  0  0  0  0  0  0  0  0  0
   25.8336   11.5402   55.5350 C   0  0  0  0  0  0  0  0  0  0  0  0
   24.4758   11.6992   56.1318 C   0  0  0  0  0  0  0  0  0  0  0  0
   23.5579   11.0769   55.1546 N   0  0  0  0  0  0  0  0  0  0  0  0
   22.3341   11.6027   54.6944 C   0  0  0  0  0  0  0  0  0  0  0  0
   22.3270   12.8787   54.4047 O   0  0  0  0  0  0  0  0  0  0  0  0
   20.1511   11.1349   52.5771 H   0  0  0  0  0  0  0  0  0  0  0  0
   23.2312    3.8566   54.3069 H   0  0  0  0  0  0  0  0  0  0  0  0
   23.1222    6.7630   55.7304 H   0  0  0  0  0  0  0  0  0  0  0  0
   20.6122    9.9583   55.5283 C   0  0  0  0  0  0  0  0  0  0  0  0
   21.3970    8.6722   55.5927 C   0  0  0  0  0  0  0  0  0  0  0  0
   20.7599    7.7147   56.5928 C   0  0  0  0  0  0  0  0  0  0  0  0
   21.7681    7.0114   57.3527 N   0  0  0  0  0  0  0  0  0  0  0  0
   22.3929    7.5676   57.9712 H   0  0  0  0  0  0  0  0  0  0  0  0
   21.0847    4.6970   57.9656 N   0  0  0  0  0  0  0  0  0  0  0  0
   21.9445    5.6142   57.2955 C   0  0  0  0  0  0  0  0  0  0  0  0
   22.9210    5.1368   56.6101 N   0  0  0  0  0  0  0  0  0  0  0  0
   20.0531    4.7819   57.8649 H   0  0  0  0  0  0  0  0  0  0  0  0
   21.4581    3.9378   58.5581 H   0  0  0  0  0  0  0  0  0  0  0  0
   23.0633    4.1187   56.5590 H   0  0  0  0  0  0  0  0  0  0  0  0
   21.0276    3.9454   52.4805 C   0  0  0  0  0  0  0  0  0  0  0  0
   19.6492    3.4534   52.6161 C   0  0  0  0  0  0  0  0  0  0  0  0
   18.8665    3.9431   53.6430 C   0  0  0  0  0  0  0  0  0  0  0  0
   17.5537    3.5033   53.8305 C   0  0  0  0  0  0  0  0  0  0  0  0
   17.0442    2.5608   52.9636 C   0  0  0  0  0  0  0  0  0  0  0  0
   17.8056    2.0573   51.9308 C   0  0  0  0  0  0  0  0  0  0  0  0
   19.1114    2.5205   51.7765 C   0  0  0  0  0  0  0  0  0  0  0  0
   26.0103    6.3671   54.6433 C   0  0  0  0  0  0  0  0  0  0  0  0
   26.9677    7.4504   54.7343 C   0  0  0  0  0  0  0  0  0  0  0  0
   27.5961    7.8902   53.5895 C   0  0  0  0  0  0  0  0  0  0  0  0
   28.5331    8.9311   53.6297 C   0  0  0  0  0  0  0  0  0  0  0  0
   28.8463    9.5383   54.8237 C   0  0  0  0  0  0  0  0  0  0  0  0
   28.2308    9.1124   55.9722 C   0  0  0  0  0  0  0  0  0  0  0  0
   27.3212    8.0970   55.9086 C   0  0  0  0  0  0  0  0  0  0  0  0
 35 36  1  0  0  0
 36 37  2  0  0  0
 36 33  1  0  0  0
 33 32  1  0  0  0
 32 31  1  0  0  0
 31 30  1  0  0  0
 30  1  1  0  0  0
  1  2  1  0  0  0
  2  3  1  0  0  0
  3  4  2  0  0  0
  3  5  1  0  0  0
  5  6  1  0  0  0
  6  7  1  0  0  0
  7  8  1  0  0  0
  8  9  1  0  0  0
  9 10  1  0  0  0
 10 11  2  0  0  0
 10 12  1  0  0  0
 12 41  1  0  0  0
 41 42  1  0  0  0
 42 43  2  0  0  0
 43 44  1  0  0  0
 44 45  2  0  0  0
 45 46  1  0  0  0
 46 47  2  0  0  0
 12 13  1  0  0  0
 13 14  1  0  0  0
 14 15  2  0  0  0
 14 16  1  0  0  0
 16 48  1  0  0  0
 48 49  1  0  0  0
 49 50  2  0  0  0
 50 51  1  0  0  0
 51 52  2  0  0  0
 52 53  1  0  0  0
 53 54  2  0  0  0
 16 17  1  0  0  0
 17 18  1  0  0  0
 18 19  2  0  0  0
 18 20  1  0  0  0
 20 21  1  0  0  0
 21 22  1  0  0  0
 22 23  1  0  0  0
 23 24  1  0  0  0
 24 25  1  0  0  0
 25 26  2  0  0  0
 25  1  1  0  0  0
  9  5  1  0  0  0
 47 42  1  0  0  0
 54 49  1  0  0  0
 24 20  1  0  0  0
 35 38  1  0  0  0
 35 39  1  0  0  0
 37 40  1  0  0  0
 33 34  1  0  0  0
  2 27  1  0  0  0
 13 28  1  0  0  0
 17 29  1  0  0  0
M  END
> <minimizedAffinity>
89.26501

> <CNNscore>
0.0758382976

> <CNNaffinity>
5.5432343483

> <CNN_VS>
0.4203894436

> <CNNaffinity_variance>
4.3627157211

$$$$
[H]OC(=O)c1nc(C(=O)c2c([H])c([H])c(Br)c([H])c2[H])c2c([H])c(O[H])c(O[H])c([H])c2c1[H]


 27 29  0  0  0  0  0  0  0  0999 V2000
   21.0867    6.8771   53.3489 C   0  0  0  0  0  0  0  0  0  0  0  0
   20.6728    7.6770   52.3093 C   0  0  0  0  0  0  0  0  0  0  0  0
   21.0874    8.9919   52.2285 C   0  0  0  0  0  0  0  0  0  0  0  0
   20.6429    9.7698   51.1751 C   0  0  0  0  0  0  0  0  0  0  0  0
   21.0142   11.0749   51.0567 C   0  0  0  0  0  0  0  0  0  0  0  0
   20.5817   11.8761   50.0087 O   0  0  0  0  0  0  0  0  0  0  0  0
   21.8416   11.5901   52.0158 C   0  0  0  0  0  0  0  0  0  0  0  0
   22.2311   12.9204   51.9124 O   0  0  0  0  0  0  0  0  0  0  0  0
   22.3082   10.8335   53.0903 C   0  0  0  0  0  0  0  0  0  0  0  0
   21.9380    9.5096   53.2172 C   0  0  0  0  0  0  0  0  0  0  0  0
   22.3340    8.6812   54.2425 C   0  0  0  0  0  0  0  0  0  0  0  0
   21.8863    7.4062   54.2551 N   0  0  0  0  0  0  0  0  0  0  0  0
   19.9796   11.5667   49.2774 H   0  0  0  0  0  0  0  0  0  0  0  0
   22.8377   13.3250   52.6020 H   0  0  0  0  0  0  0  0  0  0  0  0
   19.3091    5.1187   53.3197 O   0  0  0  0  0  0  0  0  0  0  0  0
   20.6174    5.5042   53.3811 C   0  0  0  0  0  0  0  0  0  0  0  0
   21.4899    4.5904   53.4732 O   0  0  0  0  0  0  0  0  0  0  0  0
   18.6261    5.1678   54.0361 H   0  0  0  0  0  0  0  0  0  0  0  0
   23.2575    9.1818   55.2410 C   0  0  0  0  0  0  0  0  0  0  0  0
   22.7292    9.8161   56.2234 O   0  0  0  0  0  0  0  0  0  0  0  0
   24.7086    9.0135   55.2010 C   0  0  0  0  0  0  0  0  0  0  0  0
   25.5676    9.4578   56.1715 C   0  0  0  0  0  0  0  0  0  0  0  0
   26.9409    9.2390   56.0246 C   0  0  0  0  0  0  0  0  0  0  0  0
   27.4767    8.5899   54.9364 C   0  0  0  0  0  0  0  0  0  0  0  0
   29.3718    8.3119   54.7767 Br  0  0  0  0  0  0  0  0  0  0  0  0
   26.6133    8.1481   53.9693 C   0  0  0  0  0  0  0  0  0  0  0  0
   25.2491    8.3606   54.1066 C   0  0  0  0  0  0  0  0  0  0  0  0
 15 16  1  0  0  0
 16 17  2  0  0  0
 16  1  1  0  0  0
  1  2  2  0  0  0
  2  3  1  0  0  0
  3  4  2  0  0  0
  4  5  1  0  0  0
  5  6  1  0  0  0
  5  7  2  0  0  0
  7  8  1  0  0  0
  7  9  1  0  0  0
  9 10  2  0  0  0
 10 11  1  0  0  0
 11 12  2  0  0  0
 11 19  1  0  0  0
 19 20  2  0  0  0
 19 21  1  0  0  0
 21 22  2  0  0  0
 22 23  1  0  0  0
 23 24  2  0  0  0
 24 25  1  0  0  0
 24 26  1  0  0  0
 26 27  2  0  0  0
 12  1  1  0  0  0
 27 21  1  0  0  0
 10  3  1  0  0  0
 15 18  1  0  0  0
  6 13  1  0  0  0
  8 14  1  0  0  0
M  END
> <minimizedAffinity>
10.49627

> <CNNscore>
0.6901212931

> <CNNaffinity>
6.1588754654

> <CNN_VS>
4.2503709793

> <CNNaffinity_variance>
0.4434874654

$$$$
[H]OC(=O)c1nc(C(=O)c2c([H])c([H])c(Br)c([H])c2[H])c2c([H])c(O[H])c(O[H])c([H])c2c1[H]


 27 29  0  0  0  0  0  0  0  0999 V2000
   21.8431   10.3886   52.3458 C   0  0  0  0  0  0  0  0  0  0  0  0
   20.6715    9.6926   52.5324 C   0  0  0  0  0  0  0  0  0  0  0  0
   20.6977    8.3535   52.8690 C   0  0  0  0  0  0  0  0  0  0  0  0
   19.5001    7.6829   53.0385 C   0  0  0  0  0  0  0  0  0  0  0  0
   19.4725    6.3596   53.3597 C   0  0  0  0  0  0  0  0  0  0  0  0
   18.2837    5.6645   53.5353 O   0  0  0  0  0  0  0  0  0  0  0  0
   20.6699    5.7163   53.5086 C   0  0  0  0  0  0  0  0  0  0  0  0
   20.6621    4.3653   53.8358 O   0  0  0  0  0  0  0  0  0  0  0  0
   21.8949    6.3625   53.3452 C   0  0  0  0  0  0  0  0  0  0  0  0
   21.9320    7.7038   53.0211 C   0  0  0  0  0  0  0  0  0  0  0  0
   23.0849    8.4306   52.8284 C   0  0  0  0  0  0  0  0  0  0  0  0
   22.9799    9.7371   52.4995 N   0  0  0  0  0  0  0  0  0  0  0  0
   17.3779    6.0696   53.4424 H   0  0  0  0  0  0  0  0  0  0  0  0
   21.5260    3.8678   53.9511 H   0  0  0  0  0  0  0  0  0  0  0  0
   22.5170   12.4178   51.0492 O   0  0  0  0  0  0  0  0  0  0  0  0
   21.7525   11.7932   51.9923 C   0  0  0  0  0  0  0  0  0  0  0  0
   20.8964   12.4965   52.6067 O   0  0  0  0  0  0  0  0  0  0  0  0
   23.4662   12.6935   51.1204 H   0  0  0  0  0  0  0  0  0  0  0  0
   24.3685    7.7908   53.0368 C   0  0  0  0  0  0  0  0  0  0  0  0
   24.5926    6.7432   52.3305 O   0  0  0  0  0  0  0  0  0  0  0  0
   25.3933    8.2509   53.9716 C   0  0  0  0  0  0  0  0  0  0  0  0
   26.7396    8.2281   53.7189 C   0  0  0  0  0  0  0  0  0  0  0  0
   27.6284    8.6957   54.6920 C   0  0  0  0  0  0  0  0  0  0  0  0
   27.2081    9.1839   55.9076 C   0  0  0  0  0  0  0  0  0  0  0  0
   28.4666    9.8160   57.2155 Br  0  0  0  0  0  0  0  0  0  0  0  0
   25.8611    9.2041   56.1548 C   0  0  0  0  0  0  0  0  0  0  0  0
   24.9718    8.7423   55.1951 C   0  0  0  0  0  0  0  0  0  0  0  0
 15 16  1  0  0  0
 16 17  2  0  0  0
 16  1  1  0  0  0
  1  2  2  0  0  0
  2  3  1  0  0  0
  3  4  2  0  0  0
  4  5  1  0  0  0
  5  6  1  0  0  0
  5  7  2  0  0  0
  7  8  1  0  0  0
  7  9  1  0  0  0
  9 10  2  0  0  0
 10 11  1  0  0  0
 11 12  2  0  0  0
 11 19  1  0  0  0
 19 20  2  0  0  0
 19 21  1  0  0  0
 21 22  2  0  0  0
 22 23  1  0  0  0
 23 24  2  0  0  0
 24 25  1  0  0  0
 24 26  1  0  0  0
 26 27  2  0  0  0
 12  1  1  0  0  0
 27 21  1  0  0  0
 10  3  1  0  0  0
 15 18  1  0  0  0
  6 13  1  0  0  0
  8 14  1  0  0  0
M  END
> <minimizedAffinity>
14.92730

> <CNNscore>
0.6169664264

> <CNNaffinity>
5.8400216103

> <CNN_VS>
3.6030972004

> <CNNaffinity_variance>
0.3478962183

$$$$
[H]OC(=O)c1nc(C(=O)c2c([H])c([H])c(Br)c([H])c2[H])c2c([H])c(O[H])c(O[H])c([H])c2c1[H]


 27 29  0  0  0  0  0  0  0  0999 V2000
   28.0762    6.5328   53.2219 C   0  0  0  0  0  0  0  0  0  0  0  0
   28.6831    7.4224   54.0776 C   0  0  0  0  0  0  0  0  0  0  0  0
   27.9247    8.2430   54.8892 C   0  0  0  0  0  0  0  0  0  0  0  0
   28.5686    9.1328   55.7295 C   0  0  0  0  0  0  0  0  0  0  0  0
   27.8657    9.9709   56.5409 C   0  0  0  0  0  0  0  0  0  0  0  0
   28.4888   10.8724   57.3931 O   0  0  0  0  0  0  0  0  0  0  0  0
   26.5007    9.9027   56.4961 C   0  0  0  0  0  0  0  0  0  0  0  0
   25.7658   10.7506   57.3166 O   0  0  0  0  0  0  0  0  0  0  0  0
   25.8201    9.0173   55.6609 C   0  0  0  0  0  0  0  0  0  0  0  0
   26.5247    8.1633   54.8363 C   0  0  0  0  0  0  0  0  0  0  0  0
   25.9505    7.2612   53.9699 C   0  0  0  0  0  0  0  0  0  0  0  0
   26.7577    6.4922   53.2062 N   0  0  0  0  0  0  0  0  0  0  0  0
   29.4766   10.9750   57.4764 H   0  0  0  0  0  0  0  0  0  0  0  0
   24.7627   10.7224   57.3044 H   0  0  0  0  0  0  0  0  0  0  0  0
   29.3050    5.9864   51.1138 O   0  0  0  0  0  0  0  0  0  0  0  0
   28.9252    5.6973   52.3929 C   0  0  0  0  0  0  0  0  0  0  0  0
   29.3480    4.6137   52.8949 O   0  0  0  0  0  0  0  0  0  0  0  0
   28.7607    5.9220   50.2881 H   0  0  0  0  0  0  0  0  0  0  0  0
   24.5078    7.1249   53.9430 C   0  0  0  0  0  0  0  0  0  0  0  0
   24.0591    5.9229   53.9611 O   0  0  0  0  0  0  0  0  0  0  0  0
   23.5607    8.2370   53.8993 C   0  0  0  0  0  0  0  0  0  0  0  0
   22.9638    8.7024   52.7573 C   0  0  0  0  0  0  0  0  0  0  0  0
   22.0716    9.7762   52.8382 C   0  0  0  0  0  0  0  0  0  0  0  0
   21.7615   10.3953   54.0270 C   0  0  0  0  0  0  0  0  0  0  0  0
   20.5290   11.8688   54.0902 Br  0  0  0  0  0  0  0  0  0  0  0  0
   22.3615    9.9260   55.1653 C   0  0  0  0  0  0  0  0  0  0  0  0
   23.2479    8.8610   55.0946 C   0  0  0  0  0  0  0  0  0  0  0  0
 15 16  1  0  0  0
 16 17  2  0  0  0
 16  1  1  0  0  0
  1  2  2  0  0  0
  2  3  1  0  0  0
  3  4  2  0  0  0
  4  5  1  0  0  0
  5  6  1  0  0  0
  5  7  2  0  0  0
  7  8  1  0  0  0
  7  9  1  0  0  0
  9 10  2  0  0  0
 10 11  1  0  0  0
 11 12  2  0  0  0
 11 19  1  0  0  0
 19 20  2  0  0  0
 19 21  1  0  0  0
 21 22  2  0  0  0
 22 23  1  0  0  0
 23 24  2  0  0  0
 24 25  1  0  0  0
 24 26  1  0  0  0
 26 27  2  0  0  0
 12  1  1  0  0  0
 27 21  1  0  0  0
 10  3  1  0  0  0
 15 18  1  0  0  0
  6 13  1  0  0  0
  8 14  1  0  0  0
M  END
> <minimizedAffinity>
31.59224

> <CNNscore>
0.5677252412

> <CNNaffinity>
5.3960766792

> <CNN_VS>
3.0634889603

> <CNNaffinity_variance>
0.5269693136

$$$$
[H]OC(=O)c1nc(C(=O)c2c([H])c([H])c(Br)c([H])c2[H])c2c([H])c(O[H])c(O[H])c([H])c2c1[H]


 27 29  0  0  0  0  0  0  0  0999 V2000
   25.0172    7.9473   54.1411 C   0  0  0  0  0  0  0  0  0  0  0  0
   24.3720    8.9884   53.5152 C   0  0  0  0  0  0  0  0  0  0  0  0
   23.1420    8.7934   52.9183 C   0  0  0  0  0  0  0  0  0  0  0  0
   22.5273    9.8604   52.2889 C   0  0  0  0  0  0  0  0  0  0  0  0
   21.3195    9.7168   51.6761 C   0  0  0  0  0  0  0  0  0  0  0  0
   20.6822   10.7723   51.0380 O   0  0  0  0  0  0  0  0  0  0  0  0
   20.7352    8.4808   51.7041 C   0  0  0  0  0  0  0  0  0  0  0  0
   19.5025    8.3145   51.0835 O   0  0  0  0  0  0  0  0  0  0  0  0
   21.3274    7.3843   52.3299 C   0  0  0  0  0  0  0  0  0  0  0  0
   22.5508    7.5213   52.9546 C   0  0  0  0  0  0  0  0  0  0  0  0
   23.2232    6.5025   53.5905 C   0  0  0  0  0  0  0  0  0  0  0  0
   24.4236    6.7691   54.1509 N   0  0  0  0  0  0  0  0  0  0  0  0
   21.0498   11.6968   50.9795 H   0  0  0  0  0  0  0  0  0  0  0  0
   19.0506    7.4184   51.0883 H   0  0  0  0  0  0  0  0  0  0  0  0
   27.5027    7.7263   54.3028 O   0  0  0  0  0  0  0  0  0  0  0  0
   26.3077    8.2124   54.7496 C   0  0  0  0  0  0  0  0  0  0  0  0
   26.3283    8.9537   55.7767 O   0  0  0  0  0  0  0  0  0  0  0  0
   27.8600    6.8070   54.3994 H   0  0  0  0  0  0  0  0  0  0  0  0
   22.6023    5.1965   53.6874 C   0  0  0  0  0  0  0  0  0  0  0  0
   23.4061    4.1987   53.7551 O   0  0  0  0  0  0  0  0  0  0  0  0
   21.1616    4.9524   53.7135 C   0  0  0  0  0  0  0  0  0  0  0  0
   20.2136    5.9253   53.8908 C   0  0  0  0  0  0  0  0  0  0  0  0
   18.8606    5.5717   53.8980 C   0  0  0  0  0  0  0  0  0  0  0  0
   18.4317    4.2750   53.7332 C   0  0  0  0  0  0  0  0  0  0  0  0
   16.5607    3.8355   53.7503 Br  0  0  0  0  0  0  0  0  0  0  0  0
   19.3840    3.3065   53.5565 C   0  0  0  0  0  0  0  0  0  0  0  0
   20.7286    3.6481   53.5479 C   0  0  0  0  0  0  0  0  0  0  0  0
 15 16  1  0  0  0
 16 17  2  0  0  0
 16  1  1  0  0  0
  1  2  2  0  0  0
  2  3  1  0  0  0
  3  4  2  0  0  0
  4  5  1  0  0  0
  5  6  1  0  0  0
  5  7  2  0  0  0
  7  8  1  0  0  0
  7  9  1  0  0  0
  9 10  2  0  0  0
 10 11  1  0  0  0
 11 12  2  0  0  0
 11 19  1  0  0  0
 19 20  2  0  0  0
 19 21  1  0  0  0
 21 22  2  0  0  0
 22 23  1  0  0  0
 23 24  2  0  0  0
 24 25  1  0  0  0
 24 26  1  0  0  0
 26 27  2  0  0  0
 12  1  1  0  0  0
 27 21  1  0  0  0
 10  3  1  0  0  0
 15 18  1  0  0  0
  6 13  1  0  0  0
  8 14  1  0  0  0
M  END
> <minimizedAffinity>
19.65706

> <CNNscore>
0.5610849261

> <CNNaffinity>
6.3190522194

> <CNN_VS>
3.5455248356

> <CNNaffinity_variance>
0.9615811110

$$$$
[H]OC(=O)c1nc(C(=O)c2c([H])c([H])c(Br)c([H])c2[H])c2c([H])c(O[H])c(O[H])c([H])c2c1[H]


 27 29  0  0  0  0  0  0  0  0999 V2000
   20.2848    5.5987   53.3053 C   0  0  0  0  0  0  0  0  0  0  0  0
   19.9950    6.4965   52.3043 C   0  0  0  0  0  0  0  0  0  0  0  0
   20.5505    7.7608   52.3142 C   0  0  0  0  0  0  0  0  0  0  0  0
   20.2285    8.6409   51.2973 C   0  0  0  0  0  0  0  0  0  0  0  0
   20.7411    9.9024   51.2679 C   0  0  0  0  0  0  0  0  0  0  0  0
   20.4334   10.8039   50.2580 O   0  0  0  0  0  0  0  0  0  0  0  0
   21.5854   10.2693   52.2790 C   0  0  0  0  0  0  0  0  0  0  0  0
   22.1183   11.5531   52.2667 O   0  0  0  0  0  0  0  0  0  0  0  0
   21.9309    9.4068   53.3190 C   0  0  0  0  0  0  0  0  0  0  0  0
   21.4170    8.1261   53.3557 C   0  0  0  0  0  0  0  0  0  0  0  0
   21.6864    7.2029   54.3403 C   0  0  0  0  0  0  0  0  0  0  0  0
   21.1046    5.9855   54.2638 N   0  0  0  0  0  0  0  0  0  0  0  0
   19.8272   10.6037   49.4928 H   0  0  0  0  0  0  0  0  0  0  0  0
   22.7406   11.8496   52.9961 H   0  0  0  0  0  0  0  0  0  0  0  0
   20.1935    3.2029   52.5951 O   0  0  0  0  0  0  0  0  0  0  0  0
   19.6704    4.2855   53.2419 C   0  0  0  0  0  0  0  0  0  0  0  0
   18.5609    4.1302   53.8332 O   0  0  0  0  0  0  0  0  0  0  0  0
   20.2161    3.0291   51.6197 H   0  0  0  0  0  0  0  0  0  0  0  0
   22.6231    7.5427   55.3927 C   0  0  0  0  0  0  0  0  0  0  0  0
   22.1580    7.5082   56.5881 O   0  0  0  0  0  0  0  0  0  0  0  0
   24.0222    7.9098   55.1842 C   0  0  0  0  0  0  0  0  0  0  0  0
   24.6492    8.9584   55.8040 C   0  0  0  0  0  0  0  0  0  0  0  0
   25.9953    9.2148   55.5250 C   0  0  0  0  0  0  0  0  0  0  0  0
   26.7290    8.4530   54.6453 C   0  0  0  0  0  0  0  0  0  0  0  0
   28.5776    8.8430   54.2924 Br  0  0  0  0  0  0  0  0  0  0  0  0
   26.0969    7.4061   54.0284 C   0  0  0  0  0  0  0  0  0  0  0  0
   24.7616    7.1442   54.2991 C   0  0  0  0  0  0  0  0  0  0  0  0
 15 16  1  0  0  0
 16 17  2  0  0  0
 16  1  1  0  0  0
  1  2  2  0  0  0
  2  3  1  0  0  0
  3  4  2  0  0  0
  4  5  1  0  0  0
  5  6  1  0  0  0
  5  7  2  0  0  0
  7  8  1  0  0  0
  7  9  1  0  0  0
  9 10  2  0  0  0
 10 11  1  0  0  0
 11 12  2  0  0  0
 11 19  1  0  0  0
 19 20  2  0  0  0
 19 21  1  0  0  0
 21 22  2  0  0  0
 22 23  1  0  0  0
 23 24  2  0  0  0
 24 25  1  0  0  0
 24 26  1  0  0  0
 26 27  2  0  0  0
 12  1  1  0  0  0
 27 21  1  0  0  0
 10  3  1  0  0  0
 15 18  1  0  0  0
  6 13  1  0  0  0
  8 14  1  0  0  0
M  END
> <minimizedAffinity>
15.22272

> <CNNscore>
0.4972089827

> <CNNaffinity>
6.1009063721

> <CNN_VS>
3.0334255695

> <CNNaffinity_variance>
0.6696680784

$$$$
[H]OC(=O)c1nc(C(=O)c2c([H])c([H])c(Br)c([H])c2[H])c2c([H])c(O[H])c(O[H])c([H])c2c1[H]


 27 29  0  0  0  0  0  0  0  0999 V2000
   20.6455    5.6193   53.5930 C   0  0  0  0  0  0  0  0  0  0  0  0
   20.1149    6.8014   54.0545 C   0  0  0  0  0  0  0  0  0  0  0  0
   20.9324    7.8855   54.3067 C   0  0  0  0  0  0  0  0  0  0  0  0
   20.3657    9.0548   54.7801 C   0  0  0  0  0  0  0  0  0  0  0  0
   21.1302   10.1480   55.0546 C   0  0  0  0  0  0  0  0  0  0  0  0
   20.5850   11.3329   55.5302 O   0  0  0  0  0  0  0  0  0  0  0  0
   22.4780   10.0499   54.8464 C   0  0  0  0  0  0  0  0  0  0  0  0
   23.2750   11.1551   55.1213 O   0  0  0  0  0  0  0  0  0  0  0  0
   23.0815    8.8864   54.3699 C   0  0  0  0  0  0  0  0  0  0  0  0
   22.3139    7.7742   54.0878 C   0  0  0  0  0  0  0  0  0  0  0  0
   22.8112    6.5775   53.6242 C   0  0  0  0  0  0  0  0  0  0  0  0
   21.9495    5.5606   53.4013 N   0  0  0  0  0  0  0  0  0  0  0  0
   19.6139   11.4736   55.7042 H   0  0  0  0  0  0  0  0  0  0  0  0
   24.2674   11.1114   54.9780 H   0  0  0  0  0  0  0  0  0  0  0  0
   20.0688    3.3486   52.7190 O   0  0  0  0  0  0  0  0  0  0  0  0
   19.7372    4.5146   53.3470 C   0  0  0  0  0  0  0  0  0  0  0  0
   18.5416    4.6410   53.7463 O   0  0  0  0  0  0  0  0  0  0  0  0
   20.2100    3.1983   51.7496 H   0  0  0  0  0  0  0  0  0  0  0  0
   24.2273    6.4621   53.3382 C   0  0  0  0  0  0  0  0  0  0  0  0
   24.5569    5.5419   52.5069 O   0  0  0  0  0  0  0  0  0  0  0  0
   25.2716    7.3036   53.9186 C   0  0  0  0  0  0  0  0  0  0  0  0
   25.3423    7.6490   55.2425 C   0  0  0  0  0  0  0  0  0  0  0  0
   26.3906    8.4624   55.6843 C   0  0  0  0  0  0  0  0  0  0  0  0
   27.3671    8.9382   54.8401 C   0  0  0  0  0  0  0  0  0  0  0  0
   28.7896   10.0540   55.4923 Br  0  0  0  0  0  0  0  0  0  0  0  0
   27.2912    8.5898   53.5177 C   0  0  0  0  0  0  0  0  0  0  0  0
   26.2547    7.7832   53.0704 C   0  0  0  0  0  0  0  0  0  0  0  0
 15 16  1  0  0  0
 16 17  2  0  0  0
 16  1  1  0  0  0
  1  2  2  0  0  0
  2  3  1  0  0  0
  3  4  2  0  0  0
  4  5  1  0  0  0
  5  6  1  0  0  0
  5  7  2  0  0  0
  7  8  1  0  0  0
  7  9  1  0  0  0
  9 10  2  0  0  0
 10 11  1  0  0  0
 11 12  2  0  0  0
 11 19  1  0  0  0
 19 20  2  0  0  0
 19 21  1  0  0  0
 21 22  2  0  0  0
 22 23  1  0  0  0
 23 24  2  0  0  0
 24 25  1  0  0  0
 24 26  1  0  0  0
 26 27  2  0  0  0
 12  1  1  0  0  0
 27 21  1  0  0  0
 10  3  1  0  0  0
 15 18  1  0  0  0
  6 13  1  0  0  0
  8 14  1  0  0  0
M  END
> <minimizedAffinity>
14.49447

> <CNNscore>
0.4923002124

> <CNNaffinity>
5.9944849014

> <CNN_VS>
2.9510862827

> <CNNaffinity_variance>
0.6562882066

$$$$
[H]OC(=O)c1nc(C(=O)c2c([H])c([H])c(Br)c([H])c2[H])c2c([H])c(O[H])c(O[H])c([H])c2c1[H]


 27 29  0  0  0  0  0  0  0  0999 V2000
   24.2255    8.8297   54.6684 C   0  0  0  0  0  0  0  0  0  0  0  0
   23.5536    9.7700   53.9227 C   0  0  0  0  0  0  0  0  0  0  0  0
   22.5646    9.3872   53.0381 C   0  0  0  0  0  0  0  0  0  0  0  0
   21.9172   10.3589   52.2971 C   0  0  0  0  0  0  0  0  0  0  0  0
   20.9429   10.0316   51.4035 C   0  0  0  0  0  0  0  0  0  0  0  0
   20.2784   10.9884   50.6483 O   0  0  0  0  0  0  0  0  0  0  0  0
   20.6266    8.7087   51.2637 C   0  0  0  0  0  0  0  0  0  0  0  0
   19.6350    8.3549   50.3561 O   0  0  0  0  0  0  0  0  0  0  0  0
   21.2593    7.7040   51.9953 C   0  0  0  0  0  0  0  0  0  0  0  0
   22.2469    8.0270   52.9041 C   0  0  0  0  0  0  0  0  0  0  0  0
   22.9379    7.1129   53.6665 C   0  0  0  0  0  0  0  0  0  0  0  0
   23.8933    7.5628   54.5098 N   0  0  0  0  0  0  0  0  0  0  0  0
   20.4579   11.9674   50.6993 H   0  0  0  0  0  0  0  0  0  0  0  0
   19.3824    7.3914   50.2328 H   0  0  0  0  0  0  0  0  0  0  0  0
   25.3939   10.5753   56.0250 O   0  0  0  0  0  0  0  0  0  0  0  0
   25.2554    9.2919   55.5805 C   0  0  0  0  0  0  0  0  0  0  0  0
   26.0926    8.4377   55.9979 O   0  0  0  0  0  0  0  0  0  0  0  0
   25.7507   11.3558   55.5294 H   0  0  0  0  0  0  0  0  0  0  0  0
   22.5844    5.7099   53.5833 C   0  0  0  0  0  0  0  0  0  0  0  0
   23.5662    4.8914   53.4701 O   0  0  0  0  0  0  0  0  0  0  0  0
   21.2212    5.1845   53.6205 C   0  0  0  0  0  0  0  0  0  0  0  0
   20.9019    3.8532   53.5714 C   0  0  0  0  0  0  0  0  0  0  0  0
   19.5583    3.4678   53.6141 C   0  0  0  0  0  0  0  0  0  0  0  0
   18.5285    4.3756   53.7042 C   0  0  0  0  0  0  0  0  0  0  0  0
   16.6957    3.7997   53.7599 Br  0  0  0  0  0  0  0  0  0  0  0  0
   18.8537    5.7052   53.7528 C   0  0  0  0  0  0  0  0  0  0  0  0
   20.1841    6.0968   53.7110 C   0  0  0  0  0  0  0  0  0  0  0  0
 15 16  1  0  0  0
 16 17  2  0  0  0
 16  1  1  0  0  0
  1  2  2  0  0  0
  2  3  1  0  0  0
  3  4  2  0  0  0
  4  5  1  0  0  0
  5  6  1  0  0  0
  5  7  2  0  0  0
  7  8  1  0  0  0
  7  9  1  0  0  0
  9 10  2  0  0  0
 10 11  1  0  0  0
 11 12  2  0  0  0
 11 19  1  0  0  0
 19 20  2  0  0  0
 19 21  1  0  0  0
 21 22  2  0  0  0
 22 23  1  0  0  0
 23 24  2  0  0  0
 24 25  1  0  0  0
 24 26  1  0  0  0
 26 27  2  0  0  0
 12  1  1  0  0  0
 27 21  1  0  0  0
 10  3  1  0  0  0
 15 18  1  0  0  0
  6 13  1  0  0  0
  8 14  1  0  0  0
M  END
> <minimizedAffinity>
26.02414

> <CNNscore>
0.4798782468

> <CNNaffinity>
6.0086269379

> <CNN_VS>
2.8834092617

> <CNNaffinity_variance>
0.9660466909

$$$$
[H]OC(=O)c1nc(C(=O)c2c([H])c([H])c(Br)c([H])c2[H])c2c([H])c(O[H])c(O[H])c([H])c2c1[H]


 27 29  0  0  0  0  0  0  0  0999 V2000
   26.0856    8.2770   54.5201 C   0  0  0  0  0  0  0  0  0  0  0  0
   25.3218    9.2332   55.1479 C   0  0  0  0  0  0  0  0  0  0  0  0
   23.9430    9.1752   55.0943 C   0  0  0  0  0  0  0  0  0  0  0  0
   23.2070   10.1596   55.7283 C   0  0  0  0  0  0  0  0  0  0  0  0
   21.8454   10.1533   55.6953 C   0  0  0  0  0  0  0  0  0  0  0  0
   21.0845   11.1296   56.3239 O   0  0  0  0  0  0  0  0  0  0  0  0
   21.2306    9.1401   55.0132 C   0  0  0  0  0  0  0  0  0  0  0  0
   19.8415    9.1169   54.9678 O   0  0  0  0  0  0  0  0  0  0  0  0
   21.9424    8.1321   54.3635 C   0  0  0  0  0  0  0  0  0  0  0  0
   23.3226    8.1301   54.3931 C   0  0  0  0  0  0  0  0  0  0  0  0
   24.1171    7.1896   53.7778 C   0  0  0  0  0  0  0  0  0  0  0  0
   25.4594    7.3128   53.8731 N   0  0  0  0  0  0  0  0  0  0  0  0
   21.4658   11.8942   56.8368 H   0  0  0  0  0  0  0  0  0  0  0  0
   19.3636    8.3852   54.4743 H   0  0  0  0  0  0  0  0  0  0  0  0
   28.2003    9.3210   55.3513 O   0  0  0  0  0  0  0  0  0  0  0  0
   27.5296    8.3909   54.6104 C   0  0  0  0  0  0  0  0  0  0  0  0
   28.2236    7.5620   53.9500 O   0  0  0  0  0  0  0  0  0  0  0  0
   28.3284   10.2828   55.1493 H   0  0  0  0  0  0  0  0  0  0  0  0
   23.4938    6.0719   53.0974 C   0  0  0  0  0  0  0  0  0  0  0  0
   24.2662    5.3708   52.3501 O   0  0  0  0  0  0  0  0  0  0  0  0
   22.0839    5.7035   53.2069 C   0  0  0  0  0  0  0  0  0  0  0  0
   21.0401    6.5200   52.8593 C   0  0  0  0  0  0  0  0  0  0  0  0
   19.7286    6.0581   53.0084 C   0  0  0  0  0  0  0  0  0  0  0  0
   19.4339    4.8054   53.4945 C   0  0  0  0  0  0  0  0  0  0  0  0
   17.6151    4.2130   53.6825 Br  0  0  0  0  0  0  0  0  0  0  0  0
   20.4813    3.9936   53.8406 C   0  0  0  0  0  0  0  0  0  0  0  0
   21.7858    4.4434   53.6960 C   0  0  0  0  0  0  0  0  0  0  0  0
 15 16  1  0  0  0
 16 17  2  0  0  0
 16  1  1  0  0  0
  1  2  2  0  0  0
  2  3  1  0  0  0
  3  4  2  0  0  0
  4  5  1  0  0  0
  5  6  1  0  0  0
  5  7  2  0  0  0
  7  8  1  0  0  0
  7  9  1  0  0  0
  9 10  2  0  0  0
 10 11  1  0  0  0
 11 12  2  0  0  0
 11 19  1  0  0  0
 19 20  2  0  0  0
 19 21  1  0  0  0
 21 22  2  0  0  0
 22 23  1  0  0  0
 23 24  2  0  0  0
 24 25  1  0  0  0
 24 26  1  0  0  0
 26 27  2  0  0  0
 12  1  1  0  0  0
 27 21  1  0  0  0
 10  3  1  0  0  0
 15 18  1  0  0  0
  6 13  1  0  0  0
  8 14  1  0  0  0
M  END
> <minimizedAffinity>
16.39818

> <CNNscore>
0.4717369080

> <CNNaffinity>
6.0629363060

> <CNN_VS>
2.8601107597

> <CNNaffinity_variance>
0.8296707869

$$$$
[H]OC(=O)c1nc(C(=O)c2c([H])c([H])c(Br)c([H])c2[H])c2c([H])c(O[H])c(O[H])c([H])c2c1[H]


 27 29  0  0  0  0  0  0  0  0999 V2000
   20.8725    4.6732   53.4030 C   0  0  0  0  0  0  0  0  0  0  0  0
   22.0214    4.6773   54.1591 C   0  0  0  0  0  0  0  0  0  0  0  0
   22.9431    5.6974   54.0281 C   0  0  0  0  0  0  0  0  0  0  0  0
   24.0922    5.6634   54.7969 C   0  0  0  0  0  0  0  0  0  0  0  0
   25.0367    6.6395   54.6965 C   0  0  0  0  0  0  0  0  0  0  0  0
   26.1979    6.6280   55.4572 O   0  0  0  0  0  0  0  0  0  0  0  0
   24.8101    7.6547   53.8088 C   0  0  0  0  0  0  0  0  0  0  0  0
   25.7630    8.6600   53.6918 O   0  0  0  0  0  0  0  0  0  0  0  0
   23.6626    7.7194   53.0190 C   0  0  0  0  0  0  0  0  0  0  0  0
   22.6996    6.7350   53.1154 C   0  0  0  0  0  0  0  0  0  0  0  0
   21.5393    6.7004   52.3759 C   0  0  0  0  0  0  0  0  0  0  0  0
   20.6852    5.6691   52.5582 N   0  0  0  0  0  0  0  0  0  0  0  0
   26.4265    5.9210   56.1213 H   0  0  0  0  0  0  0  0  0  0  0  0
   25.6230    9.4172   53.0482 H   0  0  0  0  0  0  0  0  0  0  0  0
   18.6047    3.7081   53.8255 O   0  0  0  0  0  0  0  0  0  0  0  0
   19.9417    3.5745   53.5836 C   0  0  0  0  0  0  0  0  0  0  0  0
   20.4053    2.3978   53.5110 O   0  0  0  0  0  0  0  0  0  0  0  0
   18.1629    3.9703   54.6730 H   0  0  0  0  0  0  0  0  0  0  0  0
   21.2439    7.7925   51.4701 C   0  0  0  0  0  0  0  0  0  0  0  0
   21.0324    7.4639   50.2479 O   0  0  0  0  0  0  0  0  0  0  0  0
   21.1726    9.2018   51.8503 C   0  0  0  0  0  0  0  0  0  0  0  0
   21.0040   10.2354   50.9670 C   0  0  0  0  0  0  0  0  0  0  0  0
   20.9507   11.5474   51.4482 C   0  0  0  0  0  0  0  0  0  0  0  0
   21.0611   11.8524   52.7851 C   0  0  0  0  0  0  0  0  0  0  0  0
   20.9822   13.6713   53.4010 Br  0  0  0  0  0  0  0  0  0  0  0  0
   21.2297   10.8151   53.6635 C   0  0  0  0  0  0  0  0  0  0  0  0
   21.2837    9.5102   53.1951 C   0  0  0  0  0  0  0  0  0  0  0  0
 15 16  1  0  0  0
 16 17  2  0  0  0
 16  1  1  0  0  0
  1  2  2  0  0  0
  2  3  1  0  0  0
  3  4  2  0  0  0
  4  5  1  0  0  0
  5  6  1  0  0  0
  5  7  2  0  0  0
  7  8  1  0  0  0
  7  9  1  0  0  0
  9 10  2  0  0  0
 10 11  1  0  0  0
 11 12  2  0  0  0
 11 19  1  0  0  0
 19 20  2  0  0  0
 19 21  1  0  0  0
 21 22  2  0  0  0
 22 23  1  0  0  0
 23 24  2  0  0  0
 24 25  1  0  0  0
 24 26  1  0  0  0
 26 27  2  0  0  0
 12  1  1  0  0  0
 27 21  1  0  0  0
 10  3  1  0  0  0
 15 18  1  0  0  0
  6 13  1  0  0  0
  8 14  1  0  0  0
M  END
> <minimizedAffinity>
28.15009

> <CNNscore>
0.4567610919

> <CNNaffinity>
6.0468730927

> <CNN_VS>
2.7619762421

> <CNNaffinity_variance>
1.1104576588

$$$$
[H]OC(=O)[C@@]([H])(N([H])C(=O)[C@@]([H])(N([H])C(=O)[C@@]([H])(N([H])C(=O)OC([H])([H])c1c([H])c([H])c([H])c([H])c1[H])C([H])([H])C([H])(C([H])([H])[H])C([H])([H])[H])C([H])([H])C([H])(C([H])([H])[H])C([H])([H])[H])C([H])([H])C([H])(C([H])([H])[H])C([H])([H])[H]


 39 39  0  0  0  0  0  0  0  0999 V2000
   24.8964    8.8564   55.0759 N   0  0  0  0  0  0  0  0  0  0  0  0
   25.9396    9.3048   55.8975 C   0  0  0  0  0  0  0  0  0  0  0  0
   25.6924   10.0015   56.9038 O   0  0  0  0  0  0  0  0  0  0  0  0
   25.1097    8.2776   54.2449 H   0  0  0  0  0  0  0  0  0  0  0  0
   23.4740    9.1514   55.3074 C   0  0  0  0  0  0  0  0  0  0  0  0
   22.7885    7.9696   53.1313 N   0  0  0  0  0  0  0  0  0  0  0  0
   22.7083    8.1878   54.5184 C   0  0  0  0  0  0  0  0  0  0  0  0
   21.8606    7.4593   55.1773 O   0  0  0  0  0  0  0  0  0  0  0  0
   23.4108    8.5032   52.5043 H   0  0  0  0  0  0  0  0  0  0  0  0
   21.9160    6.9236   52.5042 C   0  0  0  0  0  0  0  0  0  0  0  0
   20.6142    7.5739   52.3523 C   0  0  0  0  0  0  0  0  0  0  0  0
   19.6537    7.5699   53.3420 O   0  0  0  0  0  0  0  0  0  0  0  0
   20.2940    8.1811   51.2862 O   0  0  0  0  0  0  0  0  0  0  0  0
   18.8375    6.9941   53.3672 H   0  0  0  0  0  0  0  0  0  0  0  0
   22.0128    5.7647   53.4196 C   0  0  0  0  0  0  0  0  0  0  0  0
   23.8178    5.4142   55.1208 C   0  0  0  0  0  0  0  0  0  0  0  0
   23.3146    5.1519   53.7166 C   0  0  0  0  0  0  0  0  0  0  0  0
   24.4150    5.2674   52.7435 C   0  0  0  0  0  0  0  0  0  0  0  0
   23.2138   10.5930   55.0607 C   0  0  0  0  0  0  0  0  0  0  0  0
   21.8612   11.0279   54.6688 C   0  0  0  0  0  0  0  0  0  0  0  0
   21.5434   10.8438   53.1983 C   0  0  0  0  0  0  0  0  0  0  0  0
   20.8249   10.1913   55.4495 C   0  0  0  0  0  0  0  0  0  0  0  0
   27.3552    8.9686   55.6013 C   0  0  0  0  0  0  0  0  0  0  0  0
   27.6797    9.1176   54.2176 N   0  0  0  0  0  0  0  0  0  0  0  0
   26.9639    8.5380   53.1306 C   0  0  0  0  0  0  0  0  0  0  0  0
   25.9438    7.8187   53.3032 O   0  0  0  0  0  0  0  0  0  0  0  0
   28.5221    9.7067   53.9731 H   0  0  0  0  0  0  0  0  0  0  0  0
   27.3571    8.7386   51.8167 O   0  0  0  0  0  0  0  0  0  0  0  0
   28.0435    9.9167   51.4393 C   0  0  0  0  0  0  0  0  0  0  0  0
   28.2764    9.9648   49.9773 C   0  0  0  0  0  0  0  0  0  0  0  0
   28.3581    8.7900   49.2654 C   0  0  0  0  0  0  0  0  0  0  0  0
   28.5786    8.8480   47.9159 C   0  0  0  0  0  0  0  0  0  0  0  0
   28.7202   10.0425   47.2493 C   0  0  0  0  0  0  0  0  0  0  0  0
   28.6352   11.1914   47.9767 C   0  0  0  0  0  0  0  0  0  0  0  0
   28.4126   11.1607   49.3446 C   0  0  0  0  0  0  0  0  0  0  0  0
   28.2504    9.8254   56.4713 C   0  0  0  0  0  0  0  0  0  0  0  0
   27.9026    9.7081   57.9291 C   0  0  0  0  0  0  0  0  0  0  0  0
   28.5015    8.4152   58.4580 C   0  0  0  0  0  0  0  0  0  0  0  0
   28.5077   10.8958   58.6648 C   0  0  0  0  0  0  0  0  0  0  0  0
 16 17  1  0  0  0
 17 18  1  0  0  0
 17 15  1  0  0  0
 15 10  1  0  0  0
 10  6  1  0  0  0
  6  7  1  0  0  0
  7  8  2  0  0  0
  7  5  1  0  0  0
  5 19  1  0  0  0
 19 20  1  0  0  0
 20 21  1  0  0  0
 20 22  1  0  0  0
  5  1  1  0  0  0
  1  2  1  0  0  0
  2  3  2  0  0  0
  2 23  1  0  0  0
 23 36  1  0  0  0
 36 37  1  0  0  0
 37 38  1  0  0  0
 37 39  1  0  0  0
 23 24  1  0  0  0
 24 25  1  0  0  0
 25 26  2  0  0  0
 25 28  1  0  0  0
 28 29  1  0  0  0
 29 30  1  0  0  0
 30 31  2  0  0  0
 31 32  1  0  0  0
 32 33  2  0  0  0
 33 34  1  0  0  0
 34 35  2  0  0  0
 10 11  1  0  0  0
 11 12  1  0  0  0
 11 13  2  0  0  0
 35 30  1  0  0  0
  6  9  1  0  0  0
  1  4  1  0  0  0
 24 27  1  0  0  0
 12 14  1  0  0  0
M  END
> <minimizedAffinity>
13.45746

> <CNNscore>
0.5956708193

> <CNNaffinity>
6.6806616783

> <CNN_VS>
3.9794752598

> <CNNaffinity_variance>
0.4804791510

$$$$
[H]OC(=O)[C@@]([H])(N([H])C(=O)[C@@]([H])(N([H])C(=O)[C@@]([H])(N([H])C(=O)OC([H])([H])c1c([H])c([H])c([H])c([H])c1[H])C([H])([H])C([H])(C([H])([H])[H])C([H])([H])[H])C([H])([H])C([H])(C([H])([H])[H])C([H])([H])[H])C([H])([H])C([H])(C([H])([H])[H])C([H])([H])[H]


 39 39  0  0  0  0  0  0  0  0999 V2000
   25.1597    8.5804   55.0227 N   0  0  0  0  0  0  0  0  0  0  0  0
   24.5002    8.2128   53.8419 C   0  0  0  0  0  0  0  0  0  0  0  0
   25.1526    7.8094   52.8567 O   0  0  0  0  0  0  0  0  0  0  0  0
   24.6114    8.9117   55.8355 H   0  0  0  0  0  0  0  0  0  0  0  0
   26.6184    8.5308   55.2069 C   0  0  0  0  0  0  0  0  0  0  0  0
   28.1368    9.0447   57.2150 N   0  0  0  0  0  0  0  0  0  0  0  0
   26.8878    8.9808   56.5716 C   0  0  0  0  0  0  0  0  0  0  0  0
   25.8549    9.3583   57.2601 O   0  0  0  0  0  0  0  0  0  0  0  0
   29.0223    8.7515   56.7735 H   0  0  0  0  0  0  0  0  0  0  0  0
   28.2068    9.5432   58.6275 C   0  0  0  0  0  0  0  0  0  0  0  0
   28.4452   10.9810   58.4981 C   0  0  0  0  0  0  0  0  0  0  0  0
   28.5956   11.6098   57.2799 O   0  0  0  0  0  0  0  0  0  0  0  0
   28.5312   11.7354   59.5137 O   0  0  0  0  0  0  0  0  0  0  0  0
   29.4591   11.9059   56.8734 H   0  0  0  0  0  0  0  0  0  0  0  0
   29.2596    8.7169   59.2591 C   0  0  0  0  0  0  0  0  0  0  0  0
   30.6434   10.0335   60.8798 C   0  0  0  0  0  0  0  0  0  0  0  0
   29.6331    8.9259   60.6645 C   0  0  0  0  0  0  0  0  0  0  0  0
   29.9489    7.7658   61.5163 C   0  0  0  0  0  0  0  0  0  0  0  0
   27.2889    9.2650   54.1032 C   0  0  0  0  0  0  0  0  0  0  0  0
   28.7097    8.9998   53.8154 C   0  0  0  0  0  0  0  0  0  0  0  0
   29.6653   10.0478   54.3502 C   0  0  0  0  0  0  0  0  0  0  0  0
   29.1095    7.6636   54.4772 C   0  0  0  0  0  0  0  0  0  0  0  0
   23.0219    8.2898   53.7268 C   0  0  0  0  0  0  0  0  0  0  0  0
   22.5940    9.2085   52.7192 N   0  0  0  0  0  0  0  0  0  0  0  0
   21.7239   10.3179   52.9238 C   0  0  0  0  0  0  0  0  0  0  0  0
   21.2405   10.5953   54.0539 O   0  0  0  0  0  0  0  0  0  0  0  0
   22.9498    9.0570   51.7359 H   0  0  0  0  0  0  0  0  0  0  0  0
   21.3626   11.1558   51.8804 O   0  0  0  0  0  0  0  0  0  0  0  0
   22.1035   12.3293   51.6059 C   0  0  0  0  0  0  0  0  0  0  0  0
   21.2596   13.5419   51.7130 C   0  0  0  0  0  0  0  0  0  0  0  0
   20.4190   13.6889   52.7926 C   0  0  0  0  0  0  0  0  0  0  0  0
   19.6407   14.8114   52.8773 C   0  0  0  0  0  0  0  0  0  0  0  0
   19.6728   15.7969   51.9185 C   0  0  0  0  0  0  0  0  0  0  0  0
   20.5134   15.6277   50.8597 C   0  0  0  0  0  0  0  0  0  0  0  0
   21.3123   14.5002   50.7497 C   0  0  0  0  0  0  0  0  0  0  0  0
   22.4815    6.8993   53.4681 C   0  0  0  0  0  0  0  0  0  0  0  0
   22.2628    6.1314   54.7419 C   0  0  0  0  0  0  0  0  0  0  0  0
   23.5864    5.5092   55.1550 C   0  0  0  0  0  0  0  0  0  0  0  0
   21.7928    7.1041   55.8149 C   0  0  0  0  0  0  0  0  0  0  0  0
 16 17  1  0  0  0
 17 18  1  0  0  0
 17 15  1  0  0  0
 15 10  1  0  0  0
 10  6  1  0  0  0
  6  7  1  0  0  0
  7  8  2  0  0  0
  7  5  1  0  0  0
  5 19  1  0  0  0
 19 20  1  0  0  0
 20 21  1  0  0  0
 20 22  1  0  0  0
  5  1  1  0  0  0
  1  2  1  0  0  0
  2  3  2  0  0  0
  2 23  1  0  0  0
 23 36  1  0  0  0
 36 37  1  0  0  0
 37 38  1  0  0  0
 37 39  1  0  0  0
 23 24  1  0  0  0
 24 25  1  0  0  0
 25 26  2  0  0  0
 25 28  1  0  0  0
 28 29  1  0  0  0
 29 30  1  0  0  0
 30 31  2  0  0  0
 31 32  1  0  0  0
 32 33  2  0  0  0
 33 34  1  0  0  0
 34 35  2  0  0  0
 10 11  1  0  0  0
 11 12  1  0  0  0
 11 13  2  0  0  0
 35 30  1  0  0  0
  6  9  1  0  0  0
  1  4  1  0  0  0
 24 27  1  0  0  0
 12 14  1  0  0  0
M  END
> <minimizedAffinity>
13.15349

> <CNNscore>
0.5392288566

> <CNNaffinity>
6.3557291031

> <CNN_VS>
3.4271924496

> <CNNaffinity_variance>
0.6691024303

$$$$
[H]OC(=O)[C@@]([H])(N([H])C(=O)[C@@]([H])(N([H])C(=O)[C@@]([H])(N([H])C(=O)OC([H])([H])c1c([H])c([H])c([H])c([H])c1[H])C([H])([H])C([H])(C([H])([H])[H])C([H])([H])[H])C([H])([H])C([H])(C([H])([H])[H])C([H])([H])[H])C([H])([H])C([H])(C([H])([H])[H])C([H])([H])[H]


 39 39  0  0  0  0  0  0  0  0999 V2000
   26.1223    9.3753   55.9389 N   0  0  0  0  0  0  0  0  0  0  0  0
   25.2457    8.5465   55.2254 C   0  0  0  0  0  0  0  0  0  0  0  0
   25.6134    7.4117   54.8565 O   0  0  0  0  0  0  0  0  0  0  0  0
   25.8089   10.3136   56.2429 H   0  0  0  0  0  0  0  0  0  0  0  0
   27.4988    9.0064   56.3040 C   0  0  0  0  0  0  0  0  0  0  0  0
   28.7094    9.7733   58.4367 N   0  0  0  0  0  0  0  0  0  0  0  0
   27.9625   10.0035   57.2674 C   0  0  0  0  0  0  0  0  0  0  0  0
   27.6428   11.2344   57.0100 O   0  0  0  0  0  0  0  0  0  0  0  0
   29.0017    8.8352   58.7521 H   0  0  0  0  0  0  0  0  0  0  0  0
   29.0952   10.9380   59.2987 C   0  0  0  0  0  0  0  0  0  0  0  0
   29.6122   10.3315   60.5257 C   0  0  0  0  0  0  0  0  0  0  0  0
   29.1952    9.1007   60.9875 O   0  0  0  0  0  0  0  0  0  0  0  0
   30.4807   10.9152   61.2419 O   0  0  0  0  0  0  0  0  0  0  0  0
   28.5532    8.9400   61.7362 H   0  0  0  0  0  0  0  0  0  0  0  0
   27.8636   11.7535   59.3905 C   0  0  0  0  0  0  0  0  0  0  0  0
   29.1359   13.8351   59.9593 C   0  0  0  0  0  0  0  0  0  0  0  0
   27.8632   13.0296   60.1184 C   0  0  0  0  0  0  0  0  0  0  0  0
   27.3952   13.0734   61.5150 C   0  0  0  0  0  0  0  0  0  0  0  0
   28.3109    8.8186   55.0743 C   0  0  0  0  0  0  0  0  0  0  0  0
   27.7638    8.0250   53.9595 C   0  0  0  0  0  0  0  0  0  0  0  0
   27.5766    8.7990   52.6698 C   0  0  0  0  0  0  0  0  0  0  0  0
   28.7426    6.8742   53.6419 C   0  0  0  0  0  0  0  0  0  0  0  0
   23.8677    8.9863   54.8903 C   0  0  0  0  0  0  0  0  0  0  0  0
   22.9426    7.8990   54.8229 N   0  0  0  0  0  0  0  0  0  0  0  0
   22.2443    7.4754   53.6556 C   0  0  0  0  0  0  0  0  0  0  0  0
   22.3896    8.0437   52.5404 O   0  0  0  0  0  0  0  0  0  0  0  0
   22.7561    7.3593   55.7118 H   0  0  0  0  0  0  0  0  0  0  0  0
   21.3622    6.4067   53.6884 O   0  0  0  0  0  0  0  0  0  0  0  0
   20.2503    6.3601   52.8149 C   0  0  0  0  0  0  0  0  0  0  0  0
   19.1966    5.4526   53.3251 C   0  0  0  0  0  0  0  0  0  0  0  0
   17.9598    5.9636   53.6461 C   0  0  0  0  0  0  0  0  0  0  0  0
   16.9965    5.1155   54.1212 C   0  0  0  0  0  0  0  0  0  0  0  0
   17.2251    3.7695   54.2872 C   0  0  0  0  0  0  0  0  0  0  0  0
   18.4576    3.2884   53.9621 C   0  0  0  0  0  0  0  0  0  0  0  0
   19.4511    4.1257   53.4789 C   0  0  0  0  0  0  0  0  0  0  0  0
   23.4274   10.0205   55.9048 C   0  0  0  0  0  0  0  0  0  0  0  0
   22.1709   10.7289   55.4814 C   0  0  0  0  0  0  0  0  0  0  0  0
   22.2133   10.9114   53.9732 C   0  0  0  0  0  0  0  0  0  0  0  0
   20.9786    9.8623   55.8629 C   0  0  0  0  0  0  0  0  0  0  0  0
 16 17  1  0  0  0
 17 18  1  0  0  0
 17 15  1  0  0  0
 15 10  1  0  0  0
 10  6  1  0  0  0
  6  7  1  0  0  0
  7  8  2  0  0  0
  7  5  1  0  0  0
  5 19  1  0  0  0
 19 20  1  0  0  0
 20 21  1  0  0  0
 20 22  1  0  0  0
  5  1  1  0  0  0
  1  2  1  0  0  0
  2  3  2  0  0  0
  2 23  1  0  0  0
 23 36  1  0  0  0
 36 37  1  0  0  0
 37 38  1  0  0  0
 37 39  1  0  0  0
 23 24  1  0  0  0
 24 25  1  0  0  0
 25 26  2  0  0  0
 25 28  1  0  0  0
 28 29  1  0  0  0
 29 30  1  0  0  0
 30 31  2  0  0  0
 31 32  1  0  0  0
 32 33  2  0  0  0
 33 34  1  0  0  0
 34 35  2  0  0  0
 10 11  1  0  0  0
 11 12  1  0  0  0
 11 13  2  0  0  0
 35 30  1  0  0  0
  6  9  1  0  0  0
  1  4  1  0  0  0
 24 27  1  0  0  0
 12 14  1  0  0  0
M  END
> <minimizedAffinity>
14.44295

> <CNNscore>
0.5275067687

> <CNNaffinity>
6.2981886864

> <CNN_VS>
3.3223371506

> <CNNaffinity_variance>
0.2689181864

$$$$
[H]OC(=O)[C@@]([H])(N([H])C(=O)[C@@]([H])(N([H])C(=O)[C@@]([H])(N([H])C(=O)OC([H])([H])c1c([H])c([H])c([H])c([H])c1[H])C([H])([H])C([H])(C([H])([H])[H])C([H])([H])[H])C([H])([H])C([H])(C([H])([H])[H])C([H])([H])[H])C([H])([H])C([H])(C([H])([H])[H])C([H])([H])[H]


 39 39  0  0  0  0  0  0  0  0999 V2000
   25.0067    7.9126   54.5592 N   0  0  0  0  0  0  0  0  0  0  0  0
   26.0795    8.6040   55.1384 C   0  0  0  0  0  0  0  0  0  0  0  0
   25.8760    9.4247   56.0572 O   0  0  0  0  0  0  0  0  0  0  0  0
   25.1841    7.2325   53.7996 H   0  0  0  0  0  0  0  0  0  0  0  0
   23.6007    8.0806   54.9578 C   0  0  0  0  0  0  0  0  0  0  0  0
   21.3996    7.1706   53.9936 N   0  0  0  0  0  0  0  0  0  0  0  0
   22.7936    7.3569   53.9769 C   0  0  0  0  0  0  0  0  0  0  0  0
   23.4428    6.8278   52.9858 O   0  0  0  0  0  0  0  0  0  0  0  0
   20.7848    7.5278   54.7416 H   0  0  0  0  0  0  0  0  0  0  0  0
   20.7523    6.3958   52.8850 C   0  0  0  0  0  0  0  0  0  0  0  0
   20.6842    7.3393   51.7686 C   0  0  0  0  0  0  0  0  0  0  0  0
   21.7959    7.7442   51.0599 O   0  0  0  0  0  0  0  0  0  0  0  0
   19.5844    7.8447   51.3906 O   0  0  0  0  0  0  0  0  0  0  0  0
   22.2690    8.6189   51.1573 H   0  0  0  0  0  0  0  0  0  0  0  0
   19.4802    5.9120   53.4663 C   0  0  0  0  0  0  0  0  0  0  0  0
   19.9308    3.5389   52.8029 C   0  0  0  0  0  0  0  0  0  0  0  0
   19.3003    4.4919   53.7969 C   0  0  0  0  0  0  0  0  0  0  0  0
   17.9747    4.0015   54.2135 C   0  0  0  0  0  0  0  0  0  0  0  0
   23.3032    9.5229   55.1530 C   0  0  0  0  0  0  0  0  0  0  0  0
   21.9263   10.0110   54.9585 C   0  0  0  0  0  0  0  0  0  0  0  0
   21.5460   10.2586   53.5123 C   0  0  0  0  0  0  0  0  0  0  0  0
   20.9425    8.9490   55.4948 C   0  0  0  0  0  0  0  0  0  0  0  0
   27.4757    8.3843   54.6836 C   0  0  0  0  0  0  0  0  0  0  0  0
   27.7418    8.9790   53.4117 N   0  0  0  0  0  0  0  0  0  0  0  0
   26.8824    8.9288   52.2765 C   0  0  0  0  0  0  0  0  0  0  0  0
   25.7715    8.3347   52.2986 O   0  0  0  0  0  0  0  0  0  0  0  0
   28.6527    9.5020   53.2969 H   0  0  0  0  0  0  0  0  0  0  0  0
   27.2283    9.5371   51.0800 O   0  0  0  0  0  0  0  0  0  0  0  0
   28.5645    9.5112   50.6157 C   0  0  0  0  0  0  0  0  0  0  0  0
   28.6330    9.1633   49.1775 C   0  0  0  0  0  0  0  0  0  0  0  0
   29.2051    7.9715   48.7956 C   0  0  0  0  0  0  0  0  0  0  0  0
   29.2669    7.6640   47.4634 C   0  0  0  0  0  0  0  0  0  0  0  0
   28.7749    8.5078   46.4951 C   0  0  0  0  0  0  0  0  0  0  0  0
   28.2133    9.6815   46.8992 C   0  0  0  0  0  0  0  0  0  0  0  0
   28.1382   10.0172   48.2421 C   0  0  0  0  0  0  0  0  0  0  0  0
   28.4205    8.9088   55.7442 C   0  0  0  0  0  0  0  0  0  0  0  0
   27.6857    9.5358   56.8961 C   0  0  0  0  0  0  0  0  0  0  0  0
   28.0860    8.8071   58.1684 C   0  0  0  0  0  0  0  0  0  0  0  0
   28.0961   10.9991   56.9888 C   0  0  0  0  0  0  0  0  0  0  0  0
 16 17  1  0  0  0
 17 18  1  0  0  0
 17 15  1  0  0  0
 15 10  1  0  0  0
 10  6  1  0  0  0
  6  7  1  0  0  0
  7  8  2  0  0  0
  7  5  1  0  0  0
  5 19  1  0  0  0
 19 20  1  0  0  0
 20 21  1  0  0  0
 20 22  1  0  0  0
  5  1  1  0  0  0
  1  2  1  0  0  0
  2  3  2  0  0  0
  2 23  1  0  0  0
 23 36  1  0  0  0
 36 37  1  0  0  0
 37 38  1  0  0  0
 37 39  1  0  0  0
 23 24  1  0  0  0
 24 25  1  0  0  0
 25 26  2  0  0  0
 25 28  1  0  0  0
 28 29  1  0  0  0
 29 30  1  0  0  0
 30 31  2  0  0  0
 31 32  1  0  0  0
 32 33  2  0  0  0
 33 34  1  0  0  0
 34 35  2  0  0  0
 10 11  1  0  0  0
 11 12  1  0  0  0
 11 13  2  0  0  0
 35 30  1  0  0  0
  6  9  1  0  0  0
  1  4  1  0  0  0
 24 27  1  0  0  0
 12 14  1  0  0  0
M  END
> <minimizedAffinity>
13.97940

> <CNNscore>
0.5255931616

> <CNNaffinity>
6.6010270119

> <CNN_VS>
3.4694547653

> <CNNaffinity_variance>
0.4135867953

$$$$
[H]OC(=O)[C@@]([H])(N([H])C(=O)[C@@]([H])(N([H])C(=O)[C@@]([H])(N([H])C(=O)OC([H])([H])c1c([H])c([H])c([H])c([H])c1[H])C([H])([H])C([H])(C([H])([H])[H])C([H])([H])[H])C([H])([H])C([H])(C([H])([H])[H])C([H])([H])[H])C([H])([H])C([H])(C([H])([H])[H])C([H])([H])[H]


 39 39  0  0  0  0  0  0  0  0999 V2000
   25.3154    7.0262   53.8612 N   0  0  0  0  0  0  0  0  0  0  0  0
   25.5364    7.9985   54.8461 C   0  0  0  0  0  0  0  0  0  0  0  0
   24.5731    8.4979   55.4641 O   0  0  0  0  0  0  0  0  0  0  0  0
   26.1194    6.6157   53.3551 H   0  0  0  0  0  0  0  0  0  0  0  0
   23.9875    6.5238   53.4760 C   0  0  0  0  0  0  0  0  0  0  0  0
   21.7705    7.8204   53.3976 N   0  0  0  0  0  0  0  0  0  0  0  0
   23.1569    7.6943   53.1974 C   0  0  0  0  0  0  0  0  0  0  0  0
   23.7738    8.7257   52.7085 O   0  0  0  0  0  0  0  0  0  0  0  0
   21.1745    7.0602   53.7607 H   0  0  0  0  0  0  0  0  0  0  0  0
   21.0967    9.1145   53.0514 C   0  0  0  0  0  0  0  0  0  0  0  0
   20.9005    9.0506   51.6029 C   0  0  0  0  0  0  0  0  0  0  0  0
   20.5231    7.8973   50.9473 O   0  0  0  0  0  0  0  0  0  0  0  0
   21.0731   10.0653   50.8625 O   0  0  0  0  0  0  0  0  0  0  0  0
   21.1234    7.2972   50.4202 H   0  0  0  0  0  0  0  0  0  0  0  0
   22.0015   10.1565   53.5862 C   0  0  0  0  0  0  0  0  0  0  0  0
   23.0730   10.3128   55.8451 C   0  0  0  0  0  0  0  0  0  0  0  0
   21.8723   10.6197   54.9744 C   0  0  0  0  0  0  0  0  0  0  0  0
   20.6216   10.3723   55.7132 C   0  0  0  0  0  0  0  0  0  0  0  0
   23.4954    5.5685   54.5016 C   0  0  0  0  0  0  0  0  0  0  0  0
   22.1083    5.6785   54.9872 C   0  0  0  0  0  0  0  0  0  0  0  0
   21.8137    6.9452   55.7656 C   0  0  0  0  0  0  0  0  0  0  0  0
   21.1554    5.6786   53.7726 C   0  0  0  0  0  0  0  0  0  0  0  0
   26.9071    8.4596   55.1825 C   0  0  0  0  0  0  0  0  0  0  0  0
   27.5985    9.0027   54.0559 N   0  0  0  0  0  0  0  0  0  0  0  0
   27.1248    9.0012   52.7123 C   0  0  0  0  0  0  0  0  0  0  0  0
   26.0128    8.5036   52.3908 O   0  0  0  0  0  0  0  0  0  0  0  0
   28.5429    9.4443   54.2276 H   0  0  0  0  0  0  0  0  0  0  0  0
   27.8702    9.5526   51.6819 O   0  0  0  0  0  0  0  0  0  0  0  0
   28.0735    8.8414   50.4759 C   0  0  0  0  0  0  0  0  0  0  0  0
   28.3467    9.7576   49.3446 C   0  0  0  0  0  0  0  0  0  0  0  0
   28.3915   11.1148   49.5678 C   0  0  0  0  0  0  0  0  0  0  0  0
   28.6398   11.9510   48.5131 C   0  0  0  0  0  0  0  0  0  0  0  0
   28.8465   11.4779   47.2384 C   0  0  0  0  0  0  0  0  0  0  0  0
   28.7970   10.1303   47.0438 C   0  0  0  0  0  0  0  0  0  0  0  0
   28.5473    9.2614   48.0946 C   0  0  0  0  0  0  0  0  0  0  0  0
   26.8182    9.4658   56.3104 C   0  0  0  0  0  0  0  0  0  0  0  0
   28.1192    9.6015   57.0512 C   0  0  0  0  0  0  0  0  0  0  0  0
   28.3151   11.0670   57.4033 C   0  0  0  0  0  0  0  0  0  0  0  0
   28.0361    8.7715   58.3249 C   0  0  0  0  0  0  0  0  0  0  0  0
 16 17  1  0  0  0
 17 18  1  0  0  0
 17 15  1  0  0  0
 15 10  1  0  0  0
 10  6  1  0  0  0
  6  7  1  0  0  0
  7  8  2  0  0  0
  7  5  1  0  0  0
  5 19  1  0  0  0
 19 20  1  0  0  0
 20 21  1  0  0  0
 20 22  1  0  0  0
  5  1  1  0  0  0
  1  2  1  0  0  0
  2  3  2  0  0  0
  2 23  1  0  0  0
 23 36  1  0  0  0
 36 37  1  0  0  0
 37 38  1  0  0  0
 37 39  1  0  0  0
 23 24  1  0  0  0
 24 25  1  0  0  0
 25 26  2  0  0  0
 25 28  1  0  0  0
 28 29  1  0  0  0
 29 30  1  0  0  0
 30 31  2  0  0  0
 31 32  1  0  0  0
 32 33  2  0  0  0
 33 34  1  0  0  0
 34 35  2  0  0  0
 10 11  1  0  0  0
 11 12  1  0  0  0
 11 13  2  0  0  0
 35 30  1  0  0  0
  6  9  1  0  0  0
  1  4  1  0  0  0
 24 27  1  0  0  0
 12 14  1  0  0  0
M  END
> <minimizedAffinity>
12.60990

> <CNNscore>
0.5209351778

> <CNNaffinity>
6.4603776932

> <CNN_VS>
3.3654379845

> <CNNaffinity_variance>
0.6287992001

$$$$
[H]OC(=O)[C@@]([H])(N([H])C(=O)[C@@]([H])(N([H])C(=O)[C@@]([H])(N([H])C(=O)OC([H])([H])c1c([H])c([H])c([H])c([H])c1[H])C([H])([H])C([H])(C([H])([H])[H])C([H])([H])[H])C([H])([H])C([H])(C([H])([H])[H])C([H])([H])[H])C([H])([H])C([H])(C([H])([H])[H])C([H])([H])[H]


 39 39  0  0  0  0  0  0  0  0999 V2000
   25.9397    7.6310   54.7285 N   0  0  0  0  0  0  0  0  0  0  0  0
   26.1092    8.7388   55.5701 C   0  0  0  0  0  0  0  0  0  0  0  0
   25.1148    9.3571   56.0036 O   0  0  0  0  0  0  0  0  0  0  0  0
   26.7691    7.1226   54.3752 H   0  0  0  0  0  0  0  0  0  0  0  0
   24.6334    7.1138   54.2924 C   0  0  0  0  0  0  0  0  0  0  0  0
   22.7965    8.8643   53.8873 N   0  0  0  0  0  0  0  0  0  0  0  0
   23.9813    8.1879   53.5452 C   0  0  0  0  0  0  0  0  0  0  0  0
   24.5643    8.5494   52.4438 O   0  0  0  0  0  0  0  0  0  0  0  0
   22.2377    8.6478   54.7275 H   0  0  0  0  0  0  0  0  0  0  0  0
   22.2875    9.9488   52.9856 C   0  0  0  0  0  0  0  0  0  0  0  0
   21.6871   10.9282   53.8917 C   0  0  0  0  0  0  0  0  0  0  0  0
   21.1469   12.1202   53.4565 O   0  0  0  0  0  0  0  0  0  0  0  0
   21.6342   10.7321   55.1433 O   0  0  0  0  0  0  0  0  0  0  0  0
   21.5763   13.0199   53.5237 H   0  0  0  0  0  0  0  0  0  0  0  0
   21.4003    9.2486   52.0302 C   0  0  0  0  0  0  0  0  0  0  0  0
   20.3106    8.1783   54.0157 C   0  0  0  0  0  0  0  0  0  0  0  0
   20.3882    8.2968   52.5078 C   0  0  0  0  0  0  0  0  0  0  0  0
   20.2809    6.9685   51.8791 C   0  0  0  0  0  0  0  0  0  0  0  0
   23.9014    6.5532   55.4572 C   0  0  0  0  0  0  0  0  0  0  0  0
   22.9075    5.4863   55.2425 C   0  0  0  0  0  0  0  0  0  0  0  0
   21.6850    5.5778   56.1339 C   0  0  0  0  0  0  0  0  0  0  0  0
   22.3967    5.5688   53.7880 C   0  0  0  0  0  0  0  0  0  0  0  0
   27.4609    9.2063   55.9688 C   0  0  0  0  0  0  0  0  0  0  0  0
   27.6733    9.1405   57.3805 N   0  0  0  0  0  0  0  0  0  0  0  0
   28.2158   10.1820   58.1871 C   0  0  0  0  0  0  0  0  0  0  0  0
   28.5663   11.2928   57.7066 O   0  0  0  0  0  0  0  0  0  0  0  0
   27.4075    8.2449   57.8742 H   0  0  0  0  0  0  0  0  0  0  0  0
   28.3864   10.0242   59.5536 O   0  0  0  0  0  0  0  0  0  0  0  0
   29.5753   10.4548   60.1881 C   0  0  0  0  0  0  0  0  0  0  0  0
   29.4859   11.8738   60.6036 C   0  0  0  0  0  0  0  0  0  0  0  0
   28.2500   12.4656   60.7311 C   0  0  0  0  0  0  0  0  0  0  0  0
   28.1811   13.7787   61.1107 C   0  0  0  0  0  0  0  0  0  0  0  0
   29.3072   14.5246   61.3694 C   0  0  0  0  0  0  0  0  0  0  0  0
   30.5187   13.9156   61.2361 C   0  0  0  0  0  0  0  0  0  0  0  0
   30.6165   12.5870   60.8529 C   0  0  0  0  0  0  0  0  0  0  0  0
   28.4964    8.3955   55.2187 C   0  0  0  0  0  0  0  0  0  0  0  0
   28.9803    9.1009   53.9825 C   0  0  0  0  0  0  0  0  0  0  0  0
   27.8306    9.1638   52.9905 C   0  0  0  0  0  0  0  0  0  0  0  0
   29.4059   10.5107   54.3689 C   0  0  0  0  0  0  0  0  0  0  0  0
 16 17  1  0  0  0
 17 18  1  0  0  0
 17 15  1  0  0  0
 15 10  1  0  0  0
 10  6  1  0  0  0
  6  7  1  0  0  0
  7  8  2  0  0  0
  7  5  1  0  0  0
  5 19  1  0  0  0
 19 20  1  0  0  0
 20 21  1  0  0  0
 20 22  1  0  0  0
  5  1  1  0  0  0
  1  2  1  0  0  0
  2  3  2  0  0  0
  2 23  1  0  0  0
 23 36  1  0  0  0
 36 37  1  0  0  0
 37 38  1  0  0  0
 37 39  1  0  0  0
 23 24  1  0  0  0
 24 25  1  0  0  0
 25 26  2  0  0  0
 25 28  1  0  0  0
 28 29  1  0  0  0
 29 30  1  0  0  0
 30 31  2  0  0  0
 31 32  1  0  0  0
 32 33  2  0  0  0
 33 34  1  0  0  0
 34 35  2  0  0  0
 10 11  1  0  0  0
 11 12  1  0  0  0
 11 13  2  0  0  0
 35 30  1  0  0  0
  6  9  1  0  0  0
  1  4  1  0  0  0
 24 27  1  0  0  0
 12 14  1  0  0  0
M  END
> <minimizedAffinity>
8.49587

> <CNNscore>
0.5067216158

> <CNNaffinity>
6.4924635887

> <CNN_VS>
3.2898716927

> <CNNaffinity_variance>
0.3254290223

$$$$
[H]OC(=O)[C@@]([H])(N([H])C(=O)[C@@]([H])(N([H])C(=O)[C@@]([H])(N([H])C(=O)OC([H])([H])c1c([H])c([H])c([H])c([H])c1[H])C([H])([H])C([H])(C([H])([H])[H])C([H])([H])[H])C([H])([H])C([H])(C([H])([H])[H])C([H])([H])[H])C([H])([H])C([H])(C([H])([H])[H])C([H])([H])[H]


 39 39  0  0  0  0  0  0  0  0999 V2000
   24.9312    9.6748   55.5668 N   0  0  0  0  0  0  0  0  0  0  0  0
   25.8610    9.3723   56.5710 C   0  0  0  0  0  0  0  0  0  0  0  0
   25.4750    9.1357   57.7347 O   0  0  0  0  0  0  0  0  0  0  0  0
   25.2592    9.8675   54.6043 H   0  0  0  0  0  0  0  0  0  0  0  0
   23.4768    9.7420   55.7771 C   0  0  0  0  0  0  0  0  0  0  0  0
   23.1696    7.8427   54.0740 N   0  0  0  0  0  0  0  0  0  0  0  0
   22.9223    8.4738   55.3064 C   0  0  0  0  0  0  0  0  0  0  0  0
   22.1105    7.8715   56.1198 O   0  0  0  0  0  0  0  0  0  0  0  0
   23.7802    8.2385   53.3422 H   0  0  0  0  0  0  0  0  0  0  0  0
   22.5037    6.5324   53.7772 C   0  0  0  0  0  0  0  0  0  0  0  0
   23.5065    5.5243   54.1221 C   0  0  0  0  0  0  0  0  0  0  0  0
   23.7534    5.1249   55.4189 O   0  0  0  0  0  0  0  0  0  0  0  0
   24.2144    4.9591   53.2349 O   0  0  0  0  0  0  0  0  0  0  0  0
   24.5265    5.4088   55.9846 H   0  0  0  0  0  0  0  0  0  0  0  0
   22.0856    6.6429   52.3619 C   0  0  0  0  0  0  0  0  0  0  0  0
   20.8495    8.4877   51.2026 C   0  0  0  0  0  0  0  0  0  0  0  0
   20.7761    7.2084   52.0099 C   0  0  0  0  0  0  0  0  0  0  0  0
   19.7228    7.3047   53.0359 C   0  0  0  0  0  0  0  0  0  0  0  0
   22.9391   10.9869   55.1707 C   0  0  0  0  0  0  0  0  0  0  0  0
   21.5942   10.9764   54.5679 C   0  0  0  0  0  0  0  0  0  0  0  0
   21.5688   10.6205   53.0948 C   0  0  0  0  0  0  0  0  0  0  0  0
   20.7347    9.9166   55.2899 C   0  0  0  0  0  0  0  0  0  0  0  0
   27.3173    9.3232   56.2859 C   0  0  0  0  0  0  0  0  0  0  0  0
   28.1142    9.4036   57.4695 N   0  0  0  0  0  0  0  0  0  0  0  0
   28.4618   10.6028   58.1556 C   0  0  0  0  0  0  0  0  0  0  0  0
   28.0803   11.7378   57.7634 O   0  0  0  0  0  0  0  0  0  0  0  0
   28.4803    8.4993   57.8753 H   0  0  0  0  0  0  0  0  0  0  0  0
   29.2440   10.5808   59.2997 O   0  0  0  0  0  0  0  0  0  0  0  0
   28.7712   11.1416   60.5095 C   0  0  0  0  0  0  0  0  0  0  0  0
   29.2807   12.5186   60.7054 C   0  0  0  0  0  0  0  0  0  0  0  0
   28.4137   13.5824   60.6037 C   0  0  0  0  0  0  0  0  0  0  0  0
   28.8980   14.8500   60.7819 C   0  0  0  0  0  0  0  0  0  0  0  0
   30.2226   15.0939   61.0600 C   0  0  0  0  0  0  0  0  0  0  0  0
   31.0604   14.0237   61.1557 C   0  0  0  0  0  0  0  0  0  0  0  0
   30.5957   12.7296   60.9795 C   0  0  0  0  0  0  0  0  0  0  0  0
   27.6175    8.0609   55.5057 C   0  0  0  0  0  0  0  0  0  0  0  0
   28.0281    8.3552   54.0898 C   0  0  0  0  0  0  0  0  0  0  0  0
   26.7716    8.4449   53.2395 C   0  0  0  0  0  0  0  0  0  0  0  0
   28.7612    9.6895   54.0694 C   0  0  0  0  0  0  0  0  0  0  0  0
 16 17  1  0  0  0
 17 18  1  0  0  0
 17 15  1  0  0  0
 15 10  1  0  0  0
 10  6  1  0  0  0
  6  7  1  0  0  0
  7  8  2  0  0  0
  7  5  1  0  0  0
  5 19  1  0  0  0
 19 20  1  0  0  0
 20 21  1  0  0  0
 20 22  1  0  0  0
  5  1  1  0  0  0
  1  2  1  0  0  0
  2  3  2  0  0  0
  2 23  1  0  0  0
 23 36  1  0  0  0
 36 37  1  0  0  0
 37 38  1  0  0  0
 37 39  1  0  0  0
 23 24  1  0  0  0
 24 25  1  0  0  0
 25 26  2  0  0  0
 25 28  1  0  0  0
 28 29  1  0  0  0
 29 30  1  0  0  0
 30 31  2  0  0  0
 31 32  1  0  0  0
 32 33  2  0  0  0
 33 34  1  0  0  0
 34 35  2  0  0  0
 10 11  1  0  0  0
 11 12  1  0  0  0
 11 13  2  0  0  0
 35 30  1  0  0  0
  6  9  1  0  0  0
  1  4  1  0  0  0
 24 27  1  0  0  0
 12 14  1  0  0  0
M  END
> <minimizedAffinity>
7.07842

> <CNNscore>
0.4937069714

> <CNNaffinity>
6.5272369385

> <CNN_VS>
3.2225422859

> <CNNaffinity_variance>
0.5344674587

$$$$
[H]OC(=O)[C@@]([H])(N([H])C(=O)[C@@]([H])(N([H])C(=O)[C@@]([H])(N([H])C(=O)OC([H])([H])c1c([H])c([H])c([H])c([H])c1[H])C([H])([H])C([H])(C([H])([H])[H])C([H])([H])[H])C([H])([H])C([H])(C([H])([H])[H])C([H])([H])[H])C([H])([H])C([H])(C([H])([H])[H])C([H])([H])[H]


 39 39  0  0  0  0  0  0  0  0999 V2000
   25.5360    9.3902   55.5661 N   0  0  0  0  0  0  0  0  0  0  0  0
   26.2952    9.3054   56.7411 C   0  0  0  0  0  0  0  0  0  0  0  0
   25.7564    8.9649   57.8148 O   0  0  0  0  0  0  0  0  0  0  0  0
   25.9907    9.6711   54.6799 H   0  0  0  0  0  0  0  0  0  0  0  0
   24.0956    9.1016   55.4876 C   0  0  0  0  0  0  0  0  0  0  0  0
   22.6128    8.4143   53.5049 N   0  0  0  0  0  0  0  0  0  0  0  0
   23.8499    8.5326   54.1634 C   0  0  0  0  0  0  0  0  0  0  0  0
   24.8930    8.0866   53.5338 O   0  0  0  0  0  0  0  0  0  0  0  0
   21.7156    8.7152   53.9167 H   0  0  0  0  0  0  0  0  0  0  0  0
   22.5684    7.8011   52.1372 C   0  0  0  0  0  0  0  0  0  0  0  0
   21.2829    8.2285   51.5845 C   0  0  0  0  0  0  0  0  0  0  0  0
   20.2725    7.3454   51.2662 O   0  0  0  0  0  0  0  0  0  0  0  0
   21.0272    9.4504   51.3622 O   0  0  0  0  0  0  0  0  0  0  0  0
   20.0313    7.0337   50.3480 H   0  0  0  0  0  0  0  0  0  0  0  0
   22.7786    6.3554   52.3737 C   0  0  0  0  0  0  0  0  0  0  0  0
   20.7865    6.0392   53.8592 C   0  0  0  0  0  0  0  0  0  0  0  0
   22.2366    5.7067   53.5752 C   0  0  0  0  0  0  0  0  0  0  0  0
   23.0209    5.7084   54.8227 C   0  0  0  0  0  0  0  0  0  0  0  0
   23.3201   10.3116   55.8632 C   0  0  0  0  0  0  0  0  0  0  0  0
   21.8650   10.3400   55.6309 C   0  0  0  0  0  0  0  0  0  0  0  0
   21.4558   10.8752   54.2732 C   0  0  0  0  0  0  0  0  0  0  0  0
   21.3203    8.8980   55.7161 C   0  0  0  0  0  0  0  0  0  0  0  0
   27.7477    9.6133   56.7461 C   0  0  0  0  0  0  0  0  0  0  0  0
   28.3078    9.6106   58.0609 N   0  0  0  0  0  0  0  0  0  0  0  0
   28.5556   10.7643   58.8592 C   0  0  0  0  0  0  0  0  0  0  0  0
   28.2905   11.9295   58.4596 O   0  0  0  0  0  0  0  0  0  0  0  0
   28.5623    8.6758   58.4825 H   0  0  0  0  0  0  0  0  0  0  0  0
   29.1055   10.6618   60.1274 O   0  0  0  0  0  0  0  0  0  0  0  0
   28.6394   11.4770   61.1855 C   0  0  0  0  0  0  0  0  0  0  0  0
   29.2006   12.8454   61.1046 C   0  0  0  0  0  0  0  0  0  0  0  0
   30.5598   13.0278   61.2186 C   0  0  0  0  0  0  0  0  0  0  0  0
   31.0653   14.2976   61.1472 C   0  0  0  0  0  0  0  0  0  0  0  0
   30.2584   15.3962   60.9645 C   0  0  0  0  0  0  0  0  0  0  0  0
   28.9163   15.1889   60.8543 C   0  0  0  0  0  0  0  0  0  0  0  0
   28.3784   13.9132   60.9233 C   0  0  0  0  0  0  0  0  0  0  0  0
   28.4570    8.6252   55.8444 C   0  0  0  0  0  0  0  0  0  0  0  0
   27.9725    8.7070   54.4237 C   0  0  0  0  0  0  0  0  0  0  0  0
   28.8112    9.7435   53.6945 C   0  0  0  0  0  0  0  0  0  0  0  0
   28.1578    7.3429   53.7732 C   0  0  0  0  0  0  0  0  0  0  0  0
 16 17  1  0  0  0
 17 18  1  0  0  0
 17 15  1  0  0  0
 15 10  1  0  0  0
 10  6  1  0  0  0
  6  7  1  0  0  0
  7  8  2  0  0  0
  7  5  1  0  0  0
  5 19  1  0  0  0
 19 20  1  0  0  0
 20 21  1  0  0  0
 20 22  1  0  0  0
  5  1  1  0  0  0
  1  2  1  0  0  0
  2  3  2  0  0  0
  2 23  1  0  0  0
 23 36  1  0  0  0
 36 37  1  0  0  0
 37 38  1  0  0  0
 37 39  1  0  0  0
 23 24  1  0  0  0
 24 25  1  0  0  0
 25 26  2  0  0  0
 25 28  1  0  0  0
 28 29  1  0  0  0
 29 30  1  0  0  0
 30 31  2  0  0  0
 31 32  1  0  0  0
 32 33  2  0  0  0
 33 34  1  0  0  0
 34 35  2  0  0  0
 10 11  1  0  0  0
 11 12  1  0  0  0
 11 13  2  0  0  0
 35 30  1  0  0  0
  6  9  1  0  0  0
  1  4  1  0  0  0
 24 27  1  0  0  0
 12 14  1  0  0  0
M  END
> <minimizedAffinity>
5.63260

> <CNNscore>
0.4898320735

> <CNNaffinity>
6.4637093544

> <CNN_VS>
3.1661322117

> <CNNaffinity_variance>
0.9133670926

$$$$
[H]OC(=O)[C@@]([H])(N([H])C(=O)[C@@]([H])(N([H])C(=O)[C@@]([H])(N([H])C(=O)OC([H])([H])c1c([H])c([H])c([H])c([H])c1[H])C([H])([H])C([H])(C([H])([H])[H])C([H])([H])[H])C([H])([H])C([H])(C([H])([H])[H])C([H])([H])[H])C([H])([H])C([H])(C([H])([H])[H])C([H])([H])[H]


 39 39  0  0  0  0  0  0  0  0999 V2000
   25.2456    9.5885   55.5602 N   0  0  0  0  0  0  0  0  0  0  0  0
   26.1878    9.4057   56.5815 C   0  0  0  0  0  0  0  0  0  0  0  0
   25.8446    8.9004   57.6706 O   0  0  0  0  0  0  0  0  0  0  0  0
   25.5387   10.0060   54.6597 H   0  0  0  0  0  0  0  0  0  0  0  0
   23.8251    9.2215   55.6678 C   0  0  0  0  0  0  0  0  0  0  0  0
   22.5279    7.2376   54.6759 N   0  0  0  0  0  0  0  0  0  0  0  0
   23.5858    8.1643   54.6867 C   0  0  0  0  0  0  0  0  0  0  0  0
   24.4514    8.0755   53.7243 O   0  0  0  0  0  0  0  0  0  0  0  0
   21.7940    7.2004   55.4004 H   0  0  0  0  0  0  0  0  0  0  0  0
   22.4541    6.2253   53.5721 C   0  0  0  0  0  0  0  0  0  0  0  0
   23.7354    5.5214   53.6330 C   0  0  0  0  0  0  0  0  0  0  0  0
   24.6176    5.4766   52.5738 O   0  0  0  0  0  0  0  0  0  0  0  0
   24.1062    4.9033   54.6761 O   0  0  0  0  0  0  0  0  0  0  0  0
   24.7562    4.7035   51.9561 H   0  0  0  0  0  0  0  0  0  0  0  0
   22.1536    7.0209   52.3609 C   0  0  0  0  0  0  0  0  0  0  0  0
   20.8808    9.0113   51.5282 C   0  0  0  0  0  0  0  0  0  0  0  0
   20.8363    7.6468   52.1840 C   0  0  0  0  0  0  0  0  0  0  0  0
   19.8692    7.6393   53.2957 C   0  0  0  0  0  0  0  0  0  0  0  0
   22.9830   10.4416   55.5729 C   0  0  0  0  0  0  0  0  0  0  0  0
   21.6842   10.3728   54.8797 C   0  0  0  0  0  0  0  0  0  0  0  0
   20.4871   10.6829   55.7561 C   0  0  0  0  0  0  0  0  0  0  0  0
   21.6741   11.4133   53.7394 C   0  0  0  0  0  0  0  0  0  0  0  0
   27.6076    9.8016   56.4026 C   0  0  0  0  0  0  0  0  0  0  0  0
   28.3268    9.8492   57.6365 N   0  0  0  0  0  0  0  0  0  0  0  0
   28.4733   10.9972   58.4675 C   0  0  0  0  0  0  0  0  0  0  0  0
   27.9602   12.1102   58.1750 O   0  0  0  0  0  0  0  0  0  0  0  0
   28.7925    8.9599   57.9661 H   0  0  0  0  0  0  0  0  0  0  0  0
   29.1939   10.9466   59.6505 O   0  0  0  0  0  0  0  0  0  0  0  0
   28.7261   11.6073   60.8107 C   0  0  0  0  0  0  0  0  0  0  0  0
   29.2523   12.9892   60.8980 C   0  0  0  0  0  0  0  0  0  0  0  0
   28.3875   14.0524   60.7732 C   0  0  0  0  0  0  0  0  0  0  0  0
   28.8869   15.3242   60.8507 C   0  0  0  0  0  0  0  0  0  0  0  0
   30.2248   15.5731   61.0501 C   0  0  0  0  0  0  0  0  0  0  0  0
   31.0601   14.5035   61.1707 C   0  0  0  0  0  0  0  0  0  0  0  0
   30.5801   13.2052   61.0959 C   0  0  0  0  0  0  0  0  0  0  0  0
   28.2584    8.8477   55.4233 C   0  0  0  0  0  0  0  0  0  0  0  0
   27.2995    8.3855   54.3618 C   0  0  0  0  0  0  0  0  0  0  0  0
   27.6530    9.0903   53.0625 C   0  0  0  0  0  0  0  0  0  0  0  0
   27.4589    6.8808   54.1922 C   0  0  0  0  0  0  0  0  0  0  0  0
 16 17  1  0  0  0
 17 18  1  0  0  0
 17 15  1  0  0  0
 15 10  1  0  0  0
 10  6  1  0  0  0
  6  7  1  0  0  0
  7  8  2  0  0  0
  7  5  1  0  0  0
  5 19  1  0  0  0
 19 20  1  0  0  0
 20 21  1  0  0  0
 20 22  1  0  0  0
  5  1  1  0  0  0
  1  2  1  0  0  0
  2  3  2  0  0  0
  2 23  1  0  0  0
 23 36  1  0  0  0
 36 37  1  0  0  0
 37 38  1  0  0  0
 37 39  1  0  0  0
 23 24  1  0  0  0
 24 25  1  0  0  0
 25 26  2  0  0  0
 25 28  1  0  0  0
 28 29  1  0  0  0
 29 30  1  0  0  0
 30 31  2  0  0  0
 31 32  1  0  0  0
 32 33  2  0  0  0
 33 34  1  0  0  0
 34 35  2  0  0  0
 10 11  1  0  0  0
 11 12  1  0  0  0
 11 13  2  0  0  0
 35 30  1  0  0  0
  6  9  1  0  0  0
  1  4  1  0  0  0
 24 27  1  0  0  0
 12 14  1  0  0  0
M  END
> <minimizedAffinity>
6.17715

> <CNNscore>
0.4831427038

> <CNNaffinity>
6.4800271988

> <CNN_VS>
3.1307778358

> <CNNaffinity_variance>
0.7115228772

$$$$
[H]OC([H])([H])C([H])([H])N1C([H])([H])C([H])([H])N(c2nc(N([H])c3nc([H])c(C(=O)N([H])c4c(Cl)c([H])c([H])c([H])c4C([H])([H])[H])s3)c([H])c(C([H])([H])[H])n2)C([H])([H])C1([H])[H]


 36 39  0  0  0  0  0  0  0  0999 V2000
   24.0606    9.2755   55.1636 N   0  0  0  0  0  0  0  0  0  0  0  0
   23.6223   10.1657   55.5532 H   0  0  0  0  0  0  0  0  0  0  0  0
   28.5393    7.7367   53.6447 C   0  0  0  0  0  0  0  0  0  0  0  0
   27.6439    8.3581   54.6417 C   0  0  0  0  0  0  0  0  0  0  0  0
   26.2731    8.5151   54.4142 C   0  0  0  0  0  0  0  0  0  0  0  0
   25.4371    9.0840   55.3198 C   0  0  0  0  0  0  0  0  0  0  0  0
   26.0365    9.4984   56.4858 N   0  0  0  0  0  0  0  0  0  0  0  0
   27.3287    9.3709   56.7455 C   0  0  0  0  0  0  0  0  0  0  0  0
   28.1280    8.7926   55.8035 N   0  0  0  0  0  0  0  0  0  0  0  0
   27.9363    9.7972   57.9389 N   0  0  0  0  0  0  0  0  0  0  0  0
   27.9358    8.9446   59.1026 C   0  0  0  0  0  0  0  0  0  0  0  0
   29.3471    8.9890   59.6497 C   0  0  0  0  0  0  0  0  0  0  0  0
   29.5784   10.2843   60.1944 N   0  0  0  0  0  0  0  0  0  0  0  0
   28.8900   11.3412   59.5473 C   0  0  0  0  0  0  0  0  0  0  0  0
   28.5853   11.0841   58.0745 C   0  0  0  0  0  0  0  0  0  0  0  0
   30.9350   10.5341   60.5731 C   0  0  0  0  0  0  0  0  0  0  0  0
   31.5458    9.4884   61.4372 C   0  0  0  0  0  0  0  0  0  0  0  0
   31.9983    8.4246   60.6513 O   0  0  0  0  0  0  0  0  0  0  0  0
   32.8180    8.7468   60.1679 H   0  0  0  0  0  0  0  0  0  0  0  0
   23.1561    8.3889   54.5245 C   0  0  0  0  0  0  0  0  0  0  0  0
   23.3974    7.7384   53.3607 N   0  0  0  0  0  0  0  0  0  0  0  0
   22.5100    6.9638   52.8782 C   0  0  0  0  0  0  0  0  0  0  0  0
   21.3245    6.8006   53.5439 C   0  0  0  0  0  0  0  0  0  0  0  0
   21.5853    7.8223   54.8797 S   0  0  0  0  0  0  0  0  0  0  0  0
   20.1739    5.9700   53.1808 C   0  0  0  0  0  0  0  0  0  0  0  0
   19.6084    6.1338   52.0691 O   0  0  0  0  0  0  0  0  0  0  0  0
   19.6614    4.9705   54.0461 N   0  0  0  0  0  0  0  0  0  0  0  0
   20.1581    4.8622   54.9645 H   0  0  0  0  0  0  0  0  0  0  0  0
   18.5533    4.1865   53.6707 C   0  0  0  0  0  0  0  0  0  0  0  0
   17.2873    4.6508   53.9348 C   0  0  0  0  0  0  0  0  0  0  0  0
   17.0772    5.9549   54.6046 C   0  0  0  0  0  0  0  0  0  0  0  0
   16.1838    3.9026   53.5775 C   0  0  0  0  0  0  0  0  0  0  0  0
   16.3568    2.6911   52.9563 C   0  0  0  0  0  0  0  0  0  0  0  0
   17.6421    2.2384   52.6976 C   0  0  0  0  0  0  0  0  0  0  0  0
   18.7432    2.9801   53.0516 C   0  0  0  0  0  0  0  0  0  0  0  0
   20.3265    2.3435   52.6926 Cl  0  0  0  0  0  0  0  0  0  0  0  0
  3  4  1  0  0  0
  4  5  2  0  0  0
  5  6  1  0  0  0
  6  1  1  0  0  0
  1 20  1  0  0  0
 20 21  2  0  0  0
 21 22  1  0  0  0
 22 23  2  0  0  0
 23 24  1  0  0  0
 23 25  1  0  0  0
 25 26  2  0  0  0
 25 27  1  0  0  0
 27 29  1  0  0  0
 29 30  2  0  0  0
 30 31  1  0  0  0
 30 32  1  0  0  0
 32 33  2  0  0  0
 33 34  1  0  0  0
 34 35  2  0  0  0
 35 36  1  0  0  0
  6  7  2  0  0  0
  7  8  1  0  0  0
  8  9  2  0  0  0
  8 10  1  0  0  0
 10 11  1  0  0  0
 11 12  1  0  0  0
 12 13  1  0  0  0
 13 16  1  0  0  0
 16 17  1  0  0  0
 17 18  1  0  0  0
 13 14  1  0  0  0
 14 15  1  0  0  0
  9  4  1  0  0  0
 15 10  1  0  0  0
 24 20  1  0  0  0
 35 29  1  0  0  0
  1  2  1  0  0  0
 27 28  1  0  0  0
 18 19  1  0  0  0
M  END
> <minimizedAffinity>
21.16911

> <CNNscore>
0.4930991232

> <CNNaffinity>
6.5710358620

> <CNN_VS>
3.2401719093

> <CNNaffinity_variance>
0.3540894985

$$$$
[H]OC([H])([H])C([H])([H])N1C([H])([H])C([H])([H])N(c2nc(N([H])c3nc([H])c(C(=O)N([H])c4c(Cl)c([H])c([H])c([H])c4C([H])([H])[H])s3)c([H])c(C([H])([H])[H])n2)C([H])([H])C1([H])[H]


 36 39  0  0  0  0  0  0  0  0999 V2000
   26.3638    9.9119   55.3236 N   0  0  0  0  0  0  0  0  0  0  0  0
   26.2623   10.8846   54.8994 H   0  0  0  0  0  0  0  0  0  0  0  0
   26.5510    5.5872   52.8751 C   0  0  0  0  0  0  0  0  0  0  0  0
   25.8088    6.7236   53.4579 C   0  0  0  0  0  0  0  0  0  0  0  0
   26.4555    7.7760   54.1136 C   0  0  0  0  0  0  0  0  0  0  0  0
   25.7883    8.8271   54.6545 C   0  0  0  0  0  0  0  0  0  0  0  0
   24.4213    8.7850   54.5118 N   0  0  0  0  0  0  0  0  0  0  0  0
   23.7658    7.8106   53.8999 C   0  0  0  0  0  0  0  0  0  0  0  0
   24.4811    6.7759   53.3725 N   0  0  0  0  0  0  0  0  0  0  0  0
   22.3681    7.7722   53.7577 N   0  0  0  0  0  0  0  0  0  0  0  0
   21.7656    7.8537   52.4495 C   0  0  0  0  0  0  0  0  0  0  0  0
   20.7047    6.7738   52.4137 C   0  0  0  0  0  0  0  0  0  0  0  0
   19.6448    7.1546   53.2853 N   0  0  0  0  0  0  0  0  0  0  0  0
   20.0384    7.9144   54.4156 C   0  0  0  0  0  0  0  0  0  0  0  0
   21.4664    7.6509   54.8838 C   0  0  0  0  0  0  0  0  0  0  0  0
   18.6615    6.1385   53.5013 C   0  0  0  0  0  0  0  0  0  0  0  0
   19.1773    4.7447   53.4345 C   0  0  0  0  0  0  0  0  0  0  0  0
   18.3126    3.8828   54.1153 O   0  0  0  0  0  0  0  0  0  0  0  0
   17.4889    3.7875   53.5479 H   0  0  0  0  0  0  0  0  0  0  0  0
   27.0896    9.8590   56.5414 C   0  0  0  0  0  0  0  0  0  0  0  0
   27.1937    8.7672   57.3369 N   0  0  0  0  0  0  0  0  0  0  0  0
   27.8743    8.8346   58.4105 C   0  0  0  0  0  0  0  0  0  0  0  0
   28.4907   10.0110   58.7443 C   0  0  0  0  0  0  0  0  0  0  0  0
   28.0240   10.9810   57.4261 S   0  0  0  0  0  0  0  0  0  0  0  0
   29.3153   10.3158   59.9159 C   0  0  0  0  0  0  0  0  0  0  0  0
   28.9930    9.8628   61.0445 O   0  0  0  0  0  0  0  0  0  0  0  0
   30.4834   11.1148   59.8297 N   0  0  0  0  0  0  0  0  0  0  0  0
   30.7213   11.4752   58.8729 H   0  0  0  0  0  0  0  0  0  0  0  0
   31.2574   11.3918   60.9733 C   0  0  0  0  0  0  0  0  0  0  0  0
   31.2569   12.6664   61.4866 C   0  0  0  0  0  0  0  0  0  0  0  0
   30.4589   13.7428   60.8557 C   0  0  0  0  0  0  0  0  0  0  0  0
   32.0064   12.9651   62.6065 C   0  0  0  0  0  0  0  0  0  0  0  0
   32.7532   11.9821   63.2061 C   0  0  0  0  0  0  0  0  0  0  0  0
   32.7415   10.7011   62.6740 C   0  0  0  0  0  0  0  0  0  0  0  0
   31.9968   10.3996   61.5594 C   0  0  0  0  0  0  0  0  0  0  0  0
   32.0337    8.7661   60.9502 Cl  0  0  0  0  0  0  0  0  0  0  0  0
  3  4  1  0  0  0
  4  5  2  0  0  0
  5  6  1  0  0  0
  6  1  1  0  0  0
  1 20  1  0  0  0
 20 21  2  0  0  0
 21 22  1  0  0  0
 22 23  2  0  0  0
 23 24  1  0  0  0
 23 25  1  0  0  0
 25 26  2  0  0  0
 25 27  1  0  0  0
 27 29  1  0  0  0
 29 30  2  0  0  0
 30 31  1  0  0  0
 30 32  1  0  0  0
 32 33  2  0  0  0
 33 34  1  0  0  0
 34 35  2  0  0  0
 35 36  1  0  0  0
  6  7  2  0  0  0
  7  8  1  0  0  0
  8  9  2  0  0  0
  8 10  1  0  0  0
 10 11  1  0  0  0
 11 12  1  0  0  0
 12 13  1  0  0  0
 13 16  1  0  0  0
 16 17  1  0  0  0
 17 18  1  0  0  0
 13 14  1  0  0  0
 14 15  1  0  0  0
  9  4  1  0  0  0
 15 10  1  0  0  0
 24 20  1  0  0  0
 35 29  1  0  0  0
  1  2  1  0  0  0
 27 28  1  0  0  0
 18 19  1  0  0  0
M  END
> <minimizedAffinity>
18.15893

> <CNNscore>
0.4595116675

> <CNNaffinity>
6.0886244774

> <CNN_VS>
2.7977941036

> <CNNaffinity_variance>
0.5189961195

$$$$
[H]OC([H])([H])C([H])([H])N1C([H])([H])C([H])([H])N(c2nc(N([H])c3nc([H])c(C(=O)N([H])c4c(Cl)c([H])c([H])c([H])c4C([H])([H])[H])s3)c([H])c(C([H])([H])[H])n2)C([H])([H])C1([H])[H]


 36 39  0  0  0  0  0  0  0  0999 V2000
   21.1756    9.0460   53.3357 N   0  0  0  0  0  0  0  0  0  0  0  0
   20.1631    8.7322   53.4482 H   0  0  0  0  0  0  0  0  0  0  0  0
   23.1301    4.5146   53.9522 C   0  0  0  0  0  0  0  0  0  0  0  0
   23.2052    5.9878   54.0301 C   0  0  0  0  0  0  0  0  0  0  0  0
   22.1415    6.8080   53.6411 C   0  0  0  0  0  0  0  0  0  0  0  0
   22.1946    8.1628   53.7063 C   0  0  0  0  0  0  0  0  0  0  0  0
   23.3764    8.6769   54.1855 N   0  0  0  0  0  0  0  0  0  0  0  0
   24.4095    7.9407   54.5654 C   0  0  0  0  0  0  0  0  0  0  0  0
   24.3075    6.5832   54.4809 N   0  0  0  0  0  0  0  0  0  0  0  0
   25.6157    8.4717   55.0537 N   0  0  0  0  0  0  0  0  0  0  0  0
   25.6203    9.7080   55.7971 C   0  0  0  0  0  0  0  0  0  0  0  0
   26.5082    9.4655   56.9995 C   0  0  0  0  0  0  0  0  0  0  0  0
   27.8544    9.3505   56.5494 N   0  0  0  0  0  0  0  0  0  0  0  0
   28.0111    8.7892   55.2570 C   0  0  0  0  0  0  0  0  0  0  0  0
   26.8970    7.8300   54.8489 C   0  0  0  0  0  0  0  0  0  0  0  0
   28.7806    8.9268   57.5536 C   0  0  0  0  0  0  0  0  0  0  0  0
   28.6740    9.6513   58.8485 C   0  0  0  0  0  0  0  0  0  0  0  0
   29.0460   10.9881   58.6792 O   0  0  0  0  0  0  0  0  0  0  0  0
   28.3036   11.4358   58.1715 H   0  0  0  0  0  0  0  0  0  0  0  0
   21.3461   10.3529   52.8107 C   0  0  0  0  0  0  0  0  0  0  0  0
   21.2221   11.4987   53.5231 N   0  0  0  0  0  0  0  0  0  0  0  0
   21.3986   12.6195   52.9462 C   0  0  0  0  0  0  0  0  0  0  0  0
   21.7111   12.6490   51.6133 C   0  0  0  0  0  0  0  0  0  0  0  0
   21.7293   10.9821   51.2706 S   0  0  0  0  0  0  0  0  0  0  0  0
   21.9560   13.8087   50.7526 C   0  0  0  0  0  0  0  0  0  0  0  0
   23.1175   14.0407   50.3286 O   0  0  0  0  0  0  0  0  0  0  0  0
   20.9193   14.6972   50.3702 N   0  0  0  0  0  0  0  0  0  0  0  0
   19.9639   14.4725   50.7425 H   0  0  0  0  0  0  0  0  0  0  0  0
   21.1839   15.8048   49.5415 C   0  0  0  0  0  0  0  0  0  0  0  0
   21.8184   16.9008   50.0748 C   0  0  0  0  0  0  0  0  0  0  0  0
   22.2230   16.9300   51.4992 C   0  0  0  0  0  0  0  0  0  0  0  0
   22.0899   17.9996   49.2849 C   0  0  0  0  0  0  0  0  0  0  0  0
   21.7229   17.9929   47.9625 C   0  0  0  0  0  0  0  0  0  0  0  0
   21.0834   16.8778   47.4413 C   0  0  0  0  0  0  0  0  0  0  0  0
   20.8113   15.7819   48.2242 C   0  0  0  0  0  0  0  0  0  0  0  0
   20.0043   14.4182   47.4962 Cl  0  0  0  0  0  0  0  0  0  0  0  0
  3  4  1  0  0  0
  4  5  2  0  0  0
  5  6  1  0  0  0
  6  1  1  0  0  0
  1 20  1  0  0  0
 20 21  2  0  0  0
 21 22  1  0  0  0
 22 23  2  0  0  0
 23 24  1  0  0  0
 23 25  1  0  0  0
 25 26  2  0  0  0
 25 27  1  0  0  0
 27 29  1  0  0  0
 29 30  2  0  0  0
 30 31  1  0  0  0
 30 32  1  0  0  0
 32 33  2  0  0  0
 33 34  1  0  0  0
 34 35  2  0  0  0
 35 36  1  0  0  0
  6  7  2  0  0  0
  7  8  1  0  0  0
  8  9  2  0  0  0
  8 10  1  0  0  0
 10 11  1  0  0  0
 11 12  1  0  0  0
 12 13  1  0  0  0
 13 16  1  0  0  0
 16 17  1  0  0  0
 17 18  1  0  0  0
 13 14  1  0  0  0
 14 15  1  0  0  0
  9  4  1  0  0  0
 15 10  1  0  0  0
 24 20  1  0  0  0
 35 29  1  0  0  0
  1  2  1  0  0  0
 27 28  1  0  0  0
 18 19  1  0  0  0
M  END
> <minimizedAffinity>
28.78321

> <CNNscore>
0.4505994022

> <CNNaffinity>
5.8733472824

> <CNN_VS>
2.6465268135

> <CNNaffinity_variance>
0.4638009071

$$$$
[H]OC([H])([H])C([H])([H])N1C([H])([H])C([H])([H])N(c2nc(N([H])c3nc([H])c(C(=O)N([H])c4c(Cl)c([H])c([H])c([H])c4C([H])([H])[H])s3)c([H])c(C([H])([H])[H])n2)C([H])([H])C1([H])[H]


 36 39  0  0  0  0  0  0  0  0999 V2000
   28.5649    9.1618   51.9117 N   0  0  0  0  0  0  0  0  0  0  0  0
   29.4085    8.5764   51.6254 H   0  0  0  0  0  0  0  0  0  0  0  0
   28.4130    8.8884   56.8751 C   0  0  0  0  0  0  0  0  0  0  0  0
   27.7988    8.7256   55.5417 C   0  0  0  0  0  0  0  0  0  0  0  0
   28.4893    9.0260   54.3634 C   0  0  0  0  0  0  0  0  0  0  0  0
   27.9393    8.8820   53.1307 C   0  0  0  0  0  0  0  0  0  0  0  0
   26.6455    8.4165   53.1211 N   0  0  0  0  0  0  0  0  0  0  0  0
   25.9525    8.1192   54.2096 C   0  0  0  0  0  0  0  0  0  0  0  0
   26.5492    8.2807   55.4255 N   0  0  0  0  0  0  0  0  0  0  0  0
   24.6297    7.6445   54.1938 N   0  0  0  0  0  0  0  0  0  0  0  0
   23.5592    8.4505   54.7282 C   0  0  0  0  0  0  0  0  0  0  0  0
   22.4401    8.3810   53.7104 C   0  0  0  0  0  0  0  0  0  0  0  0
   21.8971    7.0645   53.7274 N   0  0  0  0  0  0  0  0  0  0  0  0
   22.8221    6.0358   54.0370 C   0  0  0  0  0  0  0  0  0  0  0  0
   24.2649    6.3517   53.6544 C   0  0  0  0  0  0  0  0  0  0  0  0
   20.9605    6.7966   52.6801 C   0  0  0  0  0  0  0  0  0  0  0  0
   20.8471    7.8672   51.6534 C   0  0  0  0  0  0  0  0  0  0  0  0
   19.5267    7.9590   51.2038 O   0  0  0  0  0  0  0  0  0  0  0  0
   18.9939    8.3770   51.9459 H   0  0  0  0  0  0  0  0  0  0  0  0
   28.1892   10.1693   50.9862 C   0  0  0  0  0  0  0  0  0  0  0  0
   28.0583    9.9871   49.6500 N   0  0  0  0  0  0  0  0  0  0  0  0
   27.7139   10.9662   48.9131 C   0  0  0  0  0  0  0  0  0  0  0  0
   27.4813   12.1892   49.4836 C   0  0  0  0  0  0  0  0  0  0  0  0
   27.7897   11.8240   51.1170 S   0  0  0  0  0  0  0  0  0  0  0  0
   27.0796   13.4419   48.8393 C   0  0  0  0  0  0  0  0  0  0  0  0
   27.4386   13.6825   47.6579 O   0  0  0  0  0  0  0  0  0  0  0  0
   26.2883   14.4127   49.5040 N   0  0  0  0  0  0  0  0  0  0  0  0
   26.0076   14.1781   50.4880 H   0  0  0  0  0  0  0  0  0  0  0  0
   25.9169   15.6087   48.8598 C   0  0  0  0  0  0  0  0  0  0  0  0
   26.3319   16.8075   49.3876 C   0  0  0  0  0  0  0  0  0  0  0  0
   27.1578   16.8553   50.6161 C   0  0  0  0  0  0  0  0  0  0  0  0
   25.9823   17.9946   48.7762 C   0  0  0  0  0  0  0  0  0  0  0  0
   25.2171   17.9723   47.6371 C   0  0  0  0  0  0  0  0  0  0  0  0
   24.8073   16.7528   47.1185 C   0  0  0  0  0  0  0  0  0  0  0  0
   25.1532   15.5689   47.7240 C   0  0  0  0  0  0  0  0  0  0  0  0
   24.5998   14.0765   47.0118 Cl  0  0  0  0  0  0  0  0  0  0  0  0
  3  4  1  0  0  0
  4  5  2  0  0  0
  5  6  1  0  0  0
  6  1  1  0  0  0
  1 20  1  0  0  0
 20 21  2  0  0  0
 21 22  1  0  0  0
 22 23  2  0  0  0
 23 24  1  0  0  0
 23 25  1  0  0  0
 25 26  2  0  0  0
 25 27  1  0  0  0
 27 29  1  0  0  0
 29 30  2  0  0  0
 30 31  1  0  0  0
 30 32  1  0  0  0
 32 33  2  0  0  0
 33 34  1  0  0  0
 34 35  2  0  0  0
 35 36  1  0  0  0
  6  7  2  0  0  0
  7  8  1  0  0  0
  8  9  2  0  0  0
  8 10  1  0  0  0
 10 11  1  0  0  0
 11 12  1  0  0  0
 12 13  1  0  0  0
 13 16  1  0  0  0
 16 17  1  0  0  0
 17 18  1  0  0  0
 13 14  1  0  0  0
 14 15  1  0  0  0
  9  4  1  0  0  0
 15 10  1  0  0  0
 24 20  1  0  0  0
 35 29  1  0  0  0
  1  2  1  0  0  0
 27 28  1  0  0  0
 18 19  1  0  0  0
M  END
> <minimizedAffinity>
35.54109

> <CNNscore>
0.4444361031

> <CNNaffinity>
5.9141492844

> <CNN_VS>
2.6284613609

> <CNNaffinity_variance>
0.4368835390

$$$$
[H]OC([H])([H])C([H])([H])N1C([H])([H])C([H])([H])N(c2nc(N([H])c3nc([H])c(C(=O)N([H])c4c(Cl)c([H])c([H])c([H])c4C([H])([H])[H])s3)c([H])c(C([H])([H])[H])n2)C([H])([H])C1([H])[H]


 36 39  0  0  0  0  0  0  0  0999 V2000
   27.6358    9.0276   58.4600 N   0  0  0  0  0  0  0  0  0  0  0  0
   27.1937    8.2413   59.0279 H   0  0  0  0  0  0  0  0  0  0  0  0
   29.3900    9.4032   53.8215 C   0  0  0  0  0  0  0  0  0  0  0  0
   28.2959    9.1695   54.7859 C   0  0  0  0  0  0  0  0  0  0  0  0
   28.5014    9.2135   56.1684 C   0  0  0  0  0  0  0  0  0  0  0  0
   27.5070    9.0011   57.0677 C   0  0  0  0  0  0  0  0  0  0  0  0
   26.2735    8.7375   56.5204 N   0  0  0  0  0  0  0  0  0  0  0  0
   26.0312    8.6856   55.2196 C   0  0  0  0  0  0  0  0  0  0  0  0
   27.0636    8.9062   54.3558 N   0  0  0  0  0  0  0  0  0  0  0  0
   24.7682    8.4148   54.6656 N   0  0  0  0  0  0  0  0  0  0  0  0
   23.5686    8.6719   55.4245 C   0  0  0  0  0  0  0  0  0  0  0  0
   22.6219    9.3781   54.4770 C   0  0  0  0  0  0  0  0  0  0  0  0
   22.1909    8.4444   53.4919 N   0  0  0  0  0  0  0  0  0  0  0  0
   23.1402    7.4483   53.1505 C   0  0  0  0  0  0  0  0  0  0  0  0
   24.5933    7.8758   53.3335 C   0  0  0  0  0  0  0  0  0  0  0  0
   21.4445    9.0203   52.4162 C   0  0  0  0  0  0  0  0  0  0  0  0
   20.8682    8.0384   51.4587 C   0  0  0  0  0  0  0  0  0  0  0  0
   20.0901    7.1022   52.1458 O   0  0  0  0  0  0  0  0  0  0  0  0
   19.2507    7.5742   52.4324 H   0  0  0  0  0  0  0  0  0  0  0  0
   28.3104   10.0155   59.2228 C   0  0  0  0  0  0  0  0  0  0  0  0
   29.1590    9.7603   60.2476 N   0  0  0  0  0  0  0  0  0  0  0  0
   29.7103   10.7288   60.8629 C   0  0  0  0  0  0  0  0  0  0  0  0
   29.4361   12.0142   60.4785 C   0  0  0  0  0  0  0  0  0  0  0  0
   28.3534   11.7220   59.1984 S   0  0  0  0  0  0  0  0  0  0  0  0
   29.9493   13.2684   61.0344 C   0  0  0  0  0  0  0  0  0  0  0  0
   30.4003   13.2958   62.2085 O   0  0  0  0  0  0  0  0  0  0  0  0
   29.9591   14.4756   60.2907 N   0  0  0  0  0  0  0  0  0  0  0  0
   29.5754   14.4150   59.3155 H   0  0  0  0  0  0  0  0  0  0  0  0
   30.4586   15.6673   60.8509 C   0  0  0  0  0  0  0  0  0  0  0  0
   31.8172   15.8701   60.8856 C   0  0  0  0  0  0  0  0  0  0  0  0
   32.7538   14.8578   60.3456 C   0  0  0  0  0  0  0  0  0  0  0  0
   32.3335   17.0291   61.4289 C   0  0  0  0  0  0  0  0  0  0  0  0
   31.4827   17.9797   61.9351 C   0  0  0  0  0  0  0  0  0  0  0  0
   30.1142   17.7579   61.8915 C   0  0  0  0  0  0  0  0  0  0  0  0
   29.5962   16.6055   61.3515 C   0  0  0  0  0  0  0  0  0  0  0  0
   27.8646   16.3997   61.3329 Cl  0  0  0  0  0  0  0  0  0  0  0  0
  3  4  1  0  0  0
  4  5  2  0  0  0
  5  6  1  0  0  0
  6  1  1  0  0  0
  1 20  1  0  0  0
 20 21  2  0  0  0
 21 22  1  0  0  0
 22 23  2  0  0  0
 23 24  1  0  0  0
 23 25  1  0  0  0
 25 26  2  0  0  0
 25 27  1  0  0  0
 27 29  1  0  0  0
 29 30  2  0  0  0
 30 31  1  0  0  0
 30 32  1  0  0  0
 32 33  2  0  0  0
 33 34  1  0  0  0
 34 35  2  0  0  0
 35 36  1  0  0  0
  6  7  2  0  0  0
  7  8  1  0  0  0
  8  9  2  0  0  0
  8 10  1  0  0  0
 10 11  1  0  0  0
 11 12  1  0  0  0
 12 13  1  0  0  0
 13 16  1  0  0  0
 16 17  1  0  0  0
 17 18  1  0  0  0
 13 14  1  0  0  0
 14 15  1  0  0  0
  9  4  1  0  0  0
 15 10  1  0  0  0
 24 20  1  0  0  0
 35 29  1  0  0  0
  1  2  1  0  0  0
 27 28  1  0  0  0
 18 19  1  0  0  0
M  END
> <minimizedAffinity>
1.48930

> <CNNscore>
0.4406633973

> <CNNaffinity>
6.2798414230

> <CNN_VS>
2.7672963142

> <CNNaffinity_variance>
0.1465361267

$$$$
[H]OC([H])([H])C([H])([H])N1C([H])([H])C([H])([H])N(c2nc(N([H])c3nc([H])c(C(=O)N([H])c4c(Cl)c([H])c([H])c([H])c4C([H])([H])[H])s3)c([H])c(C([H])([H])[H])n2)C([H])([H])C1([H])[H]


 36 39  0  0  0  0  0  0  0  0999 V2000
   27.2572    7.6201   54.3214 N   0  0  0  0  0  0  0  0  0  0  0  0
   27.7943    6.7714   53.9642 H   0  0  0  0  0  0  0  0  0  0  0  0
   30.3342   11.4746   53.6821 C   0  0  0  0  0  0  0  0  0  0  0  0
   29.4716   10.6217   54.5249 C   0  0  0  0  0  0  0  0  0  0  0  0
   28.7775    9.5239   54.0065 C   0  0  0  0  0  0  0  0  0  0  0  0
   27.9811    8.7305   54.7673 C   0  0  0  0  0  0  0  0  0  0  0  0
   27.9035    9.0840   56.0938 N   0  0  0  0  0  0  0  0  0  0  0  0
   28.5417   10.1134   56.6291 C   0  0  0  0  0  0  0  0  0  0  0  0
   29.3303   10.8809   55.8232 N   0  0  0  0  0  0  0  0  0  0  0  0
   28.4580   10.4707   57.9858 N   0  0  0  0  0  0  0  0  0  0  0  0
   28.3570    9.4529   59.0031 C   0  0  0  0  0  0  0  0  0  0  0  0
   29.3378    9.8504   60.0862 C   0  0  0  0  0  0  0  0  0  0  0  0
   28.8407   11.0144   60.7388 N   0  0  0  0  0  0  0  0  0  0  0  0
   28.0900   11.8916   59.9161 C   0  0  0  0  0  0  0  0  0  0  0  0
   28.4683   11.8456   58.4387 C   0  0  0  0  0  0  0  0  0  0  0  0
   29.7583   11.6169   61.6558 C   0  0  0  0  0  0  0  0  0  0  0  0
   29.1418   12.1409   62.9042 C   0  0  0  0  0  0  0  0  0  0  0  0
   27.8503   11.6264   63.0508 O   0  0  0  0  0  0  0  0  0  0  0  0
   27.9483   10.6585   63.3020 H   0  0  0  0  0  0  0  0  0  0  0  0
   25.8444    7.4950   54.2911 C   0  0  0  0  0  0  0  0  0  0  0  0
   24.9857    8.4729   53.9142 N   0  0  0  0  0  0  0  0  0  0  0  0
   23.7329    8.2477   53.9255 C   0  0  0  0  0  0  0  0  0  0  0  0
   23.2730    7.0194   54.3192 C   0  0  0  0  0  0  0  0  0  0  0  0
   24.7471    6.2404   54.6606 S   0  0  0  0  0  0  0  0  0  0  0  0
   21.8913    6.5414   54.4090 C   0  0  0  0  0  0  0  0  0  0  0  0
   21.2171    6.7641   55.4475 O   0  0  0  0  0  0  0  0  0  0  0  0
   21.2704    5.8249   53.3547 N   0  0  0  0  0  0  0  0  0  0  0  0
   21.8628    5.6577   52.5044 H   0  0  0  0  0  0  0  0  0  0  0  0
   19.9400    5.3772   53.4687 C   0  0  0  0  0  0  0  0  0  0  0  0
   18.9339    6.3028   53.6067 C   0  0  0  0  0  0  0  0  0  0  0  0
   19.2307    7.7535   53.6372 C   0  0  0  0  0  0  0  0  0  0  0  0
   17.6213    5.8913   53.7202 C   0  0  0  0  0  0  0  0  0  0  0  0
   17.3249    4.5515   53.6947 C   0  0  0  0  0  0  0  0  0  0  0  0
   18.3535    3.6314   53.5546 C   0  0  0  0  0  0  0  0  0  0  0  0
   19.6613    4.0369   53.4413 C   0  0  0  0  0  0  0  0  0  0  0  0
   20.8984    2.8200   53.2682 Cl  0  0  0  0  0  0  0  0  0  0  0  0
  3  4  1  0  0  0
  4  5  2  0  0  0
  5  6  1  0  0  0
  6  1  1  0  0  0
  1 20  1  0  0  0
 20 21  2  0  0  0
 21 22  1  0  0  0
 22 23  2  0  0  0
 23 24  1  0  0  0
 23 25  1  0  0  0
 25 26  2  0  0  0
 25 27  1  0  0  0
 27 29  1  0  0  0
 29 30  2  0  0  0
 30 31  1  0  0  0
 30 32  1  0  0  0
 32 33  2  0  0  0
 33 34  1  0  0  0
 34 35  2  0  0  0
 35 36  1  0  0  0
  6  7  2  0  0  0
  7  8  1  0  0  0
  8  9  2  0  0  0
  8 10  1  0  0  0
 10 11  1  0  0  0
 11 12  1  0  0  0
 12 13  1  0  0  0
 13 16  1  0  0  0
 16 17  1  0  0  0
 17 18  1  0  0  0
 13 14  1  0  0  0
 14 15  1  0  0  0
  9  4  1  0  0  0
 15 10  1  0  0  0
 24 20  1  0  0  0
 35 29  1  0  0  0
  1  2  1  0  0  0
 27 28  1  0  0  0
 18 19  1  0  0  0
M  END
> <minimizedAffinity>
28.55630

> <CNNscore>
0.4301027656

> <CNNaffinity>
6.1769399643

> <CNN_VS>
2.6567189693

> <CNNaffinity_variance>
0.4257535338

$$$$
[H]OC([H])([H])C([H])([H])N1C([H])([H])C([H])([H])N(c2nc(N([H])c3nc([H])c(C(=O)N([H])c4c(Cl)c([H])c([H])c([H])c4C([H])([H])[H])s3)c([H])c(C([H])([H])[H])n2)C([H])([H])C1([H])[H]


 36 39  0  0  0  0  0  0  0  0999 V2000
   23.3071   10.6277   55.8990 N   0  0  0  0  0  0  0  0  0  0  0  0
   22.8139   11.2545   56.6062 H   0  0  0  0  0  0  0  0  0  0  0  0
   21.4981   11.8418   51.4283 C   0  0  0  0  0  0  0  0  0  0  0  0
   21.7597   10.8678   52.5075 C   0  0  0  0  0  0  0  0  0  0  0  0
   22.4127   11.2268   53.6908 C   0  0  0  0  0  0  0  0  0  0  0  0
   22.6608   10.3440   54.6917 C   0  0  0  0  0  0  0  0  0  0  0  0
   22.2217    9.0618   54.4595 N   0  0  0  0  0  0  0  0  0  0  0  0
   21.5995    8.6757   53.3561 C   0  0  0  0  0  0  0  0  0  0  0  0
   21.3734    9.6000   52.3789 N   0  0  0  0  0  0  0  0  0  0  0  0
   21.1535    7.3633   53.1237 N   0  0  0  0  0  0  0  0  0  0  0  0
   22.0428    6.2449   53.3226 C   0  0  0  0  0  0  0  0  0  0  0  0
   21.2459    5.2137   54.0938 C   0  0  0  0  0  0  0  0  0  0  0  0
   20.2427    4.6838   53.2331 N   0  0  0  0  0  0  0  0  0  0  0  0
   19.7389    5.5902   52.2663 C   0  0  0  0  0  0  0  0  0  0  0  0
   19.8095    7.0564   52.6823 C   0  0  0  0  0  0  0  0  0  0  0  0
   19.2897    3.8389   53.8840 C   0  0  0  0  0  0  0  0  0  0  0  0
   18.7696    2.7232   53.0487 C   0  0  0  0  0  0  0  0  0  0  0  0
   19.8289    2.0692   52.4129 O   0  0  0  0  0  0  0  0  0  0  0  0
   20.3128    1.5428   53.1188 H   0  0  0  0  0  0  0  0  0  0  0  0
   24.5852   10.1589   56.2983 C   0  0  0  0  0  0  0  0  0  0  0  0
   25.3741    9.3354   55.5666 N   0  0  0  0  0  0  0  0  0  0  0  0
   26.5064    8.9785   56.0257 C   0  0  0  0  0  0  0  0  0  0  0  0
   26.9090    9.4331   57.2531 C   0  0  0  0  0  0  0  0  0  0  0  0
   25.5649   10.3867   57.6777 S   0  0  0  0  0  0  0  0  0  0  0  0
   28.1556    9.1573   57.9712 C   0  0  0  0  0  0  0  0  0  0  0  0
   29.1483    8.6973   57.3502 O   0  0  0  0  0  0  0  0  0  0  0  0
   28.2927    9.3914   59.3629 N   0  0  0  0  0  0  0  0  0  0  0  0
   27.4445    9.7752   59.8478 H   0  0  0  0  0  0  0  0  0  0  0  0
   29.5036    9.1167   60.0276 C   0  0  0  0  0  0  0  0  0  0  0  0
   29.8046    7.8168   60.3557 C   0  0  0  0  0  0  0  0  0  0  0  0
   28.8775    6.7112   60.0216 C   0  0  0  0  0  0  0  0  0  0  0  0
   30.9846    7.5196   61.0072 C   0  0  0  0  0  0  0  0  0  0  0  0
   31.8573    8.5296   61.3263 C   0  0  0  0  0  0  0  0  0  0  0  0
   31.5368    9.8358   60.9871 C   0  0  0  0  0  0  0  0  0  0  0  0
   30.3633   10.1359   60.3386 C   0  0  0  0  0  0  0  0  0  0  0  0
   30.0315   11.8022   59.9457 Cl  0  0  0  0  0  0  0  0  0  0  0  0
  3  4  1  0  0  0
  4  5  2  0  0  0
  5  6  1  0  0  0
  6  1  1  0  0  0
  1 20  1  0  0  0
 20 21  2  0  0  0
 21 22  1  0  0  0
 22 23  2  0  0  0
 23 24  1  0  0  0
 23 25  1  0  0  0
 25 26  2  0  0  0
 25 27  1  0  0  0
 27 29  1  0  0  0
 29 30  2  0  0  0
 30 31  1  0  0  0
 30 32  1  0  0  0
 32 33  2  0  0  0
 33 34  1  0  0  0
 34 35  2  0  0  0
 35 36  1  0  0  0
  6  7  2  0  0  0
  7  8  1  0  0  0
  8  9  2  0  0  0
  8 10  1  0  0  0
 10 11  1  0  0  0
 11 12  1  0  0  0
 12 13  1  0  0  0
 13 16  1  0  0  0
 16 17  1  0  0  0
 17 18  1  0  0  0
 13 14  1  0  0  0
 14 15  1  0  0  0
  9  4  1  0  0  0
 15 10  1  0  0  0
 24 20  1  0  0  0
 35 29  1  0  0  0
  1  2  1  0  0  0
 27 28  1  0  0  0
 18 19  1  0  0  0
M  END
> <minimizedAffinity>
28.73315

> <CNNscore>
0.4020214975

> <CNNaffinity>
6.2012448311

> <CNN_VS>
2.4930336475

> <CNNaffinity_variance>
0.6059997082

$$$$
[H]OC([H])([H])C([H])([H])N1C([H])([H])C([H])([H])N(c2nc(N([H])c3nc([H])c(C(=O)N([H])c4c(Cl)c([H])c([H])c([H])c4C([H])([H])[H])s3)c([H])c(C([H])([H])[H])n2)C([H])([H])C1([H])[H]


 36 39  0  0  0  0  0  0  0  0999 V2000
   27.2677    8.8917   57.5273 N   0  0  0  0  0  0  0  0  0  0  0  0
   26.3097    8.5396   57.8348 H   0  0  0  0  0  0  0  0  0  0  0  0
   30.9699    7.6636   60.6126 C   0  0  0  0  0  0  0  0  0  0  0  0
   30.0276    8.6419   60.0323 C   0  0  0  0  0  0  0  0  0  0  0  0
   29.0961    8.2857   59.0520 C   0  0  0  0  0  0  0  0  0  0  0  0
   28.2236    9.1724   58.5087 C   0  0  0  0  0  0  0  0  0  0  0  0
   28.3201   10.4557   58.9932 N   0  0  0  0  0  0  0  0  0  0  0  0
   29.1850   10.8393   59.9196 C   0  0  0  0  0  0  0  0  0  0  0  0
   30.0413    9.9110   60.4350 N   0  0  0  0  0  0  0  0  0  0  0  0
   29.2798   12.1528   60.4105 N   0  0  0  0  0  0  0  0  0  0  0  0
   30.2254   12.4761   61.4509 C   0  0  0  0  0  0  0  0  0  0  0  0
   30.9046   13.7559   61.0108 C   0  0  0  0  0  0  0  0  0  0  0  0
   29.9586   14.8175   61.0884 N   0  0  0  0  0  0  0  0  0  0  0  0
   28.6140   14.4453   60.8364 C   0  0  0  0  0  0  0  0  0  0  0  0
   28.4579   13.2376   59.9173 C   0  0  0  0  0  0  0  0  0  0  0  0
   30.4045   16.0511   60.5181 C   0  0  0  0  0  0  0  0  0  0  0  0
   29.4886   16.6382   59.5033 C   0  0  0  0  0  0  0  0  0  0  0  0
   29.1028   17.9232   59.8955 O   0  0  0  0  0  0  0  0  0  0  0  0
   29.9017   18.5192   59.7695 H   0  0  0  0  0  0  0  0  0  0  0  0
   27.4375    9.0282   56.1255 C   0  0  0  0  0  0  0  0  0  0  0  0
   26.6978    8.3891   55.1874 N   0  0  0  0  0  0  0  0  0  0  0  0
   26.9391    8.5887   53.9536 C   0  0  0  0  0  0  0  0  0  0  0  0
   27.9438    9.4469   53.5943 C   0  0  0  0  0  0  0  0  0  0  0  0
   28.4945    9.9275   55.1312 S   0  0  0  0  0  0  0  0  0  0  0  0
   28.3930    9.8247   52.2522 C   0  0  0  0  0  0  0  0  0  0  0  0
   29.3851   10.5859   52.1142 O   0  0  0  0  0  0  0  0  0  0  0  0
   27.7444    9.3597   51.0803 N   0  0  0  0  0  0  0  0  0  0  0  0
   26.9209    8.7270   51.2338 H   0  0  0  0  0  0  0  0  0  0  0  0
   28.1981    9.7395   49.8023 C   0  0  0  0  0  0  0  0  0  0  0  0
   28.6652    8.7723   48.9454 C   0  0  0  0  0  0  0  0  0  0  0  0
   28.6970    7.3473   49.3477 C   0  0  0  0  0  0  0  0  0  0  0  0
   29.1157    9.1170   47.6870 C   0  0  0  0  0  0  0  0  0  0  0  0
   29.0950   10.4320   47.2948 C   0  0  0  0  0  0  0  0  0  0  0  0
   28.6199   11.3948   48.1731 C   0  0  0  0  0  0  0  0  0  0  0  0
   28.1706   11.0559   49.4265 C   0  0  0  0  0  0  0  0  0  0  0  0
   27.5883   12.3232   50.4732 Cl  0  0  0  0  0  0  0  0  0  0  0  0
  3  4  1  0  0  0
  4  5  2  0  0  0
  5  6  1  0  0  0
  6  1  1  0  0  0
  1 20  1  0  0  0
 20 21  2  0  0  0
 21 22  1  0  0  0
 22 23  2  0  0  0
 23 24  1  0  0  0
 23 25  1  0  0  0
 25 26  2  0  0  0
 25 27  1  0  0  0
 27 29  1  0  0  0
 29 30  2  0  0  0
 30 31  1  0  0  0
 30 32  1  0  0  0
 32 33  2  0  0  0
 33 34  1  0  0  0
 34 35  2  0  0  0
 35 36  1  0  0  0
  6  7  2  0  0  0
  7  8  1  0  0  0
  8  9  2  0  0  0
  8 10  1  0  0  0
 10 11  1  0  0  0
 11 12  1  0  0  0
 12 13  1  0  0  0
 13 16  1  0  0  0
 16 17  1  0  0  0
 17 18  1  0  0  0
 13 14  1  0  0  0
 14 15  1  0  0  0
  9  4  1  0  0  0
 15 10  1  0  0  0
 24 20  1  0  0  0
 35 29  1  0  0  0
  1  2  1  0  0  0
 27 28  1  0  0  0
 18 19  1  0  0  0
M  END
> <minimizedAffinity>
28.98850

> <CNNscore>
0.3867218196

> <CNNaffinity>
5.7237958908

> <CNN_VS>
2.2135167122

> <CNNaffinity_variance>
0.0640010238

$$$$
[H]OC([H])([H])C([H])([H])N1C([H])([H])C([H])([H])N(c2nc(N([H])c3nc([H])c(C(=O)N([H])c4c(Cl)c([H])c([H])c([H])c4C([H])([H])[H])s3)c([H])c(C([H])([H])[H])n2)C([H])([H])C1([H])[H]


 36 39  0  0  0  0  0  0  0  0999 V2000
   27.2019    8.9666   57.6248 N   0  0  0  0  0  0  0  0  0  0  0  0
   26.1944    8.7397   57.8892 H   0  0  0  0  0  0  0  0  0  0  0  0
   30.7397    7.5935   60.8392 C   0  0  0  0  0  0  0  0  0  0  0  0
   29.8488    8.6055   60.2359 C   0  0  0  0  0  0  0  0  0  0  0  0
   28.9491    8.2890   59.2133 C   0  0  0  0  0  0  0  0  0  0  0  0
   28.1239    9.2070   58.6485 C   0  0  0  0  0  0  0  0  0  0  0  0
   28.2350   10.4801   59.1558 N   0  0  0  0  0  0  0  0  0  0  0  0
   29.0712   10.8267   60.1224 C   0  0  0  0  0  0  0  0  0  0  0  0
   29.8802    9.8679   60.6581 N   0  0  0  0  0  0  0  0  0  0  0  0
   29.1812   12.1300   60.6367 N   0  0  0  0  0  0  0  0  0  0  0  0
   30.0387   12.3988   61.7651 C   0  0  0  0  0  0  0  0  0  0  0  0
   30.8160   13.6480   61.4069 C   0  0  0  0  0  0  0  0  0  0  0  0
   29.9180   14.7533   61.4089 N   0  0  0  0  0  0  0  0  0  0  0  0
   28.5872   14.4484   61.0273 C   0  0  0  0  0  0  0  0  0  0  0  0
   28.4615   13.2571   60.0823 C   0  0  0  0  0  0  0  0  0  0  0  0
   30.4734   15.9686   60.8986 C   0  0  0  0  0  0  0  0  0  0  0  0
   31.8793   15.8629   60.4239 C   0  0  0  0  0  0  0  0  0  0  0  0
   32.7446   16.4264   61.3661 O   0  0  0  0  0  0  0  0  0  0  0  0
   32.7796   15.7935   62.1456 H   0  0  0  0  0  0  0  0  0  0  0  0
   27.4676    8.9921   56.2315 C   0  0  0  0  0  0  0  0  0  0  0  0
   28.6967    9.1260   55.6773 N   0  0  0  0  0  0  0  0  0  0  0  0
   28.8170    9.1352   54.4101 C   0  0  0  0  0  0  0  0  0  0  0  0
   27.7007    9.0096   53.6269 C   0  0  0  0  0  0  0  0  0  0  0  0
   26.5020    8.8812   54.8280 S   0  0  0  0  0  0  0  0  0  0  0  0
   27.6011    8.9933   52.1656 C   0  0  0  0  0  0  0  0  0  0  0  0
   26.5409    8.6009   51.6137 O   0  0  0  0  0  0  0  0  0  0  0  0
   28.6696    9.4090   51.3314 N   0  0  0  0  0  0  0  0  0  0  0  0
   29.5381    9.7298   51.8263 H   0  0  0  0  0  0  0  0  0  0  0  0
   28.5459    9.3825   49.9287 C   0  0  0  0  0  0  0  0  0  0  0  0
   28.2113   10.5390   49.2665 C   0  0  0  0  0  0  0  0  0  0  0  0
   27.9808   11.8019   50.0051 C   0  0  0  0  0  0  0  0  0  0  0  0
   28.0835   10.5411   47.8921 C   0  0  0  0  0  0  0  0  0  0  0  0
   28.2925    9.3813   47.1888 C   0  0  0  0  0  0  0  0  0  0  0  0
   28.6297    8.2234   47.8741 C   0  0  0  0  0  0  0  0  0  0  0  0
   28.7578    8.2171   49.2421 C   0  0  0  0  0  0  0  0  0  0  0  0
   29.1845    6.7219   50.0316 Cl  0  0  0  0  0  0  0  0  0  0  0  0
  3  4  1  0  0  0
  4  5  2  0  0  0
  5  6  1  0  0  0
  6  1  1  0  0  0
  1 20  1  0  0  0
 20 21  2  0  0  0
 21 22  1  0  0  0
 22 23  2  0  0  0
 23 24  1  0  0  0
 23 25  1  0  0  0
 25 26  2  0  0  0
 25 27  1  0  0  0
 27 29  1  0  0  0
 29 30  2  0  0  0
 30 31  1  0  0  0
 30 32  1  0  0  0
 32 33  2  0  0  0
 33 34  1  0  0  0
 34 35  2  0  0  0
 35 36  1  0  0  0
  6  7  2  0  0  0
  7  8  1  0  0  0
  8  9  2  0  0  0
  8 10  1  0  0  0
 10 11  1  0  0  0
 11 12  1  0  0  0
 12 13  1  0  0  0
 13 16  1  0  0  0
 16 17  1  0  0  0
 17 18  1  0  0  0
 13 14  1  0  0  0
 14 15  1  0  0  0
  9  4  1  0  0  0
 15 10  1  0  0  0
 24 20  1  0  0  0
 35 29  1  0  0  0
  1  2  1  0  0  0
 27 28  1  0  0  0
 18 19  1  0  0  0
M  END
> <minimizedAffinity>
25.46655

> <CNNscore>
0.3772394359

> <CNNaffinity>
5.7732448578

> <CNN_VS>
2.1778955460

> <CNNaffinity_variance>
0.1546837389

$$$$
[H]c1c([H])c([H])c(C([H])([H])[C@@]2([H])C(=O)N([H])[C@@]([H])(C([H])(C([H])([H])[H])C([H])([H])[H])C(=O)N([H])[C@@]([H])(C([H])(C([H])([H])[H])C([H])([H])[H])C(=O)N([H])[C@]([H])(C([H])([H])c3c([H])c([H])c([H])c([H])c3[H])C(=O)N2[H])c([H])c1[H]


 40 42  0  0  0  0  0  0  0  0999 V2000
   19.9417    5.1888   53.8592 C   0  0  0  0  0  0  0  0  0  0  0  0
   19.5575    5.9351   52.6811 N   0  0  0  0  0  0  0  0  0  0  0  0
   20.3568    6.7647   51.8824 C   0  0  0  0  0  0  0  0  0  0  0  0
   20.4393    6.5540   50.6439 O   0  0  0  0  0  0  0  0  0  0  0  0
   21.1681    7.9433   52.3761 C   0  0  0  0  0  0  0  0  0  0  0  0
   22.5665    7.6410   52.2155 N   0  0  0  0  0  0  0  0  0  0  0  0
   23.6533    7.9071   53.0392 C   0  0  0  0  0  0  0  0  0  0  0  0
   24.7719    8.0617   52.3975 O   0  0  0  0  0  0  0  0  0  0  0  0
   23.8037    8.0491   54.4886 C   0  0  0  0  0  0  0  0  0  0  0  0
   22.6325    8.3199   55.2579 N   0  0  0  0  0  0  0  0  0  0  0  0
   22.0051    7.5197   56.2266 C   0  0  0  0  0  0  0  0  0  0  0  0
   21.5583    8.0923   57.2902 O   0  0  0  0  0  0  0  0  0  0  0  0
   21.7691    6.0645   56.2111 C   0  0  0  0  0  0  0  0  0  0  0  0
   22.2139    5.3594   55.0627 N   0  0  0  0  0  0  0  0  0  0  0  0
   21.3722    4.9226   53.9844 C   0  0  0  0  0  0  0  0  0  0  0  0
   21.9275    4.2539   53.0755 O   0  0  0  0  0  0  0  0  0  0  0  0
   18.5311    5.8203   52.4018 H   0  0  0  0  0  0  0  0  0  0  0  0
   22.7424    7.1169   51.2714 H   0  0  0  0  0  0  0  0  0  0  0  0
   22.1884    9.2739   55.0646 H   0  0  0  0  0  0  0  0  0  0  0  0
   23.2541    5.1413   55.0094 H   0  0  0  0  0  0  0  0  0  0  0  0
   17.7373    3.9776   54.0897 C   0  0  0  0  0  0  0  0  0  0  0  0
   19.1963    3.8431   53.7807 C   0  0  0  0  0  0  0  0  0  0  0  0
   19.3208    3.2307   52.4061 C   0  0  0  0  0  0  0  0  0  0  0  0
   22.3812    5.5075   57.4939 C   0  0  0  0  0  0  0  0  0  0  0  0
   23.2545    4.3153   57.2719 C   0  0  0  0  0  0  0  0  0  0  0  0
   21.2864    5.1112   58.4355 C   0  0  0  0  0  0  0  0  0  0  0  0
   20.7608    9.1732   51.5381 C   0  0  0  0  0  0  0  0  0  0  0  0
   21.1869   10.4435   52.1403 C   0  0  0  0  0  0  0  0  0  0  0  0
   21.4159   11.5446   51.3404 C   0  0  0  0  0  0  0  0  0  0  0  0
   21.8267   12.7588   51.8614 C   0  0  0  0  0  0  0  0  0  0  0  0
   22.0220   12.9047   53.2170 C   0  0  0  0  0  0  0  0  0  0  0  0
   21.8008   11.8267   54.0272 C   0  0  0  0  0  0  0  0  0  0  0  0
   21.3895   10.6162   53.4920 C   0  0  0  0  0  0  0  0  0  0  0  0
   24.7176    9.2834   54.6949 C   0  0  0  0  0  0  0  0  0  0  0  0
   26.1066    8.9585   54.9286 C   0  0  0  0  0  0  0  0  0  0  0  0
   26.8772    8.3144   53.9906 C   0  0  0  0  0  0  0  0  0  0  0  0
   28.2102    8.0110   54.2394 C   0  0  0  0  0  0  0  0  0  0  0  0
   28.7904    8.3516   55.4390 C   0  0  0  0  0  0  0  0  0  0  0  0
   28.0287    8.9951   56.3821 C   0  0  0  0  0  0  0  0  0  0  0  0
   26.7206    9.2819   56.1129 C   0  0  0  0  0  0  0  0  0  0  0  0
 21 22  1  0  0  0
 22 23  1  0  0  0
 22  1  1  0  0  0
  1  2  1  0  0  0
  2  3  1  0  0  0
  3  4  2  0  0  0
  3  5  1  0  0  0
  5 27  1  0  0  0
 27 28  1  0  0  0
 28 29  2  0  0  0
 29 30  1  0  0  0
 30 31  2  0  0  0
 31 32  1  0  0  0
 32 33  2  0  0  0
  5  6  1  0  0  0
  6  7  1  0  0  0
  7  8  2  0  0  0
  7  9  1  0  0  0
  9 34  1  0  0  0
 34 35  1  0  0  0
 35 36  2  0  0  0
 36 37  1  0  0  0
 37 38  2  0  0  0
 38 39  1  0  0  0
 39 40  2  0  0  0
  9 10  1  0  0  0
 10 11  1  0  0  0
 11 12  2  0  0  0
 11 13  1  0  0  0
 13 14  1  0  0  0
 14 15  1  0  0  0
 15 16  2  0  0  0
 13 24  1  0  0  0
 24 25  1  0  0  0
 24 26  1  0  0  0
 15  1  1  0  0  0
 33 28  1  0  0  0
 40 35  1  0  0  0
  2 17  1  0  0  0
  6 18  1  0  0  0
 10 19  1  0  0  0
 14 20  1  0  0  0
M  END
> <minimizedAffinity>
43.97385

> <CNNscore>
0.3460599184

> <CNNaffinity>
6.3049917221

> <CNN_VS>
2.1819050312

> <CNNaffinity_variance>
1.0667625666

$$$$
[H]c1c([H])c([H])c(C([H])([H])[C@@]2([H])C(=O)N([H])[C@@]([H])(C([H])(C([H])([H])[H])C([H])([H])[H])C(=O)N([H])[C@@]([H])(C([H])(C([H])([H])[H])C([H])([H])[H])C(=O)N([H])[C@]([H])(C([H])([H])c3c([H])c([H])c([H])c([H])c3[H])C(=O)N2[H])c([H])c1[H]


 40 42  0  0  0  0  0  0  0  0999 V2000
   24.9904    8.4929   54.7152 C   0  0  0  0  0  0  0  0  0  0  0  0
   25.1644    7.0649   54.8677 N   0  0  0  0  0  0  0  0  0  0  0  0
   24.4350    6.0336   54.2601 C   0  0  0  0  0  0  0  0  0  0  0  0
   25.0344    5.1464   53.5977 O   0  0  0  0  0  0  0  0  0  0  0  0
   22.9319    5.8665   54.3208 C   0  0  0  0  0  0  0  0  0  0  0  0
   22.3919    6.0613   53.0005 N   0  0  0  0  0  0  0  0  0  0  0  0
   21.2371    6.7084   52.5784 C   0  0  0  0  0  0  0  0  0  0  0  0
   20.7330    6.2208   51.4851 O   0  0  0  0  0  0  0  0  0  0  0  0
   20.4650    7.8330   53.1096 C   0  0  0  0  0  0  0  0  0  0  0  0
   20.6489    8.1802   54.4816 N   0  0  0  0  0  0  0  0  0  0  0  0
   21.1886    9.3537   55.0332 C   0  0  0  0  0  0  0  0  0  0  0  0
   20.6180    9.8533   56.0740 O   0  0  0  0  0  0  0  0  0  0  0  0
   22.3574   10.1324   54.5850 C   0  0  0  0  0  0  0  0  0  0  0  0
   23.0567    9.6375   53.4537 N   0  0  0  0  0  0  0  0  0  0  0  0
   24.2910    8.9052   53.5011 C   0  0  0  0  0  0  0  0  0  0  0  0
   24.8035    8.5984   52.3944 O   0  0  0  0  0  0  0  0  0  0  0  0
   25.9579    6.7858   55.5289 H   0  0  0  0  0  0  0  0  0  0  0  0
   23.0386    5.6019   52.2470 H   0  0  0  0  0  0  0  0  0  0  0  0
   20.3148    7.4358   55.1738 H   0  0  0  0  0  0  0  0  0  0  0  0
   22.6236    9.8329   52.5015 H   0  0  0  0  0  0  0  0  0  0  0  0
   26.9165    9.4011   56.0733 C   0  0  0  0  0  0  0  0  0  0  0  0
   26.4053    9.1015   54.6981 C   0  0  0  0  0  0  0  0  0  0  0  0
   27.3910    8.1705   54.0337 C   0  0  0  0  0  0  0  0  0  0  0  0
   21.8747   11.5652   54.3741 C   0  0  0  0  0  0  0  0  0  0  0  0
   20.5200   11.8309   54.9465 C   0  0  0  0  0  0  0  0  0  0  0  0
   21.8242   11.8617   52.9072 C   0  0  0  0  0  0  0  0  0  0  0  0
   22.6419    4.4428   54.8405 C   0  0  0  0  0  0  0  0  0  0  0  0
   22.7738    4.3272   56.2989 C   0  0  0  0  0  0  0  0  0  0  0  0
   23.7351    3.4992   56.8420 C   0  0  0  0  0  0  0  0  0  0  0  0
   23.8908    3.3515   58.2088 C   0  0  0  0  0  0  0  0  0  0  0  0
   23.0761    4.0391   59.0809 C   0  0  0  0  0  0  0  0  0  0  0  0
   22.1176    4.8645   58.5641 C   0  0  0  0  0  0  0  0  0  0  0  0
   21.9725    5.0031   57.1927 C   0  0  0  0  0  0  0  0  0  0  0  0
   18.9784    7.4106   52.9949 C   0  0  0  0  0  0  0  0  0  0  0  0
   18.7162    6.0509   53.4093 C   0  0  0  0  0  0  0  0  0  0  0  0
   19.6721    5.0660   53.3411 C   0  0  0  0  0  0  0  0  0  0  0  0
   19.3953    3.7651   53.7437 C   0  0  0  0  0  0  0  0  0  0  0  0
   18.1493    3.4339   54.2226 C   0  0  0  0  0  0  0  0  0  0  0  0
   17.1880    4.4108   54.2944 C   0  0  0  0  0  0  0  0  0  0  0  0
   17.4855    5.6819   53.8922 C   0  0  0  0  0  0  0  0  0  0  0  0
 21 22  1  0  0  0
 22 23  1  0  0  0
 22  1  1  0  0  0
  1  2  1  0  0  0
  2  3  1  0  0  0
  3  4  2  0  0  0
  3  5  1  0  0  0
  5 27  1  0  0  0
 27 28  1  0  0  0
 28 29  2  0  0  0
 29 30  1  0  0  0
 30 31  2  0  0  0
 31 32  1  0  0  0
 32 33  2  0  0  0
  5  6  1  0  0  0
  6  7  1  0  0  0
  7  8  2  0  0  0
  7  9  1  0  0  0
  9 34  1  0  0  0
 34 35  1  0  0  0
 35 36  2  0  0  0
 36 37  1  0  0  0
 37 38  2  0  0  0
 38 39  1  0  0  0
 39 40  2  0  0  0
  9 10  1  0  0  0
 10 11  1  0  0  0
 11 12  2  0  0  0
 11 13  1  0  0  0
 13 14  1  0  0  0
 14 15  1  0  0  0
 15 16  2  0  0  0
 13 24  1  0  0  0
 24 25  1  0  0  0
 24 26  1  0  0  0
 15  1  1  0  0  0
 33 28  1  0  0  0
 40 35  1  0  0  0
  2 17  1  0  0  0
  6 18  1  0  0  0
 10 19  1  0  0  0
 14 20  1  0  0  0
M  END
> <minimizedAffinity>
52.24471

> <CNNscore>
0.2660816610

> <CNNaffinity>
6.2036471367

> <CNN_VS>
1.6506767273

> <CNNaffinity_variance>
1.4001324177

$$$$
[H]c1c([H])c([H])c(C([H])([H])[C@@]2([H])C(=O)N([H])[C@@]([H])(C([H])(C([H])([H])[H])C([H])([H])[H])C(=O)N([H])[C@@]([H])(C([H])(C([H])([H])[H])C([H])([H])[H])C(=O)N([H])[C@]([H])(C([H])([H])c3c([H])c([H])c([H])c([H])c3[H])C(=O)N2[H])c([H])c1[H]


 40 42  0  0  0  0  0  0  0  0999 V2000
   21.2200    4.9831   53.3810 C   0  0  0  0  0  0  0  0  0  0  0  0
   22.6572    4.8301   53.4411 N   0  0  0  0  0  0  0  0  0  0  0  0
   23.5988    5.7050   54.0005 C   0  0  0  0  0  0  0  0  0  0  0  0
   24.4016    5.2874   54.8759 O   0  0  0  0  0  0  0  0  0  0  0  0
   23.7598    7.1673   53.6447 C   0  0  0  0  0  0  0  0  0  0  0  0
   23.3977    7.9634   54.7884 N   0  0  0  0  0  0  0  0  0  0  0  0
   22.6935    9.1579   54.8768 C   0  0  0  0  0  0  0  0  0  0  0  0
   23.0370    9.8950   55.8896 O   0  0  0  0  0  0  0  0  0  0  0  0
   21.6374    9.7635   54.0636 C   0  0  0  0  0  0  0  0  0  0  0  0
   21.4653    9.2861   52.7297 N   0  0  0  0  0  0  0  0  0  0  0  0
   20.3742    8.6036   52.1676 C   0  0  0  0  0  0  0  0  0  0  0  0
   20.0033    8.9275   50.9776 O   0  0  0  0  0  0  0  0  0  0  0  0
   19.5553    7.5277   52.7554 C   0  0  0  0  0  0  0  0  0  0  0  0
   19.9113    7.0967   54.0597 N   0  0  0  0  0  0  0  0  0  0  0  0
   20.6539    5.9054   54.3619 C   0  0  0  0  0  0  0  0  0  0  0  0
   20.8248    5.6454   55.5804 O   0  0  0  0  0  0  0  0  0  0  0  0
   23.0231    3.9264   53.0005 H   0  0  0  0  0  0  0  0  0  0  0  0
   23.7649    7.5039   55.7108 H   0  0  0  0  0  0  0  0  0  0  0  0
   22.2873    9.4941   52.0771 H   0  0  0  0  0  0  0  0  0  0  0  0
   19.5953    7.7116   54.8687 H   0  0  0  0  0  0  0  0  0  0  0  0
   19.1415    3.6166   53.8195 C   0  0  0  0  0  0  0  0  0  0  0  0
   20.6257    3.5827   53.6229 C   0  0  0  0  0  0  0  0  0  0  0  0
   20.9151    2.6602   52.4632 C   0  0  0  0  0  0  0  0  0  0  0  0
   18.1035    7.9944   52.6863 C   0  0  0  0  0  0  0  0  0  0  0  0
   17.1387    7.0450   53.3195 C   0  0  0  0  0  0  0  0  0  0  0  0
   17.7063    8.1720   51.2535 C   0  0  0  0  0  0  0  0  0  0  0  0
   25.2346    7.3914   53.2503 C   0  0  0  0  0  0  0  0  0  0  0  0
   26.0062    8.0871   54.2888 C   0  0  0  0  0  0  0  0  0  0  0  0
   27.3755    8.2089   54.1670 C   0  0  0  0  0  0  0  0  0  0  0  0
   28.1445    8.8476   55.1236 C   0  0  0  0  0  0  0  0  0  0  0  0
   27.5542    9.3891   56.2440 C   0  0  0  0  0  0  0  0  0  0  0  0
   26.1993    9.2797   56.3843 C   0  0  0  0  0  0  0  0  0  0  0  0
   25.4410    8.6373   55.4184 C   0  0  0  0  0  0  0  0  0  0  0  0
   22.0300   11.2549   53.9121 C   0  0  0  0  0  0  0  0  0  0  0  0
   21.6539   11.8398   52.6449 C   0  0  0  0  0  0  0  0  0  0  0  0
   21.2506   13.1486   52.5319 C   0  0  0  0  0  0  0  0  0  0  0  0
   20.8919   13.6878   51.3024 C   0  0  0  0  0  0  0  0  0  0  0  0
   20.9334   12.9166   50.1644 C   0  0  0  0  0  0  0  0  0  0  0  0
   21.3348   11.6082   50.2672 C   0  0  0  0  0  0  0  0  0  0  0  0
   21.6822   11.1022   51.4876 C   0  0  0  0  0  0  0  0  0  0  0  0
 21 22  1  0  0  0
 22 23  1  0  0  0
 22  1  1  0  0  0
  1  2  1  0  0  0
  2  3  1  0  0  0
  3  4  2  0  0  0
  3  5  1  0  0  0
  5 27  1  0  0  0
 27 28  1  0  0  0
 28 29  2  0  0  0
 29 30  1  0  0  0
 30 31  2  0  0  0
 31 32  1  0  0  0
 32 33  2  0  0  0
  5  6  1  0  0  0
  6  7  1  0  0  0
  7  8  2  0  0  0
  7  9  1  0  0  0
  9 34  1  0  0  0
 34 35  1  0  0  0
 35 36  2  0  0  0
 36 37  1  0  0  0
 37 38  2  0  0  0
 38 39  1  0  0  0
 39 40  2  0  0  0
  9 10  1  0  0  0
 10 11  1  0  0  0
 11 12  2  0  0  0
 11 13  1  0  0  0
 13 14  1  0  0  0
 14 15  1  0  0  0
 15 16  2  0  0  0
 13 24  1  0  0  0
 24 25  1  0  0  0
 24 26  1  0  0  0
 15  1  1  0  0  0
 33 28  1  0  0  0
 40 35  1  0  0  0
  2 17  1  0  0  0
  6 18  1  0  0  0
 10 19  1  0  0  0
 14 20  1  0  0  0
M  END
> <minimizedAffinity>
46.97778

> <CNNscore>
0.2564609945

> <CNNaffinity>
6.2190670967

> <CNN_VS>
1.5949481726

> <CNNaffinity_variance>
1.6652559042

$$$$
[H]c1c([H])c([H])c(C([H])([H])[C@@]2([H])C(=O)N([H])[C@@]([H])(C([H])(C([H])([H])[H])C([H])([H])[H])C(=O)N([H])[C@@]([H])(C([H])(C([H])([H])[H])C([H])([H])[H])C(=O)N([H])[C@]([H])(C([H])([H])c3c([H])c([H])c([H])c([H])c3[H])C(=O)N2[H])c([H])c1[H]


 40 42  0  0  0  0  0  0  0  0999 V2000
   23.6229    4.9362   53.2936 C   0  0  0  0  0  0  0  0  0  0  0  0
   24.9449    5.5198   53.3583 N   0  0  0  0  0  0  0  0  0  0  0  0
   25.3398    6.7008   54.0019 C   0  0  0  0  0  0  0  0  0  0  0  0
   26.2714    6.6733   54.8484 O   0  0  0  0  0  0  0  0  0  0  0  0
   24.7363    8.0700   53.7740 C   0  0  0  0  0  0  0  0  0  0  0  0
   24.0612    8.4831   54.9767 N   0  0  0  0  0  0  0  0  0  0  0  0
   22.8572    9.1524   55.1577 C   0  0  0  0  0  0  0  0  0  0  0  0
   22.8180    9.8788   56.2338 O   0  0  0  0  0  0  0  0  0  0  0  0
   21.6144    9.2100   54.3860 C   0  0  0  0  0  0  0  0  0  0  0  0
   21.6617    8.8190   53.0143 N   0  0  0  0  0  0  0  0  0  0  0  0
   21.0410    7.7290   52.3826 C   0  0  0  0  0  0  0  0  0  0  0  0
   20.5200    7.9174   51.2199 O   0  0  0  0  0  0  0  0  0  0  0  0
   20.8895    6.3447   52.8664 C   0  0  0  0  0  0  0  0  0  0  0  0
   21.4548    6.0474   54.1335 N   0  0  0  0  0  0  0  0  0  0  0  0
   22.7030    5.3689   54.3423 C   0  0  0  0  0  0  0  0  0  0  0  0
   23.0199    5.1330   55.5363 O   0  0  0  0  0  0  0  0  0  0  0  0
   25.6995    4.9597   52.8469 H   0  0  0  0  0  0  0  0  0  0  0  0
   24.6384    8.1974   55.8611 H   0  0  0  0  0  0  0  0  0  0  0  0
   22.2480    9.4623   52.3920 H   0  0  0  0  0  0  0  0  0  0  0  0
   20.8996    6.3542   54.9880 H   0  0  0  0  0  0  0  0  0  0  0  0
   22.6425    2.6447   52.8845 C   0  0  0  0  0  0  0  0  0  0  0  0
   23.8169    3.4124   53.4079 C   0  0  0  0  0  0  0  0  0  0  0  0
   25.0390    2.9600   52.6454 C   0  0  0  0  0  0  0  0  0  0  0  0
   19.3975    6.0248   52.8192 C   0  0  0  0  0  0  0  0  0  0  0  0
   18.5498    7.0133   53.5523 C   0  0  0  0  0  0  0  0  0  0  0  0
   19.1596    4.6742   53.4206 C   0  0  0  0  0  0  0  0  0  0  0  0
   25.8877    9.0337   53.4184 C   0  0  0  0  0  0  0  0  0  0  0  0
   26.9497    9.0566   54.4330 C   0  0  0  0  0  0  0  0  0  0  0  0
   26.6534    9.4045   55.7353 C   0  0  0  0  0  0  0  0  0  0  0  0
   27.6216    9.4486   56.7227 C   0  0  0  0  0  0  0  0  0  0  0  0
   28.9314    9.1411   56.4279 C   0  0  0  0  0  0  0  0  0  0  0  0
   29.2465    8.7940   55.1444 C   0  0  0  0  0  0  0  0  0  0  0  0
   28.2667    8.7538   54.1650 C   0  0  0  0  0  0  0  0  0  0  0  0
   21.2031   10.7040   54.3670 C   0  0  0  0  0  0  0  0  0  0  0  0
   21.3561   11.3432   53.0796 C   0  0  0  0  0  0  0  0  0  0  0  0
   21.2366   10.6514   51.8983 C   0  0  0  0  0  0  0  0  0  0  0  0
   21.3899   11.2880   50.6726 C   0  0  0  0  0  0  0  0  0  0  0  0
   21.6666   12.6340   50.6161 C   0  0  0  0  0  0  0  0  0  0  0  0
   21.7878   13.3335   51.7907 C   0  0  0  0  0  0  0  0  0  0  0  0
   21.6326   12.6842   52.9825 C   0  0  0  0  0  0  0  0  0  0  0  0
 21 22  1  0  0  0
 22 23  1  0  0  0
 22  1  1  0  0  0
  1  2  1  0  0  0
  2  3  1  0  0  0
  3  4  2  0  0  0
  3  5  1  0  0  0
  5 27  1  0  0  0
 27 28  1  0  0  0
 28 29  2  0  0  0
 29 30  1  0  0  0
 30 31  2  0  0  0
 31 32  1  0  0  0
 32 33  2  0  0  0
  5  6  1  0  0  0
  6  7  1  0  0  0
  7  8  2  0  0  0
  7  9  1  0  0  0
  9 34  1  0  0  0
 34 35  1  0  0  0
 35 36  2  0  0  0
 36 37  1  0  0  0
 37 38  2  0  0  0
 38 39  1  0  0  0
 39 40  2  0  0  0
  9 10  1  0  0  0
 10 11  1  0  0  0
 11 12  2  0  0  0
 11 13  1  0  0  0
 13 14  1  0  0  0
 14 15  1  0  0  0
 15 16  2  0  0  0
 13 24  1  0  0  0
 24 25  1  0  0  0
 24 26  1  0  0  0
 15  1  1  0  0  0
 33 28  1  0  0  0
 40 35  1  0  0  0
  2 17  1  0  0  0
  6 18  1  0  0  0
 10 19  1  0  0  0
 14 20  1  0  0  0
M  END
> <minimizedAffinity>
43.51844

> <CNNscore>
0.2359550297

> <CNNaffinity>
6.2434649467

> <CNN_VS>
1.4731769562

> <CNNaffinity_variance>
1.4785144329

$$$$
[H]c1c([H])c([H])c(C([H])([H])[C@@]2([H])C(=O)N([H])[C@@]([H])(C([H])(C([H])([H])[H])C([H])([H])[H])C(=O)N([H])[C@@]([H])(C([H])(C([H])([H])[H])C([H])([H])[H])C(=O)N([H])[C@]([H])(C([H])([H])c3c([H])c([H])c([H])c([H])c3[H])C(=O)N2[H])c([H])c1[H]


 40 42  0  0  0  0  0  0  0  0999 V2000
   26.1060   10.6231   56.3654 C   0  0  0  0  0  0  0  0  0  0  0  0
   24.7732   11.1417   56.5828 N   0  0  0  0  0  0  0  0  0  0  0  0
   23.5561   10.4475   56.5406 C   0  0  0  0  0  0  0  0  0  0  0  0
   22.7783   10.4829   57.5301 O   0  0  0  0  0  0  0  0  0  0  0  0
   23.0551    9.6221   55.3750 C   0  0  0  0  0  0  0  0  0  0  0  0
   23.0123    8.2391   55.7730 N   0  0  0  0  0  0  0  0  0  0  0  0
   23.3413    7.0833   55.0758 C   0  0  0  0  0  0  0  0  0  0  0  0
   22.6634    6.0383   55.4440 O   0  0  0  0  0  0  0  0  0  0  0  0
   24.2991    6.7934   54.0072 C   0  0  0  0  0  0  0  0  0  0  0  0
   24.7904    7.8890   53.2358 N   0  0  0  0  0  0  0  0  0  0  0  0
   26.0973    8.3961   53.1505 C   0  0  0  0  0  0  0  0  0  0  0  0
   26.5368    8.7498   51.9927 O   0  0  0  0  0  0  0  0  0  0  0  0
   27.0834    8.5946   54.2283 C   0  0  0  0  0  0  0  0  0  0  0  0
   26.6706    8.2478   55.5409 N   0  0  0  0  0  0  0  0  0  0  0  0
   26.2465    9.1808   56.5468 C   0  0  0  0  0  0  0  0  0  0  0  0
   25.9755    8.7013   57.6774 O   0  0  0  0  0  0  0  0  0  0  0  0
   24.7381   12.1874   56.8062 H   0  0  0  0  0  0  0  0  0  0  0  0
   22.6530    8.1443   56.8020 H   0  0  0  0  0  0  0  0  0  0  0  0
   24.0486    8.3748   52.6370 H   0  0  0  0  0  0  0  0  0  0  0  0
   26.6830    7.2127   55.7877 H   0  0  0  0  0  0  0  0  0  0  0  0
   28.2977   10.5966   57.6204 C   0  0  0  0  0  0  0  0  0  0  0  0
   27.0187   11.3374   57.3801 C   0  0  0  0  0  0  0  0  0  0  0  0
   27.3737   12.7275   56.9095 C   0  0  0  0  0  0  0  0  0  0  0  0
   28.3456    7.8439   53.8112 C   0  0  0  0  0  0  0  0  0  0  0  0
   28.1203    6.3884   53.5582 C   0  0  0  0  0  0  0  0  0  0  0  0
   29.3788    7.9727   54.8874 C   0  0  0  0  0  0  0  0  0  0  0  0
   21.6503   10.1425   55.0052 C   0  0  0  0  0  0  0  0  0  0  0  0
   21.5897   10.7182   53.6551 C   0  0  0  0  0  0  0  0  0  0  0  0
   21.6440   12.0866   53.4847 C   0  0  0  0  0  0  0  0  0  0  0  0
   21.5815   12.6746   52.2337 C   0  0  0  0  0  0  0  0  0  0  0  0
   21.4610   11.8964   51.1037 C   0  0  0  0  0  0  0  0  0  0  0  0
   21.4055   10.5389   51.2500 C   0  0  0  0  0  0  0  0  0  0  0  0
   21.4693    9.9631   52.5091 C   0  0  0  0  0  0  0  0  0  0  0  0
   23.5399    5.8959   52.9975 C   0  0  0  0  0  0  0  0  0  0  0  0
   22.2203    6.3762   52.6550 C   0  0  0  0  0  0  0  0  0  0  0  0
   21.9927    7.1810   51.5647 C   0  0  0  0  0  0  0  0  0  0  0  0
   20.7148    7.6318   51.2569 C   0  0  0  0  0  0  0  0  0  0  0  0
   19.6431    7.2791   52.0434 C   0  0  0  0  0  0  0  0  0  0  0  0
   19.8605    6.4756   53.1346 C   0  0  0  0  0  0  0  0  0  0  0  0
   21.1264    6.0459   53.4155 C   0  0  0  0  0  0  0  0  0  0  0  0
 21 22  1  0  0  0
 22 23  1  0  0  0
 22  1  1  0  0  0
  1  2  1  0  0  0
  2  3  1  0  0  0
  3  4  2  0  0  0
  3  5  1  0  0  0
  5 27  1  0  0  0
 27 28  1  0  0  0
 28 29  2  0  0  0
 29 30  1  0  0  0
 30 31  2  0  0  0
 31 32  1  0  0  0
 32 33  2  0  0  0
  5  6  1  0  0  0
  6  7  1  0  0  0
  7  8  2  0  0  0
  7  9  1  0  0  0
  9 34  1  0  0  0
 34 35  1  0  0  0
 35 36  2  0  0  0
 36 37  1  0  0  0
 37 38  2  0  0  0
 38 39  1  0  0  0
 39 40  2  0  0  0
  9 10  1  0  0  0
 10 11  1  0  0  0
 11 12  2  0  0  0
 11 13  1  0  0  0
 13 14  1  0  0  0
 14 15  1  0  0  0
 15 16  2  0  0  0
 13 24  1  0  0  0
 24 25  1  0  0  0
 24 26  1  0  0  0
 15  1  1  0  0  0
 33 28  1  0  0  0
 40 35  1  0  0  0
  2 17  1  0  0  0
  6 18  1  0  0  0
 10 19  1  0  0  0
 14 20  1  0  0  0
M  END
> <minimizedAffinity>
40.56999

> <CNNscore>
0.2341454327

> <CNNaffinity>
6.1623334885

> <CNN_VS>
1.4428822994

> <CNNaffinity_variance>
0.7515841722

$$$$
[H]c1c([H])c([H])c(C([H])([H])[C@@]2([H])C(=O)N([H])[C@@]([H])(C([H])(C([H])([H])[H])C([H])([H])[H])C(=O)N([H])[C@@]([H])(C([H])(C([H])([H])[H])C([H])([H])[H])C(=O)N([H])[C@]([H])(C([H])([H])c3c([H])c([H])c([H])c([H])c3[H])C(=O)N2[H])c([H])c1[H]


 40 42  0  0  0  0  0  0  0  0999 V2000
   25.4610    8.1965   54.4202 C   0  0  0  0  0  0  0  0  0  0  0  0
   25.0308    9.5062   54.8587 N   0  0  0  0  0  0  0  0  0  0  0  0
   23.7627    9.8944   55.3126 C   0  0  0  0  0  0  0  0  0  0  0  0
   23.6404   10.4477   56.4369 O   0  0  0  0  0  0  0  0  0  0  0  0
   22.4644    9.7107   54.5566 C   0  0  0  0  0  0  0  0  0  0  0  0
   21.6450    8.7652   55.2690 N   0  0  0  0  0  0  0  0  0  0  0  0
   20.8259    7.7432   54.8053 C   0  0  0  0  0  0  0  0  0  0  0  0
   19.8152    7.4890   55.5805 O   0  0  0  0  0  0  0  0  0  0  0  0
   20.8639    6.8858   53.6192 C   0  0  0  0  0  0  0  0  0  0  0  0
   21.6441    7.3204   52.5060 N   0  0  0  0  0  0  0  0  0  0  0  0
   22.7979    6.7409   51.9535 C   0  0  0  0  0  0  0  0  0  0  0  0
   22.9048    6.7061   50.6705 O   0  0  0  0  0  0  0  0  0  0  0  0
   23.9536    6.1426   52.6462 C   0  0  0  0  0  0  0  0  0  0  0  0
   23.9240    6.1588   54.0649 N   0  0  0  0  0  0  0  0  0  0  0  0
   24.6419    7.0845   54.8954 C   0  0  0  0  0  0  0  0  0  0  0  0
   24.5487    6.9118   56.1376 O   0  0  0  0  0  0  0  0  0  0  0  0
   25.7949   10.2544   54.8273 H   0  0  0  0  0  0  0  0  0  0  0  0
   21.7184    8.9268   56.3486 H   0  0  0  0  0  0  0  0  0  0  0  0
   21.2799    8.2075   52.0314 H   0  0  0  0  0  0  0  0  0  0  0  0
   23.3211    5.4208   54.5384 H   0  0  0  0  0  0  0  0  0  0  0  0
   27.9282    8.1811   53.8800 C   0  0  0  0  0  0  0  0  0  0  0  0
   26.8953    8.0123   54.9510 C   0  0  0  0  0  0  0  0  0  0  0  0
   27.2024    9.0047   56.0467 C   0  0  0  0  0  0  0  0  0  0  0  0
   24.1098    4.7273   52.0959 C   0  0  0  0  0  0  0  0  0  0  0  0
   24.4002    3.7051   53.1467 C   0  0  0  0  0  0  0  0  0  0  0  0
   25.2294    4.7013   51.1020 C   0  0  0  0  0  0  0  0  0  0  0  0
   21.7786   11.0899   54.4660 C   0  0  0  0  0  0  0  0  0  0  0  0
   21.5849   11.5437   53.0824 C   0  0  0  0  0  0  0  0  0  0  0  0
   21.3427   10.6248   52.0816 C   0  0  0  0  0  0  0  0  0  0  0  0
   21.1629   11.0043   50.7632 C   0  0  0  0  0  0  0  0  0  0  0  0
   21.2217   12.3334   50.4068 C   0  0  0  0  0  0  0  0  0  0  0  0
   21.4604   13.2599   51.3825 C   0  0  0  0  0  0  0  0  0  0  0  0
   21.6387   12.8659   52.6992 C   0  0  0  0  0  0  0  0  0  0  0  0
   19.4064    6.8321   53.0956 C   0  0  0  0  0  0  0  0  0  0  0  0
   18.6753    5.6530   53.5011 C   0  0  0  0  0  0  0  0  0  0  0  0
   19.2602    4.4108   53.5588 C   0  0  0  0  0  0  0  0  0  0  0  0
   18.5357    3.2914   53.9500 C   0  0  0  0  0  0  0  0  0  0  0  0
   17.2079    3.4045   54.2902 C   0  0  0  0  0  0  0  0  0  0  0  0
   16.6149    4.6410   54.2356 C   0  0  0  0  0  0  0  0  0  0  0  0
   17.3491    5.7256   53.8478 C   0  0  0  0  0  0  0  0  0  0  0  0
 21 22  1  0  0  0
 22 23  1  0  0  0
 22  1  1  0  0  0
  1  2  1  0  0  0
  2  3  1  0  0  0
  3  4  2  0  0  0
  3  5  1  0  0  0
  5 27  1  0  0  0
 27 28  1  0  0  0
 28 29  2  0  0  0
 29 30  1  0  0  0
 30 31  2  0  0  0
 31 32  1  0  0  0
 32 33  2  0  0  0
  5  6  1  0  0  0
  6  7  1  0  0  0
  7  8  2  0  0  0
  7  9  1  0  0  0
  9 34  1  0  0  0
 34 35  1  0  0  0
 35 36  2  0  0  0
 36 37  1  0  0  0
 37 38  2  0  0  0
 38 39  1  0  0  0
 39 40  2  0  0  0
  9 10  1  0  0  0
 10 11  1  0  0  0
 11 12  2  0  0  0
 11 13  1  0  0  0
 13 14  1  0  0  0
 14 15  1  0  0  0
 15 16  2  0  0  0
 13 24  1  0  0  0
 24 25  1  0  0  0
 24 26  1  0  0  0
 15  1  1  0  0  0
 33 28  1  0  0  0
 40 35  1  0  0  0
  2 17  1  0  0  0
  6 18  1  0  0  0
 10 19  1  0  0  0
 14 20  1  0  0  0
M  END
> <minimizedAffinity>
49.88370

> <CNNscore>
0.2063824832

> <CNNaffinity>
5.9894328117

> <CNN_VS>
1.2361140251

> <CNNaffinity_variance>
0.9614744186

$$$$
[H]c1c([H])c([H])c(C([H])([H])[C@@]2([H])C(=O)N([H])[C@@]([H])(C([H])(C([H])([H])[H])C([H])([H])[H])C(=O)N([H])[C@@]([H])(C([H])(C([H])([H])[H])C([H])([H])[H])C(=O)N([H])[C@]([H])(C([H])([H])c3c([H])c([H])c([H])c([H])c3[H])C(=O)N2[H])c([H])c1[H]


 40 42  0  0  0  0  0  0  0  0999 V2000
   24.0393   10.9625   53.3424 C   0  0  0  0  0  0  0  0  0  0  0  0
   22.8557   10.7847   52.5301 N   0  0  0  0  0  0  0  0  0  0  0  0
   21.8635    9.8016   52.6485 C   0  0  0  0  0  0  0  0  0  0  0  0
   20.6566   10.1388   52.7698 O   0  0  0  0  0  0  0  0  0  0  0  0
   22.1024    8.3070   52.6444 C   0  0  0  0  0  0  0  0  0  0  0  0
   21.7735    7.7831   53.9445 N   0  0  0  0  0  0  0  0  0  0  0  0
   22.3962    6.8087   54.7147 C   0  0  0  0  0  0  0  0  0  0  0  0
   21.5852    6.1598   55.4947 O   0  0  0  0  0  0  0  0  0  0  0  0
   23.7839    6.3579   54.8339 C   0  0  0  0  0  0  0  0  0  0  0  0
   24.6817    6.6724   53.7700 N   0  0  0  0  0  0  0  0  0  0  0  0
   25.8128    7.5048   53.7831 C   0  0  0  0  0  0  0  0  0  0  0  0
   26.8615    7.1139   53.1457 O   0  0  0  0  0  0  0  0  0  0  0  0
   25.9903    8.8121   54.4411 C   0  0  0  0  0  0  0  0  0  0  0  0
   24.8730    9.3254   55.1495 N   0  0  0  0  0  0  0  0  0  0  0  0
   23.9829   10.3419   54.6633 C   0  0  0  0  0  0  0  0  0  0  0  0
   23.0809   10.7216   55.4532 O   0  0  0  0  0  0  0  0  0  0  0  0
   22.7432   11.5088   51.7506 H   0  0  0  0  0  0  0  0  0  0  0  0
   20.8766    8.2683   54.3408 H   0  0  0  0  0  0  0  0  0  0  0  0
   24.4526    6.1910   52.8424 H   0  0  0  0  0  0  0  0  0  0  0  0
   24.6926    8.9189   56.1162 H   0  0  0  0  0  0  0  0  0  0  0  0
   23.1144   13.2669   52.8799 C   0  0  0  0  0  0  0  0  0  0  0  0
   24.2172   12.4822   53.5206 C   0  0  0  0  0  0  0  0  0  0  0  0
   24.2601   12.8582   54.9823 C   0  0  0  0  0  0  0  0  0  0  0  0
   27.2230    8.6900   55.3331 C   0  0  0  0  0  0  0  0  0  0  0  0
   28.3086    9.6580   54.9899 C   0  0  0  0  0  0  0  0  0  0  0  0
   27.7833    7.3060   55.2198 C   0  0  0  0  0  0  0  0  0  0  0  0
   21.2040    7.6944   51.5497 C   0  0  0  0  0  0  0  0  0  0  0  0
   21.6912    6.3944   51.0695 C   0  0  0  0  0  0  0  0  0  0  0  0
   21.0744    5.2306   51.4813 C   0  0  0  0  0  0  0  0  0  0  0  0
   21.5035    3.9835   51.0628 C   0  0  0  0  0  0  0  0  0  0  0  0
   22.5774    3.8672   50.2083 C   0  0  0  0  0  0  0  0  0  0  0  0
   23.2028    5.0073   49.7883 C   0  0  0  0  0  0  0  0  0  0  0  0
   22.7625    6.2501   50.2154 C   0  0  0  0  0  0  0  0  0  0  0  0
   23.7193    4.8099   54.8644 C   0  0  0  0  0  0  0  0  0  0  0  0
   24.7684    4.1591   54.1126 C   0  0  0  0  0  0  0  0  0  0  0  0
   25.9816    3.8385   54.6726 C   0  0  0  0  0  0  0  0  0  0  0  0
   26.9756    3.2145   53.9286 C   0  0  0  0  0  0  0  0  0  0  0  0
   26.7640    2.9026   52.6059 C   0  0  0  0  0  0  0  0  0  0  0  0
   25.5555    3.2190   52.0376 C   0  0  0  0  0  0  0  0  0  0  0  0
   24.5949    3.8323   52.7908 C   0  0  0  0  0  0  0  0  0  0  0  0
 21 22  1  0  0  0
 22 23  1  0  0  0
 22  1  1  0  0  0
  1  2  1  0  0  0
  2  3  1  0  0  0
  3  4  2  0  0  0
  3  5  1  0  0  0
  5 27  1  0  0  0
 27 28  1  0  0  0
 28 29  2  0  0  0
 29 30  1  0  0  0
 30 31  2  0  0  0
 31 32  1  0  0  0
 32 33  2  0  0  0
  5  6  1  0  0  0
  6  7  1  0  0  0
  7  8  2  0  0  0
  7  9  1  0  0  0
  9 34  1  0  0  0
 34 35  1  0  0  0
 35 36  2  0  0  0
 36 37  1  0  0  0
 37 38  2  0  0  0
 38 39  1  0  0  0
 39 40  2  0  0  0
  9 10  1  0  0  0
 10 11  1  0  0  0
 11 12  2  0  0  0
 11 13  1  0  0  0
 13 14  1  0  0  0
 14 15  1  0  0  0
 15 16  2  0  0  0
 13 24  1  0  0  0
 24 25  1  0  0  0
 24 26  1  0  0  0
 15  1  1  0  0  0
 33 28  1  0  0  0
 40 35  1  0  0  0
  2 17  1  0  0  0
  6 18  1  0  0  0
 10 19  1  0  0  0
 14 20  1  0  0  0
M  END
> <minimizedAffinity>
169.93094

> <CNNscore>
0.0038255709

> <CNNaffinity>
4.4796514511

> <CNN_VS>
0.0171372239

> <CNNaffinity_variance>
3.5706486702

$$$$
[H]c1nc(N2C([H])([H])[C@@]3([H])N(C([H])([H])[H])C([H])([H])[C@]2([H])C3([H])[H])c([H])nc1-c1c([H])c([H])c([H])c([H])c1[H]


 20 23  0  0  0  0  0  0  0  0999 V2000
   24.2178    8.7320   54.7146 C   0  0  0  0  0  0  0  0  0  0  0  0
   25.4953    8.2194   54.6239 C   0  0  0  0  0  0  0  0  0  0  0  0
   26.4277    8.5758   55.5242 N   0  0  0  0  0  0  0  0  0  0  0  0
   26.1923    9.4265   56.5417 C   0  0  0  0  0  0  0  0  0  0  0  0
   24.9186    9.9371   56.6316 C   0  0  0  0  0  0  0  0  0  0  0  0
   23.9704    9.5811   55.7245 N   0  0  0  0  0  0  0  0  0  0  0  0
   19.6172    7.4464   52.0168 C   0  0  0  0  0  0  0  0  0  0  0  0
   20.8365    7.1335   52.7568 N   0  0  0  0  0  0  0  0  0  0  0  0
   20.8762    8.0542   53.9009 C   0  0  0  0  0  0  0  0  0  0  0  0
   21.9756    9.0490   53.5923 C   0  0  0  0  0  0  0  0  0  0  0  0
   21.8907    9.0290   52.0527 C   0  0  0  0  0  0  0  0  0  0  0  0
   21.9901    7.4936   51.9733 C   0  0  0  0  0  0  0  0  0  0  0  0
   23.2225    7.2739   52.8190 C   0  0  0  0  0  0  0  0  0  0  0  0
   23.2196    8.3679   53.7736 N   0  0  0  0  0  0  0  0  0  0  0  0
   27.2775    9.7459   57.4635 C   0  0  0  0  0  0  0  0  0  0  0  0
   27.7858   11.0162   57.6059 C   0  0  0  0  0  0  0  0  0  0  0  0
   28.8284   11.2864   58.5010 C   0  0  0  0  0  0  0  0  0  0  0  0
   29.3789   10.2846   59.2689 C   0  0  0  0  0  0  0  0  0  0  0  0
   28.8750    9.0142   59.1305 C   0  0  0  0  0  0  0  0  0  0  0  0
   27.8491    8.7597   58.2470 C   0  0  0  0  0  0  0  0  0  0  0  0
  7  8  1  0  0  0
  8  9  1  0  0  0
  9 10  1  0  0  0
 10 11  1  0  0  0
 11 12  1  0  0  0
 12 13  1  0  0  0
 13 14  1  0  0  0
 14  1  1  0  0  0
  1  2  2  0  0  0
  2  3  1  0  0  0
  3  4  2  0  0  0
  4  5  1  0  0  0
  5  6  2  0  0  0
  4 15  1  0  0  0
 15 16  2  0  0  0
 16 17  1  0  0  0
 17 18  2  0  0  0
 18 19  1  0  0  0
 19 20  2  0  0  0
 12  8  1  0  0  0
  6  1  1  0  0  0
 20 15  1  0  0  0
 14 10  1  0  0  0
M  END
> <minimizedAffinity>
10.00957

> <CNNscore>
0.6181039810

> <CNNaffinity>
5.3693141937

> <CNN_VS>
3.3187944889

> <CNNaffinity_variance>
0.3084361255

$$$$
[H]c1nc(N2C([H])([H])[C@@]3([H])N(C([H])([H])[H])C([H])([H])[C@]2([H])C3([H])[H])c([H])nc1-c1c([H])c([H])c([H])c([H])c1[H]


 20 23  0  0  0  0  0  0  0  0999 V2000
   24.4179    8.5826   54.7017 C   0  0  0  0  0  0  0  0  0  0  0  0
   24.1692    9.4299   55.7615 C   0  0  0  0  0  0  0  0  0  0  0  0
   25.1655    9.7718   56.5965 N   0  0  0  0  0  0  0  0  0  0  0  0
   26.4310    9.3294   56.4648 C   0  0  0  0  0  0  0  0  0  0  0  0
   26.6783    8.4849   55.4081 C   0  0  0  0  0  0  0  0  0  0  0  0
   25.6754    8.1347   54.5595 N   0  0  0  0  0  0  0  0  0  0  0  0
   19.6939    7.3404   52.2043 C   0  0  0  0  0  0  0  0  0  0  0  0
   20.9221    7.0186   52.9255 N   0  0  0  0  0  0  0  0  0  0  0  0
   21.0304    7.9947   54.0181 C   0  0  0  0  0  0  0  0  0  0  0  0
   22.1566    8.9287   53.6272 C   0  0  0  0  0  0  0  0  0  0  0  0
   22.0252    8.8328   52.0937 C   0  0  0  0  0  0  0  0  0  0  0  0
   22.0645    7.2927   52.0924 C   0  0  0  0  0  0  0  0  0  0  0  0
   23.3124    7.0689   52.9137 C   0  0  0  0  0  0  0  0  0  0  0  0
   23.3791    8.2099   53.8093 N   0  0  0  0  0  0  0  0  0  0  0  0
   27.4370    9.7635   57.4287 C   0  0  0  0  0  0  0  0  0  0  0  0
   28.0214    8.9078   58.3335 C   0  0  0  0  0  0  0  0  0  0  0  0
   28.9842    9.3595   59.2447 C   0  0  0  0  0  0  0  0  0  0  0  0
   29.3769   10.6793   59.2627 C   0  0  0  0  0  0  0  0  0  0  0  0
   28.7964   11.5380   58.3612 C   0  0  0  0  0  0  0  0  0  0  0  0
   27.8503   11.0829   57.4693 C   0  0  0  0  0  0  0  0  0  0  0  0
  7  8  1  0  0  0
  8  9  1  0  0  0
  9 10  1  0  0  0
 10 11  1  0  0  0
 11 12  1  0  0  0
 12 13  1  0  0  0
 13 14  1  0  0  0
 14  1  1  0  0  0
  1  2  2  0  0  0
  2  3  1  0  0  0
  3  4  2  0  0  0
  4  5  1  0  0  0
  5  6  2  0  0  0
  4 15  1  0  0  0
 15 16  2  0  0  0
 16 17  1  0  0  0
 17 18  2  0  0  0
 18 19  1  0  0  0
 19 20  2  0  0  0
 12  8  1  0  0  0
  6  1  1  0  0  0
 20 15  1  0  0  0
 14 10  1  0  0  0
M  END
> <minimizedAffinity>
7.55854

> <CNNscore>
0.6126447916

> <CNNaffinity>
5.3532209396

> <CNN_VS>
3.2796230316

> <CNNaffinity_variance>
0.3451795876

$$$$
[H]c1nc(N2C([H])([H])[C@@]3([H])N(C([H])([H])[H])C([H])([H])[C@]2([H])C3([H])[H])c([H])nc1-c1c([H])c([H])c([H])c([H])c1[H]


 20 23  0  0  0  0  0  0  0  0999 V2000
   23.2225    7.7417   53.9287 C   0  0  0  0  0  0  0  0  0  0  0  0
   23.3463    8.7611   54.8499 C   0  0  0  0  0  0  0  0  0  0  0  0
   24.5605    9.1038   55.3136 N   0  0  0  0  0  0  0  0  0  0  0  0
   25.7014    8.5006   54.9277 C   0  0  0  0  0  0  0  0  0  0  0  0
   25.5774    7.4845   54.0095 C   0  0  0  0  0  0  0  0  0  0  0  0
   24.3524    7.1325   53.5360 N   0  0  0  0  0  0  0  0  0  0  0  0
   17.8910    6.9888   52.8779 C   0  0  0  0  0  0  0  0  0  0  0  0
   19.1749    6.6318   53.4748 N   0  0  0  0  0  0  0  0  0  0  0  0
   19.7215    7.8662   54.0541 C   0  0  0  0  0  0  0  0  0  0  0  0
   20.8739    8.2680   53.1574 C   0  0  0  0  0  0  0  0  0  0  0  0
   20.3625    7.6729   51.8299 C   0  0  0  0  0  0  0  0  0  0  0  0
   20.1140    6.2805   52.4410 C   0  0  0  0  0  0  0  0  0  0  0  0
   21.4590    6.0417   53.0861 C   0  0  0  0  0  0  0  0  0  0  0  0
   21.9492    7.3651   53.4275 N   0  0  0  0  0  0  0  0  0  0  0  0
   26.9681    8.9520   55.4947 C   0  0  0  0  0  0  0  0  0  0  0  0
   28.1464    8.9489   54.7848 C   0  0  0  0  0  0  0  0  0  0  0  0
   29.3441    9.3896   55.3614 C   0  0  0  0  0  0  0  0  0  0  0  0
   29.3789    9.8412   56.6620 C   0  0  0  0  0  0  0  0  0  0  0  0
   28.2050    9.8463   57.3753 C   0  0  0  0  0  0  0  0  0  0  0  0
   27.0325    9.4106   56.7981 C   0  0  0  0  0  0  0  0  0  0  0  0
  7  8  1  0  0  0
  8  9  1  0  0  0
  9 10  1  0  0  0
 10 11  1  0  0  0
 11 12  1  0  0  0
 12 13  1  0  0  0
 13 14  1  0  0  0
 14  1  1  0  0  0
  1  2  2  0  0  0
  2  3  1  0  0  0
  3  4  2  0  0  0
  4  5  1  0  0  0
  5  6  2  0  0  0
  4 15  1  0  0  0
 15 16  2  0  0  0
 16 17  1  0  0  0
 17 18  2  0  0  0
 18 19  1  0  0  0
 19 20  2  0  0  0
 12  8  1  0  0  0
  6  1  1  0  0  0
 20 15  1  0  0  0
 14 10  1  0  0  0
M  END
> <minimizedAffinity>
19.03827

> <CNNscore>
0.5274756551

> <CNNaffinity>
5.5490818024

> <CNN_VS>
2.9270055294

> <CNNaffinity_variance>
0.6463947892

$$$$
[H]c1nc(N2C([H])([H])[C@@]3([H])N(C([H])([H])[H])C([H])([H])[C@]2([H])C3([H])[H])c([H])nc1-c1c([H])c([H])c([H])c([H])c1[H]


 20 23  0  0  0  0  0  0  0  0999 V2000
   22.8058    7.4541   53.9209 C   0  0  0  0  0  0  0  0  0  0  0  0
   23.9238    6.7050   53.6175 C   0  0  0  0  0  0  0  0  0  0  0  0
   25.1407    7.1294   53.9994 N   0  0  0  0  0  0  0  0  0  0  0  0
   25.3499    8.2729   54.6799 C   0  0  0  0  0  0  0  0  0  0  0  0
   24.2350    9.0192   54.9820 C   0  0  0  0  0  0  0  0  0  0  0  0
   23.0009    8.5961   54.5990 N   0  0  0  0  0  0  0  0  0  0  0  0
   17.4343    6.6432   53.1551 C   0  0  0  0  0  0  0  0  0  0  0  0
   18.7289    6.3688   53.7725 N   0  0  0  0  0  0  0  0  0  0  0  0
   19.3125    7.6737   54.1118 C   0  0  0  0  0  0  0  0  0  0  0  0
   20.4450    7.8873   53.1293 C   0  0  0  0  0  0  0  0  0  0  0  0
   19.8856    7.0799   51.9405 C   0  0  0  0  0  0  0  0  0  0  0  0
   19.6318    5.8219   52.7929 C   0  0  0  0  0  0  0  0  0  0  0  0
   20.9906    5.6710   53.4354 C   0  0  0  0  0  0  0  0  0  0  0  0
   21.5125    7.0229   53.5262 N   0  0  0  0  0  0  0  0  0  0  0  0
   26.7140    8.6402   55.0457 C   0  0  0  0  0  0  0  0  0  0  0  0
   27.0312    9.2292   56.2476 C   0  0  0  0  0  0  0  0  0  0  0  0
   28.3524    9.5683   56.5653 C   0  0  0  0  0  0  0  0  0  0  0  0
   29.3783    9.3215   55.6803 C   0  0  0  0  0  0  0  0  0  0  0  0
   29.0669    8.7335   54.4786 C   0  0  0  0  0  0  0  0  0  0  0  0
   27.7638    8.4040   54.1765 C   0  0  0  0  0  0  0  0  0  0  0  0
  7  8  1  0  0  0
  8  9  1  0  0  0
  9 10  1  0  0  0
 10 11  1  0  0  0
 11 12  1  0  0  0
 12 13  1  0  0  0
 13 14  1  0  0  0
 14  1  1  0  0  0
  1  2  2  0  0  0
  2  3  1  0  0  0
  3  4  2  0  0  0
  4  5  1  0  0  0
  5  6  2  0  0  0
  4 15  1  0  0  0
 15 16  2  0  0  0
 16 17  1  0  0  0
 17 18  2  0  0  0
 18 19  1  0  0  0
 19 20  2  0  0  0
 12  8  1  0  0  0
  6  1  1  0  0  0
 20 15  1  0  0  0
 14 10  1  0  0  0
M  END
> <minimizedAffinity>
19.83796

> <CNNscore>
0.5243343115

> <CNNaffinity>
5.6135702133

> <CNN_VS>
2.9433875084

> <CNNaffinity_variance>
0.7412923574

$$$$
[H]c1nc(N2C([H])([H])[C@@]3([H])N(C([H])([H])[H])C([H])([H])[C@]2([H])C3([H])[H])c([H])nc1-c1c([H])c([H])c([H])c([H])c1[H]


 20 23  0  0  0  0  0  0  0  0999 V2000
   25.4115    8.7675   55.4394 C   0  0  0  0  0  0  0  0  0  0  0  0
   25.3232    7.6114   54.6920 C   0  0  0  0  0  0  0  0  0  0  0  0
   24.2036    7.3441   53.9977 N   0  0  0  0  0  0  0  0  0  0  0  0
   23.1275    8.1541   53.9814 C   0  0  0  0  0  0  0  0  0  0  0  0
   23.2161    9.3064   54.7266 C   0  0  0  0  0  0  0  0  0  0  0  0
   24.3455    9.5833   55.4314 N   0  0  0  0  0  0  0  0  0  0  0  0
   29.2488   10.7580   58.8173 C   0  0  0  0  0  0  0  0  0  0  0  0
   28.5438   10.6619   57.5421 N   0  0  0  0  0  0  0  0  0  0  0  0
   27.1096   10.6505   57.8600 C   0  0  0  0  0  0  0  0  0  0  0  0
   26.6400    9.2347   57.5982 C   0  0  0  0  0  0  0  0  0  0  0  0
   27.9554    8.4876   57.8970 C   0  0  0  0  0  0  0  0  0  0  0  0
   28.7840    9.3729   56.9465 C   0  0  0  0  0  0  0  0  0  0  0  0
   27.9405    9.2651   55.6979 C   0  0  0  0  0  0  0  0  0  0  0  0
   26.5850    9.0673   56.1793 N   0  0  0  0  0  0  0  0  0  0  0  0
   21.9620    7.7678   53.1927 C   0  0  0  0  0  0  0  0  0  0  0  0
   21.2079    8.6733   52.4831 C   0  0  0  0  0  0  0  0  0  0  0  0
   20.0951    8.2666   51.7365 C   0  0  0  0  0  0  0  0  0  0  0  0
   19.7204    6.9422   51.6898 C   0  0  0  0  0  0  0  0  0  0  0  0
   20.4701    6.0338   52.3966 C   0  0  0  0  0  0  0  0  0  0  0  0
   21.5629    6.4450   53.1277 C   0  0  0  0  0  0  0  0  0  0  0  0
  7  8  1  0  0  0
  8  9  1  0  0  0
  9 10  1  0  0  0
 10 11  1  0  0  0
 11 12  1  0  0  0
 12 13  1  0  0  0
 13 14  1  0  0  0
 14  1  1  0  0  0
  1  2  2  0  0  0
  2  3  1  0  0  0
  3  4  2  0  0  0
  4  5  1  0  0  0
  5  6  2  0  0  0
  4 15  1  0  0  0
 15 16  2  0  0  0
 16 17  1  0  0  0
 17 18  2  0  0  0
 18 19  1  0  0  0
 19 20  2  0  0  0
 12  8  1  0  0  0
  6  1  1  0  0  0
 20 15  1  0  0  0
 14 10  1  0  0  0
M  END
> <minimizedAffinity>
16.66350

> <CNNscore>
0.4682106972

> <CNNaffinity>
5.2501745224

> <CNN_VS>
2.4581878185

> <CNNaffinity_variance>
0.2521429360

$$$$
[H]c1nc(N2C([H])([H])[C@@]3([H])N(C([H])([H])[H])C([H])([H])[C@]2([H])C3([H])[H])c([H])nc1-c1c([H])c([H])c([H])c([H])c1[H]


 20 23  0  0  0  0  0  0  0  0999 V2000
   21.8655    6.6240   53.7892 C   0  0  0  0  0  0  0  0  0  0  0  0
   21.8667    5.2518   53.9305 C   0  0  0  0  0  0  0  0  0  0  0  0
   20.7150    4.5654   53.8343 N   0  0  0  0  0  0  0  0  0  0  0  0
   19.5213    5.1446   53.6016 C   0  0  0  0  0  0  0  0  0  0  0  0
   19.5207    6.5125   53.4608 C   0  0  0  0  0  0  0  0  0  0  0  0
   20.6819    7.2133   53.5570 N   0  0  0  0  0  0  0  0  0  0  0  0
   27.0003    8.4300   54.4733 C   0  0  0  0  0  0  0  0  0  0  0  0
   25.6295    8.1748   54.9067 N   0  0  0  0  0  0  0  0  0  0  0  0
   25.3002    6.8133   54.4638 C   0  0  0  0  0  0  0  0  0  0  0  0
   24.3234    6.9768   53.3181 C   0  0  0  0  0  0  0  0  0  0  0  0
   24.8035    8.3429   52.7878 C   0  0  0  0  0  0  0  0  0  0  0  0
   24.7198    9.0152   54.1716 C   0  0  0  0  0  0  0  0  0  0  0  0
   23.3094    8.6335   54.5554 C   0  0  0  0  0  0  0  0  0  0  0  0
   23.0711    7.3664   53.8877 N   0  0  0  0  0  0  0  0  0  0  0  0
   18.3312    4.3045   53.5156 C   0  0  0  0  0  0  0  0  0  0  0  0
   18.2974    3.1296   52.8010 C   0  0  0  0  0  0  0  0  0  0  0  0
   17.1369    2.3481   52.7404 C   0  0  0  0  0  0  0  0  0  0  0  0
   15.9894    2.7337   53.3971 C   0  0  0  0  0  0  0  0  0  0  0  0
   16.0178    3.9062   54.1122 C   0  0  0  0  0  0  0  0  0  0  0  0
   17.1649    4.6671   54.1650 C   0  0  0  0  0  0  0  0  0  0  0  0
  7  8  1  0  0  0
  8  9  1  0  0  0
  9 10  1  0  0  0
 10 11  1  0  0  0
 11 12  1  0  0  0
 12 13  1  0  0  0
 13 14  1  0  0  0
 14  1  1  0  0  0
  1  2  2  0  0  0
  2  3  1  0  0  0
  3  4  2  0  0  0
  4  5  1  0  0  0
  5  6  2  0  0  0
  4 15  1  0  0  0
 15 16  2  0  0  0
 16 17  1  0  0  0
 17 18  2  0  0  0
 18 19  1  0  0  0
 19 20  2  0  0  0
 12  8  1  0  0  0
  6  1  1  0  0  0
 20 15  1  0  0  0
 14 10  1  0  0  0
M  END
> <minimizedAffinity>
20.21990

> <CNNscore>
0.4609248042

> <CNNaffinity>
5.4493379593

> <CNN_VS>
2.5117349625

> <CNNaffinity_variance>
0.3084501922

$$$$
[H]c1nc(N2C([H])([H])[C@@]3([H])N(C([H])([H])[H])C([H])([H])[C@]2([H])C3([H])[H])c([H])nc1-c1c([H])c([H])c([H])c([H])c1[H]


 20 23  0  0  0  0  0  0  0  0999 V2000
   21.6621    6.4040   53.7903 C   0  0  0  0  0  0  0  0  0  0  0  0
   20.4299    6.9792   53.5588 C   0  0  0  0  0  0  0  0  0  0  0  0
   19.3308    6.2084   53.4903 N   0  0  0  0  0  0  0  0  0  0  0  0
   19.3510    4.8696   53.6371 C   0  0  0  0  0  0  0  0  0  0  0  0
   20.5797    4.2967   53.8679 C   0  0  0  0  0  0  0  0  0  0  0  0
   21.6957    5.0702   53.9385 N   0  0  0  0  0  0  0  0  0  0  0  0
   26.7053    8.4599   54.4510 C   0  0  0  0  0  0  0  0  0  0  0  0
   25.3388    8.1710   54.8771 N   0  0  0  0  0  0  0  0  0  0  0  0
   25.0739    6.7747   54.5050 C   0  0  0  0  0  0  0  0  0  0  0  0
   24.1111    6.8342   53.3375 C   0  0  0  0  0  0  0  0  0  0  0  0
   24.5434    8.1885   52.7400 C   0  0  0  0  0  0  0  0  0  0  0  0
   24.4080    8.9309   54.0832 C   0  0  0  0  0  0  0  0  0  0  0  0
   23.0082    8.5114   54.4663 C   0  0  0  0  0  0  0  0  0  0  0  0
   22.8341    7.2009   53.8659 N   0  0  0  0  0  0  0  0  0  0  0  0
   18.0977    4.1278   53.5443 C   0  0  0  0  0  0  0  0  0  0  0  0
   16.9555    4.5066   54.2107 C   0  0  0  0  0  0  0  0  0  0  0  0
   15.7697    3.7702   54.0982 C   0  0  0  0  0  0  0  0  0  0  0  0
   15.7107    2.6398   53.3139 C   0  0  0  0  0  0  0  0  0  0  0  0
   16.8486    2.2572   52.6462 C   0  0  0  0  0  0  0  0  0  0  0  0
   18.0097    2.9891   52.7640 C   0  0  0  0  0  0  0  0  0  0  0  0
  7  8  1  0  0  0
  8  9  1  0  0  0
  9 10  1  0  0  0
 10 11  1  0  0  0
 11 12  1  0  0  0
 12 13  1  0  0  0
 13 14  1  0  0  0
 14  1  1  0  0  0
  1  2  2  0  0  0
  2  3  1  0  0  0
  3  4  2  0  0  0
  4  5  1  0  0  0
  5  6  2  0  0  0
  4 15  1  0  0  0
 15 16  2  0  0  0
 16 17  1  0  0  0
 17 18  2  0  0  0
 18 19  1  0  0  0
 19 20  2  0  0  0
 12  8  1  0  0  0
  6  1  1  0  0  0
 20 15  1  0  0  0
 14 10  1  0  0  0
M  END
> <minimizedAffinity>
19.98807

> <CNNscore>
0.4547181129

> <CNNaffinity>
5.5333585739

> <CNN_VS>
2.5161182880

> <CNNaffinity_variance>
0.1909348071

$$$$
[H]c1nc(N2C([H])([H])[C@@]3([H])N(C([H])([H])[H])C([H])([H])[C@]2([H])C3([H])[H])c([H])nc1-c1c([H])c([H])c([H])c([H])c1[H]


 20 23  0  0  0  0  0  0  0  0999 V2000
   25.7983    8.9431   55.6613 C   0  0  0  0  0  0  0  0  0  0  0  0
   24.5821    9.5683   55.8429 C   0  0  0  0  0  0  0  0  0  0  0  0
   23.5395    9.2510   55.0561 N   0  0  0  0  0  0  0  0  0  0  0  0
   23.6032    8.3347   54.0707 C   0  0  0  0  0  0  0  0  0  0  0  0
   24.8158    7.7119   53.8902 C   0  0  0  0  0  0  0  0  0  0  0  0
   25.8748    8.0278   54.6823 N   0  0  0  0  0  0  0  0  0  0  0  0
   29.3656   11.0358   59.2657 C   0  0  0  0  0  0  0  0  0  0  0  0
   28.7635   10.8990   57.9425 N   0  0  0  0  0  0  0  0  0  0  0  0
   27.3085   10.9016   58.1456 C   0  0  0  0  0  0  0  0  0  0  0  0
   26.8541    9.4790   57.8942 C   0  0  0  0  0  0  0  0  0  0  0  0
   28.1379    8.7391   58.3210 C   0  0  0  0  0  0  0  0  0  0  0  0
   29.0437    9.5903   57.4106 C   0  0  0  0  0  0  0  0  0  0  0  0
   28.3013    9.4430   56.1032 C   0  0  0  0  0  0  0  0  0  0  0  0
   26.9110    9.2646   56.4818 N   0  0  0  0  0  0  0  0  0  0  0  0
   22.4098    8.0664   53.2749 C   0  0  0  0  0  0  0  0  0  0  0  0
   21.6440    6.9352   53.4367 C   0  0  0  0  0  0  0  0  0  0  0  0
   20.5042    6.7103   52.6546 C   0  0  0  0  0  0  0  0  0  0  0  0
   20.1139    7.6185   51.6958 C   0  0  0  0  0  0  0  0  0  0  0  0
   20.8751    8.7498   51.5302 C   0  0  0  0  0  0  0  0  0  0  0  0
   21.9944    8.9609   52.3050 C   0  0  0  0  0  0  0  0  0  0  0  0
  7  8  1  0  0  0
  8  9  1  0  0  0
  9 10  1  0  0  0
 10 11  1  0  0  0
 11 12  1  0  0  0
 12 13  1  0  0  0
 13 14  1  0  0  0
 14  1  1  0  0  0
  1  2  2  0  0  0
  2  3  1  0  0  0
  3  4  2  0  0  0
  4  5  1  0  0  0
  5  6  2  0  0  0
  4 15  1  0  0  0
 15 16  2  0  0  0
 16 17  1  0  0  0
 17 18  2  0  0  0
 18 19  1  0  0  0
 19 20  2  0  0  0
 12  8  1  0  0  0
  6  1  1  0  0  0
 20 15  1  0  0  0
 14 10  1  0  0  0
M  END
> <minimizedAffinity>
10.89298

> <CNNscore>
0.4446471930

> <CNNaffinity>
5.0560712814

> <CNN_VS>
2.2481679916

> <CNNaffinity_variance>
0.5698462129

$$$$
[H]c1nc(N2C([H])([H])[C@@]3([H])N(C([H])([H])[H])C([H])([H])[C@]2([H])C3([H])[H])c([H])nc1-c1c([H])c([H])c([H])c([H])c1[H]


 20 23  0  0  0  0  0  0  0  0999 V2000
   21.9892    6.0119   53.8536 C   0  0  0  0  0  0  0  0  0  0  0  0
   22.0954    7.1621   54.6078 C   0  0  0  0  0  0  0  0  0  0  0  0
   23.2932    7.7497   54.7719 N   0  0  0  0  0  0  0  0  0  0  0  0
   24.4335    7.2770   54.2329 C   0  0  0  0  0  0  0  0  0  0  0  0
   24.3270    6.1304   53.4812 C   0  0  0  0  0  0  0  0  0  0  0  0
   23.1188    5.5307   53.3108 N   0  0  0  0  0  0  0  0  0  0  0  0
   17.8031    2.6633   52.6875 C   0  0  0  0  0  0  0  0  0  0  0  0
   18.7194    3.7659   52.4098 N   0  0  0  0  0  0  0  0  0  0  0  0
   20.0621    3.2914   52.7707 C   0  0  0  0  0  0  0  0  0  0  0  0
   20.4332    4.0291   54.0402 C   0  0  0  0  0  0  0  0  0  0  0  0
   19.0193    4.2292   54.6223 C   0  0  0  0  0  0  0  0  0  0  0  0
   18.4704    4.8507   53.3238 C   0  0  0  0  0  0  0  0  0  0  0  0
   19.5161    5.9153   53.0890 C   0  0  0  0  0  0  0  0  0  0  0  0
   20.7335    5.3768   53.6689 N   0  0  0  0  0  0  0  0  0  0  0  0
   25.6815    7.9938   54.4743 C   0  0  0  0  0  0  0  0  0  0  0  0
   26.6773    8.0967   53.5308 C   0  0  0  0  0  0  0  0  0  0  0  0
   27.8628    8.7930   53.7974 C   0  0  0  0  0  0  0  0  0  0  0  0
   28.0685    9.3984   55.0172 C   0  0  0  0  0  0  0  0  0  0  0  0
   27.0772    9.2986   55.9628 C   0  0  0  0  0  0  0  0  0  0  0  0
   25.9150    8.6112   55.6899 C   0  0  0  0  0  0  0  0  0  0  0  0
  7  8  1  0  0  0
  8  9  1  0  0  0
  9 10  1  0  0  0
 10 11  1  0  0  0
 11 12  1  0  0  0
 12 13  1  0  0  0
 13 14  1  0  0  0
 14  1  1  0  0  0
  1  2  2  0  0  0
  2  3  1  0  0  0
  3  4  2  0  0  0
  4  5  1  0  0  0
  5  6  2  0  0  0
  4 15  1  0  0  0
 15 16  2  0  0  0
 16 17  1  0  0  0
 17 18  2  0  0  0
 18 19  1  0  0  0
 19 20  2  0  0  0
 12  8  1  0  0  0
  6  1  1  0  0  0
 20 15  1  0  0  0
 14 10  1  0  0  0
M  END
> <minimizedAffinity>
24.78391

> <CNNscore>
0.4083270431

> <CNNaffinity>
5.5721173286

> <CNN_VS>
2.2752461433

> <CNNaffinity_variance>
0.3796557486

$$$$
[H]OC(=O)[C@]1([H])O[C@]([H])([C@@]([H])(O[C@@]2([H])OC(C(=O)N([H])[C@]3([H])[C@]([H])(O[H])[C@@]([H])(O[H])[C@]3([H])O[H])=C([H])[C@]([H])(O[H])[C@]2([H])O[H])n2c([H])c([H])c(=O)n([H])c2=O)[C@@]([H])(OC([H])([H])[H])[C@@]1([H])O[H]


 48 51  0  0  0  0  0  0  0  0999 V2000
   24.7126    7.6322   53.1374 O   0  0  0  0  0  0  0  0  0  0  0  0
   25.6316    8.6555   53.3480 C   0  0  0  0  0  0  0  0  0  0  0  0
   25.6211    8.9784   54.7175 O   0  0  0  0  0  0  0  0  0  0  0  0
   26.5944    8.7149   55.6398 C   0  0  0  0  0  0  0  0  0  0  0  0
   27.5479    7.8500   55.3394 C   0  0  0  0  0  0  0  0  0  0  0  0
   27.5192    7.1990   54.0058 C   0  0  0  0  0  0  0  0  0  0  0  0
   28.7937    6.8062   53.6027 O   0  0  0  0  0  0  0  0  0  0  0  0
   27.0394    8.2315   53.0007 C   0  0  0  0  0  0  0  0  0  0  0  0
   27.8657    9.3476   53.1281 O   0  0  0  0  0  0  0  0  0  0  0  0
   29.2822    7.6628   53.3924 H   0  0  0  0  0  0  0  0  0  0  0  0
   27.4737   10.1500   52.6637 H   0  0  0  0  0  0  0  0  0  0  0  0
   26.6079    9.3732   56.9664 C   0  0  0  0  0  0  0  0  0  0  0  0
   25.6224   10.1128   57.2184 O   0  0  0  0  0  0  0  0  0  0  0  0
   27.6296    9.2138   57.9154 N   0  0  0  0  0  0  0  0  0  0  0  0
   28.4636    8.6184   57.7632 H   0  0  0  0  0  0  0  0  0  0  0  0
   27.5487    9.9021   59.1866 C   0  0  0  0  0  0  0  0  0  0  0  0
   27.9907   11.3400   59.0325 C   0  0  0  0  0  0  0  0  0  0  0  0
   27.8183   11.8793   57.7603 O   0  0  0  0  0  0  0  0  0  0  0  0
   29.4068   10.8743   59.3208 C   0  0  0  0  0  0  0  0  0  0  0  0
   30.1290   11.7477   60.1298 O   0  0  0  0  0  0  0  0  0  0  0  0
   28.8040    9.6907   60.0516 C   0  0  0  0  0  0  0  0  0  0  0  0
   29.4268    8.4660   59.7940 O   0  0  0  0  0  0  0  0  0  0  0  0
   28.6677   11.7319   57.2707 H   0  0  0  0  0  0  0  0  0  0  0  0
   30.7307   11.2036   60.6897 H   0  0  0  0  0  0  0  0  0  0  0  0
   28.7376    7.7540   59.9373 H   0  0  0  0  0  0  0  0  0  0  0  0
   23.5111    8.0562   52.5928 C   0  0  0  0  0  0  0  0  0  0  0  0
   22.5166    7.0782   52.9748 N   0  0  0  0  0  0  0  0  0  0  0  0
   22.7693    6.1981   53.9495 C   0  0  0  0  0  0  0  0  0  0  0  0
   21.8062    5.2804   54.2892 C   0  0  0  0  0  0  0  0  0  0  0  0
   20.5999    5.2755   53.6280 C   0  0  0  0  0  0  0  0  0  0  0  0
   19.7144    4.4137   53.9572 O   0  0  0  0  0  0  0  0  0  0  0  0
   20.3549    6.1636   52.6500 N   0  0  0  0  0  0  0  0  0  0  0  0
   21.3298    7.0395   52.3567 C   0  0  0  0  0  0  0  0  0  0  0  0
   21.0821    7.8736   51.4286 O   0  0  0  0  0  0  0  0  0  0  0  0
   19.4293    6.1366   52.1663 H   0  0  0  0  0  0  0  0  0  0  0  0
   22.0422    9.5180   54.0127 C   0  0  0  0  0  0  0  0  0  0  0  0
   21.1530   10.6232   53.4190 C   0  0  0  0  0  0  0  0  0  0  0  0
   20.8051   11.5508   54.3839 O   0  0  0  0  0  0  0  0  0  0  0  0
   22.1151   11.2885   52.4605 C   0  0  0  0  0  0  0  0  0  0  0  0
   22.7677   10.2106   51.9233 O   0  0  0  0  0  0  0  0  0  0  0  0
   23.1564    9.4612   53.0311 C   0  0  0  0  0  0  0  0  0  0  0  0
   21.4319   12.3156   54.3827 H   0  0  0  0  0  0  0  0  0  0  0  0
   21.4391   12.1061   51.4422 C   0  0  0  0  0  0  0  0  0  0  0  0
   21.5036   13.4900   51.4499 O   0  0  0  0  0  0  0  0  0  0  0  0
   20.7816   11.5500   50.5358 O   0  0  0  0  0  0  0  0  0  0  0  0
   21.2494   14.0538   50.6538 H   0  0  0  0  0  0  0  0  0  0  0  0
   21.5733    9.7501   56.2575 C   0  0  0  0  0  0  0  0  0  0  0  0
   22.4874    9.9929   55.2376 O   0  0  0  0  0  0  0  0  0  0  0  0
 47 48  1  0  0  0
 48 36  1  0  0  0
 36 37  1  0  0  0
 37 38  1  0  0  0
 37 39  1  0  0  0
 39 40  1  0  0  0
 40 41  1  0  0  0
 41 26  1  0  0  0
 26  1  1  0  0  0
  1  2  1  0  0  0
  2  3  1  0  0  0
  3  4  1  0  0  0
  4  5  2  0  0  0
  5  6  1  0  0  0
  6  7  1  0  0  0
  6  8  1  0  0  0
  8  9  1  0  0  0
  4 12  1  0  0  0
 12 13  2  0  0  0
 12 14  1  0  0  0
 14 16  1  0  0  0
 16 17  1  0  0  0
 17 18  1  0  0  0
 17 19  1  0  0  0
 19 20  1  0  0  0
 19 21  1  0  0  0
 21 22  1  0  0  0
 26 27  1  0  0  0
 27 28  1  0  0  0
 28 29  2  0  0  0
 29 30  1  0  0  0
 30 31  2  0  0  0
 30 32  1  0  0  0
 32 33  1  0  0  0
 33 34  2  0  0  0
 39 43  1  0  0  0
 43 44  1  0  0  0
 43 45  2  0  0  0
 41 36  1  0  0  0
  8  2  1  0  0  0
 21 16  1  0  0  0
 33 27  1  0  0  0
 38 42  1  0  0  0
  7 10  1  0  0  0
  9 11  1  0  0  0
 14 15  1  0  0  0
 18 23  1  0  0  0
 20 24  1  0  0  0
 22 25  1  0  0  0
 32 35  1  0  0  0
 44 46  1  0  0  0
M  END
> <minimizedAffinity>
21.88881

> <CNNscore>
0.4795327783

> <CNNaffinity>
5.8046736717

> <CNN_VS>
2.7835311890

> <CNNaffinity_variance>
0.4984850287

$$$$
[H]OC(=O)[C@]1([H])O[C@]([H])([C@@]([H])(O[C@@]2([H])OC(C(=O)N([H])[C@]3([H])[C@]([H])(O[H])[C@@]([H])(O[H])[C@]3([H])O[H])=C([H])[C@]([H])(O[H])[C@]2([H])O[H])n2c([H])c([H])c(=O)n([H])c2=O)[C@@]([H])(OC([H])([H])[H])[C@@]1([H])O[H]


 48 51  0  0  0  0  0  0  0  0999 V2000
   23.6781    8.6029   52.3835 O   0  0  0  0  0  0  0  0  0  0  0  0
   24.0694    7.7338   53.3972 C   0  0  0  0  0  0  0  0  0  0  0  0
   25.2849    8.2014   53.9300 O   0  0  0  0  0  0  0  0  0  0  0  0
   25.4885    8.7766   55.1526 C   0  0  0  0  0  0  0  0  0  0  0  0
   24.4455    9.1991   55.8463 C   0  0  0  0  0  0  0  0  0  0  0  0
   23.0913    9.0293   55.2632 C   0  0  0  0  0  0  0  0  0  0  0  0
   22.1147    8.9584   56.2544 O   0  0  0  0  0  0  0  0  0  0  0  0
   23.0701    7.6996   54.5298 C   0  0  0  0  0  0  0  0  0  0  0  0
   23.4826    6.7219   55.4345 O   0  0  0  0  0  0  0  0  0  0  0  0
   22.2507    8.0634   56.6985 H   0  0  0  0  0  0  0  0  0  0  0  0
   23.7123    5.8612   54.9659 H   0  0  0  0  0  0  0  0  0  0  0  0
   26.8471    8.9388   55.7196 C   0  0  0  0  0  0  0  0  0  0  0  0
   27.7937    8.5551   54.9860 O   0  0  0  0  0  0  0  0  0  0  0  0
   27.1130    9.4799   56.9871 N   0  0  0  0  0  0  0  0  0  0  0  0
   26.3748    9.8119   57.6336 H   0  0  0  0  0  0  0  0  0  0  0  0
   28.4798    9.5966   57.4505 C   0  0  0  0  0  0  0  0  0  0  0  0
   28.6361    8.9226   58.7951 C   0  0  0  0  0  0  0  0  0  0  0  0
   27.7372    7.8895   59.0476 O   0  0  0  0  0  0  0  0  0  0  0  0
   28.2555   10.2450   59.4366 C   0  0  0  0  0  0  0  0  0  0  0  0
   28.9919   10.5446   60.5798 O   0  0  0  0  0  0  0  0  0  0  0  0
   28.7442   10.9285   58.1747 C   0  0  0  0  0  0  0  0  0  0  0  0
   27.9203   11.9582   57.7112 O   0  0  0  0  0  0  0  0  0  0  0  0
   26.9634    8.2934   59.5177 H   0  0  0  0  0  0  0  0  0  0  0  0
   29.1099   11.5228   60.6082 H   0  0  0  0  0  0  0  0  0  0  0  0
   28.0653   12.0235   56.7228 H   0  0  0  0  0  0  0  0  0  0  0  0
   22.3776    8.4101   51.9460 C   0  0  0  0  0  0  0  0  0  0  0  0
   21.9517    7.1305   52.4681 N   0  0  0  0  0  0  0  0  0  0  0  0
   22.8527    6.2239   52.8613 C   0  0  0  0  0  0  0  0  0  0  0  0
   22.4183    5.0171   53.3513 C   0  0  0  0  0  0  0  0  0  0  0  0
   21.0703    4.7548   53.4321 C   0  0  0  0  0  0  0  0  0  0  0  0
   20.6834    3.6257   53.8909 O   0  0  0  0  0  0  0  0  0  0  0  0
   20.1723    5.6718   53.0346 N   0  0  0  0  0  0  0  0  0  0  0  0
   20.6495    6.8355   52.5634 C   0  0  0  0  0  0  0  0  0  0  0  0
   19.7864    7.6929   52.1914 O   0  0  0  0  0  0  0  0  0  0  0  0
   19.1552    5.4449   53.1087 H   0  0  0  0  0  0  0  0  0  0  0  0
   22.0308   10.8946   52.0776 C   0  0  0  0  0  0  0  0  0  0  0  0
   21.7792   11.6257   53.4068 C   0  0  0  0  0  0  0  0  0  0  0  0
   21.1894   12.8577   53.1905 O   0  0  0  0  0  0  0  0  0  0  0  0
   20.7481   10.7228   54.0459 C   0  0  0  0  0  0  0  0  0  0  0  0
   21.2266    9.4795   53.7275 O   0  0  0  0  0  0  0  0  0  0  0  0
   21.4680    9.5481   52.3575 C   0  0  0  0  0  0  0  0  0  0  0  0
   20.2046   12.7955   53.2555 H   0  0  0  0  0  0  0  0  0  0  0  0
   20.6248   10.9275   55.4969 C   0  0  0  0  0  0  0  0  0  0  0  0
   19.5337   10.4643   56.2139 O   0  0  0  0  0  0  0  0  0  0  0  0
   21.5238   11.5369   56.1163 O   0  0  0  0  0  0  0  0  0  0  0  0
   19.5318   10.3891   57.2192 H   0  0  0  0  0  0  0  0  0  0  0  0
   21.7789   12.8214   50.8379 C   0  0  0  0  0  0  0  0  0  0  0  0
   21.2753   11.5561   51.1206 O   0  0  0  0  0  0  0  0  0  0  0  0
 47 48  1  0  0  0
 48 36  1  0  0  0
 36 37  1  0  0  0
 37 38  1  0  0  0
 37 39  1  0  0  0
 39 40  1  0  0  0
 40 41  1  0  0  0
 41 26  1  0  0  0
 26  1  1  0  0  0
  1  2  1  0  0  0
  2  3  1  0  0  0
  3  4  1  0  0  0
  4  5  2  0  0  0
  5  6  1  0  0  0
  6  7  1  0  0  0
  6  8  1  0  0  0
  8  9  1  0  0  0
  4 12  1  0  0  0
 12 13  2  0  0  0
 12 14  1  0  0  0
 14 16  1  0  0  0
 16 17  1  0  0  0
 17 18  1  0  0  0
 17 19  1  0  0  0
 19 20  1  0  0  0
 19 21  1  0  0  0
 21 22  1  0  0  0
 26 27  1  0  0  0
 27 28  1  0  0  0
 28 29  2  0  0  0
 29 30  1  0  0  0
 30 31  2  0  0  0
 30 32  1  0  0  0
 32 33  1  0  0  0
 33 34  2  0  0  0
 39 43  1  0  0  0
 43 44  1  0  0  0
 43 45  2  0  0  0
 41 36  1  0  0  0
  8  2  1  0  0  0
 21 16  1  0  0  0
 33 27  1  0  0  0
 38 42  1  0  0  0
  7 10  1  0  0  0
  9 11  1  0  0  0
 14 15  1  0  0  0
 18 23  1  0  0  0
 20 24  1  0  0  0
 22 25  1  0  0  0
 32 35  1  0  0  0
 44 46  1  0  0  0
M  END
> <minimizedAffinity>
21.57250

> <CNNscore>
0.3159198165

> <CNNaffinity>
5.7685709000

> <CNN_VS>
1.8224058151

> <CNNaffinity_variance>
0.3940626979

$$$$
[H]OC(=O)[C@]1([H])O[C@]([H])([C@@]([H])(O[C@@]2([H])OC(C(=O)N([H])[C@]3([H])[C@]([H])(O[H])[C@@]([H])(O[H])[C@]3([H])O[H])=C([H])[C@]([H])(O[H])[C@]2([H])O[H])n2c([H])c([H])c(=O)n([H])c2=O)[C@@]([H])(OC([H])([H])[H])[C@@]1([H])O[H]


 48 51  0  0  0  0  0  0  0  0999 V2000
   24.2242    8.5881   53.1008 O   0  0  0  0  0  0  0  0  0  0  0  0
   25.3975    7.8459   53.0083 C   0  0  0  0  0  0  0  0  0  0  0  0
   26.2024    8.4221   52.0081 O   0  0  0  0  0  0  0  0  0  0  0  0
   27.3601    9.1276   52.1785 C   0  0  0  0  0  0  0  0  0  0  0  0
   27.6728    9.5689   53.3848 C   0  0  0  0  0  0  0  0  0  0  0  0
   26.7470    9.2771   54.5076 C   0  0  0  0  0  0  0  0  0  0  0  0
   27.4166    9.2613   55.7294 O   0  0  0  0  0  0  0  0  0  0  0  0
   26.1910    7.8802   54.2935 C   0  0  0  0  0  0  0  0  0  0  0  0
   27.2788    7.0201   54.1474 O   0  0  0  0  0  0  0  0  0  0  0  0
   27.9775    8.4236   55.7147 H   0  0  0  0  0  0  0  0  0  0  0  0
   26.9948    6.1279   53.7778 H   0  0  0  0  0  0  0  0  0  0  0  0
   28.2726    9.4105   51.0468 C   0  0  0  0  0  0  0  0  0  0  0  0
   28.9755   10.4472   51.1589 O   0  0  0  0  0  0  0  0  0  0  0  0
   28.3828    8.6051   49.9026 N   0  0  0  0  0  0  0  0  0  0  0  0
   27.8303    7.7412   49.7559 H   0  0  0  0  0  0  0  0  0  0  0  0
   29.3076    8.9688   48.8495 C   0  0  0  0  0  0  0  0  0  0  0  0
   28.6360    9.8930   47.8589 C   0  0  0  0  0  0  0  0  0  0  0  0
   27.5912   10.6556   48.3749 O   0  0  0  0  0  0  0  0  0  0  0  0
   28.1847    8.6573   47.1010 C   0  0  0  0  0  0  0  0  0  0  0  0
   28.2541    8.7935   45.7170 O   0  0  0  0  0  0  0  0  0  0  0  0
   29.3566    7.9228   47.7218 C   0  0  0  0  0  0  0  0  0  0  0  0
   29.0634    6.6346   48.1786 O   0  0  0  0  0  0  0  0  0  0  0  0
   26.7584   10.1411   48.2184 H   0  0  0  0  0  0  0  0  0  0  0  0
   28.4881    7.9117   45.3439 H   0  0  0  0  0  0  0  0  0  0  0  0
   29.7096    6.4340   48.9164 H   0  0  0  0  0  0  0  0  0  0  0  0
   23.5720    8.4630   54.3169 C   0  0  0  0  0  0  0  0  0  0  0  0
   22.6263    9.5545   54.3925 N   0  0  0  0  0  0  0  0  0  0  0  0
   22.1414   10.1110   53.2773 C   0  0  0  0  0  0  0  0  0  0  0  0
   21.2460   11.1467   53.3806 C   0  0  0  0  0  0  0  0  0  0  0  0
   20.8598   11.5983   54.6213 C   0  0  0  0  0  0  0  0  0  0  0  0
   20.0251   12.5639   54.6990 O   0  0  0  0  0  0  0  0  0  0  0  0
   21.3522   11.0330   55.7362 N   0  0  0  0  0  0  0  0  0  0  0  0
   22.2244   10.0237   55.5800 C   0  0  0  0  0  0  0  0  0  0  0  0
   22.6812    9.4993   56.6453 O   0  0  0  0  0  0  0  0  0  0  0  0
   21.0398   11.3963   56.6646 H   0  0  0  0  0  0  0  0  0  0  0  0
   23.5793    6.0323   53.6829 C   0  0  0  0  0  0  0  0  0  0  0  0
   22.3763    5.3486   53.0120 C   0  0  0  0  0  0  0  0  0  0  0  0
   22.4355    3.9760   53.1696 O   0  0  0  0  0  0  0  0  0  0  0  0
   21.2363    5.8650   53.8609 C   0  0  0  0  0  0  0  0  0  0  0  0
   21.5954    7.1734   54.0487 O   0  0  0  0  0  0  0  0  0  0  0  0
   22.9205    7.1054   54.4720 C   0  0  0  0  0  0  0  0  0  0  0  0
   21.9180    3.6874   53.9613 H   0  0  0  0  0  0  0  0  0  0  0  0
   19.9253    5.7256   53.2094 C   0  0  0  0  0  0  0  0  0  0  0  0
   19.4222    6.6947   52.3567 O   0  0  0  0  0  0  0  0  0  0  0  0
   19.2316    4.7074   53.4221 O   0  0  0  0  0  0  0  0  0  0  0  0
   18.6499    6.5253   51.7313 H   0  0  0  0  0  0  0  0  0  0  0  0
   23.7302    5.2278   55.8375 C   0  0  0  0  0  0  0  0  0  0  0  0
   24.1494    5.0838   54.5192 O   0  0  0  0  0  0  0  0  0  0  0  0
 47 48  1  0  0  0
 48 36  1  0  0  0
 36 37  1  0  0  0
 37 38  1  0  0  0
 37 39  1  0  0  0
 39 40  1  0  0  0
 40 41  1  0  0  0
 41 26  1  0  0  0
 26  1  1  0  0  0
  1  2  1  0  0  0
  2  3  1  0  0  0
  3  4  1  0  0  0
  4  5  2  0  0  0
  5  6  1  0  0  0
  6  7  1  0  0  0
  6  8  1  0  0  0
  8  9  1  0  0  0
  4 12  1  0  0  0
 12 13  2  0  0  0
 12 14  1  0  0  0
 14 16  1  0  0  0
 16 17  1  0  0  0
 17 18  1  0  0  0
 17 19  1  0  0  0
 19 20  1  0  0  0
 19 21  1  0  0  0
 21 22  1  0  0  0
 26 27  1  0  0  0
 27 28  1  0  0  0
 28 29  2  0  0  0
 29 30  1  0  0  0
 30 31  2  0  0  0
 30 32  1  0  0  0
 32 33  1  0  0  0
 33 34  2  0  0  0
 39 43  1  0  0  0
 43 44  1  0  0  0
 43 45  2  0  0  0
 41 36  1  0  0  0
  8  2  1  0  0  0
 21 16  1  0  0  0
 33 27  1  0  0  0
 38 42  1  0  0  0
  7 10  1  0  0  0
  9 11  1  0  0  0
 14 15  1  0  0  0
 18 23  1  0  0  0
 20 24  1  0  0  0
 22 25  1  0  0  0
 32 35  1  0  0  0
 44 46  1  0  0  0
M  END
> <minimizedAffinity>
36.29114

> <CNNscore>
0.3130062819

> <CNNaffinity>
5.4536499977

> <CNN_VS>
1.7070267200

> <CNNaffinity_variance>
0.2130354941

$$$$
[H]OC(=O)[C@]1([H])O[C@]([H])([C@@]([H])(O[C@@]2([H])OC(C(=O)N([H])[C@]3([H])[C@]([H])(O[H])[C@@]([H])(O[H])[C@]3([H])O[H])=C([H])[C@]([H])(O[H])[C@]2([H])O[H])n2c([H])c([H])c(=O)n([H])c2=O)[C@@]([H])(OC([H])([H])[H])[C@@]1([H])O[H]


 48 51  0  0  0  0  0  0  0  0999 V2000
   23.8546    8.2952   52.6732 O   0  0  0  0  0  0  0  0  0  0  0  0
   23.1408    7.4273   51.8527 C   0  0  0  0  0  0  0  0  0  0  0  0
   22.4432    6.5225   52.6741 O   0  0  0  0  0  0  0  0  0  0  0  0
   21.0962    6.4743   52.8988 C   0  0  0  0  0  0  0  0  0  0  0  0
   20.3481    7.5057   52.5467 C   0  0  0  0  0  0  0  0  0  0  0  0
   21.0079    8.6778   51.9192 C   0  0  0  0  0  0  0  0  0  0  0  0
   20.1251    9.3847   51.1055 O   0  0  0  0  0  0  0  0  0  0  0  0
   22.1130    8.1552   51.0181 C   0  0  0  0  0  0  0  0  0  0  0  0
   21.5352    7.2302   50.1492 O   0  0  0  0  0  0  0  0  0  0  0  0
   19.9709    8.7935   50.3034 H   0  0  0  0  0  0  0  0  0  0  0  0
   22.2351    6.6782   49.6816 H   0  0  0  0  0  0  0  0  0  0  0  0
   20.4539    5.2968   53.5267 C   0  0  0  0  0  0  0  0  0  0  0  0
   21.2366    4.3990   53.9304 O   0  0  0  0  0  0  0  0  0  0  0  0
   19.0675    5.1456   53.6847 N   0  0  0  0  0  0  0  0  0  0  0  0
   18.3760    5.8509   53.3722 H   0  0  0  0  0  0  0  0  0  0  0  0
   18.5377    3.9539   54.3136 C   0  0  0  0  0  0  0  0  0  0  0  0
   18.4932    2.8138   53.3214 C   0  0  0  0  0  0  0  0  0  0  0  0
   19.4271    2.8888   52.2910 O   0  0  0  0  0  0  0  0  0  0  0  0
   17.1030    3.2840   52.9322 C   0  0  0  0  0  0  0  0  0  0  0  0
   16.2043    2.2450   52.7047 O   0  0  0  0  0  0  0  0  0  0  0  0
   16.9991    3.9181   54.3053 C   0  0  0  0  0  0  0  0  0  0  0  0
   16.4377    5.1982   54.3169 O   0  0  0  0  0  0  0  0  0  0  0  0
   18.9823    3.3533   51.5365 H   0  0  0  0  0  0  0  0  0  0  0  0
   15.3151    2.5530   52.9980 H   0  0  0  0  0  0  0  0  0  0  0  0
   16.8062    5.6697   55.1195 H   0  0  0  0  0  0  0  0  0  0  0  0
   24.0661    7.8137   53.9552 C   0  0  0  0  0  0  0  0  0  0  0  0
   25.4539    8.0717   54.2695 N   0  0  0  0  0  0  0  0  0  0  0  0
   26.4287    7.5480   53.5185 C   0  0  0  0  0  0  0  0  0  0  0  0
   27.7371    7.8093   53.8424 C   0  0  0  0  0  0  0  0  0  0  0  0
   28.0298    8.6014   54.9284 C   0  0  0  0  0  0  0  0  0  0  0  0
   29.2539    8.8344   55.2156 O   0  0  0  0  0  0  0  0  0  0  0  0
   27.0438    9.1232   55.6771 N   0  0  0  0  0  0  0  0  0  0  0  0
   25.7818    8.8372   55.3175 C   0  0  0  0  0  0  0  0  0  0  0  0
   24.8599    9.3389   56.0365 O   0  0  0  0  0  0  0  0  0  0  0  0
   27.2964    9.7219   56.4952 H   0  0  0  0  0  0  0  0  0  0  0  0
   21.8606    7.6474   55.1461 C   0  0  0  0  0  0  0  0  0  0  0  0
   20.7849    8.7423   55.0522 C   0  0  0  0  0  0  0  0  0  0  0  0
   19.8924    8.6512   56.1047 O   0  0  0  0  0  0  0  0  0  0  0  0
   21.6178    9.9880   55.2559 C   0  0  0  0  0  0  0  0  0  0  0  0
   22.7389    9.6999   54.5235 O   0  0  0  0  0  0  0  0  0  0  0  0
   23.1101    8.4287   54.9549 C   0  0  0  0  0  0  0  0  0  0  0  0
   20.1614    9.2431   56.8498 H   0  0  0  0  0  0  0  0  0  0  0  0
   20.9426   11.2121   54.7998 C   0  0  0  0  0  0  0  0  0  0  0  0
   19.8979   11.7823   55.5088 O   0  0  0  0  0  0  0  0  0  0  0  0
   21.3110   11.7665   53.7414 O   0  0  0  0  0  0  0  0  0  0  0  0
   19.5768   12.7241   55.3469 H   0  0  0  0  0  0  0  0  0  0  0  0
   22.2983    5.8489   56.5195 C   0  0  0  0  0  0  0  0  0  0  0  0
   21.7880    7.1401   56.4350 O   0  0  0  0  0  0  0  0  0  0  0  0
 47 48  1  0  0  0
 48 36  1  0  0  0
 36 37  1  0  0  0
 37 38  1  0  0  0
 37 39  1  0  0  0
 39 40  1  0  0  0
 40 41  1  0  0  0
 41 26  1  0  0  0
 26  1  1  0  0  0
  1  2  1  0  0  0
  2  3  1  0  0  0
  3  4  1  0  0  0
  4  5  2  0  0  0
  5  6  1  0  0  0
  6  7  1  0  0  0
  6  8  1  0  0  0
  8  9  1  0  0  0
  4 12  1  0  0  0
 12 13  2  0  0  0
 12 14  1  0  0  0
 14 16  1  0  0  0
 16 17  1  0  0  0
 17 18  1  0  0  0
 17 19  1  0  0  0
 19 20  1  0  0  0
 19 21  1  0  0  0
 21 22  1  0  0  0
 26 27  1  0  0  0
 27 28  1  0  0  0
 28 29  2  0  0  0
 29 30  1  0  0  0
 30 31  2  0  0  0
 30 32  1  0  0  0
 32 33  1  0  0  0
 33 34  2  0  0  0
 39 43  1  0  0  0
 43 44  1  0  0  0
 43 45  2  0  0  0
 41 36  1  0  0  0
  8  2  1  0  0  0
 21 16  1  0  0  0
 33 27  1  0  0  0
 38 42  1  0  0  0
  7 10  1  0  0  0
  9 11  1  0  0  0
 14 15  1  0  0  0
 18 23  1  0  0  0
 20 24  1  0  0  0
 22 25  1  0  0  0
 32 35  1  0  0  0
 44 46  1  0  0  0
M  END
> <minimizedAffinity>
25.42471

> <CNNscore>
0.3115291595

> <CNNaffinity>
5.7779488564

> <CNN_VS>
1.7999995947

> <CNNaffinity_variance>
0.5244309306

$$$$
[H]OC(=O)[C@]1([H])O[C@]([H])([C@@]([H])(O[C@@]2([H])OC(C(=O)N([H])[C@]3([H])[C@]([H])(O[H])[C@@]([H])(O[H])[C@]3([H])O[H])=C([H])[C@]([H])(O[H])[C@]2([H])O[H])n2c([H])c([H])c(=O)n([H])c2=O)[C@@]([H])(OC([H])([H])[H])[C@@]1([H])O[H]


 48 51  0  0  0  0  0  0  0  0999 V2000
   23.0062    9.0481   55.1097 O   0  0  0  0  0  0  0  0  0  0  0  0
   24.0893    9.3706   54.2979 C   0  0  0  0  0  0  0  0  0  0  0  0
   25.1809    9.6844   55.1286 O   0  0  0  0  0  0  0  0  0  0  0  0
   26.3099    8.9419   55.3312 C   0  0  0  0  0  0  0  0  0  0  0  0
   26.3275    7.6787   54.9419 C   0  0  0  0  0  0  0  0  0  0  0  0
   25.1129    7.1191   54.2981 C   0  0  0  0  0  0  0  0  0  0  0  0
   25.4273    6.0570   53.4528 O   0  0  0  0  0  0  0  0  0  0  0  0
   24.5101    8.2087   53.4288 C   0  0  0  0  0  0  0  0  0  0  0  0
   25.5149    8.6575   52.5723 O   0  0  0  0  0  0  0  0  0  0  0  0
   25.8935    6.4750   52.6624 H   0  0  0  0  0  0  0  0  0  0  0  0
   25.2604    9.5252   52.1301 H   0  0  0  0  0  0  0  0  0  0  0  0
   27.5134    9.5160   55.9758 C   0  0  0  0  0  0  0  0  0  0  0  0
   28.5039    9.6937   55.2215 O   0  0  0  0  0  0  0  0  0  0  0  0
   27.5932    9.8567   57.3350 N   0  0  0  0  0  0  0  0  0  0  0  0
   26.8107    9.7329   58.0026 H   0  0  0  0  0  0  0  0  0  0  0  0
   28.8181   10.4138   57.8695 C   0  0  0  0  0  0  0  0  0  0  0  0
   28.8798   10.2036   59.3657 C   0  0  0  0  0  0  0  0  0  0  0  0
   28.1669    9.1051   59.8391 O   0  0  0  0  0  0  0  0  0  0  0  0
   28.1532   11.5275   59.5227 C   0  0  0  0  0  0  0  0  0  0  0  0
   28.6222   12.3009   60.5813 O   0  0  0  0  0  0  0  0  0  0  0  0
   28.7006   11.9197   58.1644 C   0  0  0  0  0  0  0  0  0  0  0  0
   27.7810   12.5554   57.3251 O   0  0  0  0  0  0  0  0  0  0  0  0
   27.2640    9.4345   60.0823 H   0  0  0  0  0  0  0  0  0  0  0  0
   28.5441   13.2466   60.3146 H   0  0  0  0  0  0  0  0  0  0  0  0
   28.0698   12.3699   56.3846 H   0  0  0  0  0  0  0  0  0  0  0  0
   21.8112    8.9013   54.4237 C   0  0  0  0  0  0  0  0  0  0  0  0
   21.6838   10.0572   53.5640 N   0  0  0  0  0  0  0  0  0  0  0  0
   21.7887    9.9309   52.2368 C   0  0  0  0  0  0  0  0  0  0  0  0
   21.6648   11.0467   51.4463 C   0  0  0  0  0  0  0  0  0  0  0  0
   21.4358   12.2742   52.0235 C   0  0  0  0  0  0  0  0  0  0  0  0
   21.3231   13.3028   51.2722 O   0  0  0  0  0  0  0  0  0  0  0  0
   21.3319   12.3914   53.3579 N   0  0  0  0  0  0  0  0  0  0  0  0
   21.4606   11.2698   54.0853 C   0  0  0  0  0  0  0  0  0  0  0  0
   21.3596   11.3977   55.3471 O   0  0  0  0  0  0  0  0  0  0  0  0
   21.1568   13.3363   53.7678 H   0  0  0  0  0  0  0  0  0  0  0  0
   20.5200    6.8039   53.9298 C   0  0  0  0  0  0  0  0  0  0  0  0
   21.0919    5.4000   54.1882 C   0  0  0  0  0  0  0  0  0  0  0  0
   20.4169    4.4464   53.4481 O   0  0  0  0  0  0  0  0  0  0  0  0
   22.4816    5.5398   53.6087 C   0  0  0  0  0  0  0  0  0  0  0  0
   22.8357    6.7955   54.0261 O   0  0  0  0  0  0  0  0  0  0  0  0
   21.7516    7.5923   53.6658 C   0  0  0  0  0  0  0  0  0  0  0  0
   20.8782    4.2710   52.5911 H   0  0  0  0  0  0  0  0  0  0  0  0
   23.4097    4.5027   54.0837 C   0  0  0  0  0  0  0  0  0  0  0  0
   24.0481    3.6341   53.2136 O   0  0  0  0  0  0  0  0  0  0  0  0
   23.6393    4.3885   55.3074 O   0  0  0  0  0  0  0  0  0  0  0  0
   24.8454    3.0786   53.4822 H   0  0  0  0  0  0  0  0  0  0  0  0
   20.1809    7.5574   51.7781 C   0  0  0  0  0  0  0  0  0  0  0  0
   19.7435    6.7031   52.7848 O   0  0  0  0  0  0  0  0  0  0  0  0
 47 48  1  0  0  0
 48 36  1  0  0  0
 36 37  1  0  0  0
 37 38  1  0  0  0
 37 39  1  0  0  0
 39 40  1  0  0  0
 40 41  1  0  0  0
 41 26  1  0  0  0
 26  1  1  0  0  0
  1  2  1  0  0  0
  2  3  1  0  0  0
  3  4  1  0  0  0
  4  5  2  0  0  0
  5  6  1  0  0  0
  6  7  1  0  0  0
  6  8  1  0  0  0
  8  9  1  0  0  0
  4 12  1  0  0  0
 12 13  2  0  0  0
 12 14  1  0  0  0
 14 16  1  0  0  0
 16 17  1  0  0  0
 17 18  1  0  0  0
 17 19  1  0  0  0
 19 20  1  0  0  0
 19 21  1  0  0  0
 21 22  1  0  0  0
 26 27  1  0  0  0
 27 28  1  0  0  0
 28 29  2  0  0  0
 29 30  1  0  0  0
 30 31  2  0  0  0
 30 32  1  0  0  0
 32 33  1  0  0  0
 33 34  2  0  0  0
 39 43  1  0  0  0
 43 44  1  0  0  0
 43 45  2  0  0  0
 41 36  1  0  0  0
  8  2  1  0  0  0
 21 16  1  0  0  0
 33 27  1  0  0  0
 38 42  1  0  0  0
  7 10  1  0  0  0
  9 11  1  0  0  0
 14 15  1  0  0  0
 18 23  1  0  0  0
 20 24  1  0  0  0
 22 25  1  0  0  0
 32 35  1  0  0  0
 44 46  1  0  0  0
M  END
> <minimizedAffinity>
20.05999

> <CNNscore>
0.3091792762

> <CNNaffinity>
5.6936960220

> <CNN_VS>
1.7603727579

> <CNNaffinity_variance>
0.4998939037

$$$$
[H]OC(=O)[C@]1([H])O[C@]([H])([C@@]([H])(O[C@@]2([H])OC(C(=O)N([H])[C@]3([H])[C@]([H])(O[H])[C@@]([H])(O[H])[C@]3([H])O[H])=C([H])[C@]([H])(O[H])[C@]2([H])O[H])n2c([H])c([H])c(=O)n([H])c2=O)[C@@]([H])(OC([H])([H])[H])[C@@]1([H])O[H]


 48 51  0  0  0  0  0  0  0  0999 V2000
   24.1355    7.5620   52.6292 O   0  0  0  0  0  0  0  0  0  0  0  0
   24.2871    7.2274   53.9712 C   0  0  0  0  0  0  0  0  0  0  0  0
   25.5678    7.6396   54.3833 O   0  0  0  0  0  0  0  0  0  0  0  0
   25.8775    8.6768   55.2172 C   0  0  0  0  0  0  0  0  0  0  0  0
   24.9513    9.5790   55.4930 C   0  0  0  0  0  0  0  0  0  0  0  0
   23.6080    9.4248   54.8809 C   0  0  0  0  0  0  0  0  0  0  0  0
   22.6224   10.0347   55.6542 O   0  0  0  0  0  0  0  0  0  0  0  0
   23.2853    7.9412   54.8485 C   0  0  0  0  0  0  0  0  0  0  0  0
   23.4338    7.4573   56.1479 O   0  0  0  0  0  0  0  0  0  0  0  0
   22.5318    9.4558   56.4748 H   0  0  0  0  0  0  0  0  0  0  0  0
   23.4611    6.4512   56.1644 H   0  0  0  0  0  0  0  0  0  0  0  0
   27.2234    8.8159   55.8193 C   0  0  0  0  0  0  0  0  0  0  0  0
   28.1904    8.5471   55.0614 O   0  0  0  0  0  0  0  0  0  0  0  0
   27.4572    9.2183   57.1434 N   0  0  0  0  0  0  0  0  0  0  0  0
   26.7012    9.4521   57.8120 H   0  0  0  0  0  0  0  0  0  0  0  0
   28.8140    9.3242   57.6375 C   0  0  0  0  0  0  0  0  0  0  0  0
   28.8815    8.8809   59.0816 C   0  0  0  0  0  0  0  0  0  0  0  0
   27.9046    7.9660   59.4664 O   0  0  0  0  0  0  0  0  0  0  0  0
   28.5757   10.3151   59.4752 C   0  0  0  0  0  0  0  0  0  0  0  0
   29.2963   10.7573   60.5815 O   0  0  0  0  0  0  0  0  0  0  0  0
   29.1496   10.7403   58.1379 C   0  0  0  0  0  0  0  0  0  0  0  0
   28.4148   11.7267   57.4737 O   0  0  0  0  0  0  0  0  0  0  0  0
   27.1474    8.4932   59.8290 H   0  0  0  0  0  0  0  0  0  0  0  0
   29.4820   11.7164   60.4500 H   0  0  0  0  0  0  0  0  0  0  0  0
   28.5940   11.6129   56.4953 H   0  0  0  0  0  0  0  0  0  0  0  0
   22.8581    7.9806   52.2929 C   0  0  0  0  0  0  0  0  0  0  0  0
   21.9530    6.9455   52.7412 N   0  0  0  0  0  0  0  0  0  0  0  0
   22.3633    6.0140   53.6088 C   0  0  0  0  0  0  0  0  0  0  0  0
   21.4818    5.0429   54.0150 C   0  0  0  0  0  0  0  0  0  0  0  0
   20.1950    5.0379   53.5289 C   0  0  0  0  0  0  0  0  0  0  0  0
   19.3873    4.1260   53.9179 O   0  0  0  0  0  0  0  0  0  0  0  0
   19.7917    5.9778   52.6576 N   0  0  0  0  0  0  0  0  0  0  0  0
   20.6925    6.9047   52.2926 C   0  0  0  0  0  0  0  0  0  0  0  0
   20.2950    7.7874   51.4672 O   0  0  0  0  0  0  0  0  0  0  0  0
   18.8082    5.9493   52.3063 H   0  0  0  0  0  0  0  0  0  0  0  0
   21.1699    9.4349   53.4527 C   0  0  0  0  0  0  0  0  0  0  0  0
   20.6642   10.7567   52.8512 C   0  0  0  0  0  0  0  0  0  0  0  0
   20.1171   11.5682   53.8284 O   0  0  0  0  0  0  0  0  0  0  0  0
   21.9621   11.3864   52.3975 C   0  0  0  0  0  0  0  0  0  0  0  0
   22.6323   10.3091   51.8814 O   0  0  0  0  0  0  0  0  0  0  0  0
   22.5364    9.3397   52.8769 C   0  0  0  0  0  0  0  0  0  0  0  0
   20.7891   12.2033   54.1789 H   0  0  0  0  0  0  0  0  0  0  0  0
   21.7668   12.4580   51.4096 C   0  0  0  0  0  0  0  0  0  0  0  0
   21.1933   12.2196   50.1712 O   0  0  0  0  0  0  0  0  0  0  0  0
   22.1247   13.6249   51.6806 O   0  0  0  0  0  0  0  0  0  0  0  0
   20.8446   12.9571   49.5788 H   0  0  0  0  0  0  0  0  0  0  0  0
   20.3274    8.8116   55.5056 C   0  0  0  0  0  0  0  0  0  0  0  0
   21.2249    9.6279   54.8252 O   0  0  0  0  0  0  0  0  0  0  0  0
 47 48  1  0  0  0
 48 36  1  0  0  0
 36 37  1  0  0  0
 37 38  1  0  0  0
 37 39  1  0  0  0
 39 40  1  0  0  0
 40 41  1  0  0  0
 41 26  1  0  0  0
 26  1  1  0  0  0
  1  2  1  0  0  0
  2  3  1  0  0  0
  3  4  1  0  0  0
  4  5  2  0  0  0
  5  6  1  0  0  0
  6  7  1  0  0  0
  6  8  1  0  0  0
  8  9  1  0  0  0
  4 12  1  0  0  0
 12 13  2  0  0  0
 12 14  1  0  0  0
 14 16  1  0  0  0
 16 17  1  0  0  0
 17 18  1  0  0  0
 17 19  1  0  0  0
 19 20  1  0  0  0
 19 21  1  0  0  0
 21 22  1  0  0  0
 26 27  1  0  0  0
 27 28  1  0  0  0
 28 29  2  0  0  0
 29 30  1  0  0  0
 30 31  2  0  0  0
 30 32  1  0  0  0
 32 33  1  0  0  0
 33 34  2  0  0  0
 39 43  1  0  0  0
 43 44  1  0  0  0
 43 45  2  0  0  0
 41 36  1  0  0  0
  8  2  1  0  0  0
 21 16  1  0  0  0
 33 27  1  0  0  0
 38 42  1  0  0  0
  7 10  1  0  0  0
  9 11  1  0  0  0
 14 15  1  0  0  0
 18 23  1  0  0  0
 20 24  1  0  0  0
 22 25  1  0  0  0
 32 35  1  0  0  0
 44 46  1  0  0  0
M  END
> <minimizedAffinity>
20.76787

> <CNNscore>
0.2921777964

> <CNNaffinity>
5.5591096878

> <CNN_VS>
1.6242483854

> <CNNaffinity_variance>
0.9560071826

$$$$
[H]OC(=O)[C@]1([H])O[C@]([H])([C@@]([H])(O[C@@]2([H])OC(C(=O)N([H])[C@]3([H])[C@]([H])(O[H])[C@@]([H])(O[H])[C@]3([H])O[H])=C([H])[C@]([H])(O[H])[C@]2([H])O[H])n2c([H])c([H])c(=O)n([H])c2=O)[C@@]([H])(OC([H])([H])[H])[C@@]1([H])O[H]


 48 51  0  0  0  0  0  0  0  0999 V2000
   23.8192    6.9923   54.3611 O   0  0  0  0  0  0  0  0  0  0  0  0
   23.5138    6.1250   53.3168 C   0  0  0  0  0  0  0  0  0  0  0  0
   22.3893    5.3668   53.6918 O   0  0  0  0  0  0  0  0  0  0  0  0
   21.1194    5.4654   53.1971 C   0  0  0  0  0  0  0  0  0  0  0  0
   20.7883    6.5266   52.4817 C   0  0  0  0  0  0  0  0  0  0  0  0
   21.8166    7.5707   52.2461 C   0  0  0  0  0  0  0  0  0  0  0  0
   21.5624    8.2815   51.0750 O   0  0  0  0  0  0  0  0  0  0  0  0
   23.1490    6.8682   52.0530 C   0  0  0  0  0  0  0  0  0  0  0  0
   22.9771    5.9272   51.0383 O   0  0  0  0  0  0  0  0  0  0  0  0
   21.7607    7.6378   50.3246 H   0  0  0  0  0  0  0  0  0  0  0  0
   23.7411    5.2724   51.0110 H   0  0  0  0  0  0  0  0  0  0  0  0
   20.1052    4.4143   53.4421 C   0  0  0  0  0  0  0  0  0  0  0  0
   20.4911    3.2311   53.2608 O   0  0  0  0  0  0  0  0  0  0  0  0
   18.7872    4.6703   53.8512 N   0  0  0  0  0  0  0  0  0  0  0  0
   18.4143    5.6227   54.0159 H   0  0  0  0  0  0  0  0  0  0  0  0
   17.8705    3.5702   54.0650 C   0  0  0  0  0  0  0  0  0  0  0  0
   16.5008    4.0941   54.4338 C   0  0  0  0  0  0  0  0  0  0  0  0
   16.2049    5.3674   53.9538 O   0  0  0  0  0  0  0  0  0  0  0  0
   16.9458    4.0676   55.8851 C   0  0  0  0  0  0  0  0  0  0  0  0
   15.9580    3.6336   56.7653 O   0  0  0  0  0  0  0  0  0  0  0  0
   17.9529    3.0041   55.4937 C   0  0  0  0  0  0  0  0  0  0  0  0
   19.2221    3.1656   56.0569 O   0  0  0  0  0  0  0  0  0  0  0  0
   16.4667    6.0077   54.6641 H   0  0  0  0  0  0  0  0  0  0  0  0
   16.4049    3.1401   57.4921 H   0  0  0  0  0  0  0  0  0  0  0  0
   19.8738    2.7307   55.4336 H   0  0  0  0  0  0  0  0  0  0  0  0
   24.0058    8.3072   53.9661 C   0  0  0  0  0  0  0  0  0  0  0  0
   23.0016    9.0907   54.6513 N   0  0  0  0  0  0  0  0  0  0  0  0
   22.8126    8.9501   55.9677 C   0  0  0  0  0  0  0  0  0  0  0  0
   21.8508    9.7065   56.5905 C   0  0  0  0  0  0  0  0  0  0  0  0
   21.0967   10.5947   55.8592 C   0  0  0  0  0  0  0  0  0  0  0  0
   20.2052   11.2912   56.4553 O   0  0  0  0  0  0  0  0  0  0  0  0
   21.2938   10.7292   54.5369 N   0  0  0  0  0  0  0  0  0  0  0  0
   22.2466    9.9663   53.9767 C   0  0  0  0  0  0  0  0  0  0  0  0
   22.4208   10.1056   52.7242 O   0  0  0  0  0  0  0  0  0  0  0  0
   20.7067   11.4125   54.0078 H   0  0  0  0  0  0  0  0  0  0  0  0
   26.4511    7.7375   54.0426 C   0  0  0  0  0  0  0  0  0  0  0  0
   27.2946    7.8813   55.3203 C   0  0  0  0  0  0  0  0  0  0  0  0
   28.6428    7.9458   55.0190 O   0  0  0  0  0  0  0  0  0  0  0  0
   26.8609    9.2468   55.8043 C   0  0  0  0  0  0  0  0  0  0  0  0
   25.5134    9.2169   55.5604 O   0  0  0  0  0  0  0  0  0  0  0  0
   25.4158    8.7851   54.2398 C   0  0  0  0  0  0  0  0  0  0  0  0
   28.9440    8.8844   54.9405 H   0  0  0  0  0  0  0  0  0  0  0  0
   27.1746    9.4808   57.2217 C   0  0  0  0  0  0  0  0  0  0  0  0
   26.7282    8.6331   58.2224 O   0  0  0  0  0  0  0  0  0  0  0  0
   27.8638   10.4711   57.5496 O   0  0  0  0  0  0  0  0  0  0  0  0
   27.1106    8.6390   59.1552 H   0  0  0  0  0  0  0  0  0  0  0  0
   26.7828    9.1096   52.2205 C   0  0  0  0  0  0  0  0  0  0  0  0
   27.2878    8.0633   52.9852 O   0  0  0  0  0  0  0  0  0  0  0  0
 47 48  1  0  0  0
 48 36  1  0  0  0
 36 37  1  0  0  0
 37 38  1  0  0  0
 37 39  1  0  0  0
 39 40  1  0  0  0
 40 41  1  0  0  0
 41 26  1  0  0  0
 26  1  1  0  0  0
  1  2  1  0  0  0
  2  3  1  0  0  0
  3  4  1  0  0  0
  4  5  2  0  0  0
  5  6  1  0  0  0
  6  7  1  0  0  0
  6  8  1  0  0  0
  8  9  1  0  0  0
  4 12  1  0  0  0
 12 13  2  0  0  0
 12 14  1  0  0  0
 14 16  1  0  0  0
 16 17  1  0  0  0
 17 18  1  0  0  0
 17 19  1  0  0  0
 19 20  1  0  0  0
 19 21  1  0  0  0
 21 22  1  0  0  0
 26 27  1  0  0  0
 27 28  1  0  0  0
 28 29  2  0  0  0
 29 30  1  0  0  0
 30 31  2  0  0  0
 30 32  1  0  0  0
 32 33  1  0  0  0
 33 34  2  0  0  0
 39 43  1  0  0  0
 43 44  1  0  0  0
 43 45  2  0  0  0
 41 36  1  0  0  0
  8  2  1  0  0  0
 21 16  1  0  0  0
 33 27  1  0  0  0
 38 42  1  0  0  0
  7 10  1  0  0  0
  9 11  1  0  0  0
 14 15  1  0  0  0
 18 23  1  0  0  0
 20 24  1  0  0  0
 22 25  1  0  0  0
 32 35  1  0  0  0
 44 46  1  0  0  0
M  END
> <minimizedAffinity>
29.80707

> <CNNscore>
0.2872774005

> <CNNaffinity>
5.6956667900

> <CNN_VS>
1.6362363100

> <CNNaffinity_variance>
0.7588585615

$$$$
[H]OC(=O)[C@]1([H])O[C@]([H])([C@@]([H])(O[C@@]2([H])OC(C(=O)N([H])[C@]3([H])[C@]([H])(O[H])[C@@]([H])(O[H])[C@]3([H])O[H])=C([H])[C@]([H])(O[H])[C@]2([H])O[H])n2c([H])c([H])c(=O)n([H])c2=O)[C@@]([H])(OC([H])([H])[H])[C@@]1([H])O[H]


 48 51  0  0  0  0  0  0  0  0999 V2000
   21.9995    9.6903   54.6995 O   0  0  0  0  0  0  0  0  0  0  0  0
   21.2983    8.7732   55.4762 C   0  0  0  0  0  0  0  0  0  0  0  0
   20.4757    8.0150   54.6228 O   0  0  0  0  0  0  0  0  0  0  0  0
   20.6307    6.7042   54.2695 C   0  0  0  0  0  0  0  0  0  0  0  0
   21.7842    6.1051   54.5107 C   0  0  0  0  0  0  0  0  0  0  0  0
   22.8667    6.8874   55.1583 C   0  0  0  0  0  0  0  0  0  0  0  0
   23.7448    6.0613   55.8568 O   0  0  0  0  0  0  0  0  0  0  0  0
   22.2211    7.8063   56.1806 C   0  0  0  0  0  0  0  0  0  0  0  0
   21.4444    7.0092   57.0208 O   0  0  0  0  0  0  0  0  0  0  0  0
   23.2266    5.7409   56.6602 H   0  0  0  0  0  0  0  0  0  0  0  0
   20.8125    7.5646   57.5734 H   0  0  0  0  0  0  0  0  0  0  0  0
   19.5401    5.9382   53.6235 C   0  0  0  0  0  0  0  0  0  0  0  0
   19.2471    6.2889   52.4518 O   0  0  0  0  0  0  0  0  0  0  0  0
   18.8484    4.8818   54.2361 N   0  0  0  0  0  0  0  0  0  0  0  0
   19.0462    4.5499   55.1974 H   0  0  0  0  0  0  0  0  0  0  0  0
   17.7958    4.1945   53.5177 C   0  0  0  0  0  0  0  0  0  0  0  0
   16.4792    4.9150   53.7022 C   0  0  0  0  0  0  0  0  0  0  0  0
   16.5822    6.2794   53.9613 O   0  0  0  0  0  0  0  0  0  0  0  0
   16.2545    4.0651   54.9401 C   0  0  0  0  0  0  0  0  0  0  0  0
   14.9388    3.6351   55.0920 O   0  0  0  0  0  0  0  0  0  0  0  0
   17.1871    3.0375   54.3297 C   0  0  0  0  0  0  0  0  0  0  0  0
   18.1034    2.4759   55.2237 O   0  0  0  0  0  0  0  0  0  0  0  0
   16.5951    6.3821   54.9473 H   0  0  0  0  0  0  0  0  0  0  0  0
   14.9655    2.7412   55.5065 H   0  0  0  0  0  0  0  0  0  0  0  0
   18.8973    2.1905   54.6847 H   0  0  0  0  0  0  0  0  0  0  0  0
   21.8218    9.5264   53.3351 C   0  0  0  0  0  0  0  0  0  0  0  0
   21.5955   10.8453   52.7868 N   0  0  0  0  0  0  0  0  0  0  0  0
   21.7549   11.0732   51.4786 C   0  0  0  0  0  0  0  0  0  0  0  0
   21.5343   12.3361   50.9874 C   0  0  0  0  0  0  0  0  0  0  0  0
   21.1545   13.3470   51.8396 C   0  0  0  0  0  0  0  0  0  0  0  0
   20.9533   14.5172   51.3650 O   0  0  0  0  0  0  0  0  0  0  0  0
   20.9968   13.1086   53.1524 N   0  0  0  0  0  0  0  0  0  0  0  0
   21.2248   11.8566   53.5816 C   0  0  0  0  0  0  0  0  0  0  0  0
   21.0711   11.6475   54.8271 O   0  0  0  0  0  0  0  0  0  0  0  0
   20.7066   13.8956   53.7753 H   0  0  0  0  0  0  0  0  0  0  0  0
   22.8261    7.3389   52.6161 C   0  0  0  0  0  0  0  0  0  0  0  0
   24.1816    6.8382   53.1420 C   0  0  0  0  0  0  0  0  0  0  0  0
   24.7167    5.8810   52.2994 O   0  0  0  0  0  0  0  0  0  0  0  0
   25.0228    8.0888   53.0179 C   0  0  0  0  0  0  0  0  0  0  0  0
   24.1486    9.0584   53.4324 O   0  0  0  0  0  0  0  0  0  0  0  0
   22.9933    8.8134   52.6940 C   0  0  0  0  0  0  0  0  0  0  0  0
   25.3347    6.2904   51.6450 H   0  0  0  0  0  0  0  0  0  0  0  0
   26.2454    8.0426   53.8337 C   0  0  0  0  0  0  0  0  0  0  0  0
   27.4422    8.5850   53.3946 O   0  0  0  0  0  0  0  0  0  0  0  0
   26.2201    7.5001   54.9598 O   0  0  0  0  0  0  0  0  0  0  0  0
   28.2185    8.7685   54.0112 H   0  0  0  0  0  0  0  0  0  0  0  0
   21.6364    7.4578   50.6456 C   0  0  0  0  0  0  0  0  0  0  0  0
   22.7422    6.9208   51.2962 O   0  0  0  0  0  0  0  0  0  0  0  0
 47 48  1  0  0  0
 48 36  1  0  0  0
 36 37  1  0  0  0
 37 38  1  0  0  0
 37 39  1  0  0  0
 39 40  1  0  0  0
 40 41  1  0  0  0
 41 26  1  0  0  0
 26  1  1  0  0  0
  1  2  1  0  0  0
  2  3  1  0  0  0
  3  4  1  0  0  0
  4  5  2  0  0  0
  5  6  1  0  0  0
  6  7  1  0  0  0
  6  8  1  0  0  0
  8  9  1  0  0  0
  4 12  1  0  0  0
 12 13  2  0  0  0
 12 14  1  0  0  0
 14 16  1  0  0  0
 16 17  1  0  0  0
 17 18  1  0  0  0
 17 19  1  0  0  0
 19 20  1  0  0  0
 19 21  1  0  0  0
 21 22  1  0  0  0
 26 27  1  0  0  0
 27 28  1  0  0  0
 28 29  2  0  0  0
 29 30  1  0  0  0
 30 31  2  0  0  0
 30 32  1  0  0  0
 32 33  1  0  0  0
 33 34  2  0  0  0
 39 43  1  0  0  0
 43 44  1  0  0  0
 43 45  2  0  0  0
 41 36  1  0  0  0
  8  2  1  0  0  0
 21 16  1  0  0  0
 33 27  1  0  0  0
 38 42  1  0  0  0
  7 10  1  0  0  0
  9 11  1  0  0  0
 14 15  1  0  0  0
 18 23  1  0  0  0
 20 24  1  0  0  0
 22 25  1  0  0  0
 32 35  1  0  0  0
 44 46  1  0  0  0
M  END
> <minimizedAffinity>
33.52280

> <CNNscore>
0.2856118679

> <CNNaffinity>
5.6364741325

> <CNN_VS>
1.6098438501

> <CNNaffinity_variance>
0.2811501622

$$$$
[H]OC(=O)[C@]1([H])O[C@]([H])([C@@]([H])(O[C@@]2([H])OC(C(=O)N([H])[C@]3([H])[C@]([H])(O[H])[C@@]([H])(O[H])[C@]3([H])O[H])=C([H])[C@]([H])(O[H])[C@]2([H])O[H])n2c([H])c([H])c(=O)n([H])c2=O)[C@@]([H])(OC([H])([H])[H])[C@@]1([H])O[H]


 48 51  0  0  0  0  0  0  0  0999 V2000
   23.7693    6.5611   54.3565 O   0  0  0  0  0  0  0  0  0  0  0  0
   23.2245    6.0665   53.1755 C   0  0  0  0  0  0  0  0  0  0  0  0
   22.1169    5.2644   53.5065 O   0  0  0  0  0  0  0  0  0  0  0  0
   20.7959    5.5487   53.3033 C   0  0  0  0  0  0  0  0  0  0  0  0
   20.4427    6.7881   53.0084 C   0  0  0  0  0  0  0  0  0  0  0  0
   21.5028    7.8223   52.9106 C   0  0  0  0  0  0  0  0  0  0  0  0
   21.1207    8.8660   52.0704 O   0  0  0  0  0  0  0  0  0  0  0  0
   22.7213    7.1730   52.2782 C   0  0  0  0  0  0  0  0  0  0  0  0
   22.3063    6.5952   51.0788 O   0  0  0  0  0  0  0  0  0  0  0  0
   21.1381    8.4785   51.1397 H   0  0  0  0  0  0  0  0  0  0  0  0
   22.9974    5.9576   50.7196 H   0  0  0  0  0  0  0  0  0  0  0  0
   19.7506    4.5045   53.4053 C   0  0  0  0  0  0  0  0  0  0  0  0
   20.0862    3.3569   53.0156 O   0  0  0  0  0  0  0  0  0  0  0  0
   18.4559    4.7303   53.8979 N   0  0  0  0  0  0  0  0  0  0  0  0
   18.1240    5.6530   54.2323 H   0  0  0  0  0  0  0  0  0  0  0  0
   17.5051    3.6399   53.9574 C   0  0  0  0  0  0  0  0  0  0  0  0
   16.1415    4.1556   54.3589 C   0  0  0  0  0  0  0  0  0  0  0  0
   15.8915    5.4858   54.0313 O   0  0  0  0  0  0  0  0  0  0  0  0
   16.5507    3.9407   55.8052 C   0  0  0  0  0  0  0  0  0  0  0  0
   15.5308    3.4328   56.6055 O   0  0  0  0  0  0  0  0  0  0  0  0
   17.5381    2.9032   55.3081 C   0  0  0  0  0  0  0  0  0  0  0  0
   18.7972    2.9578   55.9128 O   0  0  0  0  0  0  0  0  0  0  0  0
   16.1531    6.0275   54.8193 H   0  0  0  0  0  0  0  0  0  0  0  0
   15.9468    2.8420   57.2760 H   0  0  0  0  0  0  0  0  0  0  0  0
   19.4519    2.5825   55.2548 H   0  0  0  0  0  0  0  0  0  0  0  0
   24.2962    7.8376   54.2435 C   0  0  0  0  0  0  0  0  0  0  0  0
   23.2569    8.7519   54.6622 N   0  0  0  0  0  0  0  0  0  0  0  0
   23.1864    9.9828   54.1441 C   0  0  0  0  0  0  0  0  0  0  0  0
   22.1893   10.8291   54.5623 C   0  0  0  0  0  0  0  0  0  0  0  0
   21.2797   10.4052   55.5033 C   0  0  0  0  0  0  0  0  0  0  0  0
   20.3577   11.2065   55.8813 O   0  0  0  0  0  0  0  0  0  0  0  0
   21.3584    9.1667   56.0181 N   0  0  0  0  0  0  0  0  0  0  0  0
   22.3519    8.3789   55.5753 C   0  0  0  0  0  0  0  0  0  0  0  0
   22.4125    7.2095   56.0726 O   0  0  0  0  0  0  0  0  0  0  0  0
   20.6530    8.8723   56.7304 H   0  0  0  0  0  0  0  0  0  0  0  0
   25.9837    9.4078   55.2421 C   0  0  0  0  0  0  0  0  0  0  0  0
   27.4757    9.3630   54.8728 C   0  0  0  0  0  0  0  0  0  0  0  0
   28.2445    9.9825   55.8412 O   0  0  0  0  0  0  0  0  0  0  0  0
   27.7492    7.8773   54.9426 C   0  0  0  0  0  0  0  0  0  0  0  0
   26.6187    7.3558   54.3715 O   0  0  0  0  0  0  0  0  0  0  0  0
   25.5752    7.9937   55.0381 C   0  0  0  0  0  0  0  0  0  0  0  0
   28.5813    9.3262   56.4998 H   0  0  0  0  0  0  0  0  0  0  0  0
   28.9753    7.4843   54.2321 C   0  0  0  0  0  0  0  0  0  0  0  0
   28.9989    6.4263   53.3381 O   0  0  0  0  0  0  0  0  0  0  0  0
   30.0368    8.1143   54.4309 O   0  0  0  0  0  0  0  0  0  0  0  0
   29.7490    6.2831   52.6798 H   0  0  0  0  0  0  0  0  0  0  0  0
   26.9619    9.1791   57.3166 C   0  0  0  0  0  0  0  0  0  0  0  0
   25.9254    9.7495   56.5852 O   0  0  0  0  0  0  0  0  0  0  0  0
 47 48  1  0  0  0
 48 36  1  0  0  0
 36 37  1  0  0  0
 37 38  1  0  0  0
 37 39  1  0  0  0
 39 40  1  0  0  0
 40 41  1  0  0  0
 41 26  1  0  0  0
 26  1  1  0  0  0
  1  2  1  0  0  0
  2  3  1  0  0  0
  3  4  1  0  0  0
  4  5  2  0  0  0
  5  6  1  0  0  0
  6  7  1  0  0  0
  6  8  1  0  0  0
  8  9  1  0  0  0
  4 12  1  0  0  0
 12 13  2  0  0  0
 12 14  1  0  0  0
 14 16  1  0  0  0
 16 17  1  0  0  0
 17 18  1  0  0  0
 17 19  1  0  0  0
 19 20  1  0  0  0
 19 21  1  0  0  0
 21 22  1  0  0  0
 26 27  1  0  0  0
 27 28  1  0  0  0
 28 29  2  0  0  0
 29 30  1  0  0  0
 30 31  2  0  0  0
 30 32  1  0  0  0
 32 33  1  0  0  0
 33 34  2  0  0  0
 39 43  1  0  0  0
 43 44  1  0  0  0
 43 45  2  0  0  0
 41 36  1  0  0  0
  8  2  1  0  0  0
 21 16  1  0  0  0
 33 27  1  0  0  0
 38 42  1  0  0  0
  7 10  1  0  0  0
  9 11  1  0  0  0
 14 15  1  0  0  0
 18 23  1  0  0  0
 20 24  1  0  0  0
 22 25  1  0  0  0
 32 35  1  0  0  0
 44 46  1  0  0  0
M  END
> <minimizedAffinity>
25.87408

> <CNNscore>
0.2795891762

> <CNNaffinity>
6.0683937073

> <CNN_VS>
1.6966571808

> <CNNaffinity_variance>
0.4772855639

$$$$
[H]/C(=C1/C(=O)N([H])c2c([H])c([H])c(Cl)c([H])c21)c1c(C([H])([H])[H])c(C(=O)N([H])C([H])([H])C([H])([H])N(C([H])([H])C([H])([H])[H])C([H])([H])C([H])([H])[H])c(C([H])([H])[H])n1[H]


 32 34  0  0  0  0  0  0  0  0999 V2000
   26.3062    8.9114   55.1954 C   0  0  0  0  0  0  0  0  0  0  0  0
   26.9047    8.2775   54.0977 C   0  0  0  0  0  0  0  0  0  0  0  0
   28.2820    8.4713   53.5889 C   0  0  0  0  0  0  0  0  0  0  0  0
   26.0195    7.4378   53.5478 N   0  0  0  0  0  0  0  0  0  0  0  0
   24.8743    7.4767   54.2139 C   0  0  0  0  0  0  0  0  0  0  0  0
   25.0318    8.4033   55.2612 C   0  0  0  0  0  0  0  0  0  0  0  0
   23.9953    8.7616   56.2644 C   0  0  0  0  0  0  0  0  0  0  0  0
   26.2153    6.8377   52.6826 H   0  0  0  0  0  0  0  0  0  0  0  0
   23.6540    6.7254   53.9995 C   0  0  0  0  0  0  0  0  0  0  0  0
   22.4863    7.2653   53.6910 C   0  0  0  0  0  0  0  0  0  0  0  0
   22.1591    8.6630   53.4953 C   0  0  0  0  0  0  0  0  0  0  0  0
   22.9511    9.6357   53.5619 O   0  0  0  0  0  0  0  0  0  0  0  0
   20.7638    8.6896   53.2134 N   0  0  0  0  0  0  0  0  0  0  0  0
   20.2038    7.3884   53.2212 C   0  0  0  0  0  0  0  0  0  0  0  0
   18.9367    6.8656   53.0153 C   0  0  0  0  0  0  0  0  0  0  0  0
   18.6522    5.5275   53.0821 C   0  0  0  0  0  0  0  0  0  0  0  0
   19.6813    4.6539   53.3695 C   0  0  0  0  0  0  0  0  0  0  0  0
   19.2895    2.9562   53.4468 Cl  0  0  0  0  0  0  0  0  0  0  0  0
   20.9417    5.1558   53.5757 C   0  0  0  0  0  0  0  0  0  0  0  0
   21.2268    6.5019   53.5086 C   0  0  0  0  0  0  0  0  0  0  0  0
   20.2328    9.5605   53.0264 H   0  0  0  0  0  0  0  0  0  0  0  0
   28.3185    9.8130   56.4909 N   0  0  0  0  0  0  0  0  0  0  0  0
   26.9937    9.8695   56.0240 C   0  0  0  0  0  0  0  0  0  0  0  0
   26.3370   10.9093   56.3925 O   0  0  0  0  0  0  0  0  0  0  0  0
   28.9817    9.0154   56.2818 H   0  0  0  0  0  0  0  0  0  0  0  0
   28.9083   10.8518   57.3134 C   0  0  0  0  0  0  0  0  0  0  0  0
   28.0075   11.4026   58.3619 C   0  0  0  0  0  0  0  0  0  0  0  0
   28.5804   11.4548   59.6948 N   0  0  0  0  0  0  0  0  0  0  0  0
   28.6358    8.9761   59.7433 C   0  0  0  0  0  0  0  0  0  0  0  0
   29.3774   10.2603   59.8295 C   0  0  0  0  0  0  0  0  0  0  0  0
   29.3221   12.6800   59.8267 C   0  0  0  0  0  0  0  0  0  0  0  0
   28.5100   13.9308   59.8313 C   0  0  0  0  0  0  0  0  0  0  0  0
 29 30  1  0  0  0
 30 28  1  0  0  0
 28 31  1  0  0  0
 31 32  1  0  0  0
 28 27  1  0  0  0
 27 26  1  0  0  0
 26 22  1  0  0  0
 22 23  1  0  0  0
 23 24  2  0  0  0
 23  1  1  0  0  0
  1  2  2  0  0  0
  2  3  1  0  0  0
  2  4  1  0  0  0
  4  5  1  0  0  0
  5  9  1  0  0  0
  9 10  2  0  0  0
 10 11  1  0  0  0
 11 12  2  0  0  0
 11 13  1  0  0  0
 13 14  1  0  0  0
 14 15  2  0  0  0
 15 16  1  0  0  0
 16 17  2  0  0  0
 17 18  1  0  0  0
 17 19  1  0  0  0
 19 20  2  0  0  0
  5  6  2  0  0  0
  6  7  1  0  0  0
  6  1  1  0  0  0
 20 10  1  0  0  0
 20 14  1  0  0  0
 22 25  1  0  0  0
  4  8  1  0  0  0
 13 21  1  0  0  0
M  END
> <minimizedAffinity>
19.97997

> <CNNscore>
0.5862584114

> <CNNaffinity>
6.2255887985

> <CNN_VS>
3.6498038769

> <CNNaffinity_variance>
0.7105244398

$$$$
[H]/C(=C1/C(=O)N([H])c2c([H])c([H])c(Cl)c([H])c21)c1c(C([H])([H])[H])c(C(=O)N([H])C([H])([H])C([H])([H])N(C([H])([H])C([H])([H])[H])C([H])([H])C([H])([H])[H])c(C([H])([H])[H])n1[H]


 32 34  0  0  0  0  0  0  0  0999 V2000
   25.5318    8.2895   54.4866 C   0  0  0  0  0  0  0  0  0  0  0  0
   25.7735    8.1317   53.1149 C   0  0  0  0  0  0  0  0  0  0  0  0
   26.8899    8.7034   52.3274 C   0  0  0  0  0  0  0  0  0  0  0  0
   24.8125    7.3608   52.5923 N   0  0  0  0  0  0  0  0  0  0  0  0
   23.9516    6.9990   53.5329 C   0  0  0  0  0  0  0  0  0  0  0  0
   24.3862    7.5756   54.7407 C   0  0  0  0  0  0  0  0  0  0  0  0
   23.7185    7.4290   56.0605 C   0  0  0  0  0  0  0  0  0  0  0  0
   24.7496    7.0951   51.5567 H   0  0  0  0  0  0  0  0  0  0  0  0
   22.7800    6.1516   53.4375 C   0  0  0  0  0  0  0  0  0  0  0  0
   21.5338    6.5810   53.5497 C   0  0  0  0  0  0  0  0  0  0  0  0
   21.0587    7.9309   53.7757 C   0  0  0  0  0  0  0  0  0  0  0  0
   21.7623    8.9658   53.8851 O   0  0  0  0  0  0  0  0  0  0  0  0
   19.6405    7.8271   53.8436 N   0  0  0  0  0  0  0  0  0  0  0  0
   19.2052    6.4900   53.6715 C   0  0  0  0  0  0  0  0  0  0  0  0
   17.9729    5.8556   53.6497 C   0  0  0  0  0  0  0  0  0  0  0  0
   17.8210    4.5078   53.4598 C   0  0  0  0  0  0  0  0  0  0  0  0
   18.9545    3.7411   53.2806 C   0  0  0  0  0  0  0  0  0  0  0  0
   18.7302    2.0283   53.0399 Cl  0  0  0  0  0  0  0  0  0  0  0  0
   20.1821    4.3542   53.2993 C   0  0  0  0  0  0  0  0  0  0  0  0
   20.3338    5.7099   53.4907 C   0  0  0  0  0  0  0  0  0  0  0  0
   19.0126    8.6375   53.9999 H   0  0  0  0  0  0  0  0  0  0  0  0
   27.7965    9.0693   55.3827 N   0  0  0  0  0  0  0  0  0  0  0  0
   26.3911    9.0527   55.3561 C   0  0  0  0  0  0  0  0  0  0  0  0
   25.8275    9.8180   56.2192 O   0  0  0  0  0  0  0  0  0  0  0  0
   28.4033    8.4854   54.7418 H   0  0  0  0  0  0  0  0  0  0  0  0
   28.5570    9.8949   56.3012 C   0  0  0  0  0  0  0  0  0  0  0  0
   28.1018    9.8335   57.7166 C   0  0  0  0  0  0  0  0  0  0  0  0
   28.8426   10.6797   58.6346 N   0  0  0  0  0  0  0  0  0  0  0  0
   28.5586   12.8471   59.8055 C   0  0  0  0  0  0  0  0  0  0  0  0
   28.0006   11.8236   58.8848 C   0  0  0  0  0  0  0  0  0  0  0  0
   29.1629    9.9118   59.8079 C   0  0  0  0  0  0  0  0  0  0  0  0
   29.1125    8.4302   59.6453 C   0  0  0  0  0  0  0  0  0  0  0  0
 29 30  1  0  0  0
 30 28  1  0  0  0
 28 31  1  0  0  0
 31 32  1  0  0  0
 28 27  1  0  0  0
 27 26  1  0  0  0
 26 22  1  0  0  0
 22 23  1  0  0  0
 23 24  2  0  0  0
 23  1  1  0  0  0
  1  2  2  0  0  0
  2  3  1  0  0  0
  2  4  1  0  0  0
  4  5  1  0  0  0
  5  9  1  0  0  0
  9 10  2  0  0  0
 10 11  1  0  0  0
 11 12  2  0  0  0
 11 13  1  0  0  0
 13 14  1  0  0  0
 14 15  2  0  0  0
 15 16  1  0  0  0
 16 17  2  0  0  0
 17 18  1  0  0  0
 17 19  1  0  0  0
 19 20  2  0  0  0
  5  6  2  0  0  0
  6  7  1  0  0  0
  6  1  1  0  0  0
 20 10  1  0  0  0
 20 14  1  0  0  0
 22 25  1  0  0  0
  4  8  1  0  0  0
 13 21  1  0  0  0
M  END
> <minimizedAffinity>
21.84858

> <CNNscore>
0.5662875772

> <CNNaffinity>
6.1500711441

> <CNN_VS>
3.4827089310

> <CNNaffinity_variance>
0.8303610086

$$$$
[H]/C(=C1/C(=O)N([H])c2c([H])c([H])c(Cl)c([H])c21)c1c(C([H])([H])[H])c(C(=O)N([H])C([H])([H])C([H])([H])N(C([H])([H])C([H])([H])[H])C([H])([H])C([H])([H])[H])c(C([H])([H])[H])n1[H]


 32 34  0  0  0  0  0  0  0  0999 V2000
   26.6700    8.6399   55.0284 C   0  0  0  0  0  0  0  0  0  0  0  0
   27.2318    7.6360   54.2275 C   0  0  0  0  0  0  0  0  0  0  0  0
   28.6589    7.4644   53.8705 C   0  0  0  0  0  0  0  0  0  0  0  0
   26.2570    6.8195   53.8103 N   0  0  0  0  0  0  0  0  0  0  0  0
   25.0867    7.2208   54.2859 C   0  0  0  0  0  0  0  0  0  0  0  0
   25.3232    8.3721   55.0596 C   0  0  0  0  0  0  0  0  0  0  0  0
   24.2898    9.1552   55.7863 C   0  0  0  0  0  0  0  0  0  0  0  0
   26.4111    5.9752   53.1697 H   0  0  0  0  0  0  0  0  0  0  0  0
   23.7718    6.6347   54.1215 C   0  0  0  0  0  0  0  0  0  0  0  0
   22.7497    7.2393   53.5383 C   0  0  0  0  0  0  0  0  0  0  0  0
   22.6978    8.5607   52.9466 C   0  0  0  0  0  0  0  0  0  0  0  0
   23.6449    9.3811   52.8578 O   0  0  0  0  0  0  0  0  0  0  0  0
   21.3577    8.7205   52.4933 N   0  0  0  0  0  0  0  0  0  0  0  0
   20.5725    7.5738   52.7681 C   0  0  0  0  0  0  0  0  0  0  0  0
   19.2524    7.2139   52.5465 C   0  0  0  0  0  0  0  0  0  0  0  0
   18.7259    6.0066   52.9220 C   0  0  0  0  0  0  0  0  0  0  0  0
   19.5534    5.1008   53.5541 C   0  0  0  0  0  0  0  0  0  0  0  0
   18.8557    3.5716   54.0196 Cl  0  0  0  0  0  0  0  0  0  0  0  0
   20.8631    5.4419   53.7805 C   0  0  0  0  0  0  0  0  0  0  0  0
   21.3917    6.6567   53.4028 C   0  0  0  0  0  0  0  0  0  0  0  0
   21.0098    9.5756   52.0210 H   0  0  0  0  0  0  0  0  0  0  0  0
   27.1297   10.4240   56.8020 N   0  0  0  0  0  0  0  0  0  0  0  0
   27.4496    9.6780   55.6543 C   0  0  0  0  0  0  0  0  0  0  0  0
   28.5772    9.9744   55.1168 O   0  0  0  0  0  0  0  0  0  0  0  0
   26.2321   10.3040   57.3496 H   0  0  0  0  0  0  0  0  0  0  0  0
   28.0068   11.4409   57.3499 C   0  0  0  0  0  0  0  0  0  0  0  0
   29.2859   10.9250   57.9083 C   0  0  0  0  0  0  0  0  0  0  0  0
   29.3683   10.9337   59.3577 N   0  0  0  0  0  0  0  0  0  0  0  0
   28.6446   13.2580   59.8300 C   0  0  0  0  0  0  0  0  0  0  0  0
   28.3148   11.8098   59.8082 C   0  0  0  0  0  0  0  0  0  0  0  0
   29.2561    9.5801   59.8309 C   0  0  0  0  0  0  0  0  0  0  0  0
   28.6720    8.6039   58.8665 C   0  0  0  0  0  0  0  0  0  0  0  0
 29 30  1  0  0  0
 30 28  1  0  0  0
 28 31  1  0  0  0
 31 32  1  0  0  0
 28 27  1  0  0  0
 27 26  1  0  0  0
 26 22  1  0  0  0
 22 23  1  0  0  0
 23 24  2  0  0  0
 23  1  1  0  0  0
  1  2  2  0  0  0
  2  3  1  0  0  0
  2  4  1  0  0  0
  4  5  1  0  0  0
  5  9  1  0  0  0
  9 10  2  0  0  0
 10 11  1  0  0  0
 11 12  2  0  0  0
 11 13  1  0  0  0
 13 14  1  0  0  0
 14 15  2  0  0  0
 15 16  1  0  0  0
 16 17  2  0  0  0
 17 18  1  0  0  0
 17 19  1  0  0  0
 19 20  2  0  0  0
  5  6  2  0  0  0
  6  7  1  0  0  0
  6  1  1  0  0  0
 20 10  1  0  0  0
 20 14  1  0  0  0
 22 25  1  0  0  0
  4  8  1  0  0  0
 13 21  1  0  0  0
M  END
> <minimizedAffinity>
18.27538

> <CNNscore>
0.5659757257

> <CNNaffinity>
6.2256164551

> <CNN_VS>
3.5235478878

> <CNNaffinity_variance>
0.7292060852

$$$$
[H]/C(=C1/C(=O)N([H])c2c([H])c([H])c(Cl)c([H])c21)c1c(C([H])([H])[H])c(C(=O)N([H])C([H])([H])C([H])([H])N(C([H])([H])C([H])([H])[H])C([H])([H])C([H])([H])[H])c(C([H])([H])[H])n1[H]


 32 34  0  0  0  0  0  0  0  0999 V2000
   22.4404    9.6018   54.7951 C   0  0  0  0  0  0  0  0  0  0  0  0
   21.8132   10.1981   53.6924 C   0  0  0  0  0  0  0  0  0  0  0  0
   22.1644   11.4829   53.0449 C   0  0  0  0  0  0  0  0  0  0  0  0
   20.8078    9.4120   53.2895 N   0  0  0  0  0  0  0  0  0  0  0  0
   20.7321    8.3337   54.0565 C   0  0  0  0  0  0  0  0  0  0  0  0
   21.7555    8.4322   55.0173 C   0  0  0  0  0  0  0  0  0  0  0  0
   22.0427    7.4362   56.0825 C   0  0  0  0  0  0  0  0  0  0  0  0
   20.1541    9.6411   52.4727 H   0  0  0  0  0  0  0  0  0  0  0  0
   19.8268    7.2050   53.9780 C   0  0  0  0  0  0  0  0  0  0  0  0
   20.1844    5.9811   53.6254 C   0  0  0  0  0  0  0  0  0  0  0  0
   21.4978    5.4926   53.2581 C   0  0  0  0  0  0  0  0  0  0  0  0
   22.5646    6.1554   53.2306 O   0  0  0  0  0  0  0  0  0  0  0  0
   21.3155    4.1165   52.9419 N   0  0  0  0  0  0  0  0  0  0  0  0
   19.9639    3.7199   53.0925 C   0  0  0  0  0  0  0  0  0  0  0  0
   19.2653    2.5350   52.9214 C   0  0  0  0  0  0  0  0  0  0  0  0
   17.9188    2.4141   53.1408 C   0  0  0  0  0  0  0  0  0  0  0  0
   17.2210    3.5308   53.5541 C   0  0  0  0  0  0  0  0  0  0  0  0
   15.5083    3.3466   53.8267 Cl  0  0  0  0  0  0  0  0  0  0  0  0
   17.8983    4.7115   53.7284 C   0  0  0  0  0  0  0  0  0  0  0  0
   19.2526    4.8322   53.5071 C   0  0  0  0  0  0  0  0  0  0  0  0
   22.0850    3.4903   52.6397 H   0  0  0  0  0  0  0  0  0  0  0  0
   24.7383    9.5308   55.9155 N   0  0  0  0  0  0  0  0  0  0  0  0
   23.5768   10.1823   55.4652 C   0  0  0  0  0  0  0  0  0  0  0  0
   23.5479   11.4462   55.6882 O   0  0  0  0  0  0  0  0  0  0  0  0
   24.9051    8.4907   55.8149 H   0  0  0  0  0  0  0  0  0  0  0  0
   25.8290   10.2283   56.5692 C   0  0  0  0  0  0  0  0  0  0  0  0
   27.1249   10.1807   55.8394 C   0  0  0  0  0  0  0  0  0  0  0  0
   28.0800    9.2145   56.3513 N   0  0  0  0  0  0  0  0  0  0  0  0
   28.7926    9.0748   58.7223 C   0  0  0  0  0  0  0  0  0  0  0  0
   27.7002    8.9709   57.7212 C   0  0  0  0  0  0  0  0  0  0  0  0
   28.0464    8.0479   55.5107 C   0  0  0  0  0  0  0  0  0  0  0  0
   27.7755    8.2990   54.0658 C   0  0  0  0  0  0  0  0  0  0  0  0
 29 30  1  0  0  0
 30 28  1  0  0  0
 28 31  1  0  0  0
 31 32  1  0  0  0
 28 27  1  0  0  0
 27 26  1  0  0  0
 26 22  1  0  0  0
 22 23  1  0  0  0
 23 24  2  0  0  0
 23  1  1  0  0  0
  1  2  2  0  0  0
  2  3  1  0  0  0
  2  4  1  0  0  0
  4  5  1  0  0  0
  5  9  1  0  0  0
  9 10  2  0  0  0
 10 11  1  0  0  0
 11 12  2  0  0  0
 11 13  1  0  0  0
 13 14  1  0  0  0
 14 15  2  0  0  0
 15 16  1  0  0  0
 16 17  2  0  0  0
 17 18  1  0  0  0
 17 19  1  0  0  0
 19 20  2  0  0  0
  5  6  2  0  0  0
  6  7  1  0  0  0
  6  1  1  0  0  0
 20 10  1  0  0  0
 20 14  1  0  0  0
 22 25  1  0  0  0
  4  8  1  0  0  0
 13 21  1  0  0  0
M  END
> <minimizedAffinity>
30.52333

> <CNNscore>
0.5256640315

> <CNNaffinity>
6.4598083496

> <CNN_VS>
3.3956890106

> <CNNaffinity_variance>
0.6957719326

$$$$
[H]/C(=C1/C(=O)N([H])c2c([H])c([H])c(Cl)c([H])c21)c1c(C([H])([H])[H])c(C(=O)N([H])C([H])([H])C([H])([H])N(C([H])([H])C([H])([H])[H])C([H])([H])C([H])([H])[H])c(C([H])([H])[H])n1[H]


 32 34  0  0  0  0  0  0  0  0999 V2000
   21.0585    7.1187   53.5891 C   0  0  0  0  0  0  0  0  0  0  0  0
   21.3223    8.1918   52.7266 C   0  0  0  0  0  0  0  0  0  0  0  0
   20.5341    8.6094   51.5444 C   0  0  0  0  0  0  0  0  0  0  0  0
   22.4349    8.8125   53.1363 N   0  0  0  0  0  0  0  0  0  0  0  0
   22.9221    8.2171   54.2156 C   0  0  0  0  0  0  0  0  0  0  0  0
   22.0676    7.1415   54.5206 C   0  0  0  0  0  0  0  0  0  0  0  0
   22.2323    6.1999   55.6588 C   0  0  0  0  0  0  0  0  0  0  0  0
   22.8690    9.6585   52.6436 H   0  0  0  0  0  0  0  0  0  0  0  0
   24.0839    8.5551   55.0130 C   0  0  0  0  0  0  0  0  0  0  0  0
   25.3321    8.5030   54.5777 C   0  0  0  0  0  0  0  0  0  0  0  0
   25.8182    8.1232   53.2669 C   0  0  0  0  0  0  0  0  0  0  0  0
   25.1221    7.7893   52.2759 O   0  0  0  0  0  0  0  0  0  0  0  0
   27.2367    8.2124   53.3483 N   0  0  0  0  0  0  0  0  0  0  0  0
   27.6617    8.6271   54.6345 C   0  0  0  0  0  0  0  0  0  0  0  0
   28.8898    8.8665   55.2310 C   0  0  0  0  0  0  0  0  0  0  0  0
   29.0310    9.2724   56.5314 C   0  0  0  0  0  0  0  0  0  0  0  0
   27.8905    9.4527   57.2875 C   0  0  0  0  0  0  0  0  0  0  0  0
   28.1012    9.9710   58.9394 Cl  0  0  0  0  0  0  0  0  0  0  0  0
   26.6670    9.2201   56.7114 C   0  0  0  0  0  0  0  0  0  0  0  0
   26.5260    8.8115   55.4034 C   0  0  0  0  0  0  0  0  0  0  0  0
   27.8715    7.9980   52.5568 H   0  0  0  0  0  0  0  0  0  0  0  0
   19.8934    4.8443   53.4895 N   0  0  0  0  0  0  0  0  0  0  0  0
   19.9190    6.2490   53.4403 C   0  0  0  0  0  0  0  0  0  0  0  0
   18.7778    6.8013   53.2380 O   0  0  0  0  0  0  0  0  0  0  0  0
   20.7535    4.2458   53.6376 H   0  0  0  0  0  0  0  0  0  0  0  0
   18.6743    4.0732   53.3385 C   0  0  0  0  0  0  0  0  0  0  0  0
   18.0443    3.6476   54.6176 C   0  0  0  0  0  0  0  0  0  0  0  0
   16.6833    4.1135   54.8139 N   0  0  0  0  0  0  0  0  0  0  0  0
   15.5631    2.6613   53.1449 C   0  0  0  0  0  0  0  0  0  0  0  0
   16.0422    4.0148   53.5257 C   0  0  0  0  0  0  0  0  0  0  0  0
   16.0708    3.3172   55.8431 C   0  0  0  0  0  0  0  0  0  0  0  0
   16.6531    3.4648   57.2081 C   0  0  0  0  0  0  0  0  0  0  0  0
 29 30  1  0  0  0
 30 28  1  0  0  0
 28 31  1  0  0  0
 31 32  1  0  0  0
 28 27  1  0  0  0
 27 26  1  0  0  0
 26 22  1  0  0  0
 22 23  1  0  0  0
 23 24  2  0  0  0
 23  1  1  0  0  0
  1  2  2  0  0  0
  2  3  1  0  0  0
  2  4  1  0  0  0
  4  5  1  0  0  0
  5  9  1  0  0  0
  9 10  2  0  0  0
 10 11  1  0  0  0
 11 12  2  0  0  0
 11 13  1  0  0  0
 13 14  1  0  0  0
 14 15  2  0  0  0
 15 16  1  0  0  0
 16 17  2  0  0  0
 17 18  1  0  0  0
 17 19  1  0  0  0
 19 20  2  0  0  0
  5  6  2  0  0  0
  6  7  1  0  0  0
  6  1  1  0  0  0
 20 10  1  0  0  0
 20 14  1  0  0  0
 22 25  1  0  0  0
  4  8  1  0  0  0
 13 21  1  0  0  0
M  END
> <minimizedAffinity>
16.35908

> <CNNscore>
0.4996455908

> <CNNaffinity>
6.5118956566

> <CNN_VS>
3.2536399364

> <CNNaffinity_variance>
0.2621211410

$$$$
[H]/C(=C1/C(=O)N([H])c2c([H])c([H])c(Cl)c([H])c21)c1c(C([H])([H])[H])c(C(=O)N([H])C([H])([H])C([H])([H])N(C([H])([H])C([H])([H])[H])C([H])([H])C([H])([H])[H])c(C([H])([H])[H])n1[H]


 32 34  0  0  0  0  0  0  0  0999 V2000
   21.1181    7.3408   53.6460 C   0  0  0  0  0  0  0  0  0  0  0  0
   21.4024    8.4063   52.7807 C   0  0  0  0  0  0  0  0  0  0  0  0
   20.6193    8.8393   51.6007 C   0  0  0  0  0  0  0  0  0  0  0  0
   22.5300    9.0029   53.1852 N   0  0  0  0  0  0  0  0  0  0  0  0
   23.0080    8.3986   54.2638 C   0  0  0  0  0  0  0  0  0  0  0  0
   22.1309    7.3428   54.5738 C   0  0  0  0  0  0  0  0  0  0  0  0
   22.2789    6.3996   55.7130 C   0  0  0  0  0  0  0  0  0  0  0  0
   22.9810    9.8383   52.6895 H   0  0  0  0  0  0  0  0  0  0  0  0
   24.1799    8.7120   55.0563 C   0  0  0  0  0  0  0  0  0  0  0  0
   25.4266    8.5882   54.6313 C   0  0  0  0  0  0  0  0  0  0  0  0
   25.9014    8.1402   53.3380 C   0  0  0  0  0  0  0  0  0  0  0  0
   25.1958    7.8029   52.3550 O   0  0  0  0  0  0  0  0  0  0  0  0
   27.3221    8.1682   53.4255 N   0  0  0  0  0  0  0  0  0  0  0  0
   27.7591    8.6090   54.6990 C   0  0  0  0  0  0  0  0  0  0  0  0
   28.9938    8.8138   55.2946 C   0  0  0  0  0  0  0  0  0  0  0  0
   29.1468    9.2591   56.5808 C   0  0  0  0  0  0  0  0  0  0  0  0
   28.0120    9.5176   57.3225 C   0  0  0  0  0  0  0  0  0  0  0  0
   28.2378   10.0845   58.9563 Cl  0  0  0  0  0  0  0  0  0  0  0  0
   26.7820    9.3200   56.7470 C   0  0  0  0  0  0  0  0  0  0  0  0
   26.6291    8.8717   55.4534 C   0  0  0  0  0  0  0  0  0  0  0  0
   27.9505    7.8972   52.6463 H   0  0  0  0  0  0  0  0  0  0  0  0
   19.8916    5.0969   53.6178 N   0  0  0  0  0  0  0  0  0  0  0  0
   19.9590    6.4963   53.5030 C   0  0  0  0  0  0  0  0  0  0  0  0
   18.8408    7.0691   53.2391 O   0  0  0  0  0  0  0  0  0  0  0  0
   20.7293    4.4829   53.8211 H   0  0  0  0  0  0  0  0  0  0  0  0
   18.6560    4.3530   53.4654 C   0  0  0  0  0  0  0  0  0  0  0  0
   18.3985    3.3480   54.5322 C   0  0  0  0  0  0  0  0  0  0  0  0
   17.0312    3.3089   55.0186 N   0  0  0  0  0  0  0  0  0  0  0  0
   15.9665    3.2588   57.2576 C   0  0  0  0  0  0  0  0  0  0  0  0
   17.0918    3.7139   56.4015 C   0  0  0  0  0  0  0  0  0  0  0  0
   16.2247    4.1610   54.1865 C   0  0  0  0  0  0  0  0  0  0  0  0
   15.5052    3.4823   53.0703 C   0  0  0  0  0  0  0  0  0  0  0  0
 29 30  1  0  0  0
 30 28  1  0  0  0
 28 31  1  0  0  0
 31 32  1  0  0  0
 28 27  1  0  0  0
 27 26  1  0  0  0
 26 22  1  0  0  0
 22 23  1  0  0  0
 23 24  2  0  0  0
 23  1  1  0  0  0
  1  2  2  0  0  0
  2  3  1  0  0  0
  2  4  1  0  0  0
  4  5  1  0  0  0
  5  9  1  0  0  0
  9 10  2  0  0  0
 10 11  1  0  0  0
 11 12  2  0  0  0
 11 13  1  0  0  0
 13 14  1  0  0  0
 14 15  2  0  0  0
 15 16  1  0  0  0
 16 17  2  0  0  0
 17 18  1  0  0  0
 17 19  1  0  0  0
 19 20  2  0  0  0
  5  6  2  0  0  0
  6  7  1  0  0  0
  6  1  1  0  0  0
 20 10  1  0  0  0
 20 14  1  0  0  0
 22 25  1  0  0  0
  4  8  1  0  0  0
 13 21  1  0  0  0
M  END
> <minimizedAffinity>
17.61373

> <CNNscore>
0.4816854000

> <CNNaffinity>
6.4253206253

> <CNN_VS>
3.0949831009

> <CNNaffinity_variance>
0.3007195592

$$$$
[H]/C(=C1/C(=O)N([H])c2c([H])c([H])c(Cl)c([H])c21)c1c(C([H])([H])[H])c(C(=O)N([H])C([H])([H])C([H])([H])N(C([H])([H])C([H])([H])[H])C([H])([H])C([H])([H])[H])c(C([H])([H])[H])n1[H]


 32 34  0  0  0  0  0  0  0  0999 V2000
   24.2410    8.0557   54.2463 C   0  0  0  0  0  0  0  0  0  0  0  0
   23.2729    8.9413   53.7530 C   0  0  0  0  0  0  0  0  0  0  0  0
   23.4069   10.4038   53.5617 C   0  0  0  0  0  0  0  0  0  0  0  0
   22.1615    8.2523   53.4683 N   0  0  0  0  0  0  0  0  0  0  0  0
   22.3351    6.9671   53.7420 C   0  0  0  0  0  0  0  0  0  0  0  0
   23.6442    6.8187   54.2364 C   0  0  0  0  0  0  0  0  0  0  0  0
   24.2680    5.5402   54.6671 C   0  0  0  0  0  0  0  0  0  0  0  0
   21.2609    8.6911   53.0896 H   0  0  0  0  0  0  0  0  0  0  0  0
   21.4240    5.8537   53.5692 C   0  0  0  0  0  0  0  0  0  0  0  0
   20.1064    5.9452   53.6455 C   0  0  0  0  0  0  0  0  0  0  0  0
   19.2940    7.1174   53.8996 C   0  0  0  0  0  0  0  0  0  0  0  0
   19.7045    8.2918   54.0740 O   0  0  0  0  0  0  0  0  0  0  0  0
   17.9486    6.6519   53.9059 N   0  0  0  0  0  0  0  0  0  0  0  0
   17.8767    5.2570   53.6692 C   0  0  0  0  0  0  0  0  0  0  0  0
   16.8500    4.3306   53.5748 C   0  0  0  0  0  0  0  0  0  0  0  0
   17.0552    2.9986   53.3314 C   0  0  0  0  0  0  0  0  0  0  0  0
   18.3525    2.5555   53.1716 C   0  0  0  0  0  0  0  0  0  0  0  0
   18.5831    0.8548   52.8616 Cl  0  0  0  0  0  0  0  0  0  0  0  0
   19.3802    3.4604   53.2618 C   0  0  0  0  0  0  0  0  0  0  0  0
   19.1728    4.8000   53.5071 C   0  0  0  0  0  0  0  0  0  0  0  0
   17.1292    7.2673   54.0651 H   0  0  0  0  0  0  0  0  0  0  0  0
   26.0204    8.8113   55.9206 N   0  0  0  0  0  0  0  0  0  0  0  0
   25.5652    8.4714   54.6347 C   0  0  0  0  0  0  0  0  0  0  0  0
   26.4542    8.5473   53.7117 O   0  0  0  0  0  0  0  0  0  0  0  0
   25.4051    8.8083   56.7816 H   0  0  0  0  0  0  0  0  0  0  0  0
   27.3897    9.2042   56.1928 C   0  0  0  0  0  0  0  0  0  0  0  0
   27.7792    9.1512   57.6280 C   0  0  0  0  0  0  0  0  0  0  0  0
   28.6632   10.2180   58.0617 N   0  0  0  0  0  0  0  0  0  0  0  0
   28.2899   12.5244   58.8927 C   0  0  0  0  0  0  0  0  0  0  0  0
   27.8924   11.4334   57.9663 C   0  0  0  0  0  0  0  0  0  0  0  0
   29.1300    9.9151   59.3880 C   0  0  0  0  0  0  0  0  0  0  0  0
   28.9822    8.4945   59.8173 C   0  0  0  0  0  0  0  0  0  0  0  0
 29 30  1  0  0  0
 30 28  1  0  0  0
 28 31  1  0  0  0
 31 32  1  0  0  0
 28 27  1  0  0  0
 27 26  1  0  0  0
 26 22  1  0  0  0
 22 23  1  0  0  0
 23 24  2  0  0  0
 23  1  1  0  0  0
  1  2  2  0  0  0
  2  3  1  0  0  0
  2  4  1  0  0  0
  4  5  1  0  0  0
  5  9  1  0  0  0
  9 10  2  0  0  0
 10 11  1  0  0  0
 11 12  2  0  0  0
 11 13  1  0  0  0
 13 14  1  0  0  0
 14 15  2  0  0  0
 15 16  1  0  0  0
 16 17  2  0  0  0
 17 18  1  0  0  0
 17 19  1  0  0  0
 19 20  2  0  0  0
  5  6  2  0  0  0
  6  7  1  0  0  0
  6  1  1  0  0  0
 20 10  1  0  0  0
 20 14  1  0  0  0
 22 25  1  0  0  0
  4  8  1  0  0  0
 13 21  1  0  0  0
M  END
> <minimizedAffinity>
30.81053

> <CNNscore>
0.4590654969

> <CNNaffinity>
6.1521100998

> <CNN_VS>
2.8242213726

> <CNNaffinity_variance>
0.9563406706

$$$$
[H]/C(=C1/C(=O)N([H])c2c([H])c([H])c(Cl)c([H])c21)c1c(C([H])([H])[H])c(C(=O)N([H])C([H])([H])C([H])([H])N(C([H])([H])C([H])([H])[H])C([H])([H])C([H])([H])[H])c(C([H])([H])[H])n1[H]


 32 34  0  0  0  0  0  0  0  0999 V2000
   21.3292    7.3559   53.3958 C   0  0  0  0  0  0  0  0  0  0  0  0
   21.3992    8.6640   52.8968 C   0  0  0  0  0  0  0  0  0  0  0  0
   20.4923    9.3008   51.9142 C   0  0  0  0  0  0  0  0  0  0  0  0
   22.4460    9.2841   53.4542 N   0  0  0  0  0  0  0  0  0  0  0  0
   23.0714    8.4678   54.2905 C   0  0  0  0  0  0  0  0  0  0  0  0
   22.3826    7.2409   54.2698 C   0  0  0  0  0  0  0  0  0  0  0  0
   22.7368    6.0348   55.0629 C   0  0  0  0  0  0  0  0  0  0  0  0
   22.7366   10.2912   53.2347 H   0  0  0  0  0  0  0  0  0  0  0  0
   24.2271    8.7120   55.1298 C   0  0  0  0  0  0  0  0  0  0  0  0
   25.4822    8.6134   54.7235 C   0  0  0  0  0  0  0  0  0  0  0  0
   25.9832    8.2635   53.4100 C   0  0  0  0  0  0  0  0  0  0  0  0
   25.2978    8.0074   52.3889 O   0  0  0  0  0  0  0  0  0  0  0  0
   27.4018    8.2758   53.5298 N   0  0  0  0  0  0  0  0  0  0  0  0
   27.8127    8.6144   54.8426 C   0  0  0  0  0  0  0  0  0  0  0  0
   29.0350    8.7650   55.4787 C   0  0  0  0  0  0  0  0  0  0  0  0
   29.1619    9.1090   56.7983 C   0  0  0  0  0  0  0  0  0  0  0  0
   28.0123    9.3166   57.5332 C   0  0  0  0  0  0  0  0  0  0  0  0
   28.2049    9.7545   59.2104 Cl  0  0  0  0  0  0  0  0  0  0  0  0
   26.7943    9.1716   56.9179 C   0  0  0  0  0  0  0  0  0  0  0  0
   26.6677    8.8253   55.5906 C   0  0  0  0  0  0  0  0  0  0  0  0
   28.0457    8.0618   52.7457 H   0  0  0  0  0  0  0  0  0  0  0  0
   19.9053    5.2514   53.6854 N   0  0  0  0  0  0  0  0  0  0  0  0
   20.3038    6.4189   53.0114 C   0  0  0  0  0  0  0  0  0  0  0  0
   19.6624    6.6590   51.9255 O   0  0  0  0  0  0  0  0  0  0  0  0
   20.3457    4.9137   54.5865 H   0  0  0  0  0  0  0  0  0  0  0  0
   18.8435    4.3883   53.2047 C   0  0  0  0  0  0  0  0  0  0  0  0
   17.9463    3.8549   54.2652 C   0  0  0  0  0  0  0  0  0  0  0  0
   16.6548    4.5110   54.3609 N   0  0  0  0  0  0  0  0  0  0  0  0
   15.9309    6.8813   54.2766 C   0  0  0  0  0  0  0  0  0  0  0  0
   16.8279    5.8133   53.7655 C   0  0  0  0  0  0  0  0  0  0  0  0
   15.6732    3.6869   53.7082 C   0  0  0  0  0  0  0  0  0  0  0  0
   16.1769    2.3983   53.1516 C   0  0  0  0  0  0  0  0  0  0  0  0
 29 30  1  0  0  0
 30 28  1  0  0  0
 28 31  1  0  0  0
 31 32  1  0  0  0
 28 27  1  0  0  0
 27 26  1  0  0  0
 26 22  1  0  0  0
 22 23  1  0  0  0
 23 24  2  0  0  0
 23  1  1  0  0  0
  1  2  2  0  0  0
  2  3  1  0  0  0
  2  4  1  0  0  0
  4  5  1  0  0  0
  5  9  1  0  0  0
  9 10  2  0  0  0
 10 11  1  0  0  0
 11 12  2  0  0  0
 11 13  1  0  0  0
 13 14  1  0  0  0
 14 15  2  0  0  0
 15 16  1  0  0  0
 16 17  2  0  0  0
 17 18  1  0  0  0
 17 19  1  0  0  0
 19 20  2  0  0  0
  5  6  2  0  0  0
  6  7  1  0  0  0
  6  1  1  0  0  0
 20 10  1  0  0  0
 20 14  1  0  0  0
 22 25  1  0  0  0
  4  8  1  0  0  0
 13 21  1  0  0  0
M  END
> <minimizedAffinity>
18.91899

> <CNNscore>
0.4481463730

> <CNNaffinity>
6.2877626419

> <CNN_VS>
2.8178379536

> <CNNaffinity_variance>
0.6108625531

$$$$
[H]/C(=C1/C(=O)N([H])c2c([H])c([H])c(Cl)c([H])c21)c1c(C([H])([H])[H])c(C(=O)N([H])C([H])([H])C([H])([H])N(C([H])([H])C([H])([H])[H])C([H])([H])C([H])([H])[H])c(C([H])([H])[H])n1[H]


 32 34  0  0  0  0  0  0  0  0999 V2000
   25.0098    7.2342   53.8795 C   0  0  0  0  0  0  0  0  0  0  0  0
   24.4365    8.0989   52.9369 C   0  0  0  0  0  0  0  0  0  0  0  0
   25.0564    9.2938   52.3194 C   0  0  0  0  0  0  0  0  0  0  0  0
   23.1963    7.6779   52.6620 N   0  0  0  0  0  0  0  0  0  0  0  0
   22.9148    6.5890   53.3633 C   0  0  0  0  0  0  0  0  0  0  0  0
   24.0480    6.2895   54.1420 C   0  0  0  0  0  0  0  0  0  0  0  0
   24.1764    5.1441   55.0805 C   0  0  0  0  0  0  0  0  0  0  0  0
   22.5298    8.1693   51.9827 H   0  0  0  0  0  0  0  0  0  0  0  0
   21.7140    5.7781   53.3697 C   0  0  0  0  0  0  0  0  0  0  0  0
   20.4901    6.2532   53.5329 C   0  0  0  0  0  0  0  0  0  0  0  0
   20.0710    7.6262   53.7277 C   0  0  0  0  0  0  0  0  0  0  0  0
   20.8115    8.6406   53.7535 O   0  0  0  0  0  0  0  0  0  0  0  0
   18.6564    7.5727   53.8791 N   0  0  0  0  0  0  0  0  0  0  0  0
   18.1706    6.2450   53.7886 C   0  0  0  0  0  0  0  0  0  0  0  0
   16.9200    5.6519   53.8627 C   0  0  0  0  0  0  0  0  0  0  0  0
   16.7157    4.3033   53.7389 C   0  0  0  0  0  0  0  0  0  0  0  0
   17.8127    3.4924   53.5294 C   0  0  0  0  0  0  0  0  0  0  0  0
   17.5218    1.7798   53.3746 Cl  0  0  0  0  0  0  0  0  0  0  0  0
   19.0577    4.0644   53.4533 C   0  0  0  0  0  0  0  0  0  0  0  0
   19.2623    5.4210   53.5783 C   0  0  0  0  0  0  0  0  0  0  0  0
   18.0640    8.4094   54.0357 H   0  0  0  0  0  0  0  0  0  0  0  0
   27.4397    8.0216   53.7531 N   0  0  0  0  0  0  0  0  0  0  0  0
   26.3510    7.3934   54.3826 C   0  0  0  0  0  0  0  0  0  0  0  0
   26.6061    6.9118   55.5450 O   0  0  0  0  0  0  0  0  0  0  0  0
   27.3904    8.4567   52.7897 H   0  0  0  0  0  0  0  0  0  0  0  0
   28.7482    8.1329   54.3689 C   0  0  0  0  0  0  0  0  0  0  0  0
   28.7339    8.1890   55.8558 C   0  0  0  0  0  0  0  0  0  0  0  0
   28.1600    9.3988   56.4168 N   0  0  0  0  0  0  0  0  0  0  0  0
   25.9853   10.5894   56.3691 C   0  0  0  0  0  0  0  0  0  0  0  0
   26.7486    9.3386   56.1256 C   0  0  0  0  0  0  0  0  0  0  0  0
   28.4740    9.4467   57.8196 C   0  0  0  0  0  0  0  0  0  0  0  0
   27.5325   10.2338   58.6670 C   0  0  0  0  0  0  0  0  0  0  0  0
 29 30  1  0  0  0
 30 28  1  0  0  0
 28 31  1  0  0  0
 31 32  1  0  0  0
 28 27  1  0  0  0
 27 26  1  0  0  0
 26 22  1  0  0  0
 22 23  1  0  0  0
 23 24  2  0  0  0
 23  1  1  0  0  0
  1  2  2  0  0  0
  2  3  1  0  0  0
  2  4  1  0  0  0
  4  5  1  0  0  0
  5  9  1  0  0  0
  9 10  2  0  0  0
 10 11  1  0  0  0
 11 12  2  0  0  0
 11 13  1  0  0  0
 13 14  1  0  0  0
 14 15  2  0  0  0
 15 16  1  0  0  0
 16 17  2  0  0  0
 17 18  1  0  0  0
 17 19  1  0  0  0
 19 20  2  0  0  0
  5  6  2  0  0  0
  6  7  1  0  0  0
  6  1  1  0  0  0
 20 10  1  0  0  0
 20 14  1  0  0  0
 22 25  1  0  0  0
  4  8  1  0  0  0
 13 21  1  0  0  0
M  END
> <minimizedAffinity>
37.43622

> <CNNscore>
0.4240805209

> <CNNaffinity>
6.0803327560

> <CNN_VS>
2.5785505772

> <CNNaffinity_variance>
0.9592466354

$$$$
[H]Oc1c([H])c([H])c(C([H])([H])[C@@]2([H])C(=O)N([H])[C@@]([H])(C([H])([H])c3c([H])c([H])c(O[H])c([H])c3[H])C(=O)N([H])[C@@]([H])(C([H])([H])c3c([H])n([H])c4c([H])c([H])c([H])c([H])c34)C(=O)N([H])[C@@]([H])(C([H])(C([H])([H])[H])C([H])([H])[H])C(=O)N([H])[C@@]([H])(C([H])(C([H])([H])[H])C([H])([H])[H])C(=O)N([H])[C@@]([H])(C([H])([H])c3c([H])nc([H])n3[H])C(=O)N2[H])c([H])c1[H]


 72 77  0  0  0  0  0  0  0  0999 V2000
   24.0212    7.4328   55.1518 C   0  0  0  0  0  0  0  0  0  0  0  0
   23.5078    8.6175   54.5535 N   0  0  0  0  0  0  0  0  0  0  0  0
   22.7495    9.7129   54.9469 C   0  0  0  0  0  0  0  0  0  0  0  0
   23.4244   10.8125   55.2611 O   0  0  0  0  0  0  0  0  0  0  0  0
   21.3191    9.9680   55.1031 C   0  0  0  0  0  0  0  0  0  0  0  0
   20.7844   11.0493   54.2605 N   0  0  0  0  0  0  0  0  0  0  0  0
   21.2788   11.7634   53.2192 C   0  0  0  0  0  0  0  0  0  0  0  0
   21.4173   13.0399   53.3800 O   0  0  0  0  0  0  0  0  0  0  0  0
   21.7270   11.3601   51.8306 C   0  0  0  0  0  0  0  0  0  0  0  0
   23.1696   11.3067   51.7526 N   0  0  0  0  0  0  0  0  0  0  0  0
   24.1531   12.2349   51.4775 C   0  0  0  0  0  0  0  0  0  0  0  0
   24.8023   12.7619   52.4770 O   0  0  0  0  0  0  0  0  0  0  0  0
   24.6257   12.7634   50.1698 C   0  0  0  0  0  0  0  0  0  0  0  0
   25.5545   11.8886   49.4883 N   0  0  0  0  0  0  0  0  0  0  0  0
   26.0787   10.6537   49.8914 C   0  0  0  0  0  0  0  0  0  0  0  0
   25.7548    9.6183   49.2018 O   0  0  0  0  0  0  0  0  0  0  0  0
   26.9793   10.3385   51.0230 C   0  0  0  0  0  0  0  0  0  0  0  0
   26.6814    9.0663   51.5893 N   0  0  0  0  0  0  0  0  0  0  0  0
   26.9243    8.6280   52.9233 C   0  0  0  0  0  0  0  0  0  0  0  0
   27.3382    7.4223   53.0290 O   0  0  0  0  0  0  0  0  0  0  0  0
   26.7492    9.4023   54.1357 C   0  0  0  0  0  0  0  0  0  0  0  0
   26.2899    8.7183   55.3090 N   0  0  0  0  0  0  0  0  0  0  0  0
   25.4854    7.6183   55.5196 C   0  0  0  0  0  0  0  0  0  0  0  0
   25.9763    6.6079   56.0900 O   0  0  0  0  0  0  0  0  0  0  0  0
   23.8325    8.6646   53.5138 H   0  0  0  0  0  0  0  0  0  0  0  0
   19.7866   11.2938   54.5914 H   0  0  0  0  0  0  0  0  0  0  0  0
   23.5287   10.3203   51.9821 H   0  0  0  0  0  0  0  0  0  0  0  0
   25.8755   12.2582   48.5381 H   0  0  0  0  0  0  0  0  0  0  0  0
   26.2235    8.3538   50.9460 H   0  0  0  0  0  0  0  0  0  0  0  0
   26.6685    9.1732   56.2221 H   0  0  0  0  0  0  0  0  0  0  0  0
   25.1968    6.1338   53.3155 C   0  0  0  0  0  0  0  0  0  0  0  0
   23.9776    6.2650   54.1851 C   0  0  0  0  0  0  0  0  0  0  0  0
   23.6890    4.9465   54.8687 C   0  0  0  0  0  0  0  0  0  0  0  0
   20.3806    8.8193   55.1659 C   0  0  0  0  0  0  0  0  0  0  0  0
   19.8046    8.4051   53.8457 C   0  0  0  0  0  0  0  0  0  0  0  0
   21.1046    7.6024   55.7561 C   0  0  0  0  0  0  0  0  0  0  0  0
   21.1219   10.0276   51.4576 C   0  0  0  0  0  0  0  0  0  0  0  0
   21.8494    8.8445   51.8817 C   0  0  0  0  0  0  0  0  0  0  0  0
   23.2149    8.6545   52.0167 C   0  0  0  0  0  0  0  0  0  0  0  0
   23.4813    7.4075   52.4424 N   0  0  0  0  0  0  0  0  0  0  0  0
   22.3028    6.7806   52.5871 C   0  0  0  0  0  0  0  0  0  0  0  0
   21.9790    5.4956   52.9952 C   0  0  0  0  0  0  0  0  0  0  0  0
   20.6798    5.0453   53.0762 C   0  0  0  0  0  0  0  0  0  0  0  0
   19.6618    5.9404   52.7270 C   0  0  0  0  0  0  0  0  0  0  0  0
   19.9548    7.2120   52.3215 C   0  0  0  0  0  0  0  0  0  0  0  0
   21.2608    7.6355   52.2497 C   0  0  0  0  0  0  0  0  0  0  0  0
   24.4182    6.9668   52.6372 H   0  0  0  0  0  0  0  0  0  0  0  0
   23.4535   13.2036   49.3073 C   0  0  0  0  0  0  0  0  0  0  0  0
   22.3397   13.7799   50.1312 C   0  0  0  0  0  0  0  0  0  0  0  0
   21.0591   13.2746   50.0624 C   0  0  0  0  0  0  0  0  0  0  0  0
   20.0029   13.7785   50.7831 C   0  0  0  0  0  0  0  0  0  0  0  0
   20.2745   14.8515   51.6132 C   0  0  0  0  0  0  0  0  0  0  0  0
   19.2304   15.3754   52.3480 O   0  0  0  0  0  0  0  0  0  0  0  0
   21.5646   15.3745   51.6943 C   0  0  0  0  0  0  0  0  0  0  0  0
   22.5851   14.8418   50.9591 C   0  0  0  0  0  0  0  0  0  0  0  0
   19.0661   14.9826   53.2702 H   0  0  0  0  0  0  0  0  0  0  0  0
   28.4320   10.4291   50.5177 C   0  0  0  0  0  0  0  0  0  0  0  0
   28.6440    9.8174   49.2152 C   0  0  0  0  0  0  0  0  0  0  0  0
   28.5772   10.5721   48.0703 C   0  0  0  0  0  0  0  0  0  0  0  0
   28.7719    9.9659   46.8264 C   0  0  0  0  0  0  0  0  0  0  0  0
   29.0304    8.6230   46.7227 C   0  0  0  0  0  0  0  0  0  0  0  0
   29.2237    8.0278   45.4702 O   0  0  0  0  0  0  0  0  0  0  0  0
   29.0987    7.8585   47.8737 C   0  0  0  0  0  0  0  0  0  0  0  0
   28.9035    8.4699   49.1095 C   0  0  0  0  0  0  0  0  0  0  0  0
   29.4125    7.0352   45.4341 H   0  0  0  0  0  0  0  0  0  0  0  0
   28.0964   10.0734   54.4461 C   0  0  0  0  0  0  0  0  0  0  0  0
   28.3137   10.2436   55.8973 C   0  0  0  0  0  0  0  0  0  0  0  0
   28.3434    9.3266   56.9177 C   0  0  0  0  0  0  0  0  0  0  0  0
   28.5763    9.9594   58.0809 N   0  0  0  0  0  0  0  0  0  0  0  0
   28.6921   11.2643   57.7923 C   0  0  0  0  0  0  0  0  0  0  0  0
   28.5360   11.4462   56.4834 N   0  0  0  0  0  0  0  0  0  0  0  0
   28.5824   12.3887   55.9987 H   0  0  0  0  0  0  0  0  0  0  0  0
 31 32  1  0  0  0
 32 33  1  0  0  0
 32  1  1  0  0  0
  1  2  1  0  0  0
  2  3  1  0  0  0
  3  4  2  0  0  0
  3  5  1  0  0  0
  5  6  1  0  0  0
  6  7  1  0  0  0
  7  8  2  0  0  0
  7  9  1  0  0  0
  9 37  1  0  0  0
 37 38  1  0  0  0
 38 39  2  0  0  0
 39 40  1  0  0  0
 40 41  1  0  0  0
 41 42  2  0  0  0
 42 43  1  0  0  0
 43 44  2  0  0  0
 44 45  1  0  0  0
 45 46  2  0  0  0
  9 10  1  0  0  0
 10 11  1  0  0  0
 11 12  2  0  0  0
 11 13  1  0  0  0
 13 48  1  0  0  0
 48 49  1  0  0  0
 49 50  2  0  0  0
 50 51  1  0  0  0
 51 52  2  0  0  0
 52 53  1  0  0  0
 52 54  1  0  0  0
 54 55  2  0  0  0
 13 14  1  0  0  0
 14 15  1  0  0  0
 15 16  2  0  0  0
 15 17  1  0  0  0
 17 57  1  0  0  0
 57 58  1  0  0  0
 58 59  2  0  0  0
 59 60  1  0  0  0
 60 61  2  0  0  0
 61 62  1  0  0  0
 61 63  1  0  0  0
 63 64  2  0  0  0
 17 18  1  0  0  0
 18 19  1  0  0  0
 19 20  2  0  0  0
 19 21  1  0  0  0
 21 66  1  0  0  0
 66 67  1  0  0  0
 67 68  2  0  0  0
 68 69  1  0  0  0
 69 70  2  0  0  0
 70 71  1  0  0  0
 21 22  1  0  0  0
 22 23  1  0  0  0
 23 24  2  0  0  0
  5 34  1  0  0  0
 34 35  1  0  0  0
 34 36  1  0  0  0
 23  1  1  0  0  0
 46 38  1  0  0  0
 55 49  1  0  0  0
 64 58  1  0  0  0
 71 67  1  0  0  0
 46 41  1  0  0  0
  2 25  1  0  0  0
  6 26  1  0  0  0
 40 47  1  0  0  0
 10 27  1  0  0  0
 53 56  1  0  0  0
 14 28  1  0  0  0
 62 65  1  0  0  0
 18 29  1  0  0  0
 71 72  1  0  0  0
 22 30  1  0  0  0
M  END
> <minimizedAffinity>
129.00842

> <CNNscore>
0.2516793907

> <CNNaffinity>
6.9856858253

> <CNN_VS>
1.7581532001

> <CNNaffinity_variance>
5.0405831337

$$$$
[H]Oc1c([H])c([H])c(C([H])([H])[C@@]2([H])C(=O)N([H])[C@@]([H])(C([H])([H])c3c([H])c([H])c(O[H])c([H])c3[H])C(=O)N([H])[C@@]([H])(C([H])([H])c3c([H])n([H])c4c([H])c([H])c([H])c([H])c34)C(=O)N([H])[C@@]([H])(C([H])(C([H])([H])[H])C([H])([H])[H])C(=O)N([H])[C@@]([H])(C([H])(C([H])([H])[H])C([H])([H])[H])C(=O)N([H])[C@@]([H])(C([H])([H])c3c([H])nc([H])n3[H])C(=O)N2[H])c([H])c1[H]


 72 77  0  0  0  0  0  0  0  0999 V2000
   18.6286    3.4297   54.4503 C   0  0  0  0  0  0  0  0  0  0  0  0
   19.9892    3.5846   54.0631 N   0  0  0  0  0  0  0  0  0  0  0  0
   20.8422    3.0585   53.1012 C   0  0  0  0  0  0  0  0  0  0  0  0
   21.0117    3.7874   52.0041 O   0  0  0  0  0  0  0  0  0  0  0  0
   21.6440    1.8412   52.9958 C   0  0  0  0  0  0  0  0  0  0  0  0
   23.0919    2.0605   52.8516 N   0  0  0  0  0  0  0  0  0  0  0  0
   23.8966    3.1449   52.9747 C   0  0  0  0  0  0  0  0  0  0  0  0
   24.5414    3.5352   51.9228 O   0  0  0  0  0  0  0  0  0  0  0  0
   24.2187    4.0449   54.1486 C   0  0  0  0  0  0  0  0  0  0  0  0
   23.4930    5.2917   54.0533 N   0  0  0  0  0  0  0  0  0  0  0  0
   23.7385    6.5030   53.4393 C   0  0  0  0  0  0  0  0  0  0  0  0
   23.1602    6.7451   52.2969 O   0  0  0  0  0  0  0  0  0  0  0  0
   24.5916    7.6391   53.8800 C   0  0  0  0  0  0  0  0  0  0  0  0
   23.9585    8.5001   54.8550 N   0  0  0  0  0  0  0  0  0  0  0  0
   22.6740    8.4292   55.4093 C   0  0  0  0  0  0  0  0  0  0  0  0
   22.5840    8.1858   56.6682 O   0  0  0  0  0  0  0  0  0  0  0  0
   21.3569    8.5973   54.7553 C   0  0  0  0  0  0  0  0  0  0  0  0
   20.3739    7.7438   55.3327 N   0  0  0  0  0  0  0  0  0  0  0  0
   19.1972    7.2283   54.7161 C   0  0  0  0  0  0  0  0  0  0  0  0
   18.1604    7.2060   55.4648 O   0  0  0  0  0  0  0  0  0  0  0  0
   19.0731    6.7404   53.3572 C   0  0  0  0  0  0  0  0  0  0  0  0
   18.1928    5.6343   53.1184 N   0  0  0  0  0  0  0  0  0  0  0  0
   17.7845    4.5578   53.8773 C   0  0  0  0  0  0  0  0  0  0  0  0
   16.5621    4.4437   54.1600 O   0  0  0  0  0  0  0  0  0  0  0  0
   20.4571    4.3436   54.6905 H   0  0  0  0  0  0  0  0  0  0  0  0
   23.5643    1.1290   52.5797 H   0  0  0  0  0  0  0  0  0  0  0  0
   22.5512    5.2261   54.5664 H   0  0  0  0  0  0  0  0  0  0  0  0
   24.5807    9.3027   55.1886 H   0  0  0  0  0  0  0  0  0  0  0  0
   20.5301    7.4530   56.3438 H   0  0  0  0  0  0  0  0  0  0  0  0
   17.7573    5.6661   52.1218 H   0  0  0  0  0  0  0  0  0  0  0  0
   17.0602    3.3466   56.4439 C   0  0  0  0  0  0  0  0  0  0  0  0
   18.4724    3.5140   55.9565 C   0  0  0  0  0  0  0  0  0  0  0  0
   19.3881    2.5639   56.6965 C   0  0  0  0  0  0  0  0  0  0  0  0
   21.3591    0.7045   53.9074 C   0  0  0  0  0  0  0  0  0  0  0  0
   21.1858    1.0818   55.3476 C   0  0  0  0  0  0  0  0  0  0  0  0
   20.0729    0.0006   53.4565 C   0  0  0  0  0  0  0  0  0  0  0  0
   23.9002    3.3389   55.4452 C   0  0  0  0  0  0  0  0  0  0  0  0
   23.1539    4.1007   56.4309 C   0  0  0  0  0  0  0  0  0  0  0  0
   22.2038    5.0908   56.2406 C   0  0  0  0  0  0  0  0  0  0  0  0
   21.7457    5.5428   57.4208 N   0  0  0  0  0  0  0  0  0  0  0  0
   22.3872    4.8575   58.3809 C   0  0  0  0  0  0  0  0  0  0  0  0
   22.3116    4.9068   59.7645 C   0  0  0  0  0  0  0  0  0  0  0  0
   23.0723    4.0991   60.5809 C   0  0  0  0  0  0  0  0  0  0  0  0
   23.9503    3.1998   59.9648 C   0  0  0  0  0  0  0  0  0  0  0  0
   24.0434    3.1321   58.6032 C   0  0  0  0  0  0  0  0  0  0  0  0
   23.2722    3.9501   57.8119 C   0  0  0  0  0  0  0  0  0  0  0  0
   21.0241    6.2886   57.6024 H   0  0  0  0  0  0  0  0  0  0  0  0
   25.9704    7.1523   54.2965 C   0  0  0  0  0  0  0  0  0  0  0  0
   26.7153    8.1911   55.0824 C   0  0  0  0  0  0  0  0  0  0  0  0
   26.1516    8.8013   56.1824 C   0  0  0  0  0  0  0  0  0  0  0  0
   26.7860    9.7694   56.9236 C   0  0  0  0  0  0  0  0  0  0  0  0
   28.0587   10.1275   56.5160 C   0  0  0  0  0  0  0  0  0  0  0  0
   28.7170   11.0975   57.2442 O   0  0  0  0  0  0  0  0  0  0  0  0
   28.6432    9.5200   55.4052 C   0  0  0  0  0  0  0  0  0  0  0  0
   27.9754    8.5615   54.6974 C   0  0  0  0  0  0  0  0  0  0  0  0
   29.2895   10.7870   58.0237 H   0  0  0  0  0  0  0  0  0  0  0  0
   20.9656   10.0849   54.8434 C   0  0  0  0  0  0  0  0  0  0  0  0
   21.2631   10.8466   53.6406 C   0  0  0  0  0  0  0  0  0  0  0  0
   21.2541   12.2193   53.6635 C   0  0  0  0  0  0  0  0  0  0  0  0
   21.5309   12.9353   52.4959 C   0  0  0  0  0  0  0  0  0  0  0  0
   21.8136   12.2924   51.3179 C   0  0  0  0  0  0  0  0  0  0  0  0
   22.0893   13.0216   50.1548 O   0  0  0  0  0  0  0  0  0  0  0  0
   21.8240   10.9092   51.2900 C   0  0  0  0  0  0  0  0  0  0  0  0
   21.5471   10.2030   52.4578 C   0  0  0  0  0  0  0  0  0  0  0  0
   22.2937   12.5123   49.3056 H   0  0  0  0  0  0  0  0  0  0  0  0
   18.6298    7.9265   52.4863 C   0  0  0  0  0  0  0  0  0  0  0  0
   19.5193    8.1285   51.3244 C   0  0  0  0  0  0  0  0  0  0  0  0
   19.3254    8.8085   50.1483 C   0  0  0  0  0  0  0  0  0  0  0  0
   20.4308    8.7127   49.3889 N   0  0  0  0  0  0  0  0  0  0  0  0
   21.3121    7.9779   50.0837 C   0  0  0  0  0  0  0  0  0  0  0  0
   20.7750    7.6216   51.2477 N   0  0  0  0  0  0  0  0  0  0  0  0
   21.2679    7.0358   51.9820 H   0  0  0  0  0  0  0  0  0  0  0  0
 31 32  1  0  0  0
 32 33  1  0  0  0
 32  1  1  0  0  0
  1  2  1  0  0  0
  2  3  1  0  0  0
  3  4  2  0  0  0
  3  5  1  0  0  0
  5  6  1  0  0  0
  6  7  1  0  0  0
  7  8  2  0  0  0
  7  9  1  0  0  0
  9 37  1  0  0  0
 37 38  1  0  0  0
 38 39  2  0  0  0
 39 40  1  0  0  0
 40 41  1  0  0  0
 41 42  2  0  0  0
 42 43  1  0  0  0
 43 44  2  0  0  0
 44 45  1  0  0  0
 45 46  2  0  0  0
  9 10  1  0  0  0
 10 11  1  0  0  0
 11 12  2  0  0  0
 11 13  1  0  0  0
 13 48  1  0  0  0
 48 49  1  0  0  0
 49 50  2  0  0  0
 50 51  1  0  0  0
 51 52  2  0  0  0
 52 53  1  0  0  0
 52 54  1  0  0  0
 54 55  2  0  0  0
 13 14  1  0  0  0
 14 15  1  0  0  0
 15 16  2  0  0  0
 15 17  1  0  0  0
 17 57  1  0  0  0
 57 58  1  0  0  0
 58 59  2  0  0  0
 59 60  1  0  0  0
 60 61  2  0  0  0
 61 62  1  0  0  0
 61 63  1  0  0  0
 63 64  2  0  0  0
 17 18  1  0  0  0
 18 19  1  0  0  0
 19 20  2  0  0  0
 19 21  1  0  0  0
 21 66  1  0  0  0
 66 67  1  0  0  0
 67 68  2  0  0  0
 68 69  1  0  0  0
 69 70  2  0  0  0
 70 71  1  0  0  0
 21 22  1  0  0  0
 22 23  1  0  0  0
 23 24  2  0  0  0
  5 34  1  0  0  0
 34 35  1  0  0  0
 34 36  1  0  0  0
 23  1  1  0  0  0
 46 38  1  0  0  0
 55 49  1  0  0  0
 64 58  1  0  0  0
 71 67  1  0  0  0
 46 41  1  0  0  0
  2 25  1  0  0  0
  6 26  1  0  0  0
 40 47  1  0  0  0
 10 27  1  0  0  0
 53 56  1  0  0  0
 14 28  1  0  0  0
 62 65  1  0  0  0
 18 29  1  0  0  0
 71 72  1  0  0  0
 22 30  1  0  0  0
M  END
> <minimizedAffinity>
127.62144

> <CNNscore>
0.0439199060

> <CNNaffinity>
6.2626342773

> <CNN_VS>
0.2750543058

> <CNNaffinity_variance>
6.9279966354

$$$$
[H]Oc1c([H])c([H])c(C([H])([H])[C@@]2([H])C(=O)N([H])[C@@]([H])(C([H])([H])c3c([H])c([H])c(O[H])c([H])c3[H])C(=O)N([H])[C@@]([H])(C([H])([H])c3c([H])n([H])c4c([H])c([H])c([H])c([H])c34)C(=O)N([H])[C@@]([H])(C([H])(C([H])([H])[H])C([H])([H])[H])C(=O)N([H])[C@@]([H])(C([H])(C([H])([H])[H])C([H])([H])[H])C(=O)N([H])[C@@]([H])(C([H])([H])c3c([H])nc([H])n3[H])C(=O)N2[H])c([H])c1[H]


 72 77  0  0  0  0  0  0  0  0999 V2000
   20.6262    6.8710   55.6095 C   0  0  0  0  0  0  0  0  0  0  0  0
   21.5778    6.6624   54.5722 N   0  0  0  0  0  0  0  0  0  0  0  0
   21.5595    6.3497   53.2188 C   0  0  0  0  0  0  0  0  0  0  0  0
   21.6743    7.3712   52.3781 O   0  0  0  0  0  0  0  0  0  0  0  0
   21.4444    5.1102   52.4533 C   0  0  0  0  0  0  0  0  0  0  0  0
   22.5880    4.8118   51.5768 N   0  0  0  0  0  0  0  0  0  0  0  0
   23.8315    5.3351   51.4409 C   0  0  0  0  0  0  0  0  0  0  0  0
   24.1301    5.8841   50.3077 O   0  0  0  0  0  0  0  0  0  0  0  0
   25.0103    5.4165   52.3873 C   0  0  0  0  0  0  0  0  0  0  0  0
   25.1226    6.7418   52.9539 N   0  0  0  0  0  0  0  0  0  0  0  0
   25.7424    7.9088   52.5556 C   0  0  0  0  0  0  0  0  0  0  0  0
   25.0152    8.8354   51.9981 O   0  0  0  0  0  0  0  0  0  0  0  0
   27.1701    8.3131   52.6600 C   0  0  0  0  0  0  0  0  0  0  0  0
   27.5418    8.8093   53.9670 N   0  0  0  0  0  0  0  0  0  0  0  0
   26.7561    8.9825   55.1137 C   0  0  0  0  0  0  0  0  0  0  0  0
   27.0293    8.2522   56.1357 O   0  0  0  0  0  0  0  0  0  0  0  0
   25.6226    9.9054   55.3466 C   0  0  0  0  0  0  0  0  0  0  0  0
   24.6380    9.3207   56.1932 N   0  0  0  0  0  0  0  0  0  0  0  0
   23.2457    9.6198   56.2460 C   0  0  0  0  0  0  0  0  0  0  0  0
   22.7444    9.6523   57.4223 O   0  0  0  0  0  0  0  0  0  0  0  0
   22.3719    9.8820   55.1201 C   0  0  0  0  0  0  0  0  0  0  0  0
   21.0167    9.4213   55.2000 N   0  0  0  0  0  0  0  0  0  0  0  0
   20.4049    8.3593   55.8320 C   0  0  0  0  0  0  0  0  0  0  0  0
   19.5391    8.5964   56.7160 O   0  0  0  0  0  0  0  0  0  0  0  0
   22.5812    6.8208   54.9680 H   0  0  0  0  0  0  0  0  0  0  0  0
   22.3229    4.0020   50.9144 H   0  0  0  0  0  0  0  0  0  0  0  0
   24.5793    6.8098   53.8784 H   0  0  0  0  0  0  0  0  0  0  0  0
   28.5733    9.0777   54.0480 H   0  0  0  0  0  0  0  0  0  0  0  0
   24.9747    8.5715   56.8689 H   0  0  0  0  0  0  0  0  0  0  0  0
   20.3346   10.0583   54.6406 H   0  0  0  0  0  0  0  0  0  0  0  0
   21.8316    4.9978   56.8257 C   0  0  0  0  0  0  0  0  0  0  0  0
   21.1242    6.3200   56.9318 C   0  0  0  0  0  0  0  0  0  0  0  0
   21.9853    7.3046   57.6919 C   0  0  0  0  0  0  0  0  0  0  0  0
   20.9487    3.8845   53.1288 C   0  0  0  0  0  0  0  0  0  0  0  0
   19.5860    4.0108   53.7398 C   0  0  0  0  0  0  0  0  0  0  0  0
   20.8964    2.7319   52.1177 C   0  0  0  0  0  0  0  0  0  0  0  0
   24.8724    4.3795   53.4766 C   0  0  0  0  0  0  0  0  0  0  0  0
   25.3201    3.0366   53.1527 C   0  0  0  0  0  0  0  0  0  0  0  0
   24.6336    1.8365   53.2412 C   0  0  0  0  0  0  0  0  0  0  0  0
   25.4086    0.8149   52.8381 N   0  0  0  0  0  0  0  0  0  0  0  0
   26.5954    1.3356   52.4868 C   0  0  0  0  0  0  0  0  0  0  0  0
   27.7573    0.7542   52.0026 C   0  0  0  0  0  0  0  0  0  0  0  0
   28.8845    1.4849   51.6979 C   0  0  0  0  0  0  0  0  0  0  0  0
   28.8302    2.8699   51.8936 C   0  0  0  0  0  0  0  0  0  0  0  0
   27.6971    3.4668   52.3698 C   0  0  0  0  0  0  0  0  0  0  0  0
   26.5859    2.7134   52.6659 C   0  0  0  0  0  0  0  0  0  0  0  0
   25.1709   -0.2104   52.7913 H   0  0  0  0  0  0  0  0  0  0  0  0
   28.0841    7.2155   52.1389 C   0  0  0  0  0  0  0  0  0  0  0  0
   28.4756    7.4473   50.7090 C   0  0  0  0  0  0  0  0  0  0  0  0
   28.3381    8.6849   50.1177 C   0  0  0  0  0  0  0  0  0  0  0  0
   28.6660    8.9429   48.8082 C   0  0  0  0  0  0  0  0  0  0  0  0
   29.1580    7.8802   48.0715 C   0  0  0  0  0  0  0  0  0  0  0  0
   29.4949    8.1137   46.7537 O   0  0  0  0  0  0  0  0  0  0  0  0
   29.3031    6.6218   48.6546 C   0  0  0  0  0  0  0  0  0  0  0  0
   28.9642    6.4107   49.9608 C   0  0  0  0  0  0  0  0  0  0  0  0
   30.4483    8.4066   46.5612 H   0  0  0  0  0  0  0  0  0  0  0  0
   26.1857   11.2185   55.9232 C   0  0  0  0  0  0  0  0  0  0  0  0
   27.1253   11.0288   57.0171 C   0  0  0  0  0  0  0  0  0  0  0  0
   27.5234    9.7673   57.3846 C   0  0  0  0  0  0  0  0  0  0  0  0
   28.4177    9.6026   58.4455 C   0  0  0  0  0  0  0  0  0  0  0  0
   28.9109   10.6816   59.1336 C   0  0  0  0  0  0  0  0  0  0  0  0
   29.8066   10.5030   60.1948 O   0  0  0  0  0  0  0  0  0  0  0  0
   28.5126   11.9548   58.7669 C   0  0  0  0  0  0  0  0  0  0  0  0
   27.6210   12.1105   57.7086 C   0  0  0  0  0  0  0  0  0  0  0  0
   30.1487   11.3227   60.6779 H   0  0  0  0  0  0  0  0  0  0  0  0
   22.3685   11.4016   54.8905 C   0  0  0  0  0  0  0  0  0  0  0  0
   22.0078   11.7551   53.5023 C   0  0  0  0  0  0  0  0  0  0  0  0
   21.9362   12.9718   52.8718 C   0  0  0  0  0  0  0  0  0  0  0  0
   21.5598   12.7917   51.5937 N   0  0  0  0  0  0  0  0  0  0  0  0
   21.3965   11.4712   51.4234 C   0  0  0  0  0  0  0  0  0  0  0  0
   21.6629   10.8390   52.5636 N   0  0  0  0  0  0  0  0  0  0  0  0
   21.6082    9.7877   52.6939 H   0  0  0  0  0  0  0  0  0  0  0  0
 31 32  1  0  0  0
 32 33  1  0  0  0
 32  1  1  0  0  0
  1  2  1  0  0  0
  2  3  1  0  0  0
  3  4  2  0  0  0
  3  5  1  0  0  0
  5  6  1  0  0  0
  6  7  1  0  0  0
  7  8  2  0  0  0
  7  9  1  0  0  0
  9 37  1  0  0  0
 37 38  1  0  0  0
 38 39  2  0  0  0
 39 40  1  0  0  0
 40 41  1  0  0  0
 41 42  2  0  0  0
 42 43  1  0  0  0
 43 44  2  0  0  0
 44 45  1  0  0  0
 45 46  2  0  0  0
  9 10  1  0  0  0
 10 11  1  0  0  0
 11 12  2  0  0  0
 11 13  1  0  0  0
 13 48  1  0  0  0
 48 49  1  0  0  0
 49 50  2  0  0  0
 50 51  1  0  0  0
 51 52  2  0  0  0
 52 53  1  0  0  0
 52 54  1  0  0  0
 54 55  2  0  0  0
 13 14  1  0  0  0
 14 15  1  0  0  0
 15 16  2  0  0  0
 15 17  1  0  0  0
 17 57  1  0  0  0
 57 58  1  0  0  0
 58 59  2  0  0  0
 59 60  1  0  0  0
 60 61  2  0  0  0
 61 62  1  0  0  0
 61 63  1  0  0  0
 63 64  2  0  0  0
 17 18  1  0  0  0
 18 19  1  0  0  0
 19 20  2  0  0  0
 19 21  1  0  0  0
 21 66  1  0  0  0
 66 67  1  0  0  0
 67 68  2  0  0  0
 68 69  1  0  0  0
 69 70  2  0  0  0
 70 71  1  0  0  0
 21 22  1  0  0  0
 22 23  1  0  0  0
 23 24  2  0  0  0
  5 34  1  0  0  0
 34 35  1  0  0  0
 34 36  1  0  0  0
 23  1  1  0  0  0
 46 38  1  0  0  0
 55 49  1  0  0  0
 64 58  1  0  0  0
 71 67  1  0  0  0
 46 41  1  0  0  0
  2 25  1  0  0  0
  6 26  1  0  0  0
 40 47  1  0  0  0
 10 27  1  0  0  0
 53 56  1  0  0  0
 14 28  1  0  0  0
 62 65  1  0  0  0
 18 29  1  0  0  0
 71 72  1  0  0  0
 22 30  1  0  0  0
M  END
> <minimizedAffinity>
144.76813

> <CNNscore>
0.0363026746

> <CNNaffinity>
5.9633150101

> <CNN_VS>
0.2164842784

> <CNNaffinity_variance>
6.4081978798

$$$$
[H]Oc1c([H])c([H])c(C([H])([H])[C@@]2([H])C(=O)N([H])[C@@]([H])(C([H])([H])c3c([H])c([H])c(O[H])c([H])c3[H])C(=O)N([H])[C@@]([H])(C([H])([H])c3c([H])n([H])c4c([H])c([H])c([H])c([H])c34)C(=O)N([H])[C@@]([H])(C([H])(C([H])([H])[H])C([H])([H])[H])C(=O)N([H])[C@@]([H])(C([H])(C([H])([H])[H])C([H])([H])[H])C(=O)N([H])[C@@]([H])(C([H])([H])c3c([H])nc([H])n3[H])C(=O)N2[H])c([H])c1[H]


 72 77  0  0  0  0  0  0  0  0999 V2000
   19.6555    7.9060   53.7468 C   0  0  0  0  0  0  0  0  0  0  0  0
   20.7862    8.3133   54.5088 N   0  0  0  0  0  0  0  0  0  0  0  0
   21.0846    8.5493   55.8448 C   0  0  0  0  0  0  0  0  0  0  0  0
   21.6809    7.5585   56.4977 O   0  0  0  0  0  0  0  0  0  0  0  0
   20.8994    9.6785   56.7538 C   0  0  0  0  0  0  0  0  0  0  0  0
   22.1398   10.2303   57.3212 N   0  0  0  0  0  0  0  0  0  0  0  0
   23.4574   10.0502   57.0569 C   0  0  0  0  0  0  0  0  0  0  0  0
   24.1942    9.5503   57.9960 O   0  0  0  0  0  0  0  0  0  0  0  0
   24.2956   10.3268   55.8270 C   0  0  0  0  0  0  0  0  0  0  0  0
   24.5565    9.1053   55.0988 N   0  0  0  0  0  0  0  0  0  0  0  0
   25.5279    8.1281   55.1764 C   0  0  0  0  0  0  0  0  0  0  0  0
   25.2394    7.0179   55.7948 O   0  0  0  0  0  0  0  0  0  0  0  0
   26.9180    8.1221   54.6469 C   0  0  0  0  0  0  0  0  0  0  0  0
   27.0047    7.8010   53.2391 N   0  0  0  0  0  0  0  0  0  0  0  0
   25.9875    7.4768   52.3323 C   0  0  0  0  0  0  0  0  0  0  0  0
   25.7687    8.2981   51.3680 O   0  0  0  0  0  0  0  0  0  0  0  0
   25.0935    6.2975   52.3040 C   0  0  0  0  0  0  0  0  0  0  0  0
   23.7954    6.6371   51.8267 N   0  0  0  0  0  0  0  0  0  0  0  0
   22.5628    5.9819   52.1133 C   0  0  0  0  0  0  0  0  0  0  0  0
   21.7665    5.8699   51.1186 O   0  0  0  0  0  0  0  0  0  0  0  0
   22.1422    5.4474   53.3929 C   0  0  0  0  0  0  0  0  0  0  0  0
   20.7523    5.5351   53.7333 N   0  0  0  0  0  0  0  0  0  0  0  0
   19.7461    6.4237   53.4177 C   0  0  0  0  0  0  0  0  0  0  0  0
   18.7461    6.0050   52.7760 O   0  0  0  0  0  0  0  0  0  0  0  0
   21.6396    8.4445   53.8432 H   0  0  0  0  0  0  0  0  0  0  0  0
   21.8897   10.9104   58.1211 H   0  0  0  0  0  0  0  0  0  0  0  0
   23.8025    8.9368   54.3521 H   0  0  0  0  0  0  0  0  0  0  0  0
   28.0017    7.8198   52.8542 H   0  0  0  0  0  0  0  0  0  0  0  0
   23.7309    7.4781   51.1787 H   0  0  0  0  0  0  0  0  0  0  0  0
   20.4361    4.7157   54.3756 H   0  0  0  0  0  0  0  0  0  0  0  0
   20.6916    8.2399   51.4541 C   0  0  0  0  0  0  0  0  0  0  0  0
   19.6015    8.6276   52.4140 C   0  0  0  0  0  0  0  0  0  0  0  0
   18.2539    8.5108   51.7364 C   0  0  0  0  0  0  0  0  0  0  0  0
   19.9486   10.7576   56.3848 C   0  0  0  0  0  0  0  0  0  0  0  0
   20.0805   11.2579   54.9782 C   0  0  0  0  0  0  0  0  0  0  0  0
   18.5112   10.2518   56.5621 C   0  0  0  0  0  0  0  0  0  0  0  0
   23.6024   11.3374   54.9443 C   0  0  0  0  0  0  0  0  0  0  0  0
   22.9492   10.8188   53.7555 C   0  0  0  0  0  0  0  0  0  0  0  0
   22.8205    9.5085   53.3247 C   0  0  0  0  0  0  0  0  0  0  0  0
   22.1363    9.4533   52.1690 N   0  0  0  0  0  0  0  0  0  0  0  0
   21.8163   10.7152   51.8400 C   0  0  0  0  0  0  0  0  0  0  0  0
   21.1211   11.2460   50.7642 C   0  0  0  0  0  0  0  0  0  0  0  0
   20.8985   12.5972   50.6152 C   0  0  0  0  0  0  0  0  0  0  0  0
   21.4048   13.4492   51.6037 C   0  0  0  0  0  0  0  0  0  0  0  0
   22.0934   12.9508   52.6735 C   0  0  0  0  0  0  0  0  0  0  0  0
   22.3013   11.5975   52.7976 C   0  0  0  0  0  0  0  0  0  0  0  0
   21.8792    8.6057   51.5984 H   0  0  0  0  0  0  0  0  0  0  0  0
   27.6497    9.3986   55.0302 C   0  0  0  0  0  0  0  0  0  0  0  0
   27.9452    9.4525   56.5004 C   0  0  0  0  0  0  0  0  0  0  0  0
   27.9474    8.3125   57.2754 C   0  0  0  0  0  0  0  0  0  0  0  0
   28.1949    8.3124   58.6273 C   0  0  0  0  0  0  0  0  0  0  0  0
   28.4519    9.5404   59.2106 C   0  0  0  0  0  0  0  0  0  0  0  0
   28.7037    9.5668   60.5672 O   0  0  0  0  0  0  0  0  0  0  0  0
   28.4533   10.7031   58.4407 C   0  0  0  0  0  0  0  0  0  0  0  0
   28.2019   10.6562   57.0990 C   0  0  0  0  0  0  0  0  0  0  0  0
   29.6701    9.4675   60.8639 H   0  0  0  0  0  0  0  0  0  0  0  0
   25.7661    5.2079   51.4472 C   0  0  0  0  0  0  0  0  0  0  0  0
   25.8778    3.9188   52.1114 C   0  0  0  0  0  0  0  0  0  0  0  0
   24.8451    3.4357   52.8764 C   0  0  0  0  0  0  0  0  0  0  0  0
   24.9738    2.2006   53.5170 C   0  0  0  0  0  0  0  0  0  0  0  0
   26.1180    1.4539   53.3979 C   0  0  0  0  0  0  0  0  0  0  0  0
   26.2343    0.2177   54.0450 O   0  0  0  0  0  0  0  0  0  0  0  0
   27.1613    1.9364   52.6280 C   0  0  0  0  0  0  0  0  0  0  0  0
   27.0253    3.1682   51.9929 C   0  0  0  0  0  0  0  0  0  0  0  0
   27.0930   -0.3042   53.9331 H   0  0  0  0  0  0  0  0  0  0  0  0
   22.5728    3.9728   53.4342 C   0  0  0  0  0  0  0  0  0  0  0  0
   21.4540    3.0563   53.1335 C   0  0  0  0  0  0  0  0  0  0  0  0
   21.4448    1.7282   52.7882 C   0  0  0  0  0  0  0  0  0  0  0  0
   20.1757    1.3210   52.6111 N   0  0  0  0  0  0  0  0  0  0  0  0
   19.3941    2.3861   52.8438 C   0  0  0  0  0  0  0  0  0  0  0  0
   20.1516    3.4339   53.1584 N   0  0  0  0  0  0  0  0  0  0  0  0
   19.7757    4.3989   53.3881 H   0  0  0  0  0  0  0  0  0  0  0  0
 31 32  1  0  0  0
 32 33  1  0  0  0
 32  1  1  0  0  0
  1  2  1  0  0  0
  2  3  1  0  0  0
  3  4  2  0  0  0
  3  5  1  0  0  0
  5  6  1  0  0  0
  6  7  1  0  0  0
  7  8  2  0  0  0
  7  9  1  0  0  0
  9 37  1  0  0  0
 37 38  1  0  0  0
 38 39  2  0  0  0
 39 40  1  0  0  0
 40 41  1  0  0  0
 41 42  2  0  0  0
 42 43  1  0  0  0
 43 44  2  0  0  0
 44 45  1  0  0  0
 45 46  2  0  0  0
  9 10  1  0  0  0
 10 11  1  0  0  0
 11 12  2  0  0  0
 11 13  1  0  0  0
 13 48  1  0  0  0
 48 49  1  0  0  0
 49 50  2  0  0  0
 50 51  1  0  0  0
 51 52  2  0  0  0
 52 53  1  0  0  0
 52 54  1  0  0  0
 54 55  2  0  0  0
 13 14  1  0  0  0
 14 15  1  0  0  0
 15 16  2  0  0  0
 15 17  1  0  0  0
 17 57  1  0  0  0
 57 58  1  0  0  0
 58 59  2  0  0  0
 59 60  1  0  0  0
 60 61  2  0  0  0
 61 62  1  0  0  0
 61 63  1  0  0  0
 63 64  2  0  0  0
 17 18  1  0  0  0
 18 19  1  0  0  0
 19 20  2  0  0  0
 19 21  1  0  0  0
 21 66  1  0  0  0
 66 67  1  0  0  0
 67 68  2  0  0  0
 68 69  1  0  0  0
 69 70  2  0  0  0
 70 71  1  0  0  0
 21 22  1  0  0  0
 22 23  1  0  0  0
 23 24  2  0  0  0
  5 34  1  0  0  0
 34 35  1  0  0  0
 34 36  1  0  0  0
 23  1  1  0  0  0
 46 38  1  0  0  0
 55 49  1  0  0  0
 64 58  1  0  0  0
 71 67  1  0  0  0
 46 41  1  0  0  0
  2 25  1  0  0  0
  6 26  1  0  0  0
 40 47  1  0  0  0
 10 27  1  0  0  0
 53 56  1  0  0  0
 14 28  1  0  0  0
 62 65  1  0  0  0
 18 29  1  0  0  0
 71 72  1  0  0  0
 22 30  1  0  0  0
M  END
> <minimizedAffinity>
137.09818

> <CNNscore>
0.0316815712

> <CNNaffinity>
6.1939544678

> <CNN_VS>
0.1962342113

> <CNNaffinity_variance>
5.3506808281

$$$$
[H]Oc1c([H])c([H])c(C([H])([H])[C@@]2([H])C(=O)N([H])[C@@]([H])(C([H])([H])c3c([H])c([H])c(O[H])c([H])c3[H])C(=O)N([H])[C@@]([H])(C([H])([H])c3c([H])n([H])c4c([H])c([H])c([H])c([H])c34)C(=O)N([H])[C@@]([H])(C([H])(C([H])([H])[H])C([H])([H])[H])C(=O)N([H])[C@@]([H])(C([H])(C([H])([H])[H])C([H])([H])[H])C(=O)N([H])[C@@]([H])(C([H])([H])c3c([H])nc([H])n3[H])C(=O)N2[H])c([H])c1[H]


 72 77  0  0  0  0  0  0  0  0999 V2000
   19.5818    2.7936   54.8362 C   0  0  0  0  0  0  0  0  0  0  0  0
   18.9945    4.0885   54.7797 N   0  0  0  0  0  0  0  0  0  0  0  0
   17.7650    4.6647   55.0733 C   0  0  0  0  0  0  0  0  0  0  0  0
   17.6636    5.2635   56.2542 O   0  0  0  0  0  0  0  0  0  0  0  0
   16.4926    4.7850   54.3646 C   0  0  0  0  0  0  0  0  0  0  0  0
   16.0535    6.1650   54.1042 N   0  0  0  0  0  0  0  0  0  0  0  0
   16.6495    7.3783   54.2105 C   0  0  0  0  0  0  0  0  0  0  0  0
   16.1425    8.2236   55.0489 O   0  0  0  0  0  0  0  0  0  0  0  0
   17.8490    7.9870   53.5160 C   0  0  0  0  0  0  0  0  0  0  0  0
   19.0077    7.9656   54.3804 N   0  0  0  0  0  0  0  0  0  0  0  0
   19.5055    8.8198   55.3432 C   0  0  0  0  0  0  0  0  0  0  0  0
   19.2827    8.5364   56.5954 O   0  0  0  0  0  0  0  0  0  0  0  0
   20.2947   10.0715   55.1904 C   0  0  0  0  0  0  0  0  0  0  0  0
   21.7051    9.8474   54.9600 N   0  0  0  0  0  0  0  0  0  0  0  0
   22.4187    8.6441   54.8885 C   0  0  0  0  0  0  0  0  0  0  0  0
   22.9469    8.3342   53.7583 O   0  0  0  0  0  0  0  0  0  0  0  0
   22.6728    7.6373   55.9432 C   0  0  0  0  0  0  0  0  0  0  0  0
   22.6953    6.3167   55.4105 N   0  0  0  0  0  0  0  0  0  0  0  0
   22.3998    5.0987   56.0885 C   0  0  0  0  0  0  0  0  0  0  0  0
   23.1652    4.1170   55.7940 O   0  0  0  0  0  0  0  0  0  0  0  0
   21.3410    4.8781   57.0530 C   0  0  0  0  0  0  0  0  0  0  0  0
   20.6936    3.5990   57.0588 N   0  0  0  0  0  0  0  0  0  0  0  0
   20.4356    2.6548   56.0874 C   0  0  0  0  0  0  0  0  0  0  0  0
   20.9471    1.5093   56.2037 O   0  0  0  0  0  0  0  0  0  0  0  0
   19.7387    4.8057   54.4327 H   0  0  0  0  0  0  0  0  0  0  0  0
   15.0279    6.1514   53.7684 H   0  0  0  0  0  0  0  0  0  0  0  0
   19.5783    7.0671   54.2327 H   0  0  0  0  0  0  0  0  0  0  0  0
   22.2675   10.7467   54.8271 H   0  0  0  0  0  0  0  0  0  0  0  0
   22.9640    6.2207   54.3859 H   0  0  0  0  0  0  0  0  0  0  0  0
   20.3380    3.3251   58.0501 H   0  0  0  0  0  0  0  0  0  0  0  0
   20.9162    1.1266   53.4645 C   0  0  0  0  0  0  0  0  0  0  0  0
   20.5163    2.5618   53.6644 C   0  0  0  0  0  0  0  0  0  0  0  0
   19.9863    3.1336   52.3679 C   0  0  0  0  0  0  0  0  0  0  0  0
   16.2265    3.9054   53.1984 C   0  0  0  0  0  0  0  0  0  0  0  0
   16.4770    2.4477   53.4403 C   0  0  0  0  0  0  0  0  0  0  0  0
   14.7612    4.0573   52.7703 C   0  0  0  0  0  0  0  0  0  0  0  0
   18.1299    7.2514   52.2273 C   0  0  0  0  0  0  0  0  0  0  0  0
   19.4575    7.4178   51.6627 C   0  0  0  0  0  0  0  0  0  0  0  0
   19.8602    8.1720   50.5726 C   0  0  0  0  0  0  0  0  0  0  0  0
   21.1860    8.0599   50.3810 N   0  0  0  0  0  0  0  0  0  0  0  0
   21.6539    7.2396   51.3356 C   0  0  0  0  0  0  0  0  0  0  0  0
   22.9300    6.7766   51.6176 C   0  0  0  0  0  0  0  0  0  0  0  0
   23.1981    5.9248   52.6664 C   0  0  0  0  0  0  0  0  0  0  0  0
   22.1213    5.5241   53.4660 C   0  0  0  0  0  0  0  0  0  0  0  0
   20.8542    5.9662   53.2086 C   0  0  0  0  0  0  0  0  0  0  0  0
   20.6148    6.8163   52.1550 C   0  0  0  0  0  0  0  0  0  0  0  0
   21.7821    8.5105   49.6384 H   0  0  0  0  0  0  0  0  0  0  0  0
   19.6480   10.9997   54.1747 C   0  0  0  0  0  0  0  0  0  0  0  0
   20.6325   11.4752   53.1469 C   0  0  0  0  0  0  0  0  0  0  0  0
   20.8427   12.8186   52.9204 C   0  0  0  0  0  0  0  0  0  0  0  0
   21.7196   13.3032   51.9796 C   0  0  0  0  0  0  0  0  0  0  0  0
   22.4131   12.3643   51.2368 C   0  0  0  0  0  0  0  0  0  0  0  0
   23.3002   12.8257   50.2856 O   0  0  0  0  0  0  0  0  0  0  0  0
   22.2119   11.0015   51.4535 C   0  0  0  0  0  0  0  0  0  0  0  0
   21.3295   10.5645   52.4000 C   0  0  0  0  0  0  0  0  0  0  0  0
   24.2596   12.9823   50.5801 H   0  0  0  0  0  0  0  0  0  0  0  0
   23.9915    8.0066   56.6493 C   0  0  0  0  0  0  0  0  0  0  0  0
   25.1022    8.2437   55.7406 C   0  0  0  0  0  0  0  0  0  0  0  0
   25.0531    7.7917   54.4452 C   0  0  0  0  0  0  0  0  0  0  0  0
   26.1340    8.0181   53.5890 C   0  0  0  0  0  0  0  0  0  0  0  0
   27.2520    8.6872   54.0172 C   0  0  0  0  0  0  0  0  0  0  0  0
   28.3283    8.9077   53.1493 O   0  0  0  0  0  0  0  0  0  0  0  0
   27.3059    9.1447   55.3217 C   0  0  0  0  0  0  0  0  0  0  0  0
   26.2247    8.9150   56.1687 C   0  0  0  0  0  0  0  0  0  0  0  0
   29.1351    9.4052   53.5011 H   0  0  0  0  0  0  0  0  0  0  0  0
   21.9317    5.1434   58.4466 C   0  0  0  0  0  0  0  0  0  0  0  0
   22.8621    4.0772   58.8704 C   0  0  0  0  0  0  0  0  0  0  0  0
   23.5348    3.8847   60.0509 C   0  0  0  0  0  0  0  0  0  0  0  0
   24.2718    2.7632   59.9679 N   0  0  0  0  0  0  0  0  0  0  0  0
   24.0629    2.2556   58.7439 C   0  0  0  0  0  0  0  0  0  0  0  0
   23.2178    3.0369   58.0762 N   0  0  0  0  0  0  0  0  0  0  0  0
   22.8891    2.8556   57.0840 H   0  0  0  0  0  0  0  0  0  0  0  0
 31 32  1  0  0  0
 32 33  1  0  0  0
 32  1  1  0  0  0
  1  2  1  0  0  0
  2  3  1  0  0  0
  3  4  2  0  0  0
  3  5  1  0  0  0
  5  6  1  0  0  0
  6  7  1  0  0  0
  7  8  2  0  0  0
  7  9  1  0  0  0
  9 37  1  0  0  0
 37 38  1  0  0  0
 38 39  2  0  0  0
 39 40  1  0  0  0
 40 41  1  0  0  0
 41 42  2  0  0  0
 42 43  1  0  0  0
 43 44  2  0  0  0
 44 45  1  0  0  0
 45 46  2  0  0  0
  9 10  1  0  0  0
 10 11  1  0  0  0
 11 12  2  0  0  0
 11 13  1  0  0  0
 13 48  1  0  0  0
 48 49  1  0  0  0
 49 50  2  0  0  0
 50 51  1  0  0  0
 51 52  2  0  0  0
 52 53  1  0  0  0
 52 54  1  0  0  0
 54 55  2  0  0  0
 13 14  1  0  0  0
 14 15  1  0  0  0
 15 16  2  0  0  0
 15 17  1  0  0  0
 17 57  1  0  0  0
 57 58  1  0  0  0
 58 59  2  0  0  0
 59 60  1  0  0  0
 60 61  2  0  0  0
 61 62  1  0  0  0
 61 63  1  0  0  0
 63 64  2  0  0  0
 17 18  1  0  0  0
 18 19  1  0  0  0
 19 20  2  0  0  0
 19 21  1  0  0  0
 21 66  1  0  0  0
 66 67  1  0  0  0
 67 68  2  0  0  0
 68 69  1  0  0  0
 69 70  2  0  0  0
 70 71  1  0  0  0
 21 22  1  0  0  0
 22 23  1  0  0  0
 23 24  2  0  0  0
  5 34  1  0  0  0
 34 35  1  0  0  0
 34 36  1  0  0  0
 23  1  1  0  0  0
 46 38  1  0  0  0
 55 49  1  0  0  0
 64 58  1  0  0  0
 71 67  1  0  0  0
 46 41  1  0  0  0
  2 25  1  0  0  0
  6 26  1  0  0  0
 40 47  1  0  0  0
 10 27  1  0  0  0
 53 56  1  0  0  0
 14 28  1  0  0  0
 62 65  1  0  0  0
 18 29  1  0  0  0
 71 72  1  0  0  0
 22 30  1  0  0  0
M  END
> <minimizedAffinity>
136.02966

> <CNNscore>
0.0297011547

> <CNNaffinity>
6.2028427124

> <CNN_VS>
0.1842315942

> <CNNaffinity_variance>
6.1956343651

$$$$
[H]Oc1c([H])c([H])c(C([H])([H])[C@@]2([H])C(=O)N([H])[C@@]([H])(C([H])([H])c3c([H])c([H])c(O[H])c([H])c3[H])C(=O)N([H])[C@@]([H])(C([H])([H])c3c([H])n([H])c4c([H])c([H])c([H])c([H])c34)C(=O)N([H])[C@@]([H])(C([H])(C([H])([H])[H])C([H])([H])[H])C(=O)N([H])[C@@]([H])(C([H])(C([H])([H])[H])C([H])([H])[H])C(=O)N([H])[C@@]([H])(C([H])([H])c3c([H])nc([H])n3[H])C(=O)N2[H])c([H])c1[H]


 72 77  0  0  0  0  0  0  0  0999 V2000
   21.0606    7.7464   51.2009 C   0  0  0  0  0  0  0  0  0  0  0  0
   21.1454    6.9185   52.3552 N   0  0  0  0  0  0  0  0  0  0  0  0
   20.5292    5.7692   52.8337 C   0  0  0  0  0  0  0  0  0  0  0  0
   21.1774    4.6277   52.6331 O   0  0  0  0  0  0  0  0  0  0  0  0
   19.2823    5.4931   53.5444 C   0  0  0  0  0  0  0  0  0  0  0  0
   19.4447    4.8600   54.8627 N   0  0  0  0  0  0  0  0  0  0  0  0
   20.5083    4.6284   55.6711 C   0  0  0  0  0  0  0  0  0  0  0  0
   20.8067    3.3963   55.9308 O   0  0  0  0  0  0  0  0  0  0  0  0
   21.4737    5.5588   56.3741 C   0  0  0  0  0  0  0  0  0  0  0  0
   22.7342    5.6187   55.6684 N   0  0  0  0  0  0  0  0  0  0  0  0
   23.8933    4.8706   55.7047 C   0  0  0  0  0  0  0  0  0  0  0  0
   24.0772    3.9710   54.7800 O   0  0  0  0  0  0  0  0  0  0  0  0
   25.0282    4.9178   56.6652 C   0  0  0  0  0  0  0  0  0  0  0  0
   25.9722    5.9816   56.4011 N   0  0  0  0  0  0  0  0  0  0  0  0
   25.9799    6.9350   55.3749 C   0  0  0  0  0  0  0  0  0  0  0  0
   25.8239    8.1666   55.7085 O   0  0  0  0  0  0  0  0  0  0  0  0
   26.1464    6.7457   53.9164 C   0  0  0  0  0  0  0  0  0  0  0  0
   25.3654    7.6782   53.1757 N   0  0  0  0  0  0  0  0  0  0  0  0
   24.8481    7.5276   51.8565 C   0  0  0  0  0  0  0  0  0  0  0  0
   24.9093    8.5780   51.1291 O   0  0  0  0  0  0  0  0  0  0  0  0
   24.2751    6.3271   51.2817 C   0  0  0  0  0  0  0  0  0  0  0  0
   23.1845    6.4767   50.3633 N   0  0  0  0  0  0  0  0  0  0  0  0
   22.1747    7.4053   50.2230 C   0  0  0  0  0  0  0  0  0  0  0  0
   22.1191    8.0859   49.1643 O   0  0  0  0  0  0  0  0  0  0  0  0
   21.9290    7.2970   53.0119 H   0  0  0  0  0  0  0  0  0  0  0  0
   18.4824    4.5159   55.2096 H   0  0  0  0  0  0  0  0  0  0  0  0
   22.7334    6.4191   54.9515 H   0  0  0  0  0  0  0  0  0  0  0  0
   26.7748    6.0293   57.1054 H   0  0  0  0  0  0  0  0  0  0  0  0
   25.1378    8.5983   53.6582 H   0  0  0  0  0  0  0  0  0  0  0  0
   23.1638    5.6821   49.6202 H   0  0  0  0  0  0  0  0  0  0  0  0
   22.6495    9.7193   51.3562 C   0  0  0  0  0  0  0  0  0  0  0  0
   21.2501    9.2083   51.5573 C   0  0  0  0  0  0  0  0  0  0  0  0
   20.2648   10.1169   50.8556 C   0  0  0  0  0  0  0  0  0  0  0  0
   18.2187    6.5287   53.5710 C   0  0  0  0  0  0  0  0  0  0  0  0
   16.8208    5.9968   53.4744 C   0  0  0  0  0  0  0  0  0  0  0  0
   18.3193    7.3281   54.8765 C   0  0  0  0  0  0  0  0  0  0  0  0
   20.8665    6.9358   56.5011 C   0  0  0  0  0  0  0  0  0  0  0  0
   21.4827    7.9903   55.7156 C   0  0  0  0  0  0  0  0  0  0  0  0
   22.2427    7.8960   54.5612 C   0  0  0  0  0  0  0  0  0  0  0  0
   22.6235    9.1151   54.1420 N   0  0  0  0  0  0  0  0  0  0  0  0
   22.1195   10.0057   55.0114 C   0  0  0  0  0  0  0  0  0  0  0  0
   22.1942   11.3889   55.0712 C   0  0  0  0  0  0  0  0  0  0  0  0
   21.5916   12.1247   56.0676 C   0  0  0  0  0  0  0  0  0  0  0  0
   20.8803   11.4244   57.0489 C   0  0  0  0  0  0  0  0  0  0  0  0
   20.7920   10.0614   57.0124 C   0  0  0  0  0  0  0  0  0  0  0  0
   21.4032    9.3516   56.0062 C   0  0  0  0  0  0  0  0  0  0  0  0
   23.2047    9.3678   53.3004 H   0  0  0  0  0  0  0  0  0  0  0  0
   24.5260    4.8867   58.0999 C   0  0  0  0  0  0  0  0  0  0  0  0
   23.8265    3.5981   58.4187 C   0  0  0  0  0  0  0  0  0  0  0  0
   23.8653    2.5260   57.5530 C   0  0  0  0  0  0  0  0  0  0  0  0
   23.2274    1.3322   57.7917 C   0  0  0  0  0  0  0  0  0  0  0  0
   22.5165    1.2349   58.9746 C   0  0  0  0  0  0  0  0  0  0  0  0
   21.8672    0.0459   59.2377 O   0  0  0  0  0  0  0  0  0  0  0  0
   22.4672    2.3102   59.8611 C   0  0  0  0  0  0  0  0  0  0  0  0
   23.1169    3.4791   59.5829 C   0  0  0  0  0  0  0  0  0  0  0  0
   22.3855   -0.6662   59.7438 H   0  0  0  0  0  0  0  0  0  0  0  0
   27.6485    6.8492   53.5891 C   0  0  0  0  0  0  0  0  0  0  0  0
   28.2866    8.0463   54.1137 C   0  0  0  0  0  0  0  0  0  0  0  0
   29.5067    8.4542   53.6343 C   0  0  0  0  0  0  0  0  0  0  0  0
   30.1109    9.6002   54.1579 C   0  0  0  0  0  0  0  0  0  0  0  0
   29.5075   10.3327   55.1479 C   0  0  0  0  0  0  0  0  0  0  0  0
   30.1235   11.4794   55.6641 O   0  0  0  0  0  0  0  0  0  0  0  0
   28.2779    9.9256   55.6341 C   0  0  0  0  0  0  0  0  0  0  0  0
   27.6824    8.7824   55.1073 C   0  0  0  0  0  0  0  0  0  0  0  0
   29.6476   11.9935   56.3931 H   0  0  0  0  0  0  0  0  0  0  0  0
   25.4141    5.5683   50.5827 C   0  0  0  0  0  0  0  0  0  0  0  0
   25.6473    4.2378   51.1806 C   0  0  0  0  0  0  0  0  0  0  0  0
   24.9769    3.5647   52.1709 C   0  0  0  0  0  0  0  0  0  0  0  0
   25.5634    2.3727   52.3774 N   0  0  0  0  0  0  0  0  0  0  0  0
   26.5945    2.2983   51.5226 C   0  0  0  0  0  0  0  0  0  0  0  0
   26.6542    3.4133   50.7989 N   0  0  0  0  0  0  0  0  0  0  0  0
   27.3804    3.6045   50.0497 H   0  0  0  0  0  0  0  0  0  0  0  0
 31 32  1  0  0  0
 32 33  1  0  0  0
 32  1  1  0  0  0
  1  2  1  0  0  0
  2  3  1  0  0  0
  3  4  2  0  0  0
  3  5  1  0  0  0
  5  6  1  0  0  0
  6  7  1  0  0  0
  7  8  2  0  0  0
  7  9  1  0  0  0
  9 37  1  0  0  0
 37 38  1  0  0  0
 38 39  2  0  0  0
 39 40  1  0  0  0
 40 41  1  0  0  0
 41 42  2  0  0  0
 42 43  1  0  0  0
 43 44  2  0  0  0
 44 45  1  0  0  0
 45 46  2  0  0  0
  9 10  1  0  0  0
 10 11  1  0  0  0
 11 12  2  0  0  0
 11 13  1  0  0  0
 13 48  1  0  0  0
 48 49  1  0  0  0
 49 50  2  0  0  0
 50 51  1  0  0  0
 51 52  2  0  0  0
 52 53  1  0  0  0
 52 54  1  0  0  0
 54 55  2  0  0  0
 13 14  1  0  0  0
 14 15  1  0  0  0
 15 16  2  0  0  0
 15 17  1  0  0  0
 17 57  1  0  0  0
 57 58  1  0  0  0
 58 59  2  0  0  0
 59 60  1  0  0  0
 60 61  2  0  0  0
 61 62  1  0  0  0
 61 63  1  0  0  0
 63 64  2  0  0  0
 17 18  1  0  0  0
 18 19  1  0  0  0
 19 20  2  0  0  0
 19 21  1  0  0  0
 21 66  1  0  0  0
 66 67  1  0  0  0
 67 68  2  0  0  0
 68 69  1  0  0  0
 69 70  2  0  0  0
 70 71  1  0  0  0
 21 22  1  0  0  0
 22 23  1  0  0  0
 23 24  2  0  0  0
  5 34  1  0  0  0
 34 35  1  0  0  0
 34 36  1  0  0  0
 23  1  1  0  0  0
 46 38  1  0  0  0
 55 49  1  0  0  0
 64 58  1  0  0  0
 71 67  1  0  0  0
 46 41  1  0  0  0
  2 25  1  0  0  0
  6 26  1  0  0  0
 40 47  1  0  0  0
 10 27  1  0  0  0
 53 56  1  0  0  0
 14 28  1  0  0  0
 62 65  1  0  0  0
 18 29  1  0  0  0
 71 72  1  0  0  0
 22 30  1  0  0  0
M  END
> <minimizedAffinity>
208.48306

> <CNNscore>
0.0265475735

> <CNNaffinity>
4.5732469559

> <CNN_VS>
0.1214086115

> <CNNaffinity_variance>
9.5048580170

$$$$
[H]Oc1c([H])c([H])c(C([H])([H])[C@@]2([H])C(=O)N([H])[C@@]([H])(C([H])([H])c3c([H])c([H])c(O[H])c([H])c3[H])C(=O)N([H])[C@@]([H])(C([H])([H])c3c([H])n([H])c4c([H])c([H])c([H])c([H])c34)C(=O)N([H])[C@@]([H])(C([H])(C([H])([H])[H])C([H])([H])[H])C(=O)N([H])[C@@]([H])(C([H])(C([H])([H])[H])C([H])([H])[H])C(=O)N([H])[C@@]([H])(C([H])([H])c3c([H])nc([H])n3[H])C(=O)N2[H])c([H])c1[H]


 72 77  0  0  0  0  0  0  0  0999 V2000
   22.5912   11.1315   55.1335 C   0  0  0  0  0  0  0  0  0  0  0  0
   23.8204   10.4147   55.1125 N   0  0  0  0  0  0  0  0  0  0  0  0
   24.9475   10.2989   55.9161 C   0  0  0  0  0  0  0  0  0  0  0  0
   24.9786    9.2563   56.7380 O   0  0  0  0  0  0  0  0  0  0  0  0
   26.1722   11.0782   56.0848 C   0  0  0  0  0  0  0  0  0  0  0  0
   27.4179   10.3493   55.7984 N   0  0  0  0  0  0  0  0  0  0  0  0
   27.6976    9.1503   55.2302 C   0  0  0  0  0  0  0  0  0  0  0  0
   28.2864    8.2620   55.9643 O   0  0  0  0  0  0  0  0  0  0  0  0
   27.4537    8.6012   53.8407 C   0  0  0  0  0  0  0  0  0  0  0  0
   26.3167    7.7082   53.8344 N   0  0  0  0  0  0  0  0  0  0  0  0
   26.1519    6.3591   54.0736 C   0  0  0  0  0  0  0  0  0  0  0  0
   25.7060    5.9885   55.2407 O   0  0  0  0  0  0  0  0  0  0  0  0
   26.4066    5.1952   53.1829 C   0  0  0  0  0  0  0  0  0  0  0  0
   25.3437    4.9428   52.2346 N   0  0  0  0  0  0  0  0  0  0  0  0
   24.1247    5.6105   52.0601 C   0  0  0  0  0  0  0  0  0  0  0  0
   23.9483    6.2440   50.9556 O   0  0  0  0  0  0  0  0  0  0  0  0
   22.9650    5.7055   52.9750 C   0  0  0  0  0  0  0  0  0  0  0  0
   22.3259    6.9745   52.8786 N   0  0  0  0  0  0  0  0  0  0  0  0
   21.5589    7.6417   53.8771 C   0  0  0  0  0  0  0  0  0  0  0  0
   20.5152    8.2421   53.4453 O   0  0  0  0  0  0  0  0  0  0  0  0
   21.8466    7.7004   55.2962 C   0  0  0  0  0  0  0  0  0  0  0  0
   21.5247    8.9087   55.9974 N   0  0  0  0  0  0  0  0  0  0  0  0
   21.4666   10.2375   55.6332 C   0  0  0  0  0  0  0  0  0  0  0  0
   20.3623   10.8393   55.7077 O   0  0  0  0  0  0  0  0  0  0  0  0
   23.8475    9.7740   54.2309 H   0  0  0  0  0  0  0  0  0  0  0  0
   28.2564   10.9347   56.1434 H   0  0  0  0  0  0  0  0  0  0  0  0
   25.4121    8.2426   53.6092 H   0  0  0  0  0  0  0  0  0  0  0  0
   25.5379    4.1208   51.5795 H   0  0  0  0  0  0  0  0  0  0  0  0
   22.4289    7.4909   51.9545 H   0  0  0  0  0  0  0  0  0  0  0  0
   21.2694    8.7218   57.0385 H   0  0  0  0  0  0  0  0  0  0  0  0
   21.8731   10.4421   52.7989 C   0  0  0  0  0  0  0  0  0  0  0  0
   22.1873   11.5718   53.7396 C   0  0  0  0  0  0  0  0  0  0  0  0
   21.0493   12.5687   53.7446 C   0  0  0  0  0  0  0  0  0  0  0  0
   26.2266   12.4657   55.5591 C   0  0  0  0  0  0  0  0  0  0  0  0
   24.9926   13.2800   55.8052 C   0  0  0  0  0  0  0  0  0  0  0  0
   27.4054   13.2077   56.2020 C   0  0  0  0  0  0  0  0  0  0  0  0
   27.2482    9.7350   52.8644 C   0  0  0  0  0  0  0  0  0  0  0  0
   27.7153    9.5138   51.5073 C   0  0  0  0  0  0  0  0  0  0  0  0
   28.0950    8.3328   50.8906 C   0  0  0  0  0  0  0  0  0  0  0  0
   28.4607    8.5581   49.6168 N   0  0  0  0  0  0  0  0  0  0  0  0
   28.3235    9.8753   49.3949 C   0  0  0  0  0  0  0  0  0  0  0  0
   28.5532   10.6562   48.2724 C   0  0  0  0  0  0  0  0  0  0  0  0
   28.3431   12.0174   48.2567 C   0  0  0  0  0  0  0  0  0  0  0  0
   27.8783   12.6140   49.4347 C   0  0  0  0  0  0  0  0  0  0  0  0
   27.6445   11.8663   50.5542 C   0  0  0  0  0  0  0  0  0  0  0  0
   27.8627   10.5091   50.5423 C   0  0  0  0  0  0  0  0  0  0  0  0
   28.7962    7.8649   48.8980 H   0  0  0  0  0  0  0  0  0  0  0  0
   27.7846    5.2899   52.5475 C   0  0  0  0  0  0  0  0  0  0  0  0
   28.3274    3.9381   52.1878 C   0  0  0  0  0  0  0  0  0  0  0  0
   29.5869    3.7898   51.6476 C   0  0  0  0  0  0  0  0  0  0  0  0
   30.1215    2.5763   51.2862 C   0  0  0  0  0  0  0  0  0  0  0  0
   29.3254    1.4631   51.4890 C   0  0  0  0  0  0  0  0  0  0  0  0
   29.8397    0.2325   51.1344 O   0  0  0  0  0  0  0  0  0  0  0  0
   28.0488    1.5959   52.0344 C   0  0  0  0  0  0  0  0  0  0  0  0
   27.5576    2.8228   52.3794 C   0  0  0  0  0  0  0  0  0  0  0  0
   30.3578   -0.2780   51.8434 H   0  0  0  0  0  0  0  0  0  0  0  0
   22.0073    4.5416   52.6557 C   0  0  0  0  0  0  0  0  0  0  0  0
   20.6290    4.7848   53.0513 C   0  0  0  0  0  0  0  0  0  0  0  0
   19.8757    3.7823   53.6102 C   0  0  0  0  0  0  0  0  0  0  0  0
   18.5495    4.0301   53.9737 C   0  0  0  0  0  0  0  0  0  0  0  0
   17.9786    5.2625   53.7832 C   0  0  0  0  0  0  0  0  0  0  0  0
   16.6485    5.4979   54.1519 O   0  0  0  0  0  0  0  0  0  0  0  0
   18.7337    6.2759   53.2204 C   0  0  0  0  0  0  0  0  0  0  0  0
   20.0546    6.0209   52.8607 C   0  0  0  0  0  0  0  0  0  0  0  0
   16.2627    6.4194   53.9962 H   0  0  0  0  0  0  0  0  0  0  0  0
   21.1073    6.5278   55.9597 C   0  0  0  0  0  0  0  0  0  0  0  0
   22.0364    5.5667   56.5882 C   0  0  0  0  0  0  0  0  0  0  0  0
   23.2088    5.0175   56.1335 C   0  0  0  0  0  0  0  0  0  0  0  0
   23.7048    4.1863   57.0667 N   0  0  0  0  0  0  0  0  0  0  0  0
   22.8496    4.2139   58.0998 C   0  0  0  0  0  0  0  0  0  0  0  0
   21.8437    5.0398   57.8230 N   0  0  0  0  0  0  0  0  0  0  0  0
   21.0331    5.2389   58.4777 H   0  0  0  0  0  0  0  0  0  0  0  0
 31 32  1  0  0  0
 32 33  1  0  0  0
 32  1  1  0  0  0
  1  2  1  0  0  0
  2  3  1  0  0  0
  3  4  2  0  0  0
  3  5  1  0  0  0
  5  6  1  0  0  0
  6  7  1  0  0  0
  7  8  2  0  0  0
  7  9  1  0  0  0
  9 37  1  0  0  0
 37 38  1  0  0  0
 38 39  2  0  0  0
 39 40  1  0  0  0
 40 41  1  0  0  0
 41 42  2  0  0  0
 42 43  1  0  0  0
 43 44  2  0  0  0
 44 45  1  0  0  0
 45 46  2  0  0  0
  9 10  1  0  0  0
 10 11  1  0  0  0
 11 12  2  0  0  0
 11 13  1  0  0  0
 13 48  1  0  0  0
 48 49  1  0  0  0
 49 50  2  0  0  0
 50 51  1  0  0  0
 51 52  2  0  0  0
 52 53  1  0  0  0
 52 54  1  0  0  0
 54 55  2  0  0  0
 13 14  1  0  0  0
 14 15  1  0  0  0
 15 16  2  0  0  0
 15 17  1  0  0  0
 17 57  1  0  0  0
 57 58  1  0  0  0
 58 59  2  0  0  0
 59 60  1  0  0  0
 60 61  2  0  0  0
 61 62  1  0  0  0
 61 63  1  0  0  0
 63 64  2  0  0  0
 17 18  1  0  0  0
 18 19  1  0  0  0
 19 20  2  0  0  0
 19 21  1  0  0  0
 21 66  1  0  0  0
 66 67  1  0  0  0
 67 68  2  0  0  0
 68 69  1  0  0  0
 69 70  2  0  0  0
 70 71  1  0  0  0
 21 22  1  0  0  0
 22 23  1  0  0  0
 23 24  2  0  0  0
  5 34  1  0  0  0
 34 35  1  0  0  0
 34 36  1  0  0  0
 23  1  1  0  0  0
 46 38  1  0  0  0
 55 49  1  0  0  0
 64 58  1  0  0  0
 71 67  1  0  0  0
 46 41  1  0  0  0
  2 25  1  0  0  0
  6 26  1  0  0  0
 40 47  1  0  0  0
 10 27  1  0  0  0
 53 56  1  0  0  0
 14 28  1  0  0  0
 62 65  1  0  0  0
 18 29  1  0  0  0
 71 72  1  0  0  0
 22 30  1  0  0  0
M  END
> <minimizedAffinity>
139.67851

> <CNNscore>
0.0178026892

> <CNNaffinity>
5.9236540794

> <CNN_VS>
0.1054569706

> <CNNaffinity_variance>
5.0532383919

$$$$
[H]Oc1c([H])c([H])c(C([H])([H])[C@@]2([H])C(=O)N([H])[C@@]([H])(C([H])([H])c3c([H])c([H])c(O[H])c([H])c3[H])C(=O)N([H])[C@@]([H])(C([H])([H])c3c([H])n([H])c4c([H])c([H])c([H])c([H])c34)C(=O)N([H])[C@@]([H])(C([H])(C([H])([H])[H])C([H])([H])[H])C(=O)N([H])[C@@]([H])(C([H])(C([H])([H])[H])C([H])([H])[H])C(=O)N([H])[C@@]([H])(C([H])([H])c3c([H])nc([H])n3[H])C(=O)N2[H])c([H])c1[H]


 72 77  0  0  0  0  0  0  0  0999 V2000
   20.2040    7.3300   55.4631 C   0  0  0  0  0  0  0  0  0  0  0  0
   21.2161    7.0394   54.5058 N   0  0  0  0  0  0  0  0  0  0  0  0
   21.2791    6.6702   53.1682 C   0  0  0  0  0  0  0  0  0  0  0  0
   21.4962    7.6494   52.2979 O   0  0  0  0  0  0  0  0  0  0  0  0
   21.1649    5.4047   52.4462 C   0  0  0  0  0  0  0  0  0  0  0  0
   22.3533    5.0237   51.6667 N   0  0  0  0  0  0  0  0  0  0  0  0
   23.6245    5.4906   51.5996 C   0  0  0  0  0  0  0  0  0  0  0  0
   24.0250    5.9783   50.4698 O   0  0  0  0  0  0  0  0  0  0  0  0
   24.7365    5.5652   52.6241 C   0  0  0  0  0  0  0  0  0  0  0  0
   24.8656    6.9080   53.1441 N   0  0  0  0  0  0  0  0  0  0  0  0
   25.5612    8.0312   52.7452 C   0  0  0  0  0  0  0  0  0  0  0  0
   24.9152    8.9614   52.1006 O   0  0  0  0  0  0  0  0  0  0  0  0
   26.9941    8.3822   52.9357 C   0  0  0  0  0  0  0  0  0  0  0  0
   27.2943    8.9186   54.2452 N   0  0  0  0  0  0  0  0  0  0  0  0
   26.4384    9.1718   55.3247 C   0  0  0  0  0  0  0  0  0  0  0  0
   26.6078    8.4755   56.3919 O   0  0  0  0  0  0  0  0  0  0  0  0
   25.3320   10.1484   55.4388 C   0  0  0  0  0  0  0  0  0  0  0  0
   24.2664    9.6402   56.2352 N   0  0  0  0  0  0  0  0  0  0  0  0
   22.8879    9.9966   56.1761 C   0  0  0  0  0  0  0  0  0  0  0  0
   22.3073   10.0994   57.3112 O   0  0  0  0  0  0  0  0  0  0  0  0
   22.1072   10.2452   54.9808 C   0  0  0  0  0  0  0  0  0  0  0  0
   20.7312    9.8429   54.9816 N   0  0  0  0  0  0  0  0  0  0  0  0
   20.0316    8.8341   55.6098 C   0  0  0  0  0  0  0  0  0  0  0  0
   19.1170    9.1431   56.4193 O   0  0  0  0  0  0  0  0  0  0  0  0
   22.1951    7.1744   54.9661 H   0  0  0  0  0  0  0  0  0  0  0  0
   22.1007    4.1976   51.0197 H   0  0  0  0  0  0  0  0  0  0  0  0
   24.2623    7.0370   54.0238 H   0  0  0  0  0  0  0  0  0  0  0  0
   28.3282    9.1487   54.3892 H   0  0  0  0  0  0  0  0  0  0  0  0
   24.5225    8.9076   56.9625 H   0  0  0  0  0  0  0  0  0  0  0  0
   20.1178   10.4821   54.3498 H   0  0  0  0  0  0  0  0  0  0  0  0
   20.7912    5.3293   56.9100 C   0  0  0  0  0  0  0  0  0  0  0  0
   20.5841    6.8165   56.8386 C   0  0  0  0  0  0  0  0  0  0  0  0
   21.7828    7.5315   57.4223 C   0  0  0  0  0  0  0  0  0  0  0  0
   20.5710    4.2297   53.1327 C   0  0  0  0  0  0  0  0  0  0  0  0
   19.1535    4.4148   53.5829 C   0  0  0  0  0  0  0  0  0  0  0  0
   20.6019    3.0201   52.1897 C   0  0  0  0  0  0  0  0  0  0  0  0
   24.4784    4.5821   53.7411 C   0  0  0  0  0  0  0  0  0  0  0  0
   23.9251    5.1268   54.9683 C   0  0  0  0  0  0  0  0  0  0  0  0
   23.4202    6.3923   55.2184 C   0  0  0  0  0  0  0  0  0  0  0  0
   22.9984    6.4928   56.4908 N   0  0  0  0  0  0  0  0  0  0  0  0
   23.2227    5.3048   57.0750 C   0  0  0  0  0  0  0  0  0  0  0  0
   22.9860    4.8435   58.3609 C   0  0  0  0  0  0  0  0  0  0  0  0
   23.2966    3.5627   58.7614 C   0  0  0  0  0  0  0  0  0  0  0  0
   23.8742    2.7104   57.8130 C   0  0  0  0  0  0  0  0  0  0  0  0
   24.1177    3.1411   56.5393 C   0  0  0  0  0  0  0  0  0  0  0  0
   23.7977    4.4250   56.1662 C   0  0  0  0  0  0  0  0  0  0  0  0
   22.5694    7.3236   56.9762 H   0  0  0  0  0  0  0  0  0  0  0  0
   27.8944    7.2278   52.5255 C   0  0  0  0  0  0  0  0  0  0  0  0
   28.3729    7.3687   51.1103 C   0  0  0  0  0  0  0  0  0  0  0  0
   28.2230    8.5496   50.4151 C   0  0  0  0  0  0  0  0  0  0  0  0
   28.6287    8.7226   49.1134 C   0  0  0  0  0  0  0  0  0  0  0  0
   29.2158    7.6320   48.4969 C   0  0  0  0  0  0  0  0  0  0  0  0
   29.6321    7.7805   47.1895 O   0  0  0  0  0  0  0  0  0  0  0  0
   29.3747    6.4302   49.1861 C   0  0  0  0  0  0  0  0  0  0  0  0
   28.9563    6.3030   50.4801 C   0  0  0  0  0  0  0  0  0  0  0  0
   30.5829    8.1038   47.0370 H   0  0  0  0  0  0  0  0  0  0  0  0
   25.9092   11.4614   56.0016 C   0  0  0  0  0  0  0  0  0  0  0  0
   26.9327   11.2698   57.0171 C   0  0  0  0  0  0  0  0  0  0  0  0
   27.4330   12.3411   57.7150 C   0  0  0  0  0  0  0  0  0  0  0  0
   28.4244   12.1404   58.6789 C   0  0  0  0  0  0  0  0  0  0  0  0
   28.9130   10.8870   58.9459 C   0  0  0  0  0  0  0  0  0  0  0  0
   29.9065   10.6993   59.9145 O   0  0  0  0  0  0  0  0  0  0  0  0
   28.4119    9.8044   58.2453 C   0  0  0  0  0  0  0  0  0  0  0  0
   27.4240   10.0127   57.2861 C   0  0  0  0  0  0  0  0  0  0  0  0
   30.2414    9.7604   60.0835 H   0  0  0  0  0  0  0  0  0  0  0  0
   22.1850   11.7525   54.6913 C   0  0  0  0  0  0  0  0  0  0  0  0
   21.8777   12.0662   53.2809 C   0  0  0  0  0  0  0  0  0  0  0  0
   21.7414   13.2688   52.6342 C   0  0  0  0  0  0  0  0  0  0  0  0
   21.4568   13.0500   51.3384 N   0  0  0  0  0  0  0  0  0  0  0  0
   21.4150   11.7194   51.1734 C   0  0  0  0  0  0  0  0  0  0  0  0
   21.6663   11.1187   52.3338 N   0  0  0  0  0  0  0  0  0  0  0  0
   21.6924   10.0673   52.4721 H   0  0  0  0  0  0  0  0  0  0  0  0
 31 32  1  0  0  0
 32 33  1  0  0  0
 32  1  1  0  0  0
  1  2  1  0  0  0
  2  3  1  0  0  0
  3  4  2  0  0  0
  3  5  1  0  0  0
  5  6  1  0  0  0
  6  7  1  0  0  0
  7  8  2  0  0  0
  7  9  1  0  0  0
  9 37  1  0  0  0
 37 38  1  0  0  0
 38 39  2  0  0  0
 39 40  1  0  0  0
 40 41  1  0  0  0
 41 42  2  0  0  0
 42 43  1  0  0  0
 43 44  2  0  0  0
 44 45  1  0  0  0
 45 46  2  0  0  0
  9 10  1  0  0  0
 10 11  1  0  0  0
 11 12  2  0  0  0
 11 13  1  0  0  0
 13 48  1  0  0  0
 48 49  1  0  0  0
 49 50  2  0  0  0
 50 51  1  0  0  0
 51 52  2  0  0  0
 52 53  1  0  0  0
 52 54  1  0  0  0
 54 55  2  0  0  0
 13 14  1  0  0  0
 14 15  1  0  0  0
 15 16  2  0  0  0
 15 17  1  0  0  0
 17 57  1  0  0  0
 57 58  1  0  0  0
 58 59  2  0  0  0
 59 60  1  0  0  0
 60 61  2  0  0  0
 61 62  1  0  0  0
 61 63  1  0  0  0
 63 64  2  0  0  0
 17 18  1  0  0  0
 18 19  1  0  0  0
 19 20  2  0  0  0
 19 21  1  0  0  0
 21 66  1  0  0  0
 66 67  1  0  0  0
 67 68  2  0  0  0
 68 69  1  0  0  0
 69 70  2  0  0  0
 70 71  1  0  0  0
 21 22  1  0  0  0
 22 23  1  0  0  0
 23 24  2  0  0  0
  5 34  1  0  0  0
 34 35  1  0  0  0
 34 36  1  0  0  0
 23  1  1  0  0  0
 46 38  1  0  0  0
 55 49  1  0  0  0
 64 58  1  0  0  0
 71 67  1  0  0  0
 46 41  1  0  0  0
  2 25  1  0  0  0
  6 26  1  0  0  0
 40 47  1  0  0  0
 10 27  1  0  0  0
 53 56  1  0  0  0
 14 28  1  0  0  0
 62 65  1  0  0  0
 18 29  1  0  0  0
 71 72  1  0  0  0
 22 30  1  0  0  0
M  END
> <minimizedAffinity>
133.91626

> <CNNscore>
0.0175051894

> <CNNaffinity>
6.0836305618

> <CNN_VS>
0.1064951047

> <CNNaffinity_variance>
4.7040977478

$$$$
[H]Oc1c([H])c([H])c(C([H])([H])[C@@]2([H])C(=O)N([H])[C@@]([H])(C([H])([H])c3c([H])c([H])c(O[H])c([H])c3[H])C(=O)N([H])[C@@]([H])(C([H])([H])c3c([H])n([H])c4c([H])c([H])c([H])c([H])c34)C(=O)N([H])[C@@]([H])(C([H])(C([H])([H])[H])C([H])([H])[H])C(=O)N([H])[C@@]([H])(C([H])(C([H])([H])[H])C([H])([H])[H])C(=O)N([H])[C@@]([H])(C([H])([H])c3c([H])nc([H])n3[H])C(=O)N2[H])c([H])c1[H]


 72 77  0  0  0  0  0  0  0  0999 V2000
   20.5905    3.9876   52.9297 C   0  0  0  0  0  0  0  0  0  0  0  0
   21.8524    4.6066   53.1522 N   0  0  0  0  0  0  0  0  0  0  0  0
   23.1085    4.6042   52.5590 C   0  0  0  0  0  0  0  0  0  0  0  0
   23.3698    5.6099   51.7321 O   0  0  0  0  0  0  0  0  0  0  0  0
   24.2745    3.7259   52.6283 C   0  0  0  0  0  0  0  0  0  0  0  0
   25.5072    4.3656   53.1145 N   0  0  0  0  0  0  0  0  0  0  0  0
   25.7820    5.5594   53.6958 C   0  0  0  0  0  0  0  0  0  0  0  0
   26.5622    6.3711   53.0579 O   0  0  0  0  0  0  0  0  0  0  0  0
   25.3453    6.1771   55.0071 C   0  0  0  0  0  0  0  0  0  0  0  0
   24.3032    7.1557   54.7912 N   0  0  0  0  0  0  0  0  0  0  0  0
   24.2959    8.5037   54.4958 C   0  0  0  0  0  0  0  0  0  0  0  0
   24.0936    8.8643   53.2600 O   0  0  0  0  0  0  0  0  0  0  0  0
   24.4867    9.6764   55.3908 C   0  0  0  0  0  0  0  0  0  0  0  0
   23.2991   10.0461   56.1293 N   0  0  0  0  0  0  0  0  0  0  0  0
   22.0170    9.4825   56.0998 C   0  0  0  0  0  0  0  0  0  0  0  0
   21.5978    8.9061   57.1696 O   0  0  0  0  0  0  0  0  0  0  0  0
   21.0316    9.4443   54.9961 C   0  0  0  0  0  0  0  0  0  0  0  0
   20.2820    8.2335   55.0064 N   0  0  0  0  0  0  0  0  0  0  0  0
   19.6487    7.5915   53.9030 C   0  0  0  0  0  0  0  0  0  0  0  0
   18.4992    7.0909   54.1563 O   0  0  0  0  0  0  0  0  0  0  0  0
   20.1745    7.4579   52.5592 C   0  0  0  0  0  0  0  0  0  0  0  0
   19.8808    6.2532   51.8398 N   0  0  0  0  0  0  0  0  0  0  0  0
   19.6493    4.9474   52.2180 C   0  0  0  0  0  0  0  0  0  0  0  0
   18.5288    4.4313   51.9624 O   0  0  0  0  0  0  0  0  0  0  0  0
   21.7780    5.2756   54.0098 H   0  0  0  0  0  0  0  0  0  0  0  0
   26.3414    3.7042   52.9373 H   0  0  0  0  0  0  0  0  0  0  0  0
   23.3318    6.7023   54.8643 H   0  0  0  0  0  0  0  0  0  0  0  0
   23.4434   10.8742   56.7896 H   0  0  0  0  0  0  0  0  0  0  0  0
   20.1781    7.7454   55.9456 H   0  0  0  0  0  0  0  0  0  0  0  0
   19.8281    6.4207   50.7659 H   0  0  0  0  0  0  0  0  0  0  0  0
   18.4750    4.0592   54.3300 C   0  0  0  0  0  0  0  0  0  0  0  0
   19.9135    3.6322   54.2394 C   0  0  0  0  0  0  0  0  0  0  0  0
   20.0374    2.1648   54.5859 C   0  0  0  0  0  0  0  0  0  0  0  0
   24.1201    2.3590   53.1867 C   0  0  0  0  0  0  0  0  0  0  0  0
   23.0053    1.5569   52.5866 C   0  0  0  0  0  0  0  0  0  0  0  0
   25.4204    1.5729   52.9751 C   0  0  0  0  0  0  0  0  0  0  0  0
   24.8783    5.0998   55.9570 C   0  0  0  0  0  0  0  0  0  0  0  0
   23.5750    5.2949   56.5671 C   0  0  0  0  0  0  0  0  0  0  0  0
   22.4528    5.9280   56.0583 C   0  0  0  0  0  0  0  0  0  0  0  0
   21.4421    5.8879   56.9437 N   0  0  0  0  0  0  0  0  0  0  0  0
   21.8928    5.2343   58.0266 C   0  0  0  0  0  0  0  0  0  0  0  0
   21.2879    4.9034   59.2295 C   0  0  0  0  0  0  0  0  0  0  0  0
   21.9419    4.2145   60.2270 C   0  0  0  0  0  0  0  0  0  0  0  0
   23.2715    3.8444   59.9932 C   0  0  0  0  0  0  0  0  0  0  0  0
   23.8902    4.1589   58.8162 C   0  0  0  0  0  0  0  0  0  0  0  0
   23.2137    4.8472   57.8371 C   0  0  0  0  0  0  0  0  0  0  0  0
   20.4692    6.2805   56.8472 H   0  0  0  0  0  0  0  0  0  0  0  0
   25.7195    9.4982   56.2627 C   0  0  0  0  0  0  0  0  0  0  0  0
   26.8819    8.9586   55.4823 C   0  0  0  0  0  0  0  0  0  0  0  0
   28.0282    8.5209   56.1103 C   0  0  0  0  0  0  0  0  0  0  0  0
   29.1249    8.0350   55.4394 C   0  0  0  0  0  0  0  0  0  0  0  0
   29.0404    7.9968   54.0590 C   0  0  0  0  0  0  0  0  0  0  0  0
   30.1287    7.5126   53.3621 O   0  0  0  0  0  0  0  0  0  0  0  0
   27.8879    8.4359   53.4082 C   0  0  0  0  0  0  0  0  0  0  0  0
   26.8208    8.9116   54.1158 C   0  0  0  0  0  0  0  0  0  0  0  0
   30.1538    6.5153   53.1712 H   0  0  0  0  0  0  0  0  0  0  0  0
   20.1332   10.6905   55.1136 C   0  0  0  0  0  0  0  0  0  0  0  0
   20.4853   11.7618   54.1950 C   0  0  0  0  0  0  0  0  0  0  0  0
   21.6496   11.7049   53.4696 C   0  0  0  0  0  0  0  0  0  0  0  0
   21.9781   12.7484   52.6003 C   0  0  0  0  0  0  0  0  0  0  0  0
   21.1568   13.8370   52.4541 C   0  0  0  0  0  0  0  0  0  0  0  0
   21.4975   14.8760   51.5795 O   0  0  0  0  0  0  0  0  0  0  0  0
   19.9825   13.8987   53.1828 C   0  0  0  0  0  0  0  0  0  0  0  0
   19.6623   12.8548   54.0471 C   0  0  0  0  0  0  0  0  0  0  0  0
   20.8665   15.6619   51.4982 H   0  0  0  0  0  0  0  0  0  0  0  0
   19.6631    8.6591   51.7485 C   0  0  0  0  0  0  0  0  0  0  0  0
   20.7409    9.6190   51.4336 C   0  0  0  0  0  0  0  0  0  0  0  0
   22.0774    9.6072   51.7443 C   0  0  0  0  0  0  0  0  0  0  0  0
   22.6642   10.7055   51.2372 N   0  0  0  0  0  0  0  0  0  0  0  0
   21.7025   11.4015   50.6125 C   0  0  0  0  0  0  0  0  0  0  0  0
   20.5432   10.7580   50.7243 N   0  0  0  0  0  0  0  0  0  0  0  0
   19.6254   11.0993   50.3163 H   0  0  0  0  0  0  0  0  0  0  0  0
 31 32  1  0  0  0
 32 33  1  0  0  0
 32  1  1  0  0  0
  1  2  1  0  0  0
  2  3  1  0  0  0
  3  4  2  0  0  0
  3  5  1  0  0  0
  5  6  1  0  0  0
  6  7  1  0  0  0
  7  8  2  0  0  0
  7  9  1  0  0  0
  9 37  1  0  0  0
 37 38  1  0  0  0
 38 39  2  0  0  0
 39 40  1  0  0  0
 40 41  1  0  0  0
 41 42  2  0  0  0
 42 43  1  0  0  0
 43 44  2  0  0  0
 44 45  1  0  0  0
 45 46  2  0  0  0
  9 10  1  0  0  0
 10 11  1  0  0  0
 11 12  2  0  0  0
 11 13  1  0  0  0
 13 48  1  0  0  0
 48 49  1  0  0  0
 49 50  2  0  0  0
 50 51  1  0  0  0
 51 52  2  0  0  0
 52 53  1  0  0  0
 52 54  1  0  0  0
 54 55  2  0  0  0
 13 14  1  0  0  0
 14 15  1  0  0  0
 15 16  2  0  0  0
 15 17  1  0  0  0
 17 57  1  0  0  0
 57 58  1  0  0  0
 58 59  2  0  0  0
 59 60  1  0  0  0
 60 61  2  0  0  0
 61 62  1  0  0  0
 61 63  1  0  0  0
 63 64  2  0  0  0
 17 18  1  0  0  0
 18 19  1  0  0  0
 19 20  2  0  0  0
 19 21  1  0  0  0
 21 66  1  0  0  0
 66 67  1  0  0  0
 67 68  2  0  0  0
 68 69  1  0  0  0
 69 70  2  0  0  0
 70 71  1  0  0  0
 21 22  1  0  0  0
 22 23  1  0  0  0
 23 24  2  0  0  0
  5 34  1  0  0  0
 34 35  1  0  0  0
 34 36  1  0  0  0
 23  1  1  0  0  0
 46 38  1  0  0  0
 55 49  1  0  0  0
 64 58  1  0  0  0
 71 67  1  0  0  0
 46 41  1  0  0  0
  2 25  1  0  0  0
  6 26  1  0  0  0
 40 47  1  0  0  0
 10 27  1  0  0  0
 53 56  1  0  0  0
 14 28  1  0  0  0
 62 65  1  0  0  0
 18 29  1  0  0  0
 71 72  1  0  0  0
 22 30  1  0  0  0
M  END
> <minimizedAffinity>
141.58662

> <CNNscore>
0.0143693509

> <CNNaffinity>
5.7935934067

> <CNN_VS>
0.0832501799

> <CNNaffinity_variance>
3.9465305805

$$$$
[H]N=C(N([H])[H])N([H])C([H])([H])C([H])([H])C([H])([H])[C@@]([H])(C(=O)c1nc([H])c([H])s1)N([H])C(=O)[C@@]1([H])N(C(=O)[C@]([H])(N([H])S(=O)(=O)C([H])([H])c2c([H])c([H])c([H])c([H])c2[H])C([H])([H])c2c([H])c([H])c([H])c([H])c2[H])C([H])([H])C([H])([H])C1([H])[H]


 50 53  0  0  0  0  0  0  0  0999 V2000
   26.8122    9.0394   54.5272 C   0  0  0  0  0  0  0  0  0  0  0  0
   27.3428    9.1874   53.0828 C   0  0  0  0  0  0  0  0  0  0  0  0
   28.7500    8.5810   53.1392 C   0  0  0  0  0  0  0  0  0  0  0  0
   28.5767    7.6092   54.3166 C   0  0  0  0  0  0  0  0  0  0  0  0
   27.9202    8.5307   55.2624 N   0  0  0  0  0  0  0  0  0  0  0  0
   28.3802    8.7737   56.5450 C   0  0  0  0  0  0  0  0  0  0  0  0
   29.4576    8.1582   56.9416 O   0  0  0  0  0  0  0  0  0  0  0  0
   24.9258    7.9204   53.2566 N   0  0  0  0  0  0  0  0  0  0  0  0
   25.6516    8.0843   54.4493 C   0  0  0  0  0  0  0  0  0  0  0  0
   25.2870    7.3979   55.4394 O   0  0  0  0  0  0  0  0  0  0  0  0
   25.1621    8.4372   52.4090 H   0  0  0  0  0  0  0  0  0  0  0  0
   23.7651    6.9860   53.1411 C   0  0  0  0  0  0  0  0  0  0  0  0
   22.6574    7.9262   52.8125 C   0  0  0  0  0  0  0  0  0  0  0  0
   22.0352    7.5951   51.7190 O   0  0  0  0  0  0  0  0  0  0  0  0
   22.1805    9.1101   53.4715 C   0  0  0  0  0  0  0  0  0  0  0  0
   22.0100    9.4924   54.7184 N   0  0  0  0  0  0  0  0  0  0  0  0
   21.5418   10.6455   55.0343 C   0  0  0  0  0  0  0  0  0  0  0  0
   21.2128   11.4963   54.0050 C   0  0  0  0  0  0  0  0  0  0  0  0
   21.6089   10.5576   52.6447 S   0  0  0  0  0  0  0  0  0  0  0  0
   23.5082    6.1629   54.3002 C   0  0  0  0  0  0  0  0  0  0  0  0
   22.4072    5.1783   54.1178 C   0  0  0  0  0  0  0  0  0  0  0  0
   21.0421    5.9171   54.3208 C   0  0  0  0  0  0  0  0  0  0  0  0
   20.1911    5.3830   53.2443 N   0  0  0  0  0  0  0  0  0  0  0  0
   20.1265    5.8367   52.3138 H   0  0  0  0  0  0  0  0  0  0  0  0
   19.9307    2.9696   53.0160 N   0  0  0  0  0  0  0  0  0  0  0  0
   19.4235    4.2124   53.4488 C   0  0  0  0  0  0  0  0  0  0  0  0
   18.2812    4.2877   54.0212 N   0  0  0  0  0  0  0  0  0  0  0  0
   19.2894    2.1717   52.8677 H   0  0  0  0  0  0  0  0  0  0  0  0
   20.9470    2.8086   52.8337 H   0  0  0  0  0  0  0  0  0  0  0  0
   17.8475    5.1626   54.3636 H   0  0  0  0  0  0  0  0  0  0  0  0
   27.8207    9.6635   57.5894 C   0  0  0  0  0  0  0  0  0  0  0  0
   28.7620   10.7587   57.8884 N   0  0  0  0  0  0  0  0  0  0  0  0
   29.5250   10.8327   57.2155 H   0  0  0  0  0  0  0  0  0  0  0  0
   27.9846   12.2212   58.2734 S   0  0  0  0  0  0  0  0  0  0  0  0
   26.5734   12.1533   57.7273 O   0  0  0  0  0  0  0  0  0  0  0  0
   28.6365   13.4164   57.6788 O   0  0  0  0  0  0  0  0  0  0  0  0
   27.8487   12.4766   60.0307 C   0  0  0  0  0  0  0  0  0  0  0  0
   28.8276   13.5499   60.3993 C   0  0  0  0  0  0  0  0  0  0  0  0
   28.4550   14.8732   60.3895 C   0  0  0  0  0  0  0  0  0  0  0  0
   29.3663   15.8411   60.7272 C   0  0  0  0  0  0  0  0  0  0  0  0
   30.6731   15.5512   61.0867 C   0  0  0  0  0  0  0  0  0  0  0  0
   31.0107   14.2163   61.0861 C   0  0  0  0  0  0  0  0  0  0  0  0
   30.1149   13.2238   60.7510 C   0  0  0  0  0  0  0  0  0  0  0  0
   27.5614    8.9643   58.8784 C   0  0  0  0  0  0  0  0  0  0  0  0
   28.7673    8.8077   59.7343 C   0  0  0  0  0  0  0  0  0  0  0  0
   29.3757    9.9342   60.2462 C   0  0  0  0  0  0  0  0  0  0  0  0
   30.5022    9.8437   61.0354 C   0  0  0  0  0  0  0  0  0  0  0  0
   31.0330    8.6009   61.3197 C   0  0  0  0  0  0  0  0  0  0  0  0
   30.4363    7.4518   60.8145 C   0  0  0  0  0  0  0  0  0  0  0  0
   29.3116    7.5678   60.0285 C   0  0  0  0  0  0  0  0  0  0  0  0
 25 26  1  0  0  0
 26 27  2  0  0  0
 26 23  1  0  0  0
 23 22  1  0  0  0
 22 21  1  0  0  0
 21 20  1  0  0  0
 20 12  1  0  0  0
 12  8  1  0  0  0
  8  9  1  0  0  0
  9 10  2  0  0  0
  9  1  1  0  0  0
  1  2  1  0  0  0
  2  3  1  0  0  0
  3  4  1  0  0  0
  4  5  1  0  0  0
  5  6  1  0  0  0
  6  7  2  0  0  0
  6 31  1  0  0  0
 31 44  1  0  0  0
 44 45  1  0  0  0
 45 46  2  0  0  0
 46 47  1  0  0  0
 47 48  2  0  0  0
 48 49  1  0  0  0
 49 50  2  0  0  0
 31 32  1  0  0  0
 32 34  1  0  0  0
 34 35  2  0  0  0
 34 36  2  0  0  0
 34 37  1  0  0  0
 37 38  1  0  0  0
 38 39  2  0  0  0
 39 40  1  0  0  0
 40 41  2  0  0  0
 41 42  1  0  0  0
 42 43  2  0  0  0
 12 13  1  0  0  0
 13 14  2  0  0  0
 13 15  1  0  0  0
 15 16  2  0  0  0
 16 17  1  0  0  0
 17 18  2  0  0  0
 18 19  1  0  0  0
  5  1  1  0  0  0
 50 45  1  0  0  0
 43 38  1  0  0  0
 19 15  1  0  0  0
 25 28  1  0  0  0
 25 29  1  0  0  0
 27 30  1  0  0  0
 23 24  1  0  0  0
  8 11  1  0  0  0
 32 33  1  0  0  0
M  END
> <minimizedAffinity>
15.59395

> <CNNscore>
0.5525531769

> <CNNaffinity>
7.0199289322

> <CNN_VS>
3.8788840771

> <CNNaffinity_variance>
0.3874928951

$$$$
[H]N=C(N([H])[H])N([H])C([H])([H])C([H])([H])C([H])([H])[C@@]([H])(C(=O)c1nc([H])c([H])s1)N([H])C(=O)[C@@]1([H])N(C(=O)[C@]([H])(N([H])S(=O)(=O)C([H])([H])c2c([H])c([H])c([H])c([H])c2[H])C([H])([H])c2c([H])c([H])c([H])c([H])c2[H])C([H])([H])C([H])([H])C1([H])[H]


 50 53  0  0  0  0  0  0  0  0999 V2000
   24.7553    8.0503   53.0036 C   0  0  0  0  0  0  0  0  0  0  0  0
   23.9073    6.8353   52.5624 C   0  0  0  0  0  0  0  0  0  0  0  0
   24.5585    5.6467   53.2796 C   0  0  0  0  0  0  0  0  0  0  0  0
   25.1810    6.3684   54.4846 C   0  0  0  0  0  0  0  0  0  0  0  0
   25.8191    7.4844   53.7621 N   0  0  0  0  0  0  0  0  0  0  0  0
   27.1618    7.8029   53.8687 C   0  0  0  0  0  0  0  0  0  0  0  0
   27.9093    7.0741   54.6478 O   0  0  0  0  0  0  0  0  0  0  0  0
   22.8726    9.7371   53.1910 N   0  0  0  0  0  0  0  0  0  0  0  0
   23.8382    8.9269   53.8134 C   0  0  0  0  0  0  0  0  0  0  0  0
   23.8964    8.9694   55.0700 O   0  0  0  0  0  0  0  0  0  0  0  0
   22.7597    9.7551   52.1770 H   0  0  0  0  0  0  0  0  0  0  0  0
   21.9475   10.6241   53.9600 C   0  0  0  0  0  0  0  0  0  0  0  0
   20.9764    9.6370   54.5092 C   0  0  0  0  0  0  0  0  0  0  0  0
   20.3184   10.1051   55.5292 O   0  0  0  0  0  0  0  0  0  0  0  0
   20.6605    8.2899   54.1236 C   0  0  0  0  0  0  0  0  0  0  0  0
   19.9053    7.7227   53.2081 N   0  0  0  0  0  0  0  0  0  0  0  0
   19.7972    6.4489   53.0875 C   0  0  0  0  0  0  0  0  0  0  0  0
   20.5121    5.6691   53.9663 C   0  0  0  0  0  0  0  0  0  0  0  0
   21.2950    6.8460   54.9099 S   0  0  0  0  0  0  0  0  0  0  0  0
   21.3323   11.6902   53.2039 C   0  0  0  0  0  0  0  0  0  0  0  0
   21.6424   11.6641   51.7485 C   0  0  0  0  0  0  0  0  0  0  0  0
   21.8508   13.1363   51.2590 C   0  0  0  0  0  0  0  0  0  0  0  0
   20.5746   13.7966   51.5807 N   0  0  0  0  0  0  0  0  0  0  0  0
   19.7436   13.2664   51.9034 H   0  0  0  0  0  0  0  0  0  0  0  0
   19.3309   15.8410   52.0477 N   0  0  0  0  0  0  0  0  0  0  0  0
   20.4409   15.1997   51.4598 C   0  0  0  0  0  0  0  0  0  0  0  0
   21.3220   15.8742   50.8219 N   0  0  0  0  0  0  0  0  0  0  0  0
   19.0442   16.7806   51.7242 H   0  0  0  0  0  0  0  0  0  0  0  0
   18.7692   15.4052   52.8138 H   0  0  0  0  0  0  0  0  0  0  0  0
   22.1597   15.4721   50.3664 H   0  0  0  0  0  0  0  0  0  0  0  0
   27.9237    8.8885   53.2082 C   0  0  0  0  0  0  0  0  0  0  0  0
   28.3723    9.8797   54.2039 N   0  0  0  0  0  0  0  0  0  0  0  0
   28.2087   10.8449   53.9174 H   0  0  0  0  0  0  0  0  0  0  0  0
   27.8916    9.4979   55.7897 S   0  0  0  0  0  0  0  0  0  0  0  0
   28.7823    8.3782   56.2868 O   0  0  0  0  0  0  0  0  0  0  0  0
   26.4858    9.0277   55.8887 O   0  0  0  0  0  0  0  0  0  0  0  0
   28.1024   10.8650   56.9115 C   0  0  0  0  0  0  0  0  0  0  0  0
   28.5487   10.2961   58.2243 C   0  0  0  0  0  0  0  0  0  0  0  0
   29.1238   11.1011   59.1789 C   0  0  0  0  0  0  0  0  0  0  0  0
   29.5284   10.5611   60.3730 C   0  0  0  0  0  0  0  0  0  0  0  0
   29.3855    9.2165   60.6773 C   0  0  0  0  0  0  0  0  0  0  0  0
   28.8053    8.4410   59.6986 C   0  0  0  0  0  0  0  0  0  0  0  0
   28.3899    8.9578   58.4903 C   0  0  0  0  0  0  0  0  0  0  0  0
   27.1243    9.6355   52.1978 C   0  0  0  0  0  0  0  0  0  0  0  0
   27.7904    9.7633   50.8745 C   0  0  0  0  0  0  0  0  0  0  0  0
   28.0016    8.6293   50.1191 C   0  0  0  0  0  0  0  0  0  0  0  0
   28.6247    8.6925   48.8912 C   0  0  0  0  0  0  0  0  0  0  0  0
   29.0462    9.9152   48.4068 C   0  0  0  0  0  0  0  0  0  0  0  0
   28.8437   11.0714   49.1511 C   0  0  0  0  0  0  0  0  0  0  0  0
   28.2188   10.9827   50.3749 C   0  0  0  0  0  0  0  0  0  0  0  0
 25 26  1  0  0  0
 26 27  2  0  0  0
 26 23  1  0  0  0
 23 22  1  0  0  0
 22 21  1  0  0  0
 21 20  1  0  0  0
 20 12  1  0  0  0
 12  8  1  0  0  0
  8  9  1  0  0  0
  9 10  2  0  0  0
  9  1  1  0  0  0
  1  2  1  0  0  0
  2  3  1  0  0  0
  3  4  1  0  0  0
  4  5  1  0  0  0
  5  6  1  0  0  0
  6  7  2  0  0  0
  6 31  1  0  0  0
 31 44  1  0  0  0
 44 45  1  0  0  0
 45 46  2  0  0  0
 46 47  1  0  0  0
 47 48  2  0  0  0
 48 49  1  0  0  0
 49 50  2  0  0  0
 31 32  1  0  0  0
 32 34  1  0  0  0
 34 35  2  0  0  0
 34 36  2  0  0  0
 34 37  1  0  0  0
 37 38  1  0  0  0
 38 39  2  0  0  0
 39 40  1  0  0  0
 40 41  2  0  0  0
 41 42  1  0  0  0
 42 43  2  0  0  0
 12 13  1  0  0  0
 13 14  2  0  0  0
 13 15  1  0  0  0
 15 16  2  0  0  0
 16 17  1  0  0  0
 17 18  2  0  0  0
 18 19  1  0  0  0
  5  1  1  0  0  0
 50 45  1  0  0  0
 43 38  1  0  0  0
 19 15  1  0  0  0
 25 28  1  0  0  0
 25 29  1  0  0  0
 27 30  1  0  0  0
 23 24  1  0  0  0
  8 11  1  0  0  0
 32 33  1  0  0  0
M  END
> <minimizedAffinity>
24.28803

> <CNNscore>
0.5246276855

> <CNNaffinity>
7.0277376175

> <CNN_VS>
3.6869456768

> <CNNaffinity_variance>
0.5233025551

$$$$
[H]N=C(N([H])[H])N([H])C([H])([H])C([H])([H])C([H])([H])[C@@]([H])(C(=O)c1nc([H])c([H])s1)N([H])C(=O)[C@@]1([H])N(C(=O)[C@]([H])(N([H])S(=O)(=O)C([H])([H])c2c([H])c([H])c([H])c([H])c2[H])C([H])([H])c2c([H])c([H])c([H])c([H])c2[H])C([H])([H])C([H])([H])C1([H])[H]


 50 53  0  0  0  0  0  0  0  0999 V2000
   23.0672    8.6743   54.6175 C   0  0  0  0  0  0  0  0  0  0  0  0
   21.6942    8.4254   55.2830 C   0  0  0  0  0  0  0  0  0  0  0  0
   21.7450    9.2638   56.5659 C   0  0  0  0  0  0  0  0  0  0  0  0
   22.7548   10.3415   56.1426 C   0  0  0  0  0  0  0  0  0  0  0  0
   23.7847    9.4578   55.5653 N   0  0  0  0  0  0  0  0  0  0  0  0
   25.1141    9.4712   55.9502 C   0  0  0  0  0  0  0  0  0  0  0  0
   25.4797   10.3082   56.8789 O   0  0  0  0  0  0  0  0  0  0  0  0
   22.0359   10.5911   53.3186 N   0  0  0  0  0  0  0  0  0  0  0  0
   22.7812    9.3993   53.3300 C   0  0  0  0  0  0  0  0  0  0  0  0
   23.1951    8.9731   52.2203 O   0  0  0  0  0  0  0  0  0  0  0  0
   21.6696   11.0034   54.1772 H   0  0  0  0  0  0  0  0  0  0  0  0
   21.7273   11.3371   52.0608 C   0  0  0  0  0  0  0  0  0  0  0  0
   21.1041   12.5794   52.5966 C   0  0  0  0  0  0  0  0  0  0  0  0
   20.7131   12.4447   53.8302 O   0  0  0  0  0  0  0  0  0  0  0  0
   20.8565   13.8608   51.9967 C   0  0  0  0  0  0  0  0  0  0  0  0
   19.9748   14.8236   52.1573 N   0  0  0  0  0  0  0  0  0  0  0  0
   19.9820   15.8975   51.4534 C   0  0  0  0  0  0  0  0  0  0  0  0
   20.9641   16.0193   50.4984 C   0  0  0  0  0  0  0  0  0  0  0  0
   21.8122   14.5591   50.6911 S   0  0  0  0  0  0  0  0  0  0  0  0
   20.9023   10.6352   51.1049 C   0  0  0  0  0  0  0  0  0  0  0  0
   21.2453    9.1960   50.9432 C   0  0  0  0  0  0  0  0  0  0  0  0
   19.9612    8.3454   51.2224 C   0  0  0  0  0  0  0  0  0  0  0  0
   20.4802    7.1303   51.8722 N   0  0  0  0  0  0  0  0  0  0  0  0
   21.2827    6.5972   51.4877 H   0  0  0  0  0  0  0  0  0  0  0  0
   19.7801    5.2530   53.2617 N   0  0  0  0  0  0  0  0  0  0  0  0
   19.8914    6.6449   53.0635 C   0  0  0  0  0  0  0  0  0  0  0  0
   19.4660    7.4663   53.9481 N   0  0  0  0  0  0  0  0  0  0  0  0
   19.0990    4.8799   53.9448 H   0  0  0  0  0  0  0  0  0  0  0  0
   20.3660    4.5614   52.7415 H   0  0  0  0  0  0  0  0  0  0  0  0
   19.5146    8.4970   53.8705 H   0  0  0  0  0  0  0  0  0  0  0  0
   26.2423    8.6482   55.4551 C   0  0  0  0  0  0  0  0  0  0  0  0
   27.4759    9.4539   55.3912 N   0  0  0  0  0  0  0  0  0  0  0  0
   27.4650   10.1538   54.6493 H   0  0  0  0  0  0  0  0  0  0  0  0
   27.9885   10.0123   56.9134 S   0  0  0  0  0  0  0  0  0  0  0  0
   27.1125   11.1876   57.2947 O   0  0  0  0  0  0  0  0  0  0  0  0
   29.3980   10.4814   56.9315 O   0  0  0  0  0  0  0  0  0  0  0  0
   27.7932    8.7846   58.1888 C   0  0  0  0  0  0  0  0  0  0  0  0
   28.7939    9.0958   59.2601 C   0  0  0  0  0  0  0  0  0  0  0  0
   29.5077    8.0898   59.8675 C   0  0  0  0  0  0  0  0  0  0  0  0
   30.4170    8.3946   60.8480 C   0  0  0  0  0  0  0  0  0  0  0  0
   30.6617    9.6920   61.2699 C   0  0  0  0  0  0  0  0  0  0  0  0
   29.9298   10.6732   60.6396 C   0  0  0  0  0  0  0  0  0  0  0  0
   29.0099   10.3947   59.6516 C   0  0  0  0  0  0  0  0  0  0  0  0
   26.0178    8.1084   54.0854 C   0  0  0  0  0  0  0  0  0  0  0  0
   24.9829    7.0427   54.0178 C   0  0  0  0  0  0  0  0  0  0  0  0
   24.4702    6.6846   52.7889 C   0  0  0  0  0  0  0  0  0  0  0  0
   23.5014    5.7110   52.6734 C   0  0  0  0  0  0  0  0  0  0  0  0
   23.0340    5.0810   53.8100 C   0  0  0  0  0  0  0  0  0  0  0  0
   23.5365    5.4259   55.0592 C   0  0  0  0  0  0  0  0  0  0  0  0
   24.5041    6.4015   55.1490 C   0  0  0  0  0  0  0  0  0  0  0  0
 25 26  1  0  0  0
 26 27  2  0  0  0
 26 23  1  0  0  0
 23 22  1  0  0  0
 22 21  1  0  0  0
 21 20  1  0  0  0
 20 12  1  0  0  0
 12  8  1  0  0  0
  8  9  1  0  0  0
  9 10  2  0  0  0
  9  1  1  0  0  0
  1  2  1  0  0  0
  2  3  1  0  0  0
  3  4  1  0  0  0
  4  5  1  0  0  0
  5  6  1  0  0  0
  6  7  2  0  0  0
  6 31  1  0  0  0
 31 44  1  0  0  0
 44 45  1  0  0  0
 45 46  2  0  0  0
 46 47  1  0  0  0
 47 48  2  0  0  0
 48 49  1  0  0  0
 49 50  2  0  0  0
 31 32  1  0  0  0
 32 34  1  0  0  0
 34 35  2  0  0  0
 34 36  2  0  0  0
 34 37  1  0  0  0
 37 38  1  0  0  0
 38 39  2  0  0  0
 39 40  1  0  0  0
 40 41  2  0  0  0
 41 42  1  0  0  0
 42 43  2  0  0  0
 12 13  1  0  0  0
 13 14  2  0  0  0
 13 15  1  0  0  0
 15 16  2  0  0  0
 16 17  1  0  0  0
 17 18  2  0  0  0
 18 19  1  0  0  0
  5  1  1  0  0  0
 50 45  1  0  0  0
 43 38  1  0  0  0
 19 15  1  0  0  0
 25 28  1  0  0  0
 25 29  1  0  0  0
 27 30  1  0  0  0
 23 24  1  0  0  0
  8 11  1  0  0  0
 32 33  1  0  0  0
M  END
> <minimizedAffinity>
24.14769

> <CNNscore>
0.4909360111

> <CNNaffinity>
6.9549117088

> <CNN_VS>
3.4144165516

> <CNNaffinity_variance>
1.3568906784

$$$$
[H]N=C(N([H])[H])N([H])C([H])([H])C([H])([H])C([H])([H])[C@@]([H])(C(=O)c1nc([H])c([H])s1)N([H])C(=O)[C@@]1([H])N(C(=O)[C@]([H])(N([H])S(=O)(=O)C([H])([H])c2c([H])c([H])c([H])c([H])c2[H])C([H])([H])c2c([H])c([H])c([H])c([H])c2[H])C([H])([H])C([H])([H])C1([H])[H]


 50 53  0  0  0  0  0  0  0  0999 V2000
   23.6228    8.5292   55.9879 C   0  0  0  0  0  0  0  0  0  0  0  0
   22.1945    9.0416   56.2834 C   0  0  0  0  0  0  0  0  0  0  0  0
   22.3650   10.5591   56.4226 C   0  0  0  0  0  0  0  0  0  0  0  0
   23.6171   10.7692   55.5575 C   0  0  0  0  0  0  0  0  0  0  0  0
   24.4471    9.6834   56.1114 N   0  0  0  0  0  0  0  0  0  0  0  0
   25.7207    9.8709   56.6199 C   0  0  0  0  0  0  0  0  0  0  0  0
   26.2164   11.0755   56.6149 O   0  0  0  0  0  0  0  0  0  0  0  0
   22.5735    8.3363   53.6886 N   0  0  0  0  0  0  0  0  0  0  0  0
   23.5828    7.9641   54.5935 C   0  0  0  0  0  0  0  0  0  0  0  0
   24.4444    7.1433   54.1832 O   0  0  0  0  0  0  0  0  0  0  0  0
   21.8416    9.0000   53.9439 H   0  0  0  0  0  0  0  0  0  0  0  0
   22.4973    7.7937   52.2980 C   0  0  0  0  0  0  0  0  0  0  0  0
   21.5651    8.7596   51.6522 C   0  0  0  0  0  0  0  0  0  0  0  0
   20.6624    8.1666   50.9268 O   0  0  0  0  0  0  0  0  0  0  0  0
   21.5022   10.1943   51.6824 C   0  0  0  0  0  0  0  0  0  0  0  0
   21.4025   11.1536   50.7881 N   0  0  0  0  0  0  0  0  0  0  0  0
   21.3746   12.3980   51.1034 C   0  0  0  0  0  0  0  0  0  0  0  0
   21.4542   12.7120   52.4401 C   0  0  0  0  0  0  0  0  0  0  0  0
   21.5640   11.1709   53.1481 S   0  0  0  0  0  0  0  0  0  0  0  0
   22.0792    6.4154   52.1875 C   0  0  0  0  0  0  0  0  0  0  0  0
   22.0708    5.6747   53.4784 C   0  0  0  0  0  0  0  0  0  0  0  0
   20.6441    5.7962   54.1109 C   0  0  0  0  0  0  0  0  0  0  0  0
   19.7638    5.1633   53.1145 N   0  0  0  0  0  0  0  0  0  0  0  0
   19.5899    5.5851   52.1830 H   0  0  0  0  0  0  0  0  0  0  0  0
   18.0325    3.9223   54.3008 N   0  0  0  0  0  0  0  0  0  0  0  0
   19.1186    3.9374   53.4011 C   0  0  0  0  0  0  0  0  0  0  0  0
   19.5216    2.8567   52.8463 N   0  0  0  0  0  0  0  0  0  0  0  0
   17.7517    3.0386   54.7590 H   0  0  0  0  0  0  0  0  0  0  0  0
   17.4820    4.7796   54.5336 H   0  0  0  0  0  0  0  0  0  0  0  0
   20.3094    2.7927   52.1784 H   0  0  0  0  0  0  0  0  0  0  0  0
   26.6556    8.8774   57.1979 C   0  0  0  0  0  0  0  0  0  0  0  0
   26.8408    9.1255   58.6398 N   0  0  0  0  0  0  0  0  0  0  0  0
   26.3562    8.4516   59.2327 H   0  0  0  0  0  0  0  0  0  0  0  0
   28.4584    9.4375   59.0615 S   0  0  0  0  0  0  0  0  0  0  0  0
   28.9109   10.6594   58.2893 O   0  0  0  0  0  0  0  0  0  0  0  0
   29.3862    8.3273   58.7242 O   0  0  0  0  0  0  0  0  0  0  0  0
   28.6488    9.8172   60.7911 C   0  0  0  0  0  0  0  0  0  0  0  0
   29.1270   11.2345   60.8834 C   0  0  0  0  0  0  0  0  0  0  0  0
   28.2691   12.2818   60.6439 C   0  0  0  0  0  0  0  0  0  0  0  0
   28.7264   13.5719   60.7305 C   0  0  0  0  0  0  0  0  0  0  0  0
   30.0373   13.8852   61.0543 C   0  0  0  0  0  0  0  0  0  0  0  0
   30.8676   12.8119   61.2880 C   0  0  0  0  0  0  0  0  0  0  0  0
   30.4340   11.5060   61.2077 C   0  0  0  0  0  0  0  0  0  0  0  0
   28.0114    8.9207   56.5833 C   0  0  0  0  0  0  0  0  0  0  0  0
   27.9995    9.0322   55.1005 C   0  0  0  0  0  0  0  0  0  0  0  0
   27.0541    8.3293   54.3840 C   0  0  0  0  0  0  0  0  0  0  0  0
   27.0079    8.3897   53.0077 C   0  0  0  0  0  0  0  0  0  0  0  0
   27.9260    9.1692   52.3319 C   0  0  0  0  0  0  0  0  0  0  0  0
   28.8878    9.8863   53.0336 C   0  0  0  0  0  0  0  0  0  0  0  0
   28.9137    9.8100   54.4083 C   0  0  0  0  0  0  0  0  0  0  0  0
 25 26  1  0  0  0
 26 27  2  0  0  0
 26 23  1  0  0  0
 23 22  1  0  0  0
 22 21  1  0  0  0
 21 20  1  0  0  0
 20 12  1  0  0  0
 12  8  1  0  0  0
  8  9  1  0  0  0
  9 10  2  0  0  0
  9  1  1  0  0  0
  1  2  1  0  0  0
  2  3  1  0  0  0
  3  4  1  0  0  0
  4  5  1  0  0  0
  5  6  1  0  0  0
  6  7  2  0  0  0
  6 31  1  0  0  0
 31 44  1  0  0  0
 44 45  1  0  0  0
 45 46  2  0  0  0
 46 47  1  0  0  0
 47 48  2  0  0  0
 48 49  1  0  0  0
 49 50  2  0  0  0
 31 32  1  0  0  0
 32 34  1  0  0  0
 34 35  2  0  0  0
 34 36  2  0  0  0
 34 37  1  0  0  0
 37 38  1  0  0  0
 38 39  2  0  0  0
 39 40  1  0  0  0
 40 41  2  0  0  0
 41 42  1  0  0  0
 42 43  2  0  0  0
 12 13  1  0  0  0
 13 14  2  0  0  0
 13 15  1  0  0  0
 15 16  2  0  0  0
 16 17  1  0  0  0
 17 18  2  0  0  0
 18 19  1  0  0  0
  5  1  1  0  0  0
 50 45  1  0  0  0
 43 38  1  0  0  0
 19 15  1  0  0  0
 25 28  1  0  0  0
 25 29  1  0  0  0
 27 30  1  0  0  0
 23 24  1  0  0  0
  8 11  1  0  0  0
 32 33  1  0  0  0
M  END
> <minimizedAffinity>
23.70929

> <CNNscore>
0.4900029600

> <CNNaffinity>
6.7151842117

> <CNN_VS>
3.2904601097

> <CNNaffinity_variance>
0.5131119490

$$$$
[H]N=C(N([H])[H])N([H])C([H])([H])C([H])([H])C([H])([H])[C@@]([H])(C(=O)c1nc([H])c([H])s1)N([H])C(=O)[C@@]1([H])N(C(=O)[C@]([H])(N([H])S(=O)(=O)C([H])([H])c2c([H])c([H])c([H])c([H])c2[H])C([H])([H])c2c([H])c([H])c([H])c([H])c2[H])C([H])([H])C([H])([H])C1([H])[H]


 50 53  0  0  0  0  0  0  0  0999 V2000
   24.1935    6.4853   53.1744 C   0  0  0  0  0  0  0  0  0  0  0  0
   23.5228    5.3729   54.0126 C   0  0  0  0  0  0  0  0  0  0  0  0
   23.6519    5.8672   55.4584 C   0  0  0  0  0  0  0  0  0  0  0  0
   23.7252    7.3829   55.2184 C   0  0  0  0  0  0  0  0  0  0  0  0
   24.7312    7.3826   54.1402 N   0  0  0  0  0  0  0  0  0  0  0  0
   25.9019    8.1200   54.1795 C   0  0  0  0  0  0  0  0  0  0  0  0
   26.1341    8.8544   55.2299 O   0  0  0  0  0  0  0  0  0  0  0  0
   22.6207    8.3852   52.5902 N   0  0  0  0  0  0  0  0  0  0  0  0
   23.1014    7.0895   52.3333 C   0  0  0  0  0  0  0  0  0  0  0  0
   22.5791    6.4658   51.3728 O   0  0  0  0  0  0  0  0  0  0  0  0
   22.9958    8.9566   53.3479 H   0  0  0  0  0  0  0  0  0  0  0  0
   21.5348    9.0175   51.7809 C   0  0  0  0  0  0  0  0  0  0  0  0
   21.4353   10.3619   52.4146 C   0  0  0  0  0  0  0  0  0  0  0  0
   21.3971   10.2951   53.7134 O   0  0  0  0  0  0  0  0  0  0  0  0
   21.3633   11.6816   51.8521 C   0  0  0  0  0  0  0  0  0  0  0  0
   21.6249   12.2248   50.6831 N   0  0  0  0  0  0  0  0  0  0  0  0
   21.4722   13.4780   50.4490 C   0  0  0  0  0  0  0  0  0  0  0  0
   21.0148   14.2617   51.4824 C   0  0  0  0  0  0  0  0  0  0  0  0
   20.8374   13.1181   52.7271 S   0  0  0  0  0  0  0  0  0  0  0  0
   20.2840    8.2959   51.7421 C   0  0  0  0  0  0  0  0  0  0  0  0
   19.6763    8.0554   53.0792 C   0  0  0  0  0  0  0  0  0  0  0  0
   20.3388    6.7819   53.7035 C   0  0  0  0  0  0  0  0  0  0  0  0
   19.8512    5.6815   52.8552 N   0  0  0  0  0  0  0  0  0  0  0  0
   19.8469    5.7417   51.8197 H   0  0  0  0  0  0  0  0  0  0  0  0
   18.0920    4.4778   54.0388 N   0  0  0  0  0  0  0  0  0  0  0  0
   19.3673    4.4861   53.4366 C   0  0  0  0  0  0  0  0  0  0  0  0
   20.0849    3.4265   53.4130 N   0  0  0  0  0  0  0  0  0  0  0  0
   17.8472    3.7422   54.7234 H   0  0  0  0  0  0  0  0  0  0  0  0
   17.3624    5.1942   53.8227 H   0  0  0  0  0  0  0  0  0  0  0  0
   21.0268    3.3591   52.9899 H   0  0  0  0  0  0  0  0  0  0  0  0
   26.9860    8.2131   53.1738 C   0  0  0  0  0  0  0  0  0  0  0  0
   28.2654    7.7666   53.7559 N   0  0  0  0  0  0  0  0  0  0  0  0
   28.9823    7.5707   53.0572 H   0  0  0  0  0  0  0  0  0  0  0  0
   28.7695    8.7193   55.0712 S   0  0  0  0  0  0  0  0  0  0  0  0
   29.1835   10.0725   54.5311 O   0  0  0  0  0  0  0  0  0  0  0  0
   29.9329    8.1556   55.8031 O   0  0  0  0  0  0  0  0  0  0  0  0
   27.4598    9.0073   56.2432 C   0  0  0  0  0  0  0  0  0  0  0  0
   28.0971    9.4981   57.5077 C   0  0  0  0  0  0  0  0  0  0  0  0
   28.3280   10.8394   57.7027 C   0  0  0  0  0  0  0  0  0  0  0  0
   28.9150   11.2686   58.8656 C   0  0  0  0  0  0  0  0  0  0  0  0
   29.2969   10.4038   59.8792 C   0  0  0  0  0  0  0  0  0  0  0  0
   29.0500    9.0687   59.6500 C   0  0  0  0  0  0  0  0  0  0  0  0
   28.4617    8.6105   58.4907 C   0  0  0  0  0  0  0  0  0  0  0  0
   27.2079    9.5994   52.6770 C   0  0  0  0  0  0  0  0  0  0  0  0
   27.7368    9.6665   51.2889 C   0  0  0  0  0  0  0  0  0  0  0  0
   27.8607    8.5010   50.5627 C   0  0  0  0  0  0  0  0  0  0  0  0
   28.3561    8.5079   49.2764 C   0  0  0  0  0  0  0  0  0  0  0  0
   28.7362    9.7052   48.7025 C   0  0  0  0  0  0  0  0  0  0  0  0
   28.6201   10.8923   49.4159 C   0  0  0  0  0  0  0  0  0  0  0  0
   28.1223   10.8599   50.6994 C   0  0  0  0  0  0  0  0  0  0  0  0
 25 26  1  0  0  0
 26 27  2  0  0  0
 26 23  1  0  0  0
 23 22  1  0  0  0
 22 21  1  0  0  0
 21 20  1  0  0  0
 20 12  1  0  0  0
 12  8  1  0  0  0
  8  9  1  0  0  0
  9 10  2  0  0  0
  9  1  1  0  0  0
  1  2  1  0  0  0
  2  3  1  0  0  0
  3  4  1  0  0  0
  4  5  1  0  0  0
  5  6  1  0  0  0
  6  7  2  0  0  0
  6 31  1  0  0  0
 31 44  1  0  0  0
 44 45  1  0  0  0
 45 46  2  0  0  0
 46 47  1  0  0  0
 47 48  2  0  0  0
 48 49  1  0  0  0
 49 50  2  0  0  0
 31 32  1  0  0  0
 32 34  1  0  0  0
 34 35  2  0  0  0
 34 36  2  0  0  0
 34 37  1  0  0  0
 37 38  1  0  0  0
 38 39  2  0  0  0
 39 40  1  0  0  0
 40 41  2  0  0  0
 41 42  1  0  0  0
 42 43  2  0  0  0
 12 13  1  0  0  0
 13 14  2  0  0  0
 13 15  1  0  0  0
 15 16  2  0  0  0
 16 17  1  0  0  0
 17 18  2  0  0  0
 18 19  1  0  0  0
  5  1  1  0  0  0
 50 45  1  0  0  0
 43 38  1  0  0  0
 19 15  1  0  0  0
 25 28  1  0  0  0
 25 29  1  0  0  0
 27 30  1  0  0  0
 23 24  1  0  0  0
  8 11  1  0  0  0
 32 33  1  0  0  0
M  END
> <minimizedAffinity>
28.15631

> <CNNscore>
0.4859095514

> <CNNaffinity>
6.8556609154

> <CNN_VS>
3.3312311172

> <CNNaffinity_variance>
0.5013304949

$$$$
[H]N=C(N([H])[H])N([H])C([H])([H])C([H])([H])C([H])([H])[C@@]([H])(C(=O)c1nc([H])c([H])s1)N([H])C(=O)[C@@]1([H])N(C(=O)[C@]([H])(N([H])S(=O)(=O)C([H])([H])c2c([H])c([H])c([H])c([H])c2[H])C([H])([H])c2c([H])c([H])c([H])c([H])c2[H])C([H])([H])C([H])([H])C1([H])[H]


 50 53  0  0  0  0  0  0  0  0999 V2000
   27.4308    9.9174   56.6213 C   0  0  0  0  0  0  0  0  0  0  0  0
   28.1187   11.3001   56.6915 C   0  0  0  0  0  0  0  0  0  0  0  0
   26.9523   12.2951   56.7180 C   0  0  0  0  0  0  0  0  0  0  0  0
   25.8568   11.4086   57.3299 C   0  0  0  0  0  0  0  0  0  0  0  0
   26.0456   10.2162   56.4830 N   0  0  0  0  0  0  0  0  0  0  0  0
   25.0304    9.6209   55.7546 C   0  0  0  0  0  0  0  0  0  0  0  0
   23.8390   10.1439   55.8144 O   0  0  0  0  0  0  0  0  0  0  0  0
   28.7563    9.7246   58.7733 N   0  0  0  0  0  0  0  0  0  0  0  0
   27.7701    9.2171   57.9096 C   0  0  0  0  0  0  0  0  0  0  0  0
   27.1891    8.1583   58.2644 O   0  0  0  0  0  0  0  0  0  0  0  0
   29.2688   10.5805   58.5588 H   0  0  0  0  0  0  0  0  0  0  0  0
   29.1245    9.0557   60.0581 C   0  0  0  0  0  0  0  0  0  0  0  0
   29.8958   10.1303   60.7430 C   0  0  0  0  0  0  0  0  0  0  0  0
   30.9529    9.6723   61.3475 O   0  0  0  0  0  0  0  0  0  0  0  0
   29.6711   11.5444   60.8575 C   0  0  0  0  0  0  0  0  0  0  0  0
   28.6923   12.3715   60.5612 N   0  0  0  0  0  0  0  0  0  0  0  0
   28.7632   13.6363   60.7710 C   0  0  0  0  0  0  0  0  0  0  0  0
   29.9234   14.1190   61.3298 C   0  0  0  0  0  0  0  0  0  0  0  0
   30.8337   12.6955   61.5126 S   0  0  0  0  0  0  0  0  0  0  0  0
   29.8455    7.8104   59.9296 C   0  0  0  0  0  0  0  0  0  0  0  0
   29.9518    7.0334   61.1945 C   0  0  0  0  0  0  0  0  0  0  0  0
   28.5534    6.4045   61.5097 C   0  0  0  0  0  0  0  0  0  0  0  0
   28.5161    5.1947   60.6711 N   0  0  0  0  0  0  0  0  0  0  0  0
   29.1950    5.0325   59.9038 H   0  0  0  0  0  0  0  0  0  0  0  0
   26.2204    4.4089   60.4334 N   0  0  0  0  0  0  0  0  0  0  0  0
   27.5374    4.1974   60.8915 C   0  0  0  0  0  0  0  0  0  0  0  0
   27.8507    3.1165   61.5012 N   0  0  0  0  0  0  0  0  0  0  0  0
   25.4380    3.8665   60.8376 H   0  0  0  0  0  0  0  0  0  0  0  0
   25.9882    5.1023   59.6868 H   0  0  0  0  0  0  0  0  0  0  0  0
   28.7939    2.8939   61.8639 H   0  0  0  0  0  0  0  0  0  0  0  0
   25.0813    8.4298   54.8748 C   0  0  0  0  0  0  0  0  0  0  0  0
   23.9596    7.5210   55.1763 N   0  0  0  0  0  0  0  0  0  0  0  0
   23.1694    7.9865   55.6227 H   0  0  0  0  0  0  0  0  0  0  0  0
   23.5641    6.4949   53.8792 S   0  0  0  0  0  0  0  0  0  0  0  0
   23.2087    5.1389   54.4531 O   0  0  0  0  0  0  0  0  0  0  0  0
   24.6786    6.2946   52.9175 O   0  0  0  0  0  0  0  0  0  0  0  0
   22.1407    7.0634   52.9724 C   0  0  0  0  0  0  0  0  0  0  0  0
   21.7555    8.3951   53.5420 C   0  0  0  0  0  0  0  0  0  0  0  0
   21.8504    9.5373   52.7826 C   0  0  0  0  0  0  0  0  0  0  0  0
   21.4958   10.7471   53.3227 C   0  0  0  0  0  0  0  0  0  0  0  0
   21.0360   10.8845   54.6230 C   0  0  0  0  0  0  0  0  0  0  0  0
   20.9534    9.7203   55.3536 C   0  0  0  0  0  0  0  0  0  0  0  0
   21.3031    8.4919   54.8354 C   0  0  0  0  0  0  0  0  0  0  0  0
   26.3282    7.6322   55.0389 C   0  0  0  0  0  0  0  0  0  0  0  0
   27.5534    8.3183   54.5497 C   0  0  0  0  0  0  0  0  0  0  0  0
   28.7745    7.9729   55.0889 C   0  0  0  0  0  0  0  0  0  0  0  0
   29.9382    8.5870   54.6781 C   0  0  0  0  0  0  0  0  0  0  0  0
   29.8813    9.5676   53.7074 C   0  0  0  0  0  0  0  0  0  0  0  0
   28.6614    9.9318   53.1497 C   0  0  0  0  0  0  0  0  0  0  0  0
   27.5126    9.3039   53.5765 C   0  0  0  0  0  0  0  0  0  0  0  0
 25 26  1  0  0  0
 26 27  2  0  0  0
 26 23  1  0  0  0
 23 22  1  0  0  0
 22 21  1  0  0  0
 21 20  1  0  0  0
 20 12  1  0  0  0
 12  8  1  0  0  0
  8  9  1  0  0  0
  9 10  2  0  0  0
  9  1  1  0  0  0
  1  2  1  0  0  0
  2  3  1  0  0  0
  3  4  1  0  0  0
  4  5  1  0  0  0
  5  6  1  0  0  0
  6  7  2  0  0  0
  6 31  1  0  0  0
 31 44  1  0  0  0
 44 45  1  0  0  0
 45 46  2  0  0  0
 46 47  1  0  0  0
 47 48  2  0  0  0
 48 49  1  0  0  0
 49 50  2  0  0  0
 31 32  1  0  0  0
 32 34  1  0  0  0
 34 35  2  0  0  0
 34 36  2  0  0  0
 34 37  1  0  0  0
 37 38  1  0  0  0
 38 39  2  0  0  0
 39 40  1  0  0  0
 40 41  2  0  0  0
 41 42  1  0  0  0
 42 43  2  0  0  0
 12 13  1  0  0  0
 13 14  2  0  0  0
 13 15  1  0  0  0
 15 16  2  0  0  0
 16 17  1  0  0  0
 17 18  2  0  0  0
 18 19  1  0  0  0
  5  1  1  0  0  0
 50 45  1  0  0  0
 43 38  1  0  0  0
 19 15  1  0  0  0
 25 28  1  0  0  0
 25 29  1  0  0  0
 27 30  1  0  0  0
 23 24  1  0  0  0
  8 11  1  0  0  0
 32 33  1  0  0  0
M  END
> <minimizedAffinity>
19.80851

> <CNNscore>
0.4720292389

> <CNNaffinity>
7.3874640465

> <CNN_VS>
3.4870989323

> <CNNaffinity_variance>
0.8606665730

$$$$
[H]N=C(N([H])[H])N([H])C([H])([H])C([H])([H])C([H])([H])[C@@]([H])(C(=O)c1nc([H])c([H])s1)N([H])C(=O)[C@@]1([H])N(C(=O)[C@]([H])(N([H])S(=O)(=O)C([H])([H])c2c([H])c([H])c([H])c([H])c2[H])C([H])([H])c2c([H])c([H])c([H])c([H])c2[H])C([H])([H])C([H])([H])C1([H])[H]


 50 53  0  0  0  0  0  0  0  0999 V2000
   27.3618    9.4966   56.6805 C   0  0  0  0  0  0  0  0  0  0  0  0
   28.5922   10.2882   56.1810 C   0  0  0  0  0  0  0  0  0  0  0  0
   28.0591   11.7103   55.9694 C   0  0  0  0  0  0  0  0  0  0  0  0
   26.8903   11.7100   56.9666 C   0  0  0  0  0  0  0  0  0  0  0  0
   26.2829   10.4209   56.5872 N   0  0  0  0  0  0  0  0  0  0  0  0
   24.9546   10.2720   56.2277 C   0  0  0  0  0  0  0  0  0  0  0  0
   24.1951   11.3302   56.2184 O   0  0  0  0  0  0  0  0  0  0  0  0
   28.8025    9.5919   58.7639 N   0  0  0  0  0  0  0  0  0  0  0  0
   27.6784    9.0810   58.0920 C   0  0  0  0  0  0  0  0  0  0  0  0
   26.9555    8.2671   58.7240 O   0  0  0  0  0  0  0  0  0  0  0  0
   29.4348   10.2596   58.3214 H   0  0  0  0  0  0  0  0  0  0  0  0
   29.1526    9.2000   60.1630 C   0  0  0  0  0  0  0  0  0  0  0  0
   29.7761   10.4518   60.6758 C   0  0  0  0  0  0  0  0  0  0  0  0
   31.0166   10.2788   61.0275 O   0  0  0  0  0  0  0  0  0  0  0  0
   29.2524   11.7773   60.8553 C   0  0  0  0  0  0  0  0  0  0  0  0
   28.0584   12.3291   60.8497 N   0  0  0  0  0  0  0  0  0  0  0  0
   27.8723   13.5857   61.0369 C   0  0  0  0  0  0  0  0  0  0  0  0
   28.9863   14.3636   61.2496 C   0  0  0  0  0  0  0  0  0  0  0  0
   30.2314   13.2100   61.1628 S   0  0  0  0  0  0  0  0  0  0  0  0
   29.9939    8.0328   60.2927 C   0  0  0  0  0  0  0  0  0  0  0  0
   29.7329    7.2250   61.5151 C   0  0  0  0  0  0  0  0  0  0  0  0
   29.5416    5.7304   61.0909 C   0  0  0  0  0  0  0  0  0  0  0  0
   28.1672    5.4182   61.5171 N   0  0  0  0  0  0  0  0  0  0  0  0
   27.7252    5.8749   62.3368 H   0  0  0  0  0  0  0  0  0  0  0  0
   26.5202    3.6205   61.5184 N   0  0  0  0  0  0  0  0  0  0  0  0
   27.3925    4.4708   60.8076 C   0  0  0  0  0  0  0  0  0  0  0  0
   27.4872    4.3913   59.5337 N   0  0  0  0  0  0  0  0  0  0  0  0
   26.1895    2.7403   61.0874 H   0  0  0  0  0  0  0  0  0  0  0  0
   26.1811    3.8398   62.4823 H   0  0  0  0  0  0  0  0  0  0  0  0
   28.1041    4.9808   58.9483 H   0  0  0  0  0  0  0  0  0  0  0  0
   24.2217    9.0467   55.8316 C   0  0  0  0  0  0  0  0  0  0  0  0
   24.5170    8.7035   54.4280 N   0  0  0  0  0  0  0  0  0  0  0  0
   25.3705    9.1367   54.0756 H   0  0  0  0  0  0  0  0  0  0  0  0
   24.3508    7.0439   54.0969 S   0  0  0  0  0  0  0  0  0  0  0  0
   23.4870    6.9024   52.8608 O   0  0  0  0  0  0  0  0  0  0  0  0
   23.6943    6.2817   55.1901 O   0  0  0  0  0  0  0  0  0  0  0  0
   25.9099    6.2642   53.7321 C   0  0  0  0  0  0  0  0  0  0  0  0
   26.9519    7.3413   53.7206 C   0  0  0  0  0  0  0  0  0  0  0  0
   28.1093    7.2061   54.4504 C   0  0  0  0  0  0  0  0  0  0  0  0
   29.0496    8.2043   54.4292 C   0  0  0  0  0  0  0  0  0  0  0  0
   28.8935    9.3694   53.6948 C   0  0  0  0  0  0  0  0  0  0  0  0
   27.7234    9.4702   52.9762 C   0  0  0  0  0  0  0  0  0  0  0  0
   26.7621    8.4824   52.9797 C   0  0  0  0  0  0  0  0  0  0  0  0
   22.7427    9.1900   55.9303 C   0  0  0  0  0  0  0  0  0  0  0  0
   22.0365    9.0808   54.6262 C   0  0  0  0  0  0  0  0  0  0  0  0
   22.2690   10.0339   53.6573 C   0  0  0  0  0  0  0  0  0  0  0  0
   21.6311    9.9843   52.4364 C   0  0  0  0  0  0  0  0  0  0  0  0
   20.7415    8.9603   52.1771 C   0  0  0  0  0  0  0  0  0  0  0  0
   20.4919    7.9885   53.1390 C   0  0  0  0  0  0  0  0  0  0  0  0
   21.1414    8.0594   54.3512 C   0  0  0  0  0  0  0  0  0  0  0  0
 25 26  1  0  0  0
 26 27  2  0  0  0
 26 23  1  0  0  0
 23 22  1  0  0  0
 22 21  1  0  0  0
 21 20  1  0  0  0
 20 12  1  0  0  0
 12  8  1  0  0  0
  8  9  1  0  0  0
  9 10  2  0  0  0
  9  1  1  0  0  0
  1  2  1  0  0  0
  2  3  1  0  0  0
  3  4  1  0  0  0
  4  5  1  0  0  0
  5  6  1  0  0  0
  6  7  2  0  0  0
  6 31  1  0  0  0
 31 44  1  0  0  0
 44 45  1  0  0  0
 45 46  2  0  0  0
 46 47  1  0  0  0
 47 48  2  0  0  0
 48 49  1  0  0  0
 49 50  2  0  0  0
 31 32  1  0  0  0
 32 34  1  0  0  0
 34 35  2  0  0  0
 34 36  2  0  0  0
 34 37  1  0  0  0
 37 38  1  0  0  0
 38 39  2  0  0  0
 39 40  1  0  0  0
 40 41  2  0  0  0
 41 42  1  0  0  0
 42 43  2  0  0  0
 12 13  1  0  0  0
 13 14  2  0  0  0
 13 15  1  0  0  0
 15 16  2  0  0  0
 16 17  1  0  0  0
 17 18  2  0  0  0
 18 19  1  0  0  0
  5  1  1  0  0  0
 50 45  1  0  0  0
 43 38  1  0  0  0
 19 15  1  0  0  0
 25 28  1  0  0  0
 25 29  1  0  0  0
 27 30  1  0  0  0
 23 24  1  0  0  0
  8 11  1  0  0  0
 32 33  1  0  0  0
M  END
> <minimizedAffinity>
22.69129

> <CNNscore>
0.4613146484

> <CNNaffinity>
7.0585174561

> <CNN_VS>
3.2561974525

> <CNNaffinity_variance>
0.9841156006

$$$$
[H]N=C(N([H])[H])N([H])C([H])([H])C([H])([H])C([H])([H])[C@@]([H])(C(=O)c1nc([H])c([H])s1)N([H])C(=O)[C@@]1([H])N(C(=O)[C@]([H])(N([H])S(=O)(=O)C([H])([H])c2c([H])c([H])c([H])c([H])c2[H])C([H])([H])c2c([H])c([H])c([H])c([H])c2[H])C([H])([H])C([H])([H])C1([H])[H]


 50 53  0  0  0  0  0  0  0  0999 V2000
   22.1163    8.8602   55.4389 C   0  0  0  0  0  0  0  0  0  0  0  0
   20.6766    9.2253   55.8674 C   0  0  0  0  0  0  0  0  0  0  0  0
   20.7028   10.7530   55.9965 C   0  0  0  0  0  0  0  0  0  0  0  0
   21.8414   11.0855   55.0201 C   0  0  0  0  0  0  0  0  0  0  0  0
   22.8259   10.0935   55.4903 N   0  0  0  0  0  0  0  0  0  0  0  0
   24.1151   10.4132   55.8796 C   0  0  0  0  0  0  0  0  0  0  0  0
   24.4822   11.6621   55.8336 O   0  0  0  0  0  0  0  0  0  0  0  0
   20.9210    7.4691   53.6893 N   0  0  0  0  0  0  0  0  0  0  0  0
   22.0057    8.2864   54.0519 C   0  0  0  0  0  0  0  0  0  0  0  0
   22.8713    8.5137   53.1668 O   0  0  0  0  0  0  0  0  0  0  0  0
   20.1759    7.2422   54.3486 H   0  0  0  0  0  0  0  0  0  0  0  0
   20.7784    6.8773   52.3243 C   0  0  0  0  0  0  0  0  0  0  0  0
   20.3620    8.0645   51.5269 C   0  0  0  0  0  0  0  0  0  0  0  0
   19.4280    7.7804   50.6670 O   0  0  0  0  0  0  0  0  0  0  0  0
   20.8121    9.4286   51.5361 C   0  0  0  0  0  0  0  0  0  0  0  0
   21.6331   10.1466   52.2713 N   0  0  0  0  0  0  0  0  0  0  0  0
   21.8523   11.3929   52.0534 C   0  0  0  0  0  0  0  0  0  0  0  0
   21.1868   11.9757   51.0003 C   0  0  0  0  0  0  0  0  0  0  0  0
   20.2859   10.6667   50.3977 S   0  0  0  0  0  0  0  0  0  0  0  0
   19.8720    5.7571   52.2209 C   0  0  0  0  0  0  0  0  0  0  0  0
   19.4838    5.1632   53.5292 C   0  0  0  0  0  0  0  0  0  0  0  0
   18.8517    3.7554   53.2671 C   0  0  0  0  0  0  0  0  0  0  0  0
   17.7720    3.6648   54.2642 N   0  0  0  0  0  0  0  0  0  0  0  0
   17.9234    3.2626   55.2083 H   0  0  0  0  0  0  0  0  0  0  0  0
   15.5198    3.2377   53.4335 N   0  0  0  0  0  0  0  0  0  0  0  0
   16.4724    4.1342   53.9609 C   0  0  0  0  0  0  0  0  0  0  0  0
   16.1709    5.3611   54.1654 N   0  0  0  0  0  0  0  0  0  0  0  0
   14.6949    3.5987   52.9247 H   0  0  0  0  0  0  0  0  0  0  0  0
   15.6060    2.2010   53.5337 H   0  0  0  0  0  0  0  0  0  0  0  0
   16.8166    6.0732   54.5487 H   0  0  0  0  0  0  0  0  0  0  0  0
   25.1963    9.5237   56.3645 C   0  0  0  0  0  0  0  0  0  0  0  0
   26.1621   10.2862   57.1774 N   0  0  0  0  0  0  0  0  0  0  0  0
   25.7968   10.5609   58.0893 H   0  0  0  0  0  0  0  0  0  0  0  0
   27.7157    9.5950   57.1920 S   0  0  0  0  0  0  0  0  0  0  0  0
   27.9612    8.9788   55.8303 O   0  0  0  0  0  0  0  0  0  0  0  0
   27.8795    8.5203   58.2045 O   0  0  0  0  0  0  0  0  0  0  0  0
   28.9958   10.8056   57.4518 C   0  0  0  0  0  0  0  0  0  0  0  0
   28.8766   11.2792   58.8687 C   0  0  0  0  0  0  0  0  0  0  0  0
   29.2694   10.4755   59.9128 C   0  0  0  0  0  0  0  0  0  0  0  0
   29.1497   10.9258   61.2028 C   0  0  0  0  0  0  0  0  0  0  0  0
   28.6428   12.1765   61.5189 C   0  0  0  0  0  0  0  0  0  0  0  0
   28.2603   12.9539   60.4488 C   0  0  0  0  0  0  0  0  0  0  0  0
   28.3697   12.5261   59.1431 C   0  0  0  0  0  0  0  0  0  0  0  0
   25.9752    8.8928   55.2631 C   0  0  0  0  0  0  0  0  0  0  0  0
   25.2590    7.7877   54.5724 C   0  0  0  0  0  0  0  0  0  0  0  0
   24.5811    6.8544   55.3277 C   0  0  0  0  0  0  0  0  0  0  0  0
   23.9111    5.8047   54.7366 C   0  0  0  0  0  0  0  0  0  0  0  0
   23.9183    5.6843   53.3609 C   0  0  0  0  0  0  0  0  0  0  0  0
   24.5950    6.6135   52.5796 C   0  0  0  0  0  0  0  0  0  0  0  0
   25.2569    7.6535   53.1932 C   0  0  0  0  0  0  0  0  0  0  0  0
 25 26  1  0  0  0
 26 27  2  0  0  0
 26 23  1  0  0  0
 23 22  1  0  0  0
 22 21  1  0  0  0
 21 20  1  0  0  0
 20 12  1  0  0  0
 12  8  1  0  0  0
  8  9  1  0  0  0
  9 10  2  0  0  0
  9  1  1  0  0  0
  1  2  1  0  0  0
  2  3  1  0  0  0
  3  4  1  0  0  0
  4  5  1  0  0  0
  5  6  1  0  0  0
  6  7  2  0  0  0
  6 31  1  0  0  0
 31 44  1  0  0  0
 44 45  1  0  0  0
 45 46  2  0  0  0
 46 47  1  0  0  0
 47 48  2  0  0  0
 48 49  1  0  0  0
 49 50  2  0  0  0
 31 32  1  0  0  0
 32 34  1  0  0  0
 34 35  2  0  0  0
 34 36  2  0  0  0
 34 37  1  0  0  0
 37 38  1  0  0  0
 38 39  2  0  0  0
 39 40  1  0  0  0
 40 41  2  0  0  0
 41 42  1  0  0  0
 42 43  2  0  0  0
 12 13  1  0  0  0
 13 14  2  0  0  0
 13 15  1  0  0  0
 15 16  2  0  0  0
 16 17  1  0  0  0
 17 18  2  0  0  0
 18 19  1  0  0  0
  5  1  1  0  0  0
 50 45  1  0  0  0
 43 38  1  0  0  0
 19 15  1  0  0  0
 25 28  1  0  0  0
 25 29  1  0  0  0
 27 30  1  0  0  0
 23 24  1  0  0  0
  8 11  1  0  0  0
 32 33  1  0  0  0
M  END
> <minimizedAffinity>
23.32046

> <CNNscore>
0.4351060390

> <CNNaffinity>
7.0257291794

> <CNN_VS>
3.0569372177

> <CNNaffinity_variance>
0.8853923678

$$$$
[H]N=C(N([H])[H])N([H])C([H])([H])C([H])([H])C([H])([H])[C@@]([H])(C(=O)c1nc([H])c([H])s1)N([H])C(=O)[C@@]1([H])N(C(=O)[C@]([H])(N([H])S(=O)(=O)C([H])([H])c2c([H])c([H])c([H])c([H])c2[H])C([H])([H])c2c([H])c([H])c([H])c([H])c2[H])C([H])([H])C([H])([H])C1([H])[H]


 50 53  0  0  0  0  0  0  0  0999 V2000
   24.4000    7.8507   52.9825 C   0  0  0  0  0  0  0  0  0  0  0  0
   23.5051    6.6903   52.4903 C   0  0  0  0  0  0  0  0  0  0  0  0
   23.8512    5.5290   53.4300 C   0  0  0  0  0  0  0  0  0  0  0  0
   24.3181    6.3135   54.6657 C   0  0  0  0  0  0  0  0  0  0  0  0
   25.2187    7.2656   53.9897 N   0  0  0  0  0  0  0  0  0  0  0  0
   26.5456    7.4498   54.3377 C   0  0  0  0  0  0  0  0  0  0  0  0
   27.0318    6.7396   55.3154 O   0  0  0  0  0  0  0  0  0  0  0  0
   22.3984    9.3840   52.7225 N   0  0  0  0  0  0  0  0  0  0  0  0
   23.4636    8.9065   53.5057 C   0  0  0  0  0  0  0  0  0  0  0  0
   23.5934    9.4000   54.6564 O   0  0  0  0  0  0  0  0  0  0  0  0
   22.2237    9.0309   51.7812 H   0  0  0  0  0  0  0  0  0  0  0  0
   21.4508   10.4344   53.2047 C   0  0  0  0  0  0  0  0  0  0  0  0
   21.6267   11.4918   52.1704 C   0  0  0  0  0  0  0  0  0  0  0  0
   22.4087   11.1120   51.2024 O   0  0  0  0  0  0  0  0  0  0  0  0
   21.1054   12.8263   52.0686 C   0  0  0  0  0  0  0  0  0  0  0  0
   20.4251   13.6361   52.8506 N   0  0  0  0  0  0  0  0  0  0  0  0
   20.0709   14.8164   52.4899 C   0  0  0  0  0  0  0  0  0  0  0  0
   20.4314   15.2249   51.2271 C   0  0  0  0  0  0  0  0  0  0  0  0
   21.2635   13.8600   50.6500 S   0  0  0  0  0  0  0  0  0  0  0  0
   21.6666   10.8973   54.5560 C   0  0  0  0  0  0  0  0  0  0  0  0
   21.2263    9.9399   55.6069 C   0  0  0  0  0  0  0  0  0  0  0  0
   20.1176    9.0149   55.0024 C   0  0  0  0  0  0  0  0  0  0  0  0
   20.8524    7.8042   54.5995 N   0  0  0  0  0  0  0  0  0  0  0  0
   21.6968    7.4759   55.1047 H   0  0  0  0  0  0  0  0  0  0  0  0
   20.3449    5.6330   53.6131 N   0  0  0  0  0  0  0  0  0  0  0  0
   20.4204    7.0362   53.4928 C   0  0  0  0  0  0  0  0  0  0  0  0
   20.1028    7.6153   52.3965 N   0  0  0  0  0  0  0  0  0  0  0  0
   20.3389    5.0401   52.7656 H   0  0  0  0  0  0  0  0  0  0  0  0
   20.2924    5.1489   54.5378 H   0  0  0  0  0  0  0  0  0  0  0  0
   20.1337    8.6373   52.2366 H   0  0  0  0  0  0  0  0  0  0  0  0
   27.5510    8.3658   53.7500 C   0  0  0  0  0  0  0  0  0  0  0  0
   28.3552    8.9955   54.8139 N   0  0  0  0  0  0  0  0  0  0  0  0
   29.0062    9.6999   54.4670 H   0  0  0  0  0  0  0  0  0  0  0  0
   27.4313    9.4581   56.1645 S   0  0  0  0  0  0  0  0  0  0  0  0
   27.6322    8.4135   57.2428 O   0  0  0  0  0  0  0  0  0  0  0  0
   25.9738    9.5405   55.8886 O   0  0  0  0  0  0  0  0  0  0  0  0
   27.9585   11.0162   56.8472 C   0  0  0  0  0  0  0  0  0  0  0  0
   28.4286   10.7509   58.2453 C   0  0  0  0  0  0  0  0  0  0  0  0
   28.6297   11.7867   59.1266 C   0  0  0  0  0  0  0  0  0  0  0  0
   29.0631   11.5237   60.4010 C   0  0  0  0  0  0  0  0  0  0  0  0
   29.3149   10.2403   60.8601 C   0  0  0  0  0  0  0  0  0  0  0  0
   29.1023    9.2283   59.9510 C   0  0  0  0  0  0  0  0  0  0  0  0
   28.6673    9.4647   58.6646 C   0  0  0  0  0  0  0  0  0  0  0  0
   26.9447    9.4762   52.9644 C   0  0  0  0  0  0  0  0  0  0  0  0
   27.6456    9.7644   51.6850 C   0  0  0  0  0  0  0  0  0  0  0  0
   27.3662    8.9892   50.5794 C   0  0  0  0  0  0  0  0  0  0  0  0
   27.9969    9.2081   49.3735 C   0  0  0  0  0  0  0  0  0  0  0  0
   28.9272   10.2234   49.2691 C   0  0  0  0  0  0  0  0  0  0  0  0
   29.2245   11.0174   50.3705 C   0  0  0  0  0  0  0  0  0  0  0  0
   28.5812   10.7794   51.5645 C   0  0  0  0  0  0  0  0  0  0  0  0
 25 26  1  0  0  0
 26 27  2  0  0  0
 26 23  1  0  0  0
 23 22  1  0  0  0
 22 21  1  0  0  0
 21 20  1  0  0  0
 20 12  1  0  0  0
 12  8  1  0  0  0
  8  9  1  0  0  0
  9 10  2  0  0  0
  9  1  1  0  0  0
  1  2  1  0  0  0
  2  3  1  0  0  0
  3  4  1  0  0  0
  4  5  1  0  0  0
  5  6  1  0  0  0
  6  7  2  0  0  0
  6 31  1  0  0  0
 31 44  1  0  0  0
 44 45  1  0  0  0
 45 46  2  0  0  0
 46 47  1  0  0  0
 47 48  2  0  0  0
 48 49  1  0  0  0
 49 50  2  0  0  0
 31 32  1  0  0  0
 32 34  1  0  0  0
 34 35  2  0  0  0
 34 36  2  0  0  0
 34 37  1  0  0  0
 37 38  1  0  0  0
 38 39  2  0  0  0
 39 40  1  0  0  0
 40 41  2  0  0  0
 41 42  1  0  0  0
 42 43  2  0  0  0
 12 13  1  0  0  0
 13 14  2  0  0  0
 13 15  1  0  0  0
 15 16  2  0  0  0
 16 17  1  0  0  0
 17 18  2  0  0  0
 18 19  1  0  0  0
  5  1  1  0  0  0
 50 45  1  0  0  0
 43 38  1  0  0  0
 19 15  1  0  0  0
 25 28  1  0  0  0
 25 29  1  0  0  0
 27 30  1  0  0  0
 23 24  1  0  0  0
  8 11  1  0  0  0
 32 33  1  0  0  0
M  END
> <minimizedAffinity>
28.18201

> <CNNscore>
0.4349071383

> <CNNaffinity>
7.1108055115

> <CNN_VS>
3.0925400257

> <CNNaffinity_variance>
0.6360338926

$$$$
[H]c1c([H])c(C(=O)N([H])c2nnc(-c3c([H])c([H])c(Oc4c([H])c([H])c([N+](=O)[O-])c([H])c4Br)c([H])c3[H])s2)c([H])c([H])c1Br


 33 36  0  0  0  0  0  0  0  0999 V2000
   28.7572   10.2965   59.3938 C   0  0  0  0  0  0  0  0  0  0  0  0
   28.5510   11.2784   58.4362 C   0  0  0  0  0  0  0  0  0  0  0  0
   28.2152   10.9661   57.1181 C   0  0  0  0  0  0  0  0  0  0  0  0
   28.0801    9.6530   56.7372 C   0  0  0  0  0  0  0  0  0  0  0  0
   28.2902    8.7032   57.7046 C   0  0  0  0  0  0  0  0  0  0  0  0
   28.6237    8.9860   59.0156 C   0  0  0  0  0  0  0  0  0  0  0  0
   27.7274    9.2591   55.3629 C   0  0  0  0  0  0  0  0  0  0  0  0
   26.6846    8.5583   54.9300 N   0  0  0  0  0  0  0  0  0  0  0  0
   26.5559    8.3214   53.6992 N   0  0  0  0  0  0  0  0  0  0  0  0
   27.4598    8.7700   52.8328 C   0  0  0  0  0  0  0  0  0  0  0  0
   28.5409    9.5738   53.8862 S   0  0  0  0  0  0  0  0  0  0  0  0
   27.4985    8.6125   51.4131 N   0  0  0  0  0  0  0  0  0  0  0  0
   28.2926    9.4703   50.6274 C   0  0  0  0  0  0  0  0  0  0  0  0
   28.9872   10.3966   51.1639 O   0  0  0  0  0  0  0  0  0  0  0  0
   26.9433    7.8693   50.9705 H   0  0  0  0  0  0  0  0  0  0  0  0
   28.3309    9.3098   49.1892 C   0  0  0  0  0  0  0  0  0  0  0  0
   28.9325    8.1607   48.6783 C   0  0  0  0  0  0  0  0  0  0  0  0
   29.0315    7.9004   47.3253 C   0  0  0  0  0  0  0  0  0  0  0  0
   28.5096    8.8215   46.4333 C   0  0  0  0  0  0  0  0  0  0  0  0
   28.6539    8.4479   44.5682 Br  0  0  0  0  0  0  0  0  0  0  0  0
   27.9071    9.9697   46.8992 C   0  0  0  0  0  0  0  0  0  0  0  0
   27.8245   10.2009   48.2757 C   0  0  0  0  0  0  0  0  0  0  0  0
   29.0880   10.6151   60.6773 O   0  0  0  0  0  0  0  0  0  0  0  0
   31.7663   13.3581   62.2604 C   0  0  0  0  0  0  0  0  0  0  0  0
   32.1378   12.0376   62.0006 C   0  0  0  0  0  0  0  0  0  0  0  0
   31.2247   11.1656   61.4788 C   0  0  0  0  0  0  0  0  0  0  0  0
   29.9118   11.5495   61.1900 C   0  0  0  0  0  0  0  0  0  0  0  0
   29.5642   12.8368   61.4475 C   0  0  0  0  0  0  0  0  0  0  0  0
   27.8385   13.5370   61.1151 Br  0  0  0  0  0  0  0  0  0  0  0  0
   30.4923   13.7508   61.9858 C   0  0  0  0  0  0  0  0  0  0  0  0
   33.4109   13.9841   63.9161 O   0  0  0  0  0  0  0  0  0  0  0  0
   32.6987   14.2865   62.8039 N   0  0  0  0  0  0  0  0  0  0  0  0
   32.8602   15.3847   62.2525 O   0  0  0  0  0  0  0  0  0  0  0  0
 31 32  1  0  0  0
 32 33  2  0  0  0
 32 24  1  0  0  0
 24 25  2  0  0  0
 25 26  1  0  0  0
 26 27  2  0  0  0
 27 23  1  0  0  0
 23  1  1  0  0  0
  1  2  2  0  0  0
  2  3  1  0  0  0
  3  4  2  0  0  0
  4  5  1  0  0  0
  5  6  2  0  0  0
  4  7  1  0  0  0
  7  8  2  0  0  0
  8  9  1  0  0  0
  9 10  2  0  0  0
 10 12  1  0  0  0
 12 13  1  0  0  0
 13 14  2  0  0  0
 13 16  1  0  0  0
 16 17  2  0  0  0
 17 18  1  0  0  0
 18 19  2  0  0  0
 19 20  1  0  0  0
 19 21  1  0  0  0
 21 22  2  0  0  0
 10 11  1  0  0  0
 27 28  1  0  0  0
 28 29  1  0  0  0
 28 30  2  0  0  0
 30 24  1  0  0  0
  6  1  1  0  0  0
 11  7  1  0  0  0
 22 16  1  0  0  0
 12 15  1  0  0  0
M  CHG 1  31  -1
M  CHG 1  32   1
M  END
> <minimizedAffinity>
22.12398

> <CNNscore>
0.4916146994

> <CNNaffinity>
5.5390877724

> <CNN_VS>
2.7230970860

> <CNNaffinity_variance>
0.0975249857

$$$$
[H]c1c([H])c(C(=O)N([H])c2nnc(-c3c([H])c([H])c(Oc4c([H])c([H])c([N+](=O)[O-])c([H])c4Br)c([H])c3[H])s2)c([H])c([H])c1Br


 33 36  0  0  0  0  0  0  0  0999 V2000
   27.8971    9.8115   56.5027 C   0  0  0  0  0  0  0  0  0  0  0  0
   28.2209    8.9709   55.4480 C   0  0  0  0  0  0  0  0  0  0  0  0
   27.2601    8.1906   54.8032 C   0  0  0  0  0  0  0  0  0  0  0  0
   25.9489    8.2419   55.2099 C   0  0  0  0  0  0  0  0  0  0  0  0
   25.6575    9.0812   56.2552 C   0  0  0  0  0  0  0  0  0  0  0  0
   26.5897    9.8634   56.9104 C   0  0  0  0  0  0  0  0  0  0  0  0
   24.8893    7.4440   54.5704 C   0  0  0  0  0  0  0  0  0  0  0  0
   24.5800    7.3345   53.2827 N   0  0  0  0  0  0  0  0  0  0  0  0
   23.6261    6.5915   52.9281 N   0  0  0  0  0  0  0  0  0  0  0  0
   22.9287    5.9171   53.8379 C   0  0  0  0  0  0  0  0  0  0  0  0
   23.7197    6.4053   55.2734 S   0  0  0  0  0  0  0  0  0  0  0  0
   21.8236    5.0316   53.6471 N   0  0  0  0  0  0  0  0  0  0  0  0
   20.5144    5.5432   53.5557 C   0  0  0  0  0  0  0  0  0  0  0  0
   20.2922    6.7969   53.6405 O   0  0  0  0  0  0  0  0  0  0  0  0
   21.9911    4.0199   53.5771 H   0  0  0  0  0  0  0  0  0  0  0  0
   19.3957    4.6451   53.3627 C   0  0  0  0  0  0  0  0  0  0  0  0
   18.2478    4.8626   54.1232 C   0  0  0  0  0  0  0  0  0  0  0  0
   17.1202    4.0701   54.0285 C   0  0  0  0  0  0  0  0  0  0  0  0
   17.1280    3.0103   53.1378 C   0  0  0  0  0  0  0  0  0  0  0  0
   15.5637    1.9252   53.0183 Br  0  0  0  0  0  0  0  0  0  0  0  0
   18.2438    2.7626   52.3683 C   0  0  0  0  0  0  0  0  0  0  0  0
   19.3678    3.5854   52.4901 C   0  0  0  0  0  0  0  0  0  0  0  0
   28.8459   10.5661   57.1260 O   0  0  0  0  0  0  0  0  0  0  0  0
   29.4502   11.4786   61.1268 C   0  0  0  0  0  0  0  0  0  0  0  0
   29.8788   10.2681   60.5786 C   0  0  0  0  0  0  0  0  0  0  0  0
   29.6598   10.0067   59.2557 C   0  0  0  0  0  0  0  0  0  0  0  0
   29.0133   10.9180   58.4155 C   0  0  0  0  0  0  0  0  0  0  0  0
   28.6021   12.0914   58.9618 C   0  0  0  0  0  0  0  0  0  0  0  0
   27.7186   13.4455   57.9797 Br  0  0  0  0  0  0  0  0  0  0  0  0
   28.8188   12.3788   60.3244 C   0  0  0  0  0  0  0  0  0  0  0  0
   30.7893   11.3577   63.1343 O   0  0  0  0  0  0  0  0  0  0  0  0
   29.6660   11.7754   62.5022 N   0  0  0  0  0  0  0  0  0  0  0  0
   28.8155   12.4239   63.1285 O   0  0  0  0  0  0  0  0  0  0  0  0
 31 32  1  0  0  0
 32 33  2  0  0  0
 32 24  1  0  0  0
 24 25  2  0  0  0
 25 26  1  0  0  0
 26 27  2  0  0  0
 27 23  1  0  0  0
 23  1  1  0  0  0
  1  2  2  0  0  0
  2  3  1  0  0  0
  3  4  2  0  0  0
  4  5  1  0  0  0
  5  6  2  0  0  0
  4  7  1  0  0  0
  7  8  2  0  0  0
  8  9  1  0  0  0
  9 10  2  0  0  0
 10 12  1  0  0  0
 12 13  1  0  0  0
 13 14  2  0  0  0
 13 16  1  0  0  0
 16 17  2  0  0  0
 17 18  1  0  0  0
 18 19  2  0  0  0
 19 20  1  0  0  0
 19 21  1  0  0  0
 21 22  2  0  0  0
 10 11  1  0  0  0
 27 28  1  0  0  0
 28 29  1  0  0  0
 28 30  2  0  0  0
 30 24  1  0  0  0
  6  1  1  0  0  0
 11  7  1  0  0  0
 22 16  1  0  0  0
 12 15  1  0  0  0
M  CHG 1  31  -1
M  CHG 1  32   1
M  END
> <minimizedAffinity>
25.87682

> <CNNscore>
0.4682702124

> <CNNaffinity>
6.0801649094

> <CNN_VS>
2.8471601009

> <CNNaffinity_variance>
0.0527534373

$$$$
[H]c1c([H])c(C(=O)N([H])c2nnc(-c3c([H])c([H])c(Oc4c([H])c([H])c([N+](=O)[O-])c([H])c4Br)c([H])c3[H])s2)c([H])c([H])c1Br


 33 36  0  0  0  0  0  0  0  0999 V2000
   27.7203    9.8813   56.5509 C   0  0  0  0  0  0  0  0  0  0  0  0
   28.0615    9.1253   55.4393 C   0  0  0  0  0  0  0  0  0  0  0  0
   27.1202    8.3608   54.7484 C   0  0  0  0  0  0  0  0  0  0  0  0
   25.8114    8.3427   55.1656 C   0  0  0  0  0  0  0  0  0  0  0  0
   25.5025    9.0992   56.2677 C   0  0  0  0  0  0  0  0  0  0  0  0
   26.4153    9.8640   56.9691 C   0  0  0  0  0  0  0  0  0  0  0  0
   24.7719    7.5572   54.4795 C   0  0  0  0  0  0  0  0  0  0  0  0
   24.4818    7.4957   53.1841 N   0  0  0  0  0  0  0  0  0  0  0  0
   23.5435    6.7549   52.7864 N   0  0  0  0  0  0  0  0  0  0  0  0
   22.8431    6.0349   53.6582 C   0  0  0  0  0  0  0  0  0  0  0  0
   23.6075    6.4752   55.1233 S   0  0  0  0  0  0  0  0  0  0  0  0
   21.7532    5.1431   53.4162 N   0  0  0  0  0  0  0  0  0  0  0  0
   20.4359    5.5359   53.7229 C   0  0  0  0  0  0  0  0  0  0  0  0
   20.1925    6.6865   54.2184 O   0  0  0  0  0  0  0  0  0  0  0  0
   21.9378    4.2141   53.0169 H   0  0  0  0  0  0  0  0  0  0  0  0
   19.3326    4.6315   53.4775 C   0  0  0  0  0  0  0  0  0  0  0  0
   18.1078    4.9213   54.0768 C   0  0  0  0  0  0  0  0  0  0  0  0
   16.9861    4.1306   53.9186 C   0  0  0  0  0  0  0  0  0  0  0  0
   17.0800    2.9976   53.1288 C   0  0  0  0  0  0  0  0  0  0  0  0
   15.5227    1.9159   52.9199 Br  0  0  0  0  0  0  0  0  0  0  0  0
   18.2735    2.6771   52.5194 C   0  0  0  0  0  0  0  0  0  0  0  0
   19.3890    3.5003   52.7014 C   0  0  0  0  0  0  0  0  0  0  0  0
   28.6503   10.6213   57.2187 O   0  0  0  0  0  0  0  0  0  0  0  0
   28.9324   11.9136   61.1499 C   0  0  0  0  0  0  0  0  0  0  0  0
   28.6315   12.7942   60.1090 C   0  0  0  0  0  0  0  0  0  0  0  0
   28.5481   12.3276   58.8278 C   0  0  0  0  0  0  0  0  0  0  0  0
   28.7553   10.9814   58.5125 C   0  0  0  0  0  0  0  0  0  0  0  0
   29.0469   10.1361   59.5345 C   0  0  0  0  0  0  0  0  0  0  0  0
   29.3512    8.2837   59.3007 Br  0  0  0  0  0  0  0  0  0  0  0  0
   29.1375   10.5990   60.8627 C   0  0  0  0  0  0  0  0  0  0  0  0
   30.2318   12.5762   63.0762 O   0  0  0  0  0  0  0  0  0  0  0  0
   29.0253   12.3744   62.4936 N   0  0  0  0  0  0  0  0  0  0  0  0
   27.9893   12.5934   63.1379 O   0  0  0  0  0  0  0  0  0  0  0  0
 31 32  1  0  0  0
 32 33  2  0  0  0
 32 24  1  0  0  0
 24 25  2  0  0  0
 25 26  1  0  0  0
 26 27  2  0  0  0
 27 23  1  0  0  0
 23  1  1  0  0  0
  1  2  2  0  0  0
  2  3  1  0  0  0
  3  4  2  0  0  0
  4  5  1  0  0  0
  5  6  2  0  0  0
  4  7  1  0  0  0
  7  8  2  0  0  0
  8  9  1  0  0  0
  9 10  2  0  0  0
 10 12  1  0  0  0
 12 13  1  0  0  0
 13 14  2  0  0  0
 13 16  1  0  0  0
 16 17  2  0  0  0
 17 18  1  0  0  0
 18 19  2  0  0  0
 19 20  1  0  0  0
 19 21  1  0  0  0
 21 22  2  0  0  0
 10 11  1  0  0  0
 27 28  1  0  0  0
 28 29  1  0  0  0
 28 30  2  0  0  0
 30 24  1  0  0  0
  6  1  1  0  0  0
 11  7  1  0  0  0
 22 16  1  0  0  0
 12 15  1  0  0  0
M  CHG 1  31  -1
M  CHG 1  32   1
M  END
> <minimizedAffinity>
21.80850

> <CNNscore>
0.4670370519

> <CNNaffinity>
6.1518111229

> <CNN_VS>
2.8731236458

> <CNNaffinity_variance>
0.0127889635

$$$$
[H]c1c([H])c(C(=O)N([H])c2nnc(-c3c([H])c([H])c(Oc4c([H])c([H])c([N+](=O)[O-])c([H])c4Br)c([H])c3[H])s2)c([H])c([H])c1Br


 33 36  0  0  0  0  0  0  0  0999 V2000
   27.2631    9.3949   56.1657 C   0  0  0  0  0  0  0  0  0  0  0  0
   27.3741    8.6222   55.0193 C   0  0  0  0  0  0  0  0  0  0  0  0
   26.2562    8.0852   54.3791 C   0  0  0  0  0  0  0  0  0  0  0  0
   24.9995    8.3171   54.8833 C   0  0  0  0  0  0  0  0  0  0  0  0
   24.9196    9.0841   56.0180 C   0  0  0  0  0  0  0  0  0  0  0  0
   26.0104    9.6268   56.6707 C   0  0  0  0  0  0  0  0  0  0  0  0
   23.7817    7.7791   54.2541 C   0  0  0  0  0  0  0  0  0  0  0  0
   23.4377    7.7566   52.9706 N   0  0  0  0  0  0  0  0  0  0  0  0
   22.3392    7.2454   52.6250 N   0  0  0  0  0  0  0  0  0  0  0  0
   21.5237    6.7286   53.5399 C   0  0  0  0  0  0  0  0  0  0  0  0
   22.4228    7.0132   54.9666 S   0  0  0  0  0  0  0  0  0  0  0  0
   20.2487    6.1094   53.3591 N   0  0  0  0  0  0  0  0  0  0  0  0
   20.0974    4.7256   53.5736 C   0  0  0  0  0  0  0  0  0  0  0  0
   21.0877    4.0044   53.9307 O   0  0  0  0  0  0  0  0  0  0  0  0
   19.4441    6.6809   53.0720 H   0  0  0  0  0  0  0  0  0  0  0  0
   18.8052    4.0994   53.3899 C   0  0  0  0  0  0  0  0  0  0  0  0
   17.7222    4.6230   54.0944 C   0  0  0  0  0  0  0  0  0  0  0  0
   16.4438    4.1076   54.0027 C   0  0  0  0  0  0  0  0  0  0  0  0
   16.2254    3.0209   53.1733 C   0  0  0  0  0  0  0  0  0  0  0  0
   14.4548    2.3205   53.0572 Br  0  0  0  0  0  0  0  0  0  0  0  0
   17.2703    2.4749   52.4603 C   0  0  0  0  0  0  0  0  0  0  0  0
   18.5516    3.0222   52.5773 C   0  0  0  0  0  0  0  0  0  0  0  0
   28.3635    9.9109   56.7832 O   0  0  0  0  0  0  0  0  0  0  0  0
   29.0578   11.0345   60.7150 C   0  0  0  0  0  0  0  0  0  0  0  0
   29.2278    9.7158   60.2890 C   0  0  0  0  0  0  0  0  0  0  0  0
   28.9882    9.3875   58.9847 C   0  0  0  0  0  0  0  0  0  0  0  0
   28.5730   10.3352   58.0445 C   0  0  0  0  0  0  0  0  0  0  0  0
   28.4118   11.6138   58.4725 C   0  0  0  0  0  0  0  0  0  0  0  0
   27.8639   13.0297   57.3438 Br  0  0  0  0  0  0  0  0  0  0  0  0
   28.6540   11.9715   59.8141 C   0  0  0  0  0  0  0  0  0  0  0  0
   30.5525   11.3605   62.5852 O   0  0  0  0  0  0  0  0  0  0  0  0
   29.3007   11.4026   62.0686 N   0  0  0  0  0  0  0  0  0  0  0  0
   28.3549   11.7659   62.7825 O   0  0  0  0  0  0  0  0  0  0  0  0
 31 32  1  0  0  0
 32 33  2  0  0  0
 32 24  1  0  0  0
 24 25  2  0  0  0
 25 26  1  0  0  0
 26 27  2  0  0  0
 27 23  1  0  0  0
 23  1  1  0  0  0
  1  2  2  0  0  0
  2  3  1  0  0  0
  3  4  2  0  0  0
  4  5  1  0  0  0
  5  6  2  0  0  0
  4  7  1  0  0  0
  7  8  2  0  0  0
  8  9  1  0  0  0
  9 10  2  0  0  0
 10 12  1  0  0  0
 12 13  1  0  0  0
 13 14  2  0  0  0
 13 16  1  0  0  0
 16 17  2  0  0  0
 17 18  1  0  0  0
 18 19  2  0  0  0
 19 20  1  0  0  0
 19 21  1  0  0  0
 21 22  2  0  0  0
 10 11  1  0  0  0
 27 28  1  0  0  0
 28 29  1  0  0  0
 28 30  2  0  0  0
 30 24  1  0  0  0
  6  1  1  0  0  0
 11  7  1  0  0  0
 22 16  1  0  0  0
 12 15  1  0  0  0
M  CHG 1  31  -1
M  CHG 1  32   1
M  END
> <minimizedAffinity>
24.31018

> <CNNscore>
0.4537224770

> <CNNaffinity>
6.2353549004

> <CNN_VS>
2.8291206360

> <CNNaffinity_variance>
0.1044732556

$$$$
[H]c1c([H])c(C(=O)N([H])c2nnc(-c3c([H])c([H])c(Oc4c([H])c([H])c([N+](=O)[O-])c([H])c4Br)c([H])c3[H])s2)c([H])c([H])c1Br


 33 36  0  0  0  0  0  0  0  0999 V2000
   23.1583    8.2732   53.6806 C   0  0  0  0  0  0  0  0  0  0  0  0
   24.4085    7.8170   53.2898 C   0  0  0  0  0  0  0  0  0  0  0  0
   25.5708    8.1653   53.9793 C   0  0  0  0  0  0  0  0  0  0  0  0
   25.4963    8.9835   55.0804 C   0  0  0  0  0  0  0  0  0  0  0  0
   24.2475    9.4200   55.4438 C   0  0  0  0  0  0  0  0  0  0  0  0
   23.0819    9.0901   54.7783 C   0  0  0  0  0  0  0  0  0  0  0  0
   26.6853    9.3865   55.8499 C   0  0  0  0  0  0  0  0  0  0  0  0
   27.9712    9.2080   55.5659 N   0  0  0  0  0  0  0  0  0  0  0  0
   28.8531    9.6302   56.3607 N   0  0  0  0  0  0  0  0  0  0  0  0
   28.5012   10.2533   57.4819 C   0  0  0  0  0  0  0  0  0  0  0  0
   26.7967   10.2101   57.3500 S   0  0  0  0  0  0  0  0  0  0  0  0
   29.3353   10.8015   58.5043 N   0  0  0  0  0  0  0  0  0  0  0  0
   29.4652   10.1409   59.7415 C   0  0  0  0  0  0  0  0  0  0  0  0
   28.8458    9.0491   59.9709 O   0  0  0  0  0  0  0  0  0  0  0  0
   29.8392   11.6803   58.3302 H   0  0  0  0  0  0  0  0  0  0  0  0
   30.3103   10.6975   60.7766 C   0  0  0  0  0  0  0  0  0  0  0  0
   31.6860   10.4980   60.6708 C   0  0  0  0  0  0  0  0  0  0  0  0
   32.5902   10.9782   61.5983 C   0  0  0  0  0  0  0  0  0  0  0  0
   32.1106   11.6907   62.6839 C   0  0  0  0  0  0  0  0  0  0  0  0
   33.3715   12.3473   63.9560 Br  0  0  0  0  0  0  0  0  0  0  0  0
   30.7574   11.9089   62.8240 C   0  0  0  0  0  0  0  0  0  0  0  0
   29.8706   11.4083   61.8658 C   0  0  0  0  0  0  0  0  0  0  0  0
   22.0309    7.9280   52.9963 O   0  0  0  0  0  0  0  0  0  0  0  0
   19.1565    4.9780   53.4857 C   0  0  0  0  0  0  0  0  0  0  0  0
   18.8096    6.2952   53.1787 C   0  0  0  0  0  0  0  0  0  0  0  0
   19.7876    7.2367   53.0260 C   0  0  0  0  0  0  0  0  0  0  0  0
   21.1440    6.9285   53.1670 C   0  0  0  0  0  0  0  0  0  0  0  0
   21.4670    5.6437   53.4653 C   0  0  0  0  0  0  0  0  0  0  0  0
   23.2464    5.0406   53.6864 Br  0  0  0  0  0  0  0  0  0  0  0  0
   20.4721    4.6586   53.6269 C   0  0  0  0  0  0  0  0  0  0  0  0
   18.3383    2.7280   53.1600 O   0  0  0  0  0  0  0  0  0  0  0  0
   18.1567    3.9780   53.6501 N   0  0  0  0  0  0  0  0  0  0  0  0
   17.1075    4.2551   54.2490 O   0  0  0  0  0  0  0  0  0  0  0  0
 31 32  1  0  0  0
 32 33  2  0  0  0
 32 24  1  0  0  0
 24 25  2  0  0  0
 25 26  1  0  0  0
 26 27  2  0  0  0
 27 23  1  0  0  0
 23  1  1  0  0  0
  1  2  2  0  0  0
  2  3  1  0  0  0
  3  4  2  0  0  0
  4  5  1  0  0  0
  5  6  2  0  0  0
  4  7  1  0  0  0
  7  8  2  0  0  0
  8  9  1  0  0  0
  9 10  2  0  0  0
 10 12  1  0  0  0
 12 13  1  0  0  0
 13 14  2  0  0  0
 13 16  1  0  0  0
 16 17  2  0  0  0
 17 18  1  0  0  0
 18 19  2  0  0  0
 19 20  1  0  0  0
 19 21  1  0  0  0
 21 22  2  0  0  0
 10 11  1  0  0  0
 27 28  1  0  0  0
 28 29  1  0  0  0
 28 30  2  0  0  0
 30 24  1  0  0  0
  6  1  1  0  0  0
 11  7  1  0  0  0
 22 16  1  0  0  0
 12 15  1  0  0  0
M  CHG 1  31  -1
M  CHG 1  32   1
M  END
> <minimizedAffinity>
14.74426

> <CNNscore>
0.4330956340

> <CNNaffinity>
6.1632394791

> <CNN_VS>
2.6692721844

> <CNNaffinity_variance>
0.1843577474

$$$$
[H]c1c([H])c(C(=O)N([H])c2nnc(-c3c([H])c([H])c(Oc4c([H])c([H])c([N+](=O)[O-])c([H])c4Br)c([H])c3[H])s2)c([H])c([H])c1Br


 33 36  0  0  0  0  0  0  0  0999 V2000
   28.6526    9.7530   48.2794 C   0  0  0  0  0  0  0  0  0  0  0  0
   28.4746    8.4936   48.8323 C   0  0  0  0  0  0  0  0  0  0  0  0
   28.2651    8.3099   50.1999 C   0  0  0  0  0  0  0  0  0  0  0  0
   28.2307    9.3959   51.0407 C   0  0  0  0  0  0  0  0  0  0  0  0
   28.4101   10.6290   50.4667 C   0  0  0  0  0  0  0  0  0  0  0  0
   28.6195   10.8375   49.1166 C   0  0  0  0  0  0  0  0  0  0  0  0
   28.0134    9.2680   52.4914 C   0  0  0  0  0  0  0  0  0  0  0  0
   27.1103    8.5457   53.1462 N   0  0  0  0  0  0  0  0  0  0  0  0
   27.0832    8.5682   54.4057 N   0  0  0  0  0  0  0  0  0  0  0  0
   27.9549    9.3117   55.0812 C   0  0  0  0  0  0  0  0  0  0  0  0
   28.8478   10.0032   53.7969 S   0  0  0  0  0  0  0  0  0  0  0  0
   28.0913    9.4745   56.4942 N   0  0  0  0  0  0  0  0  0  0  0  0
   28.3896   10.7404   57.0351 C   0  0  0  0  0  0  0  0  0  0  0  0
   28.5422   11.7576   56.2799 O   0  0  0  0  0  0  0  0  0  0  0  0
   27.9701    8.6620   57.1119 H   0  0  0  0  0  0  0  0  0  0  0  0
   28.5278   10.9040   58.4668 C   0  0  0  0  0  0  0  0  0  0  0  0
   28.8538    9.7785   59.2220 C   0  0  0  0  0  0  0  0  0  0  0  0
   29.0084    9.8113   60.5944 C   0  0  0  0  0  0  0  0  0  0  0  0
   28.8322   11.0164   61.2525 C   0  0  0  0  0  0  0  0  0  0  0  0
   29.0491   11.0457   63.1475 Br  0  0  0  0  0  0  0  0  0  0  0  0
   28.5093   12.1514   60.5411 C   0  0  0  0  0  0  0  0  0  0  0  0
   28.3606   12.0816   59.1526 C   0  0  0  0  0  0  0  0  0  0  0  0
   28.8596    9.9184   46.9422 O   0  0  0  0  0  0  0  0  0  0  0  0
   27.3382    7.7665   43.7392 C   0  0  0  0  0  0  0  0  0  0  0  0
   26.6073    7.9445   44.9155 C   0  0  0  0  0  0  0  0  0  0  0  0
   27.1454    8.6603   45.9472 C   0  0  0  0  0  0  0  0  0  0  0  0
   28.4194    9.2309   45.8706 C   0  0  0  0  0  0  0  0  0  0  0  0
   29.1189    9.0501   44.7207 C   0  0  0  0  0  0  0  0  0  0  0  0
   30.8516    9.7529   44.4332 Br  0  0  0  0  0  0  0  0  0  0  0  0
   28.5806    8.3146   43.6457 C   0  0  0  0  0  0  0  0  0  0  0  0
   27.6008    6.2596   41.8689 O   0  0  0  0  0  0  0  0  0  0  0  0
   26.8005    7.0249   42.6496 N   0  0  0  0  0  0  0  0  0  0  0  0
   25.5851    7.0805   42.4127 O   0  0  0  0  0  0  0  0  0  0  0  0
 31 32  1  0  0  0
 32 33  2  0  0  0
 32 24  1  0  0  0
 24 25  2  0  0  0
 25 26  1  0  0  0
 26 27  2  0  0  0
 27 23  1  0  0  0
 23  1  1  0  0  0
  1  2  2  0  0  0
  2  3  1  0  0  0
  3  4  2  0  0  0
  4  5  1  0  0  0
  5  6  2  0  0  0
  4  7  1  0  0  0
  7  8  2  0  0  0
  8  9  1  0  0  0
  9 10  2  0  0  0
 10 12  1  0  0  0
 12 13  1  0  0  0
 13 14  2  0  0  0
 13 16  1  0  0  0
 16 17  2  0  0  0
 17 18  1  0  0  0
 18 19  2  0  0  0
 19 20  1  0  0  0
 19 21  1  0  0  0
 21 22  2  0  0  0
 10 11  1  0  0  0
 27 28  1  0  0  0
 28 29  1  0  0  0
 28 30  2  0  0  0
 30 24  1  0  0  0
  6  1  1  0  0  0
 11  7  1  0  0  0
 22 16  1  0  0  0
 12 15  1  0  0  0
M  CHG 1  31  -1
M  CHG 1  32   1
M  END
> <minimizedAffinity>
43.40773

> <CNNscore>
0.4311447740

> <CNNaffinity>
5.8030009270

> <CNN_VS>
2.5019335747

> <CNNaffinity_variance>
0.4140517116

$$$$
[H]c1c([H])c(C(=O)N([H])c2nnc(-c3c([H])c([H])c(Oc4c([H])c([H])c([N+](=O)[O-])c([H])c4Br)c([H])c3[H])s2)c([H])c([H])c1Br


 33 36  0  0  0  0  0  0  0  0999 V2000
   25.5915    8.2704   54.3778 C   0  0  0  0  0  0  0  0  0  0  0  0
   26.9778    8.2692   54.3323 C   0  0  0  0  0  0  0  0  0  0  0  0
   27.7502    8.8668   55.3293 C   0  0  0  0  0  0  0  0  0  0  0  0
   27.1389    9.4799   56.3960 C   0  0  0  0  0  0  0  0  0  0  0  0
   25.7672    9.4663   56.4148 C   0  0  0  0  0  0  0  0  0  0  0  0
   24.9798    8.8822   55.4406 C   0  0  0  0  0  0  0  0  0  0  0  0
   27.8978   10.1273   57.4791 C   0  0  0  0  0  0  0  0  0  0  0  0
   28.3811    9.6001   58.5991 N   0  0  0  0  0  0  0  0  0  0  0  0
   29.0117   10.3267   59.4128 N   0  0  0  0  0  0  0  0  0  0  0  0
   29.1949   11.6184   59.1543 C   0  0  0  0  0  0  0  0  0  0  0  0
   28.4006   11.7584   57.6463 S   0  0  0  0  0  0  0  0  0  0  0  0
   29.8731   12.6034   59.9364 N   0  0  0  0  0  0  0  0  0  0  0  0
   29.3461   13.9048   60.0473 C   0  0  0  0  0  0  0  0  0  0  0  0
   28.2616   14.2265   59.4566 O   0  0  0  0  0  0  0  0  0  0  0  0
   30.7472   12.3550   60.4168 H   0  0  0  0  0  0  0  0  0  0  0  0
   30.0343   14.9018   60.8397 C   0  0  0  0  0  0  0  0  0  0  0  0
   29.3119   16.0229   61.2455 C   0  0  0  0  0  0  0  0  0  0  0  0
   29.8619   17.0406   62.0006 C   0  0  0  0  0  0  0  0  0  0  0  0
   31.1918   16.9450   62.3731 C   0  0  0  0  0  0  0  0  0  0  0  0
   31.9369   18.3580   63.4157 Br  0  0  0  0  0  0  0  0  0  0  0  0
   31.9394   15.8523   61.9915 C   0  0  0  0  0  0  0  0  0  0  0  0
   31.3500   14.8406   61.2272 C   0  0  0  0  0  0  0  0  0  0  0  0
   24.8486    7.6857   53.3957 O   0  0  0  0  0  0  0  0  0  0  0  0
   21.0230    6.0832   53.3773 C   0  0  0  0  0  0  0  0  0  0  0  0
   22.1485    5.2899   53.6081 C   0  0  0  0  0  0  0  0  0  0  0  0
   23.3911    5.8574   53.6055 C   0  0  0  0  0  0  0  0  0  0  0  0
   23.5835    7.2232   53.3774 C   0  0  0  0  0  0  0  0  0  0  0  0
   22.4802    7.9829   53.1547 C   0  0  0  0  0  0  0  0  0  0  0  0
   22.5448    9.8464   52.8351 Br  0  0  0  0  0  0  0  0  0  0  0  0
   21.1901    7.4154   53.1533 C   0  0  0  0  0  0  0  0  0  0  0  0
   18.6175    6.3072   53.3363 O   0  0  0  0  0  0  0  0  0  0  0  0
   19.7171    5.5165   53.3746 N   0  0  0  0  0  0  0  0  0  0  0  0
   19.5851    4.2845   53.4077 O   0  0  0  0  0  0  0  0  0  0  0  0
 31 32  1  0  0  0
 32 33  2  0  0  0
 32 24  1  0  0  0
 24 25  2  0  0  0
 25 26  1  0  0  0
 26 27  2  0  0  0
 27 23  1  0  0  0
 23  1  1  0  0  0
  1  2  2  0  0  0
  2  3  1  0  0  0
  3  4  2  0  0  0
  4  5  1  0  0  0
  5  6  2  0  0  0
  4  7  1  0  0  0
  7  8  2  0  0  0
  8  9  1  0  0  0
  9 10  2  0  0  0
 10 12  1  0  0  0
 12 13  1  0  0  0
 13 14  2  0  0  0
 13 16  1  0  0  0
 16 17  2  0  0  0
 17 18  1  0  0  0
 18 19  2  0  0  0
 19 20  1  0  0  0
 19 21  1  0  0  0
 21 22  2  0  0  0
 10 11  1  0  0  0
 27 28  1  0  0  0
 28 29  1  0  0  0
 28 30  2  0  0  0
 30 24  1  0  0  0
  6  1  1  0  0  0
 11  7  1  0  0  0
 22 16  1  0  0  0
 12 15  1  0  0  0
M  CHG 1  31  -1
M  CHG 1  32   1
M  END
> <minimizedAffinity>
7.95909

> <CNNscore>
0.4242028296

> <CNNaffinity>
6.0472612381

> <CNN_VS>
2.5652654171

> <CNNaffinity_variance>
0.0315484814

$$$$
[H]c1c([H])c(C(=O)N([H])c2nnc(-c3c([H])c([H])c(Oc4c([H])c([H])c([N+](=O)[O-])c([H])c4Br)c([H])c3[H])s2)c([H])c([H])c1Br


 33 36  0  0  0  0  0  0  0  0999 V2000
   22.8104    6.3884   53.2264 C   0  0  0  0  0  0  0  0  0  0  0  0
   23.3044    7.5718   52.6980 C   0  0  0  0  0  0  0  0  0  0  0  0
   24.3620    8.2617   53.2924 C   0  0  0  0  0  0  0  0  0  0  0  0
   24.9450    7.7710   54.4355 C   0  0  0  0  0  0  0  0  0  0  0  0
   24.4361    6.5994   54.9360 C   0  0  0  0  0  0  0  0  0  0  0  0
   23.3901    5.8977   54.3671 C   0  0  0  0  0  0  0  0  0  0  0  0
   26.0635    8.4517   55.1093 C   0  0  0  0  0  0  0  0  0  0  0  0
   27.3222    8.5991   54.7093 N   0  0  0  0  0  0  0  0  0  0  0  0
   28.1418    9.2221   55.4357 N   0  0  0  0  0  0  0  0  0  0  0  0
   27.7514    9.7321   56.6004 C   0  0  0  0  0  0  0  0  0  0  0  0
   26.1054    9.2686   56.6166 S   0  0  0  0  0  0  0  0  0  0  0  0
   28.5149   10.4641   57.5612 N   0  0  0  0  0  0  0  0  0  0  0  0
   28.7044    9.9464   58.8574 C   0  0  0  0  0  0  0  0  0  0  0  0
   28.2024    8.8230   59.1955 O   0  0  0  0  0  0  0  0  0  0  0  0
   28.9241   11.3699   57.2995 H   0  0  0  0  0  0  0  0  0  0  0  0
   29.4777   10.6891   59.8299 C   0  0  0  0  0  0  0  0  0  0  0  0
   30.6348   10.0952   60.3320 C   0  0  0  0  0  0  0  0  0  0  0  0
   31.4502   10.7051   61.2655 C   0  0  0  0  0  0  0  0  0  0  0  0
   31.1047   11.9644   61.7252 C   0  0  0  0  0  0  0  0  0  0  0  0
   32.2406   12.7936   63.0141 Br  0  0  0  0  0  0  0  0  0  0  0  0
   29.9685   12.5846   61.2532 C   0  0  0  0  0  0  0  0  0  0  0  0
   29.1661   11.9377   60.3082 C   0  0  0  0  0  0  0  0  0  0  0  0
   21.7746    5.7260   52.6376 O   0  0  0  0  0  0  0  0  0  0  0  0
   18.0339    4.5275   53.9697 C   0  0  0  0  0  0  0  0  0  0  0  0
   18.9729    3.6080   53.4983 C   0  0  0  0  0  0  0  0  0  0  0  0
   20.1939    4.0446   53.0684 C   0  0  0  0  0  0  0  0  0  0  0  0
   20.5461    5.3975   53.0822 C   0  0  0  0  0  0  0  0  0  0  0  0
   19.6234    6.2807   53.5434 C   0  0  0  0  0  0  0  0  0  0  0  0
   19.9240    8.1457   53.6428 Br  0  0  0  0  0  0  0  0  0  0  0  0
   18.3585    5.8492   53.9909 C   0  0  0  0  0  0  0  0  0  0  0  0
   15.7323    3.9227   53.5515 O   0  0  0  0  0  0  0  0  0  0  0  0
   16.7545    4.0986   54.4233 N   0  0  0  0  0  0  0  0  0  0  0  0
   16.5742    3.8836   55.6306 O   0  0  0  0  0  0  0  0  0  0  0  0
 31 32  1  0  0  0
 32 33  2  0  0  0
 32 24  1  0  0  0
 24 25  2  0  0  0
 25 26  1  0  0  0
 26 27  2  0  0  0
 27 23  1  0  0  0
 23  1  1  0  0  0
  1  2  2  0  0  0
  2  3  1  0  0  0
  3  4  2  0  0  0
  4  5  1  0  0  0
  5  6  2  0  0  0
  4  7  1  0  0  0
  7  8  2  0  0  0
  8  9  1  0  0  0
  9 10  2  0  0  0
 10 12  1  0  0  0
 12 13  1  0  0  0
 13 14  2  0  0  0
 13 16  1  0  0  0
 16 17  2  0  0  0
 17 18  1  0  0  0
 18 19  2  0  0  0
 19 20  1  0  0  0
 19 21  1  0  0  0
 21 22  2  0  0  0
 10 11  1  0  0  0
 27 28  1  0  0  0
 28 29  1  0  0  0
 28 30  2  0  0  0
 30 24  1  0  0  0
  6  1  1  0  0  0
 11  7  1  0  0  0
 22 16  1  0  0  0
 12 15  1  0  0  0
M  CHG 1  31  -1
M  CHG 1  32   1
M  END
> <minimizedAffinity>
14.32916

> <CNNscore>
0.4157296717

> <CNNaffinity>
6.2306404114

> <CNN_VS>
2.5902621746

> <CNNaffinity_variance>
0.1571837366

$$$$
[H]c1c([H])c(C(=O)N([H])c2nnc(-c3c([H])c([H])c(Oc4c([H])c([H])c([N+](=O)[O-])c([H])c4Br)c([H])c3[H])s2)c([H])c([H])c1Br


 33 36  0  0  0  0  0  0  0  0999 V2000
   29.9442   12.4867   60.6062 C   0  0  0  0  0  0  0  0  0  0  0  0
   30.2518   11.1503   60.3988 C   0  0  0  0  0  0  0  0  0  0  0  0
   29.6275   10.3939   59.4059 C   0  0  0  0  0  0  0  0  0  0  0  0
   28.6771   10.9713   58.5992 C   0  0  0  0  0  0  0  0  0  0  0  0
   28.3927   12.2939   58.8270 C   0  0  0  0  0  0  0  0  0  0  0  0
   28.9959   13.0643   59.8031 C   0  0  0  0  0  0  0  0  0  0  0  0
   27.9834   10.2271   57.5347 C   0  0  0  0  0  0  0  0  0  0  0  0
   28.4941    9.5542   56.5088 N   0  0  0  0  0  0  0  0  0  0  0  0
   27.7264    8.9758   55.6941 N   0  0  0  0  0  0  0  0  0  0  0  0
   26.4078    9.0367   55.8576 C   0  0  0  0  0  0  0  0  0  0  0  0
   26.3051    9.9887   57.2746 S   0  0  0  0  0  0  0  0  0  0  0  0
   25.3759    8.4576   55.0565 N   0  0  0  0  0  0  0  0  0  0  0  0
   24.0919    9.0359   55.0305 C   0  0  0  0  0  0  0  0  0  0  0  0
   23.8278   10.0795   55.7158 O   0  0  0  0  0  0  0  0  0  0  0  0
   25.5778    7.6172   54.5003 H   0  0  0  0  0  0  0  0  0  0  0  0
   23.0473    8.4482   54.2187 C   0  0  0  0  0  0  0  0  0  0  0  0
   21.8483    9.1484   54.0941 C   0  0  0  0  0  0  0  0  0  0  0  0
   20.7800    8.6863   53.3500 C   0  0  0  0  0  0  0  0  0  0  0  0
   20.9034    7.4721   52.6967 C   0  0  0  0  0  0  0  0  0  0  0  0
   19.4198    6.8473   51.6732 Br  0  0  0  0  0  0  0  0  0  0  0  0
   22.0727    6.7500   52.7955 C   0  0  0  0  0  0  0  0  0  0  0  0
   23.1340    7.2481   53.5575 C   0  0  0  0  0  0  0  0  0  0  0  0
   30.5593   13.2135   61.5818 O   0  0  0  0  0  0  0  0  0  0  0  0
   32.5057   16.8762   61.5598 C   0  0  0  0  0  0  0  0  0  0  0  0
   33.2093   15.6731   61.6442 C   0  0  0  0  0  0  0  0  0  0  0  0
   32.5296   14.4881   61.6486 C   0  0  0  0  0  0  0  0  0  0  0  0
   31.1349   14.4314   61.5706 C   0  0  0  0  0  0  0  0  0  0  0  0
   30.4634   15.6090   61.4887 C   0  0  0  0  0  0  0  0  0  0  0  0
   28.5793   15.7284   61.3689 Br  0  0  0  0  0  0  0  0  0  0  0  0
   31.1472   16.8414   61.4830 C   0  0  0  0  0  0  0  0  0  0  0  0
   33.5023   18.7506   62.7137 O   0  0  0  0  0  0  0  0  0  0  0  0
   33.1901   18.1244   61.5534 N   0  0  0  0  0  0  0  0  0  0  0  0
   33.5038   18.6443   60.4729 O   0  0  0  0  0  0  0  0  0  0  0  0
 31 32  1  0  0  0
 32 33  2  0  0  0
 32 24  1  0  0  0
 24 25  2  0  0  0
 25 26  1  0  0  0
 26 27  2  0  0  0
 27 23  1  0  0  0
 23  1  1  0  0  0
  1  2  2  0  0  0
  2  3  1  0  0  0
  3  4  2  0  0  0
  4  5  1  0  0  0
  5  6  2  0  0  0
  4  7  1  0  0  0
  7  8  2  0  0  0
  8  9  1  0  0  0
  9 10  2  0  0  0
 10 12  1  0  0  0
 12 13  1  0  0  0
 13 14  2  0  0  0
 13 16  1  0  0  0
 16 17  2  0  0  0
 17 18  1  0  0  0
 18 19  2  0  0  0
 19 20  1  0  0  0
 19 21  1  0  0  0
 21 22  2  0  0  0
 10 11  1  0  0  0
 27 28  1  0  0  0
 28 29  1  0  0  0
 28 30  2  0  0  0
 30 24  1  0  0  0
  6  1  1  0  0  0
 11  7  1  0  0  0
 22 16  1  0  0  0
 12 15  1  0  0  0
M  CHG 1  31  -1
M  CHG 1  32   1
M  END
> <minimizedAffinity>
8.99378

> <CNNscore>
0.3995279074

> <CNNaffinity>
6.0155477524

> <CNN_VS>
2.4033792019

> <CNNaffinity_variance>
0.0876048952

$$$$
[H]OC(c1c([H])nc(N2C([H])([H])C([H])([H])N(c3c([H])c([H])c(F)c([H])c3[H])C([H])([H])[C@@]2([H])C([H])(C([H])([H])[H])C([H])([H])[H])c([H])c1[H])(C(F)(F)F)C(F)(F)F


 33 35  0  0  0  0  0  0  0  0999 V2000
   20.8910    7.2266   53.9564 C   0  0  0  0  0  0  0  0  0  0  0  0
   19.5462    7.2398   53.8318 C   0  0  0  0  0  0  0  0  0  0  0  0
   18.8308    6.0539   53.8057 C   0  0  0  0  0  0  0  0  0  0  0  0
   19.4493    4.8275   53.9010 C   0  0  0  0  0  0  0  0  0  0  0  0
   20.8201    4.8456   54.0239 C   0  0  0  0  0  0  0  0  0  0  0  0
   21.4855    6.0242   54.0473 N   0  0  0  0  0  0  0  0  0  0  0  0
   22.2561    9.2209   53.0925 C   0  0  0  0  0  0  0  0  0  0  0  0
   23.7620    9.1242   53.0412 C   0  0  0  0  0  0  0  0  0  0  0  0
   24.2435    9.1716   54.4066 N   0  0  0  0  0  0  0  0  0  0  0  0
   23.3461    9.5243   55.5087 C   0  0  0  0  0  0  0  0  0  0  0  0
   22.1176    8.6377   55.4702 C   0  0  0  0  0  0  0  0  0  0  0  0
   21.7300    8.3472   54.0530 N   0  0  0  0  0  0  0  0  0  0  0  0
   25.6039    8.8800   54.6495 C   0  0  0  0  0  0  0  0  0  0  0  0
   26.2174    9.1822   55.8486 C   0  0  0  0  0  0  0  0  0  0  0  0
   27.5611    8.9096   56.0648 C   0  0  0  0  0  0  0  0  0  0  0  0
   28.3261    8.3234   55.0792 C   0  0  0  0  0  0  0  0  0  0  0  0
   29.6429    8.0653   55.3099 F   0  0  0  0  0  0  0  0  0  0  0  0
   27.7191    8.0217   53.8878 C   0  0  0  0  0  0  0  0  0  0  0  0
   26.3841    8.2934   53.6738 C   0  0  0  0  0  0  0  0  0  0  0  0
   21.1357   10.7317   51.4144 C   0  0  0  0  0  0  0  0  0  0  0  0
   21.6468    9.3657   51.7588 C   0  0  0  0  0  0  0  0  0  0  0  0
   20.7414    8.2611   51.2928 C   0  0  0  0  0  0  0  0  0  0  0  0
   18.6088    3.6137   53.8862 C   0  0  0  0  0  0  0  0  0  0  0  0
   19.0515    2.8077   54.9500 O   0  0  0  0  0  0  0  0  0  0  0  0
   19.5684    2.0251   54.6376 H   0  0  0  0  0  0  0  0  0  0  0  0
   18.7335    2.7716   52.6496 C   0  0  0  0  0  0  0  0  0  0  0  0
   17.6523    1.9640   52.3924 F   0  0  0  0  0  0  0  0  0  0  0  0
   19.0107    3.5811   51.5309 F   0  0  0  0  0  0  0  0  0  0  0  0
   19.8467    1.9747   52.7622 F   0  0  0  0  0  0  0  0  0  0  0  0
   17.1621    3.9728   54.0337 C   0  0  0  0  0  0  0  0  0  0  0  0
   16.4276    3.0683   53.2605 F   0  0  0  0  0  0  0  0  0  0  0  0
   16.6825    3.7577   55.3352 F   0  0  0  0  0  0  0  0  0  0  0  0
   16.8312    5.2779   53.7667 F   0  0  0  0  0  0  0  0  0  0  0  0
 20 21  1  0  0  0
 21 22  1  0  0  0
 21  7  1  0  0  0
  7  8  1  0  0  0
  8  9  1  0  0  0
  9 10  1  0  0  0
 10 11  1  0  0  0
 11 12  1  0  0  0
 12  1  1  0  0  0
  1  2  2  0  0  0
  2  3  1  0  0  0
  3  4  2  0  0  0
  4  5  1  0  0  0
  5  6  2  0  0  0
  4 23  1  0  0  0
 23 24  1  0  0  0
 23 26  1  0  0  0
 26 27  1  0  0  0
 26 28  1  0  0  0
 26 29  1  0  0  0
 23 30  1  0  0  0
 30 31  1  0  0  0
 30 32  1  0  0  0
 30 33  1  0  0  0
  9 13  1  0  0  0
 13 14  2  0  0  0
 14 15  1  0  0  0
 15 16  2  0  0  0
 16 17  1  0  0  0
 16 18  1  0  0  0
 18 19  2  0  0  0
 12  7  1  0  0  0
  6  1  1  0  0  0
 19 13  1  0  0  0
 24 25  1  0  0  0
M  END
> <minimizedAffinity>
24.06135

> <CNNscore>
0.4820381403

> <CNNaffinity>
6.1759290695

> <CNN_VS>
2.9770333767

> <CNNaffinity_variance>
0.2245633155

$$$$
[H]OC(c1c([H])nc(N2C([H])([H])C([H])([H])N(c3c([H])c([H])c(F)c([H])c3[H])C([H])([H])[C@@]2([H])C([H])(C([H])([H])[H])C([H])([H])[H])c([H])c1[H])(C(F)(F)F)C(F)(F)F


 33 35  0  0  0  0  0  0  0  0999 V2000
   23.6058    8.4819   53.5610 C   0  0  0  0  0  0  0  0  0  0  0  0
   24.6834    7.9023   52.9893 C   0  0  0  0  0  0  0  0  0  0  0  0
   25.9123    7.9181   53.6283 C   0  0  0  0  0  0  0  0  0  0  0  0
   26.0882    8.5188   54.8546 C   0  0  0  0  0  0  0  0  0  0  0  0
   24.9732    9.1036   55.4109 C   0  0  0  0  0  0  0  0  0  0  0  0
   23.7883    9.0671   54.7575 N   0  0  0  0  0  0  0  0  0  0  0  0
   21.1543    9.2240   53.3984 C   0  0  0  0  0  0  0  0  0  0  0  0
   20.0668    8.3162   53.9210 C   0  0  0  0  0  0  0  0  0  0  0  0
   19.9634    7.1974   53.0066 N   0  0  0  0  0  0  0  0  0  0  0  0
   20.6552    7.2143   51.7161 C   0  0  0  0  0  0  0  0  0  0  0  0
   22.1246    7.5178   51.9288 C   0  0  0  0  0  0  0  0  0  0  0  0
   22.2973    8.4907   53.0543 N   0  0  0  0  0  0  0  0  0  0  0  0
   19.1691    6.0924   53.3845 C   0  0  0  0  0  0  0  0  0  0  0  0
   19.6690    4.8062   53.4207 C   0  0  0  0  0  0  0  0  0  0  0  0
   18.8702    3.7272   53.7730 C   0  0  0  0  0  0  0  0  0  0  0  0
   17.5440    3.9126   54.1003 C   0  0  0  0  0  0  0  0  0  0  0  0
   16.7763    2.8412   54.4417 F   0  0  0  0  0  0  0  0  0  0  0  0
   17.0452    5.1888   54.0658 C   0  0  0  0  0  0  0  0  0  0  0  0
   17.8396    6.2602   53.7152 C   0  0  0  0  0  0  0  0  0  0  0  0
   21.8800   11.6380   53.4073 C   0  0  0  0  0  0  0  0  0  0  0  0
   21.2417   10.4956   54.1377 C   0  0  0  0  0  0  0  0  0  0  0  0
   21.6384   10.4238   55.5849 C   0  0  0  0  0  0  0  0  0  0  0  0
   27.4272    8.4709   55.4750 C   0  0  0  0  0  0  0  0  0  0  0  0
   27.6753    7.1225   55.7872 O   0  0  0  0  0  0  0  0  0  0  0  0
   27.6080    6.9437   56.7572 H   0  0  0  0  0  0  0  0  0  0  0  0
   27.5544    9.2248   56.7670 C   0  0  0  0  0  0  0  0  0  0  0  0
   27.5701   10.5923   56.6357 F   0  0  0  0  0  0  0  0  0  0  0  0
   26.5403    8.8358   57.6637 F   0  0  0  0  0  0  0  0  0  0  0  0
   28.7138    8.8412   57.3958 F   0  0  0  0  0  0  0  0  0  0  0  0
   28.4611    9.0179   54.5392 C   0  0  0  0  0  0  0  0  0  0  0  0
   29.4887    8.0732   54.4560 F   0  0  0  0  0  0  0  0  0  0  0  0
   27.9962    9.1149   53.2183 F   0  0  0  0  0  0  0  0  0  0  0  0
   28.9297   10.2766   54.8222 F   0  0  0  0  0  0  0  0  0  0  0  0
 20 21  1  0  0  0
 21 22  1  0  0  0
 21  7  1  0  0  0
  7  8  1  0  0  0
  8  9  1  0  0  0
  9 10  1  0  0  0
 10 11  1  0  0  0
 11 12  1  0  0  0
 12  1  1  0  0  0
  1  2  2  0  0  0
  2  3  1  0  0  0
  3  4  2  0  0  0
  4  5  1  0  0  0
  5  6  2  0  0  0
  4 23  1  0  0  0
 23 24  1  0  0  0
 23 26  1  0  0  0
 26 27  1  0  0  0
 26 28  1  0  0  0
 26 29  1  0  0  0
 23 30  1  0  0  0
 30 31  1  0  0  0
 30 32  1  0  0  0
 30 33  1  0  0  0
  9 13  1  0  0  0
 13 14  2  0  0  0
 14 15  1  0  0  0
 15 16  2  0  0  0
 16 17  1  0  0  0
 16 18  1  0  0  0
 18 19  2  0  0  0
 12  7  1  0  0  0
  6  1  1  0  0  0
 19 13  1  0  0  0
 24 25  1  0  0  0
M  END
> <minimizedAffinity>
21.86216

> <CNNscore>
0.4750657678

> <CNNaffinity>
6.5685853958

> <CNN_VS>
3.1205101013

> <CNNaffinity_variance>
0.6724454165

$$$$
[H]OC(c1c([H])nc(N2C([H])([H])C([H])([H])N(c3c([H])c([H])c(F)c([H])c3[H])C([H])([H])[C@@]2([H])C([H])(C([H])([H])[H])C([H])([H])[H])c([H])c1[H])(C(F)(F)F)C(F)(F)F


 33 35  0  0  0  0  0  0  0  0999 V2000
   23.8926    8.5691   53.6374 C   0  0  0  0  0  0  0  0  0  0  0  0
   24.0896    8.8994   54.9321 C   0  0  0  0  0  0  0  0  0  0  0  0
   25.3728    9.0341   55.4360 C   0  0  0  0  0  0  0  0  0  0  0  0
   26.4877    8.8372   54.6525 C   0  0  0  0  0  0  0  0  0  0  0  0
   26.2557    8.4987   53.3387 C   0  0  0  0  0  0  0  0  0  0  0  0
   24.9876    8.3776   52.8812 N   0  0  0  0  0  0  0  0  0  0  0  0
   21.4644    9.1868   53.0813 C   0  0  0  0  0  0  0  0  0  0  0  0
   20.3402    8.3234   53.6013 C   0  0  0  0  0  0  0  0  0  0  0  0
   20.3710    7.0814   52.8563 N   0  0  0  0  0  0  0  0  0  0  0  0
   21.2138    6.9382   51.6674 C   0  0  0  0  0  0  0  0  0  0  0  0
   22.6401    7.3245   52.0035 C   0  0  0  0  0  0  0  0  0  0  0  0
   22.6553    8.4553   52.9854 N   0  0  0  0  0  0  0  0  0  0  0  0
   19.5593    6.0132   53.2976 C   0  0  0  0  0  0  0  0  0  0  0  0
   20.0240    4.7149   53.3616 C   0  0  0  0  0  0  0  0  0  0  0  0
   19.2076    3.6719   53.7765 C   0  0  0  0  0  0  0  0  0  0  0  0
   17.8989    3.9066   54.1403 C   0  0  0  0  0  0  0  0  0  0  0  0
   17.1134    2.8700   54.5431 F   0  0  0  0  0  0  0  0  0  0  0  0
   17.4351    5.1950   54.0783 C   0  0  0  0  0  0  0  0  0  0  0  0
   18.2469    6.2305   53.6654 C   0  0  0  0  0  0  0  0  0  0  0  0
   21.9291   11.6378   52.7201 C   0  0  0  0  0  0  0  0  0  0  0  0
   21.4357   10.5541   53.6299 C   0  0  0  0  0  0  0  0  0  0  0  0
   21.8763   10.7326   55.0550 C   0  0  0  0  0  0  0  0  0  0  0  0
   27.8185    9.0222   55.2649 C   0  0  0  0  0  0  0  0  0  0  0  0
   28.4215   10.1004   54.5931 O   0  0  0  0  0  0  0  0  0  0  0  0
   29.1366    9.8058   53.9774 H   0  0  0  0  0  0  0  0  0  0  0  0
   28.7558    7.8602   55.1069 C   0  0  0  0  0  0  0  0  0  0  0  0
   29.3801    7.4634   56.2646 F   0  0  0  0  0  0  0  0  0  0  0  0
   28.0888    6.7686   54.5176 F   0  0  0  0  0  0  0  0  0  0  0  0
   29.7235    8.1883   54.1889 F   0  0  0  0  0  0  0  0  0  0  0  0
   27.6900    9.2916   56.7327 C   0  0  0  0  0  0  0  0  0  0  0  0
   27.7976   10.6740   56.9133 F   0  0  0  0  0  0  0  0  0  0  0  0
   26.4100    8.9943   57.2260 F   0  0  0  0  0  0  0  0  0  0  0  0
   28.5364    8.5896   57.5542 F   0  0  0  0  0  0  0  0  0  0  0  0
 20 21  1  0  0  0
 21 22  1  0  0  0
 21  7  1  0  0  0
  7  8  1  0  0  0
  8  9  1  0  0  0
  9 10  1  0  0  0
 10 11  1  0  0  0
 11 12  1  0  0  0
 12  1  1  0  0  0
  1  2  2  0  0  0
  2  3  1  0  0  0
  3  4  2  0  0  0
  4  5  1  0  0  0
  5  6  2  0  0  0
  4 23  1  0  0  0
 23 24  1  0  0  0
 23 26  1  0  0  0
 26 27  1  0  0  0
 26 28  1  0  0  0
 26 29  1  0  0  0
 23 30  1  0  0  0
 30 31  1  0  0  0
 30 32  1  0  0  0
 30 33  1  0  0  0
  9 13  1  0  0  0
 13 14  2  0  0  0
 14 15  1  0  0  0
 15 16  2  0  0  0
 16 17  1  0  0  0
 16 18  1  0  0  0
 18 19  2  0  0  0
 12  7  1  0  0  0
  6  1  1  0  0  0
 19 13  1  0  0  0
 24 25  1  0  0  0
M  END
> <minimizedAffinity>
22.86923

> <CNNscore>
0.4674369097

> <CNNaffinity>
6.4103903770

> <CNN_VS>
2.9964530468

> <CNNaffinity_variance>
0.7455554605

$$$$
[H]OC(c1c([H])nc(N2C([H])([H])C([H])([H])N(c3c([H])c([H])c(F)c([H])c3[H])C([H])([H])[C@@]2([H])C([H])(C([H])([H])[H])C([H])([H])[H])c([H])c1[H])(C(F)(F)F)C(F)(F)F


 33 35  0  0  0  0  0  0  0  0999 V2000
   24.5183    8.6843   54.3897 C   0  0  0  0  0  0  0  0  0  0  0  0
   24.4291    9.2544   55.6108 C   0  0  0  0  0  0  0  0  0  0  0  0
   25.5616    9.4326   56.3882 C   0  0  0  0  0  0  0  0  0  0  0  0
   26.8094    9.0398   55.9587 C   0  0  0  0  0  0  0  0  0  0  0  0
   26.8687    8.4593   54.7121 C   0  0  0  0  0  0  0  0  0  0  0  0
   25.7408    8.3028   53.9802 N   0  0  0  0  0  0  0  0  0  0  0  0
   22.3041    9.2288   53.2116 C   0  0  0  0  0  0  0  0  0  0  0  0
   21.0699    8.4234   53.5400 C   0  0  0  0  0  0  0  0  0  0  0  0
   21.2477    7.1075   52.9608 N   0  0  0  0  0  0  0  0  0  0  0  0
   22.3436    6.8383   52.0276 C   0  0  0  0  0  0  0  0  0  0  0  0
   23.6588    7.2641   52.6485 C   0  0  0  0  0  0  0  0  0  0  0  0
   23.4673    8.4955   53.4793 N   0  0  0  0  0  0  0  0  0  0  0  0
   20.3311    6.0910   53.3091 C   0  0  0  0  0  0  0  0  0  0  0  0
   20.7029    4.7646   53.3962 C   0  0  0  0  0  0  0  0  0  0  0  0
   19.7857    3.7738   53.7182 C   0  0  0  0  0  0  0  0  0  0  0  0
   18.4667    4.0907   53.9630 C   0  0  0  0  0  0  0  0  0  0  0  0
   17.5818    3.1044   54.2758 F   0  0  0  0  0  0  0  0  0  0  0  0
   18.0949    5.4073   53.8779 C   0  0  0  0  0  0  0  0  0  0  0  0
   19.0069    6.3909   53.5574 C   0  0  0  0  0  0  0  0  0  0  0  0
   21.5150   10.9220   54.9042 C   0  0  0  0  0  0  0  0  0  0  0  0
   22.1776   10.6477   53.5882 C   0  0  0  0  0  0  0  0  0  0  0  0
   21.7717   11.6118   52.5099 C   0  0  0  0  0  0  0  0  0  0  0  0
   27.9665    9.2867   56.8420 C   0  0  0  0  0  0  0  0  0  0  0  0
   29.0400    8.5506   56.3099 O   0  0  0  0  0  0  0  0  0  0  0  0
   29.2488    7.7489   56.8494 H   0  0  0  0  0  0  0  0  0  0  0  0
   27.7980    8.8094   58.2554 C   0  0  0  0  0  0  0  0  0  0  0  0
   26.5673    8.2674   58.5365 F   0  0  0  0  0  0  0  0  0  0  0  0
   28.8172    7.8966   58.5896 F   0  0  0  0  0  0  0  0  0  0  0  0
   28.0077    9.8635   59.1108 F   0  0  0  0  0  0  0  0  0  0  0  0
   28.2799   10.7501   56.9029 C   0  0  0  0  0  0  0  0  0  0  0  0
   28.8693   11.1007   55.6843 F   0  0  0  0  0  0  0  0  0  0  0  0
   27.1259   11.5477   56.9512 F   0  0  0  0  0  0  0  0  0  0  0  0
   29.0202   11.1672   57.9808 F   0  0  0  0  0  0  0  0  0  0  0  0
 20 21  1  0  0  0
 21 22  1  0  0  0
 21  7  1  0  0  0
  7  8  1  0  0  0
  8  9  1  0  0  0
  9 10  1  0  0  0
 10 11  1  0  0  0
 11 12  1  0  0  0
 12  1  1  0  0  0
  1  2  2  0  0  0
  2  3  1  0  0  0
  3  4  2  0  0  0
  4  5  1  0  0  0
  5  6  2  0  0  0
  4 23  1  0  0  0
 23 24  1  0  0  0
 23 26  1  0  0  0
 26 27  1  0  0  0
 26 28  1  0  0  0
 26 29  1  0  0  0
 23 30  1  0  0  0
 30 31  1  0  0  0
 30 32  1  0  0  0
 30 33  1  0  0  0
  9 13  1  0  0  0
 13 14  2  0  0  0
 14 15  1  0  0  0
 15 16  2  0  0  0
 16 17  1  0  0  0
 16 18  1  0  0  0
 18 19  2  0  0  0
 12  7  1  0  0  0
  6  1  1  0  0  0
 19 13  1  0  0  0
 24 25  1  0  0  0
M  END
> <minimizedAffinity>
23.90246

> <CNNscore>
0.4160730243

> <CNNaffinity>
6.1833405495

> <CNN_VS>
2.5727212429

> <CNNaffinity_variance>
0.8583976626

$$$$
[H]OC(=O)c1c([H])c([H])c(N2C([H])([H])C([H])([H])N(c3c([H])c([H])c(F)c([H])c3[H])C([H])([H])[C@@]2([H])C([H])(C([H])([H])[H])C([H])([H])[H])c([H])c1C(F)(F)F


 30 32  0  0  0  0  0  0  0  0999 V2000
   22.6154    9.1091   52.8279 C   0  0  0  0  0  0  0  0  0  0  0  0
   21.8308    7.9393   52.3239 C   0  0  0  0  0  0  0  0  0  0  0  0
   20.9409    7.4586   53.3904 N   0  0  0  0  0  0  0  0  0  0  0  0
   20.4928    8.3431   54.4089 C   0  0  0  0  0  0  0  0  0  0  0  0
   21.6322    9.0682   55.0880 C   0  0  0  0  0  0  0  0  0  0  0  0
   22.8082    9.1187   54.2334 N   0  0  0  0  0  0  0  0  0  0  0  0
   20.5204    6.0929   53.3671 C   0  0  0  0  0  0  0  0  0  0  0  0
   21.3421    5.0065   53.2698 C   0  0  0  0  0  0  0  0  0  0  0  0
   20.8429    3.6966   53.2723 C   0  0  0  0  0  0  0  0  0  0  0  0
   19.4991    3.4476   53.3729 C   0  0  0  0  0  0  0  0  0  0  0  0
   18.9790    2.1940   53.3800 F   0  0  0  0  0  0  0  0  0  0  0  0
   18.6771    4.5487   53.4702 C   0  0  0  0  0  0  0  0  0  0  0  0
   19.1449    5.8340   53.4697 C   0  0  0  0  0  0  0  0  0  0  0  0
   24.0696    9.1693   54.8855 C   0  0  0  0  0  0  0  0  0  0  0  0
   24.1862    9.6421   56.1947 C   0  0  0  0  0  0  0  0  0  0  0  0
   25.3807    9.6926   56.8404 C   0  0  0  0  0  0  0  0  0  0  0  0
   26.5891    9.2757   56.2464 C   0  0  0  0  0  0  0  0  0  0  0  0
   26.4927    8.8090   54.9615 C   0  0  0  0  0  0  0  0  0  0  0  0
   25.2396    8.7662   54.3119 C   0  0  0  0  0  0  0  0  0  0  0  0
   27.8083    9.3591   57.0161 C   0  0  0  0  0  0  0  0  0  0  0  0
   28.6050    8.3614   57.4891 O   0  0  0  0  0  0  0  0  0  0  0  0
   28.2262   10.5397   57.3152 O   0  0  0  0  0  0  0  0  0  0  0  0
   29.6286    8.3661   57.4438 H   0  0  0  0  0  0  0  0  0  0  0  0
   27.6988    8.3508   54.2354 C   0  0  0  0  0  0  0  0  0  0  0  0
   27.4547    8.6205   52.8591 F   0  0  0  0  0  0  0  0  0  0  0  0
   27.8743    6.9855   54.2555 F   0  0  0  0  0  0  0  0  0  0  0  0
   28.8431    9.0114   54.5945 F   0  0  0  0  0  0  0  0  0  0  0  0
   20.8039   10.0894   51.3964 C   0  0  0  0  0  0  0  0  0  0  0  0
   21.9774   10.3743   52.2892 C   0  0  0  0  0  0  0  0  0  0  0  0
   21.4417   11.1598   53.4944 C   0  0  0  0  0  0  0  0  0  0  0  0
 28 29  1  0  0  0
 29 30  1  0  0  0
 29  1  1  0  0  0
  1  2  1  0  0  0
  2  3  1  0  0  0
  3  4  1  0  0  0
  4  5  1  0  0  0
  5  6  1  0  0  0
  6 14  1  0  0  0
 14 15  2  0  0  0
 15 16  1  0  0  0
 16 17  2  0  0  0
 17 20  1  0  0  0
 20 21  1  0  0  0
 20 22  2  0  0  0
 17 18  1  0  0  0
 18 19  2  0  0  0
 18 24  1  0  0  0
 24 25  1  0  0  0
 24 26  1  0  0  0
 24 27  1  0  0  0
  3  7  1  0  0  0
  7  8  2  0  0  0
  8  9  1  0  0  0
  9 10  2  0  0  0
 10 11  1  0  0  0
 10 12  1  0  0  0
 12 13  2  0  0  0
  6  1  1  0  0  0
 19 14  1  0  0  0
 13  7  1  0  0  0
 21 23  1  0  0  0
M  END
> <minimizedAffinity>
20.52446

> <CNNscore>
0.5132255554

> <CNNaffinity>
6.4030213356

> <CNN_VS>
3.2861940861

> <CNNaffinity_variance>
0.6187955141

$$$$
[H]OC(=O)c1c([H])c([H])c(N2C([H])([H])C([H])([H])N(c3c([H])c([H])c(F)c([H])c3[H])C([H])([H])[C@@]2([H])C([H])(C([H])([H])[H])C([H])([H])[H])c([H])c1C(F)(F)F


 30 32  0  0  0  0  0  0  0  0999 V2000
   22.0454    9.0766   53.1030 C   0  0  0  0  0  0  0  0  0  0  0  0
   21.0551    8.0496   52.6529 C   0  0  0  0  0  0  0  0  0  0  0  0
   20.6568    7.2255   53.8028 N   0  0  0  0  0  0  0  0  0  0  0  0
   20.7212    7.7499   55.1225 C   0  0  0  0  0  0  0  0  0  0  0  0
   22.0799    8.3255   55.4507 C   0  0  0  0  0  0  0  0  0  0  0  0
   22.8002    8.6970   54.2428 N   0  0  0  0  0  0  0  0  0  0  0  0
   20.1839    5.8983   53.5627 C   0  0  0  0  0  0  0  0  0  0  0  0
   20.9449    4.8429   53.1482 C   0  0  0  0  0  0  0  0  0  0  0  0
   20.3994    3.5663   52.9542 C   0  0  0  0  0  0  0  0  0  0  0  0
   19.0692    3.3202   53.1733 C   0  0  0  0  0  0  0  0  0  0  0  0
   18.5057    2.0982   52.9977 F   0  0  0  0  0  0  0  0  0  0  0  0
   18.3085    4.3901   53.5909 C   0  0  0  0  0  0  0  0  0  0  0  0
   18.8221    5.6427   53.7859 C   0  0  0  0  0  0  0  0  0  0  0  0
   24.2188    8.6438   54.3036 C   0  0  0  0  0  0  0  0  0  0  0  0
   24.9722    8.2182   53.2071 C   0  0  0  0  0  0  0  0  0  0  0  0
   26.3297    8.1663   53.2403 C   0  0  0  0  0  0  0  0  0  0  0  0
   27.0814    8.5344   54.3745 C   0  0  0  0  0  0  0  0  0  0  0  0
   26.3575    8.9543   55.4597 C   0  0  0  0  0  0  0  0  0  0  0  0
   24.9473    8.9996   55.4004 C   0  0  0  0  0  0  0  0  0  0  0  0
   28.5220    8.4537   54.3111 C   0  0  0  0  0  0  0  0  0  0  0  0
   29.3277    7.3572   54.2639 O   0  0  0  0  0  0  0  0  0  0  0  0
   29.1657    9.5688   54.2976 O   0  0  0  0  0  0  0  0  0  0  0  0
   30.1372    7.2588   53.6435 H   0  0  0  0  0  0  0  0  0  0  0  0
   27.0414    9.3587   56.7089 C   0  0  0  0  0  0  0  0  0  0  0  0
   28.2413    8.5947   56.7647 F   0  0  0  0  0  0  0  0  0  0  0  0
   26.3792    8.9763   57.8537 F   0  0  0  0  0  0  0  0  0  0  0  0
   27.3867   10.6831   56.7450 F   0  0  0  0  0  0  0  0  0  0  0  0
   21.6889   11.1056   54.5339 C   0  0  0  0  0  0  0  0  0  0  0  0
   21.3183   10.3971   53.2627 C   0  0  0  0  0  0  0  0  0  0  0  0
   21.7600   11.3003   52.1026 C   0  0  0  0  0  0  0  0  0  0  0  0
 28 29  1  0  0  0
 29 30  1  0  0  0
 29  1  1  0  0  0
  1  2  1  0  0  0
  2  3  1  0  0  0
  3  4  1  0  0  0
  4  5  1  0  0  0
  5  6  1  0  0  0
  6 14  1  0  0  0
 14 15  2  0  0  0
 15 16  1  0  0  0
 16 17  2  0  0  0
 17 20  1  0  0  0
 20 21  1  0  0  0
 20 22  2  0  0  0
 17 18  1  0  0  0
 18 19  2  0  0  0
 18 24  1  0  0  0
 24 25  1  0  0  0
 24 26  1  0  0  0
 24 27  1  0  0  0
  3  7  1  0  0  0
  7  8  2  0  0  0
  8  9  1  0  0  0
  9 10  2  0  0  0
 10 11  1  0  0  0
 10 12  1  0  0  0
 12 13  2  0  0  0
  6  1  1  0  0  0
 19 14  1  0  0  0
 13  7  1  0  0  0
 21 23  1  0  0  0
M  END
> <minimizedAffinity>
19.07147

> <CNNscore>
0.4995623529

> <CNNaffinity>
6.0760855675

> <CNN_VS>
3.0353837013

> <CNNaffinity_variance>
0.1958778799

$$$$
[H]OC(=O)c1c([H])c([H])c(N2C([H])([H])C([H])([H])N(c3c([H])c([H])c(F)c([H])c3[H])C([H])([H])[C@@]2([H])C([H])(C([H])([H])[H])C([H])([H])[H])c([H])c1C(F)(F)F


 30 32  0  0  0  0  0  0  0  0999 V2000
   21.4352    8.4254   54.8137 C   0  0  0  0  0  0  0  0  0  0  0  0
   22.8143    8.8061   55.2511 C   0  0  0  0  0  0  0  0  0  0  0  0
   23.6964    8.8594   54.0767 N   0  0  0  0  0  0  0  0  0  0  0  0
   23.1638    9.1284   52.7865 C   0  0  0  0  0  0  0  0  0  0  0  0
   22.0201    8.2069   52.4290 C   0  0  0  0  0  0  0  0  0  0  0  0
   21.3940    7.6575   53.6215 N   0  0  0  0  0  0  0  0  0  0  0  0
   25.0988    8.6578   54.2644 C   0  0  0  0  0  0  0  0  0  0  0  0
   25.9765    8.2216   53.3134 C   0  0  0  0  0  0  0  0  0  0  0  0
   27.3440    8.0688   53.5808 C   0  0  0  0  0  0  0  0  0  0  0  0
   27.8632    8.3521   54.8170 C   0  0  0  0  0  0  0  0  0  0  0  0
   29.1809    8.2178   55.1128 F   0  0  0  0  0  0  0  0  0  0  0  0
   26.9713    8.7911   55.7707 C   0  0  0  0  0  0  0  0  0  0  0  0
   25.6340    8.9468   55.5291 C   0  0  0  0  0  0  0  0  0  0  0  0
   20.7889    6.3783   53.4931 C   0  0  0  0  0  0  0  0  0  0  0  0
   21.5250    5.2722   53.0621 C   0  0  0  0  0  0  0  0  0  0  0  0
   20.9691    4.0385   52.9391 C   0  0  0  0  0  0  0  0  0  0  0  0
   19.6157    3.7768   53.2336 C   0  0  0  0  0  0  0  0  0  0  0  0
   18.8786    4.8515   53.6578 C   0  0  0  0  0  0  0  0  0  0  0  0
   19.4795    6.1239   53.7777 C   0  0  0  0  0  0  0  0  0  0  0  0
   19.1177    2.4298   53.0805 C   0  0  0  0  0  0  0  0  0  0  0  0
   17.8975    1.9996   52.6563 O   0  0  0  0  0  0  0  0  0  0  0  0
   19.9254    1.4744   53.3845 O   0  0  0  0  0  0  0  0  0  0  0  0
   17.7513    1.2276   51.9987 H   0  0  0  0  0  0  0  0  0  0  0  0
   17.4440    4.6960   53.9885 C   0  0  0  0  0  0  0  0  0  0  0  0
   17.4006    4.0073   55.2337 F   0  0  0  0  0  0  0  0  0  0  0  0
   16.7677    3.8461   53.1426 F   0  0  0  0  0  0  0  0  0  0  0  0
   16.7818    5.8842   54.1445 F   0  0  0  0  0  0  0  0  0  0  0  0
   20.5677   10.4138   56.0728 C   0  0  0  0  0  0  0  0  0  0  0  0
   20.5914    9.6836   54.7607 C   0  0  0  0  0  0  0  0  0  0  0  0
   21.2442   10.6238   53.7377 C   0  0  0  0  0  0  0  0  0  0  0  0
 28 29  1  0  0  0
 29 30  1  0  0  0
 29  1  1  0  0  0
  1  2  1  0  0  0
  2  3  1  0  0  0
  3  4  1  0  0  0
  4  5  1  0  0  0
  5  6  1  0  0  0
  6 14  1  0  0  0
 14 15  2  0  0  0
 15 16  1  0  0  0
 16 17  2  0  0  0
 17 20  1  0  0  0
 20 21  1  0  0  0
 20 22  2  0  0  0
 17 18  1  0  0  0
 18 19  2  0  0  0
 18 24  1  0  0  0
 24 25  1  0  0  0
 24 26  1  0  0  0
 24 27  1  0  0  0
  3  7  1  0  0  0
  7  8  2  0  0  0
  8  9  1  0  0  0
  9 10  2  0  0  0
 10 11  1  0  0  0
 10 12  1  0  0  0
 12 13  2  0  0  0
  6  1  1  0  0  0
 19 14  1  0  0  0
 13  7  1  0  0  0
 21 23  1  0  0  0
M  END
> <minimizedAffinity>
28.10338

> <CNNscore>
0.4992999732

> <CNNaffinity>
5.9838333130

> <CNN_VS>
2.9877278805

> <CNNaffinity_variance>
0.5128121972

$$$$
[H]OC(=O)c1c([H])c([H])c(N2C([H])([H])C([H])([H])N(c3c([H])c([H])c(F)c([H])c3[H])C([H])([H])[C@@]2([H])C([H])(C([H])([H])[H])C([H])([H])[H])c([H])c1C(F)(F)F


 30 32  0  0  0  0  0  0  0  0999 V2000
   22.1077    9.1706   52.9989 C   0  0  0  0  0  0  0  0  0  0  0  0
   21.3385    8.0089   52.4541 C   0  0  0  0  0  0  0  0  0  0  0  0
   20.5951    7.3661   53.5470 N   0  0  0  0  0  0  0  0  0  0  0  0
   20.2109    8.1123   54.6942 C   0  0  0  0  0  0  0  0  0  0  0  0
   21.3752    8.8381   55.3290 C   0  0  0  0  0  0  0  0  0  0  0  0
   22.4486    9.0510   54.3708 N   0  0  0  0  0  0  0  0  0  0  0  0
   20.2494    5.9852   53.4201 C   0  0  0  0  0  0  0  0  0  0  0  0
   21.1159    4.9685   53.1364 C   0  0  0  0  0  0  0  0  0  0  0  0
   20.6915    3.6355   53.0480 C   0  0  0  0  0  0  0  0  0  0  0  0
   19.3793    3.2922   53.2434 C   0  0  0  0  0  0  0  0  0  0  0  0
   18.9315    2.0133   53.1673 F   0  0  0  0  0  0  0  0  0  0  0  0
   18.5117    4.3234   53.5287 C   0  0  0  0  0  0  0  0  0  0  0  0
   18.9064    5.6299   53.6194 C   0  0  0  0  0  0  0  0  0  0  0  0
   23.7678    9.1179   54.8945 C   0  0  0  0  0  0  0  0  0  0  0  0
   24.0058    9.5714   56.1940 C   0  0  0  0  0  0  0  0  0  0  0  0
   25.2578    9.6367   56.7180 C   0  0  0  0  0  0  0  0  0  0  0  0
   26.4086    9.2557   55.9986 C   0  0  0  0  0  0  0  0  0  0  0  0
   26.1930    8.8083   54.7213 C   0  0  0  0  0  0  0  0  0  0  0  0
   24.8821    8.7495   54.1995 C   0  0  0  0  0  0  0  0  0  0  0  0
   27.6969    9.3525   56.6441 C   0  0  0  0  0  0  0  0  0  0  0  0
   28.6670    8.4082   56.7891 O   0  0  0  0  0  0  0  0  0  0  0  0
   27.9984   10.4881   57.1706 O   0  0  0  0  0  0  0  0  0  0  0  0
   29.6674    8.5782   56.6469 H   0  0  0  0  0  0  0  0  0  0  0  0
   27.3289    8.3882   53.8699 C   0  0  0  0  0  0  0  0  0  0  0  0
   28.3955    9.2824   54.1690 F   0  0  0  0  0  0  0  0  0  0  0  0
   27.1215    8.5950   52.5248 F   0  0  0  0  0  0  0  0  0  0  0  0
   27.7667    7.1157   54.1226 F   0  0  0  0  0  0  0  0  0  0  0  0
   21.9467   11.6537   53.3154 C   0  0  0  0  0  0  0  0  0  0  0  0
   21.3479   10.4393   52.6656 C   0  0  0  0  0  0  0  0  0  0  0  0
   21.4551   10.6459   51.1482 C   0  0  0  0  0  0  0  0  0  0  0  0
 28 29  1  0  0  0
 29 30  1  0  0  0
 29  1  1  0  0  0
  1  2  1  0  0  0
  2  3  1  0  0  0
  3  4  1  0  0  0
  4  5  1  0  0  0
  5  6  1  0  0  0
  6 14  1  0  0  0
 14 15  2  0  0  0
 15 16  1  0  0  0
 16 17  2  0  0  0
 17 20  1  0  0  0
 20 21  1  0  0  0
 20 22  2  0  0  0
 17 18  1  0  0  0
 18 19  2  0  0  0
 18 24  1  0  0  0
 24 25  1  0  0  0
 24 26  1  0  0  0
 24 27  1  0  0  0
  3  7  1  0  0  0
  7  8  2  0  0  0
  8  9  1  0  0  0
  9 10  2  0  0  0
 10 11  1  0  0  0
 10 12  1  0  0  0
 12 13  2  0  0  0
  6  1  1  0  0  0
 19 14  1  0  0  0
 13  7  1  0  0  0
 21 23  1  0  0  0
M  END
> <minimizedAffinity>
21.80146

> <CNNscore>
0.4917177856

> <CNNaffinity>
6.3402280807

> <CNN_VS>
3.1176028252

> <CNNaffinity_variance>
0.7435001135

$$$$
[H]OC(=O)c1c([H])c([H])c(N2C([H])([H])C([H])([H])N(c3c([H])c([H])c(F)c([H])c3[H])C([H])([H])[C@@]2([H])C([H])(C([H])([H])[H])C([H])([H])[H])c([H])c1C(F)(F)F


 30 32  0  0  0  0  0  0  0  0999 V2000
   21.1044    8.9622   54.2913 C   0  0  0  0  0  0  0  0  0  0  0  0
   22.5539    9.0407   54.6529 C   0  0  0  0  0  0  0  0  0  0  0  0
   23.3615    8.5742   53.5169 N   0  0  0  0  0  0  0  0  0  0  0  0
   22.8620    8.6704   52.1895 C   0  0  0  0  0  0  0  0  0  0  0  0
   21.4957    8.0414   52.0384 C   0  0  0  0  0  0  0  0  0  0  0  0
   20.8006    7.9791   53.3146 N   0  0  0  0  0  0  0  0  0  0  0  0
   24.6638    8.0449   53.7744 C   0  0  0  0  0  0  0  0  0  0  0  0
   24.9345    6.8281   54.3319 C   0  0  0  0  0  0  0  0  0  0  0  0
   26.2476    6.3800   54.5325 C   0  0  0  0  0  0  0  0  0  0  0  0
   27.3241    7.1492   54.1757 C   0  0  0  0  0  0  0  0  0  0  0  0
   28.6087    6.7490   54.3530 F   0  0  0  0  0  0  0  0  0  0  0  0
   27.0425    8.3753   53.6145 C   0  0  0  0  0  0  0  0  0  0  0  0
   25.7686    8.8300   53.4105 C   0  0  0  0  0  0  0  0  0  0  0  0
   19.8659    6.9220   53.4815 C   0  0  0  0  0  0  0  0  0  0  0  0
   18.5311    7.1831   53.7996 C   0  0  0  0  0  0  0  0  0  0  0  0
   17.6185    6.1886   53.9566 C   0  0  0  0  0  0  0  0  0  0  0  0
   17.9420    4.8243   53.8127 C   0  0  0  0  0  0  0  0  0  0  0  0
   19.2480    4.5503   53.5007 C   0  0  0  0  0  0  0  0  0  0  0  0
   20.1776    5.6014   53.3426 C   0  0  0  0  0  0  0  0  0  0  0  0
   16.9007    3.8394   53.9904 C   0  0  0  0  0  0  0  0  0  0  0  0
   16.3807    2.9561   53.0941 O   0  0  0  0  0  0  0  0  0  0  0  0
   16.3658    3.7647   55.1592 O   0  0  0  0  0  0  0  0  0  0  0  0
   16.1809    1.9723   53.2988 H   0  0  0  0  0  0  0  0  0  0  0  0
   19.7034    3.1517   53.3326 C   0  0  0  0  0  0  0  0  0  0  0  0
   21.0962    3.2239   53.0470 F   0  0  0  0  0  0  0  0  0  0  0  0
   19.1916    2.5311   52.2153 F   0  0  0  0  0  0  0  0  0  0  0  0
   19.5458    2.3815   54.4536 F   0  0  0  0  0  0  0  0  0  0  0  0
   20.8341   11.3409   55.0397 C   0  0  0  0  0  0  0  0  0  0  0  0
   20.6319   10.3552   53.9249 C   0  0  0  0  0  0  0  0  0  0  0  0
   21.4937   10.8302   52.7466 C   0  0  0  0  0  0  0  0  0  0  0  0
 28 29  1  0  0  0
 29 30  1  0  0  0
 29  1  1  0  0  0
  1  2  1  0  0  0
  2  3  1  0  0  0
  3  4  1  0  0  0
  4  5  1  0  0  0
  5  6  1  0  0  0
  6 14  1  0  0  0
 14 15  2  0  0  0
 15 16  1  0  0  0
 16 17  2  0  0  0
 17 20  1  0  0  0
 20 21  1  0  0  0
 20 22  2  0  0  0
 17 18  1  0  0  0
 18 19  2  0  0  0
 18 24  1  0  0  0
 24 25  1  0  0  0
 24 26  1  0  0  0
 24 27  1  0  0  0
  3  7  1  0  0  0
  7  8  2  0  0  0
  8  9  1  0  0  0
  9 10  2  0  0  0
 10 11  1  0  0  0
 10 12  1  0  0  0
 12 13  2  0  0  0
  6  1  1  0  0  0
 19 14  1  0  0  0
 13  7  1  0  0  0
 21 23  1  0  0  0
M  END
> <minimizedAffinity>
30.85743

> <CNNscore>
0.4640460014

> <CNNaffinity>
6.0153589249

> <CNN_VS>
2.7914032936

> <CNNaffinity_variance>
0.6168107986

$$$$
[H]OC(=O)c1c([H])c([H])c(N2C([H])([H])C([H])([H])N(c3c([H])c([H])c(F)c([H])c3[H])C([H])([H])[C@@]2([H])C([H])(C([H])([H])[H])C([H])([H])[H])c([H])c1C(F)(F)F


 30 32  0  0  0  0  0  0  0  0999 V2000
   27.2292    8.7682   53.9863 C   0  0  0  0  0  0  0  0  0  0  0  0
   27.9808    9.7510   54.8272 C   0  0  0  0  0  0  0  0  0  0  0  0
   27.7930    9.4163   56.2460 N   0  0  0  0  0  0  0  0  0  0  0  0
   27.5066    8.0809   56.6400 C   0  0  0  0  0  0  0  0  0  0  0  0
   26.3259    7.4989   55.8967 C   0  0  0  0  0  0  0  0  0  0  0  0
   26.1088    8.1857   54.6329 N   0  0  0  0  0  0  0  0  0  0  0  0
   27.9268   10.4556   57.2179 C   0  0  0  0  0  0  0  0  0  0  0  0
   28.4873   10.3228   58.4561 C   0  0  0  0  0  0  0  0  0  0  0  0
   28.5937   11.4041   59.3417 C   0  0  0  0  0  0  0  0  0  0  0  0
   28.1363   12.6502   59.0013 C   0  0  0  0  0  0  0  0  0  0  0  0
   28.2230   13.7207   59.8310 F   0  0  0  0  0  0  0  0  0  0  0  0
   27.5719   12.7757   57.7509 C   0  0  0  0  0  0  0  0  0  0  0  0
   27.4593   11.7330   56.8728 C   0  0  0  0  0  0  0  0  0  0  0  0
   24.7742    8.2208   54.1466 C   0  0  0  0  0  0  0  0  0  0  0  0
   24.2905    7.2248   53.2950 C   0  0  0  0  0  0  0  0  0  0  0  0
   23.0161    7.2342   52.8237 C   0  0  0  0  0  0  0  0  0  0  0  0
   22.0865    8.2414   53.1529 C   0  0  0  0  0  0  0  0  0  0  0  0
   22.5450    9.2269   53.9876 C   0  0  0  0  0  0  0  0  0  0  0  0
   23.8738    9.1948   54.4642 C   0  0  0  0  0  0  0  0  0  0  0  0
   20.7509    8.1607   52.6093 C   0  0  0  0  0  0  0  0  0  0  0  0
   20.2511    8.6843   51.4561 O   0  0  0  0  0  0  0  0  0  0  0  0
   19.8831    7.5038   53.2972 O   0  0  0  0  0  0  0  0  0  0  0  0
   19.6362    8.1808   50.8095 H   0  0  0  0  0  0  0  0  0  0  0  0
   21.6581   10.3402   54.3947 C   0  0  0  0  0  0  0  0  0  0  0  0
   22.3677   11.0613   55.3963 F   0  0  0  0  0  0  0  0  0  0  0  0
   20.5216    9.9321   55.0557 F   0  0  0  0  0  0  0  0  0  0  0  0
   21.3655   11.2118   53.3801 F   0  0  0  0  0  0  0  0  0  0  0  0
   29.3781    7.5335   54.3724 C   0  0  0  0  0  0  0  0  0  0  0  0
   28.2181    7.7550   53.4446 C   0  0  0  0  0  0  0  0  0  0  0  0
   27.4766    6.4158   53.3287 C   0  0  0  0  0  0  0  0  0  0  0  0
 28 29  1  0  0  0
 29 30  1  0  0  0
 29  1  1  0  0  0
  1  2  1  0  0  0
  2  3  1  0  0  0
  3  4  1  0  0  0
  4  5  1  0  0  0
  5  6  1  0  0  0
  6 14  1  0  0  0
 14 15  2  0  0  0
 15 16  1  0  0  0
 16 17  2  0  0  0
 17 20  1  0  0  0
 20 21  1  0  0  0
 20 22  2  0  0  0
 17 18  1  0  0  0
 18 19  2  0  0  0
 18 24  1  0  0  0
 24 25  1  0  0  0
 24 26  1  0  0  0
 24 27  1  0  0  0
  3  7  1  0  0  0
  7  8  2  0  0  0
  8  9  1  0  0  0
  9 10  2  0  0  0
 10 11  1  0  0  0
 10 12  1  0  0  0
 12 13  2  0  0  0
  6  1  1  0  0  0
 19 14  1  0  0  0
 13  7  1  0  0  0
 21 23  1  0  0  0
M  END
> <minimizedAffinity>
22.63832

> <CNNscore>
0.4498224258

> <CNNaffinity>
6.1648645401

> <CNN_VS>
2.7730944157

> <CNNaffinity_variance>
0.4068632722

$$$$
[H]OC(=O)c1c([H])c([H])c(N2C([H])([H])C([H])([H])N(c3c([H])c([H])c(F)c([H])c3[H])C([H])([H])[C@@]2([H])C([H])(C([H])([H])[H])C([H])([H])[H])c([H])c1C(F)(F)F


 30 32  0  0  0  0  0  0  0  0999 V2000
   22.3854    7.5106   52.6614 C   0  0  0  0  0  0  0  0  0  0  0  0
   23.7695    7.1685   53.1145 C   0  0  0  0  0  0  0  0  0  0  0  0
   24.0888    7.9447   54.3211 N   0  0  0  0  0  0  0  0  0  0  0  0
   23.0528    8.3940   55.1845 C   0  0  0  0  0  0  0  0  0  0  0  0
   21.9769    9.1591   54.4480 C   0  0  0  0  0  0  0  0  0  0  0  0
   21.9546    8.8092   53.0363 N   0  0  0  0  0  0  0  0  0  0  0  0
   25.4603    8.2168   54.6170 C   0  0  0  0  0  0  0  0  0  0  0  0
   26.5268    7.8872   53.8304 C   0  0  0  0  0  0  0  0  0  0  0  0
   27.8423    8.2099   54.1914 C   0  0  0  0  0  0  0  0  0  0  0  0
   28.1172    8.8745   55.3578 C   0  0  0  0  0  0  0  0  0  0  0  0
   29.3767    9.2051   55.7401 F   0  0  0  0  0  0  0  0  0  0  0  0
   27.0360    9.2030   56.1458 C   0  0  0  0  0  0  0  0  0  0  0  0
   25.7456    8.8971   55.8108 C   0  0  0  0  0  0  0  0  0  0  0  0
   21.5014    9.8119   52.1372 C   0  0  0  0  0  0  0  0  0  0  0  0
   20.5880    9.5123   51.1237 C   0  0  0  0  0  0  0  0  0  0  0  0
   20.1355   10.4564   50.2575 C   0  0  0  0  0  0  0  0  0  0  0  0
   20.5476   11.8033   50.3107 C   0  0  0  0  0  0  0  0  0  0  0  0
   21.4441   12.1145   51.2994 C   0  0  0  0  0  0  0  0  0  0  0  0
   21.8994   11.1154   52.1876 C   0  0  0  0  0  0  0  0  0  0  0  0
   20.0039   12.7361   49.3515 C   0  0  0  0  0  0  0  0  0  0  0  0
   20.0334   14.0973   49.3532 O   0  0  0  0  0  0  0  0  0  0  0  0
   19.3940   12.2338   48.3349 O   0  0  0  0  0  0  0  0  0  0  0  0
   20.2400   14.6738   48.5317 H   0  0  0  0  0  0  0  0  0  0  0  0
   21.9523   13.4972   51.4457 C   0  0  0  0  0  0  0  0  0  0  0  0
   22.6024   13.5449   52.7112 F   0  0  0  0  0  0  0  0  0  0  0  0
   20.9603   14.4432   51.5731 F   0  0  0  0  0  0  0  0  0  0  0  0
   22.8678   13.8524   50.4916 F   0  0  0  0  0  0  0  0  0  0  0  0
   21.9953    5.6378   54.2838 C   0  0  0  0  0  0  0  0  0  0  0  0
   21.4531    6.4030   53.1108 C   0  0  0  0  0  0  0  0  0  0  0  0
   20.1501    7.0687   53.5753 C   0  0  0  0  0  0  0  0  0  0  0  0
 28 29  1  0  0  0
 29 30  1  0  0  0
 29  1  1  0  0  0
  1  2  1  0  0  0
  2  3  1  0  0  0
  3  4  1  0  0  0
  4  5  1  0  0  0
  5  6  1  0  0  0
  6 14  1  0  0  0
 14 15  2  0  0  0
 15 16  1  0  0  0
 16 17  2  0  0  0
 17 20  1  0  0  0
 20 21  1  0  0  0
 20 22  2  0  0  0
 17 18  1  0  0  0
 18 19  2  0  0  0
 18 24  1  0  0  0
 24 25  1  0  0  0
 24 26  1  0  0  0
 24 27  1  0  0  0
  3  7  1  0  0  0
  7  8  2  0  0  0
  8  9  1  0  0  0
  9 10  2  0  0  0
 10 11  1  0  0  0
 10 12  1  0  0  0
 12 13  2  0  0  0
  6  1  1  0  0  0
 19 14  1  0  0  0
 13  7  1  0  0  0
 21 23  1  0  0  0
M  END
> <minimizedAffinity>
30.23049

> <CNNscore>
0.4330834150

> <CNNaffinity>
6.0190310478

> <CNN_VS>
2.6067426205

> <CNNaffinity_variance>
0.5434273481

$$$$
[H]OC(=O)c1c([H])c([H])c(N2C([H])([H])C([H])([H])N(c3c([H])c([H])c(F)c([H])c3[H])C([H])([H])[C@@]2([H])C([H])(C([H])([H])[H])C([H])([H])[H])c([H])c1C(F)(F)F


 30 32  0  0  0  0  0  0  0  0999 V2000
   21.3311    8.8811   52.6423 C   0  0  0  0  0  0  0  0  0  0  0  0
   22.4757    9.5141   53.3684 C   0  0  0  0  0  0  0  0  0  0  0  0
   23.6314    8.6067   53.3336 N   0  0  0  0  0  0  0  0  0  0  0  0
   23.7761    7.6636   52.2799 C   0  0  0  0  0  0  0  0  0  0  0  0
   22.5448    6.8057   52.0981 C   0  0  0  0  0  0  0  0  0  0  0  0
   21.3618    7.4627   52.6314 N   0  0  0  0  0  0  0  0  0  0  0  0
   24.6136    8.7094   54.3667 C   0  0  0  0  0  0  0  0  0  0  0  0
   24.4085    9.2257   55.6141 C   0  0  0  0  0  0  0  0  0  0  0  0
   25.4284    9.2710   56.5748 C   0  0  0  0  0  0  0  0  0  0  0  0
   26.6845    8.7962   56.3017 C   0  0  0  0  0  0  0  0  0  0  0  0
   27.6963    8.8219   57.2059 F   0  0  0  0  0  0  0  0  0  0  0  0
   26.8833    8.2775   55.0411 C   0  0  0  0  0  0  0  0  0  0  0  0
   25.9013    8.2243   54.0905 C   0  0  0  0  0  0  0  0  0  0  0  0
   20.3229    6.6185   53.1080 C   0  0  0  0  0  0  0  0  0  0  0  0
   19.1768    7.1510   53.7030 C   0  0  0  0  0  0  0  0  0  0  0  0
   18.1678    6.3633   54.1591 C   0  0  0  0  0  0  0  0  0  0  0  0
   18.1955    4.9569   54.0697 C   0  0  0  0  0  0  0  0  0  0  0  0
   19.3134    4.4178   53.4885 C   0  0  0  0  0  0  0  0  0  0  0  0
   20.3485    5.2576   53.0221 C   0  0  0  0  0  0  0  0  0  0  0  0
   17.0708    4.2049   54.5749 C   0  0  0  0  0  0  0  0  0  0  0  0
   16.8279    3.7495   55.8348 O   0  0  0  0  0  0  0  0  0  0  0  0
   16.1465    3.9051   53.7301 O   0  0  0  0  0  0  0  0  0  0  0  0
   15.9213    3.8100   56.3085 H   0  0  0  0  0  0  0  0  0  0  0  0
   19.4547    2.9508   53.3480 C   0  0  0  0  0  0  0  0  0  0  0  0
   19.5770    2.4396   54.6710 F   0  0  0  0  0  0  0  0  0  0  0  0
   20.6349    2.5604   52.7565 F   0  0  0  0  0  0  0  0  0  0  0  0
   18.3741    2.3459   52.7641 F   0  0  0  0  0  0  0  0  0  0  0  0
   19.9609    9.1630   50.5604 C   0  0  0  0  0  0  0  0  0  0  0  0
   21.2447    9.5018   51.2621 C   0  0  0  0  0  0  0  0  0  0  0  0
   21.2633   11.0254   51.4489 C   0  0  0  0  0  0  0  0  0  0  0  0
 28 29  1  0  0  0
 29 30  1  0  0  0
 29  1  1  0  0  0
  1  2  1  0  0  0
  2  3  1  0  0  0
  3  4  1  0  0  0
  4  5  1  0  0  0
  5  6  1  0  0  0
  6 14  1  0  0  0
 14 15  2  0  0  0
 15 16  1  0  0  0
 16 17  2  0  0  0
 17 20  1  0  0  0
 20 21  1  0  0  0
 20 22  2  0  0  0
 17 18  1  0  0  0
 18 19  2  0  0  0
 18 24  1  0  0  0
 24 25  1  0  0  0
 24 26  1  0  0  0
 24 27  1  0  0  0
  3  7  1  0  0  0
  7  8  2  0  0  0
  8  9  1  0  0  0
  9 10  2  0  0  0
 10 11  1  0  0  0
 10 12  1  0  0  0
 12 13  2  0  0  0
  6  1  1  0  0  0
 19 14  1  0  0  0
 13  7  1  0  0  0
 21 23  1  0  0  0
M  END
> <minimizedAffinity>
31.48123

> <CNNscore>
0.4232487679

> <CNNaffinity>
5.9900865555

> <CNN_VS>
2.5352966785

> <CNNaffinity_variance>
0.8820465803

$$$$
[H]OC(=O)c1c([H])c([H])c(N2C([H])([H])C([H])([H])N(c3c([H])c([H])c(F)c([H])c3[H])C([H])([H])[C@@]2([H])C([H])(C([H])([H])[H])C([H])([H])[H])c([H])c1C(F)(F)F


 30 32  0  0  0  0  0  0  0  0999 V2000
   22.6105    7.2745   53.0572 C   0  0  0  0  0  0  0  0  0  0  0  0
   23.9879    7.1233   53.6211 C   0  0  0  0  0  0  0  0  0  0  0  0
   24.1101    7.9537   54.8276 N   0  0  0  0  0  0  0  0  0  0  0  0
   22.9611    8.2777   55.5993 C   0  0  0  0  0  0  0  0  0  0  0  0
   21.8559    8.8841   54.7650 C   0  0  0  0  0  0  0  0  0  0  0  0
   21.9881    8.5117   53.3651 N   0  0  0  0  0  0  0  0  0  0  0  0
   25.4081    8.4070   55.2179 C   0  0  0  0  0  0  0  0  0  0  0  0
   25.6756    9.2881   56.2263 C   0  0  0  0  0  0  0  0  0  0  0  0
   26.9855    9.6651   56.5535 C   0  0  0  0  0  0  0  0  0  0  0  0
   28.0621    9.1625   55.8706 C   0  0  0  0  0  0  0  0  0  0  0  0
   29.3438    9.5026   56.1592 F   0  0  0  0  0  0  0  0  0  0  0  0
   27.7837    8.2747   54.8547 C   0  0  0  0  0  0  0  0  0  0  0  0
   26.5129    7.8945   54.5206 C   0  0  0  0  0  0  0  0  0  0  0  0
   21.4805    9.4321   52.4090 C   0  0  0  0  0  0  0  0  0  0  0  0
   20.6290    9.0118   51.3846 C   0  0  0  0  0  0  0  0  0  0  0  0
   20.1259    9.8754   50.4640 C   0  0  0  0  0  0  0  0  0  0  0  0
   20.4201   11.2539   50.4678 C   0  0  0  0  0  0  0  0  0  0  0  0
   21.2547   11.6833   51.4664 C   0  0  0  0  0  0  0  0  0  0  0  0
   21.7645   10.7662   52.4115 C   0  0  0  0  0  0  0  0  0  0  0  0
   19.8302   12.0945   49.4523 C   0  0  0  0  0  0  0  0  0  0  0  0
   18.8242   11.8202   48.5767 O   0  0  0  0  0  0  0  0  0  0  0  0
   20.3081   13.2842   49.3340 O   0  0  0  0  0  0  0  0  0  0  0  0
   18.0545   12.4605   48.3589 H   0  0  0  0  0  0  0  0  0  0  0  0
   21.6385   13.1098   51.5642 C   0  0  0  0  0  0  0  0  0  0  0  0
   20.4200   13.8377   51.6734 F   0  0  0  0  0  0  0  0  0  0  0  0
   22.1971   13.6151   50.4119 F   0  0  0  0  0  0  0  0  0  0  0  0
   22.4002   13.4020   52.6637 F   0  0  0  0  0  0  0  0  0  0  0  0
   21.3487    6.1269   54.8962 C   0  0  0  0  0  0  0  0  0  0  0  0
   21.7967    6.0622   53.4643 C   0  0  0  0  0  0  0  0  0  0  0  0
   20.5285    6.0568   52.5991 C   0  0  0  0  0  0  0  0  0  0  0  0
 28 29  1  0  0  0
 29 30  1  0  0  0
 29  1  1  0  0  0
  1  2  1  0  0  0
  2  3  1  0  0  0
  3  4  1  0  0  0
  4  5  1  0  0  0
  5  6  1  0  0  0
  6 14  1  0  0  0
 14 15  2  0  0  0
 15 16  1  0  0  0
 16 17  2  0  0  0
 17 20  1  0  0  0
 20 21  1  0  0  0
 20 22  2  0  0  0
 17 18  1  0  0  0
 18 19  2  0  0  0
 18 24  1  0  0  0
 24 25  1  0  0  0
 24 26  1  0  0  0
 24 27  1  0  0  0
  3  7  1  0  0  0
  7  8  2  0  0  0
  8  9  1  0  0  0
  9 10  2  0  0  0
 10 11  1  0  0  0
 10 12  1  0  0  0
 12 13  2  0  0  0
  6  1  1  0  0  0
 19 14  1  0  0  0
 13  7  1  0  0  0
 21 23  1  0  0  0
M  END
> <minimizedAffinity>
33.39162

> <CNNscore>
0.4177239537

> <CNNaffinity>
6.0062584877

> <CNN_VS>
2.5089581013

> <CNNaffinity_variance>
0.5889776349

$$$$
[H]OC([H])([H])[C@@]([H])(C(=O)N([H])[H])N([H])C(=O)[C@@]([H])(N([H])C(=O)[C@@]([H])(N([H])C(=O)[C@@]([H])(N([H])C(=O)[C@@]([H])(N([H])C(=O)[C@@]([H])(N([H])C(=O)[C@@]([H])(N([H])C(=O)C([H])([H])[H])C([H])([H])O[H])C([H])([H])O[H])C([H])([H])O[H])C([H])([H])O[H])C([H])([H])C([H])([H])C(=O)N([H])[H])C([H])([H])C([H])(C([H])([H])[H])C([H])([H])[H]


 67 66  0  0  0  0  0  0  0  0999 V2000
   22.6746    9.8737   53.9766 N   0  0  0  0  0  0  0  0  0  0  0  0
   21.6640   10.8469   53.9551 C   0  0  0  0  0  0  0  0  0  0  0  0
   21.1718   11.1929   55.0620 O   0  0  0  0  0  0  0  0  0  0  0  0
   23.0732    9.5866   53.0544 H   0  0  0  0  0  0  0  0  0  0  0  0
   21.1455   11.4798   52.7389 C   0  0  0  0  0  0  0  0  0  0  0  0
   21.4556   12.9282   52.7677 N   0  0  0  0  0  0  0  0  0  0  0  0
   21.1671   13.6818   51.6062 C   0  0  0  0  0  0  0  0  0  0  0  0
   20.6830   13.1075   50.5635 O   0  0  0  0  0  0  0  0  0  0  0  0
   21.8696   13.3597   53.6104 H   0  0  0  0  0  0  0  0  0  0  0  0
   21.3732   15.1334   51.4831 C   0  0  0  0  0  0  0  0  0  0  0  0
   22.0075   15.4308   50.2294 N   0  0  0  0  0  0  0  0  0  0  0  0
   22.5419   16.7112   49.9861 C   0  0  0  0  0  0  0  0  0  0  0  0
   22.4631   17.6012   50.8536 O   0  0  0  0  0  0  0  0  0  0  0  0
   22.0595   14.6700   49.5168 H   0  0  0  0  0  0  0  0  0  0  0  0
   23.1857   16.9545   48.6743 C   0  0  0  0  0  0  0  0  0  0  0  0
   22.3859   17.9777   47.9876 N   0  0  0  0  0  0  0  0  0  0  0  0
   21.9703   17.7522   46.6447 C   0  0  0  0  0  0  0  0  0  0  0  0
   22.2981   16.6838   46.0391 O   0  0  0  0  0  0  0  0  0  0  0  0
   22.1519   18.8270   48.5003 H   0  0  0  0  0  0  0  0  0  0  0  0
   21.1518   18.7606   45.9506 C   0  0  0  0  0  0  0  0  0  0  0  0
   20.7519   18.1520   44.6860 N   0  0  0  0  0  0  0  0  0  0  0  0
   21.2290   18.6708   43.4843 C   0  0  0  0  0  0  0  0  0  0  0  0
   20.9066   18.1317   42.1452 C   0  0  0  0  0  0  0  0  0  0  0  0
   22.0050   19.6838   43.5258 O   0  0  0  0  0  0  0  0  0  0  0  0
   20.1172   17.3406   44.7179 H   0  0  0  0  0  0  0  0  0  0  0  0
   19.9142   18.9787   46.8226 C   0  0  0  0  0  0  0  0  0  0  0  0
   18.7776   18.7350   46.0260 O   0  0  0  0  0  0  0  0  0  0  0  0
   18.8818   17.8271   45.6217 H   0  0  0  0  0  0  0  0  0  0  0  0
   24.4988   17.6861   49.0151 C   0  0  0  0  0  0  0  0  0  0  0  0
   25.5150   16.7832   49.3270 O   0  0  0  0  0  0  0  0  0  0  0  0
   25.1336   16.1476   49.9808 H   0  0  0  0  0  0  0  0  0  0  0  0
   19.9722   15.8359   51.4880 C   0  0  0  0  0  0  0  0  0  0  0  0
   19.2767   15.4613   52.6184 O   0  0  0  0  0  0  0  0  0  0  0  0
   19.7213   15.7340   53.4597 H   0  0  0  0  0  0  0  0  0  0  0  0
   21.8491   10.9796   51.4828 C   0  0  0  0  0  0  0  0  0  0  0  0
   21.5816    9.6181   51.3515 O   0  0  0  0  0  0  0  0  0  0  0  0
   21.0567    9.4296   50.5440 H   0  0  0  0  0  0  0  0  0  0  0  0
   23.1407    9.2910   55.2378 C   0  0  0  0  0  0  0  0  0  0  0  0
   25.5105    9.2434   56.0531 N   0  0  0  0  0  0  0  0  0  0  0  0
   24.5057    8.7859   55.1624 C   0  0  0  0  0  0  0  0  0  0  0  0
   24.8368    7.9313   54.3015 O   0  0  0  0  0  0  0  0  0  0  0  0
   25.3383    9.9497   56.7887 H   0  0  0  0  0  0  0  0  0  0  0  0
   26.9120    8.7659   56.0130 C   0  0  0  0  0  0  0  0  0  0  0  0
   27.6354    9.6874   56.9087 C   0  0  0  0  0  0  0  0  0  0  0  0
   27.7874   10.8759   56.5251 O   0  0  0  0  0  0  0  0  0  0  0  0
   28.1713    9.3361   58.1786 N   0  0  0  0  0  0  0  0  0  0  0  0
   28.0141    8.3287   58.4557 H   0  0  0  0  0  0  0  0  0  0  0  0
   28.8599   10.2800   58.9958 C   0  0  0  0  0  0  0  0  0  0  0  0
   29.0284    9.8448   60.3891 C   0  0  0  0  0  0  0  0  0  0  0  0
   29.7634    8.6788   60.7393 N   0  0  0  0  0  0  0  0  0  0  0  0
   28.5246   10.4923   61.3656 O   0  0  0  0  0  0  0  0  0  0  0  0
   29.3875    7.7309   60.7238 H   0  0  0  0  0  0  0  0  0  0  0  0
   30.7482    8.8425   61.0249 H   0  0  0  0  0  0  0  0  0  0  0  0
   27.9791   11.5359   59.0297 C   0  0  0  0  0  0  0  0  0  0  0  0
   28.7122   12.5894   59.5303 O   0  0  0  0  0  0  0  0  0  0  0  0
   29.1051   13.1884   58.8638 H   0  0  0  0  0  0  0  0  0  0  0  0
   27.2954    8.9937   54.5862 C   0  0  0  0  0  0  0  0  0  0  0  0
   28.2258    6.7583   53.8512 C   0  0  0  0  0  0  0  0  0  0  0  0
   28.3926    8.2263   53.9812 C   0  0  0  0  0  0  0  0  0  0  0  0
   29.7038    8.4695   54.7261 C   0  0  0  0  0  0  0  0  0  0  0  0
   22.1325    8.3197   55.8115 C   0  0  0  0  0  0  0  0  0  0  0  0
   22.0967    6.9887   55.1153 C   0  0  0  0  0  0  0  0  0  0  0  0
   21.5765    7.1667   53.7385 C   0  0  0  0  0  0  0  0  0  0  0  0
   22.3807    6.7557   52.6535 N   0  0  0  0  0  0  0  0  0  0  0  0
   20.4580    7.6677   53.5433 O   0  0  0  0  0  0  0  0  0  0  0  0
   22.8507    5.8200   52.5938 H   0  0  0  0  0  0  0  0  0  0  0  0
   22.5640    7.3717   51.8211 H   0  0  0  0  0  0  0  0  0  0  0  0
 58 59  1  0  0  0
 59 60  1  0  0  0
 59 57  1  0  0  0
 57 43  1  0  0  0
 43 39  1  0  0  0
 39 40  1  0  0  0
 40 41  2  0  0  0
 40 38  1  0  0  0
 38 61  1  0  0  0
 61 62  1  0  0  0
 62 63  1  0  0  0
 63 64  1  0  0  0
 63 65  2  0  0  0
 38  1  1  0  0  0
  1  2  1  0  0  0
  2  3  2  0  0  0
  2  5  1  0  0  0
  5 35  1  0  0  0
 35 36  1  0  0  0
  5  6  1  0  0  0
  6  7  1  0  0  0
  7  8  2  0  0  0
  7 10  1  0  0  0
 10 32  1  0  0  0
 32 33  1  0  0  0
 10 11  1  0  0  0
 11 12  1  0  0  0
 12 13  2  0  0  0
 12 15  1  0  0  0
 15 29  1  0  0  0
 29 30  1  0  0  0
 15 16  1  0  0  0
 16 17  1  0  0  0
 17 18  2  0  0  0
 17 20  1  0  0  0
 20 26  1  0  0  0
 26 27  1  0  0  0
 20 21  1  0  0  0
 21 22  1  0  0  0
 22 23  1  0  0  0
 22 24  2  0  0  0
 43 44  1  0  0  0
 44 45  2  0  0  0
 44 46  1  0  0  0
 46 48  1  0  0  0
 48 54  1  0  0  0
 54 55  1  0  0  0
 48 49  1  0  0  0
 49 50  1  0  0  0
 49 51  2  0  0  0
 39 42  1  0  0  0
 64 66  1  0  0  0
 64 67  1  0  0  0
  1  4  1  0  0  0
 36 37  1  0  0  0
  6  9  1  0  0  0
 33 34  1  0  0  0
 11 14  1  0  0  0
 30 31  1  0  0  0
 16 19  1  0  0  0
 27 28  1  0  0  0
 21 25  1  0  0  0
 46 47  1  0  0  0
 55 56  1  0  0  0
 50 52  1  0  0  0
 50 53  1  0  0  0
M  END
> <minimizedAffinity>
9.07689

> <CNNscore>
0.5774347186

> <CNNaffinity>
6.3630552292

> <CNN_VS>
3.6742489338

> <CNNaffinity_variance>
0.4742242396

$$$$
[H]OC([H])([H])[C@@]([H])(C(=O)N([H])[H])N([H])C(=O)[C@@]([H])(N([H])C(=O)[C@@]([H])(N([H])C(=O)[C@@]([H])(N([H])C(=O)[C@@]([H])(N([H])C(=O)[C@@]([H])(N([H])C(=O)[C@@]([H])(N([H])C(=O)C([H])([H])[H])C([H])([H])O[H])C([H])([H])O[H])C([H])([H])O[H])C([H])([H])O[H])C([H])([H])C([H])([H])C(=O)N([H])[H])C([H])([H])C([H])(C([H])([H])[H])C([H])([H])[H]


 67 66  0  0  0  0  0  0  0  0999 V2000
   26.0244    9.8034   55.9311 N   0  0  0  0  0  0  0  0  0  0  0  0
   26.9813    9.7165   56.9537 C   0  0  0  0  0  0  0  0  0  0  0  0
   26.8155    8.8221   57.8254 O   0  0  0  0  0  0  0  0  0  0  0  0
   26.1647   10.5519   55.2157 H   0  0  0  0  0  0  0  0  0  0  0  0
   28.1499   10.5931   57.0750 C   0  0  0  0  0  0  0  0  0  0  0  0
   28.8570   10.2972   58.3428 N   0  0  0  0  0  0  0  0  0  0  0  0
   28.7494   11.2442   59.3878 C   0  0  0  0  0  0  0  0  0  0  0  0
   28.0840   12.3297   59.2140 O   0  0  0  0  0  0  0  0  0  0  0  0
   29.4073    9.4288   58.4466 H   0  0  0  0  0  0  0  0  0  0  0  0
   29.3519   11.0853   60.7206 C   0  0  0  0  0  0  0  0  0  0  0  0
   30.2633   12.1658   60.9751 N   0  0  0  0  0  0  0  0  0  0  0  0
   31.6345   11.9111   61.1727 C   0  0  0  0  0  0  0  0  0  0  0  0
   32.0696   10.7448   61.1361 O   0  0  0  0  0  0  0  0  0  0  0  0
   29.8753   13.1343   61.0037 H   0  0  0  0  0  0  0  0  0  0  0  0
   32.5234   13.0681   61.4285 C   0  0  0  0  0  0  0  0  0  0  0  0
   31.6983   14.2776   61.3076 N   0  0  0  0  0  0  0  0  0  0  0  0
   32.1934   15.3878   60.5667 C   0  0  0  0  0  0  0  0  0  0  0  0
   33.3428   15.3412   60.0261 O   0  0  0  0  0  0  0  0  0  0  0  0
   30.7870   14.2836   61.7643 H   0  0  0  0  0  0  0  0  0  0  0  0
   31.3690   16.5993   60.4210 C   0  0  0  0  0  0  0  0  0  0  0  0
   31.0907   17.0611   61.7770 N   0  0  0  0  0  0  0  0  0  0  0  0
   30.0414   17.9483   62.0066 C   0  0  0  0  0  0  0  0  0  0  0  0
   29.6554   18.4731   63.3346 C   0  0  0  0  0  0  0  0  0  0  0  0
   29.3513   18.3441   61.0081 O   0  0  0  0  0  0  0  0  0  0  0  0
   31.6882   16.7112   62.5403 H   0  0  0  0  0  0  0  0  0  0  0  0
   32.2456   17.6277   59.7045 C   0  0  0  0  0  0  0  0  0  0  0  0
   33.2759   18.0060   60.5885 O   0  0  0  0  0  0  0  0  0  0  0  0
   33.7312   17.1713   60.8957 H   0  0  0  0  0  0  0  0  0  0  0  0
   32.8388   12.9909   62.9352 C   0  0  0  0  0  0  0  0  0  0  0  0
   31.8905   12.2243   63.6122 O   0  0  0  0  0  0  0  0  0  0  0  0
   31.0051   12.5535   63.3212 H   0  0  0  0  0  0  0  0  0  0  0  0
   28.2115   11.1598   61.7931 C   0  0  0  0  0  0  0  0  0  0  0  0
   28.7039   11.7370   62.9448 O   0  0  0  0  0  0  0  0  0  0  0  0
   29.0159   12.6672   62.8137 H   0  0  0  0  0  0  0  0  0  0  0  0
   29.1940   10.3154   56.0000 C   0  0  0  0  0  0  0  0  0  0  0  0
   28.6620    9.3815   55.1126 O   0  0  0  0  0  0  0  0  0  0  0  0
   28.5468    9.7612   54.2151 H   0  0  0  0  0  0  0  0  0  0  0  0
   24.8839    8.8849   55.8787 C   0  0  0  0  0  0  0  0  0  0  0  0
   23.6235    7.5775   54.1509 N   0  0  0  0  0  0  0  0  0  0  0  0
   24.8446    8.0938   54.6552 C   0  0  0  0  0  0  0  0  0  0  0  0
   25.8938    7.8400   54.0104 O   0  0  0  0  0  0  0  0  0  0  0  0
   22.7105    7.7251   54.6139 H   0  0  0  0  0  0  0  0  0  0  0  0
   23.5321    6.7639   52.9166 C   0  0  0  0  0  0  0  0  0  0  0  0
   22.6925    7.5702   52.0113 C   0  0  0  0  0  0  0  0  0  0  0  0
   22.3098    7.0359   50.9385 O   0  0  0  0  0  0  0  0  0  0  0  0
   22.2766    8.9074   52.2610 N   0  0  0  0  0  0  0  0  0  0  0  0
   22.6211    9.3085   53.1757 H   0  0  0  0  0  0  0  0  0  0  0  0
   21.4616    9.6298   51.3408 C   0  0  0  0  0  0  0  0  0  0  0  0
   21.4536   11.0811   51.5703 C   0  0  0  0  0  0  0  0  0  0  0  0
   21.6013   11.6482   52.8661 N   0  0  0  0  0  0  0  0  0  0  0  0
   21.3153   11.9161   50.6162 O   0  0  0  0  0  0  0  0  0  0  0  0
   20.8425   11.7636   53.5377 H   0  0  0  0  0  0  0  0  0  0  0  0
   22.5629   11.9542   53.1111 H   0  0  0  0  0  0  0  0  0  0  0  0
   20.0256    9.1396   51.5686 C   0  0  0  0  0  0  0  0  0  0  0  0
   20.0604    7.8899   52.1474 O   0  0  0  0  0  0  0  0  0  0  0  0
   19.9547    7.8689   53.1199 H   0  0  0  0  0  0  0  0  0  0  0  0
   22.8023    5.5446   53.3808 C   0  0  0  0  0  0  0  0  0  0  0  0
   21.7290    5.5103   55.6721 C   0  0  0  0  0  0  0  0  0  0  0  0
   21.5922    5.6727   54.2041 C   0  0  0  0  0  0  0  0  0  0  0  0
   20.5106    4.6993   53.7392 C   0  0  0  0  0  0  0  0  0  0  0  0
   23.5876    9.5823   56.2285 C   0  0  0  0  0  0  0  0  0  0  0  0
   22.8117   10.0701   55.0380 C   0  0  0  0  0  0  0  0  0  0  0  0
   21.3599    9.9455   55.3113 C   0  0  0  0  0  0  0  0  0  0  0  0
   20.7344    8.6997   55.0885 N   0  0  0  0  0  0  0  0  0  0  0  0
   20.7074   10.9161   55.7263 O   0  0  0  0  0  0  0  0  0  0  0  0
   21.1062    7.7853   55.4433 H   0  0  0  0  0  0  0  0  0  0  0  0
   19.8404    8.6061   54.5427 H   0  0  0  0  0  0  0  0  0  0  0  0
 58 59  1  0  0  0
 59 60  1  0  0  0
 59 57  1  0  0  0
 57 43  1  0  0  0
 43 39  1  0  0  0
 39 40  1  0  0  0
 40 41  2  0  0  0
 40 38  1  0  0  0
 38 61  1  0  0  0
 61 62  1  0  0  0
 62 63  1  0  0  0
 63 64  1  0  0  0
 63 65  2  0  0  0
 38  1  1  0  0  0
  1  2  1  0  0  0
  2  3  2  0  0  0
  2  5  1  0  0  0
  5 35  1  0  0  0
 35 36  1  0  0  0
  5  6  1  0  0  0
  6  7  1  0  0  0
  7  8  2  0  0  0
  7 10  1  0  0  0
 10 32  1  0  0  0
 32 33  1  0  0  0
 10 11  1  0  0  0
 11 12  1  0  0  0
 12 13  2  0  0  0
 12 15  1  0  0  0
 15 29  1  0  0  0
 29 30  1  0  0  0
 15 16  1  0  0  0
 16 17  1  0  0  0
 17 18  2  0  0  0
 17 20  1  0  0  0
 20 26  1  0  0  0
 26 27  1  0  0  0
 20 21  1  0  0  0
 21 22  1  0  0  0
 22 23  1  0  0  0
 22 24  2  0  0  0
 43 44  1  0  0  0
 44 45  2  0  0  0
 44 46  1  0  0  0
 46 48  1  0  0  0
 48 54  1  0  0  0
 54 55  1  0  0  0
 48 49  1  0  0  0
 49 50  1  0  0  0
 49 51  2  0  0  0
 39 42  1  0  0  0
 64 66  1  0  0  0
 64 67  1  0  0  0
  1  4  1  0  0  0
 36 37  1  0  0  0
  6  9  1  0  0  0
 33 34  1  0  0  0
 11 14  1  0  0  0
 30 31  1  0  0  0
 16 19  1  0  0  0
 27 28  1  0  0  0
 21 25  1  0  0  0
 46 47  1  0  0  0
 55 56  1  0  0  0
 50 52  1  0  0  0
 50 53  1  0  0  0
M  END
> <minimizedAffinity>
8.82955

> <CNNscore>
0.5731596351

> <CNNaffinity>
6.4981336594

> <CNN_VS>
3.7244679928

> <CNNaffinity_variance>
0.4710020423

$$$$
[H]OC([H])([H])[C@@]([H])(C(=O)N([H])[H])N([H])C(=O)[C@@]([H])(N([H])C(=O)[C@@]([H])(N([H])C(=O)[C@@]([H])(N([H])C(=O)[C@@]([H])(N([H])C(=O)[C@@]([H])(N([H])C(=O)[C@@]([H])(N([H])C(=O)C([H])([H])[H])C([H])([H])O[H])C([H])([H])O[H])C([H])([H])O[H])C([H])([H])O[H])C([H])([H])C([H])([H])C(=O)N([H])[H])C([H])([H])C([H])(C([H])([H])[H])C([H])([H])[H]


 67 66  0  0  0  0  0  0  0  0999 V2000
   28.2331    9.5006   58.1810 N   0  0  0  0  0  0  0  0  0  0  0  0
   28.5906   10.6327   58.9289 C   0  0  0  0  0  0  0  0  0  0  0  0
   28.3367   11.7601   58.4272 O   0  0  0  0  0  0  0  0  0  0  0  0
   28.4530    8.5691   58.6002 H   0  0  0  0  0  0  0  0  0  0  0  0
   29.2377   10.5899   60.2434 C   0  0  0  0  0  0  0  0  0  0  0  0
   30.5239   11.3228   60.1825 N   0  0  0  0  0  0  0  0  0  0  0  0
   31.3043   11.3727   61.3609 C   0  0  0  0  0  0  0  0  0  0  0  0
   30.8818   10.8232   62.4430 O   0  0  0  0  0  0  0  0  0  0  0  0
   30.8273   11.7785   59.3062 H   0  0  0  0  0  0  0  0  0  0  0  0
   32.6217   12.0202   61.4601 C   0  0  0  0  0  0  0  0  0  0  0  0
   32.6038   13.2716   60.7556 N   0  0  0  0  0  0  0  0  0  0  0  0
   31.6085   14.2302   61.0291 C   0  0  0  0  0  0  0  0  0  0  0  0
   30.7289   13.9989   61.8799 O   0  0  0  0  0  0  0  0  0  0  0  0
   33.3494   13.4420   60.0455 H   0  0  0  0  0  0  0  0  0  0  0  0
   31.6458   15.5021   60.2708 C   0  0  0  0  0  0  0  0  0  0  0  0
   30.6602   16.3989   60.8892 N   0  0  0  0  0  0  0  0  0  0  0  0
   30.3549   17.6390   60.2599 C   0  0  0  0  0  0  0  0  0  0  0  0
   30.9378   17.9756   59.1817 O   0  0  0  0  0  0  0  0  0  0  0  0
   30.2216   16.1015   61.7599 H   0  0  0  0  0  0  0  0  0  0  0  0
   29.3547   18.5390   60.8584 C   0  0  0  0  0  0  0  0  0  0  0  0
   30.0804   19.3638   61.8190 N   0  0  0  0  0  0  0  0  0  0  0  0
   30.2000   18.9455   63.1424 C   0  0  0  0  0  0  0  0  0  0  0  0
   30.9217   19.6866   64.1997 C   0  0  0  0  0  0  0  0  0  0  0  0
   29.6548   17.8422   63.4823 O   0  0  0  0  0  0  0  0  0  0  0  0
   30.4920   20.2478   61.4853 H   0  0  0  0  0  0  0  0  0  0  0  0
   28.8393   19.4207   59.7197 C   0  0  0  0  0  0  0  0  0  0  0  0
   27.9313   18.6561   58.9601 O   0  0  0  0  0  0  0  0  0  0  0  0
   27.2433   18.2939   59.5878 H   0  0  0  0  0  0  0  0  0  0  0  0
   33.0002   16.1371   60.6423 C   0  0  0  0  0  0  0  0  0  0  0  0
   33.1606   16.2140   62.0256 O   0  0  0  0  0  0  0  0  0  0  0  0
   32.3284   16.6103   62.3822 H   0  0  0  0  0  0  0  0  0  0  0  0
   32.9122   12.3260   62.9696 C   0  0  0  0  0  0  0  0  0  0  0  0
   33.5281   11.2354   63.5469 O   0  0  0  0  0  0  0  0  0  0  0  0
   34.4038   11.0194   63.1391 H   0  0  0  0  0  0  0  0  0  0  0  0
   28.4396   11.3385   61.3044 C   0  0  0  0  0  0  0  0  0  0  0  0
   27.7214   10.4015   62.0452 O   0  0  0  0  0  0  0  0  0  0  0  0
   28.0167   10.3779   62.9808 H   0  0  0  0  0  0  0  0  0  0  0  0
   27.5845    9.6285   56.8732 C   0  0  0  0  0  0  0  0  0  0  0  0
   25.3246    9.5689   55.7905 N   0  0  0  0  0  0  0  0  0  0  0  0
   26.1593    9.3262   56.9115 C   0  0  0  0  0  0  0  0  0  0  0  0
   25.6236    8.8448   57.9422 O   0  0  0  0  0  0  0  0  0  0  0  0
   25.6699    9.9697   54.9019 H   0  0  0  0  0  0  0  0  0  0  0  0
   23.8710    9.2848   55.7819 C   0  0  0  0  0  0  0  0  0  0  0  0
   23.6952    8.3238   54.6773 C   0  0  0  0  0  0  0  0  0  0  0  0
   24.3830    7.2707   54.7040 O   0  0  0  0  0  0  0  0  0  0  0  0
   22.8015    8.4940   53.5839 N   0  0  0  0  0  0  0  0  0  0  0  0
   22.2451    9.3918   53.6100 H   0  0  0  0  0  0  0  0  0  0  0  0
   22.6802    7.5216   52.5482 C   0  0  0  0  0  0  0  0  0  0  0  0
   21.3056    7.3453   52.0598 C   0  0  0  0  0  0  0  0  0  0  0  0
   20.3228    6.6261   52.7941 N   0  0  0  0  0  0  0  0  0  0  0  0
   20.9156    7.8312   50.9470 O   0  0  0  0  0  0  0  0  0  0  0  0
   20.2186    5.6116   52.7826 H   0  0  0  0  0  0  0  0  0  0  0  0
   19.6847    7.2073   53.3714 H   0  0  0  0  0  0  0  0  0  0  0  0
   23.1024    6.1836   53.1694 C   0  0  0  0  0  0  0  0  0  0  0  0
   24.2715    5.7586   52.5775 O   0  0  0  0  0  0  0  0  0  0  0  0
   25.0937    5.9592   53.0685 H   0  0  0  0  0  0  0  0  0  0  0  0
   23.2792   10.6133   55.4361 C   0  0  0  0  0  0  0  0  0  0  0  0
   20.9612    9.6050   55.5485 C   0  0  0  0  0  0  0  0  0  0  0  0
   21.8402   10.7373   55.1673 C   0  0  0  0  0  0  0  0  0  0  0  0
   21.5845   11.0324   53.6905 C   0  0  0  0  0  0  0  0  0  0  0  0
   28.3598    8.9085   55.7916 C   0  0  0  0  0  0  0  0  0  0  0  0
   27.9700    9.2976   54.3937 C   0  0  0  0  0  0  0  0  0  0  0  0
   27.3319    8.1411   53.7203 C   0  0  0  0  0  0  0  0  0  0  0  0
   26.2561    8.3814   52.8384 N   0  0  0  0  0  0  0  0  0  0  0  0
   27.7341    6.9857   53.9282 O   0  0  0  0  0  0  0  0  0  0  0  0
   26.2734    9.1008   52.0752 H   0  0  0  0  0  0  0  0  0  0  0  0
   25.3525    7.8462   52.8907 H   0  0  0  0  0  0  0  0  0  0  0  0
 58 59  1  0  0  0
 59 60  1  0  0  0
 59 57  1  0  0  0
 57 43  1  0  0  0
 43 39  1  0  0  0
 39 40  1  0  0  0
 40 41  2  0  0  0
 40 38  1  0  0  0
 38 61  1  0  0  0
 61 62  1  0  0  0
 62 63  1  0  0  0
 63 64  1  0  0  0
 63 65  2  0  0  0
 38  1  1  0  0  0
  1  2  1  0  0  0
  2  3  2  0  0  0
  2  5  1  0  0  0
  5 35  1  0  0  0
 35 36  1  0  0  0
  5  6  1  0  0  0
  6  7  1  0  0  0
  7  8  2  0  0  0
  7 10  1  0  0  0
 10 32  1  0  0  0
 32 33  1  0  0  0
 10 11  1  0  0  0
 11 12  1  0  0  0
 12 13  2  0  0  0
 12 15  1  0  0  0
 15 29  1  0  0  0
 29 30  1  0  0  0
 15 16  1  0  0  0
 16 17  1  0  0  0
 17 18  2  0  0  0
 17 20  1  0  0  0
 20 26  1  0  0  0
 26 27  1  0  0  0
 20 21  1  0  0  0
 21 22  1  0  0  0
 22 23  1  0  0  0
 22 24  2  0  0  0
 43 44  1  0  0  0
 44 45  2  0  0  0
 44 46  1  0  0  0
 46 48  1  0  0  0
 48 54  1  0  0  0
 54 55  1  0  0  0
 48 49  1  0  0  0
 49 50  1  0  0  0
 49 51  2  0  0  0
 39 42  1  0  0  0
 64 66  1  0  0  0
 64 67  1  0  0  0
  1  4  1  0  0  0
 36 37  1  0  0  0
  6  9  1  0  0  0
 33 34  1  0  0  0
 11 14  1  0  0  0
 30 31  1  0  0  0
 16 19  1  0  0  0
 27 28  1  0  0  0
 21 25  1  0  0  0
 46 47  1  0  0  0
 55 56  1  0  0  0
 50 52  1  0  0  0
 50 53  1  0  0  0
M  END
> <minimizedAffinity>
0.47608

> <CNNscore>
0.5595432520

> <CNNaffinity>
6.9217820168

> <CNN_VS>
3.8730363846

> <CNNaffinity_variance>
0.4214726090

$$$$
[H]OC([H])([H])[C@@]([H])(C(=O)N([H])[H])N([H])C(=O)[C@@]([H])(N([H])C(=O)[C@@]([H])(N([H])C(=O)[C@@]([H])(N([H])C(=O)[C@@]([H])(N([H])C(=O)[C@@]([H])(N([H])C(=O)[C@@]([H])(N([H])C(=O)C([H])([H])[H])C([H])([H])O[H])C([H])([H])O[H])C([H])([H])O[H])C([H])([H])O[H])C([H])([H])C([H])([H])C(=O)N([H])[H])C([H])([H])C([H])(C([H])([H])[H])C([H])([H])[H]


 67 66  0  0  0  0  0  0  0  0999 V2000
   28.1737    9.3047   57.4477 N   0  0  0  0  0  0  0  0  0  0  0  0
   28.5755   10.3934   58.2365 C   0  0  0  0  0  0  0  0  0  0  0  0
   28.1874   11.5382   57.8815 O   0  0  0  0  0  0  0  0  0  0  0  0
   28.5050    8.3592   57.7442 H   0  0  0  0  0  0  0  0  0  0  0  0
   29.4130   10.2871   59.4349 C   0  0  0  0  0  0  0  0  0  0  0  0
   29.3191   11.5441   60.2134 N   0  0  0  0  0  0  0  0  0  0  0  0
   30.5037   12.0320   60.8124 C   0  0  0  0  0  0  0  0  0  0  0  0
   31.6046   11.3787   60.7001 O   0  0  0  0  0  0  0  0  0  0  0  0
   28.4153   12.0354   60.3100 H   0  0  0  0  0  0  0  0  0  0  0  0
   30.5937   13.2837   61.5805 C   0  0  0  0  0  0  0  0  0  0  0  0
   30.8962   14.3760   60.6984 N   0  0  0  0  0  0  0  0  0  0  0  0
   31.9444   15.2673   60.9999 C   0  0  0  0  0  0  0  0  0  0  0  0
   32.6152   15.1215   62.0389 O   0  0  0  0  0  0  0  0  0  0  0  0
   30.3189   14.4796   59.8351 H   0  0  0  0  0  0  0  0  0  0  0  0
   32.2083   16.3721   60.0490 C   0  0  0  0  0  0  0  0  0  0  0  0
   31.4804   17.5478   60.5451 N   0  0  0  0  0  0  0  0  0  0  0  0
   30.0644   17.6001   60.4073 C   0  0  0  0  0  0  0  0  0  0  0  0
   29.4353   16.6473   59.8488 O   0  0  0  0  0  0  0  0  0  0  0  0
   32.0190   18.2979   60.9766 H   0  0  0  0  0  0  0  0  0  0  0  0
   29.3199   18.7637   60.9175 C   0  0  0  0  0  0  0  0  0  0  0  0
   30.2067   19.4207   61.8722 N   0  0  0  0  0  0  0  0  0  0  0  0
   30.1335   19.0958   63.2250 C   0  0  0  0  0  0  0  0  0  0  0  0
   30.9873   19.6820   64.2810 C   0  0  0  0  0  0  0  0  0  0  0  0
   29.2736   18.2278   63.5954 O   0  0  0  0  0  0  0  0  0  0  0  0
   30.8746   20.1184   61.5125 H   0  0  0  0  0  0  0  0  0  0  0  0
   29.0943   19.6848   59.7174 C   0  0  0  0  0  0  0  0  0  0  0  0
   29.7071   19.0898   58.5965 O   0  0  0  0  0  0  0  0  0  0  0  0
   29.3502   18.1599   58.5160 H   0  0  0  0  0  0  0  0  0  0  0  0
   33.6884   16.7365   60.2771 C   0  0  0  0  0  0  0  0  0  0  0  0
   33.8346   17.6086   61.3557 O   0  0  0  0  0  0  0  0  0  0  0  0
   33.1749   18.3324   61.2216 H   0  0  0  0  0  0  0  0  0  0  0  0
   29.1966   13.5683   62.2313 C   0  0  0  0  0  0  0  0  0  0  0  0
   28.3952   14.2284   61.3236 O   0  0  0  0  0  0  0  0  0  0  0  0
   28.2127   13.7006   60.5064 H   0  0  0  0  0  0  0  0  0  0  0  0
   28.9081    9.2204   60.3993 C   0  0  0  0  0  0  0  0  0  0  0  0
   29.8105    9.1337   61.4579 O   0  0  0  0  0  0  0  0  0  0  0  0
   29.3982    9.4033   62.3067 H   0  0  0  0  0  0  0  0  0  0  0  0
   27.3311    9.4950   56.2640 C   0  0  0  0  0  0  0  0  0  0  0  0
   24.9450    9.3941   55.5026 N   0  0  0  0  0  0  0  0  0  0  0  0
   25.9151    9.2766   56.5309 C   0  0  0  0  0  0  0  0  0  0  0  0
   25.5081    8.9816   57.6835 O   0  0  0  0  0  0  0  0  0  0  0  0
   25.1801    9.6405   54.5261 H   0  0  0  0  0  0  0  0  0  0  0  0
   23.4952    9.1883   55.7245 C   0  0  0  0  0  0  0  0  0  0  0  0
   23.1170    8.1668   54.7303 C   0  0  0  0  0  0  0  0  0  0  0  0
   22.9697    6.9846   55.1344 O   0  0  0  0  0  0  0  0  0  0  0  0
   22.9002    8.4173   53.3470 N   0  0  0  0  0  0  0  0  0  0  0  0
   23.0329    9.4253   53.0594 H   0  0  0  0  0  0  0  0  0  0  0  0
   22.5340    7.3805   52.4394 C   0  0  0  0  0  0  0  0  0  0  0  0
   21.0823    7.2235   52.2748 C   0  0  0  0  0  0  0  0  0  0  0  0
   20.2972    6.4301   53.1560 N   0  0  0  0  0  0  0  0  0  0  0  0
   20.4430    7.7940   51.3300 O   0  0  0  0  0  0  0  0  0  0  0  0
   20.1891    5.4186   53.0836 H   0  0  0  0  0  0  0  0  0  0  0  0
   19.8155    6.9510   53.9142 H   0  0  0  0  0  0  0  0  0  0  0  0
   23.0517    6.0738   53.0549 C   0  0  0  0  0  0  0  0  0  0  0  0
   24.4014    5.9589   52.8039 O   0  0  0  0  0  0  0  0  0  0  0  0
   24.9941    6.2417   53.5292 H   0  0  0  0  0  0  0  0  0  0  0  0
   22.9169   10.5207   55.3708 C   0  0  0  0  0  0  0  0  0  0  0  0
   20.6217    9.4795   55.1451 C   0  0  0  0  0  0  0  0  0  0  0  0
   21.5301   10.6255   54.8970 C   0  0  0  0  0  0  0  0  0  0  0  0
   21.4864   10.9228   53.3993 C   0  0  0  0  0  0  0  0  0  0  0  0
   27.8756    8.7508   55.0644 C   0  0  0  0  0  0  0  0  0  0  0  0
   26.8735    7.8588   54.3880 C   0  0  0  0  0  0  0  0  0  0  0  0
   26.5502    8.4074   53.0492 C   0  0  0  0  0  0  0  0  0  0  0  0
   27.6096    8.8349   52.2198 N   0  0  0  0  0  0  0  0  0  0  0  0
   25.3729    8.4904   52.6656 O   0  0  0  0  0  0  0  0  0  0  0  0
   28.4679    8.2646   52.0245 H   0  0  0  0  0  0  0  0  0  0  0  0
   27.6070    9.7689   51.7365 H   0  0  0  0  0  0  0  0  0  0  0  0
 58 59  1  0  0  0
 59 60  1  0  0  0
 59 57  1  0  0  0
 57 43  1  0  0  0
 43 39  1  0  0  0
 39 40  1  0  0  0
 40 41  2  0  0  0
 40 38  1  0  0  0
 38 61  1  0  0  0
 61 62  1  0  0  0
 62 63  1  0  0  0
 63 64  1  0  0  0
 63 65  2  0  0  0
 38  1  1  0  0  0
  1  2  1  0  0  0
  2  3  2  0  0  0
  2  5  1  0  0  0
  5 35  1  0  0  0
 35 36  1  0  0  0
  5  6  1  0  0  0
  6  7  1  0  0  0
  7  8  2  0  0  0
  7 10  1  0  0  0
 10 32  1  0  0  0
 32 33  1  0  0  0
 10 11  1  0  0  0
 11 12  1  0  0  0
 12 13  2  0  0  0
 12 15  1  0  0  0
 15 29  1  0  0  0
 29 30  1  0  0  0
 15 16  1  0  0  0
 16 17  1  0  0  0
 17 18  2  0  0  0
 17 20  1  0  0  0
 20 26  1  0  0  0
 26 27  1  0  0  0
 20 21  1  0  0  0
 21 22  1  0  0  0
 22 23  1  0  0  0
 22 24  2  0  0  0
 43 44  1  0  0  0
 44 45  2  0  0  0
 44 46  1  0  0  0
 46 48  1  0  0  0
 48 54  1  0  0  0
 54 55  1  0  0  0
 48 49  1  0  0  0
 49 50  1  0  0  0
 49 51  2  0  0  0
 39 42  1  0  0  0
 64 66  1  0  0  0
 64 67  1  0  0  0
  1  4  1  0  0  0
 36 37  1  0  0  0
  6  9  1  0  0  0
 33 34  1  0  0  0
 11 14  1  0  0  0
 30 31  1  0  0  0
 16 19  1  0  0  0
 27 28  1  0  0  0
 21 25  1  0  0  0
 46 47  1  0  0  0
 55 56  1  0  0  0
 50 52  1  0  0  0
 50 53  1  0  0  0
M  END
> <minimizedAffinity>
0.34772

> <CNNscore>
0.5292112231

> <CNNaffinity>
6.9088563919

> <CNN_VS>
3.6562442780

> <CNNaffinity_variance>
0.2126784772

$$$$
[H]OC([H])([H])[C@@]([H])(C(=O)N([H])[H])N([H])C(=O)[C@@]([H])(N([H])C(=O)[C@@]([H])(N([H])C(=O)[C@@]([H])(N([H])C(=O)[C@@]([H])(N([H])C(=O)[C@@]([H])(N([H])C(=O)[C@@]([H])(N([H])C(=O)C([H])([H])[H])C([H])([H])O[H])C([H])([H])O[H])C([H])([H])O[H])C([H])([H])O[H])C([H])([H])C([H])([H])C(=O)N([H])[H])C([H])([H])C([H])(C([H])([H])[H])C([H])([H])[H]


 67 66  0  0  0  0  0  0  0  0999 V2000
   28.0507   10.5321   57.6303 N   0  0  0  0  0  0  0  0  0  0  0  0
   28.6829    9.7383   58.5993 C   0  0  0  0  0  0  0  0  0  0  0  0
   28.6747    8.4913   58.4194 O   0  0  0  0  0  0  0  0  0  0  0  0
   28.0554   11.5647   57.7896 H   0  0  0  0  0  0  0  0  0  0  0  0
   29.3440   10.2602   59.7990 C   0  0  0  0  0  0  0  0  0  0  0  0
   28.9359   11.6684   60.0120 N   0  0  0  0  0  0  0  0  0  0  0  0
   29.6698   12.4262   60.9540 C   0  0  0  0  0  0  0  0  0  0  0  0
   30.6318   11.8865   61.6133 O   0  0  0  0  0  0  0  0  0  0  0  0
   28.1413   12.0697   59.4875 H   0  0  0  0  0  0  0  0  0  0  0  0
   29.4241   13.8456   61.2533 C   0  0  0  0  0  0  0  0  0  0  0  0
   30.1765   14.6713   60.3505 N   0  0  0  0  0  0  0  0  0  0  0  0
   31.3785   15.2747   60.7689 C   0  0  0  0  0  0  0  0  0  0  0  0
   31.7976   15.1042   61.9292 O   0  0  0  0  0  0  0  0  0  0  0  0
   29.8043   14.8017   59.3842 H   0  0  0  0  0  0  0  0  0  0  0  0
   32.1095   16.1126   59.7902 C   0  0  0  0  0  0  0  0  0  0  0  0
   31.6542   17.4957   59.9856 N   0  0  0  0  0  0  0  0  0  0  0  0
   30.5269   17.9680   59.2555 C   0  0  0  0  0  0  0  0  0  0  0  0
   29.9272   17.2077   58.4322 O   0  0  0  0  0  0  0  0  0  0  0  0
   32.1666   18.0802   60.6449 H   0  0  0  0  0  0  0  0  0  0  0  0
   30.0478   19.3461   59.4558 C   0  0  0  0  0  0  0  0  0  0  0  0
   29.2607   19.6736   58.2714 N   0  0  0  0  0  0  0  0  0  0  0  0
   27.8973   19.3889   58.2434 C   0  0  0  0  0  0  0  0  0  0  0  0
   26.9962   19.6869   57.1088 C   0  0  0  0  0  0  0  0  0  0  0  0
   27.3719   18.8329   59.2655 O   0  0  0  0  0  0  0  0  0  0  0  0
   29.7440   20.1149   57.4752 H   0  0  0  0  0  0  0  0  0  0  0  0
   29.1306   19.3048   60.6792 C   0  0  0  0  0  0  0  0  0  0  0  0
   29.8651   18.7567   61.7498 O   0  0  0  0  0  0  0  0  0  0  0  0
   30.7056   19.2891   61.8426 H   0  0  0  0  0  0  0  0  0  0  0  0
   33.5629   16.1313   60.3028 C   0  0  0  0  0  0  0  0  0  0  0  0
   33.8090   17.2589   61.0859 O   0  0  0  0  0  0  0  0  0  0  0  0
   33.4676   18.0337   60.5759 H   0  0  0  0  0  0  0  0  0  0  0  0
   27.9036   14.1461   61.0207 C   0  0  0  0  0  0  0  0  0  0  0  0
   27.1526   13.0818   61.4736 O   0  0  0  0  0  0  0  0  0  0  0  0
   27.2525   12.9175   62.4446 H   0  0  0  0  0  0  0  0  0  0  0  0
   28.8843    9.5499   61.0667 C   0  0  0  0  0  0  0  0  0  0  0  0
   29.7462    8.4793   61.2982 O   0  0  0  0  0  0  0  0  0  0  0  0
   30.2523    8.5968   62.1306 H   0  0  0  0  0  0  0  0  0  0  0  0
   27.4141    9.9320   56.4547 C   0  0  0  0  0  0  0  0  0  0  0  0
   25.0501    9.7725   55.6367 N   0  0  0  0  0  0  0  0  0  0  0  0
   26.0091    9.6098   56.6693 C   0  0  0  0  0  0  0  0  0  0  0  0
   25.6017    9.1815   57.7791 O   0  0  0  0  0  0  0  0  0  0  0  0
   25.2858   10.1257   54.6937 H   0  0  0  0  0  0  0  0  0  0  0  0
   23.6112    9.4653   55.8069 C   0  0  0  0  0  0  0  0  0  0  0  0
   23.3673    8.3437   54.8810 C   0  0  0  0  0  0  0  0  0  0  0  0
   24.1333    8.2271   53.8898 O   0  0  0  0  0  0  0  0  0  0  0  0
   22.3331    7.3780   55.0258 N   0  0  0  0  0  0  0  0  0  0  0  0
   21.7203    7.5180   55.8750 H   0  0  0  0  0  0  0  0  0  0  0  0
   22.1547    6.3156   54.0917 C   0  0  0  0  0  0  0  0  0  0  0  0
   23.4130    5.7007   53.6473 C   0  0  0  0  0  0  0  0  0  0  0  0
   24.0353    6.0443   52.4156 N   0  0  0  0  0  0  0  0  0  0  0  0
   24.0204    4.8228   54.3452 O   0  0  0  0  0  0  0  0  0  0  0  0
   23.7830    5.6501   51.5095 H   0  0  0  0  0  0  0  0  0  0  0  0
   24.7948    6.7493   52.4821 H   0  0  0  0  0  0  0  0  0  0  0  0
   21.5088    6.9447   52.8502 C   0  0  0  0  0  0  0  0  0  0  0  0
   20.1527    7.0685   53.0590 O   0  0  0  0  0  0  0  0  0  0  0  0
   19.8470    7.9494   53.3554 H   0  0  0  0  0  0  0  0  0  0  0  0
   22.9494   10.7148   55.3215 C   0  0  0  0  0  0  0  0  0  0  0  0
   20.6550    9.6483   55.3528 C   0  0  0  0  0  0  0  0  0  0  0  0
   21.5753   10.6734   54.8032 C   0  0  0  0  0  0  0  0  0  0  0  0
   21.5701   10.5191   53.2834 C   0  0  0  0  0  0  0  0  0  0  0  0
   28.2461    8.8054   55.8822 C   0  0  0  0  0  0  0  0  0  0  0  0
   28.3650    8.8292   54.3846 C   0  0  0  0  0  0  0  0  0  0  0  0
   27.1713    8.1860   53.7853 C   0  0  0  0  0  0  0  0  0  0  0  0
   26.6873    8.6746   52.5525 N   0  0  0  0  0  0  0  0  0  0  0  0
   26.6082    7.2385   54.3557 O   0  0  0  0  0  0  0  0  0  0  0  0
   27.2914    8.8473   51.7126 H   0  0  0  0  0  0  0  0  0  0  0  0
   25.6728    8.9013   52.3939 H   0  0  0  0  0  0  0  0  0  0  0  0
 58 59  1  0  0  0
 59 60  1  0  0  0
 59 57  1  0  0  0
 57 43  1  0  0  0
 43 39  1  0  0  0
 39 40  1  0  0  0
 40 41  2  0  0  0
 40 38  1  0  0  0
 38 61  1  0  0  0
 61 62  1  0  0  0
 62 63  1  0  0  0
 63 64  1  0  0  0
 63 65  2  0  0  0
 38  1  1  0  0  0
  1  2  1  0  0  0
  2  3  2  0  0  0
  2  5  1  0  0  0
  5 35  1  0  0  0
 35 36  1  0  0  0
  5  6  1  0  0  0
  6  7  1  0  0  0
  7  8  2  0  0  0
  7 10  1  0  0  0
 10 32  1  0  0  0
 32 33  1  0  0  0
 10 11  1  0  0  0
 11 12  1  0  0  0
 12 13  2  0  0  0
 12 15  1  0  0  0
 15 29  1  0  0  0
 29 30  1  0  0  0
 15 16  1  0  0  0
 16 17  1  0  0  0
 17 18  2  0  0  0
 17 20  1  0  0  0
 20 26  1  0  0  0
 26 27  1  0  0  0
 20 21  1  0  0  0
 21 22  1  0  0  0
 22 23  1  0  0  0
 22 24  2  0  0  0
 43 44  1  0  0  0
 44 45  2  0  0  0
 44 46  1  0  0  0
 46 48  1  0  0  0
 48 54  1  0  0  0
 54 55  1  0  0  0
 48 49  1  0  0  0
 49 50  1  0  0  0
 49 51  2  0  0  0
 39 42  1  0  0  0
 64 66  1  0  0  0
 64 67  1  0  0  0
  1  4  1  0  0  0
 36 37  1  0  0  0
  6  9  1  0  0  0
 33 34  1  0  0  0
 11 14  1  0  0  0
 30 31  1  0  0  0
 16 19  1  0  0  0
 27 28  1  0  0  0
 21 25  1  0  0  0
 46 47  1  0  0  0
 55 56  1  0  0  0
 50 52  1  0  0  0
 50 53  1  0  0  0
M  END
> <minimizedAffinity>
1.78553

> <CNNscore>
0.5262774825

> <CNNaffinity>
6.9717550278

> <CNN_VS>
3.6690776348

> <CNNaffinity_variance>
0.3749015927

$$$$
[H]OC([H])([H])[C@@]([H])(C(=O)N([H])[H])N([H])C(=O)[C@@]([H])(N([H])C(=O)[C@@]([H])(N([H])C(=O)[C@@]([H])(N([H])C(=O)[C@@]([H])(N([H])C(=O)[C@@]([H])(N([H])C(=O)[C@@]([H])(N([H])C(=O)C([H])([H])[H])C([H])([H])O[H])C([H])([H])O[H])C([H])([H])O[H])C([H])([H])O[H])C([H])([H])C([H])([H])C(=O)N([H])[H])C([H])([H])C([H])(C([H])([H])[H])C([H])([H])[H]


 67 66  0  0  0  0  0  0  0  0999 V2000
   28.0838    9.2417   58.0141 N   0  0  0  0  0  0  0  0  0  0  0  0
   28.5832   10.3670   58.6874 C   0  0  0  0  0  0  0  0  0  0  0  0
   28.4228   11.4883   58.1359 O   0  0  0  0  0  0  0  0  0  0  0  0
   28.2266    8.3145   58.4742 H   0  0  0  0  0  0  0  0  0  0  0  0
   29.2762   10.3234   59.9783 C   0  0  0  0  0  0  0  0  0  0  0  0
   30.3286   11.3659   60.0069 N   0  0  0  0  0  0  0  0  0  0  0  0
   31.2608   11.3247   61.0696 C   0  0  0  0  0  0  0  0  0  0  0  0
   31.1634   10.4271   61.9841 O   0  0  0  0  0  0  0  0  0  0  0  0
   30.3679   12.0923   59.2731 H   0  0  0  0  0  0  0  0  0  0  0  0
   32.3896   12.2557   61.2234 C   0  0  0  0  0  0  0  0  0  0  0  0
   31.9022   13.5560   61.5900 N   0  0  0  0  0  0  0  0  0  0  0  0
   32.3456   14.7037   60.9041 C   0  0  0  0  0  0  0  0  0  0  0  0
   33.1711   14.6031   59.9771 O   0  0  0  0  0  0  0  0  0  0  0  0
   31.2129   13.6158   62.3714 H   0  0  0  0  0  0  0  0  0  0  0  0
   31.8037   16.0156   61.3279 C   0  0  0  0  0  0  0  0  0  0  0  0
   32.0261   16.9504   60.2166 N   0  0  0  0  0  0  0  0  0  0  0  0
   30.9194   17.3656   59.4231 C   0  0  0  0  0  0  0  0  0  0  0  0
   29.7523   16.9230   59.6624 O   0  0  0  0  0  0  0  0  0  0  0  0
   32.9772   17.2752   60.0467 H   0  0  0  0  0  0  0  0  0  0  0  0
   31.1247   18.3173   58.3182 C   0  0  0  0  0  0  0  0  0  0  0  0
   29.9103   19.1238   58.2520 N   0  0  0  0  0  0  0  0  0  0  0  0
   28.9820   18.8989   57.2380 C   0  0  0  0  0  0  0  0  0  0  0  0
   27.7119   19.6400   57.0770 C   0  0  0  0  0  0  0  0  0  0  0  0
   29.2298   17.9876   56.3789 O   0  0  0  0  0  0  0  0  0  0  0  0
   29.7707   19.8495   58.9705 H   0  0  0  0  0  0  0  0  0  0  0  0
   32.3006   19.2036   58.7320 C   0  0  0  0  0  0  0  0  0  0  0  0
   32.0395   19.6875   60.0296 O   0  0  0  0  0  0  0  0  0  0  0  0
   31.8508   18.8987   60.6133 H   0  0  0  0  0  0  0  0  0  0  0  0
   30.2749   15.8198   61.3393 C   0  0  0  0  0  0  0  0  0  0  0  0
   29.6750   16.5781   62.3444 O   0  0  0  0  0  0  0  0  0  0  0  0
   30.1894   16.4049   63.1704 H   0  0  0  0  0  0  0  0  0  0  0  0
   33.3020   11.7416   62.3895 C   0  0  0  0  0  0  0  0  0  0  0  0
   33.2315   12.6229   63.4479 O   0  0  0  0  0  0  0  0  0  0  0  0
   32.3217   12.7043   63.8293 H   0  0  0  0  0  0  0  0  0  0  0  0
   28.3603   10.6957   61.1382 C   0  0  0  0  0  0  0  0  0  0  0  0
   27.9901   12.0306   60.9845 O   0  0  0  0  0  0  0  0  0  0  0  0
   27.0252   12.1221   60.8305 H   0  0  0  0  0  0  0  0  0  0  0  0
   27.3981    9.3704   56.7255 C   0  0  0  0  0  0  0  0  0  0  0  0
   25.1170    9.2947   55.6892 N   0  0  0  0  0  0  0  0  0  0  0  0
   25.9488    9.2660   56.8379 C   0  0  0  0  0  0  0  0  0  0  0  0
   25.3895    9.1519   57.9582 O   0  0  0  0  0  0  0  0  0  0  0  0
   25.4819    9.3938   54.7265 H   0  0  0  0  0  0  0  0  0  0  0  0
   23.6404    9.1984   55.7513 C   0  0  0  0  0  0  0  0  0  0  0  0
   23.2986    8.1925   54.7286 C   0  0  0  0  0  0  0  0  0  0  0  0
   23.1964    6.9944   55.0986 O   0  0  0  0  0  0  0  0  0  0  0  0
   23.0698    8.4742   53.3533 N   0  0  0  0  0  0  0  0  0  0  0  0
   23.1641    9.4943   53.0946 H   0  0  0  0  0  0  0  0  0  0  0  0
   22.7407    7.4509   52.4166 C   0  0  0  0  0  0  0  0  0  0  0  0
   21.3041    7.3573   52.1227 C   0  0  0  0  0  0  0  0  0  0  0  0
   20.3976    6.6599   52.9679 N   0  0  0  0  0  0  0  0  0  0  0  0
   20.7880    7.9001   51.0904 O   0  0  0  0  0  0  0  0  0  0  0  0
   20.2404    5.6526   52.9425 H   0  0  0  0  0  0  0  0  0  0  0  0
   19.8775    7.2499   53.6459 H   0  0  0  0  0  0  0  0  0  0  0  0
   23.1431    6.1252   53.0759 C   0  0  0  0  0  0  0  0  0  0  0  0
   24.4642    5.8598   52.7894 O   0  0  0  0  0  0  0  0  0  0  0  0
   25.1080    6.1105   53.4823 H   0  0  0  0  0  0  0  0  0  0  0  0
   23.2045   10.5639   55.3269 C   0  0  0  0  0  0  0  0  0  0  0  0
   20.7918    9.8023   55.3699 C   0  0  0  0  0  0  0  0  0  0  0  0
   21.7987   10.8216   54.9862 C   0  0  0  0  0  0  0  0  0  0  0  0
   21.6383   11.0761   53.4886 C   0  0  0  0  0  0  0  0  0  0  0  0
   28.0209    8.4838   55.6695 C   0  0  0  0  0  0  0  0  0  0  0  0
   28.0326    9.0840   54.2922 C   0  0  0  0  0  0  0  0  0  0  0  0
   27.0230    8.4007   53.4485 C   0  0  0  0  0  0  0  0  0  0  0  0
   26.9135    8.7719   52.0909 N   0  0  0  0  0  0  0  0  0  0  0  0
   26.2884    7.5217   53.9256 O   0  0  0  0  0  0  0  0  0  0  0  0
   27.7301    8.8530   51.4377 H   0  0  0  0  0  0  0  0  0  0  0  0
   25.9906    8.9954   51.6391 H   0  0  0  0  0  0  0  0  0  0  0  0
 58 59  1  0  0  0
 59 60  1  0  0  0
 59 57  1  0  0  0
 57 43  1  0  0  0
 43 39  1  0  0  0
 39 40  1  0  0  0
 40 41  2  0  0  0
 40 38  1  0  0  0
 38 61  1  0  0  0
 61 62  1  0  0  0
 62 63  1  0  0  0
 63 64  1  0  0  0
 63 65  2  0  0  0
 38  1  1  0  0  0
  1  2  1  0  0  0
  2  3  2  0  0  0
  2  5  1  0  0  0
  5 35  1  0  0  0
 35 36  1  0  0  0
  5  6  1  0  0  0
  6  7  1  0  0  0
  7  8  2  0  0  0
  7 10  1  0  0  0
 10 32  1  0  0  0
 32 33  1  0  0  0
 10 11  1  0  0  0
 11 12  1  0  0  0
 12 13  2  0  0  0
 12 15  1  0  0  0
 15 29  1  0  0  0
 29 30  1  0  0  0
 15 16  1  0  0  0
 16 17  1  0  0  0
 17 18  2  0  0  0
 17 20  1  0  0  0
 20 26  1  0  0  0
 26 27  1  0  0  0
 20 21  1  0  0  0
 21 22  1  0  0  0
 22 23  1  0  0  0
 22 24  2  0  0  0
 43 44  1  0  0  0
 44 45  2  0  0  0
 44 46  1  0  0  0
 46 48  1  0  0  0
 48 54  1  0  0  0
 54 55  1  0  0  0
 48 49  1  0  0  0
 49 50  1  0  0  0
 49 51  2  0  0  0
 39 42  1  0  0  0
 64 66  1  0  0  0
 64 67  1  0  0  0
  1  4  1  0  0  0
 36 37  1  0  0  0
  6  9  1  0  0  0
 33 34  1  0  0  0
 11 14  1  0  0  0
 30 31  1  0  0  0
 16 19  1  0  0  0
 27 28  1  0  0  0
 21 25  1  0  0  0
 46 47  1  0  0  0
 55 56  1  0  0  0
 50 52  1  0  0  0
 50 53  1  0  0  0
M  END
> <minimizedAffinity>
0.79294

> <CNNscore>
0.5248534083

> <CNNaffinity>
6.9413213730

> <CNN_VS>
3.6431760788

> <CNNaffinity_variance>
0.4058961868

$$$$
[H]OC([H])([H])[C@@]([H])(C(=O)N([H])[H])N([H])C(=O)[C@@]([H])(N([H])C(=O)[C@@]([H])(N([H])C(=O)[C@@]([H])(N([H])C(=O)[C@@]([H])(N([H])C(=O)[C@@]([H])(N([H])C(=O)[C@@]([H])(N([H])C(=O)C([H])([H])[H])C([H])([H])O[H])C([H])([H])O[H])C([H])([H])O[H])C([H])([H])O[H])C([H])([H])C([H])([H])C(=O)N([H])[H])C([H])([H])C([H])(C([H])([H])[H])C([H])([H])[H]


 67 66  0  0  0  0  0  0  0  0999 V2000
   27.2586    8.7998   56.7761 N   0  0  0  0  0  0  0  0  0  0  0  0
   28.0410    9.7049   57.5092 C   0  0  0  0  0  0  0  0  0  0  0  0
   28.0745   10.8980   57.1059 O   0  0  0  0  0  0  0  0  0  0  0  0
   27.2412    7.8107   57.1124 H   0  0  0  0  0  0  0  0  0  0  0  0
   28.8182    9.3554   58.7019 C   0  0  0  0  0  0  0  0  0  0  0  0
   28.5601   10.3527   59.7667 N   0  0  0  0  0  0  0  0  0  0  0  0
   29.5669   10.5435   60.7416 C   0  0  0  0  0  0  0  0  0  0  0  0
   30.6454    9.8458   60.7060 O   0  0  0  0  0  0  0  0  0  0  0  0
   27.6725   10.8812   59.7869 H   0  0  0  0  0  0  0  0  0  0  0  0
   29.4892   11.5213   61.8382 C   0  0  0  0  0  0  0  0  0  0  0  0
   30.3389   12.6432   61.5517 N   0  0  0  0  0  0  0  0  0  0  0  0
   29.8569   13.7280   60.7932 C   0  0  0  0  0  0  0  0  0  0  0  0
   28.6906   13.7218   60.3568 O   0  0  0  0  0  0  0  0  0  0  0  0
   31.3131   12.6250   61.9257 H   0  0  0  0  0  0  0  0  0  0  0  0
   30.7814   14.8561   60.5341 C   0  0  0  0  0  0  0  0  0  0  0  0
   30.2568   16.0169   61.2658 N   0  0  0  0  0  0  0  0  0  0  0  0
   30.6837   17.3241   60.8973 C   0  0  0  0  0  0  0  0  0  0  0  0
   31.5206   17.4873   59.9547 O   0  0  0  0  0  0  0  0  0  0  0  0
   29.5965   15.8473   62.0236 H   0  0  0  0  0  0  0  0  0  0  0  0
   30.1512   18.4980   61.6094 C   0  0  0  0  0  0  0  0  0  0  0  0
   29.5736   19.3615   60.5845 N   0  0  0  0  0  0  0  0  0  0  0  0
   28.5196   18.8984   59.8000 C   0  0  0  0  0  0  0  0  0  0  0  0
   27.8453   19.6843   58.7437 C   0  0  0  0  0  0  0  0  0  0  0  0
   28.0911   17.7121   59.9974 O   0  0  0  0  0  0  0  0  0  0  0  0
   29.9682   20.3065   60.4683 H   0  0  0  0  0  0  0  0  0  0  0  0
   29.0381   17.9758   62.5193 C   0  0  0  0  0  0  0  0  0  0  0  0
   29.2247   18.5416   63.7965 O   0  0  0  0  0  0  0  0  0  0  0  0
   29.2768   19.5329   63.6823 H   0  0  0  0  0  0  0  0  0  0  0  0
   32.0663   14.4907   61.3028 C   0  0  0  0  0  0  0  0  0  0  0  0
   32.5569   15.5835   62.0171 O   0  0  0  0  0  0  0  0  0  0  0  0
   32.5719   16.3453   61.3876 H   0  0  0  0  0  0  0  0  0  0  0  0
   28.0162   12.0489   61.9295 C   0  0  0  0  0  0  0  0  0  0  0  0
   27.7637   12.4803   63.2148 O   0  0  0  0  0  0  0  0  0  0  0  0
   28.3410   13.2340   63.4951 H   0  0  0  0  0  0  0  0  0  0  0  0
   28.3676    8.0365   59.3186 C   0  0  0  0  0  0  0  0  0  0  0  0
   29.5038    7.3416   59.7293 O   0  0  0  0  0  0  0  0  0  0  0  0
   29.5256    7.2294   60.7040 H   0  0  0  0  0  0  0  0  0  0  0  0
   26.5068    9.2302   55.5942 C   0  0  0  0  0  0  0  0  0  0  0  0
   24.0120    9.0674   55.4140 N   0  0  0  0  0  0  0  0  0  0  0  0
   25.1704    9.7157   55.9141 C   0  0  0  0  0  0  0  0  0  0  0  0
   25.0024   10.7284   56.6403 O   0  0  0  0  0  0  0  0  0  0  0  0
   24.0473    8.2336   54.8031 H   0  0  0  0  0  0  0  0  0  0  0  0
   22.6338    9.5252   55.7051 C   0  0  0  0  0  0  0  0  0  0  0  0
   21.7755    8.4377   55.1998 C   0  0  0  0  0  0  0  0  0  0  0  0
   21.4677    7.5167   55.9996 O   0  0  0  0  0  0  0  0  0  0  0  0
   21.2631    8.3528   53.8756 N   0  0  0  0  0  0  0  0  0  0  0  0
   21.5473    9.1515   53.2450 H   0  0  0  0  0  0  0  0  0  0  0  0
   20.4354    7.2714   53.4533 C   0  0  0  0  0  0  0  0  0  0  0  0
   21.0457    5.9487   53.6459 C   0  0  0  0  0  0  0  0  0  0  0  0
   20.3192    4.7403   53.4601 N   0  0  0  0  0  0  0  0  0  0  0  0
   22.2660    5.8103   53.9898 O   0  0  0  0  0  0  0  0  0  0  0  0
   19.7132    4.3152   54.1617 H   0  0  0  0  0  0  0  0  0  0  0  0
   20.4379    4.2876   52.5332 H   0  0  0  0  0  0  0  0  0  0  0  0
   20.2395    7.4506   51.9420 C   0  0  0  0  0  0  0  0  0  0  0  0
   21.4413    7.2415   51.3019 O   0  0  0  0  0  0  0  0  0  0  0  0
   21.5723    6.3481   50.9251 H   0  0  0  0  0  0  0  0  0  0  0  0
   22.5076   10.7475   54.8538 C   0  0  0  0  0  0  0  0  0  0  0  0
   22.0728   10.1493   52.4339 C   0  0  0  0  0  0  0  0  0  0  0  0
   21.5975   10.7577   53.7004 C   0  0  0  0  0  0  0  0  0  0  0  0
   21.1420   12.1795   53.3775 C   0  0  0  0  0  0  0  0  0  0  0  0
   26.5623    8.1978   54.4895 C   0  0  0  0  0  0  0  0  0  0  0  0
   25.4366    7.2033   54.5210 C   0  0  0  0  0  0  0  0  0  0  0  0
   24.6990    7.2533   53.2359 C   0  0  0  0  0  0  0  0  0  0  0  0
   24.3687    6.0379   52.5982 N   0  0  0  0  0  0  0  0  0  0  0  0
   24.3795    8.3406   52.7303 O   0  0  0  0  0  0  0  0  0  0  0  0
   23.9149    5.2261   53.0830 H   0  0  0  0  0  0  0  0  0  0  0  0
   24.5600    5.8648   51.5787 H   0  0  0  0  0  0  0  0  0  0  0  0
 58 59  1  0  0  0
 59 60  1  0  0  0
 59 57  1  0  0  0
 57 43  1  0  0  0
 43 39  1  0  0  0
 39 40  1  0  0  0
 40 41  2  0  0  0
 40 38  1  0  0  0
 38 61  1  0  0  0
 61 62  1  0  0  0
 62 63  1  0  0  0
 63 64  1  0  0  0
 63 65  2  0  0  0
 38  1  1  0  0  0
  1  2  1  0  0  0
  2  3  2  0  0  0
  2  5  1  0  0  0
  5 35  1  0  0  0
 35 36  1  0  0  0
  5  6  1  0  0  0
  6  7  1  0  0  0
  7  8  2  0  0  0
  7 10  1  0  0  0
 10 32  1  0  0  0
 32 33  1  0  0  0
 10 11  1  0  0  0
 11 12  1  0  0  0
 12 13  2  0  0  0
 12 15  1  0  0  0
 15 29  1  0  0  0
 29 30  1  0  0  0
 15 16  1  0  0  0
 16 17  1  0  0  0
 17 18  2  0  0  0
 17 20  1  0  0  0
 20 26  1  0  0  0
 26 27  1  0  0  0
 20 21  1  0  0  0
 21 22  1  0  0  0
 22 23  1  0  0  0
 22 24  2  0  0  0
 43 44  1  0  0  0
 44 45  2  0  0  0
 44 46  1  0  0  0
 46 48  1  0  0  0
 48 54  1  0  0  0
 54 55  1  0  0  0
 48 49  1  0  0  0
 49 50  1  0  0  0
 49 51  2  0  0  0
 39 42  1  0  0  0
 64 66  1  0  0  0
 64 67  1  0  0  0
  1  4  1  0  0  0
 36 37  1  0  0  0
  6  9  1  0  0  0
 33 34  1  0  0  0
 11 14  1  0  0  0
 30 31  1  0  0  0
 16 19  1  0  0  0
 27 28  1  0  0  0
 21 25  1  0  0  0
 46 47  1  0  0  0
 55 56  1  0  0  0
 50 52  1  0  0  0
 50 53  1  0  0  0
M  END
> <minimizedAffinity>
1.47781

> <CNNscore>
0.5179059505

> <CNNaffinity>
6.7827210426

> <CNN_VS>
3.5128116608

> <CNNaffinity_variance>
0.4136993289

$$$$
[H]OC([H])([H])[C@@]([H])(C(=O)N([H])[H])N([H])C(=O)[C@@]([H])(N([H])C(=O)[C@@]([H])(N([H])C(=O)[C@@]([H])(N([H])C(=O)[C@@]([H])(N([H])C(=O)[C@@]([H])(N([H])C(=O)[C@@]([H])(N([H])C(=O)C([H])([H])[H])C([H])([H])O[H])C([H])([H])O[H])C([H])([H])O[H])C([H])([H])O[H])C([H])([H])C([H])([H])C(=O)N([H])[H])C([H])([H])C([H])(C([H])([H])[H])C([H])([H])[H]


 67 66  0  0  0  0  0  0  0  0999 V2000
   28.9354    9.4183   59.5165 N   0  0  0  0  0  0  0  0  0  0  0  0
   28.8835    9.1345   60.8897 C   0  0  0  0  0  0  0  0  0  0  0  0
   28.0986    9.8249   61.5929 O   0  0  0  0  0  0  0  0  0  0  0  0
   29.5936    8.8464   58.9408 H   0  0  0  0  0  0  0  0  0  0  0  0
   29.6784    8.0979   61.5547 C   0  0  0  0  0  0  0  0  0  0  0  0
   28.7777    7.0356   62.0596 N   0  0  0  0  0  0  0  0  0  0  0  0
   29.1618    6.3597   63.2411 C   0  0  0  0  0  0  0  0  0  0  0  0
   30.2701    6.6493   63.8233 O   0  0  0  0  0  0  0  0  0  0  0  0
   27.9050    6.8045   61.5568 H   0  0  0  0  0  0  0  0  0  0  0  0
   28.3640    5.3124   63.8979 C   0  0  0  0  0  0  0  0  0  0  0  0
   27.8888    4.3757   62.9184 N   0  0  0  0  0  0  0  0  0  0  0  0
   26.8704    3.4584   63.2434 C   0  0  0  0  0  0  0  0  0  0  0  0
   26.3766    3.4454   64.3866 O   0  0  0  0  0  0  0  0  0  0  0  0
   28.3193    4.4037   61.9680 H   0  0  0  0  0  0  0  0  0  0  0  0
   26.4220    2.5199   62.1888 C   0  0  0  0  0  0  0  0  0  0  0  0
   25.3772    1.6750   62.7828 N   0  0  0  0  0  0  0  0  0  0  0  0
   25.7530    0.5136   63.5155 C   0  0  0  0  0  0  0  0  0  0  0  0
   26.9782    0.2009   63.6441 O   0  0  0  0  0  0  0  0  0  0  0  0
   24.4049    1.9501   62.6490 H   0  0  0  0  0  0  0  0  0  0  0  0
   24.7171   -0.3317   64.1327 C   0  0  0  0  0  0  0  0  0  0  0  0
   23.4831   -0.0492   63.4067 N   0  0  0  0  0  0  0  0  0  0  0  0
   22.3033   -0.6981   63.7642 C   0  0  0  0  0  0  0  0  0  0  0  0
   20.9920   -0.4838   63.1141 C   0  0  0  0  0  0  0  0  0  0  0  0
   22.3398   -1.5398   64.7234 O   0  0  0  0  0  0  0  0  0  0  0  0
   23.5195    0.6351   62.6369 H   0  0  0  0  0  0  0  0  0  0  0  0
   25.1382   -1.7792   63.8737 C   0  0  0  0  0  0  0  0  0  0  0  0
   26.1423   -2.1091   64.8059 O   0  0  0  0  0  0  0  0  0  0  0  0
   25.7859   -1.9064   65.7172 H   0  0  0  0  0  0  0  0  0  0  0  0
   25.6519    3.4009   61.1856 C   0  0  0  0  0  0  0  0  0  0  0  0
   26.5073    4.2837   60.5266 O   0  0  0  0  0  0  0  0  0  0  0  0
   27.0561    4.7160   61.2258 H   0  0  0  0  0  0  0  0  0  0  0  0
   29.2906    4.5334   64.8934 C   0  0  0  0  0  0  0  0  0  0  0  0
   29.3446    3.2057   64.5242 O   0  0  0  0  0  0  0  0  0  0  0  0
   29.7323    3.0653   63.6244 H   0  0  0  0  0  0  0  0  0  0  0  0
   30.6001    7.3667   60.5858 C   0  0  0  0  0  0  0  0  0  0  0  0
   31.7992    8.0734   60.5141 O   0  0  0  0  0  0  0  0  0  0  0  0
   32.5501    7.5466   60.8629 H   0  0  0  0  0  0  0  0  0  0  0  0
   28.1037   10.4710   58.9269 C   0  0  0  0  0  0  0  0  0  0  0  0
   26.6775    9.6494   57.0364 N   0  0  0  0  0  0  0  0  0  0  0  0
   27.8615   10.2759   57.5031 C   0  0  0  0  0  0  0  0  0  0  0  0
   28.6977   10.6530   56.6431 O   0  0  0  0  0  0  0  0  0  0  0  0
   25.9354    9.2982   57.6654 H   0  0  0  0  0  0  0  0  0  0  0  0
   26.3881    9.4228   55.6017 C   0  0  0  0  0  0  0  0  0  0  0  0
   24.9261    9.2364   55.5510 C   0  0  0  0  0  0  0  0  0  0  0  0
   24.2221    9.9212   56.3372 O   0  0  0  0  0  0  0  0  0  0  0  0
   24.2486    8.3432   54.6755 N   0  0  0  0  0  0  0  0  0  0  0  0
   24.8839    7.7946   54.0338 H   0  0  0  0  0  0  0  0  0  0  0  0
   22.8288    8.2136   54.6783 C   0  0  0  0  0  0  0  0  0  0  0  0
   22.3405    7.0360   53.9475 C   0  0  0  0  0  0  0  0  0  0  0  0
   21.8717    7.1119   52.6070 N   0  0  0  0  0  0  0  0  0  0  0  0
   22.3118    5.8757   54.4761 O   0  0  0  0  0  0  0  0  0  0  0  0
   20.9285    7.3915   52.3383 H   0  0  0  0  0  0  0  0  0  0  0  0
   22.5660    6.8583   51.8776 H   0  0  0  0  0  0  0  0  0  0  0  0
   22.2876    9.4456   53.9410 C   0  0  0  0  0  0  0  0  0  0  0  0
   21.4358   10.1348   54.7761 O   0  0  0  0  0  0  0  0  0  0  0  0
   21.8271   10.8990   55.2455 H   0  0  0  0  0  0  0  0  0  0  0  0
   27.1023    8.1397   55.3217 C   0  0  0  0  0  0  0  0  0  0  0  0
   29.3187    8.5460   54.1706 C   0  0  0  0  0  0  0  0  0  0  0  0
   27.9393    8.0030   54.1220 C   0  0  0  0  0  0  0  0  0  0  0  0
   27.2523    8.6186   52.9045 C   0  0  0  0  0  0  0  0  0  0  0  0
   28.5954   11.8506   59.3066 C   0  0  0  0  0  0  0  0  0  0  0  0
   29.8104   11.8481   60.1905 C   0  0  0  0  0  0  0  0  0  0  0  0
   29.5636   12.7123   61.3695 C   0  0  0  0  0  0  0  0  0  0  0  0
   29.7231   12.1591   62.6585 N   0  0  0  0  0  0  0  0  0  0  0  0
   29.2229   13.8970   61.2269 O   0  0  0  0  0  0  0  0  0  0  0  0
   30.5626   11.6073   62.9598 H   0  0  0  0  0  0  0  0  0  0  0  0
   28.9980   12.2659   63.4126 H   0  0  0  0  0  0  0  0  0  0  0  0
 58 59  1  0  0  0
 59 60  1  0  0  0
 59 57  1  0  0  0
 57 43  1  0  0  0
 43 39  1  0  0  0
 39 40  1  0  0  0
 40 41  2  0  0  0
 40 38  1  0  0  0
 38 61  1  0  0  0
 61 62  1  0  0  0
 62 63  1  0  0  0
 63 64  1  0  0  0
 63 65  2  0  0  0
 38  1  1  0  0  0
  1  2  1  0  0  0
  2  3  2  0  0  0
  2  5  1  0  0  0
  5 35  1  0  0  0
 35 36  1  0  0  0
  5  6  1  0  0  0
  6  7  1  0  0  0
  7  8  2  0  0  0
  7 10  1  0  0  0
 10 32  1  0  0  0
 32 33  1  0  0  0
 10 11  1  0  0  0
 11 12  1  0  0  0
 12 13  2  0  0  0
 12 15  1  0  0  0
 15 29  1  0  0  0
 29 30  1  0  0  0
 15 16  1  0  0  0
 16 17  1  0  0  0
 17 18  2  0  0  0
 17 20  1  0  0  0
 20 26  1  0  0  0
 26 27  1  0  0  0
 20 21  1  0  0  0
 21 22  1  0  0  0
 22 23  1  0  0  0
 22 24  2  0  0  0
 43 44  1  0  0  0
 44 45  2  0  0  0
 44 46  1  0  0  0
 46 48  1  0  0  0
 48 54  1  0  0  0
 54 55  1  0  0  0
 48 49  1  0  0  0
 49 50  1  0  0  0
 49 51  2  0  0  0
 39 42  1  0  0  0
 64 66  1  0  0  0
 64 67  1  0  0  0
  1  4  1  0  0  0
 36 37  1  0  0  0
  6  9  1  0  0  0
 33 34  1  0  0  0
 11 14  1  0  0  0
 30 31  1  0  0  0
 16 19  1  0  0  0
 27 28  1  0  0  0
 21 25  1  0  0  0
 46 47  1  0  0  0
 55 56  1  0  0  0
 50 52  1  0  0  0
 50 53  1  0  0  0
M  END
> <minimizedAffinity>
0.70340

> <CNNscore>
0.4885619581

> <CNNaffinity>
6.5915665627

> <CNN_VS>
3.2203886509

> <CNNaffinity_variance>
0.2417778075

$$$$
[H]OC([H])([H])[C@@]([H])(C(=O)N([H])[H])N([H])C(=O)[C@@]([H])(N([H])C(=O)[C@@]([H])(N([H])C(=O)[C@@]([H])(N([H])C(=O)[C@@]([H])(N([H])C(=O)[C@@]([H])(N([H])C(=O)[C@@]([H])(N([H])C(=O)C([H])([H])[H])C([H])([H])O[H])C([H])([H])O[H])C([H])([H])O[H])C([H])([H])O[H])C([H])([H])C([H])([H])C(=O)N([H])[H])C([H])([H])C([H])(C([H])([H])[H])C([H])([H])[H]


 67 66  0  0  0  0  0  0  0  0999 V2000
   28.4307    9.4676   57.7013 N   0  0  0  0  0  0  0  0  0  0  0  0
   28.8280   10.3427   58.7236 C   0  0  0  0  0  0  0  0  0  0  0  0
   28.3923   11.5239   58.6746 O   0  0  0  0  0  0  0  0  0  0  0  0
   28.8015    8.4917   57.7447 H   0  0  0  0  0  0  0  0  0  0  0  0
   29.7119    9.9766   59.8341 C   0  0  0  0  0  0  0  0  0  0  0  0
   30.3167   11.2023   60.4059 N   0  0  0  0  0  0  0  0  0  0  0  0
   31.6542   11.1214   60.8584 C   0  0  0  0  0  0  0  0  0  0  0  0
   32.2944   10.0089   60.7961 O   0  0  0  0  0  0  0  0  0  0  0  0
   29.7704   12.0771   60.4686 H   0  0  0  0  0  0  0  0  0  0  0  0
   32.4158   12.2523   61.4114 C   0  0  0  0  0  0  0  0  0  0  0  0
   31.7493   13.4863   61.1018 N   0  0  0  0  0  0  0  0  0  0  0  0
   30.5086   13.7950   61.6929 C   0  0  0  0  0  0  0  0  0  0  0  0
   29.9729   12.9970   62.4849 O   0  0  0  0  0  0  0  0  0  0  0  0
   32.2162   14.1381   60.4336 H   0  0  0  0  0  0  0  0  0  0  0  0
   29.8732   15.0843   61.3349 C   0  0  0  0  0  0  0  0  0  0  0  0
   30.9519   15.9965   60.9319 N   0  0  0  0  0  0  0  0  0  0  0  0
   31.1028   17.2397   61.6091 C   0  0  0  0  0  0  0  0  0  0  0  0
   30.3054   17.5657   62.5436 O   0  0  0  0  0  0  0  0  0  0  0  0
   31.5648   15.7071   60.1705 H   0  0  0  0  0  0  0  0  0  0  0  0
   32.1916   18.1552   61.2285 C   0  0  0  0  0  0  0  0  0  0  0  0
   33.0145   18.3187   62.4226 N   0  0  0  0  0  0  0  0  0  0  0  0
   33.4962   17.1963   63.0927 C   0  0  0  0  0  0  0  0  0  0  0  0
   34.3488   17.2361   64.3008 C   0  0  0  0  0  0  0  0  0  0  0  0
   33.1906   16.0418   62.6413 O   0  0  0  0  0  0  0  0  0  0  0  0
   33.2205   19.2767   62.7418 H   0  0  0  0  0  0  0  0  0  0  0  0
   32.9998   17.4314   60.1503 C   0  0  0  0  0  0  0  0  0  0  0  0
   32.6333   17.9720   58.9016 O   0  0  0  0  0  0  0  0  0  0  0  0
   32.7518   18.9628   58.9555 H   0  0  0  0  0  0  0  0  0  0  0  0
   29.1267   14.7976   60.0172 C   0  0  0  0  0  0  0  0  0  0  0  0
   28.5415   13.5317   60.0321 O   0  0  0  0  0  0  0  0  0  0  0  0
   29.2414   12.9035   60.3362 H   0  0  0  0  0  0  0  0  0  0  0  0
   32.4548   12.1091   62.9717 C   0  0  0  0  0  0  0  0  0  0  0  0
   31.7106   11.0109   63.3488 O   0  0  0  0  0  0  0  0  0  0  0  0
   32.0609   10.1583   62.9880 H   0  0  0  0  0  0  0  0  0  0  0  0
   28.9480    9.3657   61.0029 C   0  0  0  0  0  0  0  0  0  0  0  0
   29.7337    8.3528   61.5499 O   0  0  0  0  0  0  0  0  0  0  0  0
   30.0048    8.5629   62.4693 H   0  0  0  0  0  0  0  0  0  0  0  0
   27.5396    9.9113   56.6259 C   0  0  0  0  0  0  0  0  0  0  0  0
   25.2302    9.5441   55.7230 N   0  0  0  0  0  0  0  0  0  0  0  0
   26.1793    9.4079   56.7685 C   0  0  0  0  0  0  0  0  0  0  0  0
   25.8027    8.8407   57.8256 O   0  0  0  0  0  0  0  0  0  0  0  0
   25.4419   10.0024   54.8204 H   0  0  0  0  0  0  0  0  0  0  0  0
   23.8356    9.0553   55.8215 C   0  0  0  0  0  0  0  0  0  0  0  0
   23.6781    8.1687   54.6537 C   0  0  0  0  0  0  0  0  0  0  0  0
   24.6021    7.3494   54.4133 O   0  0  0  0  0  0  0  0  0  0  0  0
   22.5564    8.1649   53.7791 N   0  0  0  0  0  0  0  0  0  0  0  0
   21.8075    8.8681   54.0260 H   0  0  0  0  0  0  0  0  0  0  0  0
   22.4681    7.2774   52.6667 C   0  0  0  0  0  0  0  0  0  0  0  0
   21.1631    7.3021   51.9919 C   0  0  0  0  0  0  0  0  0  0  0  0
   19.9957    6.7316   52.5699 N   0  0  0  0  0  0  0  0  0  0  0  0
   21.0038    7.8406   50.8468 O   0  0  0  0  0  0  0  0  0  0  0  0
   19.7502    5.7428   52.5229 H   0  0  0  0  0  0  0  0  0  0  0  0
   19.3738    7.3982   53.0671 H   0  0  0  0  0  0  0  0  0  0  0  0
   22.6434    5.8632   53.2358 C   0  0  0  0  0  0  0  0  0  0  0  0
   21.9240    5.7538   54.4056 O   0  0  0  0  0  0  0  0  0  0  0  0
   21.0409    5.3403   54.3243 H   0  0  0  0  0  0  0  0  0  0  0  0
   23.0366   10.3078   55.6553 C   0  0  0  0  0  0  0  0  0  0  0  0
   21.6811   11.2314   53.7286 C   0  0  0  0  0  0  0  0  0  0  0  0
   21.7922   10.2960   54.8743 C   0  0  0  0  0  0  0  0  0  0  0  0
   20.5812   10.5352   55.7740 C   0  0  0  0  0  0  0  0  0  0  0  0
   28.1588    9.6968   55.2622 C   0  0  0  0  0  0  0  0  0  0  0  0
   28.7740    8.3391   55.0734 C   0  0  0  0  0  0  0  0  0  0  0  0
   28.0499    7.6149   54.0014 C   0  0  0  0  0  0  0  0  0  0  0  0
   27.0093    8.2814   53.3190 N   0  0  0  0  0  0  0  0  0  0  0  0
   28.3512    6.4468   53.7105 O   0  0  0  0  0  0  0  0  0  0  0  0
   27.0963    9.2457   52.9156 H   0  0  0  0  0  0  0  0  0  0  0  0
   26.0634    7.8472   53.1689 H   0  0  0  0  0  0  0  0  0  0  0  0
 58 59  1  0  0  0
 59 60  1  0  0  0
 59 57  1  0  0  0
 57 43  1  0  0  0
 43 39  1  0  0  0
 39 40  1  0  0  0
 40 41  2  0  0  0
 40 38  1  0  0  0
 38 61  1  0  0  0
 61 62  1  0  0  0
 62 63  1  0  0  0
 63 64  1  0  0  0
 63 65  2  0  0  0
 38  1  1  0  0  0
  1  2  1  0  0  0
  2  3  2  0  0  0
  2  5  1  0  0  0
  5 35  1  0  0  0
 35 36  1  0  0  0
  5  6  1  0  0  0
  6  7  1  0  0  0
  7  8  2  0  0  0
  7 10  1  0  0  0
 10 32  1  0  0  0
 32 33  1  0  0  0
 10 11  1  0  0  0
 11 12  1  0  0  0
 12 13  2  0  0  0
 12 15  1  0  0  0
 15 29  1  0  0  0
 29 30  1  0  0  0
 15 16  1  0  0  0
 16 17  1  0  0  0
 17 18  2  0  0  0
 17 20  1  0  0  0
 20 26  1  0  0  0
 26 27  1  0  0  0
 20 21  1  0  0  0
 21 22  1  0  0  0
 22 23  1  0  0  0
 22 24  2  0  0  0
 43 44  1  0  0  0
 44 45  2  0  0  0
 44 46  1  0  0  0
 46 48  1  0  0  0
 48 54  1  0  0  0
 54 55  1  0  0  0
 48 49  1  0  0  0
 49 50  1  0  0  0
 49 51  2  0  0  0
 39 42  1  0  0  0
 64 66  1  0  0  0
 64 67  1  0  0  0
  1  4  1  0  0  0
 36 37  1  0  0  0
  6  9  1  0  0  0
 33 34  1  0  0  0
 11 14  1  0  0  0
 30 31  1  0  0  0
 16 19  1  0  0  0
 27 28  1  0  0  0
 21 25  1  0  0  0
 46 47  1  0  0  0
 55 56  1  0  0  0
 50 52  1  0  0  0
 50 53  1  0  0  0
M  END
> <minimizedAffinity>
1.74477

> <CNNscore>
0.4876689613

> <CNNaffinity>
6.5742316246

> <CNN_VS>
3.2060487270

> <CNNaffinity_variance>
0.1890060455

$$$$
[H]c1nc(N([H])c2c([H])c([H])c(N3C([H])([H])C([H])([H])N(C([H])([H])[H])C([H])([H])C3([H])[H])c([H])c2OC([H])([H])[H])nc(N([H])c2c([H])c([H])c([H])c([H])c2S(=O)(=O)C([H])(C([H])([H])[H])C([H])([H])[H])c1Cl


 38 41  0  0  0  0  0  0  0  0999 V2000
   25.0185    7.5463   53.7381 C   0  0  0  0  0  0  0  0  0  0  0  0
   24.7855    6.2657   54.0249 N   0  0  0  0  0  0  0  0  0  0  0  0
   23.6273    5.6383   53.8740 C   0  0  0  0  0  0  0  0  0  0  0  0
   22.5571    6.3500   53.3799 C   0  0  0  0  0  0  0  0  0  0  0  0
   20.9974    5.5829   53.1559 Cl  0  0  0  0  0  0  0  0  0  0  0  0
   22.7174    7.7200   53.0483 C   0  0  0  0  0  0  0  0  0  0  0  0
   23.9265    8.2100   53.2510 N   0  0  0  0  0  0  0  0  0  0  0  0
   26.2401    8.2413   53.8881 N   0  0  0  0  0  0  0  0  0  0  0  0
   26.7906    8.3572   52.9649 H   0  0  0  0  0  0  0  0  0  0  0  0
   28.1726    8.7667   55.2251 C   0  0  0  0  0  0  0  0  0  0  0  0
   28.7301    9.2775   56.3699 C   0  0  0  0  0  0  0  0  0  0  0  0
   28.0046    9.8051   57.3986 C   0  0  0  0  0  0  0  0  0  0  0  0
   26.6317    9.8071   57.2416 C   0  0  0  0  0  0  0  0  0  0  0  0
   26.0511    9.2870   56.0753 C   0  0  0  0  0  0  0  0  0  0  0  0
   26.7752    8.7657   55.0589 C   0  0  0  0  0  0  0  0  0  0  0  0
   28.6220   10.3321   58.5538 N   0  0  0  0  0  0  0  0  0  0  0  0
   28.6603   11.7518   58.8775 C   0  0  0  0  0  0  0  0  0  0  0  0
   28.3022   11.9886   60.3313 C   0  0  0  0  0  0  0  0  0  0  0  0
   28.8177   11.0100   61.2341 N   0  0  0  0  0  0  0  0  0  0  0  0
   30.2037   11.1807   61.5573 C   0  0  0  0  0  0  0  0  0  0  0  0
   28.5031    9.6440   60.8125 C   0  0  0  0  0  0  0  0  0  0  0  0
   29.2835    9.4651   59.4997 C   0  0  0  0  0  0  0  0  0  0  0  0
   28.7934    6.9014   53.8202 C   0  0  0  0  0  0  0  0  0  0  0  0
   28.9743    8.2432   54.2130 O   0  0  0  0  0  0  0  0  0  0  0  0
   21.5974    8.4058   52.5241 N   0  0  0  0  0  0  0  0  0  0  0  0
   20.7547    7.7920   52.3137 H   0  0  0  0  0  0  0  0  0  0  0  0
   21.5359    9.7904   52.3051 C   0  0  0  0  0  0  0  0  0  0  0  0
   21.3969   10.3987   51.0778 C   0  0  0  0  0  0  0  0  0  0  0  0
   21.4055   11.7943   50.9091 C   0  0  0  0  0  0  0  0  0  0  0  0
   21.5626   12.5663   52.0412 C   0  0  0  0  0  0  0  0  0  0  0  0
   21.7029   11.9854   53.2764 C   0  0  0  0  0  0  0  0  0  0  0  0
   21.6927   10.6134   53.4373 C   0  0  0  0  0  0  0  0  0  0  0  0
   21.8200    9.8767   55.0074 S   0  0  0  0  0  0  0  0  0  0  0  0
   23.1367   10.1267   55.6831 O   0  0  0  0  0  0  0  0  0  0  0  0
   20.8052   10.6290   55.8915 O   0  0  0  0  0  0  0  0  0  0  0  0
   21.3035    8.2007   55.0435 C   0  0  0  0  0  0  0  0  0  0  0  0
   19.7698    8.1251   55.0288 C   0  0  0  0  0  0  0  0  0  0  0  0
   21.6991    7.5211   56.3598 C   0  0  0  0  0  0  0  0  0  0  0  0
 23 24  1  0  0  0
 24 10  1  0  0  0
 10 11  2  0  0  0
 11 12  1  0  0  0
 12 13  2  0  0  0
 13 14  1  0  0  0
 14 15  2  0  0  0
 15  8  1  0  0  0
  8  1  1  0  0  0
  1  2  2  0  0  0
  2  3  1  0  0  0
  3  4  2  0  0  0
  4  5  1  0  0  0
  4  6  1  0  0  0
  6 25  1  0  0  0
 25 27  1  0  0  0
 27 28  2  0  0  0
 28 29  1  0  0  0
 29 30  2  0  0  0
 30 31  1  0  0  0
 31 32  2  0  0  0
 32 33  1  0  0  0
 33 34  2  0  0  0
 33 35  2  0  0  0
 33 36  1  0  0  0
 36 37  1  0  0  0
 36 38  1  0  0  0
  6  7  2  0  0  0
 12 16  1  0  0  0
 16 17  1  0  0  0
 17 18  1  0  0  0
 18 19  1  0  0  0
 19 20  1  0  0  0
 19 21  1  0  0  0
 21 22  1  0  0  0
 15 10  1  0  0  0
  7  1  1  0  0  0
 22 16  1  0  0  0
 32 27  1  0  0  0
  8  9  1  0  0  0
 25 26  1  0  0  0
M  END
> <minimizedAffinity>
12.48378

> <CNNscore>
0.6317015886

> <CNNaffinity>
7.1021757126

> <CNN_VS>
4.4864559174

> <CNNaffinity_variance>
0.4002474844

$$$$
[H]c1nc(N([H])c2c([H])c([H])c(N3C([H])([H])C([H])([H])N(C([H])([H])[H])C([H])([H])C3([H])[H])c([H])c2OC([H])([H])[H])nc(N([H])c2c([H])c([H])c([H])c([H])c2S(=O)(=O)C([H])(C([H])([H])[H])C([H])([H])[H])c1Cl


 38 41  0  0  0  0  0  0  0  0999 V2000
   25.3374    7.8646   53.4814 C   0  0  0  0  0  0  0  0  0  0  0  0
   24.8771    6.6383   53.2353 N   0  0  0  0  0  0  0  0  0  0  0  0
   23.6464    6.3390   52.8433 C   0  0  0  0  0  0  0  0  0  0  0  0
   22.7472    7.3670   52.6683 C   0  0  0  0  0  0  0  0  0  0  0  0
   21.1042    7.0424   52.1522 Cl  0  0  0  0  0  0  0  0  0  0  0  0
   23.1541    8.7047   52.9085 C   0  0  0  0  0  0  0  0  0  0  0  0
   24.4085    8.8505   53.2937 N   0  0  0  0  0  0  0  0  0  0  0  0
   26.6416    8.2139   53.8996 N   0  0  0  0  0  0  0  0  0  0  0  0
   27.3861    8.1265   53.1205 H   0  0  0  0  0  0  0  0  0  0  0  0
   28.3978    8.9249   55.3857 C   0  0  0  0  0  0  0  0  0  0  0  0
   28.8193    9.3472   56.6211 C   0  0  0  0  0  0  0  0  0  0  0  0
   27.9880    9.5185   57.6901 C   0  0  0  0  0  0  0  0  0  0  0  0
   26.6514    9.2402   57.4770 C   0  0  0  0  0  0  0  0  0  0  0  0
   26.2096    8.8075   56.2178 C   0  0  0  0  0  0  0  0  0  0  0  0
   27.0381    8.6398   55.1619 C   0  0  0  0  0  0  0  0  0  0  0  0
   28.4641    9.9680   58.9410 N   0  0  0  0  0  0  0  0  0  0  0  0
   28.7443    9.0871   60.0668 C   0  0  0  0  0  0  0  0  0  0  0  0
   30.0778    9.4248   60.7036 C   0  0  0  0  0  0  0  0  0  0  0  0
   30.3653   10.8218   60.7681 N   0  0  0  0  0  0  0  0  0  0  0  0
   29.6940   11.5116   61.8302 C   0  0  0  0  0  0  0  0  0  0  0  0
   30.1979   11.4844   59.4736 C   0  0  0  0  0  0  0  0  0  0  0  0
   28.6919   11.3726   59.1844 C   0  0  0  0  0  0  0  0  0  0  0  0
   30.2124    7.6956   54.3685 C   0  0  0  0  0  0  0  0  0  0  0  0
   29.3022    8.7717   54.3370 O   0  0  0  0  0  0  0  0  0  0  0  0
   22.2039    9.7301   52.6953 N   0  0  0  0  0  0  0  0  0  0  0  0
   22.0167    9.9618   51.6743 H   0  0  0  0  0  0  0  0  0  0  0  0
   21.5101   10.4037   53.7120 C   0  0  0  0  0  0  0  0  0  0  0  0
   21.1869    9.8764   54.9420 C   0  0  0  0  0  0  0  0  0  0  0  0
   20.4330   10.5752   55.9010 C   0  0  0  0  0  0  0  0  0  0  0  0
   20.0097   11.8451   55.5687 C   0  0  0  0  0  0  0  0  0  0  0  0
   20.3183   12.3943   54.3496 C   0  0  0  0  0  0  0  0  0  0  0  0
   21.0604   11.7041   53.4109 C   0  0  0  0  0  0  0  0  0  0  0  0
   21.4950   12.4174   51.8855 S   0  0  0  0  0  0  0  0  0  0  0  0
   22.9714   12.6324   51.7221 O   0  0  0  0  0  0  0  0  0  0  0  0
   21.1608   11.3465   50.8277 O   0  0  0  0  0  0  0  0  0  0  0  0
   20.5167   13.8077   51.4534 C   0  0  0  0  0  0  0  0  0  0  0  0
   21.3837   14.8577   50.7437 C   0  0  0  0  0  0  0  0  0  0  0  0
   19.9942   14.5336   52.6988 C   0  0  0  0  0  0  0  0  0  0  0  0
 23 24  1  0  0  0
 24 10  1  0  0  0
 10 11  2  0  0  0
 11 12  1  0  0  0
 12 13  2  0  0  0
 13 14  1  0  0  0
 14 15  2  0  0  0
 15  8  1  0  0  0
  8  1  1  0  0  0
  1  2  2  0  0  0
  2  3  1  0  0  0
  3  4  2  0  0  0
  4  5  1  0  0  0
  4  6  1  0  0  0
  6 25  1  0  0  0
 25 27  1  0  0  0
 27 28  2  0  0  0
 28 29  1  0  0  0
 29 30  2  0  0  0
 30 31  1  0  0  0
 31 32  2  0  0  0
 32 33  1  0  0  0
 33 34  2  0  0  0
 33 35  2  0  0  0
 33 36  1  0  0  0
 36 37  1  0  0  0
 36 38  1  0  0  0
  6  7  2  0  0  0
 12 16  1  0  0  0
 16 17  1  0  0  0
 17 18  1  0  0  0
 18 19  1  0  0  0
 19 20  1  0  0  0
 19 21  1  0  0  0
 21 22  1  0  0  0
 15 10  1  0  0  0
  7  1  1  0  0  0
 22 16  1  0  0  0
 32 27  1  0  0  0
  8  9  1  0  0  0
 25 26  1  0  0  0
M  END
> <minimizedAffinity>
30.98721

> <CNNscore>
0.6256766915

> <CNNaffinity>
6.8724241257

> <CNN_VS>
4.2999157906

> <CNNaffinity_variance>
0.5566004515

$$$$
[H]c1nc(N([H])c2c([H])c([H])c(N3C([H])([H])C([H])([H])N(C([H])([H])[H])C([H])([H])C3([H])[H])c([H])c2OC([H])([H])[H])nc(N([H])c2c([H])c([H])c([H])c([H])c2S(=O)(=O)C([H])(C([H])([H])[H])C([H])([H])[H])c1Cl


 38 41  0  0  0  0  0  0  0  0999 V2000
   25.2811    7.2725   53.9398 C   0  0  0  0  0  0  0  0  0  0  0  0
   25.2212    6.0218   53.4833 N   0  0  0  0  0  0  0  0  0  0  0  0
   24.1208    5.2902   53.3758 C   0  0  0  0  0  0  0  0  0  0  0  0
   22.9233    5.8488   53.7630 C   0  0  0  0  0  0  0  0  0  0  0  0
   21.4306    4.9377   53.6479 Cl  0  0  0  0  0  0  0  0  0  0  0  0
   22.8961    7.1768   54.2613 C   0  0  0  0  0  0  0  0  0  0  0  0
   24.0680    7.7829   54.3113 N   0  0  0  0  0  0  0  0  0  0  0  0
   26.4372    8.0760   54.0657 N   0  0  0  0  0  0  0  0  0  0  0  0
   26.9849    8.1978   53.1415 H   0  0  0  0  0  0  0  0  0  0  0  0
   28.2883    8.6194   55.5066 C   0  0  0  0  0  0  0  0  0  0  0  0
   28.7882    9.2213   56.6336 C   0  0  0  0  0  0  0  0  0  0  0  0
   28.0245    9.9151   57.5270 C   0  0  0  0  0  0  0  0  0  0  0  0
   26.6737    9.9940   57.2464 C   0  0  0  0  0  0  0  0  0  0  0  0
   26.1519    9.3821   56.0969 C   0  0  0  0  0  0  0  0  0  0  0  0
   26.9138    8.6959   55.2149 C   0  0  0  0  0  0  0  0  0  0  0  0
   28.5843   10.5301   58.6680 N   0  0  0  0  0  0  0  0  0  0  0  0
   28.4448   11.9467   58.9772 C   0  0  0  0  0  0  0  0  0  0  0  0
   28.0783   12.1526   60.4336 C   0  0  0  0  0  0  0  0  0  0  0  0
   28.7264   11.2584   61.3384 N   0  0  0  0  0  0  0  0  0  0  0  0
   30.0833   11.6086   61.6400 C   0  0  0  0  0  0  0  0  0  0  0  0
   28.5838    9.8586   60.9349 C   0  0  0  0  0  0  0  0  0  0  0  0
   29.3635    9.7657   59.6128 C   0  0  0  0  0  0  0  0  0  0  0  0
   30.4581    8.3607   54.4754 C   0  0  0  0  0  0  0  0  0  0  0  0
   29.1267    7.9262   54.6361 O   0  0  0  0  0  0  0  0  0  0  0  0
   21.6415    7.7172   54.6268 N   0  0  0  0  0  0  0  0  0  0  0  0
   20.8586    7.0041   54.7258 H   0  0  0  0  0  0  0  0  0  0  0  0
   21.3970    9.0754   54.8801 C   0  0  0  0  0  0  0  0  0  0  0  0
   21.2092    9.6338   56.1245 C   0  0  0  0  0  0  0  0  0  0  0  0
   20.9032   10.9925   56.3162 C   0  0  0  0  0  0  0  0  0  0  0  0
   20.7910   11.7797   55.1893 C   0  0  0  0  0  0  0  0  0  0  0  0
   20.9736   11.2483   53.9374 C   0  0  0  0  0  0  0  0  0  0  0  0
   21.2752    9.9127   53.7541 C   0  0  0  0  0  0  0  0  0  0  0  0
   21.5564    9.2484   52.1717 S   0  0  0  0  0  0  0  0  0  0  0  0
   21.3643   10.2398   51.0613 O   0  0  0  0  0  0  0  0  0  0  0  0
   23.0653    8.9344   52.1263 O   0  0  0  0  0  0  0  0  0  0  0  0
   20.7608    7.7085   51.9023 C   0  0  0  0  0  0  0  0  0  0  0  0
   20.0625    7.7121   50.5347 C   0  0  0  0  0  0  0  0  0  0  0  0
   19.6215    7.4842   52.9036 C   0  0  0  0  0  0  0  0  0  0  0  0
 23 24  1  0  0  0
 24 10  1  0  0  0
 10 11  2  0  0  0
 11 12  1  0  0  0
 12 13  2  0  0  0
 13 14  1  0  0  0
 14 15  2  0  0  0
 15  8  1  0  0  0
  8  1  1  0  0  0
  1  2  2  0  0  0
  2  3  1  0  0  0
  3  4  2  0  0  0
  4  5  1  0  0  0
  4  6  1  0  0  0
  6 25  1  0  0  0
 25 27  1  0  0  0
 27 28  2  0  0  0
 28 29  1  0  0  0
 29 30  2  0  0  0
 30 31  1  0  0  0
 31 32  2  0  0  0
 32 33  1  0  0  0
 33 34  2  0  0  0
 33 35  2  0  0  0
 33 36  1  0  0  0
 36 37  1  0  0  0
 36 38  1  0  0  0
  6  7  2  0  0  0
 12 16  1  0  0  0
 16 17  1  0  0  0
 17 18  1  0  0  0
 18 19  1  0  0  0
 19 20  1  0  0  0
 19 21  1  0  0  0
 21 22  1  0  0  0
 15 10  1  0  0  0
  7  1  1  0  0  0
 22 16  1  0  0  0
 32 27  1  0  0  0
  8  9  1  0  0  0
 25 26  1  0  0  0
M  END
> <minimizedAffinity>
21.62938

> <CNNscore>
0.5882691145

> <CNNaffinity>
6.8751611710

> <CNN_VS>
4.0444450378

> <CNNaffinity_variance>
0.8549262881

$$$$
[H]c1nc(N([H])c2c([H])c([H])c(N3C([H])([H])C([H])([H])N(C([H])([H])[H])C([H])([H])C3([H])[H])c([H])c2OC([H])([H])[H])nc(N([H])c2c([H])c([H])c([H])c([H])c2S(=O)(=O)C([H])(C([H])([H])[H])C([H])([H])[H])c1Cl


 38 41  0  0  0  0  0  0  0  0999 V2000
   25.9765    7.6735   54.2374 C   0  0  0  0  0  0  0  0  0  0  0  0
   26.0083    6.3411   54.2477 N   0  0  0  0  0  0  0  0  0  0  0  0
   24.9652    5.5418   54.0726 C   0  0  0  0  0  0  0  0  0  0  0  0
   23.7309    6.1138   53.8598 C   0  0  0  0  0  0  0  0  0  0  0  0
   22.3099    5.1162   53.6214 Cl  0  0  0  0  0  0  0  0  0  0  0  0
   23.6066    7.5268   53.8334 C   0  0  0  0  0  0  0  0  0  0  0  0
   24.7302    8.1939   54.0226 N   0  0  0  0  0  0  0  0  0  0  0  0
   27.0698    8.5504   54.4207 N   0  0  0  0  0  0  0  0  0  0  0  0
   27.6107    8.7674   53.5101 H   0  0  0  0  0  0  0  0  0  0  0  0
   28.5846   10.0231   55.5761 C   0  0  0  0  0  0  0  0  0  0  0  0
   29.0271   10.6139   56.7326 C   0  0  0  0  0  0  0  0  0  0  0  0
   28.4691   10.3958   57.9589 C   0  0  0  0  0  0  0  0  0  0  0  0
   27.3986    9.5228   57.9981 C   0  0  0  0  0  0  0  0  0  0  0  0
   26.9382    8.9130   56.8216 C   0  0  0  0  0  0  0  0  0  0  0  0
   27.4950    9.1332   55.6089 C   0  0  0  0  0  0  0  0  0  0  0  0
   28.9495   11.0363   59.1218 N   0  0  0  0  0  0  0  0  0  0  0  0
   28.4245   12.2965   59.6300 C   0  0  0  0  0  0  0  0  0  0  0  0
   28.1922   12.2258   61.1263 C   0  0  0  0  0  0  0  0  0  0  0  0
   29.1863   11.4952   61.8450 N   0  0  0  0  0  0  0  0  0  0  0  0
   30.3985   12.2241   62.0770 C   0  0  0  0  0  0  0  0  0  0  0  0
   29.4281   10.1712   61.2694 C   0  0  0  0  0  0  0  0  0  0  0  0
   30.0328   10.4656   59.8866 C   0  0  0  0  0  0  0  0  0  0  0  0
   30.2353   11.2491   54.3070 C   0  0  0  0  0  0  0  0  0  0  0  0
   29.2018   10.2916   54.3561 O   0  0  0  0  0  0  0  0  0  0  0  0
   22.3240    8.0704   53.5904 N   0  0  0  0  0  0  0  0  0  0  0  0
   21.7765    7.5954   52.8121 H   0  0  0  0  0  0  0  0  0  0  0  0
   21.7552    9.1337   54.3078 C   0  0  0  0  0  0  0  0  0  0  0  0
   21.5467    9.1570   55.6685 C   0  0  0  0  0  0  0  0  0  0  0  0
   20.9128   10.2244   56.3283 C   0  0  0  0  0  0  0  0  0  0  0  0
   20.4895   11.2838   55.5532 C   0  0  0  0  0  0  0  0  0  0  0  0
   20.6851   11.2858   54.1950 C   0  0  0  0  0  0  0  0  0  0  0  0
   21.3096   10.2351   53.5513 C   0  0  0  0  0  0  0  0  0  0  0  0
   21.6032   10.2584   51.8374 S   0  0  0  0  0  0  0  0  0  0  0  0
   22.6133    9.2436   51.3874 O   0  0  0  0  0  0  0  0  0  0  0  0
   20.2873    9.7764   51.1943 O   0  0  0  0  0  0  0  0  0  0  0  0
   21.8663   11.8669   51.1892 C   0  0  0  0  0  0  0  0  0  0  0  0
   21.6881   12.9139   52.2982 C   0  0  0  0  0  0  0  0  0  0  0  0
   20.7982   12.2344   50.1524 C   0  0  0  0  0  0  0  0  0  0  0  0
 23 24  1  0  0  0
 24 10  1  0  0  0
 10 11  2  0  0  0
 11 12  1  0  0  0
 12 13  2  0  0  0
 13 14  1  0  0  0
 14 15  2  0  0  0
 15  8  1  0  0  0
  8  1  1  0  0  0
  1  2  2  0  0  0
  2  3  1  0  0  0
  3  4  2  0  0  0
  4  5  1  0  0  0
  4  6  1  0  0  0
  6 25  1  0  0  0
 25 27  1  0  0  0
 27 28  2  0  0  0
 28 29  1  0  0  0
 29 30  2  0  0  0
 30 31  1  0  0  0
 31 32  2  0  0  0
 32 33  1  0  0  0
 33 34  2  0  0  0
 33 35  2  0  0  0
 33 36  1  0  0  0
 36 37  1  0  0  0
 36 38  1  0  0  0
  6  7  2  0  0  0
 12 16  1  0  0  0
 16 17  1  0  0  0
 17 18  1  0  0  0
 18 19  1  0  0  0
 19 20  1  0  0  0
 19 21  1  0  0  0
 21 22  1  0  0  0
 15 10  1  0  0  0
  7  1  1  0  0  0
 22 16  1  0  0  0
 32 27  1  0  0  0
  8  9  1  0  0  0
 25 26  1  0  0  0
M  END
> <minimizedAffinity>
25.65054

> <CNNscore>
0.5825009346

> <CNNaffinity>
6.8591995239

> <CNN_VS>
3.9954900742

> <CNNaffinity_variance>
0.7454980016

$$$$
[H]c1nc(N([H])c2c([H])c([H])c(N3C([H])([H])C([H])([H])N(C([H])([H])[H])C([H])([H])C3([H])[H])c([H])c2OC([H])([H])[H])nc(N([H])c2c([H])c([H])c([H])c([H])c2S(=O)(=O)C([H])(C([H])([H])[H])C([H])([H])[H])c1Cl


 38 41  0  0  0  0  0  0  0  0999 V2000
   27.7412    8.8459   56.8045 C   0  0  0  0  0  0  0  0  0  0  0  0
   28.5418    9.0584   55.7604 N   0  0  0  0  0  0  0  0  0  0  0  0
   28.1927    8.9564   54.4854 C   0  0  0  0  0  0  0  0  0  0  0  0
   26.8960    8.6014   54.1885 C   0  0  0  0  0  0  0  0  0  0  0  0
   26.3675    8.4478   52.5246 Cl  0  0  0  0  0  0  0  0  0  0  0  0
   25.9762    8.3564   55.2405 C   0  0  0  0  0  0  0  0  0  0  0  0
   26.4650    8.4963   56.4589 N   0  0  0  0  0  0  0  0  0  0  0  0
   28.0843    8.9468   58.1719 N   0  0  0  0  0  0  0  0  0  0  0  0
   28.0009    8.0135   58.7113 H   0  0  0  0  0  0  0  0  0  0  0  0
   28.1843   11.3476   58.3271 C   0  0  0  0  0  0  0  0  0  0  0  0
   28.5810   12.4870   58.9804 C   0  0  0  0  0  0  0  0  0  0  0  0
   29.2852   12.4865   60.1496 C   0  0  0  0  0  0  0  0  0  0  0  0
   29.5984   11.2474   60.6751 C   0  0  0  0  0  0  0  0  0  0  0  0
   29.1980   10.0760   60.0153 C   0  0  0  0  0  0  0  0  0  0  0  0
   28.5000   10.0827   58.8568 C   0  0  0  0  0  0  0  0  0  0  0  0
   29.6616   13.6847   60.7945 N   0  0  0  0  0  0  0  0  0  0  0  0
   30.7181   13.7714   61.7936 C   0  0  0  0  0  0  0  0  0  0  0  0
   31.6286   14.9526   61.5222 C   0  0  0  0  0  0  0  0  0  0  0  0
   30.9564   16.1216   61.0533 N   0  0  0  0  0  0  0  0  0  0  0  0
   30.3009   16.8750   62.0815 C   0  0  0  0  0  0  0  0  0  0  0  0
   30.0783   15.8400   59.9165 C   0  0  0  0  0  0  0  0  0  0  0  0
   28.9873   14.9267   60.4996 C   0  0  0  0  0  0  0  0  0  0  0  0
   26.8522   12.6397   56.7796 C   0  0  0  0  0  0  0  0  0  0  0  0
   27.4664   11.4216   57.1353 O   0  0  0  0  0  0  0  0  0  0  0  0
   24.6496    8.0154   54.8890 N   0  0  0  0  0  0  0  0  0  0  0  0
   24.4844    6.9790   54.7163 H   0  0  0  0  0  0  0  0  0  0  0  0
   23.5875    8.9270   54.7891 C   0  0  0  0  0  0  0  0  0  0  0  0
   23.4556   10.0822   55.5263 C   0  0  0  0  0  0  0  0  0  0  0  0
   22.3367   10.9280   55.4313 C   0  0  0  0  0  0  0  0  0  0  0  0
   21.3396   10.5600   54.5523 C   0  0  0  0  0  0  0  0  0  0  0  0
   21.4463    9.4138   53.8055 C   0  0  0  0  0  0  0  0  0  0  0  0
   22.5483    8.5863   53.9015 C   0  0  0  0  0  0  0  0  0  0  0  0
   22.7082    7.1600   52.9195 S   0  0  0  0  0  0  0  0  0  0  0  0
   22.2848    7.3619   51.4938 O   0  0  0  0  0  0  0  0  0  0  0  0
   24.2256    6.9053   52.8190 O   0  0  0  0  0  0  0  0  0  0  0  0
   22.0504    5.7143   53.6639 C   0  0  0  0  0  0  0  0  0  0  0  0
   20.5162    5.7492   53.6097 C   0  0  0  0  0  0  0  0  0  0  0  0
   22.3708    5.6608   55.1624 C   0  0  0  0  0  0  0  0  0  0  0  0
 23 24  1  0  0  0
 24 10  1  0  0  0
 10 11  2  0  0  0
 11 12  1  0  0  0
 12 13  2  0  0  0
 13 14  1  0  0  0
 14 15  2  0  0  0
 15  8  1  0  0  0
  8  1  1  0  0  0
  1  2  2  0  0  0
  2  3  1  0  0  0
  3  4  2  0  0  0
  4  5  1  0  0  0
  4  6  1  0  0  0
  6 25  1  0  0  0
 25 27  1  0  0  0
 27 28  2  0  0  0
 28 29  1  0  0  0
 29 30  2  0  0  0
 30 31  1  0  0  0
 31 32  2  0  0  0
 32 33  1  0  0  0
 33 34  2  0  0  0
 33 35  2  0  0  0
 33 36  1  0  0  0
 36 37  1  0  0  0
 36 38  1  0  0  0
  6  7  2  0  0  0
 12 16  1  0  0  0
 16 17  1  0  0  0
 17 18  1  0  0  0
 18 19  1  0  0  0
 19 20  1  0  0  0
 19 21  1  0  0  0
 21 22  1  0  0  0
 15 10  1  0  0  0
  7  1  1  0  0  0
 22 16  1  0  0  0
 32 27  1  0  0  0
  8  9  1  0  0  0
 25 26  1  0  0  0
M  END
> <minimizedAffinity>
9.46502

> <CNNscore>
0.5437920094

> <CNNaffinity>
6.9581222534

> <CNN_VS>
3.7837712765

> <CNNaffinity_variance>
0.1355629712

$$$$
[H]c1nc(N([H])c2c([H])c([H])c(N3C([H])([H])C([H])([H])N(C([H])([H])[H])C([H])([H])C3([H])[H])c([H])c2OC([H])([H])[H])nc(N([H])c2c([H])c([H])c([H])c([H])c2S(=O)(=O)C([H])(C([H])([H])[H])C([H])([H])[H])c1Cl


 38 41  0  0  0  0  0  0  0  0999 V2000
   25.5514    7.8419   54.7950 C   0  0  0  0  0  0  0  0  0  0  0  0
   25.4029    6.5199   54.8751 N   0  0  0  0  0  0  0  0  0  0  0  0
   24.2525    5.8653   54.7970 C   0  0  0  0  0  0  0  0  0  0  0  0
   23.0970    6.5922   54.6177 C   0  0  0  0  0  0  0  0  0  0  0  0
   21.5423    5.7908   54.5066 Cl  0  0  0  0  0  0  0  0  0  0  0  0
   23.1641    8.0061   54.5221 C   0  0  0  0  0  0  0  0  0  0  0  0
   24.3768    8.5193   54.6172 N   0  0  0  0  0  0  0  0  0  0  0  0
   26.7623    8.5666   54.8746 N   0  0  0  0  0  0  0  0  0  0  0  0
   27.2798    8.6539   53.9294 H   0  0  0  0  0  0  0  0  0  0  0  0
   28.4651    9.9606   55.8522 C   0  0  0  0  0  0  0  0  0  0  0  0
   29.0422   10.5508   56.9481 C   0  0  0  0  0  0  0  0  0  0  0  0
   28.5755   10.4068   58.2226 C   0  0  0  0  0  0  0  0  0  0  0  0
   27.4552    9.6129   58.3784 C   0  0  0  0  0  0  0  0  0  0  0  0
   26.8575    9.0044   57.2647 C   0  0  0  0  0  0  0  0  0  0  0  0
   27.3242    9.1510   56.0038 C   0  0  0  0  0  0  0  0  0  0  0  0
   29.1941   11.0441   59.3201 N   0  0  0  0  0  0  0  0  0  0  0  0
   28.7376   12.3048   59.8895 C   0  0  0  0  0  0  0  0  0  0  0  0
   28.6868   12.2320   61.4028 C   0  0  0  0  0  0  0  0  0  0  0  0
   29.7581   11.4977   61.9956 N   0  0  0  0  0  0  0  0  0  0  0  0
   30.9914   12.2231   62.0811 C   0  0  0  0  0  0  0  0  0  0  0  0
   29.9252   10.1740   61.3933 C   0  0  0  0  0  0  0  0  0  0  0  0
   30.3600   10.4692   59.9482 C   0  0  0  0  0  0  0  0  0  0  0  0
   29.9877   11.1333   54.3874 C   0  0  0  0  0  0  0  0  0  0  0  0
   28.9947   10.1509   54.5775 O   0  0  0  0  0  0  0  0  0  0  0  0
   21.9550    8.7101   54.3167 N   0  0  0  0  0  0  0  0  0  0  0  0
   21.1277    8.3535   54.8820 H   0  0  0  0  0  0  0  0  0  0  0  0
   21.8067    9.8177   53.4682 C   0  0  0  0  0  0  0  0  0  0  0  0
   22.0471   11.1277   53.8168 C   0  0  0  0  0  0  0  0  0  0  0  0
   21.8202   12.2066   52.9444 C   0  0  0  0  0  0  0  0  0  0  0  0
   21.3337   11.9114   51.6881 C   0  0  0  0  0  0  0  0  0  0  0  0
   21.0859   10.6143   51.3152 C   0  0  0  0  0  0  0  0  0  0  0  0
   21.3114    9.5573   52.1756 C   0  0  0  0  0  0  0  0  0  0  0  0
   21.0455    7.9094   51.6878 S   0  0  0  0  0  0  0  0  0  0  0  0
   20.9479    7.7316   50.2007 O   0  0  0  0  0  0  0  0  0  0  0  0
   22.3410    7.1619   52.0624 O   0  0  0  0  0  0  0  0  0  0  0  0
   19.7755    7.1034   52.5902 C   0  0  0  0  0  0  0  0  0  0  0  0
   19.6096    7.7654   53.9657 C   0  0  0  0  0  0  0  0  0  0  0  0
   20.1537    5.6536   52.9158 C   0  0  0  0  0  0  0  0  0  0  0  0
 23 24  1  0  0  0
 24 10  1  0  0  0
 10 11  2  0  0  0
 11 12  1  0  0  0
 12 13  2  0  0  0
 13 14  1  0  0  0
 14 15  2  0  0  0
 15  8  1  0  0  0
  8  1  1  0  0  0
  1  2  2  0  0  0
  2  3  1  0  0  0
  3  4  2  0  0  0
  4  5  1  0  0  0
  4  6  1  0  0  0
  6 25  1  0  0  0
 25 27  1  0  0  0
 27 28  2  0  0  0
 28 29  1  0  0  0
 29 30  2  0  0  0
 30 31  1  0  0  0
 31 32  2  0  0  0
 32 33  1  0  0  0
 33 34  2  0  0  0
 33 35  2  0  0  0
 33 36  1  0  0  0
 36 37  1  0  0  0
 36 38  1  0  0  0
  6  7  2  0  0  0
 12 16  1  0  0  0
 16 17  1  0  0  0
 17 18  1  0  0  0
 18 19  1  0  0  0
 19 20  1  0  0  0
 19 21  1  0  0  0
 21 22  1  0  0  0
 15 10  1  0  0  0
  7  1  1  0  0  0
 22 16  1  0  0  0
 32 27  1  0  0  0
  8  9  1  0  0  0
 25 26  1  0  0  0
M  END
> <minimizedAffinity>
15.23885

> <CNNscore>
0.5360098481

> <CNNaffinity>
6.9389700890

> <CNN_VS>
3.7193562984

> <CNNaffinity_variance>
0.5038969517

$$$$
[H]c1nc(N([H])c2c([H])c([H])c(N3C([H])([H])C([H])([H])N(C([H])([H])[H])C([H])([H])C3([H])[H])c([H])c2OC([H])([H])[H])nc(N([H])c2c([H])c([H])c([H])c([H])c2S(=O)(=O)C([H])(C([H])([H])[H])C([H])([H])[H])c1Cl


 38 41  0  0  0  0  0  0  0  0999 V2000
   27.6575    8.9313   56.5464 C   0  0  0  0  0  0  0  0  0  0  0  0
   28.5038    9.0658   55.5257 N   0  0  0  0  0  0  0  0  0  0  0  0
   28.2075    8.8816   54.2466 C   0  0  0  0  0  0  0  0  0  0  0  0
   26.9202    8.5194   53.9188 C   0  0  0  0  0  0  0  0  0  0  0  0
   26.4603    8.2593   52.2478 Cl  0  0  0  0  0  0  0  0  0  0  0  0
   25.9541    8.3541   54.9445 C   0  0  0  0  0  0  0  0  0  0  0  0
   26.3929    8.5710   56.1707 N   0  0  0  0  0  0  0  0  0  0  0  0
   27.9439    9.1207   57.9175 N   0  0  0  0  0  0  0  0  0  0  0  0
   27.8436    8.2225   58.5109 H   0  0  0  0  0  0  0  0  0  0  0  0
   29.1869   10.2304   59.6558 C   0  0  0  0  0  0  0  0  0  0  0  0
   29.5807   11.3780   60.2964 C   0  0  0  0  0  0  0  0  0  0  0  0
   29.1853   12.6301   59.9239 C   0  0  0  0  0  0  0  0  0  0  0  0
   28.3389   12.7061   58.8342 C   0  0  0  0  0  0  0  0  0  0  0  0
   27.9298   11.5390   58.1720 C   0  0  0  0  0  0  0  0  0  0  0  0
   28.3253   10.3007   58.5455 C   0  0  0  0  0  0  0  0  0  0  0  0
   29.6264   13.7854   60.6052 N   0  0  0  0  0  0  0  0  0  0  0  0
   30.8738   13.8596   61.3538 C   0  0  0  0  0  0  0  0  0  0  0  0
   31.6290   15.1331   61.0288 C   0  0  0  0  0  0  0  0  0  0  0  0
   30.8011   16.2833   60.8552 N   0  0  0  0  0  0  0  0  0  0  0  0
   30.3510   16.8740   62.0813 C   0  0  0  0  0  0  0  0  0  0  0  0
   29.7076   16.0443   59.9120 C   0  0  0  0  0  0  0  0  0  0  0  0
   28.8314   14.9904   60.6092 C   0  0  0  0  0  0  0  0  0  0  0  0
   30.4484    8.9066   61.2353 C   0  0  0  0  0  0  0  0  0  0  0  0
   29.6300    8.9828   60.0900 O   0  0  0  0  0  0  0  0  0  0  0  0
   24.6394    8.0025   54.5601 N   0  0  0  0  0  0  0  0  0  0  0  0
   24.5531    7.0644   54.0663 H   0  0  0  0  0  0  0  0  0  0  0  0
   23.4969    8.7777   54.8102 C   0  0  0  0  0  0  0  0  0  0  0  0
   23.4678    9.9420   55.5444 C   0  0  0  0  0  0  0  0  0  0  0  0
   22.2819   10.6456   55.8181 C   0  0  0  0  0  0  0  0  0  0  0  0
   21.1078   10.1234   55.3170 C   0  0  0  0  0  0  0  0  0  0  0  0
   21.1090    8.9646   54.5821 C   0  0  0  0  0  0  0  0  0  0  0  0
   22.2771    8.2773   54.3148 C   0  0  0  0  0  0  0  0  0  0  0  0
   22.2869    6.8362   53.3415 S   0  0  0  0  0  0  0  0  0  0  0  0
   23.6320    6.5143   52.7586 O   0  0  0  0  0  0  0  0  0  0  0  0
   22.0281    5.6795   54.3277 O   0  0  0  0  0  0  0  0  0  0  0  0
   20.9685    6.7563   52.1872 C   0  0  0  0  0  0  0  0  0  0  0  0
   20.8714    8.0777   51.4110 C   0  0  0  0  0  0  0  0  0  0  0  0
   19.6127    6.6364   52.8932 C   0  0  0  0  0  0  0  0  0  0  0  0
 23 24  1  0  0  0
 24 10  1  0  0  0
 10 11  2  0  0  0
 11 12  1  0  0  0
 12 13  2  0  0  0
 13 14  1  0  0  0
 14 15  2  0  0  0
 15  8  1  0  0  0
  8  1  1  0  0  0
  1  2  2  0  0  0
  2  3  1  0  0  0
  3  4  2  0  0  0
  4  5  1  0  0  0
  4  6  1  0  0  0
  6 25  1  0  0  0
 25 27  1  0  0  0
 27 28  2  0  0  0
 28 29  1  0  0  0
 29 30  2  0  0  0
 30 31  1  0  0  0
 31 32  2  0  0  0
 32 33  1  0  0  0
 33 34  2  0  0  0
 33 35  2  0  0  0
 33 36  1  0  0  0
 36 37  1  0  0  0
 36 38  1  0  0  0
  6  7  2  0  0  0
 12 16  1  0  0  0
 16 17  1  0  0  0
 17 18  1  0  0  0
 18 19  1  0  0  0
 19 20  1  0  0  0
 19 21  1  0  0  0
 21 22  1  0  0  0
 15 10  1  0  0  0
  7  1  1  0  0  0
 22 16  1  0  0  0
 32 27  1  0  0  0
  8  9  1  0  0  0
 25 26  1  0  0  0
M  END
> <minimizedAffinity>
3.93098

> <CNNscore>
0.4874168634

> <CNNaffinity>
6.8296442032

> <CNN_VS>
3.3288836479

> <CNNaffinity_variance>
0.3716832101

$$$$
[H]c1nc(N([H])c2c([H])c([H])c(N3C([H])([H])C([H])([H])N(C([H])([H])[H])C([H])([H])C3([H])[H])c([H])c2OC([H])([H])[H])nc(N([H])c2c([H])c([H])c([H])c([H])c2S(=O)(=O)C([H])(C([H])([H])[H])C([H])([H])[H])c1Cl


 38 41  0  0  0  0  0  0  0  0999 V2000
   24.9395    7.0429   53.4352 C   0  0  0  0  0  0  0  0  0  0  0  0
   24.8058    5.7185   53.3698 N   0  0  0  0  0  0  0  0  0  0  0  0
   23.6567    5.0571   53.3633 C   0  0  0  0  0  0  0  0  0  0  0  0
   22.4859    5.7789   53.4291 C   0  0  0  0  0  0  0  0  0  0  0  0
   20.9321    4.9684   53.4253 Cl  0  0  0  0  0  0  0  0  0  0  0  0
   22.5367    7.1948   53.5013 C   0  0  0  0  0  0  0  0  0  0  0  0
   23.7502    7.7150   53.4988 N   0  0  0  0  0  0  0  0  0  0  0  0
   26.1487    7.7748   53.4437 N   0  0  0  0  0  0  0  0  0  0  0  0
   26.5913    7.8948   52.4647 H   0  0  0  0  0  0  0  0  0  0  0  0
   26.0288    9.0348   55.4922 C   0  0  0  0  0  0  0  0  0  0  0  0
   26.6359    9.5934   56.5884 C   0  0  0  0  0  0  0  0  0  0  0  0
   27.9754    9.5134   56.8383 C   0  0  0  0  0  0  0  0  0  0  0  0
   28.7311    8.8220   55.9107 C   0  0  0  0  0  0  0  0  0  0  0  0
   28.1205    8.2472   54.7861 C   0  0  0  0  0  0  0  0  0  0  0  0
   26.7924    8.3294   54.5438 C   0  0  0  0  0  0  0  0  0  0  0  0
   28.5559   10.0930   57.9874 N   0  0  0  0  0  0  0  0  0  0  0  0
   28.6969   11.5288   58.1892 C   0  0  0  0  0  0  0  0  0  0  0  0
   28.2619   11.9277   59.5854 C   0  0  0  0  0  0  0  0  0  0  0  0
   28.6258   10.9982   60.6061 N   0  0  0  0  0  0  0  0  0  0  0  0
   29.9959   11.0844   61.0184 C   0  0  0  0  0  0  0  0  0  0  0  0
   28.2218    9.6293   60.2815 C   0  0  0  0  0  0  0  0  0  0  0  0
   29.0717    9.2663   59.0526 C   0  0  0  0  0  0  0  0  0  0  0  0
   23.9041    9.9510   56.1887 C   0  0  0  0  0  0  0  0  0  0  0  0
   24.6541    9.1549   55.2993 O   0  0  0  0  0  0  0  0  0  0  0  0
   21.3095    7.8961   53.5457 N   0  0  0  0  0  0  0  0  0  0  0  0
   20.5409    7.4928   52.9310 H   0  0  0  0  0  0  0  0  0  0  0  0
   21.0595    9.0242   54.3416 C   0  0  0  0  0  0  0  0  0  0  0  0
   20.7458    9.0014   55.6820 C   0  0  0  0  0  0  0  0  0  0  0  0
   20.4413   10.1602   56.4174 C   0  0  0  0  0  0  0  0  0  0  0  0
   20.4645   11.3618   55.7407 C   0  0  0  0  0  0  0  0  0  0  0  0
   20.7742   11.4126   54.4049 C   0  0  0  0  0  0  0  0  0  0  0  0
   21.0738   10.2712   53.6867 C   0  0  0  0  0  0  0  0  0  0  0  0
   21.5155   10.3388   52.0061 S   0  0  0  0  0  0  0  0  0  0  0  0
   22.8734    9.7680   51.7186 O   0  0  0  0  0  0  0  0  0  0  0  0
   20.5514    9.3685   51.2944 O   0  0  0  0  0  0  0  0  0  0  0  0
   21.2232   11.9006   51.2629 C   0  0  0  0  0  0  0  0  0  0  0  0
   22.2544   12.1538   50.1536 C   0  0  0  0  0  0  0  0  0  0  0  0
   21.4537   13.0454   52.2565 C   0  0  0  0  0  0  0  0  0  0  0  0
 23 24  1  0  0  0
 24 10  1  0  0  0
 10 11  2  0  0  0
 11 12  1  0  0  0
 12 13  2  0  0  0
 13 14  1  0  0  0
 14 15  2  0  0  0
 15  8  1  0  0  0
  8  1  1  0  0  0
  1  2  2  0  0  0
  2  3  1  0  0  0
  3  4  2  0  0  0
  4  5  1  0  0  0
  4  6  1  0  0  0
  6 25  1  0  0  0
 25 27  1  0  0  0
 27 28  2  0  0  0
 28 29  1  0  0  0
 29 30  2  0  0  0
 30 31  1  0  0  0
 31 32  2  0  0  0
 32 33  1  0  0  0
 33 34  2  0  0  0
 33 35  2  0  0  0
 33 36  1  0  0  0
 36 37  1  0  0  0
 36 38  1  0  0  0
  6  7  2  0  0  0
 12 16  1  0  0  0
 16 17  1  0  0  0
 17 18  1  0  0  0
 18 19  1  0  0  0
 19 20  1  0  0  0
 19 21  1  0  0  0
 21 22  1  0  0  0
 15 10  1  0  0  0
  7  1  1  0  0  0
 22 16  1  0  0  0
 32 27  1  0  0  0
  8  9  1  0  0  0
 25 26  1  0  0  0
M  END
> <minimizedAffinity>
24.50949

> <CNNscore>
0.4824649990

> <CNNaffinity>
6.6343216896

> <CNN_VS>
3.2008280754

> <CNNaffinity_variance>
0.6966670156

$$$$
[H]c1nc(N([H])c2c([H])c([H])c(N3C([H])([H])C([H])([H])N(C([H])([H])[H])C([H])([H])C3([H])[H])c([H])c2OC([H])([H])[H])nc(N([H])c2c([H])c([H])c([H])c([H])c2S(=O)(=O)C([H])(C([H])([H])[H])C([H])([H])[H])c1Cl


 38 41  0  0  0  0  0  0  0  0999 V2000
   26.2758    7.8957   54.0902 C   0  0  0  0  0  0  0  0  0  0  0  0
   26.0234    6.6015   54.2842 N   0  0  0  0  0  0  0  0  0  0  0  0
   24.8871    5.9836   53.9927 C   0  0  0  0  0  0  0  0  0  0  0  0
   23.8639    6.7214   53.4409 C   0  0  0  0  0  0  0  0  0  0  0  0
   22.3353    5.9682   53.0320 Cl  0  0  0  0  0  0  0  0  0  0  0  0
   24.0477    8.1075   53.2005 C   0  0  0  0  0  0  0  0  0  0  0  0
   25.2305    8.5853   53.5407 N   0  0  0  0  0  0  0  0  0  0  0  0
   27.4750    8.5811   54.3902 N   0  0  0  0  0  0  0  0  0  0  0  0
   28.1847    8.5933   53.5747 H   0  0  0  0  0  0  0  0  0  0  0  0
   28.8595   10.1514   55.5801 C   0  0  0  0  0  0  0  0  0  0  0  0
   29.2145   10.7906   56.7409 C   0  0  0  0  0  0  0  0  0  0  0  0
   28.6048   10.5767   57.9432 C   0  0  0  0  0  0  0  0  0  0  0  0
   27.5747    9.6557   57.9521 C   0  0  0  0  0  0  0  0  0  0  0  0
   27.2037    8.9961   56.7709 C   0  0  0  0  0  0  0  0  0  0  0  0
   27.8115    9.2123   55.5821 C   0  0  0  0  0  0  0  0  0  0  0  0
   28.9951   11.2675   59.1110 N   0  0  0  0  0  0  0  0  0  0  0  0
   28.3080   12.4444   59.6257 C   0  0  0  0  0  0  0  0  0  0  0  0
   28.0849   12.3342   61.1210 C   0  0  0  0  0  0  0  0  0  0  0  0
   29.1655   11.7364   61.8374 N   0  0  0  0  0  0  0  0  0  0  0  0
   30.2708   12.6170   62.0766 C   0  0  0  0  0  0  0  0  0  0  0  0
   29.5803   10.4594   61.2544 C   0  0  0  0  0  0  0  0  0  0  0  0
   30.1430   10.8395   59.8748 C   0  0  0  0  0  0  0  0  0  0  0  0
   30.3365   11.5682   54.2956 C   0  0  0  0  0  0  0  0  0  0  0  0
   29.5257   10.4185   54.3858 O   0  0  0  0  0  0  0  0  0  0  0  0
   22.9778    8.8212   52.6127 N   0  0  0  0  0  0  0  0  0  0  0  0
   23.1895    9.8383   52.3852 H   0  0  0  0  0  0  0  0  0  0  0  0
   21.7230    8.2741   52.3044 C   0  0  0  0  0  0  0  0  0  0  0  0
   21.3191    7.8578   51.0558 C   0  0  0  0  0  0  0  0  0  0  0  0
   20.0254    7.3757   50.7903 C   0  0  0  0  0  0  0  0  0  0  0  0
   19.1398    7.3288   51.8466 C   0  0  0  0  0  0  0  0  0  0  0  0
   19.5169    7.7374   53.1011 C   0  0  0  0  0  0  0  0  0  0  0  0
   20.7897    8.2094   53.3574 C   0  0  0  0  0  0  0  0  0  0  0  0
   21.2847    8.6804   54.9565 S   0  0  0  0  0  0  0  0  0  0  0  0
   20.1402    8.8624   55.9103 O   0  0  0  0  0  0  0  0  0  0  0  0
   22.0428    7.4623   55.5213 O   0  0  0  0  0  0  0  0  0  0  0  0
   22.4488    9.9925   54.9762 C   0  0  0  0  0  0  0  0  0  0  0  0
   22.9419   10.2336   56.4103 C   0  0  0  0  0  0  0  0  0  0  0  0
   21.8000   11.3226   54.5749 C   0  0  0  0  0  0  0  0  0  0  0  0
 23 24  1  0  0  0
 24 10  1  0  0  0
 10 11  2  0  0  0
 11 12  1  0  0  0
 12 13  2  0  0  0
 13 14  1  0  0  0
 14 15  2  0  0  0
 15  8  1  0  0  0
  8  1  1  0  0  0
  1  2  2  0  0  0
  2  3  1  0  0  0
  3  4  2  0  0  0
  4  5  1  0  0  0
  4  6  1  0  0  0
  6 25  1  0  0  0
 25 27  1  0  0  0
 27 28  2  0  0  0
 28 29  1  0  0  0
 29 30  2  0  0  0
 30 31  1  0  0  0
 31 32  2  0  0  0
 32 33  1  0  0  0
 33 34  2  0  0  0
 33 35  2  0  0  0
 33 36  1  0  0  0
 36 37  1  0  0  0
 36 38  1  0  0  0
  6  7  2  0  0  0
 12 16  1  0  0  0
 16 17  1  0  0  0
 17 18  1  0  0  0
 18 19  1  0  0  0
 19 20  1  0  0  0
 19 21  1  0  0  0
 21 22  1  0  0  0
 15 10  1  0  0  0
  7  1  1  0  0  0
 22 16  1  0  0  0
 32 27  1  0  0  0
  8  9  1  0  0  0
 25 26  1  0  0  0
M  END
> <minimizedAffinity>
19.13518

> <CNNscore>
0.4516185522

> <CNNaffinity>
6.9205865860

> <CNN_VS>
3.1254653931

> <CNNaffinity_variance>
0.4511645734

$$$$
[H]OC(=O)C([H])([H])[C@@]([H])(C([H])=O)N([H])C(=O)[C@@]([H])(C([H])([H])C(=O)N([H])C([H])([H])C([H])([H])c1c([H])c([H])c([H])c([H])c1[H])C([H])(C([H])([H])[H])C([H])([H])[H]


 29 29  0  0  0  0  0  0  0  0999 V2000
   22.3937    7.2049   53.0727 C   0  0  0  0  0  0  0  0  0  0  0  0
   21.9978    8.4891   53.7037 C   0  0  0  0  0  0  0  0  0  0  0  0
   21.0218    8.5044   54.5473 O   0  0  0  0  0  0  0  0  0  0  0  0
   22.5987    9.7318   53.4731 N   0  0  0  0  0  0  0  0  0  0  0  0
   23.3749    9.8950   52.8106 H   0  0  0  0  0  0  0  0  0  0  0  0
   22.1417   10.9482   54.1660 C   0  0  0  0  0  0  0  0  0  0  0  0
   21.5536   10.5263   55.4508 C   0  0  0  0  0  0  0  0  0  0  0  0
   22.3020   10.1072   56.3444 O   0  0  0  0  0  0  0  0  0  0  0  0
   21.0796   11.6267   53.3079 C   0  0  0  0  0  0  0  0  0  0  0  0
   21.4305   11.5261   51.8855 C   0  0  0  0  0  0  0  0  0  0  0  0
   21.2840   10.3439   51.1917 O   0  0  0  0  0  0  0  0  0  0  0  0
   21.8783   12.5526   51.2776 O   0  0  0  0  0  0  0  0  0  0  0  0
   20.5494   10.1304   50.5444 H   0  0  0  0  0  0  0  0  0  0  0  0
   20.4503    5.6728   53.5332 C   0  0  0  0  0  0  0  0  0  0  0  0
   21.1510    6.5675   52.5324 C   0  0  0  0  0  0  0  0  0  0  0  0
   20.1073    7.5248   52.0245 C   0  0  0  0  0  0  0  0  0  0  0  0
   23.2310    6.3373   53.9151 C   0  0  0  0  0  0  0  0  0  0  0  0
   24.7075    6.6412   53.8151 C   0  0  0  0  0  0  0  0  0  0  0  0
   25.3460    6.1260   52.8846 O   0  0  0  0  0  0  0  0  0  0  0  0
   25.2801    7.4722   54.7657 N   0  0  0  0  0  0  0  0  0  0  0  0
   24.5319    7.8244   55.5073 H   0  0  0  0  0  0  0  0  0  0  0  0
   26.5551    7.9712   55.0109 C   0  0  0  0  0  0  0  0  0  0  0  0
   26.7219    9.3373   55.5052 C   0  0  0  0  0  0  0  0  0  0  0  0
   27.3998    9.6060   56.7543 C   0  0  0  0  0  0  0  0  0  0  0  0
   27.8359   10.9087   57.0356 C   0  0  0  0  0  0  0  0  0  0  0  0
   28.5545   11.1635   58.1657 C   0  0  0  0  0  0  0  0  0  0  0  0
   28.8860   10.1703   59.0783 C   0  0  0  0  0  0  0  0  0  0  0  0
   28.4636    8.8909   58.8125 C   0  0  0  0  0  0  0  0  0  0  0  0
   27.7380    8.6114   57.6796 C   0  0  0  0  0  0  0  0  0  0  0  0
 14 15  1  0  0  0
 15 16  1  0  0  0
 15  1  1  0  0  0
  1 17  1  0  0  0
 17 18  1  0  0  0
 18 19  2  0  0  0
 18 20  1  0  0  0
 20 22  1  0  0  0
 22 23  1  0  0  0
 23 24  1  0  0  0
 24 25  2  0  0  0
 25 26  1  0  0  0
 26 27  2  0  0  0
 27 28  1  0  0  0
 28 29  2  0  0  0
  1  2  1  0  0  0
  2  3  2  0  0  0
  2  4  1  0  0  0
  4  6  1  0  0  0
  6  9  1  0  0  0
  9 10  1  0  0  0
 10 11  1  0  0  0
 10 12  2  0  0  0
  6  7  1  0  0  0
  7  8  2  0  0  0
 29 24  1  0  0  0
 20 21  1  0  0  0
  4  5  1  0  0  0
 11 13  1  0  0  0
M  END
> <minimizedAffinity>
7.36098

> <CNNscore>
0.6580029726

> <CNNaffinity>
5.8882627487

> <CNN_VS>
3.8744943142

> <CNNaffinity_variance>
0.5886692405

$$$$
[H]OC(=O)C([H])([H])[C@@]([H])(C([H])=O)N([H])C(=O)[C@@]([H])(C([H])([H])C(=O)N([H])C([H])([H])C([H])([H])c1c([H])c([H])c([H])c([H])c1[H])C([H])(C([H])([H])[H])C([H])([H])[H]


 29 29  0  0  0  0  0  0  0  0999 V2000
   24.0863    7.4482   54.8496 C   0  0  0  0  0  0  0  0  0  0  0  0
   23.0142    8.3459   54.3510 C   0  0  0  0  0  0  0  0  0  0  0  0
   22.6007    9.3125   55.0987 O   0  0  0  0  0  0  0  0  0  0  0  0
   22.3839    8.2518   53.1050 N   0  0  0  0  0  0  0  0  0  0  0  0
   22.5816    7.5220   52.4004 H   0  0  0  0  0  0  0  0  0  0  0  0
   21.3402    9.2068   52.6963 C   0  0  0  0  0  0  0  0  0  0  0  0
   20.3586    8.4632   51.8851 C   0  0  0  0  0  0  0  0  0  0  0  0
   20.7674    7.7027   50.9969 O   0  0  0  0  0  0  0  0  0  0  0  0
   21.9856   10.3015   51.8537 C   0  0  0  0  0  0  0  0  0  0  0  0
   21.6904   11.6238   52.4203 C   0  0  0  0  0  0  0  0  0  0  0  0
   21.4181   11.7855   53.7620 O   0  0  0  0  0  0  0  0  0  0  0  0
   21.6869   12.6446   51.6575 O   0  0  0  0  0  0  0  0  0  0  0  0
   22.0500   12.1498   54.4493 H   0  0  0  0  0  0  0  0  0  0  0  0
   25.1396    8.5970   52.8730 C   0  0  0  0  0  0  0  0  0  0  0  0
   25.3597    7.8481   54.1706 C   0  0  0  0  0  0  0  0  0  0  0  0
   26.2857    8.7015   54.9942 C   0  0  0  0  0  0  0  0  0  0  0  0
   23.7653    6.0140   54.7911 C   0  0  0  0  0  0  0  0  0  0  0  0
   22.7574    5.6638   53.7217 C   0  0  0  0  0  0  0  0  0  0  0  0
   23.1734    5.4803   52.5674 O   0  0  0  0  0  0  0  0  0  0  0  0
   21.4201    5.5698   54.0750 N   0  0  0  0  0  0  0  0  0  0  0  0
   21.2662    5.7700   55.1566 H   0  0  0  0  0  0  0  0  0  0  0  0
   20.2336    5.2833   53.4080 C   0  0  0  0  0  0  0  0  0  0  0  0
   19.7045    3.9200   53.4119 C   0  0  0  0  0  0  0  0  0  0  0  0
   18.2900    3.6644   53.5723 C   0  0  0  0  0  0  0  0  0  0  0  0
   17.6757    2.6740   52.7924 C   0  0  0  0  0  0  0  0  0  0  0  0
   16.3283    2.4801   52.8649 C   0  0  0  0  0  0  0  0  0  0  0  0
   15.5099    3.2350   53.6953 C   0  0  0  0  0  0  0  0  0  0  0  0
   16.1014    4.2076   54.4636 C   0  0  0  0  0  0  0  0  0  0  0  0
   17.4577    4.4202   54.4066 C   0  0  0  0  0  0  0  0  0  0  0  0
 14 15  1  0  0  0
 15 16  1  0  0  0
 15  1  1  0  0  0
  1 17  1  0  0  0
 17 18  1  0  0  0
 18 19  2  0  0  0
 18 20  1  0  0  0
 20 22  1  0  0  0
 22 23  1  0  0  0
 23 24  1  0  0  0
 24 25  2  0  0  0
 25 26  1  0  0  0
 26 27  2  0  0  0
 27 28  1  0  0  0
 28 29  2  0  0  0
  1  2  1  0  0  0
  2  3  2  0  0  0
  2  4  1  0  0  0
  4  6  1  0  0  0
  6  9  1  0  0  0
  9 10  1  0  0  0
 10 11  1  0  0  0
 10 12  2  0  0  0
  6  7  1  0  0  0
  7  8  2  0  0  0
 29 24  1  0  0  0
 20 21  1  0  0  0
  4  5  1  0  0  0
 11 13  1  0  0  0
M  END
> <minimizedAffinity>
10.06479

> <CNNscore>
0.6343805790

> <CNNaffinity>
6.4758443832

> <CNN_VS>
4.1081500053

> <CNNaffinity_variance>
0.4860306382

$$$$
[H]OC(=O)C([H])([H])[C@@]([H])(C([H])=O)N([H])C(=O)[C@@]([H])(C([H])([H])C(=O)N([H])C([H])([H])C([H])([H])c1c([H])c([H])c([H])c([H])c1[H])C([H])(C([H])([H])[H])C([H])([H])[H]


 29 29  0  0  0  0  0  0  0  0999 V2000
   21.3027    6.8863   53.5193 C   0  0  0  0  0  0  0  0  0  0  0  0
   21.4333    8.2853   53.9988 C   0  0  0  0  0  0  0  0  0  0  0  0
   20.6058    8.7302   54.8828 O   0  0  0  0  0  0  0  0  0  0  0  0
   22.4002    9.2057   53.5786 N   0  0  0  0  0  0  0  0  0  0  0  0
   23.1194    9.0157   52.8612 H   0  0  0  0  0  0  0  0  0  0  0  0
   22.4562   10.5695   54.1313 C   0  0  0  0  0  0  0  0  0  0  0  0
   22.1741   10.4695   55.5752 C   0  0  0  0  0  0  0  0  0  0  0  0
   23.0045    9.9202   56.3121 O   0  0  0  0  0  0  0  0  0  0  0  0
   21.3844   11.4142   53.4513 C   0  0  0  0  0  0  0  0  0  0  0  0
   21.4869   11.2920   51.9914 C   0  0  0  0  0  0  0  0  0  0  0  0
   21.8803   12.3558   51.2078 O   0  0  0  0  0  0  0  0  0  0  0  0
   21.2085   10.1796   51.4356 O   0  0  0  0  0  0  0  0  0  0  0  0
   22.7843   12.4761   50.7924 H   0  0  0  0  0  0  0  0  0  0  0  0
   19.5684    7.2755   51.7370 C   0  0  0  0  0  0  0  0  0  0  0  0
   19.8800    6.6867   53.0968 C   0  0  0  0  0  0  0  0  0  0  0  0
   19.4197    5.2550   53.0482 C   0  0  0  0  0  0  0  0  0  0  0  0
   21.8352    5.8683   54.4378 C   0  0  0  0  0  0  0  0  0  0  0  0
   23.3384    5.9122   54.5822 C   0  0  0  0  0  0  0  0  0  0  0  0
   23.8380    5.4390   55.6143 O   0  0  0  0  0  0  0  0  0  0  0  0
   24.0868    6.4816   53.5635 N   0  0  0  0  0  0  0  0  0  0  0  0
   23.4431    6.8415   52.7330 H   0  0  0  0  0  0  0  0  0  0  0  0
   25.4396    6.7057   53.3300 C   0  0  0  0  0  0  0  0  0  0  0  0
   25.9785    8.0630   53.4050 C   0  0  0  0  0  0  0  0  0  0  0  0
   26.7801    8.4912   54.5303 C   0  0  0  0  0  0  0  0  0  0  0  0
   26.1506    8.8226   55.7387 C   0  0  0  0  0  0  0  0  0  0  0  0
   26.8796    9.3131   56.7810 C   0  0  0  0  0  0  0  0  0  0  0  0
   28.2529    9.5066   56.7048 C   0  0  0  0  0  0  0  0  0  0  0  0
   28.8794    9.1849   55.5258 C   0  0  0  0  0  0  0  0  0  0  0  0
   28.1644    8.6891   54.4624 C   0  0  0  0  0  0  0  0  0  0  0  0
 14 15  1  0  0  0
 15 16  1  0  0  0
 15  1  1  0  0  0
  1 17  1  0  0  0
 17 18  1  0  0  0
 18 19  2  0  0  0
 18 20  1  0  0  0
 20 22  1  0  0  0
 22 23  1  0  0  0
 23 24  1  0  0  0
 24 25  2  0  0  0
 25 26  1  0  0  0
 26 27  2  0  0  0
 27 28  1  0  0  0
 28 29  2  0  0  0
  1  2  1  0  0  0
  2  3  2  0  0  0
  2  4  1  0  0  0
  4  6  1  0  0  0
  6  9  1  0  0  0
  9 10  1  0  0  0
 10 11  1  0  0  0
 10 12  2  0  0  0
  6  7  1  0  0  0
  7  8  2  0  0  0
 29 24  1  0  0  0
 20 21  1  0  0  0
  4  5  1  0  0  0
 11 13  1  0  0  0
M  END
> <minimizedAffinity>
6.26993

> <CNNscore>
0.6296629310

> <CNNaffinity>
6.2057251930

> <CNN_VS>
3.9075150490

> <CNNaffinity_variance>
0.4254997671

$$$$
[H]OC(=O)C([H])([H])[C@@]([H])(C([H])=O)N([H])C(=O)[C@@]([H])(C([H])([H])C(=O)N([H])C([H])([H])C([H])([H])c1c([H])c([H])c([H])c([H])c1[H])C([H])(C([H])([H])[H])C([H])([H])[H]


 29 29  0  0  0  0  0  0  0  0999 V2000
   21.9125    6.7680   53.1190 C   0  0  0  0  0  0  0  0  0  0  0  0
   21.9091    8.2426   52.9470 C   0  0  0  0  0  0  0  0  0  0  0  0
   22.9060    8.8125   52.3589 O   0  0  0  0  0  0  0  0  0  0  0  0
   20.8966    9.1118   53.3687 N   0  0  0  0  0  0  0  0  0  0  0  0
   20.0444    8.8192   53.8749 H   0  0  0  0  0  0  0  0  0  0  0  0
   20.9803   10.5630   53.1330 C   0  0  0  0  0  0  0  0  0  0  0  0
   21.5642   10.7568   51.7929 C   0  0  0  0  0  0  0  0  0  0  0  0
   21.6297   11.9025   51.3268 O   0  0  0  0  0  0  0  0  0  0  0  0
   21.8934   11.1754   54.1895 C   0  0  0  0  0  0  0  0  0  0  0  0
   21.9283   10.3280   55.3884 C   0  0  0  0  0  0  0  0  0  0  0  0
   23.1190    9.8613   55.9032 O   0  0  0  0  0  0  0  0  0  0  0  0
   20.8363   10.0178   55.9673 O   0  0  0  0  0  0  0  0  0  0  0  0
   23.5885   10.2190   56.7132 H   0  0  0  0  0  0  0  0  0  0  0  0
   19.4395    7.1065   52.7930 C   0  0  0  0  0  0  0  0  0  0  0  0
   20.5315    6.3601   53.5302 C   0  0  0  0  0  0  0  0  0  0  0  0
   20.2199    4.8969   53.3695 C   0  0  0  0  0  0  0  0  0  0  0  0
   22.9996    6.2490   53.9629 C   0  0  0  0  0  0  0  0  0  0  0  0
   24.3720    6.4267   53.3569 C   0  0  0  0  0  0  0  0  0  0  0  0
   24.9363    5.4252   52.8904 O   0  0  0  0  0  0  0  0  0  0  0  0
   24.9382    7.6921   53.3550 N   0  0  0  0  0  0  0  0  0  0  0  0
   24.2651    8.4438   53.8194 H   0  0  0  0  0  0  0  0  0  0  0  0
   26.1351    8.2448   52.9114 C   0  0  0  0  0  0  0  0  0  0  0  0
   27.3475    8.1032   53.7166 C   0  0  0  0  0  0  0  0  0  0  0  0
   27.4459    8.6904   55.0347 C   0  0  0  0  0  0  0  0  0  0  0  0
   28.7061    8.8353   55.6325 C   0  0  0  0  0  0  0  0  0  0  0  0
   28.8113    9.3033   56.9086 C   0  0  0  0  0  0  0  0  0  0  0  0
   27.7025    9.6538   57.6681 C   0  0  0  0  0  0  0  0  0  0  0  0
   26.4634    9.5161   57.0920 C   0  0  0  0  0  0  0  0  0  0  0  0
   26.3339    9.0464   55.8072 C   0  0  0  0  0  0  0  0  0  0  0  0
 14 15  1  0  0  0
 15 16  1  0  0  0
 15  1  1  0  0  0
  1 17  1  0  0  0
 17 18  1  0  0  0
 18 19  2  0  0  0
 18 20  1  0  0  0
 20 22  1  0  0  0
 22 23  1  0  0  0
 23 24  1  0  0  0
 24 25  2  0  0  0
 25 26  1  0  0  0
 26 27  2  0  0  0
 27 28  1  0  0  0
 28 29  2  0  0  0
  1  2  1  0  0  0
  2  3  2  0  0  0
  2  4  1  0  0  0
  4  6  1  0  0  0
  6  9  1  0  0  0
  9 10  1  0  0  0
 10 11  1  0  0  0
 10 12  2  0  0  0
  6  7  1  0  0  0
  7  8  2  0  0  0
 29 24  1  0  0  0
 20 21  1  0  0  0
  4  5  1  0  0  0
 11 13  1  0  0  0
M  END
> <minimizedAffinity>
7.46465

> <CNNscore>
0.6004274487

> <CNNaffinity>
6.1128187180

> <CNN_VS>
3.6703040600

> <CNNaffinity_variance>
0.4779539704

$$$$
[H]OC(=O)C([H])([H])[C@@]([H])(C([H])=O)N([H])C(=O)[C@@]([H])(C([H])([H])C(=O)N([H])C([H])([H])C([H])([H])c1c([H])c([H])c([H])c([H])c1[H])C([H])(C([H])([H])[H])C([H])([H])[H]


 29 29  0  0  0  0  0  0  0  0999 V2000
   21.1231   10.2853   53.1720 C   0  0  0  0  0  0  0  0  0  0  0  0
   21.1601    8.8585   52.7635 C   0  0  0  0  0  0  0  0  0  0  0  0
   21.5707    8.5506   51.5799 O   0  0  0  0  0  0  0  0  0  0  0  0
   20.7856    7.7708   53.5604 N   0  0  0  0  0  0  0  0  0  0  0  0
   20.4135    7.8474   54.5215 H   0  0  0  0  0  0  0  0  0  0  0  0
   20.8771    6.3867   53.0660 C   0  0  0  0  0  0  0  0  0  0  0  0
   19.7872    5.6217   53.6995 C   0  0  0  0  0  0  0  0  0  0  0  0
   19.5743    4.4598   53.3267 O   0  0  0  0  0  0  0  0  0  0  0  0
   22.2255    5.8097   53.4826 C   0  0  0  0  0  0  0  0  0  0  0  0
   22.4498    6.0198   54.9186 C   0  0  0  0  0  0  0  0  0  0  0  0
   21.6226    6.8334   55.6630 O   0  0  0  0  0  0  0  0  0  0  0  0
   23.4283    5.4373   55.4907 O   0  0  0  0  0  0  0  0  0  0  0  0
   20.9101    6.5240   56.2963 H   0  0  0  0  0  0  0  0  0  0  0  0
   20.8249   11.0363   50.7881 C   0  0  0  0  0  0  0  0  0  0  0  0
   21.6770   11.0922   52.0386 C   0  0  0  0  0  0  0  0  0  0  0  0
   21.8909   12.5519   52.3342 C   0  0  0  0  0  0  0  0  0  0  0  0
   21.7132   10.5639   54.4903 C   0  0  0  0  0  0  0  0  0  0  0  0
   22.7826    9.5763   54.8942 C   0  0  0  0  0  0  0  0  0  0  0  0
   23.0653    9.4847   56.0987 O   0  0  0  0  0  0  0  0  0  0  0  0
   23.4006    8.8257   53.9060 N   0  0  0  0  0  0  0  0  0  0  0  0
   22.9979    9.0626   52.8983 H   0  0  0  0  0  0  0  0  0  0  0  0
   24.3931    7.8517   53.8720 C   0  0  0  0  0  0  0  0  0  0  0  0
   25.7615    8.2159   53.5071 C   0  0  0  0  0  0  0  0  0  0  0  0
   26.7447    8.5456   54.5154 C   0  0  0  0  0  0  0  0  0  0  0  0
   26.3177    8.9570   55.7861 C   0  0  0  0  0  0  0  0  0  0  0  0
   27.2266    9.3571   56.7200 C   0  0  0  0  0  0  0  0  0  0  0  0
   28.5927    9.3787   56.4697 C   0  0  0  0  0  0  0  0  0  0  0  0
   29.0216    8.9775   55.2283 C   0  0  0  0  0  0  0  0  0  0  0  0
   28.1231    8.5701   54.2719 C   0  0  0  0  0  0  0  0  0  0  0  0
 14 15  1  0  0  0
 15 16  1  0  0  0
 15  1  1  0  0  0
  1 17  1  0  0  0
 17 18  1  0  0  0
 18 19  2  0  0  0
 18 20  1  0  0  0
 20 22  1  0  0  0
 22 23  1  0  0  0
 23 24  1  0  0  0
 24 25  2  0  0  0
 25 26  1  0  0  0
 26 27  2  0  0  0
 27 28  1  0  0  0
 28 29  2  0  0  0
  1  2  1  0  0  0
  2  3  2  0  0  0
  2  4  1  0  0  0
  4  6  1  0  0  0
  6  9  1  0  0  0
  9 10  1  0  0  0
 10 11  1  0  0  0
 10 12  2  0  0  0
  6  7  1  0  0  0
  7  8  2  0  0  0
 29 24  1  0  0  0
 20 21  1  0  0  0
  4  5  1  0  0  0
 11 13  1  0  0  0
M  END
> <minimizedAffinity>
3.12169

> <CNNscore>
0.5305039883

> <CNNaffinity>
6.4276986122

> <CNN_VS>
3.4099197388

> <CNNaffinity_variance>
0.3394799829

$$$$
[H]OC(=O)C([H])([H])[C@@]([H])(C([H])=O)N([H])C(=O)[C@@]([H])(C([H])([H])C(=O)N([H])C([H])([H])C([H])([H])c1c([H])c([H])c([H])c([H])c1[H])C([H])(C([H])([H])[H])C([H])([H])[H]


 29 29  0  0  0  0  0  0  0  0999 V2000
   23.6391    6.3295   54.1244 C   0  0  0  0  0  0  0  0  0  0  0  0
   24.5882    7.4694   54.1868 C   0  0  0  0  0  0  0  0  0  0  0  0
   24.1274    8.6713   54.2732 O   0  0  0  0  0  0  0  0  0  0  0  0
   25.9841    7.3722   54.1648 N   0  0  0  0  0  0  0  0  0  0  0  0
   26.5099    6.4870   54.0751 H   0  0  0  0  0  0  0  0  0  0  0  0
   26.8404    8.5671   54.2506 C   0  0  0  0  0  0  0  0  0  0  0  0
   27.6423    8.6217   53.0143 C   0  0  0  0  0  0  0  0  0  0  0  0
   27.0991    8.9861   51.9624 O   0  0  0  0  0  0  0  0  0  0  0  0
   27.7595    8.4212   55.4583 C   0  0  0  0  0  0  0  0  0  0  0  0
   27.3151    9.2995   56.5482 C   0  0  0  0  0  0  0  0  0  0  0  0
   26.0003    9.6995   56.6571 O   0  0  0  0  0  0  0  0  0  0  0  0
   28.1607    9.6999   57.4133 O   0  0  0  0  0  0  0  0  0  0  0  0
   25.3277    9.3352   57.3045 H   0  0  0  0  0  0  0  0  0  0  0  0
   22.9999    6.7417   51.7249 C   0  0  0  0  0  0  0  0  0  0  0  0
   22.5481    6.7044   53.1697 C   0  0  0  0  0  0  0  0  0  0  0  0
   21.3320    5.8190   53.2050 C   0  0  0  0  0  0  0  0  0  0  0  0
   23.1873    5.8321   55.4328 C   0  0  0  0  0  0  0  0  0  0  0  0
   22.1224    6.6927   56.0712 C   0  0  0  0  0  0  0  0  0  0  0  0
   21.5438    6.2527   57.0765 O   0  0  0  0  0  0  0  0  0  0  0  0
   21.8371    7.9254   55.5046 N   0  0  0  0  0  0  0  0  0  0  0  0
   22.4700    8.1241   54.6137 H   0  0  0  0  0  0  0  0  0  0  0  0
   20.9591    8.9679   55.7827 C   0  0  0  0  0  0  0  0  0  0  0  0
   21.2255   10.3065   55.2579 C   0  0  0  0  0  0  0  0  0  0  0  0
   21.3614   10.5424   53.8373 C   0  0  0  0  0  0  0  0  0  0  0  0
   21.6097   11.8429   53.3752 C   0  0  0  0  0  0  0  0  0  0  0  0
   21.6519   12.0999   52.0371 C   0  0  0  0  0  0  0  0  0  0  0  0
   21.4559   11.1113   51.0813 C   0  0  0  0  0  0  0  0  0  0  0  0
   21.2123    9.8341   51.5232 C   0  0  0  0  0  0  0  0  0  0  0  0
   21.1655    9.5523   52.8672 C   0  0  0  0  0  0  0  0  0  0  0  0
 14 15  1  0  0  0
 15 16  1  0  0  0
 15  1  1  0  0  0
  1 17  1  0  0  0
 17 18  1  0  0  0
 18 19  2  0  0  0
 18 20  1  0  0  0
 20 22  1  0  0  0
 22 23  1  0  0  0
 23 24  1  0  0  0
 24 25  2  0  0  0
 25 26  1  0  0  0
 26 27  2  0  0  0
 27 28  1  0  0  0
 28 29  2  0  0  0
  1  2  1  0  0  0
  2  3  2  0  0  0
  2  4  1  0  0  0
  4  6  1  0  0  0
  6  9  1  0  0  0
  9 10  1  0  0  0
 10 11  1  0  0  0
 10 12  2  0  0  0
  6  7  1  0  0  0
  7  8  2  0  0  0
 29 24  1  0  0  0
 20 21  1  0  0  0
  4  5  1  0  0  0
 11 13  1  0  0  0
M  END
> <minimizedAffinity>
5.48744

> <CNNscore>
0.5228239298

> <CNNaffinity>
5.8568916321

> <CNN_VS>
3.0621230602

> <CNNaffinity_variance>
0.3755717874

$$$$
[H]OC(=O)C([H])([H])[C@@]([H])(C([H])=O)N([H])C(=O)[C@@]([H])(C([H])([H])C(=O)N([H])C([H])([H])C([H])([H])c1c([H])c([H])c([H])c([H])c1[H])C([H])(C([H])([H])[H])C([H])([H])[H]


 29 29  0  0  0  0  0  0  0  0999 V2000
   19.6659    5.5631   53.7047 C   0  0  0  0  0  0  0  0  0  0  0  0
   21.0884    5.2209   53.9565 C   0  0  0  0  0  0  0  0  0  0  0  0
   21.5722    4.1300   53.4663 O   0  0  0  0  0  0  0  0  0  0  0  0
   21.9951    5.9897   54.6950 N   0  0  0  0  0  0  0  0  0  0  0  0
   21.7613    6.8761   55.1722 H   0  0  0  0  0  0  0  0  0  0  0  0
   23.3954    5.5698   54.8716 C   0  0  0  0  0  0  0  0  0  0  0  0
   23.5392    5.0958   56.2605 C   0  0  0  0  0  0  0  0  0  0  0  0
   22.5762    5.1994   57.0327 O   0  0  0  0  0  0  0  0  0  0  0  0
   24.2979    6.7766   54.6398 C   0  0  0  0  0  0  0  0  0  0  0  0
   24.3589    7.1023   53.2092 C   0  0  0  0  0  0  0  0  0  0  0  0
   24.4841    8.4043   52.7740 O   0  0  0  0  0  0  0  0  0  0  0  0
   24.2966    6.1627   52.3505 O   0  0  0  0  0  0  0  0  0  0  0  0
   25.3232    8.8294   52.4281 H   0  0  0  0  0  0  0  0  0  0  0  0
   19.9040    3.1274   53.1157 C   0  0  0  0  0  0  0  0  0  0  0  0
   18.9688    4.3065   53.2835 C   0  0  0  0  0  0  0  0  0  0  0  0
   17.8713    3.8424   54.2023 C   0  0  0  0  0  0  0  0  0  0  0  0
   19.4581    6.7233   52.8249 C   0  0  0  0  0  0  0  0  0  0  0  0
   20.3756    7.8843   53.1294 C   0  0  0  0  0  0  0  0  0  0  0  0
   21.1886    8.2278   52.2576 O   0  0  0  0  0  0  0  0  0  0  0  0
   20.2725    8.5057   54.3644 N   0  0  0  0  0  0  0  0  0  0  0  0
   19.4818    8.0428   54.9922 H   0  0  0  0  0  0  0  0  0  0  0  0
   20.9126    9.5639   55.0010 C   0  0  0  0  0  0  0  0  0  0  0  0
   22.0258   10.2464   54.3428 C   0  0  0  0  0  0  0  0  0  0  0  0
   21.8326   10.9843   53.1139 C   0  0  0  0  0  0  0  0  0  0  0  0
   21.8912   12.3852   53.1345 C   0  0  0  0  0  0  0  0  0  0  0  0
   21.6234   13.1007   52.0054 C   0  0  0  0  0  0  0  0  0  0  0  0
   21.2860   12.4954   50.8017 C   0  0  0  0  0  0  0  0  0  0  0  0
   21.2260   11.1237   50.7704 C   0  0  0  0  0  0  0  0  0  0  0  0
   21.4922   10.3827   51.8965 C   0  0  0  0  0  0  0  0  0  0  0  0
 14 15  1  0  0  0
 15 16  1  0  0  0
 15  1  1  0  0  0
  1 17  1  0  0  0
 17 18  1  0  0  0
 18 19  2  0  0  0
 18 20  1  0  0  0
 20 22  1  0  0  0
 22 23  1  0  0  0
 23 24  1  0  0  0
 24 25  2  0  0  0
 25 26  1  0  0  0
 26 27  2  0  0  0
 27 28  1  0  0  0
 28 29  2  0  0  0
  1  2  1  0  0  0
  2  3  2  0  0  0
  2  4  1  0  0  0
  4  6  1  0  0  0
  6  9  1  0  0  0
  9 10  1  0  0  0
 10 11  1  0  0  0
 10 12  2  0  0  0
  6  7  1  0  0  0
  7  8  2  0  0  0
 29 24  1  0  0  0
 20 21  1  0  0  0
  4  5  1  0  0  0
 11 13  1  0  0  0
M  END
> <minimizedAffinity>
16.49960

> <CNNscore>
0.5091862679

> <CNNaffinity>
5.7526941299

> <CNN_VS>
2.9291927814

> <CNNaffinity_variance>
0.3758648038

$$$$
[H]OC(=O)C([H])([H])[C@@]([H])(C([H])=O)N([H])C(=O)[C@@]([H])(C([H])([H])C(=O)N([H])C([H])([H])C([H])([H])c1c([H])c([H])c([H])c([H])c1[H])C([H])(C([H])([H])[H])C([H])([H])[H]


 29 29  0  0  0  0  0  0  0  0999 V2000
   20.6810    9.5188   53.1144 C   0  0  0  0  0  0  0  0  0  0  0  0
   20.9021    8.1329   53.5986 C   0  0  0  0  0  0  0  0  0  0  0  0
   20.0131    7.2298   53.3571 O   0  0  0  0  0  0  0  0  0  0  0  0
   22.0191    7.6860   54.3137 N   0  0  0  0  0  0  0  0  0  0  0  0
   22.8071    8.2866   54.6076 H   0  0  0  0  0  0  0  0  0  0  0  0
   22.1522    6.2810   54.7341 C   0  0  0  0  0  0  0  0  0  0  0  0
   21.7894    6.2142   56.1618 C   0  0  0  0  0  0  0  0  0  0  0  0
   21.6380    7.2695   56.7924 O   0  0  0  0  0  0  0  0  0  0  0  0
   23.6036    5.8531   54.5477 C   0  0  0  0  0  0  0  0  0  0  0  0
   24.1014    6.2905   53.2371 C   0  0  0  0  0  0  0  0  0  0  0  0
   24.0756    7.6179   52.8658 O   0  0  0  0  0  0  0  0  0  0  0  0
   24.5690    5.4266   52.4254 O   0  0  0  0  0  0  0  0  0  0  0  0
   24.8626    8.2381   52.8495 H   0  0  0  0  0  0  0  0  0  0  0  0
   21.3585   10.6338   50.9617 C   0  0  0  0  0  0  0  0  0  0  0  0
   20.6431    9.4717   51.6181 C   0  0  0  0  0  0  0  0  0  0  0  0
   21.2161    8.2250   51.0005 C   0  0  0  0  0  0  0  0  0  0  0  0
   21.5876   10.5241   53.6897 C   0  0  0  0  0  0  0  0  0  0  0  0
   22.0353   10.1995   55.0956 C   0  0  0  0  0  0  0  0  0  0  0  0
   21.2243   10.3701   56.0187 O   0  0  0  0  0  0  0  0  0  0  0  0
   23.3267    9.7342   55.2903 N   0  0  0  0  0  0  0  0  0  0  0  0
   23.8830    9.6540   54.3323 H   0  0  0  0  0  0  0  0  0  0  0  0
   24.0872    9.3424   56.3871 C   0  0  0  0  0  0  0  0  0  0  0  0
   25.4804    9.7719   56.5005 C   0  0  0  0  0  0  0  0  0  0  0  0
   26.5293    9.1247   55.7434 C   0  0  0  0  0  0  0  0  0  0  0  0
   27.8668    9.3084   56.1223 C   0  0  0  0  0  0  0  0  0  0  0  0
   28.8729    8.7804   55.3691 C   0  0  0  0  0  0  0  0  0  0  0  0
   28.6337    8.0489   54.2129 C   0  0  0  0  0  0  0  0  0  0  0  0
   27.3272    7.8628   53.8329 C   0  0  0  0  0  0  0  0  0  0  0  0
   26.2974    8.3860   54.5770 C   0  0  0  0  0  0  0  0  0  0  0  0
 14 15  1  0  0  0
 15 16  1  0  0  0
 15  1  1  0  0  0
  1 17  1  0  0  0
 17 18  1  0  0  0
 18 19  2  0  0  0
 18 20  1  0  0  0
 20 22  1  0  0  0
 22 23  1  0  0  0
 23 24  1  0  0  0
 24 25  2  0  0  0
 25 26  1  0  0  0
 26 27  2  0  0  0
 27 28  1  0  0  0
 28 29  2  0  0  0
  1  2  1  0  0  0
  2  3  2  0  0  0
  2  4  1  0  0  0
  4  6  1  0  0  0
  6  9  1  0  0  0
  9 10  1  0  0  0
 10 11  1  0  0  0
 10 12  2  0  0  0
  6  7  1  0  0  0
  7  8  2  0  0  0
 29 24  1  0  0  0
 20 21  1  0  0  0
  4  5  1  0  0  0
 11 13  1  0  0  0
M  END
> <minimizedAffinity>
7.22714

> <CNNscore>
0.5082323551

> <CNNaffinity>
5.8310446739

> <CNN_VS>
2.9635255337

> <CNNaffinity_variance>
0.2136499882

$$$$
[H]OC(=O)C([H])([H])[C@@]([H])(C([H])=O)N([H])C(=O)[C@@]([H])(C([H])([H])C(=O)N([H])C([H])([H])C([H])([H])c1c([H])c([H])c([H])c([H])c1[H])C([H])(C([H])([H])[H])C([H])([H])[H]


 29 29  0  0  0  0  0  0  0  0999 V2000
   25.5104    8.2341   54.2769 C   0  0  0  0  0  0  0  0  0  0  0  0
   26.6873    8.6534   55.0789 C   0  0  0  0  0  0  0  0  0  0  0  0
   27.8611    8.6177   54.5448 O   0  0  0  0  0  0  0  0  0  0  0  0
   26.6544    9.1047   56.4032 N   0  0  0  0  0  0  0  0  0  0  0  0
   25.7996    9.1700   56.9804 H   0  0  0  0  0  0  0  0  0  0  0  0
   27.8807    9.5163   57.1068 C   0  0  0  0  0  0  0  0  0  0  0  0
   27.8063    8.9697   58.4743 C   0  0  0  0  0  0  0  0  0  0  0  0
   28.7135    8.2269   58.8738 O   0  0  0  0  0  0  0  0  0  0  0  0
   27.9234   11.0395   57.1592 C   0  0  0  0  0  0  0  0  0  0  0  0
   28.4609   11.4919   58.4488 C   0  0  0  0  0  0  0  0  0  0  0  0
   27.9924   12.6349   59.0606 O   0  0  0  0  0  0  0  0  0  0  0  0
   29.3786   10.8141   59.0165 O   0  0  0  0  0  0  0  0  0  0  0  0
   27.3650   12.6676   59.8415 H   0  0  0  0  0  0  0  0  0  0  0  0
   23.5141    7.9692   55.7872 C   0  0  0  0  0  0  0  0  0  0  0  0
   24.3026    8.8861   54.8758 C   0  0  0  0  0  0  0  0  0  0  0  0
   24.5749   10.1337   55.6715 C   0  0  0  0  0  0  0  0  0  0  0  0
   25.3994    6.7838   54.0582 C   0  0  0  0  0  0  0  0  0  0  0  0
   23.9979    6.2507   54.2418 C   0  0  0  0  0  0  0  0  0  0  0  0
   23.7378    5.6475   55.2941 O   0  0  0  0  0  0  0  0  0  0  0  0
   23.0727    6.4530   53.2293 N   0  0  0  0  0  0  0  0  0  0  0  0
   23.5119    7.0155   52.3782 H   0  0  0  0  0  0  0  0  0  0  0  0
   21.7358    6.1278   53.0250 C   0  0  0  0  0  0  0  0  0  0  0  0
   20.7720    7.1760   52.6920 C   0  0  0  0  0  0  0  0  0  0  0  0
   20.9829    8.5471   53.1015 C   0  0  0  0  0  0  0  0  0  0  0  0
   21.3862    9.4961   52.1513 C   0  0  0  0  0  0  0  0  0  0  0  0
   21.6761   10.7718   52.5347 C   0  0  0  0  0  0  0  0  0  0  0  0
   21.5899   11.1911   53.8560 C   0  0  0  0  0  0  0  0  0  0  0  0
   21.1956   10.2695   54.7948 C   0  0  0  0  0  0  0  0  0  0  0  0
   20.8983    8.9784   54.4307 C   0  0  0  0  0  0  0  0  0  0  0  0
 14 15  1  0  0  0
 15 16  1  0  0  0
 15  1  1  0  0  0
  1 17  1  0  0  0
 17 18  1  0  0  0
 18 19  2  0  0  0
 18 20  1  0  0  0
 20 22  1  0  0  0
 22 23  1  0  0  0
 23 24  1  0  0  0
 24 25  2  0  0  0
 25 26  1  0  0  0
 26 27  2  0  0  0
 27 28  1  0  0  0
 28 29  2  0  0  0
  1  2  1  0  0  0
  2  3  2  0  0  0
  2  4  1  0  0  0
  4  6  1  0  0  0
  6  9  1  0  0  0
  9 10  1  0  0  0
 10 11  1  0  0  0
 10 12  2  0  0  0
  6  7  1  0  0  0
  7  8  2  0  0  0
 29 24  1  0  0  0
 20 21  1  0  0  0
  4  5  1  0  0  0
 11 13  1  0  0  0
M  END
> <minimizedAffinity>
2.26895

> <CNNscore>
0.4974092543

> <CNNaffinity>
5.9605112076

> <CNN_VS>
2.9648134708

> <CNNaffinity_variance>
0.5180965662

$$$$
[H]c1c([H])c([C@]2([H])C([H])([H])N(S(=O)(=O)c3c([H])c([H])c(OC([H])([H])[H])c([H])c3[H])C([H])([H])[C@]2([H])N([H])C(=O)c2c([H])c(OC([H])([H])[H])c(OC([H])([H])[H])c(OC([H])([H])[H])c2[H])c([H])c([H])c1F


 39 42  0  0  0  0  0  0  0  0999 V2000
   26.6683    7.8751   54.3529 C   0  0  0  0  0  0  0  0  0  0  0  0
   27.9067    7.9767   55.2634 C   0  0  0  0  0  0  0  0  0  0  0  0
   27.7909    9.2580   55.9040 N   0  0  0  0  0  0  0  0  0  0  0  0
   26.4786    9.7968   55.6471 C   0  0  0  0  0  0  0  0  0  0  0  0
   25.6897    8.5651   55.2735 C   0  0  0  0  0  0  0  0  0  0  0  0
   24.3689    8.8187   54.7383 C   0  0  0  0  0  0  0  0  0  0  0  0
   23.5104    9.6988   55.3328 C   0  0  0  0  0  0  0  0  0  0  0  0
   22.2362    9.9539   54.8200 C   0  0  0  0  0  0  0  0  0  0  0  0
   21.8162    9.3132   53.6893 C   0  0  0  0  0  0  0  0  0  0  0  0
   20.5620    9.5643   53.1852 F   0  0  0  0  0  0  0  0  0  0  0  0
   22.6625    8.4226   53.0731 C   0  0  0  0  0  0  0  0  0  0  0  0
   23.9364    8.1788   53.6002 C   0  0  0  0  0  0  0  0  0  0  0  0
   27.7063    8.1194   52.0804 C   0  0  0  0  0  0  0  0  0  0  0  0
   28.0532    6.9144   52.1467 O   0  0  0  0  0  0  0  0  0  0  0  0
   26.9980    8.6739   53.1682 N   0  0  0  0  0  0  0  0  0  0  0  0
   26.7188    9.6750   53.1064 H   0  0  0  0  0  0  0  0  0  0  0  0
   28.2980   11.0379   49.8272 C   0  0  0  0  0  0  0  0  0  0  0  0
   27.9832   10.2811   50.9314 C   0  0  0  0  0  0  0  0  0  0  0  0
   28.0414    8.8812   50.9085 C   0  0  0  0  0  0  0  0  0  0  0  0
   28.4288    8.3062   49.7277 C   0  0  0  0  0  0  0  0  0  0  0  0
   28.7542    9.0498   48.5909 C   0  0  0  0  0  0  0  0  0  0  0  0
   28.6857   10.4251   48.6494 C   0  0  0  0  0  0  0  0  0  0  0  0
   27.0239   13.0737   49.5273 C   0  0  0  0  0  0  0  0  0  0  0  0
   28.2310   12.4187   49.8802 O   0  0  0  0  0  0  0  0  0  0  0  0
   29.1436    8.4532   47.4061 O   0  0  0  0  0  0  0  0  0  0  0  0
   29.1774    9.0798   46.1615 C   0  0  0  0  0  0  0  0  0  0  0  0
   29.0137   11.1561   47.5062 O   0  0  0  0  0  0  0  0  0  0  0  0
   28.5055   12.4605   47.2828 C   0  0  0  0  0  0  0  0  0  0  0  0
   27.9988    9.1651   57.6131 S   0  0  0  0  0  0  0  0  0  0  0  0
   26.7927    8.5832   58.2856 O   0  0  0  0  0  0  0  0  0  0  0  0
   29.1926    8.3542   57.9755 O   0  0  0  0  0  0  0  0  0  0  0  0
   28.2057   10.7837   58.2880 C   0  0  0  0  0  0  0  0  0  0  0  0
   27.9247   11.9198   57.5985 C   0  0  0  0  0  0  0  0  0  0  0  0
   28.1190   13.1553   58.2139 C   0  0  0  0  0  0  0  0  0  0  0  0
   28.5877   13.2299   59.4992 C   0  0  0  0  0  0  0  0  0  0  0  0
   28.8663   12.0857   60.1813 C   0  0  0  0  0  0  0  0  0  0  0  0
   28.6755   10.8617   59.5764 C   0  0  0  0  0  0  0  0  0  0  0  0
   28.7768   14.4507   60.0994 O   0  0  0  0  0  0  0  0  0  0  0  0
   29.9492   15.1835   59.8654 C   0  0  0  0  0  0  0  0  0  0  0  0
 23 24  1  0  0  0
 24 17  1  0  0  0
 17 18  2  0  0  0
 18 19  1  0  0  0
 19 20  2  0  0  0
 20 21  1  0  0  0
 21 25  1  0  0  0
 25 26  1  0  0  0
 21 22  2  0  0  0
 22 27  1  0  0  0
 27 28  1  0  0  0
 19 13  1  0  0  0
 13 14  2  0  0  0
 13 15  1  0  0  0
 15  1  1  0  0  0
  1  2  1  0  0  0
  2  3  1  0  0  0
  3  4  1  0  0  0
  4  5  1  0  0  0
  5  6  1  0  0  0
  6  7  2  0  0  0
  7  8  1  0  0  0
  8  9  2  0  0  0
  9 10  1  0  0  0
  9 11  1  0  0  0
 11 12  2  0  0  0
  3 29  1  0  0  0
 29 30  2  0  0  0
 29 31  2  0  0  0
 29 32  1  0  0  0
 32 33  2  0  0  0
 33 34  1  0  0  0
 34 35  2  0  0  0
 35 38  1  0  0  0
 38 39  1  0  0  0
 35 36  1  0  0  0
 36 37  2  0  0  0
 22 17  1  0  0  0
  5  1  1  0  0  0
 12  6  1  0  0  0
 37 32  1  0  0  0
 15 16  1  0  0  0
M  END
> <minimizedAffinity>
35.91558

> <CNNscore>
0.4802515805

> <CNNaffinity>
6.2281613350

> <CNN_VS>
2.9910843372

> <CNNaffinity_variance>
0.5434123874

$$$$
[H]c1c([H])c([C@]2([H])C([H])([H])N(S(=O)(=O)c3c([H])c([H])c(OC([H])([H])[H])c([H])c3[H])C([H])([H])[C@]2([H])N([H])C(=O)c2c([H])c(OC([H])([H])[H])c(OC([H])([H])[H])c(OC([H])([H])[H])c2[H])c([H])c([H])c1F


 39 42  0  0  0  0  0  0  0  0999 V2000
   25.0891    8.5059   53.8039 C   0  0  0  0  0  0  0  0  0  0  0  0
   25.5117    7.0260   53.7403 C   0  0  0  0  0  0  0  0  0  0  0  0
   24.5260    6.3259   54.5173 N   0  0  0  0  0  0  0  0  0  0  0  0
   23.4346    7.2207   54.8112 C   0  0  0  0  0  0  0  0  0  0  0  0
   23.5956    8.2866   53.7543 C   0  0  0  0  0  0  0  0  0  0  0  0
   22.7650    9.4590   53.9307 C   0  0  0  0  0  0  0  0  0  0  0  0
   22.3071   10.1809   52.8657 C   0  0  0  0  0  0  0  0  0  0  0  0
   21.5004   11.3102   53.0263 C   0  0  0  0  0  0  0  0  0  0  0  0
   21.1473   11.7223   54.2796 C   0  0  0  0  0  0  0  0  0  0  0  0
   20.3537   12.8339   54.4372 F   0  0  0  0  0  0  0  0  0  0  0  0
   21.5962   11.0119   55.3673 C   0  0  0  0  0  0  0  0  0  0  0  0
   22.4037    9.8823   55.1884 C   0  0  0  0  0  0  0  0  0  0  0  0
   26.9286    9.0662   55.4174 C   0  0  0  0  0  0  0  0  0  0  0  0
   27.7576    8.7245   54.5384 O   0  0  0  0  0  0  0  0  0  0  0  0
   25.5533    8.9803   55.1114 N   0  0  0  0  0  0  0  0  0  0  0  0
   24.8733    9.2612   55.8481 H   0  0  0  0  0  0  0  0  0  0  0  0
   27.8831   11.3702   58.1969 C   0  0  0  0  0  0  0  0  0  0  0  0
   27.4303   10.8972   56.9877 C   0  0  0  0  0  0  0  0  0  0  0  0
   27.4088    9.5278   56.6912 C   0  0  0  0  0  0  0  0  0  0  0  0
   27.8629    8.6848   57.6699 C   0  0  0  0  0  0  0  0  0  0  0  0
   28.3283    9.1370   58.9068 C   0  0  0  0  0  0  0  0  0  0  0  0
   28.3352   10.4909   59.1642 C   0  0  0  0  0  0  0  0  0  0  0  0
   28.2209   13.1847   59.7625 C   0  0  0  0  0  0  0  0  0  0  0  0
   27.8924   12.7282   58.4608 O   0  0  0  0  0  0  0  0  0  0  0  0
   28.7835    8.2719   59.8845 O   0  0  0  0  0  0  0  0  0  0  0  0
   28.9970    6.9050   59.7150 C   0  0  0  0  0  0  0  0  0  0  0  0
   28.8030   10.9293   60.4044 O   0  0  0  0  0  0  0  0  0  0  0  0
   30.1283   11.4016   60.5781 C   0  0  0  0  0  0  0  0  0  0  0  0
   23.8800    4.9578   53.6903 S   0  0  0  0  0  0  0  0  0  0  0  0
   24.3486    4.8999   52.2682 O   0  0  0  0  0  0  0  0  0  0  0  0
   24.2430    3.6856   54.3711 O   0  0  0  0  0  0  0  0  0  0  0  0
   22.1187    5.0650   53.6241 C   0  0  0  0  0  0  0  0  0  0  0  0
   21.4418    6.2420   53.6651 C   0  0  0  0  0  0  0  0  0  0  0  0
   20.0492    6.2289   53.6066 C   0  0  0  0  0  0  0  0  0  0  0  0
   19.3649    5.0460   53.5089 C   0  0  0  0  0  0  0  0  0  0  0  0
   20.0524    3.8722   53.4685 C   0  0  0  0  0  0  0  0  0  0  0  0
   21.4298    3.8807   53.5261 C   0  0  0  0  0  0  0  0  0  0  0  0
   17.9926    5.0406   53.4517 O   0  0  0  0  0  0  0  0  0  0  0  0
   17.2552    4.0914   54.1738 C   0  0  0  0  0  0  0  0  0  0  0  0
 23 24  1  0  0  0
 24 17  1  0  0  0
 17 18  2  0  0  0
 18 19  1  0  0  0
 19 20  2  0  0  0
 20 21  1  0  0  0
 21 25  1  0  0  0
 25 26  1  0  0  0
 21 22  2  0  0  0
 22 27  1  0  0  0
 27 28  1  0  0  0
 19 13  1  0  0  0
 13 14  2  0  0  0
 13 15  1  0  0  0
 15  1  1  0  0  0
  1  2  1  0  0  0
  2  3  1  0  0  0
  3  4  1  0  0  0
  4  5  1  0  0  0
  5  6  1  0  0  0
  6  7  2  0  0  0
  7  8  1  0  0  0
  8  9  2  0  0  0
  9 10  1  0  0  0
  9 11  1  0  0  0
 11 12  2  0  0  0
  3 29  1  0  0  0
 29 30  2  0  0  0
 29 31  2  0  0  0
 29 32  1  0  0  0
 32 33  2  0  0  0
 33 34  1  0  0  0
 34 35  2  0  0  0
 35 38  1  0  0  0
 38 39  1  0  0  0
 35 36  1  0  0  0
 36 37  2  0  0  0
 22 17  1  0  0  0
  5  1  1  0  0  0
 12  6  1  0  0  0
 37 32  1  0  0  0
 15 16  1  0  0  0
M  END
> <minimizedAffinity>
28.84188

> <CNNscore>
0.4611691236

> <CNNaffinity>
6.6095137596

> <CNN_VS>
3.0481035709

> <CNNaffinity_variance>
0.5393531919

$$$$
[H]c1c([H])c([C@]2([H])C([H])([H])N(S(=O)(=O)c3c([H])c([H])c(OC([H])([H])[H])c([H])c3[H])C([H])([H])[C@]2([H])N([H])C(=O)c2c([H])c(OC([H])([H])[H])c(OC([H])([H])[H])c(OC([H])([H])[H])c2[H])c([H])c([H])c1F


 39 42  0  0  0  0  0  0  0  0999 V2000
   22.9980    8.7792   55.2283 C   0  0  0  0  0  0  0  0  0  0  0  0
   21.7636    7.9312   54.8681 C   0  0  0  0  0  0  0  0  0  0  0  0
   22.0771    7.3435   53.5945 N   0  0  0  0  0  0  0  0  0  0  0  0
   23.4717    7.5645   53.3038 C   0  0  0  0  0  0  0  0  0  0  0  0
   24.0472    7.8468   54.6705 C   0  0  0  0  0  0  0  0  0  0  0  0
   25.4108    8.3325   54.6762 C   0  0  0  0  0  0  0  0  0  0  0  0
   25.9815    8.8564   55.8009 C   0  0  0  0  0  0  0  0  0  0  0  0
   27.2984    9.3222   55.8169 C   0  0  0  0  0  0  0  0  0  0  0  0
   28.0564    9.2610   54.6824 C   0  0  0  0  0  0  0  0  0  0  0  0
   29.3523    9.7198   54.6985 F   0  0  0  0  0  0  0  0  0  0  0  0
   27.5039    8.7379   53.5377 C   0  0  0  0  0  0  0  0  0  0  0  0
   26.1825    8.2754   53.5391 C   0  0  0  0  0  0  0  0  0  0  0  0
   21.5873   10.5092   54.0800 C   0  0  0  0  0  0  0  0  0  0  0  0
   20.5690    9.8684   54.4395 O   0  0  0  0  0  0  0  0  0  0  0  0
   22.8564   10.0119   54.4469 N   0  0  0  0  0  0  0  0  0  0  0  0
   23.6950   10.5473   54.1402 H   0  0  0  0  0  0  0  0  0  0  0  0
   20.4098   13.9059   53.0700 C   0  0  0  0  0  0  0  0  0  0  0  0
   20.5882   12.7409   53.7785 C   0  0  0  0  0  0  0  0  0  0  0  0
   21.4221   11.7146   53.3148 C   0  0  0  0  0  0  0  0  0  0  0  0
   22.0505   11.9333   52.1180 C   0  0  0  0  0  0  0  0  0  0  0  0
   21.8879   13.1063   51.3774 C   0  0  0  0  0  0  0  0  0  0  0  0
   21.0599   14.0948   51.8638 C   0  0  0  0  0  0  0  0  0  0  0  0
   18.3788   14.5479   54.2193 C   0  0  0  0  0  0  0  0  0  0  0  0
   19.5798   14.9016   53.5534 O   0  0  0  0  0  0  0  0  0  0  0  0
   22.5302   13.3111   50.1703 O   0  0  0  0  0  0  0  0  0  0  0  0
   23.8472   13.7424   50.0213 C   0  0  0  0  0  0  0  0  0  0  0  0
   20.9063   15.2621   51.1135 O   0  0  0  0  0  0  0  0  0  0  0  0
   20.3422   15.2450   49.8131 C   0  0  0  0  0  0  0  0  0  0  0  0
   21.7932    5.6431   53.5618 S   0  0  0  0  0  0  0  0  0  0  0  0
   22.2577    5.0302   52.2757 O   0  0  0  0  0  0  0  0  0  0  0  0
   22.4661    4.9544   54.6962 O   0  0  0  0  0  0  0  0  0  0  0  0
   20.0613    5.3150   53.6662 C   0  0  0  0  0  0  0  0  0  0  0  0
   19.1169    6.2913   53.6678 C   0  0  0  0  0  0  0  0  0  0  0  0
   17.7716    5.9369   53.7533 C   0  0  0  0  0  0  0  0  0  0  0  0
   17.3993    4.6209   53.8350 C   0  0  0  0  0  0  0  0  0  0  0  0
   18.3533    3.6503   53.8327 C   0  0  0  0  0  0  0  0  0  0  0  0
   19.6851    3.9965   53.7482 C   0  0  0  0  0  0  0  0  0  0  0  0
   16.0717    4.2789   53.9190 O   0  0  0  0  0  0  0  0  0  0  0  0
   15.6543    2.9733   53.6237 C   0  0  0  0  0  0  0  0  0  0  0  0
 23 24  1  0  0  0
 24 17  1  0  0  0
 17 18  2  0  0  0
 18 19  1  0  0  0
 19 20  2  0  0  0
 20 21  1  0  0  0
 21 25  1  0  0  0
 25 26  1  0  0  0
 21 22  2  0  0  0
 22 27  1  0  0  0
 27 28  1  0  0  0
 19 13  1  0  0  0
 13 14  2  0  0  0
 13 15  1  0  0  0
 15  1  1  0  0  0
  1  2  1  0  0  0
  2  3  1  0  0  0
  3  4  1  0  0  0
  4  5  1  0  0  0
  5  6  1  0  0  0
  6  7  2  0  0  0
  7  8  1  0  0  0
  8  9  2  0  0  0
  9 10  1  0  0  0
  9 11  1  0  0  0
 11 12  2  0  0  0
  3 29  1  0  0  0
 29 30  2  0  0  0
 29 31  2  0  0  0
 29 32  1  0  0  0
 32 33  2  0  0  0
 33 34  1  0  0  0
 34 35  2  0  0  0
 35 38  1  0  0  0
 38 39  1  0  0  0
 35 36  1  0  0  0
 36 37  2  0  0  0
 22 17  1  0  0  0
  5  1  1  0  0  0
 12  6  1  0  0  0
 37 32  1  0  0  0
 15 16  1  0  0  0
M  END
> <minimizedAffinity>
41.29401

> <CNNscore>
0.4152275622

> <CNNaffinity>
6.3143777847

> <CNN_VS>
2.6219036579

> <CNNaffinity_variance>
0.3547438085

$$$$
[H]c1c([H])c([C@]2([H])C([H])([H])N(S(=O)(=O)c3c([H])c([H])c(OC([H])([H])[H])c([H])c3[H])C([H])([H])[C@]2([H])N([H])C(=O)c2c([H])c(OC([H])([H])[H])c(OC([H])([H])[H])c(OC([H])([H])[H])c2[H])c([H])c([H])c1F


 39 42  0  0  0  0  0  0  0  0999 V2000
   22.9477    8.7023   55.2234 C   0  0  0  0  0  0  0  0  0  0  0  0
   21.7105    7.8683   54.8406 C   0  0  0  0  0  0  0  0  0  0  0  0
   22.0138    7.3306   53.5427 N   0  0  0  0  0  0  0  0  0  0  0  0
   23.4059    7.5634   53.2494 C   0  0  0  0  0  0  0  0  0  0  0  0
   23.9925    7.7928   54.6213 C   0  0  0  0  0  0  0  0  0  0  0  0
   25.3560    8.2786   54.6347 C   0  0  0  0  0  0  0  0  0  0  0  0
   26.1443    8.2353   53.5202 C   0  0  0  0  0  0  0  0  0  0  0  0
   27.4593    8.7070   53.5225 C   0  0  0  0  0  0  0  0  0  0  0  0
   27.9927    9.2317   54.6651 C   0  0  0  0  0  0  0  0  0  0  0  0
   29.2869    9.6955   54.6670 F   0  0  0  0  0  0  0  0  0  0  0  0
   27.2188    9.2857   55.7997 C   0  0  0  0  0  0  0  0  0  0  0  0
   25.9027    8.8087   55.7800 C   0  0  0  0  0  0  0  0  0  0  0  0
   21.5477   10.3821   53.9905 C   0  0  0  0  0  0  0  0  0  0  0  0
   20.5509    9.6437   54.1853 O   0  0  0  0  0  0  0  0  0  0  0  0
   22.7995    9.9644   54.4916 N   0  0  0  0  0  0  0  0  0  0  0  0
   23.6211   10.5807   54.3210 H   0  0  0  0  0  0  0  0  0  0  0  0
   21.8907   12.9876   51.3375 C   0  0  0  0  0  0  0  0  0  0  0  0
   22.0343   11.8205   52.0504 C   0  0  0  0  0  0  0  0  0  0  0  0
   21.3765   11.6142   53.2704 C   0  0  0  0  0  0  0  0  0  0  0  0
   20.5823   12.6370   53.7155 C   0  0  0  0  0  0  0  0  0  0  0  0
   20.4179   13.8328   53.0127 C   0  0  0  0  0  0  0  0  0  0  0  0
   21.0804   14.0014   51.8159 C   0  0  0  0  0  0  0  0  0  0  0  0
   23.7617   13.9036   50.1055 C   0  0  0  0  0  0  0  0  0  0  0  0
   22.5532   13.1624   50.1357 O   0  0  0  0  0  0  0  0  0  0  0  0
   19.6120   14.8559   53.4765 O   0  0  0  0  0  0  0  0  0  0  0  0
   18.4210   14.6873   54.1806 C   0  0  0  0  0  0  0  0  0  0  0  0
   20.9073   15.2013   51.1237 O   0  0  0  0  0  0  0  0  0  0  0  0
   20.2166   15.2569   49.8870 C   0  0  0  0  0  0  0  0  0  0  0  0
   21.7300    5.6327   53.4464 S   0  0  0  0  0  0  0  0  0  0  0  0
   22.0961    5.0869   52.0997 O   0  0  0  0  0  0  0  0  0  0  0  0
   22.4877    4.8914   54.4907 O   0  0  0  0  0  0  0  0  0  0  0  0
   20.0113    5.2914   53.6650 C   0  0  0  0  0  0  0  0  0  0  0  0
   19.0485    6.2477   53.6056 C   0  0  0  0  0  0  0  0  0  0  0  0
   17.7156    5.8841   53.7905 C   0  0  0  0  0  0  0  0  0  0  0  0
   17.3738    4.5791   54.0298 C   0  0  0  0  0  0  0  0  0  0  0  0
   18.3461    3.6286   54.0875 C   0  0  0  0  0  0  0  0  0  0  0  0
   19.6656    3.9839   53.9051 C   0  0  0  0  0  0  0  0  0  0  0  0
   16.0584    4.2280   54.2111 O   0  0  0  0  0  0  0  0  0  0  0  0
   15.3040    3.7231   53.1424 C   0  0  0  0  0  0  0  0  0  0  0  0
 23 24  1  0  0  0
 24 17  1  0  0  0
 17 18  2  0  0  0
 18 19  1  0  0  0
 19 20  2  0  0  0
 20 21  1  0  0  0
 21 25  1  0  0  0
 25 26  1  0  0  0
 21 22  2  0  0  0
 22 27  1  0  0  0
 27 28  1  0  0  0
 19 13  1  0  0  0
 13 14  2  0  0  0
 13 15  1  0  0  0
 15  1  1  0  0  0
  1  2  1  0  0  0
  2  3  1  0  0  0
  3  4  1  0  0  0
  4  5  1  0  0  0
  5  6  1  0  0  0
  6  7  2  0  0  0
  7  8  1  0  0  0
  8  9  2  0  0  0
  9 10  1  0  0  0
  9 11  1  0  0  0
 11 12  2  0  0  0
  3 29  1  0  0  0
 29 30  2  0  0  0
 29 31  2  0  0  0
 29 32  1  0  0  0
 32 33  2  0  0  0
 33 34  1  0  0  0
 34 35  2  0  0  0
 35 38  1  0  0  0
 38 39  1  0  0  0
 35 36  1  0  0  0
 36 37  2  0  0  0
 22 17  1  0  0  0
  5  1  1  0  0  0
 12  6  1  0  0  0
 37 32  1  0  0  0
 15 16  1  0  0  0
M  END
> <minimizedAffinity>
40.72317

> <CNNscore>
0.4006107450

> <CNNaffinity>
6.2857570648

> <CNN_VS>
2.5181417465

> <CNNaffinity_variance>
0.3243326247

$$$$
[H]c1c([H])c([C@]2([H])C([H])([H])N(S(=O)(=O)c3c([H])c([H])c(OC([H])([H])[H])c([H])c3[H])C([H])([H])[C@]2([H])N([H])C(=O)c2c([H])c(OC([H])([H])[H])c(OC([H])([H])[H])c(OC([H])([H])[H])c2[H])c([H])c([H])c1F


 39 42  0  0  0  0  0  0  0  0999 V2000
   21.1067    7.6699   54.6098 C   0  0  0  0  0  0  0  0  0  0  0  0
   19.8569    6.8231   54.3036 C   0  0  0  0  0  0  0  0  0  0  0  0
   20.1217    6.2210   53.0258 N   0  0  0  0  0  0  0  0  0  0  0  0
   21.5057    6.4334   52.6822 C   0  0  0  0  0  0  0  0  0  0  0  0
   22.1315    6.7276   54.0241 C   0  0  0  0  0  0  0  0  0  0  0  0
   23.4962    7.2078   53.9750 C   0  0  0  0  0  0  0  0  0  0  0  0
   24.4170    6.8508   54.9183 C   0  0  0  0  0  0  0  0  0  0  0  0
   25.7375    7.3049   54.8756 C   0  0  0  0  0  0  0  0  0  0  0  0
   26.1407    8.1330   53.8672 C   0  0  0  0  0  0  0  0  0  0  0  0
   27.4402    8.5799   53.8257 F   0  0  0  0  0  0  0  0  0  0  0  0
   25.2318    8.5064   52.9061 C   0  0  0  0  0  0  0  0  0  0  0  0
   23.9123    8.0420   52.9638 C   0  0  0  0  0  0  0  0  0  0  0  0
   21.4876   10.1246   54.2479 C   0  0  0  0  0  0  0  0  0  0  0  0
   22.1258   10.1503   55.3290 O   0  0  0  0  0  0  0  0  0  0  0  0
   20.9412    8.8950   53.8211 N   0  0  0  0  0  0  0  0  0  0  0  0
   20.4095    8.8844   52.9260 H   0  0  0  0  0  0  0  0  0  0  0  0
   21.7624   12.5948   51.4610 C   0  0  0  0  0  0  0  0  0  0  0  0
   21.8875   11.4472   52.2082 C   0  0  0  0  0  0  0  0  0  0  0  0
   21.3392   11.3388   53.4932 C   0  0  0  0  0  0  0  0  0  0  0  0
   20.6717   12.4369   53.9659 C   0  0  0  0  0  0  0  0  0  0  0  0
   20.5291   13.6151   53.2293 C   0  0  0  0  0  0  0  0  0  0  0  0
   21.0814   13.6864   51.9686 C   0  0  0  0  0  0  0  0  0  0  0  0
   23.5328   13.3731   50.0057 C   0  0  0  0  0  0  0  0  0  0  0  0
   22.3148   12.6720   50.1949 O   0  0  0  0  0  0  0  0  0  0  0  0
   19.8516   14.7151   53.7217 O   0  0  0  0  0  0  0  0  0  0  0  0
   18.4661   14.8300   53.8213 C   0  0  0  0  0  0  0  0  0  0  0  0
   20.9315   14.8698   51.2433 O   0  0  0  0  0  0  0  0  0  0  0  0
   20.0031   14.9799   50.1777 C   0  0  0  0  0  0  0  0  0  0  0  0
   19.8307    4.5216   53.0213 S   0  0  0  0  0  0  0  0  0  0  0  0
   19.4424    4.0312   51.6596 O   0  0  0  0  0  0  0  0  0  0  0  0
   21.0220    3.7615   53.4872 O   0  0  0  0  0  0  0  0  0  0  0  0
   18.4776    4.1349   54.0879 C   0  0  0  0  0  0  0  0  0  0  0  0
   17.1855    4.4277   53.7883 C   0  0  0  0  0  0  0  0  0  0  0  0
   16.1822    4.0836   54.6926 C   0  0  0  0  0  0  0  0  0  0  0  0
   16.4889    3.4573   55.8720 C   0  0  0  0  0  0  0  0  0  0  0  0
   17.7866    3.1684   56.1627 C   0  0  0  0  0  0  0  0  0  0  0  0
   18.7821    3.5069   55.2710 C   0  0  0  0  0  0  0  0  0  0  0  0
   15.4951    3.1212   56.7584 O   0  0  0  0  0  0  0  0  0  0  0  0
   15.6264    3.4241   58.1212 C   0  0  0  0  0  0  0  0  0  0  0  0
 23 24  1  0  0  0
 24 17  1  0  0  0
 17 18  2  0  0  0
 18 19  1  0  0  0
 19 20  2  0  0  0
 20 21  1  0  0  0
 21 25  1  0  0  0
 25 26  1  0  0  0
 21 22  2  0  0  0
 22 27  1  0  0  0
 27 28  1  0  0  0
 19 13  1  0  0  0
 13 14  2  0  0  0
 13 15  1  0  0  0
 15  1  1  0  0  0
  1  2  1  0  0  0
  2  3  1  0  0  0
  3  4  1  0  0  0
  4  5  1  0  0  0
  5  6  1  0  0  0
  6  7  2  0  0  0
  7  8  1  0  0  0
  8  9  2  0  0  0
  9 10  1  0  0  0
  9 11  1  0  0  0
 11 12  2  0  0  0
  3 29  1  0  0  0
 29 30  2  0  0  0
 29 31  2  0  0  0
 29 32  1  0  0  0
 32 33  2  0  0  0
 33 34  1  0  0  0
 34 35  2  0  0  0
 35 38  1  0  0  0
 38 39  1  0  0  0
 35 36  1  0  0  0
 36 37  2  0  0  0
 22 17  1  0  0  0
  5  1  1  0  0  0
 12  6  1  0  0  0
 37 32  1  0  0  0
 15 16  1  0  0  0
M  END
> <minimizedAffinity>
43.86367

> <CNNscore>
0.3883877695

> <CNNaffinity>
6.4243187904

> <CNN_VS>
2.4951269627

> <CNNaffinity_variance>
0.4137421548

$$$$
[H]c1c([H])c([C@]2([H])C([H])([H])N(S(=O)(=O)c3c([H])c([H])c(OC([H])([H])[H])c([H])c3[H])C([H])([H])[C@]2([H])N([H])C(=O)c2c([H])c(OC([H])([H])[H])c(OC([H])([H])[H])c(OC([H])([H])[H])c2[H])c([H])c([H])c1F


 39 42  0  0  0  0  0  0  0  0999 V2000
   21.8414    8.4506   55.3731 C   0  0  0  0  0  0  0  0  0  0  0  0
   21.2856    9.0624   54.0732 C   0  0  0  0  0  0  0  0  0  0  0  0
   21.7300    8.1802   53.0294 N   0  0  0  0  0  0  0  0  0  0  0  0
   22.2709    6.9826   53.6226 C   0  0  0  0  0  0  0  0  0  0  0  0
   21.6572    6.9983   55.0017 C   0  0  0  0  0  0  0  0  0  0  0  0
   22.1950    6.0226   55.9260 C   0  0  0  0  0  0  0  0  0  0  0  0
   21.6071    5.7783   57.1343 C   0  0  0  0  0  0  0  0  0  0  0  0
   22.1160    4.8346   58.0299 C   0  0  0  0  0  0  0  0  0  0  0  0
   23.2361    4.1233   57.7064 C   0  0  0  0  0  0  0  0  0  0  0  0
   23.7367    3.1949   58.5883 F   0  0  0  0  0  0  0  0  0  0  0  0
   23.8457    4.3517   56.4959 C   0  0  0  0  0  0  0  0  0  0  0  0
   23.3225    5.3010   55.6099 C   0  0  0  0  0  0  0  0  0  0  0  0
   24.2391    8.1528   54.6920 C   0  0  0  0  0  0  0  0  0  0  0  0
   23.8857    7.1630   54.0051 O   0  0  0  0  0  0  0  0  0  0  0  0
   23.2503    8.8551   55.4143 N   0  0  0  0  0  0  0  0  0  0  0  0
   23.5535    9.6715   55.9849 H   0  0  0  0  0  0  0  0  0  0  0  0
   27.7156    8.8654   53.5296 C   0  0  0  0  0  0  0  0  0  0  0  0
   26.3870    8.5106   53.5395 C   0  0  0  0  0  0  0  0  0  0  0  0
   25.6261    8.5293   54.7161 C   0  0  0  0  0  0  0  0  0  0  0  0
   26.2758    8.9198   55.8563 C   0  0  0  0  0  0  0  0  0  0  0  0
   27.6238    9.2855   55.8758 C   0  0  0  0  0  0  0  0  0  0  0  0
   28.3417    9.2552   54.6997 C   0  0  0  0  0  0  0  0  0  0  0  0
   27.8933    9.4167   51.1797 C   0  0  0  0  0  0  0  0  0  0  0  0
   28.4411    8.8369   52.3521 O   0  0  0  0  0  0  0  0  0  0  0  0
   28.2648    9.6775   57.0363 O   0  0  0  0  0  0  0  0  0  0  0  0
   28.1245    9.0652   58.2806 C   0  0  0  0  0  0  0  0  0  0  0  0
   29.6880    9.6231   54.7332 O   0  0  0  0  0  0  0  0  0  0  0  0
   30.1104   10.9393   54.4190 C   0  0  0  0  0  0  0  0  0  0  0  0
   20.4537    7.7143   51.9678 S   0  0  0  0  0  0  0  0  0  0  0  0
   19.5023    8.8448   51.7183 O   0  0  0  0  0  0  0  0  0  0  0  0
   20.9778    7.2267   50.6634 O   0  0  0  0  0  0  0  0  0  0  0  0
   19.4995    6.4201   52.6976 C   0  0  0  0  0  0  0  0  0  0  0  0
   19.9432    5.1414   52.8126 C   0  0  0  0  0  0  0  0  0  0  0  0
   19.1191    4.1855   53.4042 C   0  0  0  0  0  0  0  0  0  0  0  0
   17.8748    4.5250   53.8664 C   0  0  0  0  0  0  0  0  0  0  0  0
   17.4397    5.8089   53.7464 C   0  0  0  0  0  0  0  0  0  0  0  0
   18.2516    6.7575   53.1619 C   0  0  0  0  0  0  0  0  0  0  0  0
   17.0681    3.5779   54.4483 O   0  0  0  0  0  0  0  0  0  0  0  0
   15.6737    3.6595   54.3249 C   0  0  0  0  0  0  0  0  0  0  0  0
 23 24  1  0  0  0
 24 17  1  0  0  0
 17 18  2  0  0  0
 18 19  1  0  0  0
 19 20  2  0  0  0
 20 21  1  0  0  0
 21 25  1  0  0  0
 25 26  1  0  0  0
 21 22  2  0  0  0
 22 27  1  0  0  0
 27 28  1  0  0  0
 19 13  1  0  0  0
 13 14  2  0  0  0
 13 15  1  0  0  0
 15  1  1  0  0  0
  1  2  1  0  0  0
  2  3  1  0  0  0
  3  4  1  0  0  0
  4  5  1  0  0  0
  5  6  1  0  0  0
  6  7  2  0  0  0
  7  8  1  0  0  0
  8  9  2  0  0  0
  9 10  1  0  0  0
  9 11  1  0  0  0
 11 12  2  0  0  0
  3 29  1  0  0  0
 29 30  2  0  0  0
 29 31  2  0  0  0
 29 32  1  0  0  0
 32 33  2  0  0  0
 33 34  1  0  0  0
 34 35  2  0  0  0
 35 38  1  0  0  0
 38 39  1  0  0  0
 35 36  1  0  0  0
 36 37  2  0  0  0
 22 17  1  0  0  0
  5  1  1  0  0  0
 12  6  1  0  0  0
 37 32  1  0  0  0
 15 16  1  0  0  0
M  END
> <minimizedAffinity>
37.87500

> <CNNscore>
0.3470958769

> <CNNaffinity>
6.1603231430

> <CNN_VS>
2.1382226944

> <CNNaffinity_variance>
0.4635601938

$$$$
[H]c1c([H])c([C@]2([H])C([H])([H])N(S(=O)(=O)c3c([H])c([H])c(OC([H])([H])[H])c([H])c3[H])C([H])([H])[C@]2([H])N([H])C(=O)c2c([H])c(OC([H])([H])[H])c(OC([H])([H])[H])c(OC([H])([H])[H])c2[H])c([H])c([H])c1F


 39 42  0  0  0  0  0  0  0  0999 V2000
   23.1733    7.7823   54.6735 C   0  0  0  0  0  0  0  0  0  0  0  0
   24.5685    7.2611   55.0666 C   0  0  0  0  0  0  0  0  0  0  0  0
   25.2202    6.9710   53.8190 N   0  0  0  0  0  0  0  0  0  0  0  0
   24.4336    7.5125   52.7390 C   0  0  0  0  0  0  0  0  0  0  0  0
   23.5895    8.5489   53.4406 C   0  0  0  0  0  0  0  0  0  0  0  0
   22.5232    9.1170   52.6433 C   0  0  0  0  0  0  0  0  0  0  0  0
   22.2131   10.4458   52.7016 C   0  0  0  0  0  0  0  0  0  0  0  0
   21.1896   11.0035   51.9316 C   0  0  0  0  0  0  0  0  0  0  0  0
   20.4638   10.2123   51.0876 C   0  0  0  0  0  0  0  0  0  0  0  0
   19.4563   10.7616   50.3302 F   0  0  0  0  0  0  0  0  0  0  0  0
   20.7571    8.8716   51.0116 C   0  0  0  0  0  0  0  0  0  0  0  0
   21.7864    8.3289   51.7902 C   0  0  0  0  0  0  0  0  0  0  0  0
   21.0003    6.6507   54.1266 C   0  0  0  0  0  0  0  0  0  0  0  0
   20.4395    7.7724   54.1892 O   0  0  0  0  0  0  0  0  0  0  0  0
   22.3904    6.5821   54.3623 N   0  0  0  0  0  0  0  0  0  0  0  0
   22.8459    5.6472   54.3130 H   0  0  0  0  0  0  0  0  0  0  0  0
   18.0588    4.3695   53.8303 C   0  0  0  0  0  0  0  0  0  0  0  0
   18.8408    5.4650   54.1119 C   0  0  0  0  0  0  0  0  0  0  0  0
   20.2111    5.4892   53.8198 C   0  0  0  0  0  0  0  0  0  0  0  0
   20.7307    4.3636   53.2386 C   0  0  0  0  0  0  0  0  0  0  0  0
   19.9605    3.2369   52.9414 C   0  0  0  0  0  0  0  0  0  0  0  0
   18.6156    3.2480   53.2427 C   0  0  0  0  0  0  0  0  0  0  0  0
   16.2539    3.7461   55.3174 C   0  0  0  0  0  0  0  0  0  0  0  0
   16.7083    4.3750   54.1305 O   0  0  0  0  0  0  0  0  0  0  0  0
   20.5011    2.1080   52.3543 O   0  0  0  0  0  0  0  0  0  0  0  0
   21.0261    1.0150   53.0417 C   0  0  0  0  0  0  0  0  0  0  0  0
   17.8574    2.1153   52.9404 O   0  0  0  0  0  0  0  0  0  0  0  0
   16.5885    2.2112   52.3158 C   0  0  0  0  0  0  0  0  0  0  0  0
   26.7982    7.6589   53.7204 S   0  0  0  0  0  0  0  0  0  0  0  0
   27.8559    6.6026   53.6161 O   0  0  0  0  0  0  0  0  0  0  0  0
   26.9207    8.5820   52.5597 O   0  0  0  0  0  0  0  0  0  0  0  0
   27.1558    8.5700   55.1901 C   0  0  0  0  0  0  0  0  0  0  0  0
   26.1952    9.1126   55.9825 C   0  0  0  0  0  0  0  0  0  0  0  0
   26.5725    9.8161   57.1251 C   0  0  0  0  0  0  0  0  0  0  0  0
   27.8953    9.9623   57.4509 C   0  0  0  0  0  0  0  0  0  0  0  0
   28.8500    9.4149   56.6503 C   0  0  0  0  0  0  0  0  0  0  0  0
   28.4811    8.7183   55.5193 C   0  0  0  0  0  0  0  0  0  0  0  0
   28.2599   10.6569   58.5784 O   0  0  0  0  0  0  0  0  0  0  0  0
   29.0201   10.0366   59.5802 C   0  0  0  0  0  0  0  0  0  0  0  0
 23 24  1  0  0  0
 24 17  1  0  0  0
 17 18  2  0  0  0
 18 19  1  0  0  0
 19 20  2  0  0  0
 20 21  1  0  0  0
 21 25  1  0  0  0
 25 26  1  0  0  0
 21 22  2  0  0  0
 22 27  1  0  0  0
 27 28  1  0  0  0
 19 13  1  0  0  0
 13 14  2  0  0  0
 13 15  1  0  0  0
 15  1  1  0  0  0
  1  2  1  0  0  0
  2  3  1  0  0  0
  3  4  1  0  0  0
  4  5  1  0  0  0
  5  6  1  0  0  0
  6  7  2  0  0  0
  7  8  1  0  0  0
  8  9  2  0  0  0
  9 10  1  0  0  0
  9 11  1  0  0  0
 11 12  2  0  0  0
  3 29  1  0  0  0
 29 30  2  0  0  0
 29 31  2  0  0  0
 29 32  1  0  0  0
 32 33  2  0  0  0
 33 34  1  0  0  0
 34 35  2  0  0  0
 35 38  1  0  0  0
 38 39  1  0  0  0
 35 36  1  0  0  0
 36 37  2  0  0  0
 22 17  1  0  0  0
  5  1  1  0  0  0
 12  6  1  0  0  0
 37 32  1  0  0  0
 15 16  1  0  0  0
M  END
> <minimizedAffinity>
35.72413

> <CNNscore>
0.3428992927

> <CNNaffinity>
6.3245477676

> <CNN_VS>
2.1686830521

> <CNNaffinity_variance>
0.3995186090

$$$$
[H]c1c([H])c([C@]2([H])C([H])([H])N(S(=O)(=O)c3c([H])c([H])c(OC([H])([H])[H])c([H])c3[H])C([H])([H])[C@]2([H])N([H])C(=O)c2c([H])c(OC([H])([H])[H])c(OC([H])([H])[H])c(OC([H])([H])[H])c2[H])c([H])c([H])c1F


 39 42  0  0  0  0  0  0  0  0999 V2000
   23.1655    7.7905   54.6746 C   0  0  0  0  0  0  0  0  0  0  0  0
   24.5574    7.2588   55.0652 C   0  0  0  0  0  0  0  0  0  0  0  0
   25.2016    6.9559   53.8166 N   0  0  0  0  0  0  0  0  0  0  0  0
   24.4157    7.4987   52.7367 C   0  0  0  0  0  0  0  0  0  0  0  0
   23.5838    8.5466   53.4359 C   0  0  0  0  0  0  0  0  0  0  0  0
   22.5196    9.1199   52.6396 C   0  0  0  0  0  0  0  0  0  0  0  0
   22.2174   10.4506   52.6969 C   0  0  0  0  0  0  0  0  0  0  0  0
   21.1959   11.0134   51.9279 C   0  0  0  0  0  0  0  0  0  0  0  0
   20.4641   10.2255   51.0859 C   0  0  0  0  0  0  0  0  0  0  0  0
   19.4586   10.7798   50.3296 F   0  0  0  0  0  0  0  0  0  0  0  0
   20.7494    8.8830   51.0111 C   0  0  0  0  0  0  0  0  0  0  0  0
   21.7767    8.3352   51.7887 C   0  0  0  0  0  0  0  0  0  0  0  0
   20.9816    6.6768   54.1345 C   0  0  0  0  0  0  0  0  0  0  0  0
   20.4324    7.8048   54.1862 O   0  0  0  0  0  0  0  0  0  0  0  0
   22.3705    6.5958   54.3730 N   0  0  0  0  0  0  0  0  0  0  0  0
   22.8162    5.6557   54.3329 H   0  0  0  0  0  0  0  0  0  0  0  0
   20.0121    3.2826   52.9162 C   0  0  0  0  0  0  0  0  0  0  0  0
   20.7514    4.4034   53.2135 C   0  0  0  0  0  0  0  0  0  0  0  0
   20.1806    5.5209   53.8371 C   0  0  0  0  0  0  0  0  0  0  0  0
   18.8468    5.4380   54.1351 C   0  0  0  0  0  0  0  0  0  0  0  0
   18.0716    4.3128   53.8449 C   0  0  0  0  0  0  0  0  0  0  0  0
   18.6662    3.2316   53.2310 C   0  0  0  0  0  0  0  0  0  0  0  0
   20.9863    1.0730   53.0791 C   0  0  0  0  0  0  0  0  0  0  0  0
   20.6037    2.1944   52.3000 O   0  0  0  0  0  0  0  0  0  0  0  0
   16.7255    4.2454   54.1527 O   0  0  0  0  0  0  0  0  0  0  0  0
   16.1950    3.7539   55.3443 C   0  0  0  0  0  0  0  0  0  0  0  0
   17.8801    2.1135   52.9466 O   0  0  0  0  0  0  0  0  0  0  0  0
   16.6193    2.2299   52.3090 C   0  0  0  0  0  0  0  0  0  0  0  0
   26.7853    7.6290   53.7080 S   0  0  0  0  0  0  0  0  0  0  0  0
   27.8340    6.5623   53.6194 O   0  0  0  0  0  0  0  0  0  0  0  0
   26.9157    8.5337   52.5340 O   0  0  0  0  0  0  0  0  0  0  0  0
   27.1506    8.5585   55.1642 C   0  0  0  0  0  0  0  0  0  0  0  0
   26.1988    8.9840   56.0348 C   0  0  0  0  0  0  0  0  0  0  0  0
   26.5817    9.7128   57.1596 C   0  0  0  0  0  0  0  0  0  0  0  0
   27.9014   10.0002   57.3902 C   0  0  0  0  0  0  0  0  0  0  0  0
   28.8473    9.5694   56.5118 C   0  0  0  0  0  0  0  0  0  0  0  0
   28.4728    8.8482   55.3981 C   0  0  0  0  0  0  0  0  0  0  0  0
   28.2716   10.7188   58.5006 O   0  0  0  0  0  0  0  0  0  0  0  0
   28.9839   10.1037   59.5400 C   0  0  0  0  0  0  0  0  0  0  0  0
 23 24  1  0  0  0
 24 17  1  0  0  0
 17 18  2  0  0  0
 18 19  1  0  0  0
 19 20  2  0  0  0
 20 21  1  0  0  0
 21 25  1  0  0  0
 25 26  1  0  0  0
 21 22  2  0  0  0
 22 27  1  0  0  0
 27 28  1  0  0  0
 19 13  1  0  0  0
 13 14  2  0  0  0
 13 15  1  0  0  0
 15  1  1  0  0  0
  1  2  1  0  0  0
  2  3  1  0  0  0
  3  4  1  0  0  0
  4  5  1  0  0  0
  5  6  1  0  0  0
  6  7  2  0  0  0
  7  8  1  0  0  0
  8  9  2  0  0  0
  9 10  1  0  0  0
  9 11  1  0  0  0
 11 12  2  0  0  0
  3 29  1  0  0  0
 29 30  2  0  0  0
 29 31  2  0  0  0
 29 32  1  0  0  0
 32 33  2  0  0  0
 33 34  1  0  0  0
 34 35  2  0  0  0
 35 38  1  0  0  0
 38 39  1  0  0  0
 35 36  1  0  0  0
 36 37  2  0  0  0
 22 17  1  0  0  0
  5  1  1  0  0  0
 12  6  1  0  0  0
 37 32  1  0  0  0
 15 16  1  0  0  0
M  END
> <minimizedAffinity>
35.98038

> <CNNscore>
0.3381900191

> <CNNaffinity>
6.3027992249

> <CNN_VS>
2.1315438747

> <CNNaffinity_variance>
0.4122737944

$$$$
[H]c1c([H])c([C@]2([H])C([H])([H])N(S(=O)(=O)c3c([H])c([H])c(OC([H])([H])[H])c([H])c3[H])C([H])([H])[C@]2([H])N([H])C(=O)c2c([H])c(OC([H])([H])[H])c(OC([H])([H])[H])c(OC([H])([H])[H])c2[H])c([H])c([H])c1F


 39 42  0  0  0  0  0  0  0  0999 V2000
   22.7984    8.0954   55.1535 C   0  0  0  0  0  0  0  0  0  0  0  0
   24.0993    7.5990   55.8123 C   0  0  0  0  0  0  0  0  0  0  0  0
   24.9874    7.3238   54.7164 N   0  0  0  0  0  0  0  0  0  0  0  0
   24.4170    7.8533   53.5028 C   0  0  0  0  0  0  0  0  0  0  0  0
   23.4331    8.8724   54.0246 C   0  0  0  0  0  0  0  0  0  0  0  0
   22.5328    9.4226   53.0336 C   0  0  0  0  0  0  0  0  0  0  0  0
   22.2275   10.7534   53.0014 C   0  0  0  0  0  0  0  0  0  0  0  0
   21.3642   11.2938   52.0453 C   0  0  0  0  0  0  0  0  0  0  0  0
   20.7966   10.4830   51.1042 C   0  0  0  0  0  0  0  0  0  0  0  0
   19.9468   11.0152   50.1637 F   0  0  0  0  0  0  0  0  0  0  0  0
   21.0885    9.1399   51.1164 C   0  0  0  0  0  0  0  0  0  0  0  0
   21.9560    8.6146   52.0816 C   0  0  0  0  0  0  0  0  0  0  0  0
   20.7314    6.8799   54.4110 C   0  0  0  0  0  0  0  0  0  0  0  0
   20.0908    7.9499   54.5567 O   0  0  0  0  0  0  0  0  0  0  0  0
   22.1136    6.8818   54.6970 N   0  0  0  0  0  0  0  0  0  0  0  0
   22.6355    5.9887   54.5779 H   0  0  0  0  0  0  0  0  0  0  0  0
   17.9635    4.4642   53.7416 C   0  0  0  0  0  0  0  0  0  0  0  0
   18.6560    5.5763   54.1596 C   0  0  0  0  0  0  0  0  0  0  0  0
   20.0374    5.7038   53.9623 C   0  0  0  0  0  0  0  0  0  0  0  0
   20.6619    4.6617   53.3307 C   0  0  0  0  0  0  0  0  0  0  0  0
   19.9841    3.5205   52.8956 C   0  0  0  0  0  0  0  0  0  0  0  0
   18.6252    3.4289   53.1064 C   0  0  0  0  0  0  0  0  0  0  0  0
   16.1159    3.8679   55.1867 C   0  0  0  0  0  0  0  0  0  0  0  0
   16.5994    4.3668   53.9506 O   0  0  0  0  0  0  0  0  0  0  0  0
   20.6302    2.4769   52.2592 O   0  0  0  0  0  0  0  0  0  0  0  0
   20.9934    1.2706   52.8556 C   0  0  0  0  0  0  0  0  0  0  0  0
   17.9601    2.2830   52.6665 O   0  0  0  0  0  0  0  0  0  0  0  0
   16.5500    2.2457   52.5260 C   0  0  0  0  0  0  0  0  0  0  0  0
   26.5412    8.0409   54.9268 S   0  0  0  0  0  0  0  0  0  0  0  0
   26.4956    9.1841   55.8946 O   0  0  0  0  0  0  0  0  0  0  0  0
   27.5427    7.0471   55.3996 O   0  0  0  0  0  0  0  0  0  0  0  0
   27.1112    8.7136   53.3969 C   0  0  0  0  0  0  0  0  0  0  0  0
   26.4922    8.4910   52.2085 C   0  0  0  0  0  0  0  0  0  0  0  0
   27.0149    9.0647   51.0507 C   0  0  0  0  0  0  0  0  0  0  0  0
   28.1398    9.8451   51.1037 C   0  0  0  0  0  0  0  0  0  0  0  0
   28.7525   10.0620   52.2994 C   0  0  0  0  0  0  0  0  0  0  0  0
   28.2388    9.4965   53.4470 C   0  0  0  0  0  0  0  0  0  0  0  0
   28.6493   10.4072   49.9588 O   0  0  0  0  0  0  0  0  0  0  0  0
   28.3325    9.8712   48.7024 C   0  0  0  0  0  0  0  0  0  0  0  0
 23 24  1  0  0  0
 24 17  1  0  0  0
 17 18  2  0  0  0
 18 19  1  0  0  0
 19 20  2  0  0  0
 20 21  1  0  0  0
 21 25  1  0  0  0
 25 26  1  0  0  0
 21 22  2  0  0  0
 22 27  1  0  0  0
 27 28  1  0  0  0
 19 13  1  0  0  0
 13 14  2  0  0  0
 13 15  1  0  0  0
 15  1  1  0  0  0
  1  2  1  0  0  0
  2  3  1  0  0  0
  3  4  1  0  0  0
  4  5  1  0  0  0
  5  6  1  0  0  0
  6  7  2  0  0  0
  7  8  1  0  0  0
  8  9  2  0  0  0
  9 10  1  0  0  0
  9 11  1  0  0  0
 11 12  2  0  0  0
  3 29  1  0  0  0
 29 30  2  0  0  0
 29 31  2  0  0  0
 29 32  1  0  0  0
 32 33  2  0  0  0
 33 34  1  0  0  0
 34 35  2  0  0  0
 35 38  1  0  0  0
 38 39  1  0  0  0
 35 36  1  0  0  0
 36 37  2  0  0  0
 22 17  1  0  0  0
  5  1  1  0  0  0
 12  6  1  0  0  0
 37 32  1  0  0  0
 15 16  1  0  0  0
M  END
> <minimizedAffinity>
47.98993

> <CNNscore>
0.3228588998

> <CNNaffinity>
6.2718338966

> <CNN_VS>
2.0249173641

> <CNNaffinity_variance>
0.5271929502

$$$$
[H]c1c(Cl)c([H])c2c(C3=C(c4c([H])n([H])c5c([H])c([H])c([H])c([H])c45)C(=O)N([H])C3=O)nc(N3C([H])([H])C([H])([H])N(C([H])([H])[H])C([H])([H])C3([H])[H])nc2c1[H]


 36 41  0  0  0  0  0  0  0  0999 V2000
   25.1787    9.5509   56.2493 C   0  0  0  0  0  0  0  0  0  0  0  0
   25.2818    8.5751   55.3436 N   0  0  0  0  0  0  0  0  0  0  0  0
   24.1827    8.0935   54.6826 C   0  0  0  0  0  0  0  0  0  0  0  0
   22.9721    8.6619   55.0016 C   0  0  0  0  0  0  0  0  0  0  0  0
   21.8196    8.2075   54.4056 C   0  0  0  0  0  0  0  0  0  0  0  0
   20.6146    8.7943   54.7752 C   0  0  0  0  0  0  0  0  0  0  0  0
   19.1694    8.1868   53.9888 Cl  0  0  0  0  0  0  0  0  0  0  0  0
   20.5187    9.8047   55.7077 C   0  0  0  0  0  0  0  0  0  0  0  0
   21.6750   10.2592   56.3095 C   0  0  0  0  0  0  0  0  0  0  0  0
   22.8645    9.6795   55.9450 C   0  0  0  0  0  0  0  0  0  0  0  0
   23.9769   10.1054   56.5523 N   0  0  0  0  0  0  0  0  0  0  0  0
   24.3624    7.0388   53.6898 C   0  0  0  0  0  0  0  0  0  0  0  0
   23.5921    6.8303   52.6176 C   0  0  0  0  0  0  0  0  0  0  0  0
   24.1136    5.6477   51.8754 C   0  0  0  0  0  0  0  0  0  0  0  0
   23.5923    5.2029   50.8030 O   0  0  0  0  0  0  0  0  0  0  0  0
   25.2381    5.1498   52.5634 N   0  0  0  0  0  0  0  0  0  0  0  0
   25.4073    5.9926   53.6877 C   0  0  0  0  0  0  0  0  0  0  0  0
   26.2986    5.9008   54.5836 O   0  0  0  0  0  0  0  0  0  0  0  0
   25.8350    4.3444   52.3268 H   0  0  0  0  0  0  0  0  0  0  0  0
   22.4357    7.5662   52.1366 C   0  0  0  0  0  0  0  0  0  0  0  0
   21.3065    6.9785   51.5427 C   0  0  0  0  0  0  0  0  0  0  0  0
   20.4383    7.9320   51.1779 N   0  0  0  0  0  0  0  0  0  0  0  0
   20.9606    9.1168   51.5111 C   0  0  0  0  0  0  0  0  0  0  0  0
   20.4319   10.3811   51.3197 C   0  0  0  0  0  0  0  0  0  0  0  0
   21.1655   11.4738   51.7352 C   0  0  0  0  0  0  0  0  0  0  0  0
   22.3959   11.2807   52.3248 C   0  0  0  0  0  0  0  0  0  0  0  0
   22.9237   10.0197   52.5163 C   0  0  0  0  0  0  0  0  0  0  0  0
   22.2122    8.9122   52.1126 C   0  0  0  0  0  0  0  0  0  0  0  0
   19.5184    7.7811   50.7162 H   0  0  0  0  0  0  0  0  0  0  0  0
   29.2370   11.8473   59.0812 C   0  0  0  0  0  0  0  0  0  0  0  0
   28.7520   11.0959   57.9538 N   0  0  0  0  0  0  0  0  0  0  0  0
   27.9173   11.8337   57.0666 C   0  0  0  0  0  0  0  0  0  0  0  0
   26.4540   11.4708   57.2523 C   0  0  0  0  0  0  0  0  0  0  0  0
   26.2965   10.0715   56.9488 N   0  0  0  0  0  0  0  0  0  0  0  0
   27.3274    9.1558   57.3763 C   0  0  0  0  0  0  0  0  0  0  0  0
   28.3267    9.7789   58.2895 C   0  0  0  0  0  0  0  0  0  0  0  0
 30 31  1  0  0  0
 31 32  1  0  0  0
 32 33  1  0  0  0
 33 34  1  0  0  0
 34 35  1  0  0  0
 35 36  1  0  0  0
 34  1  1  0  0  0
  1  2  2  0  0  0
  2  3  1  0  0  0
  3 12  1  0  0  0
 12 13  2  0  0  0
 13 14  1  0  0  0
 14 15  2  0  0  0
 14 16  1  0  0  0
 16 17  1  0  0  0
 17 18  2  0  0  0
 13 20  1  0  0  0
 20 21  2  0  0  0
 21 22  1  0  0  0
 22 23  1  0  0  0
 23 24  2  0  0  0
 24 25  1  0  0  0
 25 26  2  0  0  0
 26 27  1  0  0  0
 27 28  2  0  0  0
  3  4  2  0  0  0
  4  5  1  0  0  0
  5  6  2  0  0  0
  6  7  1  0  0  0
  6  8  1  0  0  0
  8  9  2  0  0  0
  9 10  1  0  0  0
 10 11  2  0  0  0
 36 31  1  0  0  0
 11  1  1  0  0  0
 17 12  1  0  0  0
 28 20  1  0  0  0
 10  4  1  0  0  0
 28 23  1  0  0  0
 16 19  1  0  0  0
 22 29  1  0  0  0
M  END
> <minimizedAffinity>
53.81356

> <CNNscore>
0.3007796705

> <CNNaffinity>
6.2559986115

> <CNN_VS>
1.8816771507

> <CNNaffinity_variance>
1.7733625174

$$$$
[H]c1c(Cl)c([H])c2c(C3=C(c4c([H])n([H])c5c([H])c([H])c([H])c([H])c45)C(=O)N([H])C3=O)nc(N3C([H])([H])C([H])([H])N(C([H])([H])[H])C([H])([H])C3([H])[H])nc2c1[H]


 36 41  0  0  0  0  0  0  0  0999 V2000
   27.2467    8.9170   51.9464 C   0  0  0  0  0  0  0  0  0  0  0  0
   26.1576    8.2059   52.2488 N   0  0  0  0  0  0  0  0  0  0  0  0
   25.7742    8.0022   53.5481 C   0  0  0  0  0  0  0  0  0  0  0  0
   26.5678    8.5622   54.5212 C   0  0  0  0  0  0  0  0  0  0  0  0
   26.2671    8.3720   55.8491 C   0  0  0  0  0  0  0  0  0  0  0  0
   27.1099    8.9362   56.8000 C   0  0  0  0  0  0  0  0  0  0  0  0
   26.6881    8.6715   58.4817 Cl  0  0  0  0  0  0  0  0  0  0  0  0
   28.2294    9.6730   56.4781 C   0  0  0  0  0  0  0  0  0  0  0  0
   28.5344    9.8616   55.1449 C   0  0  0  0  0  0  0  0  0  0  0  0
   27.7026    9.3041   54.2063 C   0  0  0  0  0  0  0  0  0  0  0  0
   28.0197    9.4672   52.9176 N   0  0  0  0  0  0  0  0  0  0  0  0
   24.5633    7.2318   53.8140 C   0  0  0  0  0  0  0  0  0  0  0  0
   23.3586    7.7361   54.0984 C   0  0  0  0  0  0  0  0  0  0  0  0
   22.4061    6.6099   54.3124 C   0  0  0  0  0  0  0  0  0  0  0  0
   21.1758    6.7717   54.5947 O   0  0  0  0  0  0  0  0  0  0  0  0
   23.1049    5.3973   54.1478 N   0  0  0  0  0  0  0  0  0  0  0  0
   24.4387    5.7588   53.8423 C   0  0  0  0  0  0  0  0  0  0  0  0
   25.4109    4.9761   53.6237 O   0  0  0  0  0  0  0  0  0  0  0  0
   22.7515    4.4330   54.2259 H   0  0  0  0  0  0  0  0  0  0  0  0
   22.9185    9.1173   54.1916 C   0  0  0  0  0  0  0  0  0  0  0  0
   22.9937    9.9018   55.3543 C   0  0  0  0  0  0  0  0  0  0  0  0
   22.4731   11.1138   55.1177 N   0  0  0  0  0  0  0  0  0  0  0  0
   22.0616   11.1465   53.8461 C   0  0  0  0  0  0  0  0  0  0  0  0
   21.4515   12.1813   53.1595 C   0  0  0  0  0  0  0  0  0  0  0  0
   21.0959   11.9802   51.8411 C   0  0  0  0  0  0  0  0  0  0  0  0
   21.3544   10.7645   51.2463 C   0  0  0  0  0  0  0  0  0  0  0  0
   21.9634    9.7319   51.9307 C   0  0  0  0  0  0  0  0  0  0  0  0
   22.3299    9.9061   53.2464 C   0  0  0  0  0  0  0  0  0  0  0  0
   22.4000   11.8950   55.8008 H   0  0  0  0  0  0  0  0  0  0  0  0
   28.6613    9.4706   46.7066 C   0  0  0  0  0  0  0  0  0  0  0  0
   28.9325    9.6296   48.1109 N   0  0  0  0  0  0  0  0  0  0  0  0
   29.0852    8.4073   48.8256 C   0  0  0  0  0  0  0  0  0  0  0  0
   27.8498    8.0899   49.6507 C   0  0  0  0  0  0  0  0  0  0  0  0
   27.6688    9.1467   50.6126 N   0  0  0  0  0  0  0  0  0  0  0  0
   27.9314   10.5046   50.1989 C   0  0  0  0  0  0  0  0  0  0  0  0
   28.1450   10.6416   48.7304 C   0  0  0  0  0  0  0  0  0  0  0  0
 30 31  1  0  0  0
 31 32  1  0  0  0
 32 33  1  0  0  0
 33 34  1  0  0  0
 34 35  1  0  0  0
 35 36  1  0  0  0
 34  1  1  0  0  0
  1  2  2  0  0  0
  2  3  1  0  0  0
  3 12  1  0  0  0
 12 13  2  0  0  0
 13 14  1  0  0  0
 14 15  2  0  0  0
 14 16  1  0  0  0
 16 17  1  0  0  0
 17 18  2  0  0  0
 13 20  1  0  0  0
 20 21  2  0  0  0
 21 22  1  0  0  0
 22 23  1  0  0  0
 23 24  2  0  0  0
 24 25  1  0  0  0
 25 26  2  0  0  0
 26 27  1  0  0  0
 27 28  2  0  0  0
  3  4  2  0  0  0
  4  5  1  0  0  0
  5  6  2  0  0  0
  6  7  1  0  0  0
  6  8  1  0  0  0
  8  9  2  0  0  0
  9 10  1  0  0  0
 10 11  2  0  0  0
 36 31  1  0  0  0
 11  1  1  0  0  0
 17 12  1  0  0  0
 28 20  1  0  0  0
 10  4  1  0  0  0
 28 23  1  0  0  0
 16 19  1  0  0  0
 22 29  1  0  0  0
M  END
> <minimizedAffinity>
44.56937

> <CNNscore>
0.2828205526

> <CNNaffinity>
6.2194161415

> <CNN_VS>
1.7589787245

> <CNNaffinity_variance>
0.3969876170

$$$$
[H]c1c(Cl)c([H])c2c(C3=C(c4c([H])n([H])c5c([H])c([H])c([H])c([H])c45)C(=O)N([H])C3=O)nc(N3C([H])([H])C([H])([H])N(C([H])([H])[H])C([H])([H])C3([H])[H])nc2c1[H]


 36 41  0  0  0  0  0  0  0  0999 V2000
   20.1387    6.6049   53.8858 C   0  0  0  0  0  0  0  0  0  0  0  0
   21.4003    6.3209   53.5529 N   0  0  0  0  0  0  0  0  0  0  0  0
   22.3938    7.2593   53.6480 C   0  0  0  0  0  0  0  0  0  0  0  0
   22.0257    8.5050   54.0985 C   0  0  0  0  0  0  0  0  0  0  0  0
   22.9604    9.5091   54.1878 C   0  0  0  0  0  0  0  0  0  0  0  0
   22.5399   10.7599   54.6255 C   0  0  0  0  0  0  0  0  0  0  0  0
   23.7648   12.0111   54.7271 Cl  0  0  0  0  0  0  0  0  0  0  0  0
   21.2360   11.0423   54.9717 C   0  0  0  0  0  0  0  0  0  0  0  0
   20.2958   10.0357   54.8790 C   0  0  0  0  0  0  0  0  0  0  0  0
   20.7110    8.8011   54.4464 C   0  0  0  0  0  0  0  0  0  0  0  0
   19.7897    7.8388   54.3324 N   0  0  0  0  0  0  0  0  0  0  0  0
   23.7571    6.8826   53.2873 C   0  0  0  0  0  0  0  0  0  0  0  0
   24.8741    7.3131   53.8818 C   0  0  0  0  0  0  0  0  0  0  0  0
   26.0477    6.6971   53.2003 C   0  0  0  0  0  0  0  0  0  0  0  0
   27.2542    6.9110   53.5440 O   0  0  0  0  0  0  0  0  0  0  0  0
   25.5769    5.8757   52.1565 N   0  0  0  0  0  0  0  0  0  0  0  0
   24.1658    5.9781   52.1913 C   0  0  0  0  0  0  0  0  0  0  0  0
   23.3394    5.4056   51.4199 O   0  0  0  0  0  0  0  0  0  0  0  0
   26.1172    5.3065   51.4894 H   0  0  0  0  0  0  0  0  0  0  0  0
   25.0490    8.2062   55.0141 C   0  0  0  0  0  0  0  0  0  0  0  0
   24.0014    8.7073   55.8043 C   0  0  0  0  0  0  0  0  0  0  0  0
   24.4936    9.5299   56.7408 N   0  0  0  0  0  0  0  0  0  0  0  0
   25.8208    9.5832   56.5887 C   0  0  0  0  0  0  0  0  0  0  0  0
   26.7474   10.3096   57.3156 C   0  0  0  0  0  0  0  0  0  0  0  0
   28.0792   10.2205   56.9644 C   0  0  0  0  0  0  0  0  0  0  0  0
   28.4502    9.4179   55.9075 C   0  0  0  0  0  0  0  0  0  0  0  0
   27.5262    8.6928   55.1823 C   0  0  0  0  0  0  0  0  0  0  0  0
   26.1913    8.7621   55.5123 C   0  0  0  0  0  0  0  0  0  0  0  0
   23.9431   10.0395   57.4614 H   0  0  0  0  0  0  0  0  0  0  0  0
   15.8881    3.2284   53.3432 C   0  0  0  0  0  0  0  0  0  0  0  0
   17.0253    3.7186   54.0763 N   0  0  0  0  0  0  0  0  0  0  0  0
   16.8925    5.0553   54.5490 C   0  0  0  0  0  0  0  0  0  0  0  0
   17.6998    6.0249   53.7030 C   0  0  0  0  0  0  0  0  0  0  0  0
   19.0888    5.6561   53.7998 N   0  0  0  0  0  0  0  0  0  0  0  0
   19.4277    4.2529   53.8115 C   0  0  0  0  0  0  0  0  0  0  0  0
   18.2742    3.3660   53.4897 C   0  0  0  0  0  0  0  0  0  0  0  0
 30 31  1  0  0  0
 31 32  1  0  0  0
 32 33  1  0  0  0
 33 34  1  0  0  0
 34 35  1  0  0  0
 35 36  1  0  0  0
 34  1  1  0  0  0
  1  2  2  0  0  0
  2  3  1  0  0  0
  3 12  1  0  0  0
 12 13  2  0  0  0
 13 14  1  0  0  0
 14 15  2  0  0  0
 14 16  1  0  0  0
 16 17  1  0  0  0
 17 18  2  0  0  0
 13 20  1  0  0  0
 20 21  2  0  0  0
 21 22  1  0  0  0
 22 23  1  0  0  0
 23 24  2  0  0  0
 24 25  1  0  0  0
 25 26  2  0  0  0
 26 27  1  0  0  0
 27 28  2  0  0  0
  3  4  2  0  0  0
  4  5  1  0  0  0
  5  6  2  0  0  0
  6  7  1  0  0  0
  6  8  1  0  0  0
  8  9  2  0  0  0
  9 10  1  0  0  0
 10 11  2  0  0  0
 36 31  1  0  0  0
 11  1  1  0  0  0
 17 12  1  0  0  0
 28 20  1  0  0  0
 10  4  1  0  0  0
 28 23  1  0  0  0
 16 19  1  0  0  0
 22 29  1  0  0  0
M  END
> <minimizedAffinity>
55.34727

> <CNNscore>
0.2767646313

> <CNNaffinity>
6.2160305977

> <CNN_VS>
1.7203774452

> <CNNaffinity_variance>
1.4748836756

$$$$
[H]c1c(Cl)c([H])c2c(C3=C(c4c([H])n([H])c5c([H])c([H])c([H])c([H])c45)C(=O)N([H])C3=O)nc(N3C([H])([H])C([H])([H])N(C([H])([H])[H])C([H])([H])C3([H])[H])nc2c1[H]


 36 41  0  0  0  0  0  0  0  0999 V2000
   19.9415    5.3193   53.4498 C   0  0  0  0  0  0  0  0  0  0  0  0
   19.9842    6.5805   53.0132 N   0  0  0  0  0  0  0  0  0  0  0  0
   21.1706    7.2530   52.8837 C   0  0  0  0  0  0  0  0  0  0  0  0
   22.3106    6.5662   53.2289 C   0  0  0  0  0  0  0  0  0  0  0  0
   23.5358    7.1859   53.1588 C   0  0  0  0  0  0  0  0  0  0  0  0
   24.6598    6.4620   53.5400 C   0  0  0  0  0  0  0  0  0  0  0  0
   26.2026    7.2893   53.4327 Cl  0  0  0  0  0  0  0  0  0  0  0  0
   24.6064    5.1585   53.9848 C   0  0  0  0  0  0  0  0  0  0  0  0
   23.3762    4.5364   54.0591 C   0  0  0  0  0  0  0  0  0  0  0  0
   22.2666    5.2514   53.6832 C   0  0  0  0  0  0  0  0  0  0  0  0
   21.0757    4.6519   53.7843 N   0  0  0  0  0  0  0  0  0  0  0  0
   21.1537    8.6239   52.3831 C   0  0  0  0  0  0  0  0  0  0  0  0
   21.5742    9.7066   53.0445 C   0  0  0  0  0  0  0  0  0  0  0  0
   21.3708   10.9045   52.1815 C   0  0  0  0  0  0  0  0  0  0  0  0
   21.6810   12.0875   52.5336 O   0  0  0  0  0  0  0  0  0  0  0  0
   20.7976   10.4852   50.9643 N   0  0  0  0  0  0  0  0  0  0  0  0
   20.6529    9.0813   51.0692 C   0  0  0  0  0  0  0  0  0  0  0  0
   20.1699    8.2964   50.1996 O   0  0  0  0  0  0  0  0  0  0  0  0
   20.5278   11.0531   50.1485 H   0  0  0  0  0  0  0  0  0  0  0  0
   22.1648    9.8272   54.3662 C   0  0  0  0  0  0  0  0  0  0  0  0
   21.4835   10.2859   55.5056 C   0  0  0  0  0  0  0  0  0  0  0  0
   22.3189   10.3122   56.5533 N   0  0  0  0  0  0  0  0  0  0  0  0
   23.5171    9.8890   56.1379 C   0  0  0  0  0  0  0  0  0  0  0  0
   24.6889    9.7595   56.8623 C   0  0  0  0  0  0  0  0  0  0  0  0
   25.8214    9.3125   56.2122 C   0  0  0  0  0  0  0  0  0  0  0  0
   25.7582    9.0092   54.8696 C   0  0  0  0  0  0  0  0  0  0  0  0
   24.5893    9.1377   54.1466 C   0  0  0  0  0  0  0  0  0  0  0  0
   23.4445    9.5801   54.7706 C   0  0  0  0  0  0  0  0  0  0  0  0
   22.0808   10.6091   57.5214 H   0  0  0  0  0  0  0  0  0  0  0  0
   15.5040    2.2162   54.1151 C   0  0  0  0  0  0  0  0  0  0  0  0
   16.2087    3.2880   53.4626 N   0  0  0  0  0  0  0  0  0  0  0  0
   17.3303    2.8734   52.6892 C   0  0  0  0  0  0  0  0  0  0  0  0
   18.6369    3.1712   53.4045 C   0  0  0  0  0  0  0  0  0  0  0  0
   18.7306    4.5961   53.5935 N   0  0  0  0  0  0  0  0  0  0  0  0
   17.5335    5.3226   53.9443 C   0  0  0  0  0  0  0  0  0  0  0  0
   16.3858    4.4358   54.2866 C   0  0  0  0  0  0  0  0  0  0  0  0
 30 31  1  0  0  0
 31 32  1  0  0  0
 32 33  1  0  0  0
 33 34  1  0  0  0
 34 35  1  0  0  0
 35 36  1  0  0  0
 34  1  1  0  0  0
  1  2  2  0  0  0
  2  3  1  0  0  0
  3 12  1  0  0  0
 12 13  2  0  0  0
 13 14  1  0  0  0
 14 15  2  0  0  0
 14 16  1  0  0  0
 16 17  1  0  0  0
 17 18  2  0  0  0
 13 20  1  0  0  0
 20 21  2  0  0  0
 21 22  1  0  0  0
 22 23  1  0  0  0
 23 24  2  0  0  0
 24 25  1  0  0  0
 25 26  2  0  0  0
 26 27  1  0  0  0
 27 28  2  0  0  0
  3  4  2  0  0  0
  4  5  1  0  0  0
  5  6  2  0  0  0
  6  7  1  0  0  0
  6  8  1  0  0  0
  8  9  2  0  0  0
  9 10  1  0  0  0
 10 11  2  0  0  0
 36 31  1  0  0  0
 11  1  1  0  0  0
 17 12  1  0  0  0
 28 20  1  0  0  0
 10  4  1  0  0  0
 28 23  1  0  0  0
 16 19  1  0  0  0
 22 29  1  0  0  0
M  END
> <minimizedAffinity>
43.25134

> <CNNscore>
0.2473826557

> <CNNaffinity>
6.5296072960

> <CNN_VS>
1.6153116226

> <CNNaffinity_variance>
1.1190155745

$$$$
[H]c1c(Cl)c([H])c2c(C3=C(c4c([H])n([H])c5c([H])c([H])c([H])c([H])c45)C(=O)N([H])C3=O)nc(N3C([H])([H])C([H])([H])N(C([H])([H])[H])C([H])([H])C3([H])[H])nc2c1[H]


 36 41  0  0  0  0  0  0  0  0999 V2000
   24.5996    7.6654   54.0991 C   0  0  0  0  0  0  0  0  0  0  0  0
   23.8333    8.1266   53.1075 N   0  0  0  0  0  0  0  0  0  0  0  0
   22.6419    7.5307   52.7877 C   0  0  0  0  0  0  0  0  0  0  0  0
   22.2792    6.4351   53.5349 C   0  0  0  0  0  0  0  0  0  0  0  0
   21.1142    5.7628   53.2508 C   0  0  0  0  0  0  0  0  0  0  0  0
   20.7979    4.6460   54.0160 C   0  0  0  0  0  0  0  0  0  0  0  0
   19.3019    3.8197   53.6219 Cl  0  0  0  0  0  0  0  0  0  0  0  0
   21.5930    4.1802   55.0410 C   0  0  0  0  0  0  0  0  0  0  0  0
   22.7649    4.8525   55.3249 C   0  0  0  0  0  0  0  0  0  0  0  0
   23.0773    5.9546   54.5690 C   0  0  0  0  0  0  0  0  0  0  0  0
   24.2274    6.5841   54.8311 N   0  0  0  0  0  0  0  0  0  0  0  0
   21.8399    8.0930   51.7056 C   0  0  0  0  0  0  0  0  0  0  0  0
   21.2413    9.2881   51.7111 C   0  0  0  0  0  0  0  0  0  0  0  0
   20.5169    9.4672   50.4210 C   0  0  0  0  0  0  0  0  0  0  0  0
   19.8526   10.5116   50.1251 O   0  0  0  0  0  0  0  0  0  0  0  0
   20.7060    8.3104   49.6389 N   0  0  0  0  0  0  0  0  0  0  0  0
   21.5177    7.4485   50.4144 C   0  0  0  0  0  0  0  0  0  0  0  0
   21.9262    6.2923   50.0953 O   0  0  0  0  0  0  0  0  0  0  0  0
   20.3447    8.1019   48.6971 H   0  0  0  0  0  0  0  0  0  0  0  0
   21.2377   10.3301   52.7232 C   0  0  0  0  0  0  0  0  0  0  0  0
   21.2650   11.7077   52.4501 C   0  0  0  0  0  0  0  0  0  0  0  0
   21.2906   12.3971   53.5990 N   0  0  0  0  0  0  0  0  0  0  0  0
   21.2819   11.5201   54.6082 C   0  0  0  0  0  0  0  0  0  0  0  0
   21.3122   11.7660   55.9695 C   0  0  0  0  0  0  0  0  0  0  0  0
   21.3118   10.6910   56.8351 C   0  0  0  0  0  0  0  0  0  0  0  0
   21.2821    9.4105   56.3269 C   0  0  0  0  0  0  0  0  0  0  0  0
   21.2515    9.1647   54.9690 C   0  0  0  0  0  0  0  0  0  0  0  0
   21.2495   10.2188   54.0832 C   0  0  0  0  0  0  0  0  0  0  0  0
   21.3134   13.4328   53.6935 H   0  0  0  0  0  0  0  0  0  0  0  0
   29.3788   10.1020   55.0920 C   0  0  0  0  0  0  0  0  0  0  0  0
   28.4323    9.0410   55.3149 N   0  0  0  0  0  0  0  0  0  0  0  0
   28.2178    8.1943   54.1902 C   0  0  0  0  0  0  0  0  0  0  0  0
   26.8952    8.5022   53.5092 C   0  0  0  0  0  0  0  0  0  0  0  0
   25.8362    8.2602   54.4552 N   0  0  0  0  0  0  0  0  0  0  0  0
   26.0451    8.6402   55.8321 C   0  0  0  0  0  0  0  0  0  0  0  0
   27.2769    9.4533   56.0381 C   0  0  0  0  0  0  0  0  0  0  0  0
 30 31  1  0  0  0
 31 32  1  0  0  0
 32 33  1  0  0  0
 33 34  1  0  0  0
 34 35  1  0  0  0
 35 36  1  0  0  0
 34  1  1  0  0  0
  1  2  2  0  0  0
  2  3  1  0  0  0
  3 12  1  0  0  0
 12 13  2  0  0  0
 13 14  1  0  0  0
 14 15  2  0  0  0
 14 16  1  0  0  0
 16 17  1  0  0  0
 17 18  2  0  0  0
 13 20  1  0  0  0
 20 21  2  0  0  0
 21 22  1  0  0  0
 22 23  1  0  0  0
 23 24  2  0  0  0
 24 25  1  0  0  0
 25 26  2  0  0  0
 26 27  1  0  0  0
 27 28  2  0  0  0
  3  4  2  0  0  0
  4  5  1  0  0  0
  5  6  2  0  0  0
  6  7  1  0  0  0
  6  8  1  0  0  0
  8  9  2  0  0  0
  9 10  1  0  0  0
 10 11  2  0  0  0
 36 31  1  0  0  0
 11  1  1  0  0  0
 17 12  1  0  0  0
 28 20  1  0  0  0
 10  4  1  0  0  0
 28 23  1  0  0  0
 16 19  1  0  0  0
 22 29  1  0  0  0
M  END
> <minimizedAffinity>
60.86488

> <CNNscore>
0.2310383469

> <CNNaffinity>
6.3392248154

> <CNN_VS>
1.4646040201

> <CNNaffinity_variance>
1.3040767908

$$$$
[H]c1c(Cl)c([H])c2c(C3=C(c4c([H])n([H])c5c([H])c([H])c([H])c([H])c45)C(=O)N([H])C3=O)nc(N3C([H])([H])C([H])([H])N(C([H])([H])[H])C([H])([H])C3([H])[H])nc2c1[H]


 36 41  0  0  0  0  0  0  0  0999 V2000
   21.4978   10.6155   52.4590 C   0  0  0  0  0  0  0  0  0  0  0  0
   21.9488    9.3619   52.3678 N   0  0  0  0  0  0  0  0  0  0  0  0
   22.3053    8.6471   53.4807 C   0  0  0  0  0  0  0  0  0  0  0  0
   22.1789    9.2859   54.6917 C   0  0  0  0  0  0  0  0  0  0  0  0
   22.5498    8.6455   55.8502 C   0  0  0  0  0  0  0  0  0  0  0  0
   22.4278    9.3372   57.0500 C   0  0  0  0  0  0  0  0  0  0  0  0
   22.9093    8.4824   58.5039 Cl  0  0  0  0  0  0  0  0  0  0  0  0
   21.9564   10.6296   57.1348 C   0  0  0  0  0  0  0  0  0  0  0  0
   21.5872   11.2750   55.9716 C   0  0  0  0  0  0  0  0  0  0  0  0
   21.7081   10.5922   54.7871 C   0  0  0  0  0  0  0  0  0  0  0  0
   21.3751   11.2332   53.6619 N   0  0  0  0  0  0  0  0  0  0  0  0
   22.7733    7.2742   53.3176 C   0  0  0  0  0  0  0  0  0  0  0  0
   24.0490    6.8842   53.2348 C   0  0  0  0  0  0  0  0  0  0  0  0
   24.0874    5.4045   53.0612 C   0  0  0  0  0  0  0  0  0  0  0  0
   25.1647    4.7350   52.9571 O   0  0  0  0  0  0  0  0  0  0  0  0
   22.7630    4.9237   53.0371 N   0  0  0  0  0  0  0  0  0  0  0  0
   21.9362    6.0619   53.1913 C   0  0  0  0  0  0  0  0  0  0  0  0
   20.6697    6.0877   53.2179 O   0  0  0  0  0  0  0  0  0  0  0  0
   22.4300    3.9547   52.9313 H   0  0  0  0  0  0  0  0  0  0  0  0
   25.2738    7.6618   53.3085 C   0  0  0  0  0  0  0  0  0  0  0  0
   26.0762    7.9929   52.2042 C   0  0  0  0  0  0  0  0  0  0  0  0
   27.1493    8.6830   52.6144 N   0  0  0  0  0  0  0  0  0  0  0  0
   27.0754    8.8120   53.9430 C   0  0  0  0  0  0  0  0  0  0  0  0
   27.9616    9.4357   54.8033 C   0  0  0  0  0  0  0  0  0  0  0  0
   27.6841    9.4307   56.1553 C   0  0  0  0  0  0  0  0  0  0  0  0
   26.5417    8.8098   56.6114 C   0  0  0  0  0  0  0  0  0  0  0  0
   25.6570    8.1878   55.7535 C   0  0  0  0  0  0  0  0  0  0  0  0
   25.9088    8.1793   54.3999 C   0  0  0  0  0  0  0  0  0  0  0  0
   27.9089    9.0547   52.0086 H   0  0  0  0  0  0  0  0  0  0  0  0
   20.4286   13.6855   48.0778 C   0  0  0  0  0  0  0  0  0  0  0  0
   20.0318   13.0768   49.3201 N   0  0  0  0  0  0  0  0  0  0  0  0
   20.7083   13.5803   50.4677 C   0  0  0  0  0  0  0  0  0  0  0  0
   21.7712   12.6102   50.9542 C   0  0  0  0  0  0  0  0  0  0  0  0
   21.1199   11.3807   51.3270 N   0  0  0  0  0  0  0  0  0  0  0  0
   20.0290   10.9060   50.5093 C   0  0  0  0  0  0  0  0  0  0  0  0
   19.8748   11.6640   49.2355 C   0  0  0  0  0  0  0  0  0  0  0  0
 30 31  1  0  0  0
 31 32  1  0  0  0
 32 33  1  0  0  0
 33 34  1  0  0  0
 34 35  1  0  0  0
 35 36  1  0  0  0
 34  1  1  0  0  0
  1  2  2  0  0  0
  2  3  1  0  0  0
  3 12  1  0  0  0
 12 13  2  0  0  0
 13 14  1  0  0  0
 14 15  2  0  0  0
 14 16  1  0  0  0
 16 17  1  0  0  0
 17 18  2  0  0  0
 13 20  1  0  0  0
 20 21  2  0  0  0
 21 22  1  0  0  0
 22 23  1  0  0  0
 23 24  2  0  0  0
 24 25  1  0  0  0
 25 26  2  0  0  0
 26 27  1  0  0  0
 27 28  2  0  0  0
  3  4  2  0  0  0
  4  5  1  0  0  0
  5  6  2  0  0  0
  6  7  1  0  0  0
  6  8  1  0  0  0
  8  9  2  0  0  0
  9 10  1  0  0  0
 10 11  2  0  0  0
 36 31  1  0  0  0
 11  1  1  0  0  0
 17 12  1  0  0  0
 28 20  1  0  0  0
 10  4  1  0  0  0
 28 23  1  0  0  0
 16 19  1  0  0  0
 22 29  1  0  0  0
M  END
> <minimizedAffinity>
68.29094

> <CNNscore>
0.2099567652

> <CNNaffinity>
5.8879714012

> <CNN_VS>
1.2362194061

> <CNNaffinity_variance>
1.4906787872

$$$$
[H]c1c(Cl)c([H])c2c(C3=C(c4c([H])n([H])c5c([H])c([H])c([H])c([H])c45)C(=O)N([H])C3=O)nc(N3C([H])([H])C([H])([H])N(C([H])([H])[H])C([H])([H])C3([H])[H])nc2c1[H]


 36 41  0  0  0  0  0  0  0  0999 V2000
   25.4109    7.6323   54.4359 C   0  0  0  0  0  0  0  0  0  0  0  0
   24.1581    7.8606   54.8376 N   0  0  0  0  0  0  0  0  0  0  0  0
   23.1616    6.9440   54.6286 C   0  0  0  0  0  0  0  0  0  0  0  0
   23.5158    5.7831   53.9827 C   0  0  0  0  0  0  0  0  0  0  0  0
   22.5636    4.8308   53.7061 C   0  0  0  0  0  0  0  0  0  0  0  0
   22.9611    3.6828   53.0302 C   0  0  0  0  0  0  0  0  0  0  0  0
   21.7156    2.4928   52.6999 Cl  0  0  0  0  0  0  0  0  0  0  0  0
   24.2580    3.4537   52.6238 C   0  0  0  0  0  0  0  0  0  0  0  0
   25.2143    4.4110   52.8978 C   0  0  0  0  0  0  0  0  0  0  0  0
   24.8217    5.5446   53.5646 C   0  0  0  0  0  0  0  0  0  0  0  0
   25.7474    6.4797   53.8019 N   0  0  0  0  0  0  0  0  0  0  0  0
   21.8158    7.2433   55.1079 C   0  0  0  0  0  0  0  0  0  0  0  0
   20.9011    7.9805   54.4704 C   0  0  0  0  0  0  0  0  0  0  0  0
   19.6707    8.0477   55.3088 C   0  0  0  0  0  0  0  0  0  0  0  0
   18.6182    8.6760   54.9664 O   0  0  0  0  0  0  0  0  0  0  0  0
   19.8962    7.3152   56.4913 N   0  0  0  0  0  0  0  0  0  0  0  0
   21.2152    6.8126   56.3886 C   0  0  0  0  0  0  0  0  0  0  0  0
   21.8304    6.1031   57.2392 O   0  0  0  0  0  0  0  0  0  0  0  0
   19.2582    7.1578   57.2846 H   0  0  0  0  0  0  0  0  0  0  0  0
   20.9623    8.6370   53.1760 C   0  0  0  0  0  0  0  0  0  0  0  0
   20.7788    7.9892   51.9434 C   0  0  0  0  0  0  0  0  0  0  0  0
   20.9347    8.8666   50.9425 N   0  0  0  0  0  0  0  0  0  0  0  0
   21.2135   10.0597   51.4777 C   0  0  0  0  0  0  0  0  0  0  0  0
   21.4647   11.2595   50.8359 C   0  0  0  0  0  0  0  0  0  0  0  0
   21.7483   12.3718   51.6022 C   0  0  0  0  0  0  0  0  0  0  0  0
   21.7747   12.2611   52.9754 C   0  0  0  0  0  0  0  0  0  0  0  0
   21.5239   11.0645   53.6162 C   0  0  0  0  0  0  0  0  0  0  0  0
   21.2367    9.9396   52.8760 C   0  0  0  0  0  0  0  0  0  0  0  0
   20.8539    8.6599   49.9262 H   0  0  0  0  0  0  0  0  0  0  0  0
   29.3787   11.3537   54.8493 C   0  0  0  0  0  0  0  0  0  0  0  0
   28.8282   10.0573   55.1445 N   0  0  0  0  0  0  0  0  0  0  0  0
   28.6869    9.2034   54.0136 C   0  0  0  0  0  0  0  0  0  0  0  0
   27.2394    9.1186   53.5609 C   0  0  0  0  0  0  0  0  0  0  0  0
   26.4640    8.5595   54.6384 N   0  0  0  0  0  0  0  0  0  0  0  0
   26.7757    8.9616   55.9894 C   0  0  0  0  0  0  0  0  0  0  0  0
   27.7368   10.0985   56.0584 C   0  0  0  0  0  0  0  0  0  0  0  0
 30 31  1  0  0  0
 31 32  1  0  0  0
 32 33  1  0  0  0
 33 34  1  0  0  0
 34 35  1  0  0  0
 35 36  1  0  0  0
 34  1  1  0  0  0
  1  2  2  0  0  0
  2  3  1  0  0  0
  3 12  1  0  0  0
 12 13  2  0  0  0
 13 14  1  0  0  0
 14 15  2  0  0  0
 14 16  1  0  0  0
 16 17  1  0  0  0
 17 18  2  0  0  0
 13 20  1  0  0  0
 20 21  2  0  0  0
 21 22  1  0  0  0
 22 23  1  0  0  0
 23 24  2  0  0  0
 24 25  1  0  0  0
 25 26  2  0  0  0
 26 27  1  0  0  0
 27 28  2  0  0  0
  3  4  2  0  0  0
  4  5  1  0  0  0
  5  6  2  0  0  0
  6  7  1  0  0  0
  6  8  1  0  0  0
  8  9  2  0  0  0
  9 10  1  0  0  0
 10 11  2  0  0  0
 36 31  1  0  0  0
 11  1  1  0  0  0
 17 12  1  0  0  0
 28 20  1  0  0  0
 10  4  1  0  0  0
 28 23  1  0  0  0
 16 19  1  0  0  0
 22 29  1  0  0  0
M  END
> <minimizedAffinity>
63.47619

> <CNNscore>
0.2010949701

> <CNNaffinity>
6.2115898132

> <CNN_VS>
1.2491195202

> <CNNaffinity_variance>
1.3385651112

$$$$
[H]c1c(Cl)c([H])c2c(C3=C(c4c([H])n([H])c5c([H])c([H])c([H])c([H])c45)C(=O)N([H])C3=O)nc(N3C([H])([H])C([H])([H])N(C([H])([H])[H])C([H])([H])C3([H])[H])nc2c1[H]


 36 41  0  0  0  0  0  0  0  0999 V2000
   20.1241    5.6506   53.2277 C   0  0  0  0  0  0  0  0  0  0  0  0
   20.0895    6.8683   52.6809 N   0  0  0  0  0  0  0  0  0  0  0  0
   21.2115    7.6508   52.6055 C   0  0  0  0  0  0  0  0  0  0  0  0
   22.3698    7.1211   53.1234 C   0  0  0  0  0  0  0  0  0  0  0  0
   23.5289    7.8603   53.1155 C   0  0  0  0  0  0  0  0  0  0  0  0
   24.6711    7.2951   53.6710 C   0  0  0  0  0  0  0  0  0  0  0  0
   26.1281    8.2710   53.6379 Cl  0  0  0  0  0  0  0  0  0  0  0  0
   24.6983    6.0351   54.2289 C   0  0  0  0  0  0  0  0  0  0  0  0
   23.5340    5.2933   54.2406 C   0  0  0  0  0  0  0  0  0  0  0  0
   22.4063    5.8515   53.6926 C   0  0  0  0  0  0  0  0  0  0  0  0
   21.2759    5.1386   53.7326 N   0  0  0  0  0  0  0  0  0  0  0  0
   21.1140    8.9656   51.9791 C   0  0  0  0  0  0  0  0  0  0  0  0
   21.4909   10.1256   52.5258 C   0  0  0  0  0  0  0  0  0  0  0  0
   21.2092   11.2247   51.5594 C   0  0  0  0  0  0  0  0  0  0  0  0
   21.4646   12.4496   51.7916 O   0  0  0  0  0  0  0  0  0  0  0  0
   20.6349   10.6639   50.4012 N   0  0  0  0  0  0  0  0  0  0  0  0
   20.5649    9.2708   50.6406 C   0  0  0  0  0  0  0  0  0  0  0  0
   20.1063    8.3840   49.8603 O   0  0  0  0  0  0  0  0  0  0  0  0
   20.3204   11.1379   49.5424 H   0  0  0  0  0  0  0  0  0  0  0  0
   22.1000   10.4001   53.8157 C   0  0  0  0  0  0  0  0  0  0  0  0
   22.8495   11.5496   54.1156 C   0  0  0  0  0  0  0  0  0  0  0  0
   23.3007   11.4804   55.3756 N   0  0  0  0  0  0  0  0  0  0  0  0
   22.8740   10.3295   55.9055 C   0  0  0  0  0  0  0  0  0  0  0  0
   23.1017    9.8224   57.1726 C   0  0  0  0  0  0  0  0  0  0  0  0
   22.5681    8.5916   57.4972 C   0  0  0  0  0  0  0  0  0  0  0  0
   21.8287    7.9038   56.5597 C   0  0  0  0  0  0  0  0  0  0  0  0
   21.6008    8.4095   55.2956 C   0  0  0  0  0  0  0  0  0  0  0  0
   22.1202    9.6358   54.9460 C   0  0  0  0  0  0  0  0  0  0  0  0
   23.8815   12.1947   55.8601 H   0  0  0  0  0  0  0  0  0  0  0  0
   15.5042    2.7584   53.4616 C   0  0  0  0  0  0  0  0  0  0  0  0
   16.8376    3.0467   53.9198 N   0  0  0  0  0  0  0  0  0  0  0  0
   16.9851    4.3159   54.5486 C   0  0  0  0  0  0  0  0  0  0  0  0
   17.6654    5.3145   53.6279 C   0  0  0  0  0  0  0  0  0  0  0  0
   18.9814    4.8165   53.3195 N   0  0  0  0  0  0  0  0  0  0  0  0
   19.1445    3.3999   53.0948 C   0  0  0  0  0  0  0  0  0  0  0  0
   17.8508    2.6671   52.9939 C   0  0  0  0  0  0  0  0  0  0  0  0
 30 31  1  0  0  0
 31 32  1  0  0  0
 32 33  1  0  0  0
 33 34  1  0  0  0
 34 35  1  0  0  0
 35 36  1  0  0  0
 34  1  1  0  0  0
  1  2  2  0  0  0
  2  3  1  0  0  0
  3 12  1  0  0  0
 12 13  2  0  0  0
 13 14  1  0  0  0
 14 15  2  0  0  0
 14 16  1  0  0  0
 16 17  1  0  0  0
 17 18  2  0  0  0
 13 20  1  0  0  0
 20 21  2  0  0  0
 21 22  1  0  0  0
 22 23  1  0  0  0
 23 24  2  0  0  0
 24 25  1  0  0  0
 25 26  2  0  0  0
 26 27  1  0  0  0
 27 28  2  0  0  0
  3  4  2  0  0  0
  4  5  1  0  0  0
  5  6  2  0  0  0
  6  7  1  0  0  0
  6  8  1  0  0  0
  8  9  2  0  0  0
  9 10  1  0  0  0
 10 11  2  0  0  0
 36 31  1  0  0  0
 11  1  1  0  0  0
 17 12  1  0  0  0
 28 20  1  0  0  0
 10  4  1  0  0  0
 28 23  1  0  0  0
 16 19  1  0  0  0
 22 29  1  0  0  0
M  END
> <minimizedAffinity>
48.03101

> <CNNscore>
0.1932519376

> <CNNaffinity>
6.0388288498

> <CNN_VS>
1.1670154333

> <CNNaffinity_variance>
2.1322467327

$$$$
[H]c1c(Cl)c([H])c2c(C3=C(c4c([H])n([H])c5c([H])c([H])c([H])c([H])c45)C(=O)N([H])C3=O)nc(N3C([H])([H])C([H])([H])N(C([H])([H])[H])C([H])([H])C3([H])[H])nc2c1[H]


 36 41  0  0  0  0  0  0  0  0999 V2000
   24.2010    9.4222   54.9683 C   0  0  0  0  0  0  0  0  0  0  0  0
   23.4749    9.3934   53.8480 N   0  0  0  0  0  0  0  0  0  0  0  0
   22.1606    9.7800   53.8372 C   0  0  0  0  0  0  0  0  0  0  0  0
   21.6288   10.1939   55.0356 C   0  0  0  0  0  0  0  0  0  0  0  0
   20.3069   10.5640   55.1113 C   0  0  0  0  0  0  0  0  0  0  0  0
   19.8044   10.9530   56.3478 C   0  0  0  0  0  0  0  0  0  0  0  0
   18.1144   11.4197   56.3992 Cl  0  0  0  0  0  0  0  0  0  0  0  0
   20.5631   10.9843   57.4980 C   0  0  0  0  0  0  0  0  0  0  0  0
   21.8897   10.6093   57.4239 C   0  0  0  0  0  0  0  0  0  0  0  0
   22.3856   10.2249   56.2033 C   0  0  0  0  0  0  0  0  0  0  0  0
   23.6636    9.8363   56.1445 N   0  0  0  0  0  0  0  0  0  0  0  0
   21.4249    9.7441   52.5771 C   0  0  0  0  0  0  0  0  0  0  0  0
   20.8611    8.6639   52.0276 C   0  0  0  0  0  0  0  0  0  0  0  0
   20.2228    9.0591   50.7401 C   0  0  0  0  0  0  0  0  0  0  0  0
   19.5985    8.2470   49.9848 O   0  0  0  0  0  0  0  0  0  0  0  0
   20.4386   10.4371   50.5397 N   0  0  0  0  0  0  0  0  0  0  0  0
   21.1809   10.8787   51.6609 C   0  0  0  0  0  0  0  0  0  0  0  0
   21.5983   12.0538   51.8857 O   0  0  0  0  0  0  0  0  0  0  0  0
   20.1347   11.0305   49.7546 H   0  0  0  0  0  0  0  0  0  0  0  0
   20.7926    7.2949   52.5085 C   0  0  0  0  0  0  0  0  0  0  0  0
   19.6190    6.5246   52.5583 C   0  0  0  0  0  0  0  0  0  0  0  0
   19.8881    5.3222   53.0854 N   0  0  0  0  0  0  0  0  0  0  0  0
   21.1914    5.2822   53.3809 C   0  0  0  0  0  0  0  0  0  0  0  0
   21.9187    4.2529   53.9520 C   0  0  0  0  0  0  0  0  0  0  0  0
   23.2661    4.4445   54.1818 C   0  0  0  0  0  0  0  0  0  0  0  0
   23.8487    5.6456   53.8405 C   0  0  0  0  0  0  0  0  0  0  0  0
   23.1237    6.6726   53.2703 C   0  0  0  0  0  0  0  0  0  0  0  0
   21.7783    6.5075   53.0288 C   0  0  0  0  0  0  0  0  0  0  0  0
   19.2056    4.5524   53.2393 H   0  0  0  0  0  0  0  0  0  0  0  0
   29.3790    7.7950   55.5195 C   0  0  0  0  0  0  0  0  0  0  0  0
   28.3817    8.6597   54.9461 N   0  0  0  0  0  0  0  0  0  0  0  0
   27.7420    9.5246   55.8792 C   0  0  0  0  0  0  0  0  0  0  0  0
   26.3453    9.0348   56.2212 C   0  0  0  0  0  0  0  0  0  0  0  0
   25.5626    9.0301   55.0120 N   0  0  0  0  0  0  0  0  0  0  0  0
   26.1960    8.6072   53.7855 C   0  0  0  0  0  0  0  0  0  0  0  0
   27.5447    8.0090   53.9953 C   0  0  0  0  0  0  0  0  0  0  0  0
 30 31  1  0  0  0
 31 32  1  0  0  0
 32 33  1  0  0  0
 33 34  1  0  0  0
 34 35  1  0  0  0
 35 36  1  0  0  0
 34  1  1  0  0  0
  1  2  2  0  0  0
  2  3  1  0  0  0
  3 12  1  0  0  0
 12 13  2  0  0  0
 13 14  1  0  0  0
 14 15  2  0  0  0
 14 16  1  0  0  0
 16 17  1  0  0  0
 17 18  2  0  0  0
 13 20  1  0  0  0
 20 21  2  0  0  0
 21 22  1  0  0  0
 22 23  1  0  0  0
 23 24  2  0  0  0
 24 25  1  0  0  0
 25 26  2  0  0  0
 26 27  1  0  0  0
 27 28  2  0  0  0
  3  4  2  0  0  0
  4  5  1  0  0  0
  5  6  2  0  0  0
  6  7  1  0  0  0
  6  8  1  0  0  0
  8  9  2  0  0  0
  9 10  1  0  0  0
 10 11  2  0  0  0
 36 31  1  0  0  0
 11  1  1  0  0  0
 17 12  1  0  0  0
 28 20  1  0  0  0
 10  4  1  0  0  0
 28 23  1  0  0  0
 16 19  1  0  0  0
 22 29  1  0  0  0
M  END
> <minimizedAffinity>
58.94889

> <CNNscore>
0.1929446459

> <CNNaffinity>
5.7144961357

> <CNN_VS>
1.1025813818

> <CNNaffinity_variance>
3.1588275433

$$$$
[H]Oc1c([H])c([H])c(C([H])([H])[C@@]2([H])C(=O)N([H])[C@@]([H])(C([H])([H])c3c([H])c([H])c(O[H])c([H])c3[H])C(=O)N([H])[C@@]([H])(C([H])(C([H])([H])[H])C([H])([H])[H])C(=O)N([H])[C@@]([H])(C([H])([H])C([H])(C([H])([H])[H])C([H])([H])[H])C(=O)N([H])[C@@]([H])(C([H])([H])c3c([H])c([H])c(O[H])c([H])c3[H])C(=O)N([H])[C@@]([H])([C@@]([H])(C([H])([H])[H])C([H])([H])C([H])([H])[H])C(=O)N2[H])c([H])c1[H]


 68 71  0  0  0  0  0  0  0  0999 V2000
   25.2985    8.7430   55.3699 C   0  0  0  0  0  0  0  0  0  0  0  0
   26.0854    8.9897   54.1617 N   0  0  0  0  0  0  0  0  0  0  0  0
   26.1103    8.2847   52.9731 C   0  0  0  0  0  0  0  0  0  0  0  0
   25.8454    8.9385   51.8948 O   0  0  0  0  0  0  0  0  0  0  0  0
   26.4004    6.8550   52.7128 C   0  0  0  0  0  0  0  0  0  0  0  0
   25.3158    6.2594   51.9556 N   0  0  0  0  0  0  0  0  0  0  0  0
   25.0115    4.9034   51.8286 C   0  0  0  0  0  0  0  0  0  0  0  0
   24.8706    4.3756   50.6623 O   0  0  0  0  0  0  0  0  0  0  0  0
   24.8158    3.9276   52.9691 C   0  0  0  0  0  0  0  0  0  0  0  0
   23.8788    2.9299   52.4956 N   0  0  0  0  0  0  0  0  0  0  0  0
   22.5646    2.6808   52.8320 C   0  0  0  0  0  0  0  0  0  0  0  0
   22.1757    1.4375   52.8638 O   0  0  0  0  0  0  0  0  0  0  0  0
   21.4607    3.5975   53.1796 C   0  0  0  0  0  0  0  0  0  0  0  0
   21.4062    4.8204   52.4430 N   0  0  0  0  0  0  0  0  0  0  0  0
   20.5936    5.9240   52.8048 C   0  0  0  0  0  0  0  0  0  0  0  0
   20.0202    6.6475   51.9205 O   0  0  0  0  0  0  0  0  0  0  0  0
   20.3809    6.2756   54.2583 C   0  0  0  0  0  0  0  0  0  0  0  0
   21.5636    6.8521   54.7624 N   0  0  0  0  0  0  0  0  0  0  0  0
   21.9504    8.0880   55.2617 C   0  0  0  0  0  0  0  0  0  0  0  0
   22.2797    8.1360   56.5205 O   0  0  0  0  0  0  0  0  0  0  0  0
   22.0738    9.4084   54.6501 C   0  0  0  0  0  0  0  0  0  0  0  0
   23.1473   10.2125   55.1925 N   0  0  0  0  0  0  0  0  0  0  0  0
   24.3989    9.8816   55.6668 C   0  0  0  0  0  0  0  0  0  0  0  0
   24.8823   10.7166   56.5297 O   0  0  0  0  0  0  0  0  0  0  0  0
   26.7128    9.8500   54.2545 H   0  0  0  0  0  0  0  0  0  0  0  0
   24.6867    6.9424   51.4265 H   0  0  0  0  0  0  0  0  0  0  0  0
   24.3152    2.2882   51.7525 H   0  0  0  0  0  0  0  0  0  0  0  0
   21.9798    4.9129   51.5799 H   0  0  0  0  0  0  0  0  0  0  0  0
   22.3846    6.1203   54.7580 H   0  0  0  0  0  0  0  0  0  0  0  0
   22.8742   11.2624   55.2155 H   0  0  0  0  0  0  0  0  0  0  0  0
   20.0858    2.9349   52.9320 C   0  0  0  0  0  0  0  0  0  0  0  0
   19.6332    3.1558   51.5238 C   0  0  0  0  0  0  0  0  0  0  0  0
   20.0849    1.5239   53.3986 C   0  0  0  0  0  0  0  0  0  0  0  0
   26.3288    8.6455   56.4863 C   0  0  0  0  0  0  0  0  0  0  0  0
   27.6573    8.1272   56.0562 C   0  0  0  0  0  0  0  0  0  0  0  0
   27.9447    9.8484   57.8316 C   0  0  0  0  0  0  0  0  0  0  0  0
   26.5242    9.8928   57.2686 C   0  0  0  0  0  0  0  0  0  0  0  0
   27.6278    6.7082   51.8183 C   0  0  0  0  0  0  0  0  0  0  0  0
   27.9558    7.8897   51.0206 C   0  0  0  0  0  0  0  0  0  0  0  0
   28.3220    7.7300   49.6780 C   0  0  0  0  0  0  0  0  0  0  0  0
   28.6307    8.7917   48.8651 C   0  0  0  0  0  0  0  0  0  0  0  0
   28.5891   10.0837   49.3571 C   0  0  0  0  0  0  0  0  0  0  0  0
   28.9045   11.1749   48.5284 O   0  0  0  0  0  0  0  0  0  0  0  0
   28.2330   10.2605   50.6686 C   0  0  0  0  0  0  0  0  0  0  0  0
   27.9269    9.1929   51.4712 C   0  0  0  0  0  0  0  0  0  0  0  0
   28.1862   11.6414   47.9857 H   0  0  0  0  0  0  0  0  0  0  0  0
   26.1758    3.2811   53.1394 C   0  0  0  0  0  0  0  0  0  0  0  0
   26.2097    1.8142   53.2777 C   0  0  0  0  0  0  0  0  0  0  0  0
   25.1973    1.0089   52.5580 C   0  0  0  0  0  0  0  0  0  0  0  0
   27.5827    1.3616   52.7393 C   0  0  0  0  0  0  0  0  0  0  0  0
   19.0523    6.8527   54.4888 C   0  0  0  0  0  0  0  0  0  0  0  0
   17.8740    6.0079   54.2650 C   0  0  0  0  0  0  0  0  0  0  0  0
   17.9747    4.6078   54.3281 C   0  0  0  0  0  0  0  0  0  0  0  0
   16.9165    3.7683   54.0879 C   0  0  0  0  0  0  0  0  0  0  0  0
   15.6900    4.2908   53.7692 C   0  0  0  0  0  0  0  0  0  0  0  0
   14.5657    3.5124   53.5114 O   0  0  0  0  0  0  0  0  0  0  0  0
   15.5469    5.6660   53.6959 C   0  0  0  0  0  0  0  0  0  0  0  0
   16.6239    6.4770   53.9412 C   0  0  0  0  0  0  0  0  0  0  0  0
   13.9553    3.2573   54.2524 H   0  0  0  0  0  0  0  0  0  0  0  0
   22.1898    9.4811   53.1627 C   0  0  0  0  0  0  0  0  0  0  0  0
   21.7479   10.8561   52.7608 C   0  0  0  0  0  0  0  0  0  0  0  0
   21.3942   11.8512   53.6017 C   0  0  0  0  0  0  0  0  0  0  0  0
   20.9993   13.0778   53.1110 C   0  0  0  0  0  0  0  0  0  0  0  0
   20.9609   13.3030   51.7482 C   0  0  0  0  0  0  0  0  0  0  0  0
   20.5705   14.5185   51.2419 O   0  0  0  0  0  0  0  0  0  0  0  0
   21.3149   12.3119   50.8527 C   0  0  0  0  0  0  0  0  0  0  0  0
   21.7037   11.1015   51.3793 C   0  0  0  0  0  0  0  0  0  0  0  0
   20.5331   14.7120   50.2548 H   0  0  0  0  0  0  0  0  0  0  0  0
 36 37  1  0  0  0
 37 34  1  0  0  0
 34 35  1  0  0  0
 34  1  1  0  0  0
  1  2  1  0  0  0
  2  3  1  0  0  0
  3  4  2  0  0  0
  3  5  1  0  0  0
  5 38  1  0  0  0
 38 39  1  0  0  0
 39 40  2  0  0  0
 40 41  1  0  0  0
 41 42  2  0  0  0
 42 43  1  0  0  0
 42 44  1  0  0  0
 44 45  2  0  0  0
  5  6  1  0  0  0
  6  7  1  0  0  0
  7  8  2  0  0  0
  7  9  1  0  0  0
  9 47  1  0  0  0
 47 48  1  0  0  0
 48 49  1  0  0  0
 48 50  1  0  0  0
  9 10  1  0  0  0
 10 11  1  0  0  0
 11 12  2  0  0  0
 11 13  1  0  0  0
 13 14  1  0  0  0
 14 15  1  0  0  0
 15 16  2  0  0  0
 15 17  1  0  0  0
 17 51  1  0  0  0
 51 52  1  0  0  0
 52 53  2  0  0  0
 53 54  1  0  0  0
 54 55  2  0  0  0
 55 56  1  0  0  0
 55 57  1  0  0  0
 57 58  2  0  0  0
 17 18  1  0  0  0
 18 19  1  0  0  0
 19 20  2  0  0  0
 19 21  1  0  0  0
 21 60  1  0  0  0
 60 61  1  0  0  0
 61 62  2  0  0  0
 62 63  1  0  0  0
 63 64  2  0  0  0
 64 65  1  0  0  0
 64 66  1  0  0  0
 66 67  2  0  0  0
 21 22  1  0  0  0
 22 23  1  0  0  0
 23 24  2  0  0  0
 13 31  1  0  0  0
 31 32  1  0  0  0
 31 33  1  0  0  0
 23  1  1  0  0  0
 45 39  1  0  0  0
 58 52  1  0  0  0
 67 61  1  0  0  0
  2 25  1  0  0  0
 43 46  1  0  0  0
  6 26  1  0  0  0
 10 27  1  0  0  0
 14 28  1  0  0  0
 56 59  1  0  0  0
 18 29  1  0  0  0
 65 68  1  0  0  0
 22 30  1  0  0  0
M  END
> <minimizedAffinity>
125.17386

> <CNNscore>
0.1562302411

> <CNNaffinity>
6.1397867203

> <CNN_VS>
0.9592203498

> <CNNaffinity_variance>
5.6287159920

$$$$
[H]Oc1c([H])c([H])c(C([H])([H])[C@@]2([H])C(=O)N([H])[C@@]([H])(C([H])([H])c3c([H])c([H])c(O[H])c([H])c3[H])C(=O)N([H])[C@@]([H])(C([H])(C([H])([H])[H])C([H])([H])[H])C(=O)N([H])[C@@]([H])(C([H])([H])C([H])(C([H])([H])[H])C([H])([H])[H])C(=O)N([H])[C@@]([H])(C([H])([H])c3c([H])c([H])c(O[H])c([H])c3[H])C(=O)N([H])[C@@]([H])([C@@]([H])(C([H])([H])[H])C([H])([H])C([H])([H])[H])C(=O)N2[H])c([H])c1[H]


 68 71  0  0  0  0  0  0  0  0999 V2000
   22.6257    8.1260   52.0667 C   0  0  0  0  0  0  0  0  0  0  0  0
   23.5343    7.9226   53.1949 N   0  0  0  0  0  0  0  0  0  0  0  0
   24.7671    8.4966   53.4417 C   0  0  0  0  0  0  0  0  0  0  0  0
   24.9095    9.1309   54.5542 O   0  0  0  0  0  0  0  0  0  0  0  0
   26.0001    8.5093   52.6196 C   0  0  0  0  0  0  0  0  0  0  0  0
   26.4520    9.8741   52.4258 N   0  0  0  0  0  0  0  0  0  0  0  0
   27.3185   10.3514   51.4414 C   0  0  0  0  0  0  0  0  0  0  0  0
   28.3540   11.0441   51.7677 O   0  0  0  0  0  0  0  0  0  0  0  0
   27.1712   10.1370   49.9503 C   0  0  0  0  0  0  0  0  0  0  0  0
   27.7698   11.2908   49.3116 N   0  0  0  0  0  0  0  0  0  0  0  0
   27.2082   12.3455   48.6227 C   0  0  0  0  0  0  0  0  0  0  0  0
   27.8658   12.8166   47.6010 O   0  0  0  0  0  0  0  0  0  0  0  0
   25.9436   13.0783   48.8314 C   0  0  0  0  0  0  0  0  0  0  0  0
   25.5722   13.3127   50.1908 N   0  0  0  0  0  0  0  0  0  0  0  0
   24.2881   13.7585   50.5924 C   0  0  0  0  0  0  0  0  0  0  0  0
   24.1403   14.5760   51.5641 O   0  0  0  0  0  0  0  0  0  0  0  0
   23.0498   13.2758   49.8747 C   0  0  0  0  0  0  0  0  0  0  0  0
   22.8092   11.9360   50.2379 N   0  0  0  0  0  0  0  0  0  0  0  0
   21.8197   11.2359   50.9139 C   0  0  0  0  0  0  0  0  0  0  0  0
   21.1196   10.3877   50.2169 O   0  0  0  0  0  0  0  0  0  0  0  0
   21.3736   11.2461   52.3046 C   0  0  0  0  0  0  0  0  0  0  0  0
   20.9142    9.9618   52.7868 N   0  0  0  0  0  0  0  0  0  0  0  0
   21.3252    8.6739   52.5164 C   0  0  0  0  0  0  0  0  0  0  0  0
   20.4108    7.7735   52.6860 O   0  0  0  0  0  0  0  0  0  0  0  0
   23.1470    7.2265   53.9076 H   0  0  0  0  0  0  0  0  0  0  0  0
   26.0846   10.5910   53.1281 H   0  0  0  0  0  0  0  0  0  0  0  0
   28.8396   11.2961   49.4108 H   0  0  0  0  0  0  0  0  0  0  0  0
   26.2817   13.1665   50.9376 H   0  0  0  0  0  0  0  0  0  0  0  0
   23.6222   11.2856   49.8834 H   0  0  0  0  0  0  0  0  0  0  0  0
   20.0917   10.0794   53.4848 H   0  0  0  0  0  0  0  0  0  0  0  0
   26.0040   14.4876   48.1981 C   0  0  0  0  0  0  0  0  0  0  0  0
   24.9130   14.6670   47.1911 C   0  0  0  0  0  0  0  0  0  0  0  0
   26.0966   15.5369   49.2465 C   0  0  0  0  0  0  0  0  0  0  0  0
   22.3877    6.7298   51.5085 C   0  0  0  0  0  0  0  0  0  0  0  0
   23.5449    5.8029   51.6510 C   0  0  0  0  0  0  0  0  0  0  0  0
   21.4942    5.4909   53.3886 C   0  0  0  0  0  0  0  0  0  0  0  0
   21.1616    6.0565   52.0079 C   0  0  0  0  0  0  0  0  0  0  0  0
   27.1453    7.8193   53.3548 C   0  0  0  0  0  0  0  0  0  0  0  0
   27.5761    8.4807   54.5864 C   0  0  0  0  0  0  0  0  0  0  0  0
   26.7406    8.4475   55.7104 C   0  0  0  0  0  0  0  0  0  0  0  0
   27.0829    9.0341   56.9028 C   0  0  0  0  0  0  0  0  0  0  0  0
   28.2921    9.6922   57.0363 C   0  0  0  0  0  0  0  0  0  0  0  0
   28.6475   10.2948   58.2559 O   0  0  0  0  0  0  0  0  0  0  0  0
   29.1234    9.7355   55.9476 C   0  0  0  0  0  0  0  0  0  0  0  0
   28.7713    9.1463   54.7616 C   0  0  0  0  0  0  0  0  0  0  0  0
   29.1538    9.7761   58.9650 H   0  0  0  0  0  0  0  0  0  0  0  0
   28.0278    8.9198   49.6658 C   0  0  0  0  0  0  0  0  0  0  0  0
   28.7704    8.9035   48.3929 C   0  0  0  0  0  0  0  0  0  0  0  0
   29.3842    7.6332   47.9444 C   0  0  0  0  0  0  0  0  0  0  0  0
   27.7594    9.3037   47.2984 C   0  0  0  0  0  0  0  0  0  0  0  0
   21.9980   14.2980   49.8585 C   0  0  0  0  0  0  0  0  0  0  0  0
   21.1155   14.4124   51.0248 C   0  0  0  0  0  0  0  0  0  0  0  0
   20.2851   15.5342   51.1868 C   0  0  0  0  0  0  0  0  0  0  0  0
   19.4705   15.7132   52.2761 C   0  0  0  0  0  0  0  0  0  0  0  0
   19.4435   14.7696   53.2700 C   0  0  0  0  0  0  0  0  0  0  0  0
   18.6473   14.8722   54.4066 O   0  0  0  0  0  0  0  0  0  0  0  0
   20.2468   13.6483   53.1504 C   0  0  0  0  0  0  0  0  0  0  0  0
   21.0495   13.4997   52.0497 C   0  0  0  0  0  0  0  0  0  0  0  0
   17.7277   14.4967   54.4068 H   0  0  0  0  0  0  0  0  0  0  0  0
   22.3123   11.7830   53.3352 C   0  0  0  0  0  0  0  0  0  0  0  0
   22.3245   10.7973   54.4646 C   0  0  0  0  0  0  0  0  0  0  0  0
   23.3548   10.5717   55.3072 C   0  0  0  0  0  0  0  0  0  0  0  0
   23.2483    9.6315   56.3102 C   0  0  0  0  0  0  0  0  0  0  0  0
   22.0818    8.9070   56.4646 C   0  0  0  0  0  0  0  0  0  0  0  0
   21.9582    7.9671   57.4582 O   0  0  0  0  0  0  0  0  0  0  0  0
   21.0034    9.1067   55.6241 C   0  0  0  0  0  0  0  0  0  0  0  0
   21.1465   10.0531   54.6354 C   0  0  0  0  0  0  0  0  0  0  0  0
   21.1214    7.4247   57.5954 H   0  0  0  0  0  0  0  0  0  0  0  0
 36 37  1  0  0  0
 37 34  1  0  0  0
 34 35  1  0  0  0
 34  1  1  0  0  0
  1  2  1  0  0  0
  2  3  1  0  0  0
  3  4  2  0  0  0
  3  5  1  0  0  0
  5 38  1  0  0  0
 38 39  1  0  0  0
 39 40  2  0  0  0
 40 41  1  0  0  0
 41 42  2  0  0  0
 42 43  1  0  0  0
 42 44  1  0  0  0
 44 45  2  0  0  0
  5  6  1  0  0  0
  6  7  1  0  0  0
  7  8  2  0  0  0
  7  9  1  0  0  0
  9 47  1  0  0  0
 47 48  1  0  0  0
 48 49  1  0  0  0
 48 50  1  0  0  0
  9 10  1  0  0  0
 10 11  1  0  0  0
 11 12  2  0  0  0
 11 13  1  0  0  0
 13 14  1  0  0  0
 14 15  1  0  0  0
 15 16  2  0  0  0
 15 17  1  0  0  0
 17 51  1  0  0  0
 51 52  1  0  0  0
 52 53  2  0  0  0
 53 54  1  0  0  0
 54 55  2  0  0  0
 55 56  1  0  0  0
 55 57  1  0  0  0
 57 58  2  0  0  0
 17 18  1  0  0  0
 18 19  1  0  0  0
 19 20  2  0  0  0
 19 21  1  0  0  0
 21 60  1  0  0  0
 60 61  1  0  0  0
 61 62  2  0  0  0
 62 63  1  0  0  0
 63 64  2  0  0  0
 64 65  1  0  0  0
 64 66  1  0  0  0
 66 67  2  0  0  0
 21 22  1  0  0  0
 22 23  1  0  0  0
 23 24  2  0  0  0
 13 31  1  0  0  0
 31 32  1  0  0  0
 31 33  1  0  0  0
 23  1  1  0  0  0
 45 39  1  0  0  0
 58 52  1  0  0  0
 67 61  1  0  0  0
  2 25  1  0  0  0
 43 46  1  0  0  0
  6 26  1  0  0  0
 10 27  1  0  0  0
 14 28  1  0  0  0
 56 59  1  0  0  0
 18 29  1  0  0  0
 65 68  1  0  0  0
 22 30  1  0  0  0
M  END
> <minimizedAffinity>
94.45856

> <CNNscore>
0.1524046510

> <CNNaffinity>
6.4946961403

> <CNN_VS>
0.9898219109

> <CNNaffinity_variance>
6.6378173828

$$$$
[H]Oc1c([H])c([H])c(C([H])([H])[C@@]2([H])C(=O)N([H])[C@@]([H])(C([H])([H])c3c([H])c([H])c(O[H])c([H])c3[H])C(=O)N([H])[C@@]([H])(C([H])(C([H])([H])[H])C([H])([H])[H])C(=O)N([H])[C@@]([H])(C([H])([H])C([H])(C([H])([H])[H])C([H])([H])[H])C(=O)N([H])[C@@]([H])(C([H])([H])c3c([H])c([H])c(O[H])c([H])c3[H])C(=O)N([H])[C@@]([H])([C@@]([H])(C([H])([H])[H])C([H])([H])C([H])([H])[H])C(=O)N2[H])c([H])c1[H]


 68 71  0  0  0  0  0  0  0  0999 V2000
   26.6527    9.2592   53.1954 C   0  0  0  0  0  0  0  0  0  0  0  0
   25.7360    8.1667   52.8694 N   0  0  0  0  0  0  0  0  0  0  0  0
   24.4809    8.2186   52.2929 C   0  0  0  0  0  0  0  0  0  0  0  0
   24.3015    7.5426   51.2106 O   0  0  0  0  0  0  0  0  0  0  0  0
   23.2598    8.9421   52.7188 C   0  0  0  0  0  0  0  0  0  0  0  0
   22.7641    9.7614   51.6292 N   0  0  0  0  0  0  0  0  0  0  0  0
   21.8956   10.8508   51.7110 C   0  0  0  0  0  0  0  0  0  0  0  0
   20.8326   10.8901   50.9851 O   0  0  0  0  0  0  0  0  0  0  0  0
   22.0708   12.0597   52.6049 C   0  0  0  0  0  0  0  0  0  0  0  0
   21.4420   13.1689   51.9180 N   0  0  0  0  0  0  0  0  0  0  0  0
   21.9767   14.2797   51.2996 C   0  0  0  0  0  0  0  0  0  0  0  0
   21.3176   15.3997   51.3970 O   0  0  0  0  0  0  0  0  0  0  0  0
   23.2124   14.4510   50.5101 C   0  0  0  0  0  0  0  0  0  0  0  0
   23.5567   13.3695   49.6424 N   0  0  0  0  0  0  0  0  0  0  0  0
   24.8191   13.2345   49.0123 C   0  0  0  0  0  0  0  0  0  0  0  0
   24.9254   12.7710   47.8257 O   0  0  0  0  0  0  0  0  0  0  0  0
   26.0831   13.6402   49.7330 C   0  0  0  0  0  0  0  0  0  0  0  0
   26.3643   12.6829   50.7278 N   0  0  0  0  0  0  0  0  0  0  0  0
   27.3678   11.7589   50.9840 C   0  0  0  0  0  0  0  0  0  0  0  0
   28.1060   11.9699   52.0357 O   0  0  0  0  0  0  0  0  0  0  0  0
   27.7938   10.5434   50.2957 C   0  0  0  0  0  0  0  0  0  0  0  0
   28.2902    9.5088   51.1769 N   0  0  0  0  0  0  0  0  0  0  0  0
   27.9273    9.1306   52.4521 C   0  0  0  0  0  0  0  0  0  0  0  0
   28.8695    8.5559   53.1284 O   0  0  0  0  0  0  0  0  0  0  0  0
   26.1369    7.2099   53.1267 H   0  0  0  0  0  0  0  0  0  0  0  0
   23.0970    9.4877   50.6512 H   0  0  0  0  0  0  0  0  0  0  0  0
   20.3713   13.0798   51.9053 H   0  0  0  0  0  0  0  0  0  0  0  0
   22.8424   12.6404   49.4408 H   0  0  0  0  0  0  0  0  0  0  0  0
   25.5790   12.6810   51.4978 H   0  0  0  0  0  0  0  0  0  0  0  0
   29.0985    8.9549   50.7106 H   0  0  0  0  0  0  0  0  0  0  0  0
   23.1127   15.6795   49.5764 C   0  0  0  0  0  0  0  0  0  0  0  0
   24.2853   15.7421   48.6503 C   0  0  0  0  0  0  0  0  0  0  0  0
   21.7749   15.7498   48.9329 C   0  0  0  0  0  0  0  0  0  0  0  0
   26.9460    9.0848   54.6790 C   0  0  0  0  0  0  0  0  0  0  0  0
   26.4630    7.7997   55.2565 C   0  0  0  0  0  0  0  0  0  0  0  0
   28.3764    9.6676   56.5450 C   0  0  0  0  0  0  0  0  0  0  0  0
   28.3660    9.2873   55.0644 C   0  0  0  0  0  0  0  0  0  0  0  0
   22.1287    7.9621   53.0163 C   0  0  0  0  0  0  0  0  0  0  0  0
   22.4005    7.0149   54.0974 C   0  0  0  0  0  0  0  0  0  0  0  0
   21.6520    7.0907   55.2792 C   0  0  0  0  0  0  0  0  0  0  0  0
   21.8416    6.2291   56.3303 C   0  0  0  0  0  0  0  0  0  0  0  0
   22.8002    5.2349   56.2548 C   0  0  0  0  0  0  0  0  0  0  0  0
   22.9984    4.3496   57.3289 O   0  0  0  0  0  0  0  0  0  0  0  0
   23.5428    5.1445   55.1065 C   0  0  0  0  0  0  0  0  0  0  0  0
   23.3450    6.0105   54.0631 C   0  0  0  0  0  0  0  0  0  0  0  0
   22.4816    3.4791   57.3885 H   0  0  0  0  0  0  0  0  0  0  0  0
   21.2603   11.7257   53.8410 C   0  0  0  0  0  0  0  0  0  0  0  0
   21.6332   10.5060   54.5794 C   0  0  0  0  0  0  0  0  0  0  0  0
   22.8563   10.5259   55.4132 C   0  0  0  0  0  0  0  0  0  0  0  0
   20.4625   10.2075   55.5389 C   0  0  0  0  0  0  0  0  0  0  0  0
   27.0994   14.1463   48.8044 C   0  0  0  0  0  0  0  0  0  0  0  0
   27.8872   13.1780   48.0337 C   0  0  0  0  0  0  0  0  0  0  0  0
   27.8487   13.1800   46.6292 C   0  0  0  0  0  0  0  0  0  0  0  0
   28.5321   12.2735   45.8589 C   0  0  0  0  0  0  0  0  0  0  0  0
   29.2976   11.3080   46.4595 C   0  0  0  0  0  0  0  0  0  0  0  0
   30.0219   10.3516   45.7545 O   0  0  0  0  0  0  0  0  0  0  0  0
   29.3631   11.2697   47.8420 C   0  0  0  0  0  0  0  0  0  0  0  0
   28.6681   12.1897   48.5826 C   0  0  0  0  0  0  0  0  0  0  0  0
   30.9602   10.5352   45.4852 H   0  0  0  0  0  0  0  0  0  0  0  0
   26.8232    9.8897   49.3673 C   0  0  0  0  0  0  0  0  0  0  0  0
   27.6321    9.1182   48.3684 C   0  0  0  0  0  0  0  0  0  0  0  0
   28.7884    8.4681   48.6190 C   0  0  0  0  0  0  0  0  0  0  0  0
   29.4467    7.7936   47.6126 C   0  0  0  0  0  0  0  0  0  0  0  0
   28.9285    7.7755   46.3317 C   0  0  0  0  0  0  0  0  0  0  0  0
   29.5705    7.1083   45.3174 O   0  0  0  0  0  0  0  0  0  0  0  0
   27.7477    8.4277   46.0323 C   0  0  0  0  0  0  0  0  0  0  0  0
   27.1191    9.0897   47.0620 C   0  0  0  0  0  0  0  0  0  0  0  0
   29.2173    7.0771   44.3753 H   0  0  0  0  0  0  0  0  0  0  0  0
 36 37  1  0  0  0
 37 34  1  0  0  0
 34 35  1  0  0  0
 34  1  1  0  0  0
  1  2  1  0  0  0
  2  3  1  0  0  0
  3  4  2  0  0  0
  3  5  1  0  0  0
  5 38  1  0  0  0
 38 39  1  0  0  0
 39 40  2  0  0  0
 40 41  1  0  0  0
 41 42  2  0  0  0
 42 43  1  0  0  0
 42 44  1  0  0  0
 44 45  2  0  0  0
  5  6  1  0  0  0
  6  7  1  0  0  0
  7  8  2  0  0  0
  7  9  1  0  0  0
  9 47  1  0  0  0
 47 48  1  0  0  0
 48 49  1  0  0  0
 48 50  1  0  0  0
  9 10  1  0  0  0
 10 11  1  0  0  0
 11 12  2  0  0  0
 11 13  1  0  0  0
 13 14  1  0  0  0
 14 15  1  0  0  0
 15 16  2  0  0  0
 15 17  1  0  0  0
 17 51  1  0  0  0
 51 52  1  0  0  0
 52 53  2  0  0  0
 53 54  1  0  0  0
 54 55  2  0  0  0
 55 56  1  0  0  0
 55 57  1  0  0  0
 57 58  2  0  0  0
 17 18  1  0  0  0
 18 19  1  0  0  0
 19 20  2  0  0  0
 19 21  1  0  0  0
 21 60  1  0  0  0
 60 61  1  0  0  0
 61 62  2  0  0  0
 62 63  1  0  0  0
 63 64  2  0  0  0
 64 65  1  0  0  0
 64 66  1  0  0  0
 66 67  2  0  0  0
 21 22  1  0  0  0
 22 23  1  0  0  0
 23 24  2  0  0  0
 13 31  1  0  0  0
 31 32  1  0  0  0
 31 33  1  0  0  0
 23  1  1  0  0  0
 45 39  1  0  0  0
 58 52  1  0  0  0
 67 61  1  0  0  0
  2 25  1  0  0  0
 43 46  1  0  0  0
  6 26  1  0  0  0
 10 27  1  0  0  0
 14 28  1  0  0  0
 56 59  1  0  0  0
 18 29  1  0  0  0
 65 68  1  0  0  0
 22 30  1  0  0  0
M  END
> <minimizedAffinity>
113.47154

> <CNNscore>
0.1362452656

> <CNNaffinity>
6.3671712875

> <CNN_VS>
0.8674969673

> <CNNaffinity_variance>
6.5300841331

$$$$
[H]Oc1c([H])c([H])c(C([H])([H])[C@@]2([H])C(=O)N([H])[C@@]([H])(C([H])([H])c3c([H])c([H])c(O[H])c([H])c3[H])C(=O)N([H])[C@@]([H])(C([H])(C([H])([H])[H])C([H])([H])[H])C(=O)N([H])[C@@]([H])(C([H])([H])C([H])(C([H])([H])[H])C([H])([H])[H])C(=O)N([H])[C@@]([H])(C([H])([H])c3c([H])c([H])c(O[H])c([H])c3[H])C(=O)N([H])[C@@]([H])([C@@]([H])(C([H])([H])[H])C([H])([H])C([H])([H])[H])C(=O)N2[H])c([H])c1[H]


 68 71  0  0  0  0  0  0  0  0999 V2000
   25.7412    9.9877   55.1860 C   0  0  0  0  0  0  0  0  0  0  0  0
   24.4439    9.3179   55.0948 N   0  0  0  0  0  0  0  0  0  0  0  0
   23.4823    9.4016   54.1055 C   0  0  0  0  0  0  0  0  0  0  0  0
   23.1222    8.3014   53.5396 O   0  0  0  0  0  0  0  0  0  0  0  0
   22.7656   10.5797   53.5628 C   0  0  0  0  0  0  0  0  0  0  0  0
   22.9094   10.6255   52.1201 N   0  0  0  0  0  0  0  0  0  0  0  0
   22.7246   11.7255   51.2814 C   0  0  0  0  0  0  0  0  0  0  0  0
   21.9386   11.6425   50.2646 O   0  0  0  0  0  0  0  0  0  0  0  0
   23.3803   13.0807   51.4385 C   0  0  0  0  0  0  0  0  0  0  0  0
   23.5085   13.6286   50.1039 N   0  0  0  0  0  0  0  0  0  0  0  0
   24.6141   13.8382   49.3065 C   0  0  0  0  0  0  0  0  0  0  0  0
   24.6206   14.9006   48.5520 O   0  0  0  0  0  0  0  0  0  0  0  0
   25.8516   13.0511   49.1358 C   0  0  0  0  0  0  0  0  0  0  0  0
   25.6982   11.6309   49.1526 N   0  0  0  0  0  0  0  0  0  0  0  0
   26.7796   10.7217   49.2661 C   0  0  0  0  0  0  0  0  0  0  0  0
   26.7846    9.6100   48.6348 O   0  0  0  0  0  0  0  0  0  0  0  0
   27.9659   11.0468   50.1427 C   0  0  0  0  0  0  0  0  0  0  0  0
   27.5817   10.9148   51.4918 N   0  0  0  0  0  0  0  0  0  0  0  0
   27.9222   10.1004   52.5628 C   0  0  0  0  0  0  0  0  0  0  0  0
   28.5199   10.6719   53.5686 O   0  0  0  0  0  0  0  0  0  0  0  0
   27.7458    8.6731   52.8168 C   0  0  0  0  0  0  0  0  0  0  0  0
   27.5187    8.3443   54.2073 N   0  0  0  0  0  0  0  0  0  0  0  0
   26.8510    9.0072   55.2150 C   0  0  0  0  0  0  0  0  0  0  0  0
   27.2652    8.7238   56.4082 O   0  0  0  0  0  0  0  0  0  0  0  0
   24.2570    8.6795   55.9313 H   0  0  0  0  0  0  0  0  0  0  0  0
   23.1771    9.7044   51.6488 H   0  0  0  0  0  0  0  0  0  0  0  0
   22.5573   13.9103   49.6912 H   0  0  0  0  0  0  0  0  0  0  0  0
   24.7434   11.2277   49.0611 H   0  0  0  0  0  0  0  0  0  0  0  0
   26.8157   11.6599   51.7520 H   0  0  0  0  0  0  0  0  0  0  0  0
   27.9783    7.3951   54.4631 H   0  0  0  0  0  0  0  0  0  0  0  0
   26.5213   13.3520   47.7750 C   0  0  0  0  0  0  0  0  0  0  0  0
   26.1490   14.7159   47.2873 C   0  0  0  0  0  0  0  0  0  0  0  0
   27.9770   13.0566   47.8232 C   0  0  0  0  0  0  0  0  0  0  0  0
   25.7075   10.7097   56.5258 C   0  0  0  0  0  0  0  0  0  0  0  0
   26.1045    9.8692   57.6897 C   0  0  0  0  0  0  0  0  0  0  0  0
   27.6650   11.7634   57.4878 C   0  0  0  0  0  0  0  0  0  0  0  0
   26.4646   11.9868   56.5681 C   0  0  0  0  0  0  0  0  0  0  0  0
   21.2639   10.4543   53.8019 C   0  0  0  0  0  0  0  0  0  0  0  0
   20.7312    9.0969   53.6863 C   0  0  0  0  0  0  0  0  0  0  0  0
   20.5044    8.5557   52.4143 C   0  0  0  0  0  0  0  0  0  0  0  0
   20.0187    7.2859   52.2276 C   0  0  0  0  0  0  0  0  0  0  0  0
   19.7309    6.4808   53.3148 C   0  0  0  0  0  0  0  0  0  0  0  0
   19.2331    5.1791   53.1289 O   0  0  0  0  0  0  0  0  0  0  0  0
   19.9461    6.9926   54.5678 C   0  0  0  0  0  0  0  0  0  0  0  0
   20.4313    8.2621   54.7425 C   0  0  0  0  0  0  0  0  0  0  0  0
   19.8620    4.3880   53.0459 H   0  0  0  0  0  0  0  0  0  0  0  0
   22.3613   13.8971   52.2076 C   0  0  0  0  0  0  0  0  0  0  0  0
   21.2301   14.4523   51.4434 C   0  0  0  0  0  0  0  0  0  0  0  0
   19.9940   14.8202   52.1700 C   0  0  0  0  0  0  0  0  0  0  0  0
   21.7473   15.7497   50.7882 C   0  0  0  0  0  0  0  0  0  0  0  0
   29.2080   10.4780   49.6088 C   0  0  0  0  0  0  0  0  0  0  0  0
   29.1298    9.6114   48.4277 C   0  0  0  0  0  0  0  0  0  0  0  0
   28.9015   10.1571   47.1533 C   0  0  0  0  0  0  0  0  0  0  0  0
   28.7788    9.3923   46.0210 C   0  0  0  0  0  0  0  0  0  0  0  0
   28.8796    8.0279   46.1052 C   0  0  0  0  0  0  0  0  0  0  0  0
   28.7682    7.1792   45.0081 O   0  0  0  0  0  0  0  0  0  0  0  0
   29.1042    7.4485   47.3425 C   0  0  0  0  0  0  0  0  0  0  0  0
   29.2216    8.2407   48.4545 C   0  0  0  0  0  0  0  0  0  0  0  0
   29.5762    6.9287   44.4874 H   0  0  0  0  0  0  0  0  0  0  0  0
   26.7070    7.9463   52.0268 C   0  0  0  0  0  0  0  0  0  0  0  0
   25.8073    7.2680   53.0156 C   0  0  0  0  0  0  0  0  0  0  0  0
   26.0904    7.0378   54.3153 C   0  0  0  0  0  0  0  0  0  0  0  0
   25.1799    6.3977   55.1293 C   0  0  0  0  0  0  0  0  0  0  0  0
   23.9633    5.9831   54.6220 C   0  0  0  0  0  0  0  0  0  0  0  0
   23.0445    5.3445   55.4183 O   0  0  0  0  0  0  0  0  0  0  0  0
   23.6335    6.1989   53.2976 C   0  0  0  0  0  0  0  0  0  0  0  0
   24.5669    6.8407   52.5161 C   0  0  0  0  0  0  0  0  0  0  0  0
   22.1505    5.0316   55.0773 H   0  0  0  0  0  0  0  0  0  0  0  0
 36 37  1  0  0  0
 37 34  1  0  0  0
 34 35  1  0  0  0
 34  1  1  0  0  0
  1  2  1  0  0  0
  2  3  1  0  0  0
  3  4  2  0  0  0
  3  5  1  0  0  0
  5 38  1  0  0  0
 38 39  1  0  0  0
 39 40  2  0  0  0
 40 41  1  0  0  0
 41 42  2  0  0  0
 42 43  1  0  0  0
 42 44  1  0  0  0
 44 45  2  0  0  0
  5  6  1  0  0  0
  6  7  1  0  0  0
  7  8  2  0  0  0
  7  9  1  0  0  0
  9 47  1  0  0  0
 47 48  1  0  0  0
 48 49  1  0  0  0
 48 50  1  0  0  0
  9 10  1  0  0  0
 10 11  1  0  0  0
 11 12  2  0  0  0
 11 13  1  0  0  0
 13 14  1  0  0  0
 14 15  1  0  0  0
 15 16  2  0  0  0
 15 17  1  0  0  0
 17 51  1  0  0  0
 51 52  1  0  0  0
 52 53  2  0  0  0
 53 54  1  0  0  0
 54 55  2  0  0  0
 55 56  1  0  0  0
 55 57  1  0  0  0
 57 58  2  0  0  0
 17 18  1  0  0  0
 18 19  1  0  0  0
 19 20  2  0  0  0
 19 21  1  0  0  0
 21 60  1  0  0  0
 60 61  1  0  0  0
 61 62  2  0  0  0
 62 63  1  0  0  0
 63 64  2  0  0  0
 64 65  1  0  0  0
 64 66  1  0  0  0
 66 67  2  0  0  0
 21 22  1  0  0  0
 22 23  1  0  0  0
 23 24  2  0  0  0
 13 31  1  0  0  0
 31 32  1  0  0  0
 31 33  1  0  0  0
 23  1  1  0  0  0
 45 39  1  0  0  0
 58 52  1  0  0  0
 67 61  1  0  0  0
  2 25  1  0  0  0
 43 46  1  0  0  0
  6 26  1  0  0  0
 10 27  1  0  0  0
 14 28  1  0  0  0
 56 59  1  0  0  0
 18 29  1  0  0  0
 65 68  1  0  0  0
 22 30  1  0  0  0
M  END
> <minimizedAffinity>
100.01855

> <CNNscore>
0.1031166539

> <CNNaffinity>
6.7324395180

> <CNN_VS>
0.6942266226

> <CNNaffinity_variance>
5.3375024796

$$$$
[H]Oc1c([H])c([H])c(C([H])([H])[C@@]2([H])C(=O)N([H])[C@@]([H])(C([H])([H])c3c([H])c([H])c(O[H])c([H])c3[H])C(=O)N([H])[C@@]([H])(C([H])(C([H])([H])[H])C([H])([H])[H])C(=O)N([H])[C@@]([H])(C([H])([H])C([H])(C([H])([H])[H])C([H])([H])[H])C(=O)N([H])[C@@]([H])(C([H])([H])c3c([H])c([H])c(O[H])c([H])c3[H])C(=O)N([H])[C@@]([H])([C@@]([H])(C([H])([H])[H])C([H])([H])C([H])([H])[H])C(=O)N2[H])c([H])c1[H]


 68 71  0  0  0  0  0  0  0  0999 V2000
   27.6243    9.7507   53.2225 C   0  0  0  0  0  0  0  0  0  0  0  0
   27.0461    8.4180   53.0505 N   0  0  0  0  0  0  0  0  0  0  0  0
   25.7521    8.0600   52.7222 C   0  0  0  0  0  0  0  0  0  0  0  0
   25.5921    7.3220   51.6781 O   0  0  0  0  0  0  0  0  0  0  0  0
   24.4690    8.3881   53.3871 C   0  0  0  0  0  0  0  0  0  0  0  0
   23.5507    8.9744   52.4293 N   0  0  0  0  0  0  0  0  0  0  0  0
   22.4193    9.7460   52.6982 C   0  0  0  0  0  0  0  0  0  0  0  0
   21.2806    9.4296   52.1867 O   0  0  0  0  0  0  0  0  0  0  0  0
   22.3758   10.9825   53.5702 C   0  0  0  0  0  0  0  0  0  0  0  0
   21.3187   11.8183   53.0396 N   0  0  0  0  0  0  0  0  0  0  0  0
   21.3590   13.0160   52.3568 C   0  0  0  0  0  0  0  0  0  0  0  0
   20.4165   13.8818   52.6021 O   0  0  0  0  0  0  0  0  0  0  0  0
   22.3116   13.5297   51.3526 C   0  0  0  0  0  0  0  0  0  0  0  0
   22.8052   12.5751   50.4113 N   0  0  0  0  0  0  0  0  0  0  0  0
   23.9071   12.8116   49.5516 C   0  0  0  0  0  0  0  0  0  0  0  0
   23.9284   12.3597   48.3559 O   0  0  0  0  0  0  0  0  0  0  0  0
   25.0948   13.6128   50.0301 C   0  0  0  0  0  0  0  0  0  0  0  0
   25.8381   12.8260   50.9320 N   0  0  0  0  0  0  0  0  0  0  0  0
   27.1071   12.2655   50.9734 C   0  0  0  0  0  0  0  0  0  0  0  0
   27.9263   12.7321   51.8715 O   0  0  0  0  0  0  0  0  0  0  0  0
   27.7518   11.2153   50.1897 C   0  0  0  0  0  0  0  0  0  0  0  0
   28.6985   10.4170   50.9378 N   0  0  0  0  0  0  0  0  0  0  0  0
   28.7144    9.9929   52.2495 C   0  0  0  0  0  0  0  0  0  0  0  0
   29.8967    9.7613   52.7229 O   0  0  0  0  0  0  0  0  0  0  0  0
   27.7636    7.6412   53.2058 H   0  0  0  0  0  0  0  0  0  0  0  0
   23.7637    8.7802   51.4002 H   0  0  0  0  0  0  0  0  0  0  0  0
   20.3453   11.4038   53.2269 H   0  0  0  0  0  0  0  0  0  0  0  0
   22.3267   11.6547   50.3314 H   0  0  0  0  0  0  0  0  0  0  0  0
   25.2496   12.6111   51.8360 H   0  0  0  0  0  0  0  0  0  0  0  0
   29.5367   10.1216   50.3150 H   0  0  0  0  0  0  0  0  0  0  0  0
   21.6652   14.6325   50.4826 C   0  0  0  0  0  0  0  0  0  0  0  0
   20.3258   15.0212   51.0228 C   0  0  0  0  0  0  0  0  0  0  0  0
   22.6173   15.7490   50.2472 C   0  0  0  0  0  0  0  0  0  0  0  0
   28.2280    9.7302   54.6199 C   0  0  0  0  0  0  0  0  0  0  0  0
   28.8383   11.0199   55.0473 C   0  0  0  0  0  0  0  0  0  0  0  0
   27.9698    9.5992   57.0248 C   0  0  0  0  0  0  0  0  0  0  0  0
   27.3171    9.2461   55.6884 C   0  0  0  0  0  0  0  0  0  0  0  0
   23.7723    7.1195   53.8701 C   0  0  0  0  0  0  0  0  0  0  0  0
   22.3204    7.1060   53.6920 C   0  0  0  0  0  0  0  0  0  0  0  0
   21.4985    7.5641   54.7298 C   0  0  0  0  0  0  0  0  0  0  0  0
   20.1301    7.5931   54.6304 C   0  0  0  0  0  0  0  0  0  0  0  0
   19.5040    7.1609   53.4753 C   0  0  0  0  0  0  0  0  0  0  0  0
   18.1024    7.1886   53.3684 O   0  0  0  0  0  0  0  0  0  0  0  0
   20.2913    6.7090   52.4485 C   0  0  0  0  0  0  0  0  0  0  0  0
   21.6569    6.6844   52.5588 C   0  0  0  0  0  0  0  0  0  0  0  0
   17.6237    8.0056   53.0056 H   0  0  0  0  0  0  0  0  0  0  0  0
   21.9532   10.4614   54.9290 C   0  0  0  0  0  0  0  0  0  0  0  0
   22.9736    9.7566   55.7252 C   0  0  0  0  0  0  0  0  0  0  0  0
   24.3447   10.3126   55.7757 C   0  0  0  0  0  0  0  0  0  0  0  0
   22.4576    9.7495   57.1791 C   0  0  0  0  0  0  0  0  0  0  0  0
   25.7134   14.3721   48.9383 C   0  0  0  0  0  0  0  0  0  0  0  0
   26.8354   13.7665   48.2128 C   0  0  0  0  0  0  0  0  0  0  0  0
   26.9062   13.8424   46.8115 C   0  0  0  0  0  0  0  0  0  0  0  0
   27.9095   13.2605   46.0787 C   0  0  0  0  0  0  0  0  0  0  0  0
   28.9045   12.5655   46.7158 C   0  0  0  0  0  0  0  0  0  0  0  0
   29.9578   11.9461   46.0501 O   0  0  0  0  0  0  0  0  0  0  0  0
   28.8728   12.4657   48.0965 C   0  0  0  0  0  0  0  0  0  0  0  0
   27.8565   13.0583   48.7991 C   0  0  0  0  0  0  0  0  0  0  0  0
   30.7991   12.4445   45.8753 H   0  0  0  0  0  0  0  0  0  0  0  0
   26.8756   10.2609   49.4463 C   0  0  0  0  0  0  0  0  0  0  0  0
   27.7708    9.4609   48.5486 C   0  0  0  0  0  0  0  0  0  0  0  0
   28.8917    8.8094   48.9251 C   0  0  0  0  0  0  0  0  0  0  0  0
   29.6385    8.1071   48.0031 C   0  0  0  0  0  0  0  0  0  0  0  0
   29.2469    8.0621   46.6787 C   0  0  0  0  0  0  0  0  0  0  0  0
   29.9784    7.3670   45.7471 O   0  0  0  0  0  0  0  0  0  0  0  0
   28.1063    8.7146   46.2512 C   0  0  0  0  0  0  0  0  0  0  0  0
   27.3867    9.4048   47.1996 C   0  0  0  0  0  0  0  0  0  0  0  0
   29.7179    7.3159   44.7761 H   0  0  0  0  0  0  0  0  0  0  0  0
 36 37  1  0  0  0
 37 34  1  0  0  0
 34 35  1  0  0  0
 34  1  1  0  0  0
  1  2  1  0  0  0
  2  3  1  0  0  0
  3  4  2  0  0  0
  3  5  1  0  0  0
  5 38  1  0  0  0
 38 39  1  0  0  0
 39 40  2  0  0  0
 40 41  1  0  0  0
 41 42  2  0  0  0
 42 43  1  0  0  0
 42 44  1  0  0  0
 44 45  2  0  0  0
  5  6  1  0  0  0
  6  7  1  0  0  0
  7  8  2  0  0  0
  7  9  1  0  0  0
  9 47  1  0  0  0
 47 48  1  0  0  0
 48 49  1  0  0  0
 48 50  1  0  0  0
  9 10  1  0  0  0
 10 11  1  0  0  0
 11 12  2  0  0  0
 11 13  1  0  0  0
 13 14  1  0  0  0
 14 15  1  0  0  0
 15 16  2  0  0  0
 15 17  1  0  0  0
 17 51  1  0  0  0
 51 52  1  0  0  0
 52 53  2  0  0  0
 53 54  1  0  0  0
 54 55  2  0  0  0
 55 56  1  0  0  0
 55 57  1  0  0  0
 57 58  2  0  0  0
 17 18  1  0  0  0
 18 19  1  0  0  0
 19 20  2  0  0  0
 19 21  1  0  0  0
 21 60  1  0  0  0
 60 61  1  0  0  0
 61 62  2  0  0  0
 62 63  1  0  0  0
 63 64  2  0  0  0
 64 65  1  0  0  0
 64 66  1  0  0  0
 66 67  2  0  0  0
 21 22  1  0  0  0
 22 23  1  0  0  0
 23 24  2  0  0  0
 13 31  1  0  0  0
 31 32  1  0  0  0
 31 33  1  0  0  0
 23  1  1  0  0  0
 45 39  1  0  0  0
 58 52  1  0  0  0
 67 61  1  0  0  0
  2 25  1  0  0  0
 43 46  1  0  0  0
  6 26  1  0  0  0
 10 27  1  0  0  0
 14 28  1  0  0  0
 56 59  1  0  0  0
 18 29  1  0  0  0
 65 68  1  0  0  0
 22 30  1  0  0  0
M  END
> <minimizedAffinity>
114.58599

> <CNNscore>
0.0989823490

> <CNNaffinity>
6.4525995255

> <CNN_VS>
0.6386934519

> <CNNaffinity_variance>
6.7706961632

$$$$
[H]Oc1c([H])c([H])c(C([H])([H])[C@@]2([H])C(=O)N([H])[C@@]([H])(C([H])([H])c3c([H])c([H])c(O[H])c([H])c3[H])C(=O)N([H])[C@@]([H])(C([H])(C([H])([H])[H])C([H])([H])[H])C(=O)N([H])[C@@]([H])(C([H])([H])C([H])(C([H])([H])[H])C([H])([H])[H])C(=O)N([H])[C@@]([H])(C([H])([H])c3c([H])c([H])c(O[H])c([H])c3[H])C(=O)N([H])[C@@]([H])([C@@]([H])(C([H])([H])[H])C([H])([H])C([H])([H])[H])C(=O)N2[H])c([H])c1[H]


 68 71  0  0  0  0  0  0  0  0999 V2000
   26.5177    7.7208   54.1182 C   0  0  0  0  0  0  0  0  0  0  0  0
   26.4538    8.5452   55.3250 N   0  0  0  0  0  0  0  0  0  0  0  0
   25.4113    9.3143   55.8066 C   0  0  0  0  0  0  0  0  0  0  0  0
   24.9935    9.0600   56.9987 O   0  0  0  0  0  0  0  0  0  0  0  0
   24.6630   10.4224   55.1676 C   0  0  0  0  0  0  0  0  0  0  0  0
   23.2393   10.1474   55.2092 N   0  0  0  0  0  0  0  0  0  0  0  0
   22.2396   10.7166   54.4190 C   0  0  0  0  0  0  0  0  0  0  0  0
   21.2041   11.2512   54.9669 O   0  0  0  0  0  0  0  0  0  0  0  0
   22.2326   10.7795   52.9067 C   0  0  0  0  0  0  0  0  0  0  0  0
   20.8414   10.7614   52.5045 N   0  0  0  0  0  0  0  0  0  0  0  0
   20.0844    9.7902   51.8832 C   0  0  0  0  0  0  0  0  0  0  0  0
   19.1839   10.1836   51.0273 O   0  0  0  0  0  0  0  0  0  0  0  0
   20.0996    8.3192   52.0084 C   0  0  0  0  0  0  0  0  0  0  0  0
   20.3157    7.8044   53.3234 N   0  0  0  0  0  0  0  0  0  0  0  0
   20.6207    6.4481   53.5996 C   0  0  0  0  0  0  0  0  0  0  0  0
   20.1603    5.8594   54.6368 O   0  0  0  0  0  0  0  0  0  0  0  0
   21.5046    5.6555   52.6657 C   0  0  0  0  0  0  0  0  0  0  0  0
   22.8351    6.0917   52.8224 N   0  0  0  0  0  0  0  0  0  0  0  0
   24.0311    5.5438   53.2650 C   0  0  0  0  0  0  0  0  0  0  0  0
   24.9739    5.3978   52.3788 O   0  0  0  0  0  0  0  0  0  0  0  0
   24.4812    5.0739   54.5725 C   0  0  0  0  0  0  0  0  0  0  0  0
   25.8901    5.2863   54.8234 N   0  0  0  0  0  0  0  0  0  0  0  0
   26.7514    6.2969   54.4523 C   0  0  0  0  0  0  0  0  0  0  0  0
   27.9943    5.9422   54.3822 O   0  0  0  0  0  0  0  0  0  0  0  0
   27.3632    8.5150   55.8858 H   0  0  0  0  0  0  0  0  0  0  0  0
   22.9236    9.4336   55.9392 H   0  0  0  0  0  0  0  0  0  0  0  0
   20.3399   11.6799   52.7479 H   0  0  0  0  0  0  0  0  0  0  0  0
   20.2315    8.4494   54.1354 H   0  0  0  0  0  0  0  0  0  0  0  0
   22.9406    7.1388   52.5030 H   0  0  0  0  0  0  0  0  0  0  0  0
   26.3072    4.4760   55.4125 H   0  0  0  0  0  0  0  0  0  0  0  0
   18.7486    7.7076   51.5706 C   0  0  0  0  0  0  0  0  0  0  0  0
   17.9207    7.3369   52.7596 C   0  0  0  0  0  0  0  0  0  0  0  0
   18.0803    8.5667   50.5586 C   0  0  0  0  0  0  0  0  0  0  0  0
   27.7333    8.2392   53.3627 C   0  0  0  0  0  0  0  0  0  0  0  0
   27.4216    8.8650   52.0475 C   0  0  0  0  0  0  0  0  0  0  0  0
   29.7269    8.2959   54.7376 C   0  0  0  0  0  0  0  0  0  0  0  0
   28.6108    9.1520   54.1392 C   0  0  0  0  0  0  0  0  0  0  0  0
   24.8343   11.7155   55.9592 C   0  0  0  0  0  0  0  0  0  0  0  0
   26.0531   11.7898   56.7648 C   0  0  0  0  0  0  0  0  0  0  0  0
   26.7243   10.6075   57.1027 C   0  0  0  0  0  0  0  0  0  0  0  0
   27.8791   10.5997   57.8440 C   0  0  0  0  0  0  0  0  0  0  0  0
   28.4302   11.7866   58.2918 C   0  0  0  0  0  0  0  0  0  0  0  0
   29.6132   11.7840   59.0517 O   0  0  0  0  0  0  0  0  0  0  0  0
   27.7880   12.9542   57.9713 C   0  0  0  0  0  0  0  0  0  0  0  0
   26.6352   12.9501   57.2305 C   0  0  0  0  0  0  0  0  0  0  0  0
   30.5207   11.8400   58.6027 H   0  0  0  0  0  0  0  0  0  0  0  0
   22.8164   12.1419   52.5911 C   0  0  0  0  0  0  0  0  0  0  0  0
   22.1259   12.9481   51.5687 C   0  0  0  0  0  0  0  0  0  0  0  0
   21.5129   12.2561   50.4125 C   0  0  0  0  0  0  0  0  0  0  0  0
   20.9753   13.6741   52.2961 C   0  0  0  0  0  0  0  0  0  0  0  0
   21.1294    4.2379   52.6350 C   0  0  0  0  0  0  0  0  0  0  0  0
   19.7405    3.8749   52.9374 C   0  0  0  0  0  0  0  0  0  0  0  0
   19.0579    2.9351   52.1468 C   0  0  0  0  0  0  0  0  0  0  0  0
   17.7476    2.5880   52.3579 C   0  0  0  0  0  0  0  0  0  0  0  0
   17.0446    3.1684   53.3815 C   0  0  0  0  0  0  0  0  0  0  0  0
   15.7146    2.8739   53.6653 O   0  0  0  0  0  0  0  0  0  0  0  0
   17.6793    4.1004   54.1851 C   0  0  0  0  0  0  0  0  0  0  0  0
   18.9891    4.4255   53.9474 C   0  0  0  0  0  0  0  0  0  0  0  0
   15.4900    2.1411   54.2972 H   0  0  0  0  0  0  0  0  0  0  0  0
   23.7498    5.5624   55.7799 C   0  0  0  0  0  0  0  0  0  0  0  0
   22.9476    6.7528   55.3478 C   0  0  0  0  0  0  0  0  0  0  0  0
   23.1707    7.5000   54.2458 C   0  0  0  0  0  0  0  0  0  0  0  0
   22.3634    8.5791   53.9543 C   0  0  0  0  0  0  0  0  0  0  0  0
   21.3133    8.9090   54.7896 C   0  0  0  0  0  0  0  0  0  0  0  0
   20.4989    9.9800   54.5143 O   0  0  0  0  0  0  0  0  0  0  0  0
   21.0499    8.1707   55.9275 C   0  0  0  0  0  0  0  0  0  0  0  0
   21.8765    7.1012   56.1857 C   0  0  0  0  0  0  0  0  0  0  0  0
   19.7266   10.2441   55.1035 H   0  0  0  0  0  0  0  0  0  0  0  0
 36 37  1  0  0  0
 37 34  1  0  0  0
 34 35  1  0  0  0
 34  1  1  0  0  0
  1  2  1  0  0  0
  2  3  1  0  0  0
  3  4  2  0  0  0
  3  5  1  0  0  0
  5 38  1  0  0  0
 38 39  1  0  0  0
 39 40  2  0  0  0
 40 41  1  0  0  0
 41 42  2  0  0  0
 42 43  1  0  0  0
 42 44  1  0  0  0
 44 45  2  0  0  0
  5  6  1  0  0  0
  6  7  1  0  0  0
  7  8  2  0  0  0
  7  9  1  0  0  0
  9 47  1  0  0  0
 47 48  1  0  0  0
 48 49  1  0  0  0
 48 50  1  0  0  0
  9 10  1  0  0  0
 10 11  1  0  0  0
 11 12  2  0  0  0
 11 13  1  0  0  0
 13 14  1  0  0  0
 14 15  1  0  0  0
 15 16  2  0  0  0
 15 17  1  0  0  0
 17 51  1  0  0  0
 51 52  1  0  0  0
 52 53  2  0  0  0
 53 54  1  0  0  0
 54 55  2  0  0  0
 55 56  1  0  0  0
 55 57  1  0  0  0
 57 58  2  0  0  0
 17 18  1  0  0  0
 18 19  1  0  0  0
 19 20  2  0  0  0
 19 21  1  0  0  0
 21 60  1  0  0  0
 60 61  1  0  0  0
 61 62  2  0  0  0
 62 63  1  0  0  0
 63 64  2  0  0  0
 64 65  1  0  0  0
 64 66  1  0  0  0
 66 67  2  0  0  0
 21 22  1  0  0  0
 22 23  1  0  0  0
 23 24  2  0  0  0
 13 31  1  0  0  0
 31 32  1  0  0  0
 31 33  1  0  0  0
 23  1  1  0  0  0
 45 39  1  0  0  0
 58 52  1  0  0  0
 67 61  1  0  0  0
  2 25  1  0  0  0
 43 46  1  0  0  0
  6 26  1  0  0  0
 10 27  1  0  0  0
 14 28  1  0  0  0
 56 59  1  0  0  0
 18 29  1  0  0  0
 65 68  1  0  0  0
 22 30  1  0  0  0
M  END
> <minimizedAffinity>
98.01875

> <CNNscore>
0.0805100799

> <CNNaffinity>
6.3216586113

> <CNN_VS>
0.5089572668

> <CNNaffinity_variance>
3.4562606812

$$$$
[H]Oc1c([H])c([H])c(C([H])([H])[C@@]2([H])C(=O)N([H])[C@@]([H])(C([H])([H])c3c([H])c([H])c(O[H])c([H])c3[H])C(=O)N([H])[C@@]([H])(C([H])(C([H])([H])[H])C([H])([H])[H])C(=O)N([H])[C@@]([H])(C([H])([H])C([H])(C([H])([H])[H])C([H])([H])[H])C(=O)N([H])[C@@]([H])(C([H])([H])c3c([H])c([H])c(O[H])c([H])c3[H])C(=O)N([H])[C@@]([H])([C@@]([H])(C([H])([H])[H])C([H])([H])C([H])([H])[H])C(=O)N2[H])c([H])c1[H]


 68 71  0  0  0  0  0  0  0  0999 V2000
   23.1068    7.3813   52.3709 C   0  0  0  0  0  0  0  0  0  0  0  0
   24.0366    7.4041   53.5000 N   0  0  0  0  0  0  0  0  0  0  0  0
   25.1226    8.2290   53.7243 C   0  0  0  0  0  0  0  0  0  0  0  0
   25.1286    8.9108   54.8177 O   0  0  0  0  0  0  0  0  0  0  0  0
   26.3268    8.4744   52.8962 C   0  0  0  0  0  0  0  0  0  0  0  0
   26.4849    9.8972   52.6615 N   0  0  0  0  0  0  0  0  0  0  0  0
   27.2342   10.5159   51.6597 C   0  0  0  0  0  0  0  0  0  0  0  0
   28.1023   11.4181   51.9611 O   0  0  0  0  0  0  0  0  0  0  0  0
   27.1364   10.2326   50.1760 C   0  0  0  0  0  0  0  0  0  0  0  0
   27.4824   11.4668   49.5018 N   0  0  0  0  0  0  0  0  0  0  0  0
   26.7143   12.3612   48.7860 C   0  0  0  0  0  0  0  0  0  0  0  0
   27.2605   12.9292   47.7481 O   0  0  0  0  0  0  0  0  0  0  0  0
   25.3246   12.8204   48.9799 C   0  0  0  0  0  0  0  0  0  0  0  0
   24.9110   13.0115   50.3340 N   0  0  0  0  0  0  0  0  0  0  0  0
   23.5618   13.1916   50.7290 C   0  0  0  0  0  0  0  0  0  0  0  0
   23.2459   13.9881   51.6777 O   0  0  0  0  0  0  0  0  0  0  0  0
   22.4519   12.4413   50.0313 C   0  0  0  0  0  0  0  0  0  0  0  0
   22.4951   11.0917   50.4337 N   0  0  0  0  0  0  0  0  0  0  0  0
   21.6722   10.2208   51.1342 C   0  0  0  0  0  0  0  0  0  0  0  0
   21.1649    9.2257   50.4650 O   0  0  0  0  0  0  0  0  0  0  0  0
   21.2323   10.1780   52.5261 C   0  0  0  0  0  0  0  0  0  0  0  0
   21.0498    8.8406   53.0469 N   0  0  0  0  0  0  0  0  0  0  0  0
   21.7202    7.6592   52.8112 C   0  0  0  0  0  0  0  0  0  0  0  0
   21.0131    6.5935   53.0108 O   0  0  0  0  0  0  0  0  0  0  0  0
   23.8019    6.6635   54.2341 H   0  0  0  0  0  0  0  0  0  0  0  0
   25.9755   10.5419   53.3449 H   0  0  0  0  0  0  0  0  0  0  0  0
   28.5276   11.6975   49.5956 H   0  0  0  0  0  0  0  0  0  0  0  0
   25.6345   13.0377   51.0812 H   0  0  0  0  0  0  0  0  0  0  0  0
   23.4262   10.6149   50.0938 H   0  0  0  0  0  0  0  0  0  0  0  0
   20.2200    8.8046   53.7453 H   0  0  0  0  0  0  0  0  0  0  0  0
   25.0910   14.1926   48.3066 C   0  0  0  0  0  0  0  0  0  0  0  0
   25.5279   15.3076   49.2025 C   0  0  0  0  0  0  0  0  0  0  0  0
   25.6511   14.2106   46.9301 C   0  0  0  0  0  0  0  0  0  0  0  0
   23.1654    5.9507   51.8538 C   0  0  0  0  0  0  0  0  0  0  0  0
   24.3842    5.6312   51.0595 C   0  0  0  0  0  0  0  0  0  0  0  0
   23.3979    5.5101   54.2243 C   0  0  0  0  0  0  0  0  0  0  0  0
   22.9711    4.9026   52.8881 C   0  0  0  0  0  0  0  0  0  0  0  0
   27.5898    8.0594   53.6451 C   0  0  0  0  0  0  0  0  0  0  0  0
   27.8492    8.8026   54.8780 C   0  0  0  0  0  0  0  0  0  0  0  0
   28.7927    9.8381   54.8683 C   0  0  0  0  0  0  0  0  0  0  0  0
   29.0795   10.5866   55.9821 C   0  0  0  0  0  0  0  0  0  0  0  0
   28.4310   10.3369   57.1780 C   0  0  0  0  0  0  0  0  0  0  0  0
   28.7213   11.1009   58.3220 O   0  0  0  0  0  0  0  0  0  0  0  0
   27.5044    9.3276   57.2076 C   0  0  0  0  0  0  0  0  0  0  0  0
   27.2260    8.5864   56.0892 C   0  0  0  0  0  0  0  0  0  0  0  0
   28.2059   11.9502   58.5256 H   0  0  0  0  0  0  0  0  0  0  0  0
   28.2280    9.2127   49.9220 C   0  0  0  0  0  0  0  0  0  0  0  0
   28.7293    9.0948   48.5412 C   0  0  0  0  0  0  0  0  0  0  0  0
   29.3451    7.8178   48.1152 C   0  0  0  0  0  0  0  0  0  0  0  0
   27.5116    9.3145   47.6198 C   0  0  0  0  0  0  0  0  0  0  0  0
   21.2104   13.2212   49.9913 C   0  0  0  0  0  0  0  0  0  0  0  0
   20.2030   12.8817   48.9804 C   0  0  0  0  0  0  0  0  0  0  0  0
   19.2883   11.8387   49.2034 C   0  0  0  0  0  0  0  0  0  0  0  0
   18.3523   11.4514   48.2782 C   0  0  0  0  0  0  0  0  0  0  0  0
   18.2815   12.0939   47.0694 C   0  0  0  0  0  0  0  0  0  0  0  0
   17.3638   11.7655   46.0763 O   0  0  0  0  0  0  0  0  0  0  0  0
   19.1648   13.1276   46.8082 C   0  0  0  0  0  0  0  0  0  0  0  0
   20.0882   13.4899   47.7537 C   0  0  0  0  0  0  0  0  0  0  0  0
   16.4760   12.2104   46.0510 H   0  0  0  0  0  0  0  0  0  0  0  0
   22.0374   10.9279   53.5364 C   0  0  0  0  0  0  0  0  0  0  0  0
   22.1557   10.0418   54.7398 C   0  0  0  0  0  0  0  0  0  0  0  0
   23.1227   10.1076   55.6794 C   0  0  0  0  0  0  0  0  0  0  0  0
   23.1282    9.2309   56.7436 C   0  0  0  0  0  0  0  0  0  0  0  0
   22.1404    8.2717   56.8608 C   0  0  0  0  0  0  0  0  0  0  0  0
   22.1301    7.3908   57.9144 O   0  0  0  0  0  0  0  0  0  0  0  0
   21.1322    8.1699   55.9214 C   0  0  0  0  0  0  0  0  0  0  0  0
   21.1595    9.0618   54.8738 C   0  0  0  0  0  0  0  0  0  0  0  0
   21.4239    6.6823   58.0265 H   0  0  0  0  0  0  0  0  0  0  0  0
 36 37  1  0  0  0
 37 34  1  0  0  0
 34 35  1  0  0  0
 34  1  1  0  0  0
  1  2  1  0  0  0
  2  3  1  0  0  0
  3  4  2  0  0  0
  3  5  1  0  0  0
  5 38  1  0  0  0
 38 39  1  0  0  0
 39 40  2  0  0  0
 40 41  1  0  0  0
 41 42  2  0  0  0
 42 43  1  0  0  0
 42 44  1  0  0  0
 44 45  2  0  0  0
  5  6  1  0  0  0
  6  7  1  0  0  0
  7  8  2  0  0  0
  7  9  1  0  0  0
  9 47  1  0  0  0
 47 48  1  0  0  0
 48 49  1  0  0  0
 48 50  1  0  0  0
  9 10  1  0  0  0
 10 11  1  0  0  0
 11 12  2  0  0  0
 11 13  1  0  0  0
 13 14  1  0  0  0
 14 15  1  0  0  0
 15 16  2  0  0  0
 15 17  1  0  0  0
 17 51  1  0  0  0
 51 52  1  0  0  0
 52 53  2  0  0  0
 53 54  1  0  0  0
 54 55  2  0  0  0
 55 56  1  0  0  0
 55 57  1  0  0  0
 57 58  2  0  0  0
 17 18  1  0  0  0
 18 19  1  0  0  0
 19 20  2  0  0  0
 19 21  1  0  0  0
 21 60  1  0  0  0
 60 61  1  0  0  0
 61 62  2  0  0  0
 62 63  1  0  0  0
 63 64  2  0  0  0
 64 65  1  0  0  0
 64 66  1  0  0  0
 66 67  2  0  0  0
 21 22  1  0  0  0
 22 23  1  0  0  0
 23 24  2  0  0  0
 13 31  1  0  0  0
 31 32  1  0  0  0
 31 33  1  0  0  0
 23  1  1  0  0  0
 45 39  1  0  0  0
 58 52  1  0  0  0
 67 61  1  0  0  0
  2 25  1  0  0  0
 43 46  1  0  0  0
  6 26  1  0  0  0
 10 27  1  0  0  0
 14 28  1  0  0  0
 56 59  1  0  0  0
 18 29  1  0  0  0
 65 68  1  0  0  0
 22 30  1  0  0  0
M  END
> <minimizedAffinity>
113.93317

> <CNNscore>
0.0238609891

> <CNNaffinity>
6.0428996086

> <CNN_VS>
0.1441895664

> <CNNaffinity_variance>
6.4528312683

$$$$
[H]Oc1c([H])c([H])c(C([H])([H])[C@@]2([H])C(=O)N([H])[C@@]([H])(C([H])([H])c3c([H])c([H])c(O[H])c([H])c3[H])C(=O)N([H])[C@@]([H])(C([H])(C([H])([H])[H])C([H])([H])[H])C(=O)N([H])[C@@]([H])(C([H])([H])C([H])(C([H])([H])[H])C([H])([H])[H])C(=O)N([H])[C@@]([H])(C([H])([H])c3c([H])c([H])c(O[H])c([H])c3[H])C(=O)N([H])[C@@]([H])([C@@]([H])(C([H])([H])[H])C([H])([H])C([H])([H])[H])C(=O)N2[H])c([H])c1[H]


 68 71  0  0  0  0  0  0  0  0999 V2000
   22.2084    9.7627   53.0938 C   0  0  0  0  0  0  0  0  0  0  0  0
   22.1552    8.3406   52.7549 N   0  0  0  0  0  0  0  0  0  0  0  0
   23.1713    7.4036   52.7452 C   0  0  0  0  0  0  0  0  0  0  0  0
   23.0106    6.3530   53.4738 O   0  0  0  0  0  0  0  0  0  0  0  0
   24.4607    7.3958   52.0149 C   0  0  0  0  0  0  0  0  0  0  0  0
   25.5554    7.1934   52.9450 N   0  0  0  0  0  0  0  0  0  0  0  0
   26.9054    7.4860   52.7463 C   0  0  0  0  0  0  0  0  0  0  0  0
   27.8021    6.5835   52.9463 O   0  0  0  0  0  0  0  0  0  0  0  0
   27.4677    8.8182   52.2988 C   0  0  0  0  0  0  0  0  0  0  0  0
   28.7896    8.9192   52.8820 N   0  0  0  0  0  0  0  0  0  0  0  0
   29.2809    9.7156   53.8952 C   0  0  0  0  0  0  0  0  0  0  0  0
   30.5017   10.1559   53.7778 O   0  0  0  0  0  0  0  0  0  0  0  0
   28.6583   10.1876   55.1480 C   0  0  0  0  0  0  0  0  0  0  0  0
   27.8132    9.2514   55.8191 N   0  0  0  0  0  0  0  0  0  0  0  0
   26.9342    9.5981   56.8756 C   0  0  0  0  0  0  0  0  0  0  0  0
   26.7359    8.8106   57.8630 O   0  0  0  0  0  0  0  0  0  0  0  0
   26.2037   10.9200   56.8626 C   0  0  0  0  0  0  0  0  0  0  0  0
   25.1807   10.8626   55.8955 N   0  0  0  0  0  0  0  0  0  0  0  0
   23.7937   10.9116   55.8897 C   0  0  0  0  0  0  0  0  0  0  0  0
   23.2447   11.9465   55.3214 O   0  0  0  0  0  0  0  0  0  0  0  0
   22.7689   10.0094   56.4081 C   0  0  0  0  0  0  0  0  0  0  0  0
   21.5598    9.9709   55.6145 N   0  0  0  0  0  0  0  0  0  0  0  0
   21.3439   10.0704   54.2565 C   0  0  0  0  0  0  0  0  0  0  0  0
   20.1714   10.5124   53.9318 O   0  0  0  0  0  0  0  0  0  0  0  0
   21.1702    8.0236   52.4873 H   0  0  0  0  0  0  0  0  0  0  0  0
   25.2936    6.7591   53.8858 H   0  0  0  0  0  0  0  0  0  0  0  0
   29.4851    8.2411   52.4228 H   0  0  0  0  0  0  0  0  0  0  0  0
   27.8474    8.2509   55.5357 H   0  0  0  0  0  0  0  0  0  0  0  0
   25.6058   10.7559   54.8867 H   0  0  0  0  0  0  0  0  0  0  0  0
   20.6850    9.8422   56.2436 H   0  0  0  0  0  0  0  0  0  0  0  0
   29.7302   10.5628   56.1973 C   0  0  0  0  0  0  0  0  0  0  0  0
   30.3019   11.9157   55.9152 C   0  0  0  0  0  0  0  0  0  0  0  0
   29.2197   10.3503   57.5767 C   0  0  0  0  0  0  0  0  0  0  0  0
   21.6360   10.4701   51.8734 C   0  0  0  0  0  0  0  0  0  0  0  0
   20.6586    9.6610   51.0933 C   0  0  0  0  0  0  0  0  0  0  0  0
   21.9793   12.8376   51.4930 C   0  0  0  0  0  0  0  0  0  0  0  0
   21.0530   11.8095   52.1422 C   0  0  0  0  0  0  0  0  0  0  0  0
   24.5332    6.2065   51.0618 C   0  0  0  0  0  0  0  0  0  0  0  0
   24.9010    4.9358   51.6863 C   0  0  0  0  0  0  0  0  0  0  0  0
   24.1735    4.4806   52.7935 C   0  0  0  0  0  0  0  0  0  0  0  0
   24.4520    3.2935   53.4230 C   0  0  0  0  0  0  0  0  0  0  0  0
   25.4842    2.4896   52.9740 C   0  0  0  0  0  0  0  0  0  0  0  0
   25.7737    1.2725   53.6155 O   0  0  0  0  0  0  0  0  0  0  0  0
   26.2077    2.9180   51.8918 C   0  0  0  0  0  0  0  0  0  0  0  0
   25.9208    4.1054   51.2709 C   0  0  0  0  0  0  0  0  0  0  0  0
   25.3284    0.4101   53.3217 H   0  0  0  0  0  0  0  0  0  0  0  0
   27.6044    8.6755   50.7964 C   0  0  0  0  0  0  0  0  0  0  0  0
   28.6698    9.4552   50.1416 C   0  0  0  0  0  0  0  0  0  0  0  0
   29.0812    9.0837   48.7689 C   0  0  0  0  0  0  0  0  0  0  0  0
   28.1537   10.9067   50.0589 C   0  0  0  0  0  0  0  0  0  0  0  0
   25.9896   11.4358   58.2189 C   0  0  0  0  0  0  0  0  0  0  0  0
   27.1349   11.9992   58.9421 C   0  0  0  0  0  0  0  0  0  0  0  0
   27.6226   13.2784   58.6254 C   0  0  0  0  0  0  0  0  0  0  0  0
   28.7138   13.8383   59.2400 C   0  0  0  0  0  0  0  0  0  0  0  0
   29.3808   13.1410   60.2135 C   0  0  0  0  0  0  0  0  0  0  0  0
   30.4945   13.6339   60.8866 O   0  0  0  0  0  0  0  0  0  0  0  0
   28.9337   11.8762   60.5563 C   0  0  0  0  0  0  0  0  0  0  0  0
   27.8406   11.3453   59.9230 C   0  0  0  0  0  0  0  0  0  0  0  0
   30.3806   14.1528   61.7260 H   0  0  0  0  0  0  0  0  0  0  0  0
   23.1560    8.5912   56.6730 C   0  0  0  0  0  0  0  0  0  0  0  0
   22.2363    7.7322   55.8584 C   0  0  0  0  0  0  0  0  0  0  0  0
   20.9910    8.0647   55.4571 C   0  0  0  0  0  0  0  0  0  0  0  0
   20.2354    7.1846   54.7115 C   0  0  0  0  0  0  0  0  0  0  0  0
   20.7462    5.9482   54.3655 C   0  0  0  0  0  0  0  0  0  0  0  0
   20.0079    5.0595   53.6230 O   0  0  0  0  0  0  0  0  0  0  0  0
   22.0162    5.5682   54.7555 C   0  0  0  0  0  0  0  0  0  0  0  0
   22.7403    6.4725   55.4981 C   0  0  0  0  0  0  0  0  0  0  0  0
   20.3532    4.1526   53.3555 H   0  0  0  0  0  0  0  0  0  0  0  0
 36 37  1  0  0  0
 37 34  1  0  0  0
 34 35  1  0  0  0
 34  1  1  0  0  0
  1  2  1  0  0  0
  2  3  1  0  0  0
  3  4  2  0  0  0
  3  5  1  0  0  0
  5 38  1  0  0  0
 38 39  1  0  0  0
 39 40  2  0  0  0
 40 41  1  0  0  0
 41 42  2  0  0  0
 42 43  1  0  0  0
 42 44  1  0  0  0
 44 45  2  0  0  0
  5  6  1  0  0  0
  6  7  1  0  0  0
  7  8  2  0  0  0
  7  9  1  0  0  0
  9 47  1  0  0  0
 47 48  1  0  0  0
 48 49  1  0  0  0
 48 50  1  0  0  0
  9 10  1  0  0  0
 10 11  1  0  0  0
 11 12  2  0  0  0
 11 13  1  0  0  0
 13 14  1  0  0  0
 14 15  1  0  0  0
 15 16  2  0  0  0
 15 17  1  0  0  0
 17 51  1  0  0  0
 51 52  1  0  0  0
 52 53  2  0  0  0
 53 54  1  0  0  0
 54 55  2  0  0  0
 55 56  1  0  0  0
 55 57  1  0  0  0
 57 58  2  0  0  0
 17 18  1  0  0  0
 18 19  1  0  0  0
 19 20  2  0  0  0
 19 21  1  0  0  0
 21 60  1  0  0  0
 60 61  1  0  0  0
 61 62  2  0  0  0
 62 63  1  0  0  0
 63 64  2  0  0  0
 64 65  1  0  0  0
 64 66  1  0  0  0
 66 67  2  0  0  0
 21 22  1  0  0  0
 22 23  1  0  0  0
 23 24  2  0  0  0
 13 31  1  0  0  0
 31 32  1  0  0  0
 31 33  1  0  0  0
 23  1  1  0  0  0
 45 39  1  0  0  0
 58 52  1  0  0  0
 67 61  1  0  0  0
  2 25  1  0  0  0
 43 46  1  0  0  0
  6 26  1  0  0  0
 10 27  1  0  0  0
 14 28  1  0  0  0
 56 59  1  0  0  0
 18 29  1  0  0  0
 65 68  1  0  0  0
 22 30  1  0  0  0
M  END
> <minimizedAffinity>
113.11791

> <CNNscore>
0.0197063200

> <CNNaffinity>
5.8745388985

> <CNN_VS>
0.1157655418

> <CNNaffinity_variance>
3.7680499554

$$$$
[H]Oc1c([H])c([H])c(C([H])([H])[C@@]2([H])C(=O)N([H])[C@@]([H])(C([H])([H])c3c([H])c([H])c(O[H])c([H])c3[H])C(=O)N([H])[C@@]([H])(C([H])(C([H])([H])[H])C([H])([H])[H])C(=O)N([H])[C@@]([H])(C([H])([H])C([H])(C([H])([H])[H])C([H])([H])[H])C(=O)N([H])[C@@]([H])(C([H])([H])c3c([H])c([H])c(O[H])c([H])c3[H])C(=O)N([H])[C@@]([H])([C@@]([H])(C([H])([H])[H])C([H])([H])C([H])([H])[H])C(=O)N2[H])c([H])c1[H]


 68 71  0  0  0  0  0  0  0  0999 V2000
   25.7397    7.5076   54.3218 C   0  0  0  0  0  0  0  0  0  0  0  0
   25.6512    8.4293   55.4543 N   0  0  0  0  0  0  0  0  0  0  0  0
   24.6628    9.3444   55.7642 C   0  0  0  0  0  0  0  0  0  0  0  0
   24.0995    9.2350   56.9179 O   0  0  0  0  0  0  0  0  0  0  0  0
   24.1183   10.4720   54.9717 C   0  0  0  0  0  0  0  0  0  0  0  0
   22.6753   10.3586   54.8757 N   0  0  0  0  0  0  0  0  0  0  0  0
   21.8344   10.9676   53.9431 C   0  0  0  0  0  0  0  0  0  0  0  0
   20.8187   11.6551   54.3356 O   0  0  0  0  0  0  0  0  0  0  0  0
   21.9880   10.9079   52.4384 C   0  0  0  0  0  0  0  0  0  0  0  0
   20.6521   11.0094   51.8881 N   0  0  0  0  0  0  0  0  0  0  0  0
   19.8532   10.0796   51.2561 C   0  0  0  0  0  0  0  0  0  0  0  0
   19.0964   10.4982   50.2813 O   0  0  0  0  0  0  0  0  0  0  0  0
   19.6829    8.6308   51.4836 C   0  0  0  0  0  0  0  0  0  0  0  0
   19.7029    8.2040   52.8469 N   0  0  0  0  0  0  0  0  0  0  0  0
   19.8172    6.8494   53.2481 C   0  0  0  0  0  0  0  0  0  0  0  0
   19.1882    6.4008   54.2666 O   0  0  0  0  0  0  0  0  0  0  0  0
   20.6919    5.8917   52.4740 C   0  0  0  0  0  0  0  0  0  0  0  0
   22.0417    6.1911   52.7453 N   0  0  0  0  0  0  0  0  0  0  0  0
   23.1141    5.5535   53.3534 C   0  0  0  0  0  0  0  0  0  0  0  0
   24.1181    5.2338   52.5883 O   0  0  0  0  0  0  0  0  0  0  0  0
   23.3712    5.1450   54.7317 C   0  0  0  0  0  0  0  0  0  0  0  0
   24.7627    5.2217   55.1205 N   0  0  0  0  0  0  0  0  0  0  0  0
   25.7697    6.0985   54.7772 C   0  0  0  0  0  0  0  0  0  0  0  0
   26.9631    5.6055   54.8687 O   0  0  0  0  0  0  0  0  0  0  0  0
   26.4893    8.3455   56.1123 H   0  0  0  0  0  0  0  0  0  0  0  0
   22.2057    9.7453   55.6143 H   0  0  0  0  0  0  0  0  0  0  0  0
   20.2398   11.9940   52.0108 H   0  0  0  0  0  0  0  0  0  0  0  0
   19.6132    8.9182   53.5981 H   0  0  0  0  0  0  0  0  0  0  0  0
   22.3010    7.1910   52.3677 H   0  0  0  0  0  0  0  0  0  0  0  0
   25.0200    4.4211   55.8065 H   0  0  0  0  0  0  0  0  0  0  0  0
   18.3208    8.1371   50.9435 C   0  0  0  0  0  0  0  0  0  0  0  0
   17.3950    7.7928   52.0664 C   0  0  0  0  0  0  0  0  0  0  0  0
   17.7822    9.0756   49.9247 C   0  0  0  0  0  0  0  0  0  0  0  0
   27.0780    7.8269   53.6703 C   0  0  0  0  0  0  0  0  0  0  0  0
   27.0232    8.9057   52.6448 C   0  0  0  0  0  0  0  0  0  0  0  0
   28.6947    9.5186   54.2964 C   0  0  0  0  0  0  0  0  0  0  0  0
   28.1836    8.1146   54.6194 C   0  0  0  0  0  0  0  0  0  0  0  0
   24.3591   11.7987   55.6861 C   0  0  0  0  0  0  0  0  0  0  0  0
   25.6045   11.8718   56.4499 C   0  0  0  0  0  0  0  0  0  0  0  0
   26.2405   10.6857   56.8388 C   0  0  0  0  0  0  0  0  0  0  0  0
   27.4168   10.6757   57.5454 C   0  0  0  0  0  0  0  0  0  0  0  0
   28.0265   11.8641   57.9046 C   0  0  0  0  0  0  0  0  0  0  0  0
   29.2318   11.8592   58.6285 O   0  0  0  0  0  0  0  0  0  0  0  0
   27.4195   13.0353   57.5332 C   0  0  0  0  0  0  0  0  0  0  0  0
   26.2447   13.0335   56.8278 C   0  0  0  0  0  0  0  0  0  0  0  0
   30.1262   11.8524   58.1508 H   0  0  0  0  0  0  0  0  0  0  0  0
   22.7565   12.1681   52.0953 C   0  0  0  0  0  0  0  0  0  0  0  0
   22.1429   13.0838   51.1170 C   0  0  0  0  0  0  0  0  0  0  0  0
   21.1503   14.0728   51.5947 C   0  0  0  0  0  0  0  0  0  0  0  0
   23.3006   13.8974   50.5023 C   0  0  0  0  0  0  0  0  0  0  0  0
   20.1580    4.5258   52.5004 C   0  0  0  0  0  0  0  0  0  0  0  0
   19.1058    4.2045   53.4709 C   0  0  0  0  0  0  0  0  0  0  0  0
   17.7638    4.5235   53.2035 C   0  0  0  0  0  0  0  0  0  0  0  0
   16.7449    4.2835   54.0903 C   0  0  0  0  0  0  0  0  0  0  0  0
   17.0180    3.7057   55.3029 C   0  0  0  0  0  0  0  0  0  0  0  0
   16.0458    3.4276   56.2589 O   0  0  0  0  0  0  0  0  0  0  0  0
   18.3278    3.3755   55.6072 C   0  0  0  0  0  0  0  0  0  0  0  0
   19.3226    3.6288   54.6995 C   0  0  0  0  0  0  0  0  0  0  0  0
   15.5821    2.5491   56.2575 H   0  0  0  0  0  0  0  0  0  0  0  0
   22.5838    5.8069   55.8148 C   0  0  0  0  0  0  0  0  0  0  0  0
   22.8152    5.0129   57.0651 C   0  0  0  0  0  0  0  0  0  0  0  0
   22.1730    5.1820   58.2404 C   0  0  0  0  0  0  0  0  0  0  0  0
   22.4771    4.3892   59.3268 C   0  0  0  0  0  0  0  0  0  0  0  0
   23.4461    3.4094   59.2244 C   0  0  0  0  0  0  0  0  0  0  0  0
   23.7614    2.6104   60.2961 O   0  0  0  0  0  0  0  0  0  0  0  0
   24.1272    3.2029   58.0400 C   0  0  0  0  0  0  0  0  0  0  0  0
   23.7966    4.0129   56.9778 C   0  0  0  0  0  0  0  0  0  0  0  0
   24.4618    1.8887   60.2515 H   0  0  0  0  0  0  0  0  0  0  0  0
 36 37  1  0  0  0
 37 34  1  0  0  0
 34 35  1  0  0  0
 34  1  1  0  0  0
  1  2  1  0  0  0
  2  3  1  0  0  0
  3  4  2  0  0  0
  3  5  1  0  0  0
  5 38  1  0  0  0
 38 39  1  0  0  0
 39 40  2  0  0  0
 40 41  1  0  0  0
 41 42  2  0  0  0
 42 43  1  0  0  0
 42 44  1  0  0  0
 44 45  2  0  0  0
  5  6  1  0  0  0
  6  7  1  0  0  0
  7  8  2  0  0  0
  7  9  1  0  0  0
  9 47  1  0  0  0
 47 48  1  0  0  0
 48 49  1  0  0  0
 48 50  1  0  0  0
  9 10  1  0  0  0
 10 11  1  0  0  0
 11 12  2  0  0  0
 11 13  1  0  0  0
 13 14  1  0  0  0
 14 15  1  0  0  0
 15 16  2  0  0  0
 15 17  1  0  0  0
 17 51  1  0  0  0
 51 52  1  0  0  0
 52 53  2  0  0  0
 53 54  1  0  0  0
 54 55  2  0  0  0
 55 56  1  0  0  0
 55 57  1  0  0  0
 57 58  2  0  0  0
 17 18  1  0  0  0
 18 19  1  0  0  0
 19 20  2  0  0  0
 19 21  1  0  0  0
 21 60  1  0  0  0
 60 61  1  0  0  0
 61 62  2  0  0  0
 62 63  1  0  0  0
 63 64  2  0  0  0
 64 65  1  0  0  0
 64 66  1  0  0  0
 66 67  2  0  0  0
 21 22  1  0  0  0
 22 23  1  0  0  0
 23 24  2  0  0  0
 13 31  1  0  0  0
 31 32  1  0  0  0
 31 33  1  0  0  0
 23  1  1  0  0  0
 45 39  1  0  0  0
 58 52  1  0  0  0
 67 61  1  0  0  0
  2 25  1  0  0  0
 43 46  1  0  0  0
  6 26  1  0  0  0
 10 27  1  0  0  0
 14 28  1  0  0  0
 56 59  1  0  0  0
 18 29  1  0  0  0
 65 68  1  0  0  0
 22 30  1  0  0  0
M  END
> <minimizedAffinity>
114.33304

> <CNNscore>
0.0115332054

> <CNNaffinity>
5.5213136673

> <CNN_VS>
0.0636784434

> <CNNaffinity_variance>
5.2919969559

$$$$
[H]ON([H])C(=O)C([H])([H])N(C([H])([H])c1c([H])c([H])c(-c2c([H])c([H])c([H])c([H])c2[H])c([H])c1[H])S(=O)(=O)c1c([H])c([H])c([H])c([H])c1[H]


 30 32  0  0  0  0  0  0  0  0999 V2000
   20.3207    6.0974   52.6059 N   0  0  0  0  0  0  0  0  0  0  0  0
   20.4676    7.6801   52.0103 S   0  0  0  0  0  0  0  0  0  0  0  0
   21.5203    7.7648   50.9018 O   0  0  0  0  0  0  0  0  0  0  0  0
   19.2012    8.1666   51.3480 O   0  0  0  0  0  0  0  0  0  0  0  0
   21.0034    8.8031   53.2384 C   0  0  0  0  0  0  0  0  0  0  0  0
   20.8980    8.4510   54.5667 C   0  0  0  0  0  0  0  0  0  0  0  0
   21.2979    9.2853   55.5811 C   0  0  0  0  0  0  0  0  0  0  0  0
   21.8190   10.5080   55.3139 C   0  0  0  0  0  0  0  0  0  0  0  0
   21.9434   10.9071   53.9703 C   0  0  0  0  0  0  0  0  0  0  0  0
   21.5329   10.0426   52.9764 C   0  0  0  0  0  0  0  0  0  0  0  0
   19.4423    5.9600   53.7081 C   0  0  0  0  0  0  0  0  0  0  0  0
   16.4154    4.2637   54.4846 O   0  0  0  0  0  0  0  0  0  0  0  0
   17.5951    4.3912   54.1678 N   0  0  0  0  0  0  0  0  0  0  0  0
   18.9188    4.5342   53.8124 C   0  0  0  0  0  0  0  0  0  0  0  0
   19.7764    3.6628   53.5605 O   0  0  0  0  0  0  0  0  0  0  0  0
   16.0274    4.9587   55.0678 H   0  0  0  0  0  0  0  0  0  0  0  0
   17.7237    3.0233   54.0829 H   0  0  0  0  0  0  0  0  0  0  0  0
   21.5299    5.3432   52.6659 C   0  0  0  0  0  0  0  0  0  0  0  0
   22.6745    6.0662   53.2922 C   0  0  0  0  0  0  0  0  0  0  0  0
   22.9887    6.0141   54.6299 C   0  0  0  0  0  0  0  0  0  0  0  0
   24.0779    6.7171   55.1449 C   0  0  0  0  0  0  0  0  0  0  0  0
   24.8879    7.4918   54.3510 C   0  0  0  0  0  0  0  0  0  0  0  0
   24.5600    7.5393   52.9932 C   0  0  0  0  0  0  0  0  0  0  0  0
   23.4856    6.8444   52.4907 C   0  0  0  0  0  0  0  0  0  0  0  0
   26.0379    8.2259   54.8622 C   0  0  0  0  0  0  0  0  0  0  0  0
   27.2167    8.2238   54.1381 C   0  0  0  0  0  0  0  0  0  0  0  0
   28.3155    8.9036   54.6014 C   0  0  0  0  0  0  0  0  0  0  0  0
   28.3145    9.6069   55.7786 C   0  0  0  0  0  0  0  0  0  0  0  0
   27.1521    9.6217   56.5161 C   0  0  0  0  0  0  0  0  0  0  0  0
   26.0567    8.9378   56.0419 C   0  0  0  0  0  0  0  0  0  0  0  0
 12 13  1  0  0  0
 13 14  1  0  0  0
 14 15  2  0  0  0
 14 11  1  0  0  0
 11  1  1  0  0  0
  1 18  1  0  0  0
 18 19  1  0  0  0
 19 20  2  0  0  0
 20 21  1  0  0  0
 21 22  2  0  0  0
 22 23  1  0  0  0
 23 24  2  0  0  0
 22 25  1  0  0  0
 25 26  2  0  0  0
 26 27  1  0  0  0
 27 28  2  0  0  0
 28 29  1  0  0  0
 29 30  2  0  0  0
  1  2  1  0  0  0
  2  3  2  0  0  0
  2  4  2  0  0  0
  2  5  1  0  0  0
  5  6  2  0  0  0
  6  7  1  0  0  0
  7  8  2  0  0  0
  8  9  1  0  0  0
  9 10  2  0  0  0
 24 19  1  0  0  0
 30 25  1  0  0  0
 10  5  1  0  0  0
 12 16  1  0  0  0
 13 17  1  0  0  0
M  END
> <minimizedAffinity>
8.59666

> <CNNscore>
0.6307502985

> <CNNaffinity>
6.6091012955

> <CNN_VS>
4.1686925888

> <CNNaffinity_variance>
0.3969441950

$$$$
[H]ON([H])C(=O)C([H])([H])N(C([H])([H])c1c([H])c([H])c(-c2c([H])c([H])c([H])c([H])c2[H])c([H])c1[H])S(=O)(=O)c1c([H])c([H])c([H])c([H])c1[H]


 30 32  0  0  0  0  0  0  0  0999 V2000
   20.5472    7.1130   53.0356 N   0  0  0  0  0  0  0  0  0  0  0  0
   20.4881    8.1088   51.6622 S   0  0  0  0  0  0  0  0  0  0  0  0
   21.4277    7.6033   50.5643 O   0  0  0  0  0  0  0  0  0  0  0  0
   19.1280    8.1068   51.0071 O   0  0  0  0  0  0  0  0  0  0  0  0
   21.0166    9.7400   52.0033 C   0  0  0  0  0  0  0  0  0  0  0  0
   21.2810   10.1051   53.3057 C   0  0  0  0  0  0  0  0  0  0  0  0
   21.6975   11.3689   53.6435 C   0  0  0  0  0  0  0  0  0  0  0  0
   21.8669   12.3239   52.6961 C   0  0  0  0  0  0  0  0  0  0  0  0
   21.6070   11.9928   51.3534 C   0  0  0  0  0  0  0  0  0  0  0  0
   21.1915   10.7126   51.0500 C   0  0  0  0  0  0  0  0  0  0  0  0
   20.2152    7.7611   54.2502 C   0  0  0  0  0  0  0  0  0  0  0  0
   22.6093    9.6168   56.1124 O   0  0  0  0  0  0  0  0  0  0  0  0
   21.9857    8.6294   55.7320 N   0  0  0  0  0  0  0  0  0  0  0  0
   21.2862    7.5214   55.3053 C   0  0  0  0  0  0  0  0  0  0  0  0
   21.3954    6.3267   55.6504 O   0  0  0  0  0  0  0  0  0  0  0  0
   22.7342   10.3490   55.4628 H   0  0  0  0  0  0  0  0  0  0  0  0
   22.7091    7.8364   56.5940 H   0  0  0  0  0  0  0  0  0  0  0  0
   21.6376    6.1950   53.0888 C   0  0  0  0  0  0  0  0  0  0  0  0
   22.9440    6.8133   53.4578 C   0  0  0  0  0  0  0  0  0  0  0  0
   23.4528    7.9554   52.8855 C   0  0  0  0  0  0  0  0  0  0  0  0
   24.6835    8.4775   53.2839 C   0  0  0  0  0  0  0  0  0  0  0  0
   25.4462    7.8846   54.2603 C   0  0  0  0  0  0  0  0  0  0  0  0
   24.9212    6.7238   54.8352 C   0  0  0  0  0  0  0  0  0  0  0  0
   23.7077    6.2136   54.4392 C   0  0  0  0  0  0  0  0  0  0  0  0
   26.7286    8.4163   54.7023 C   0  0  0  0  0  0  0  0  0  0  0  0
   26.8324    8.9639   55.9685 C   0  0  0  0  0  0  0  0  0  0  0  0
   28.0284    9.4760   56.4059 C   0  0  0  0  0  0  0  0  0  0  0  0
   29.1636    9.4781   55.6367 C   0  0  0  0  0  0  0  0  0  0  0  0
   29.0830    8.9389   54.3725 C   0  0  0  0  0  0  0  0  0  0  0  0
   27.8796    8.4277   53.9448 C   0  0  0  0  0  0  0  0  0  0  0  0
 12 13  1  0  0  0
 13 14  1  0  0  0
 14 15  2  0  0  0
 14 11  1  0  0  0
 11  1  1  0  0  0
  1 18  1  0  0  0
 18 19  1  0  0  0
 19 20  2  0  0  0
 20 21  1  0  0  0
 21 22  2  0  0  0
 22 23  1  0  0  0
 23 24  2  0  0  0
 22 25  1  0  0  0
 25 26  2  0  0  0
 26 27  1  0  0  0
 27 28  2  0  0  0
 28 29  1  0  0  0
 29 30  2  0  0  0
  1  2  1  0  0  0
  2  3  2  0  0  0
  2  4  2  0  0  0
  2  5  1  0  0  0
  5  6  2  0  0  0
  6  7  1  0  0  0
  7  8  2  0  0  0
  8  9  1  0  0  0
  9 10  2  0  0  0
 24 19  1  0  0  0
 30 25  1  0  0  0
 10  5  1  0  0  0
 12 16  1  0  0  0
 13 17  1  0  0  0
M  END
> <minimizedAffinity>
6.93988

> <CNNscore>
0.6101447940

> <CNNaffinity>
6.2841544151

> <CNN_VS>
3.8342440128

> <CNNaffinity_variance>
0.2640906870

$$$$
[H]ON([H])C(=O)C([H])([H])N(C([H])([H])c1c([H])c([H])c(-c2c([H])c([H])c([H])c([H])c2[H])c([H])c1[H])S(=O)(=O)c1c([H])c([H])c([H])c([H])c1[H]


 30 32  0  0  0  0  0  0  0  0999 V2000
   22.8547    8.5405   53.9583 N   0  0  0  0  0  0  0  0  0  0  0  0
   23.9122    9.0741   55.1742 S   0  0  0  0  0  0  0  0  0  0  0  0
   23.7947   10.5846   55.3940 O   0  0  0  0  0  0  0  0  0  0  0  0
   23.5835    8.4830   56.5239 O   0  0  0  0  0  0  0  0  0  0  0  0
   25.5887    8.7995   54.7616 C   0  0  0  0  0  0  0  0  0  0  0  0
   26.5493    8.8900   55.7459 C   0  0  0  0  0  0  0  0  0  0  0  0
   27.8830    8.6881   55.4905 C   0  0  0  0  0  0  0  0  0  0  0  0
   28.3163    8.3885   54.2413 C   0  0  0  0  0  0  0  0  0  0  0  0
   27.3679    8.2874   53.2066 C   0  0  0  0  0  0  0  0  0  0  0  0
   26.0358    8.4949   53.4996 C   0  0  0  0  0  0  0  0  0  0  0  0
   21.5104    8.9552   54.1205 C   0  0  0  0  0  0  0  0  0  0  0  0
   21.5004   11.1746   51.3426 O   0  0  0  0  0  0  0  0  0  0  0  0
   21.4355   10.8304   52.5198 N   0  0  0  0  0  0  0  0  0  0  0  0
   21.3627   10.4443   53.8406 C   0  0  0  0  0  0  0  0  0  0  0  0
   21.1951   11.1358   54.8664 O   0  0  0  0  0  0  0  0  0  0  0  0
   22.0648   10.6299   50.7440 H   0  0  0  0  0  0  0  0  0  0  0  0
   21.2370   12.1398   52.8953 H   0  0  0  0  0  0  0  0  0  0  0  0
   23.0512    7.2006   53.5104 C   0  0  0  0  0  0  0  0  0  0  0  0
   21.8024    6.3879   53.4370 C   0  0  0  0  0  0  0  0  0  0  0  0
   20.5701    6.8862   53.0849 C   0  0  0  0  0  0  0  0  0  0  0  0
   19.4445    6.0637   53.0361 C   0  0  0  0  0  0  0  0  0  0  0  0
   19.5059    4.7243   53.3342 C   0  0  0  0  0  0  0  0  0  0  0  0
   20.7623    4.2275   53.6919 C   0  0  0  0  0  0  0  0  0  0  0  0
   21.8685    5.0422   53.7382 C   0  0  0  0  0  0  0  0  0  0  0  0
   18.3477    3.8420   53.2793 C   0  0  0  0  0  0  0  0  0  0  0  0
   17.2202    4.1611   54.0148 C   0  0  0  0  0  0  0  0  0  0  0  0
   16.1185    3.3431   53.9837 C   0  0  0  0  0  0  0  0  0  0  0  0
   16.0676    2.1899   53.2435 C   0  0  0  0  0  0  0  0  0  0  0  0
   17.1791    1.8522   52.5046 C   0  0  0  0  0  0  0  0  0  0  0  0
   18.2774    2.6798   52.5424 C   0  0  0  0  0  0  0  0  0  0  0  0
 12 13  1  0  0  0
 13 14  1  0  0  0
 14 15  2  0  0  0
 14 11  1  0  0  0
 11  1  1  0  0  0
  1 18  1  0  0  0
 18 19  1  0  0  0
 19 20  2  0  0  0
 20 21  1  0  0  0
 21 22  2  0  0  0
 22 23  1  0  0  0
 23 24  2  0  0  0
 22 25  1  0  0  0
 25 26  2  0  0  0
 26 27  1  0  0  0
 27 28  2  0  0  0
 28 29  1  0  0  0
 29 30  2  0  0  0
  1  2  1  0  0  0
  2  3  2  0  0  0
  2  4  2  0  0  0
  2  5  1  0  0  0
  5  6  2  0  0  0
  6  7  1  0  0  0
  7  8  2  0  0  0
  8  9  1  0  0  0
  9 10  2  0  0  0
 24 19  1  0  0  0
 30 25  1  0  0  0
 10  5  1  0  0  0
 12 16  1  0  0  0
 13 17  1  0  0  0
M  END
> <minimizedAffinity>
21.56429

> <CNNscore>
0.5899724960

> <CNNaffinity>
6.2131295204

> <CNN_VS>
3.6655755043

> <CNNaffinity_variance>
0.3027268052

$$$$
[H]ON([H])C(=O)C([H])([H])N(C([H])([H])c1c([H])c([H])c(-c2c([H])c([H])c([H])c([H])c2[H])c([H])c1[H])S(=O)(=O)c1c([H])c([H])c([H])c([H])c1[H]


 30 32  0  0  0  0  0  0  0  0999 V2000
   23.3509    7.5207   52.7858 N   0  0  0  0  0  0  0  0  0  0  0  0
   22.4445    7.1260   54.1657 S   0  0  0  0  0  0  0  0  0  0  0  0
   21.2955    6.1730   53.8261 O   0  0  0  0  0  0  0  0  0  0  0  0
   23.2547    6.3693   55.1904 O   0  0  0  0  0  0  0  0  0  0  0  0
   21.6820    8.5274   54.8807 C   0  0  0  0  0  0  0  0  0  0  0  0
   22.1334    9.7857   54.5455 C   0  0  0  0  0  0  0  0  0  0  0  0
   21.5813   10.9276   55.0709 C   0  0  0  0  0  0  0  0  0  0  0  0
   20.5554   10.8633   55.9549 C   0  0  0  0  0  0  0  0  0  0  0  0
   20.0647    9.5974   56.3248 C   0  0  0  0  0  0  0  0  0  0  0  0
   20.6423    8.4711   55.7758 C   0  0  0  0  0  0  0  0  0  0  0  0
   22.6745    7.3217   51.5577 C   0  0  0  0  0  0  0  0  0  0  0  0
   21.4920   10.6725   51.6864 O   0  0  0  0  0  0  0  0  0  0  0  0
   21.4257    9.4481   51.6160 N   0  0  0  0  0  0  0  0  0  0  0  0
   21.3513    8.0744   51.5370 C   0  0  0  0  0  0  0  0  0  0  0  0
   20.3508    7.3326   51.4532 O   0  0  0  0  0  0  0  0  0  0  0  0
   22.2512   11.0549   52.1875 H   0  0  0  0  0  0  0  0  0  0  0  0
   20.0532    9.5232   51.5425 H   0  0  0  0  0  0  0  0  0  0  0  0
   24.7251    7.1396   52.8173 C   0  0  0  0  0  0  0  0  0  0  0  0
   25.5183    7.7898   53.9005 C   0  0  0  0  0  0  0  0  0  0  0  0
   26.8867    7.7158   54.0135 C   0  0  0  0  0  0  0  0  0  0  0  0
   27.5620    8.3528   55.0547 C   0  0  0  0  0  0  0  0  0  0  0  0
   26.9025    9.0816   56.0142 C   0  0  0  0  0  0  0  0  0  0  0  0
   25.5119    9.1502   55.8914 C   0  0  0  0  0  0  0  0  0  0  0  0
   24.8514    8.5208   54.8632 C   0  0  0  0  0  0  0  0  0  0  0  0
   27.5853    9.7657   57.1044 C   0  0  0  0  0  0  0  0  0  0  0  0
   28.1374    9.0188   58.1298 C   0  0  0  0  0  0  0  0  0  0  0  0
   28.7811    9.6403   59.1706 C   0  0  0  0  0  0  0  0  0  0  0  0
   28.9127   11.0025   59.2580 C   0  0  0  0  0  0  0  0  0  0  0  0
   28.3698   11.7656   58.2490 C   0  0  0  0  0  0  0  0  0  0  0  0
   27.7277   11.1322   57.2102 C   0  0  0  0  0  0  0  0  0  0  0  0
 12 13  1  0  0  0
 13 14  1  0  0  0
 14 15  2  0  0  0
 14 11  1  0  0  0
 11  1  1  0  0  0
  1 18  1  0  0  0
 18 19  1  0  0  0
 19 20  2  0  0  0
 20 21  1  0  0  0
 21 22  2  0  0  0
 22 23  1  0  0  0
 23 24  2  0  0  0
 22 25  1  0  0  0
 25 26  2  0  0  0
 26 27  1  0  0  0
 27 28  2  0  0  0
 28 29  1  0  0  0
 29 30  2  0  0  0
  1  2  1  0  0  0
  2  3  2  0  0  0
  2  4  2  0  0  0
  2  5  1  0  0  0
  5  6  2  0  0  0
  6  7  1  0  0  0
  7  8  2  0  0  0
  8  9  1  0  0  0
  9 10  2  0  0  0
 24 19  1  0  0  0
 30 25  1  0  0  0
 10  5  1  0  0  0
 12 16  1  0  0  0
 13 17  1  0  0  0
M  END
> <minimizedAffinity>
10.85675

> <CNNscore>
0.5871303678

> <CNNaffinity>
6.0118684769

> <CNN_VS>
3.5297505856

> <CNNaffinity_variance>
0.2266287506

$$$$
[H]ON([H])C(=O)C([H])([H])N(C([H])([H])c1c([H])c([H])c(-c2c([H])c([H])c([H])c([H])c2[H])c([H])c1[H])S(=O)(=O)c1c([H])c([H])c([H])c([H])c1[H]


 30 32  0  0  0  0  0  0  0  0999 V2000
   20.1988    7.7061   53.5283 N   0  0  0  0  0  0  0  0  0  0  0  0
   20.9836    6.2267   53.8056 S   0  0  0  0  0  0  0  0  0  0  0  0
   22.1294    6.0072   52.8142 O   0  0  0  0  0  0  0  0  0  0  0  0
   21.6557    6.1752   55.1564 O   0  0  0  0  0  0  0  0  0  0  0  0
   19.9171    4.8592   53.5841 C   0  0  0  0  0  0  0  0  0  0  0  0
   18.6131    4.9426   54.0224 C   0  0  0  0  0  0  0  0  0  0  0  0
   17.7238    3.9062   53.8816 C   0  0  0  0  0  0  0  0  0  0  0  0
   18.0977    2.7408   53.2985 C   0  0  0  0  0  0  0  0  0  0  0  0
   19.4211    2.6136   52.8375 C   0  0  0  0  0  0  0  0  0  0  0  0
   20.2875    3.6760   52.9939 C   0  0  0  0  0  0  0  0  0  0  0  0
   19.7288    7.8867   52.2047 C   0  0  0  0  0  0  0  0  0  0  0  0
   21.4261   10.9751   51.7322 O   0  0  0  0  0  0  0  0  0  0  0  0
   21.1386    9.7971   51.5364 N   0  0  0  0  0  0  0  0  0  0  0  0
   20.8162    8.4755   51.3167 C   0  0  0  0  0  0  0  0  0  0  0  0
   21.2806    7.6680   50.4857 O   0  0  0  0  0  0  0  0  0  0  0  0
   20.7081   11.5655   52.0632 H   0  0  0  0  0  0  0  0  0  0  0  0
   22.0849    9.7285   50.5389 H   0  0  0  0  0  0  0  0  0  0  0  0
   20.7897    8.8467   54.1483 C   0  0  0  0  0  0  0  0  0  0  0  0
   22.2704    8.7612   54.3078 C   0  0  0  0  0  0  0  0  0  0  0  0
   23.1068    8.0844   53.4515 C   0  0  0  0  0  0  0  0  0  0  0  0
   24.4851    8.0496   53.6638 C   0  0  0  0  0  0  0  0  0  0  0  0
   25.0755    8.6839   54.7295 C   0  0  0  0  0  0  0  0  0  0  0  0
   24.2172    9.3682   55.5947 C   0  0  0  0  0  0  0  0  0  0  0  0
   22.8597    9.3995   55.3808 C   0  0  0  0  0  0  0  0  0  0  0  0
   26.5130    8.6725   54.9668 C   0  0  0  0  0  0  0  0  0  0  0  0
   27.0060    9.1888   56.1519 C   0  0  0  0  0  0  0  0  0  0  0  0
   28.3566    9.1941   56.3964 C   0  0  0  0  0  0  0  0  0  0  0  0
   29.2767    8.7029   55.5061 C   0  0  0  0  0  0  0  0  0  0  0  0
   28.8084    8.1851   54.3196 C   0  0  0  0  0  0  0  0  0  0  0  0
   27.4528    8.1840   54.0853 C   0  0  0  0  0  0  0  0  0  0  0  0
 12 13  1  0  0  0
 13 14  1  0  0  0
 14 15  2  0  0  0
 14 11  1  0  0  0
 11  1  1  0  0  0
  1 18  1  0  0  0
 18 19  1  0  0  0
 19 20  2  0  0  0
 20 21  1  0  0  0
 21 22  2  0  0  0
 22 23  1  0  0  0
 23 24  2  0  0  0
 22 25  1  0  0  0
 25 26  2  0  0  0
 26 27  1  0  0  0
 27 28  2  0  0  0
 28 29  1  0  0  0
 29 30  2  0  0  0
  1  2  1  0  0  0
  2  3  2  0  0  0
  2  4  2  0  0  0
  2  5  1  0  0  0
  5  6  2  0  0  0
  6  7  1  0  0  0
  7  8  2  0  0  0
  8  9  1  0  0  0
  9 10  2  0  0  0
 24 19  1  0  0  0
 30 25  1  0  0  0
 10  5  1  0  0  0
 12 16  1  0  0  0
 13 17  1  0  0  0
M  END
> <minimizedAffinity>
15.15442

> <CNNscore>
0.5623131990

> <CNNaffinity>
6.3972187042

> <CNN_VS>
3.5972404480

> <CNNaffinity_variance>
0.2425715923

$$$$
[H]ON([H])C(=O)C([H])([H])N(C([H])([H])c1c([H])c([H])c(-c2c([H])c([H])c([H])c([H])c2[H])c([H])c1[H])S(=O)(=O)c1c([H])c([H])c([H])c([H])c1[H]


 30 32  0  0  0  0  0  0  0  0999 V2000
   20.5594    9.2184   52.9952 N   0  0  0  0  0  0  0  0  0  0  0  0
   20.5069    7.5584   52.6442 S   0  0  0  0  0  0  0  0  0  0  0  0
   19.2362    6.9096   53.1993 O   0  0  0  0  0  0  0  0  0  0  0  0
   20.4376    7.2848   51.1612 O   0  0  0  0  0  0  0  0  0  0  0  0
   21.8286    6.6831   53.3815 C   0  0  0  0  0  0  0  0  0  0  0  0
   21.7894    6.4146   54.7327 C   0  0  0  0  0  0  0  0  0  0  0  0
   22.7937    5.7339   55.3751 C   0  0  0  0  0  0  0  0  0  0  0  0
   23.8817    5.2927   54.6971 C   0  0  0  0  0  0  0  0  0  0  0  0
   23.9616    5.5467   53.3153 C   0  0  0  0  0  0  0  0  0  0  0  0
   22.9333    6.2322   52.7021 C   0  0  0  0  0  0  0  0  0  0  0  0
   21.1007   10.0236   51.9637 C   0  0  0  0  0  0  0  0  0  0  0  0
   22.1814   13.1610   50.6863 O   0  0  0  0  0  0  0  0  0  0  0  0
   21.8105   12.3450   51.5261 N   0  0  0  0  0  0  0  0  0  0  0  0
   21.3943   11.4296   52.4683 C   0  0  0  0  0  0  0  0  0  0  0  0
   21.2194   11.5712   53.6961 O   0  0  0  0  0  0  0  0  0  0  0  0
   22.6898   12.8146   49.9148 H   0  0  0  0  0  0  0  0  0  0  0  0
   21.8866   13.3113   52.5036 H   0  0  0  0  0  0  0  0  0  0  0  0
   20.9421    9.5583   54.3265 C   0  0  0  0  0  0  0  0  0  0  0  0
   22.3965    9.3868   54.6105 C   0  0  0  0  0  0  0  0  0  0  0  0
   22.9802    9.6042   55.8364 C   0  0  0  0  0  0  0  0  0  0  0  0
   24.3498    9.4212   56.0281 C   0  0  0  0  0  0  0  0  0  0  0  0
   25.1813    9.0175   55.0121 C   0  0  0  0  0  0  0  0  0  0  0  0
   24.5790    8.8001   53.7697 C   0  0  0  0  0  0  0  0  0  0  0  0
   23.2288    8.9817   53.5863 C   0  0  0  0  0  0  0  0  0  0  0  0
   26.6121    8.8079   55.1893 C   0  0  0  0  0  0  0  0  0  0  0  0
   27.3250    8.1478   54.2045 C   0  0  0  0  0  0  0  0  0  0  0  0
   28.6729    7.9336   54.3506 C   0  0  0  0  0  0  0  0  0  0  0  0
   29.3778    8.3476   55.4515 C   0  0  0  0  0  0  0  0  0  0  0  0
   28.6881    9.0058   56.4448 C   0  0  0  0  0  0  0  0  0  0  0  0
   27.3377    9.2160   56.2874 C   0  0  0  0  0  0  0  0  0  0  0  0
 12 13  1  0  0  0
 13 14  1  0  0  0
 14 15  2  0  0  0
 14 11  1  0  0  0
 11  1  1  0  0  0
  1 18  1  0  0  0
 18 19  1  0  0  0
 19 20  2  0  0  0
 20 21  1  0  0  0
 21 22  2  0  0  0
 22 23  1  0  0  0
 23 24  2  0  0  0
 22 25  1  0  0  0
 25 26  2  0  0  0
 26 27  1  0  0  0
 27 28  2  0  0  0
 28 29  1  0  0  0
 29 30  2  0  0  0
  1  2  1  0  0  0
  2  3  2  0  0  0
  2  4  2  0  0  0
  2  5  1  0  0  0
  5  6  2  0  0  0
  6  7  1  0  0  0
  7  8  2  0  0  0
  8  9  1  0  0  0
  9 10  2  0  0  0
 24 19  1  0  0  0
 30 25  1  0  0  0
 10  5  1  0  0  0
 12 16  1  0  0  0
 13 17  1  0  0  0
M  END
> <minimizedAffinity>
10.57707

> <CNNscore>
0.5609126687

> <CNNaffinity>
5.9751272202

> <CNN_VS>
3.3515245914

> <CNNaffinity_variance>
0.2313508689

$$$$
[H]ON([H])C(=O)C([H])([H])N(C([H])([H])c1c([H])c([H])c(-c2c([H])c([H])c([H])c([H])c2[H])c([H])c1[H])S(=O)(=O)c1c([H])c([H])c([H])c([H])c1[H]


 30 32  0  0  0  0  0  0  0  0999 V2000
   20.6715    5.7655   53.1445 N   0  0  0  0  0  0  0  0  0  0  0  0
   19.7499    4.3441   53.2529 S   0  0  0  0  0  0  0  0  0  0  0  0
   19.6114    3.6622   51.8892 O   0  0  0  0  0  0  0  0  0  0  0  0
   20.4064    3.2963   54.1191 O   0  0  0  0  0  0  0  0  0  0  0  0
   18.1119    4.6550   53.7789 C   0  0  0  0  0  0  0  0  0  0  0  0
   17.6374    5.9489   53.7788 C   0  0  0  0  0  0  0  0  0  0  0  0
   16.3628    6.2633   54.1807 C   0  0  0  0  0  0  0  0  0  0  0  0
   15.5068    5.2999   54.6016 C   0  0  0  0  0  0  0  0  0  0  0  0
   15.9518    3.9651   54.6180 C   0  0  0  0  0  0  0  0  0  0  0  0
   17.2384    3.6853   54.2057 C   0  0  0  0  0  0  0  0  0  0  0  0
   19.9224    6.9361   52.8722 C   0  0  0  0  0  0  0  0  0  0  0  0
   21.4561    7.7508   55.9748 O   0  0  0  0  0  0  0  0  0  0  0  0
   21.0191    7.9365   54.8421 N   0  0  0  0  0  0  0  0  0  0  0  0
   20.5286    8.1449   53.5713 C   0  0  0  0  0  0  0  0  0  0  0  0
   20.4981    9.1897   52.8889 O   0  0  0  0  0  0  0  0  0  0  0  0
   21.0169    7.0548   56.5192 H   0  0  0  0  0  0  0  0  0  0  0  0
   21.3983    9.2582   54.9088 H   0  0  0  0  0  0  0  0  0  0  0  0
   21.9200    5.6441   52.4655 C   0  0  0  0  0  0  0  0  0  0  0  0
   23.0329    6.4232   53.0818 C   0  0  0  0  0  0  0  0  0  0  0  0
   23.2500    7.7652   52.8751 C   0  0  0  0  0  0  0  0  0  0  0  0
   24.3128    8.4288   53.4883 C   0  0  0  0  0  0  0  0  0  0  0  0
   25.1915    7.7835   54.3238 C   0  0  0  0  0  0  0  0  0  0  0  0
   24.9633    6.4196   54.5268 C   0  0  0  0  0  0  0  0  0  0  0  0
   23.9142    5.7705   53.9204 C   0  0  0  0  0  0  0  0  0  0  0  0
   26.3019    8.4560   54.9853 C   0  0  0  0  0  0  0  0  0  0  0  0
   27.5702    8.3603   54.4409 C   0  0  0  0  0  0  0  0  0  0  0  0
   28.6333    8.9806   55.0484 C   0  0  0  0  0  0  0  0  0  0  0  0
   28.5091    9.7127   56.2012 C   0  0  0  0  0  0  0  0  0  0  0  0
   27.2560    9.8204   56.7610 C   0  0  0  0  0  0  0  0  0  0  0  0
   26.1974    9.1955   56.1433 C   0  0  0  0  0  0  0  0  0  0  0  0
 12 13  1  0  0  0
 13 14  1  0  0  0
 14 15  2  0  0  0
 14 11  1  0  0  0
 11  1  1  0  0  0
  1 18  1  0  0  0
 18 19  1  0  0  0
 19 20  2  0  0  0
 20 21  1  0  0  0
 21 22  2  0  0  0
 22 23  1  0  0  0
 23 24  2  0  0  0
 22 25  1  0  0  0
 25 26  2  0  0  0
 26 27  1  0  0  0
 27 28  2  0  0  0
 28 29  1  0  0  0
 29 30  2  0  0  0
  1  2  1  0  0  0
  2  3  2  0  0  0
  2  4  2  0  0  0
  2  5  1  0  0  0
  5  6  2  0  0  0
  6  7  1  0  0  0
  7  8  2  0  0  0
  8  9  1  0  0  0
  9 10  2  0  0  0
 24 19  1  0  0  0
 30 25  1  0  0  0
 10  5  1  0  0  0
 12 16  1  0  0  0
 13 17  1  0  0  0
M  END
> <minimizedAffinity>
25.95777

> <CNNscore>
0.5573558211

> <CNNaffinity>
6.2449350357

> <CNN_VS>
3.4806509018

> <CNNaffinity_variance>
0.6184723377

$$$$
[H]ON([H])C(=O)C([H])([H])N(C([H])([H])c1c([H])c([H])c(-c2c([H])c([H])c([H])c([H])c2[H])c([H])c1[H])S(=O)(=O)c1c([H])c([H])c([H])c([H])c1[H]


 30 32  0  0  0  0  0  0  0  0999 V2000
   23.6254    8.3684   54.5037 N   0  0  0  0  0  0  0  0  0  0  0  0
   22.2951    9.3746   54.8189 S   0  0  0  0  0  0  0  0  0  0  0  0
   21.0363    8.5581   55.1234 O   0  0  0  0  0  0  0  0  0  0  0  0
   22.4905   10.2177   56.0559 O   0  0  0  0  0  0  0  0  0  0  0  0
   21.8755   10.3686   53.4433 C   0  0  0  0  0  0  0  0  0  0  0  0
   21.4845    9.7639   52.2682 C   0  0  0  0  0  0  0  0  0  0  0  0
   21.1434   10.4841   51.1502 C   0  0  0  0  0  0  0  0  0  0  0  0
   21.1790   11.8394   51.1561 C   0  0  0  0  0  0  0  0  0  0  0  0
   21.5737   12.4967   52.3361 C   0  0  0  0  0  0  0  0  0  0  0  0
   21.9081   11.7413   53.4411 C   0  0  0  0  0  0  0  0  0  0  0  0
   24.8876    8.9911   54.6607 C   0  0  0  0  0  0  0  0  0  0  0  0
   28.4385    8.8861   54.8100 O   0  0  0  0  0  0  0  0  0  0  0  0
   27.2974    8.4651   54.6398 N   0  0  0  0  0  0  0  0  0  0  0  0
   26.0171    7.9926   54.4487 C   0  0  0  0  0  0  0  0  0  0  0  0
   25.6275    6.8534   54.1189 O   0  0  0  0  0  0  0  0  0  0  0  0
   28.6011    9.8396   54.6150 H   0  0  0  0  0  0  0  0  0  0  0  0
   27.7982    7.2176   54.3431 H   0  0  0  0  0  0  0  0  0  0  0  0
   23.4892    7.4933   53.3856 C   0  0  0  0  0  0  0  0  0  0  0  0
   22.2901    6.6076   53.4411 C   0  0  0  0  0  0  0  0  0  0  0  0
   22.2290    5.4246   54.1392 C   0  0  0  0  0  0  0  0  0  0  0  0
   21.0702    4.6481   54.1466 C   0  0  0  0  0  0  0  0  0  0  0  0
   19.9382    5.0201   53.4634 C   0  0  0  0  0  0  0  0  0  0  0  0
   20.0103    6.2233   52.7560 C   0  0  0  0  0  0  0  0  0  0  0  0
   21.1547    6.9849   52.7522 C   0  0  0  0  0  0  0  0  0  0  0  0
   18.7120    4.2331   53.4648 C   0  0  0  0  0  0  0  0  0  0  0  0
   18.6541    3.0717   52.7151 C   0  0  0  0  0  0  0  0  0  0  0  0
   17.5085    2.3160   52.6960 C   0  0  0  0  0  0  0  0  0  0  0  0
   16.3805    2.6554   53.3980 C   0  0  0  0  0  0  0  0  0  0  0  0
   16.4154    3.8079   54.1501 C   0  0  0  0  0  0  0  0  0  0  0  0
   17.5690    4.5573   54.1628 C   0  0  0  0  0  0  0  0  0  0  0  0
 12 13  1  0  0  0
 13 14  1  0  0  0
 14 15  2  0  0  0
 14 11  1  0  0  0
 11  1  1  0  0  0
  1 18  1  0  0  0
 18 19  1  0  0  0
 19 20  2  0  0  0
 20 21  1  0  0  0
 21 22  2  0  0  0
 22 23  1  0  0  0
 23 24  2  0  0  0
 22 25  1  0  0  0
 25 26  2  0  0  0
 26 27  1  0  0  0
 27 28  2  0  0  0
 28 29  1  0  0  0
 29 30  2  0  0  0
  1  2  1  0  0  0
  2  3  2  0  0  0
  2  4  2  0  0  0
  2  5  1  0  0  0
  5  6  2  0  0  0
  6  7  1  0  0  0
  7  8  2  0  0  0
  8  9  1  0  0  0
  9 10  2  0  0  0
 24 19  1  0  0  0
 30 25  1  0  0  0
 10  5  1  0  0  0
 12 16  1  0  0  0
 13 17  1  0  0  0
M  END
> <minimizedAffinity>
16.23050

> <CNNscore>
0.5321550369

> <CNNaffinity>
5.9875488281

> <CNN_VS>
3.1863043308

> <CNNaffinity_variance>
0.1247123927

$$$$
[H]ON([H])C(=O)C([H])([H])N(C([H])([H])c1c([H])c([H])c(-c2c([H])c([H])c([H])c([H])c2[H])c([H])c1[H])S(=O)(=O)c1c([H])c([H])c([H])c([H])c1[H]


 30 32  0  0  0  0  0  0  0  0999 V2000
   20.1923    8.3886   53.8571 N   0  0  0  0  0  0  0  0  0  0  0  0
   20.3216    7.1733   52.6791 S   0  0  0  0  0  0  0  0  0  0  0  0
   19.6758    7.6030   51.3592 O   0  0  0  0  0  0  0  0  0  0  0  0
   21.7552    6.8829   52.3057 O   0  0  0  0  0  0  0  0  0  0  0  0
   19.4864    5.7092   53.1432 C   0  0  0  0  0  0  0  0  0  0  0  0
   20.1315    4.4972   53.0222 C   0  0  0  0  0  0  0  0  0  0  0  0
   19.5339    3.3102   53.3666 C   0  0  0  0  0  0  0  0  0  0  0  0
   18.2659    3.2809   53.8455 C   0  0  0  0  0  0  0  0  0  0  0  0
   17.5710    4.4967   53.9840 C   0  0  0  0  0  0  0  0  0  0  0  0
   18.2030    5.6708   53.6298 C   0  0  0  0  0  0  0  0  0  0  0  0
   20.3547    9.7070   53.3662 C   0  0  0  0  0  0  0  0  0  0  0  0
   21.5905   11.9092   50.8630 O   0  0  0  0  0  0  0  0  0  0  0  0
   21.5440   10.9037   51.5668 N   0  0  0  0  0  0  0  0  0  0  0  0
   21.4918    9.7754   52.3563 C   0  0  0  0  0  0  0  0  0  0  0  0
   22.2419    8.7778   52.3735 O   0  0  0  0  0  0  0  0  0  0  0  0
   20.7338   12.3492   50.6482 H   0  0  0  0  0  0  0  0  0  0  0  0
   22.6738   10.4156   50.9501 H   0  0  0  0  0  0  0  0  0  0  0  0
   20.8075    8.1032   55.1119 C   0  0  0  0  0  0  0  0  0  0  0  0
   22.2861    8.2998   55.1302 C   0  0  0  0  0  0  0  0  0  0  0  0
   22.9122    9.4513   55.5459 C   0  0  0  0  0  0  0  0  0  0  0  0
   24.3027    9.5621   55.5369 C   0  0  0  0  0  0  0  0  0  0  0  0
   25.1138    8.5365   55.1163 C   0  0  0  0  0  0  0  0  0  0  0  0
   24.4682    7.3708   54.6948 C   0  0  0  0  0  0  0  0  0  0  0  0
   23.0976    7.2666   54.7059 C   0  0  0  0  0  0  0  0  0  0  0  0
   26.5682    8.6230   55.1084 C   0  0  0  0  0  0  0  0  0  0  0  0
   27.2196    9.1472   56.2106 C   0  0  0  0  0  0  0  0  0  0  0  0
   28.5887    9.2439   56.2249 C   0  0  0  0  0  0  0  0  0  0  0  0
   29.3750    8.8396   55.1767 C   0  0  0  0  0  0  0  0  0  0  0  0
   28.7477    8.3157   54.0689 C   0  0  0  0  0  0  0  0  0  0  0  0
   27.3752    8.2225   54.0656 C   0  0  0  0  0  0  0  0  0  0  0  0
 12 13  1  0  0  0
 13 14  1  0  0  0
 14 15  2  0  0  0
 14 11  1  0  0  0
 11  1  1  0  0  0
  1 18  1  0  0  0
 18 19  1  0  0  0
 19 20  2  0  0  0
 20 21  1  0  0  0
 21 22  2  0  0  0
 22 23  1  0  0  0
 23 24  2  0  0  0
 22 25  1  0  0  0
 25 26  2  0  0  0
 26 27  1  0  0  0
 27 28  2  0  0  0
 28 29  1  0  0  0
 29 30  2  0  0  0
  1  2  1  0  0  0
  2  3  2  0  0  0
  2  4  2  0  0  0
  2  5  1  0  0  0
  5  6  2  0  0  0
  6  7  1  0  0  0
  7  8  2  0  0  0
  8  9  1  0  0  0
  9 10  2  0  0  0
 24 19  1  0  0  0
 30 25  1  0  0  0
 10  5  1  0  0  0
 12 16  1  0  0  0
 13 17  1  0  0  0
M  END
> <minimizedAffinity>
17.38967

> <CNNscore>
0.5284780264

> <CNNaffinity>
5.8766098022

> <CNN_VS>
3.1056592464

> <CNNaffinity_variance>
0.1685264558

$$$$
[H]N=C(N([H])[H])N([H])C([H])([H])C([H])([H])C([H])([H])[C@@]([H])(C(=O)c1nc2c([H])c([H])c([H])c([H])c2s1)N([H])C(=O)[C@@]([H])(N([H])C(=O)[C@@]([H])(N([H])C(=O)[C@@]1([H])N(C(=O)OC([H])([H])c2c([H])c([H])c([H])c([H])c2[H])C([H])([H])C([H])([H])C1([H])[H])C([H])([H])C([H])([H])C([H])([H])N([H])C(=N[H])N([H])[H])C([H])([H])c1c([H])c([H])c([H])c([H])c1[H]


 70 74  0  0  0  0  0  0  0  0999 V2000
   27.6028    9.1676   57.6528 C   0  0  0  0  0  0  0  0  0  0  0  0
   26.6863    8.4463   58.0573 O   0  0  0  0  0  0  0  0  0  0  0  0
   27.5576    9.7214   56.3520 N   0  0  0  0  0  0  0  0  0  0  0  0
   28.3476   10.3327   56.0493 H   0  0  0  0  0  0  0  0  0  0  0  0
   26.4186    9.4191   55.4820 C   0  0  0  0  0  0  0  0  0  0  0  0
   25.0954    9.6394   56.1791 C   0  0  0  0  0  0  0  0  0  0  0  0
   25.2162   10.0171   57.3591 O   0  0  0  0  0  0  0  0  0  0  0  0
   23.9145    9.4182   55.5025 N   0  0  0  0  0  0  0  0  0  0  0  0
   23.1945    9.9546   56.5496 H   0  0  0  0  0  0  0  0  0  0  0  0
   22.7272    9.2058   54.8557 C   0  0  0  0  0  0  0  0  0  0  0  0
   21.8482   10.4125   54.9775 C   0  0  0  0  0  0  0  0  0  0  0  0
   21.2885   10.6556   56.1018 O   0  0  0  0  0  0  0  0  0  0  0  0
   21.5861   11.3441   53.8960 C   0  0  0  0  0  0  0  0  0  0  0  0
   21.0319   12.5362   53.9100 N   0  0  0  0  0  0  0  0  0  0  0  0
   20.8763   13.2132   52.8178 C   0  0  0  0  0  0  0  0  0  0  0  0
   20.2968   14.4876   52.6998 C   0  0  0  0  0  0  0  0  0  0  0  0
   20.1779   15.1090   51.5013 C   0  0  0  0  0  0  0  0  0  0  0  0
   20.6118   14.5428   50.3343 C   0  0  0  0  0  0  0  0  0  0  0  0
   21.1830   13.2988   50.4074 C   0  0  0  0  0  0  0  0  0  0  0  0
   21.3098   12.6472   51.6435 C   0  0  0  0  0  0  0  0  0  0  0  0
   21.9254   11.1408   52.2206 S   0  0  0  0  0  0  0  0  0  0  0  0
   21.8959    7.9812   55.0935 C   0  0  0  0  0  0  0  0  0  0  0  0
   20.7478    7.7078   54.2302 C   0  0  0  0  0  0  0  0  0  0  0  0
   20.6385    6.4487   53.4503 C   0  0  0  0  0  0  0  0  0  0  0  0
   19.2483    5.9653   53.3850 N   0  0  0  0  0  0  0  0  0  0  0  0
   18.5057    6.6197   53.1444 H   0  0  0  0  0  0  0  0  0  0  0  0
   19.0115    4.6087   53.6696 C   0  0  0  0  0  0  0  0  0  0  0  0
   17.7815    4.1039   54.1705 N   0  0  0  0  0  0  0  0  0  0  0  0
   19.9352    3.6988   53.4686 N   0  0  0  0  0  0  0  0  0  0  0  0
   16.9319    3.9708   53.5762 H   0  0  0  0  0  0  0  0  0  0  0  0
   17.7201    3.8511   55.1679 H   0  0  0  0  0  0  0  0  0  0  0  0
   20.8343    4.0305   53.0943 H   0  0  0  0  0  0  0  0  0  0  0  0
   26.5748    7.9860   55.0737 C   0  0  0  0  0  0  0  0  0  0  0  0
   25.4937    7.4255   54.2617 C   0  0  0  0  0  0  0  0  0  0  0  0
   25.0638    7.9937   53.0699 C   0  0  0  0  0  0  0  0  0  0  0  0
   24.0205    7.3866   52.4151 C   0  0  0  0  0  0  0  0  0  0  0  0
   23.3758    6.2668   52.8538 C   0  0  0  0  0  0  0  0  0  0  0  0
   23.7936    5.6691   54.0639 C   0  0  0  0  0  0  0  0  0  0  0  0
   24.8326    6.2892   54.6982 C   0  0  0  0  0  0  0  0  0  0  0  0
   28.7848    9.4618   58.5429 C   0  0  0  0  0  0  0  0  0  0  0  0
   28.3718   10.3481   59.5962 N   0  0  0  0  0  0  0  0  0  0  0  0
   29.2654   11.0208   60.4973 C   0  0  0  0  0  0  0  0  0  0  0  0
   30.4831   10.8243   60.3666 O   0  0  0  0  0  0  0  0  0  0  0  0
   27.3660   10.5019   59.7050 H   0  0  0  0  0  0  0  0  0  0  0  0
   28.6821   11.8841   61.4959 C   0  0  0  0  0  0  0  0  0  0  0  0
   27.2505   12.2962   61.1256 C   0  0  0  0  0  0  0  0  0  0  0  0
   27.0989   13.7133   61.6029 C   0  0  0  0  0  0  0  0  0  0  0  0
   28.1895   13.7707   62.6582 C   0  0  0  0  0  0  0  0  0  0  0  0
   29.3021   13.0861   61.8895 N   0  0  0  0  0  0  0  0  0  0  0  0
   30.5339   13.7256   61.7844 C   0  0  0  0  0  0  0  0  0  0  0  0
   30.6388   14.9115   62.2902 O   0  0  0  0  0  0  0  0  0  0  0  0
   31.6709   13.2653   61.2094 O   0  0  0  0  0  0  0  0  0  0  0  0
   32.4182   14.0122   60.2441 C   0  0  0  0  0  0  0  0  0  0  0  0
   32.0709   15.4531   60.2944 C   0  0  0  0  0  0  0  0  0  0  0  0
   32.9410   16.4137   60.7128 C   0  0  0  0  0  0  0  0  0  0  0  0
   32.5763   17.7591   60.7443 C   0  0  0  0  0  0  0  0  0  0  0  0
   31.3251   18.1878   60.3588 C   0  0  0  0  0  0  0  0  0  0  0  0
   30.4287   17.2038   59.9290 C   0  0  0  0  0  0  0  0  0  0  0  0
   30.7985   15.8834   59.9003 C   0  0  0  0  0  0  0  0  0  0  0  0
   29.2251    8.1416   59.0686 C   0  0  0  0  0  0  0  0  0  0  0  0
   29.1052    7.8261   60.4978 C   0  0  0  0  0  0  0  0  0  0  0  0
   29.9652    6.7407   61.0373 C   0  0  0  0  0  0  0  0  0  0  0  0
   29.3114    6.1972   62.2455 N   0  0  0  0  0  0  0  0  0  0  0  0
   29.5245    6.6504   63.1833 H   0  0  0  0  0  0  0  0  0  0  0  0
   28.0839    4.3138   63.2114 N   0  0  0  0  0  0  0  0  0  0  0  0
   28.4437    5.1107   62.1224 C   0  0  0  0  0  0  0  0  0  0  0  0
   27.9418    4.8316   60.9479 N   0  0  0  0  0  0  0  0  0  0  0  0
   28.8165    3.9929   63.8934 H   0  0  0  0  0  0  0  0  0  0  0  0
   27.0886    4.0039   63.3960 H   0  0  0  0  0  0  0  0  0  0  0  0
   28.2011    5.4224   60.1122 H   0  0  0  0  0  0  0  0  0  0  0  0
 65 66  1  0  0  0
 66 67  2  0  0  0
 66 63  1  0  0  0
 63 62  1  0  0  0
 62 61  1  0  0  0
 61 60  1  0  0  0
 60 40  1  0  0  0
 40 41  1  0  0  0
 41 42  1  0  0  0
 42 43  2  0  0  0
 42 45  1  0  0  0
 45 46  1  0  0  0
 46 47  1  0  0  0
 47 48  1  0  0  0
 48 49  1  0  0  0
 49 50  1  0  0  0
 50 51  2  0  0  0
 50 52  1  0  0  0
 52 53  1  0  0  0
 53 54  1  0  0  0
 54 55  2  0  0  0
 55 56  1  0  0  0
 56 57  2  0  0  0
 57 58  1  0  0  0
 58 59  2  0  0  0
 40  1  1  0  0  0
  1  2  2  0  0  0
  1  3  1  0  0  0
  3  5  1  0  0  0
  5 33  1  0  0  0
 33 34  1  0  0  0
 34 35  2  0  0  0
 35 36  1  0  0  0
 36 37  2  0  0  0
 37 38  1  0  0  0
 38 39  2  0  0  0
  5  6  1  0  0  0
  6  7  2  0  0  0
  6  8  1  0  0  0
  8 10  1  0  0  0
 10 22  1  0  0  0
 22 23  1  0  0  0
 23 24  1  0  0  0
 24 25  1  0  0  0
 25 27  1  0  0  0
 27 28  1  0  0  0
 27 29  2  0  0  0
 10 11  1  0  0  0
 11 12  2  0  0  0
 11 13  1  0  0  0
 13 14  2  0  0  0
 14 15  1  0  0  0
 15 16  2  0  0  0
 16 17  1  0  0  0
 17 18  2  0  0  0
 18 19  1  0  0  0
 19 20  2  0  0  0
 20 21  1  0  0  0
 49 45  1  0  0  0
 59 54  1  0  0  0
 39 34  1  0  0  0
 21 13  1  0  0  0
 20 15  1  0  0  0
 65 68  1  0  0  0
 65 69  1  0  0  0
 67 70  1  0  0  0
 63 64  1  0  0  0
 41 44  1  0  0  0
  3  4  1  0  0  0
  8  9  1  0  0  0
 25 26  1  0  0  0
 28 30  1  0  0  0
 28 31  1  0  0  0
 29 32  1  0  0  0
M  END
> <minimizedAffinity>
18.98804

> <CNNscore>
0.6014727950

> <CNNaffinity>
7.6430740356

> <CNN_VS>
4.5971012115

> <CNNaffinity_variance>
0.6997975111

$$$$
[H]N=C(N([H])[H])N([H])C([H])([H])C([H])([H])C([H])([H])[C@@]([H])(C(=O)c1nc2c([H])c([H])c([H])c([H])c2s1)N([H])C(=O)[C@@]([H])(N([H])C(=O)[C@@]([H])(N([H])C(=O)[C@@]1([H])N(C(=O)OC([H])([H])c2c([H])c([H])c([H])c([H])c2[H])C([H])([H])C([H])([H])C1([H])[H])C([H])([H])C([H])([H])C([H])([H])N([H])C(=N[H])N([H])[H])C([H])([H])c1c([H])c([H])c([H])c([H])c1[H]


 70 74  0  0  0  0  0  0  0  0999 V2000
   27.7846    9.1320   58.2987 C   0  0  0  0  0  0  0  0  0  0  0  0
   27.1895    8.1809   58.8136 O   0  0  0  0  0  0  0  0  0  0  0  0
   27.3139    9.7040   57.0937 N   0  0  0  0  0  0  0  0  0  0  0  0
   27.8398   10.5119   56.6936 H   0  0  0  0  0  0  0  0  0  0  0  0
   26.1199    9.1475   56.4530 C   0  0  0  0  0  0  0  0  0  0  0  0
   26.4575    8.3540   55.2114 C   0  0  0  0  0  0  0  0  0  0  0  0
   27.4431    8.7987   54.5944 O   0  0  0  0  0  0  0  0  0  0  0  0
   25.6955    7.2583   54.8649 N   0  0  0  0  0  0  0  0  0  0  0  0
   26.5896    6.9308   53.8671 H   0  0  0  0  0  0  0  0  0  0  0  0
   24.9560    6.1670   54.4968 C   0  0  0  0  0  0  0  0  0  0  0  0
   24.4694    6.3225   53.0888 C   0  0  0  0  0  0  0  0  0  0  0  0
   24.8817    5.4996   52.2004 O   0  0  0  0  0  0  0  0  0  0  0  0
   23.5442    7.3526   52.6539 C   0  0  0  0  0  0  0  0  0  0  0  0
   22.3736    7.2563   52.0632 N   0  0  0  0  0  0  0  0  0  0  0  0
   21.6989    8.3131   51.7417 C   0  0  0  0  0  0  0  0  0  0  0  0
   20.4465    8.3437   51.1057 C   0  0  0  0  0  0  0  0  0  0  0  0
   19.8256    9.5111   50.8087 C   0  0  0  0  0  0  0  0  0  0  0  0
   20.3710   10.7295   51.1068 C   0  0  0  0  0  0  0  0  0  0  0  0
   21.5930   10.7421   51.7276 C   0  0  0  0  0  0  0  0  0  0  0  0
   22.2440    9.5387   52.0384 C   0  0  0  0  0  0  0  0  0  0  0  0
   23.7285    9.0596   52.7786 S   0  0  0  0  0  0  0  0  0  0  0  0
   23.8308    5.6439   55.3380 C   0  0  0  0  0  0  0  0  0  0  0  0
   22.9436    4.6140   54.7992 C   0  0  0  0  0  0  0  0  0  0  0  0
   21.9963    4.8997   53.6916 C   0  0  0  0  0  0  0  0  0  0  0  0
   21.0033    5.9196   54.0712 N   0  0  0  0  0  0  0  0  0  0  0  0
   21.2847    6.6826   54.6847 H   0  0  0  0  0  0  0  0  0  0  0  0
   19.6974    5.7830   53.5679 C   0  0  0  0  0  0  0  0  0  0  0  0
   19.0611    4.5343   53.3349 N   0  0  0  0  0  0  0  0  0  0  0  0
   18.9609    6.8328   53.2899 N   0  0  0  0  0  0  0  0  0  0  0  0
   18.6658    3.9408   54.0993 H   0  0  0  0  0  0  0  0  0  0  0  0
   18.9792    4.1942   52.3653 H   0  0  0  0  0  0  0  0  0  0  0  0
   19.3885    7.7530   53.4595 H   0  0  0  0  0  0  0  0  0  0  0  0
   25.2437   10.3158   56.1181 C   0  0  0  0  0  0  0  0  0  0  0  0
   23.8377   10.0109   55.8484 C   0  0  0  0  0  0  0  0  0  0  0  0
   23.2616    8.7764   56.1168 C   0  0  0  0  0  0  0  0  0  0  0  0
   21.9381    8.6073   55.7918 C   0  0  0  0  0  0  0  0  0  0  0  0
   21.1509    9.5654   55.2223 C   0  0  0  0  0  0  0  0  0  0  0  0
   21.7128   10.8303   54.9387 C   0  0  0  0  0  0  0  0  0  0  0  0
   23.0300   10.9763   55.2702 C   0  0  0  0  0  0  0  0  0  0  0  0
   29.0257    9.6911   58.9492 C   0  0  0  0  0  0  0  0  0  0  0  0
   28.6490   10.4358   60.1193 N   0  0  0  0  0  0  0  0  0  0  0  0
   29.4918   11.3847   60.7919 C   0  0  0  0  0  0  0  0  0  0  0  0
   30.6302   11.5778   60.3392 O   0  0  0  0  0  0  0  0  0  0  0  0
   27.7115   10.2683   60.4935 H   0  0  0  0  0  0  0  0  0  0  0  0
   28.9524   12.0522   61.9522 C   0  0  0  0  0  0  0  0  0  0  0  0
   27.7948   11.2609   62.5769 C   0  0  0  0  0  0  0  0  0  0  0  0
   26.8186   12.2910   63.0720 C   0  0  0  0  0  0  0  0  0  0  0  0
   27.7298   13.4988   63.2034 C   0  0  0  0  0  0  0  0  0  0  0  0
   28.4784   13.3772   61.8910 N   0  0  0  0  0  0  0  0  0  0  0  0
   28.5292   14.4817   61.0455 C   0  0  0  0  0  0  0  0  0  0  0  0
   27.8671   15.5360   61.3959 O   0  0  0  0  0  0  0  0  0  0  0  0
   29.1950   14.6094   59.8726 O   0  0  0  0  0  0  0  0  0  0  0  0
   29.5756   15.8742   59.3216 C   0  0  0  0  0  0  0  0  0  0  0  0
   30.7295   16.4524   60.0521 C   0  0  0  0  0  0  0  0  0  0  0  0
   31.2519   17.6774   59.7672 C   0  0  0  0  0  0  0  0  0  0  0  0
   32.3376   18.1867   60.4787 C   0  0  0  0  0  0  0  0  0  0  0  0
   32.9384   17.4838   61.4999 C   0  0  0  0  0  0  0  0  0  0  0  0
   32.4046   16.2248   61.7949 C   0  0  0  0  0  0  0  0  0  0  0  0
   31.3355   15.7344   61.0898 C   0  0  0  0  0  0  0  0  0  0  0  0
   29.8635    8.5096   59.2887 C   0  0  0  0  0  0  0  0  0  0  0  0
   30.2984    8.2715   60.6711 C   0  0  0  0  0  0  0  0  0  0  0  0
   29.2737    7.8139   61.6455 C   0  0  0  0  0  0  0  0  0  0  0  0
   29.6488    6.4596   62.1013 N   0  0  0  0  0  0  0  0  0  0  0  0
   30.6645    6.2743   62.3550 H   0  0  0  0  0  0  0  0  0  0  0  0
   28.3001    4.8765   63.3905 N   0  0  0  0  0  0  0  0  0  0  0  0
   28.6679    5.4695   62.1807 C   0  0  0  0  0  0  0  0  0  0  0  0
   28.0643    5.0875   61.0858 N   0  0  0  0  0  0  0  0  0  0  0  0
   29.0389    4.5742   64.0743 H   0  0  0  0  0  0  0  0  0  0  0  0
   27.2925    4.7076   63.6676 H   0  0  0  0  0  0  0  0  0  0  0  0
   28.3278    5.5240   60.1612 H   0  0  0  0  0  0  0  0  0  0  0  0
 65 66  1  0  0  0
 66 67  2  0  0  0
 66 63  1  0  0  0
 63 62  1  0  0  0
 62 61  1  0  0  0
 61 60  1  0  0  0
 60 40  1  0  0  0
 40 41  1  0  0  0
 41 42  1  0  0  0
 42 43  2  0  0  0
 42 45  1  0  0  0
 45 46  1  0  0  0
 46 47  1  0  0  0
 47 48  1  0  0  0
 48 49  1  0  0  0
 49 50  1  0  0  0
 50 51  2  0  0  0
 50 52  1  0  0  0
 52 53  1  0  0  0
 53 54  1  0  0  0
 54 55  2  0  0  0
 55 56  1  0  0  0
 56 57  2  0  0  0
 57 58  1  0  0  0
 58 59  2  0  0  0
 40  1  1  0  0  0
  1  2  2  0  0  0
  1  3  1  0  0  0
  3  5  1  0  0  0
  5 33  1  0  0  0
 33 34  1  0  0  0
 34 35  2  0  0  0
 35 36  1  0  0  0
 36 37  2  0  0  0
 37 38  1  0  0  0
 38 39  2  0  0  0
  5  6  1  0  0  0
  6  7  2  0  0  0
  6  8  1  0  0  0
  8 10  1  0  0  0
 10 22  1  0  0  0
 22 23  1  0  0  0
 23 24  1  0  0  0
 24 25  1  0  0  0
 25 27  1  0  0  0
 27 28  1  0  0  0
 27 29  2  0  0  0
 10 11  1  0  0  0
 11 12  2  0  0  0
 11 13  1  0  0  0
 13 14  2  0  0  0
 14 15  1  0  0  0
 15 16  2  0  0  0
 16 17  1  0  0  0
 17 18  2  0  0  0
 18 19  1  0  0  0
 19 20  2  0  0  0
 20 21  1  0  0  0
 49 45  1  0  0  0
 59 54  1  0  0  0
 39 34  1  0  0  0
 21 13  1  0  0  0
 20 15  1  0  0  0
 65 68  1  0  0  0
 65 69  1  0  0  0
 67 70  1  0  0  0
 63 64  1  0  0  0
 41 44  1  0  0  0
  3  4  1  0  0  0
  8  9  1  0  0  0
 25 26  1  0  0  0
 28 30  1  0  0  0
 28 31  1  0  0  0
 29 32  1  0  0  0
M  END
> <minimizedAffinity>
21.18475

> <CNNscore>
0.5385937095

> <CNNaffinity>
7.4519395828

> <CNN_VS>
4.0135679245

> <CNNaffinity_variance>
1.8080705404

$$$$
[H]N=C(N([H])[H])N([H])C([H])([H])C([H])([H])C([H])([H])[C@@]([H])(C(=O)c1nc2c([H])c([H])c([H])c([H])c2s1)N([H])C(=O)[C@@]([H])(N([H])C(=O)[C@@]([H])(N([H])C(=O)[C@@]1([H])N(C(=O)OC([H])([H])c2c([H])c([H])c([H])c([H])c2[H])C([H])([H])C([H])([H])C1([H])[H])C([H])([H])C([H])([H])C([H])([H])N([H])C(=N[H])N([H])[H])C([H])([H])c1c([H])c([H])c([H])c([H])c1[H]


 70 74  0  0  0  0  0  0  0  0999 V2000
   28.0359    9.3519   57.9303 C   0  0  0  0  0  0  0  0  0  0  0  0
   28.2296   10.5703   57.9737 O   0  0  0  0  0  0  0  0  0  0  0  0
   26.9732    8.8225   57.1614 N   0  0  0  0  0  0  0  0  0  0  0  0
   26.8465    7.7866   57.1436 H   0  0  0  0  0  0  0  0  0  0  0  0
   26.0937    9.7353   56.4273 C   0  0  0  0  0  0  0  0  0  0  0  0
   24.6847    9.1997   56.3133 C   0  0  0  0  0  0  0  0  0  0  0  0
   23.8314    9.9403   56.8360 O   0  0  0  0  0  0  0  0  0  0  0  0
   24.4532    7.9978   55.6783 N   0  0  0  0  0  0  0  0  0  0  0  0
   23.0912    8.2041   55.7478 H   0  0  0  0  0  0  0  0  0  0  0  0
   24.1944    6.8076   55.0541 C   0  0  0  0  0  0  0  0  0  0  0  0
   23.9762    7.0283   53.5888 C   0  0  0  0  0  0  0  0  0  0  0  0
   24.4896    6.2017   52.7584 O   0  0  0  0  0  0  0  0  0  0  0  0
   23.2069    8.1269   53.0343 C   0  0  0  0  0  0  0  0  0  0  0  0
   23.1248    9.3857   53.4048 N   0  0  0  0  0  0  0  0  0  0  0  0
   22.3599   10.2187   52.7751 C   0  0  0  0  0  0  0  0  0  0  0  0
   22.1813   11.5797   53.0744 C   0  0  0  0  0  0  0  0  0  0  0  0
   21.3484   12.3661   52.3501 C   0  0  0  0  0  0  0  0  0  0  0  0
   20.6317   11.8923   51.2859 C   0  0  0  0  0  0  0  0  0  0  0  0
   20.7782   10.5684   50.9620 C   0  0  0  0  0  0  0  0  0  0  0  0
   21.6375    9.7462   51.7064 C   0  0  0  0  0  0  0  0  0  0  0  0
   22.1305    8.0915   51.6915 S   0  0  0  0  0  0  0  0  0  0  0  0
   23.1533    5.8526   55.5554 C   0  0  0  0  0  0  0  0  0  0  0  0
   21.7767    5.9665   55.0757 C   0  0  0  0  0  0  0  0  0  0  0  0
   21.3640    5.4362   53.7513 C   0  0  0  0  0  0  0  0  0  0  0  0
   19.8996    5.4472   53.5905 N   0  0  0  0  0  0  0  0  0  0  0  0
   19.4134    6.3402   53.5284 H   0  0  0  0  0  0  0  0  0  0  0  0
   19.2360    4.2084   53.5382 C   0  0  0  0  0  0  0  0  0  0  0  0
   19.8011    3.0259   52.9897 N   0  0  0  0  0  0  0  0  0  0  0  0
   18.0249    4.0631   54.0216 N   0  0  0  0  0  0  0  0  0  0  0  0
   20.5179    2.4493   53.4863 H   0  0  0  0  0  0  0  0  0  0  0  0
   19.4890    2.7146   52.0580 H   0  0  0  0  0  0  0  0  0  0  0  0
   17.5919    4.8986   54.4374 H   0  0  0  0  0  0  0  0  0  0  0  0
   26.7101    9.9088   55.0727 C   0  0  0  0  0  0  0  0  0  0  0  0
   27.7221    8.9217   54.6937 C   0  0  0  0  0  0  0  0  0  0  0  0
   29.0813    9.1027   54.9123 C   0  0  0  0  0  0  0  0  0  0  0  0
   29.9322    8.1131   54.4849 C   0  0  0  0  0  0  0  0  0  0  0  0
   29.5366    6.9668   53.8594 C   0  0  0  0  0  0  0  0  0  0  0  0
   28.1591    6.7582   53.6247 C   0  0  0  0  0  0  0  0  0  0  0  0
   27.3311    7.7548   54.0579 C   0  0  0  0  0  0  0  0  0  0  0  0
   28.9303    8.4144   58.7030 C   0  0  0  0  0  0  0  0  0  0  0  0
   30.0021    9.1673   59.2946 N   0  0  0  0  0  0  0  0  0  0  0  0
   29.8674   10.0183   60.4439 C   0  0  0  0  0  0  0  0  0  0  0  0
   28.7472   10.1199   60.9667 O   0  0  0  0  0  0  0  0  0  0  0  0
   30.9230    9.0862   58.8559 H   0  0  0  0  0  0  0  0  0  0  0  0
   31.0505   10.6981   60.9140 C   0  0  0  0  0  0  0  0  0  0  0  0
   31.7526    9.9120   62.0301 C   0  0  0  0  0  0  0  0  0  0  0  0
   32.2939   10.9461   62.9771 C   0  0  0  0  0  0  0  0  0  0  0  0
   32.3567   12.1568   62.0624 C   0  0  0  0  0  0  0  0  0  0  0  0
   31.0031   12.0215   61.3938 N   0  0  0  0  0  0  0  0  0  0  0  0
   30.1436   13.1164   61.3965 C   0  0  0  0  0  0  0  0  0  0  0  0
   30.5215   14.1736   62.0388 O   0  0  0  0  0  0  0  0  0  0  0  0
   28.9315   13.2319   60.8027 O   0  0  0  0  0  0  0  0  0  0  0  0
   28.0155   14.2929   61.0919 C   0  0  0  0  0  0  0  0  0  0  0  0
   28.5965   15.6127   60.7451 C   0  0  0  0  0  0  0  0  0  0  0  0
   29.4969   15.7876   59.7385 C   0  0  0  0  0  0  0  0  0  0  0  0
   30.0192   17.0461   59.4426 C   0  0  0  0  0  0  0  0  0  0  0  0
   29.6578   18.1731   60.1478 C   0  0  0  0  0  0  0  0  0  0  0  0
   28.7335   17.9969   61.1829 C   0  0  0  0  0  0  0  0  0  0  0  0
   28.2248   16.7548   61.4641 C   0  0  0  0  0  0  0  0  0  0  0  0
   28.0567    7.7892   59.7321 C   0  0  0  0  0  0  0  0  0  0  0  0
   28.6017    6.8147   60.6862 C   0  0  0  0  0  0  0  0  0  0  0  0
   28.2105    5.3912   60.5146 C   0  0  0  0  0  0  0  0  0  0  0  0
   28.0431    4.7981   61.8574 N   0  0  0  0  0  0  0  0  0  0  0  0
   28.3430    5.3681   62.7032 H   0  0  0  0  0  0  0  0  0  0  0  0
   28.1474    2.4968   62.6821 N   0  0  0  0  0  0  0  0  0  0  0  0
   27.5047    3.5156   61.9753 C   0  0  0  0  0  0  0  0  0  0  0  0
   26.3535    3.2583   61.4117 N   0  0  0  0  0  0  0  0  0  0  0  0
   29.1796    2.3414   62.5592 H   0  0  0  0  0  0  0  0  0  0  0  0
   27.6421    1.8524   63.3530 H   0  0  0  0  0  0  0  0  0  0  0  0
   25.8516    4.0152   60.8733 H   0  0  0  0  0  0  0  0  0  0  0  0
 65 66  1  0  0  0
 66 67  2  0  0  0
 66 63  1  0  0  0
 63 62  1  0  0  0
 62 61  1  0  0  0
 61 60  1  0  0  0
 60 40  1  0  0  0
 40 41  1  0  0  0
 41 42  1  0  0  0
 42 43  2  0  0  0
 42 45  1  0  0  0
 45 46  1  0  0  0
 46 47  1  0  0  0
 47 48  1  0  0  0
 48 49  1  0  0  0
 49 50  1  0  0  0
 50 51  2  0  0  0
 50 52  1  0  0  0
 52 53  1  0  0  0
 53 54  1  0  0  0
 54 55  2  0  0  0
 55 56  1  0  0  0
 56 57  2  0  0  0
 57 58  1  0  0  0
 58 59  2  0  0  0
 40  1  1  0  0  0
  1  2  2  0  0  0
  1  3  1  0  0  0
  3  5  1  0  0  0
  5 33  1  0  0  0
 33 34  1  0  0  0
 34 35  2  0  0  0
 35 36  1  0  0  0
 36 37  2  0  0  0
 37 38  1  0  0  0
 38 39  2  0  0  0
  5  6  1  0  0  0
  6  7  2  0  0  0
  6  8  1  0  0  0
  8 10  1  0  0  0
 10 22  1  0  0  0
 22 23  1  0  0  0
 23 24  1  0  0  0
 24 25  1  0  0  0
 25 27  1  0  0  0
 27 28  1  0  0  0
 27 29  2  0  0  0
 10 11  1  0  0  0
 11 12  2  0  0  0
 11 13  1  0  0  0
 13 14  2  0  0  0
 14 15  1  0  0  0
 15 16  2  0  0  0
 16 17  1  0  0  0
 17 18  2  0  0  0
 18 19  1  0  0  0
 19 20  2  0  0  0
 20 21  1  0  0  0
 49 45  1  0  0  0
 59 54  1  0  0  0
 39 34  1  0  0  0
 21 13  1  0  0  0
 20 15  1  0  0  0
 65 68  1  0  0  0
 65 69  1  0  0  0
 67 70  1  0  0  0
 63 64  1  0  0  0
 41 44  1  0  0  0
  3  4  1  0  0  0
  8  9  1  0  0  0
 25 26  1  0  0  0
 28 30  1  0  0  0
 28 31  1  0  0  0
 29 32  1  0  0  0
M  END
> <minimizedAffinity>
21.99056

> <CNNscore>
0.5215629339

> <CNNaffinity>
7.4440832138

> <CNN_VS>
3.8825578690

> <CNNaffinity_variance>
0.8686172366

$$$$
[H]N=C(N([H])[H])N([H])C([H])([H])C([H])([H])C([H])([H])[C@@]([H])(C(=O)c1nc2c([H])c([H])c([H])c([H])c2s1)N([H])C(=O)[C@@]([H])(N([H])C(=O)[C@@]([H])(N([H])C(=O)[C@@]1([H])N(C(=O)OC([H])([H])c2c([H])c([H])c([H])c([H])c2[H])C([H])([H])C([H])([H])C1([H])[H])C([H])([H])C([H])([H])C([H])([H])N([H])C(=N[H])N([H])[H])C([H])([H])c1c([H])c([H])c([H])c([H])c1[H]


 70 74  0  0  0  0  0  0  0  0999 V2000
   28.8196    8.4493   58.8470 C   0  0  0  0  0  0  0  0  0  0  0  0
   28.7278    7.4013   58.2010 O   0  0  0  0  0  0  0  0  0  0  0  0
   28.2295    9.6414   58.3659 N   0  0  0  0  0  0  0  0  0  0  0  0
   28.3221   10.5052   58.9444 H   0  0  0  0  0  0  0  0  0  0  0  0
   27.5195    9.6249   57.0847 C   0  0  0  0  0  0  0  0  0  0  0  0
   26.0818    9.1830   57.2362 C   0  0  0  0  0  0  0  0  0  0  0  0
   25.6464    9.3087   58.3957 O   0  0  0  0  0  0  0  0  0  0  0  0
   25.3913    8.6972   56.1460 N   0  0  0  0  0  0  0  0  0  0  0  0
   24.2188    8.6859   56.8723 H   0  0  0  0  0  0  0  0  0  0  0  0
   24.6822    8.2105   55.0813 C   0  0  0  0  0  0  0  0  0  0  0  0
   23.2593    8.6732   55.1520 C   0  0  0  0  0  0  0  0  0  0  0  0
   22.4846    8.1506   56.0256 O   0  0  0  0  0  0  0  0  0  0  0  0
   22.6885    9.6923   54.2907 C   0  0  0  0  0  0  0  0  0  0  0  0
   22.3378    9.6432   53.0246 N   0  0  0  0  0  0  0  0  0  0  0  0
   21.8495   10.6818   52.4261 C   0  0  0  0  0  0  0  0  0  0  0  0
   21.4443   10.7590   51.0831 C   0  0  0  0  0  0  0  0  0  0  0  0
   20.9480   11.9030   50.5523 C   0  0  0  0  0  0  0  0  0  0  0  0
   20.8076   13.0509   51.2827 C   0  0  0  0  0  0  0  0  0  0  0  0
   21.1924   13.0164   52.5979 C   0  0  0  0  0  0  0  0  0  0  0  0
   21.7081   11.8370   53.1561 C   0  0  0  0  0  0  0  0  0  0  0  0
   22.3066   11.3222   54.6917 S   0  0  0  0  0  0  0  0  0  0  0  0
   24.6962    6.7585   54.7090 C   0  0  0  0  0  0  0  0  0  0  0  0
   24.0462    6.3226   53.4737 C   0  0  0  0  0  0  0  0  0  0  0  0
   22.5824    6.0818   53.4035 C   0  0  0  0  0  0  0  0  0  0  0  0
   21.9814    6.7119   52.2152 N   0  0  0  0  0  0  0  0  0  0  0  0
   22.4969    6.7078   51.3366 H   0  0  0  0  0  0  0  0  0  0  0  0
   20.7130    7.3025   52.3565 C   0  0  0  0  0  0  0  0  0  0  0  0
   19.9769    7.8726   51.2833 N   0  0  0  0  0  0  0  0  0  0  0  0
   20.1090    7.3495   53.5203 N   0  0  0  0  0  0  0  0  0  0  0  0
   19.4645    7.3021   50.5728 H   0  0  0  0  0  0  0  0  0  0  0  0
   19.9399    8.8992   51.1993 H   0  0  0  0  0  0  0  0  0  0  0  0
   20.6108    6.9337   54.3165 H   0  0  0  0  0  0  0  0  0  0  0  0
   28.2773    8.6824   56.2002 C   0  0  0  0  0  0  0  0  0  0  0  0
   28.1740    8.9254   54.7606 C   0  0  0  0  0  0  0  0  0  0  0  0
   29.0013    9.8057   54.0760 C   0  0  0  0  0  0  0  0  0  0  0  0
   28.7846    9.9663   52.7295 C   0  0  0  0  0  0  0  0  0  0  0  0
   27.8132    9.3241   52.0182 C   0  0  0  0  0  0  0  0  0  0  0  0
   26.9578    8.4232   52.6910 C   0  0  0  0  0  0  0  0  0  0  0  0
   27.1912    8.2788   54.0293 C   0  0  0  0  0  0  0  0  0  0  0  0
   29.5684    8.4692   60.1565 C   0  0  0  0  0  0  0  0  0  0  0  0
   28.9674    9.4417   61.0276 N   0  0  0  0  0  0  0  0  0  0  0  0
   29.6876   10.4657   61.7316 C   0  0  0  0  0  0  0  0  0  0  0  0
   30.9183   10.5186   61.5863 O   0  0  0  0  0  0  0  0  0  0  0  0
   27.9528    9.3901   61.1501 H   0  0  0  0  0  0  0  0  0  0  0  0
   28.9258   11.3676   62.5617 C   0  0  0  0  0  0  0  0  0  0  0  0
   27.4172   11.1064   62.4501 C   0  0  0  0  0  0  0  0  0  0  0  0
   26.7632   12.4569   62.5372 C   0  0  0  0  0  0  0  0  0  0  0  0
   27.8524   13.2500   63.2380 C   0  0  0  0  0  0  0  0  0  0  0  0
   29.0491   12.7658   62.4437 N   0  0  0  0  0  0  0  0  0  0  0  0
   29.8967   13.7091   61.8699 C   0  0  0  0  0  0  0  0  0  0  0  0
   29.5721   14.9558   61.9855 O   0  0  0  0  0  0  0  0  0  0  0  0
   31.0476   13.4966   61.1875 O   0  0  0  0  0  0  0  0  0  0  0  0
   31.9854   14.5361   60.8906 C   0  0  0  0  0  0  0  0  0  0  0  0
   31.2927   15.7992   60.5381 C   0  0  0  0  0  0  0  0  0  0  0  0
   31.7173   17.0228   60.9591 C   0  0  0  0  0  0  0  0  0  0  0  0
   31.0385   18.1880   60.6047 C   0  0  0  0  0  0  0  0  0  0  0  0
   29.9086   18.1663   59.8169 C   0  0  0  0  0  0  0  0  0  0  0  0
   29.4693   16.9110   59.3831 C   0  0  0  0  0  0  0  0  0  0  0  0
   30.1456   15.7714   59.7362 C   0  0  0  0  0  0  0  0  0  0  0  0
   29.4537    7.0896   60.7013 C   0  0  0  0  0  0  0  0  0  0  0  0
   29.7010    6.8226   62.1240 C   0  0  0  0  0  0  0  0  0  0  0  0
   28.5819    6.2581   62.9227 C   0  0  0  0  0  0  0  0  0  0  0  0
   28.9151    4.8564   63.2497 N   0  0  0  0  0  0  0  0  0  0  0  0
   29.8142    4.6612   63.7824 H   0  0  0  0  0  0  0  0  0  0  0  0
   26.6699    4.0273   62.7411 N   0  0  0  0  0  0  0  0  0  0  0  0
   28.0493    3.8373   62.8493 C   0  0  0  0  0  0  0  0  0  0  0  0
   28.5458    2.6639   62.5564 N   0  0  0  0  0  0  0  0  0  0  0  0
   26.1481    4.5374   63.4976 H   0  0  0  0  0  0  0  0  0  0  0  0
   26.1019    3.6773   61.9192 H   0  0  0  0  0  0  0  0  0  0  0  0
   29.5861    2.5002   62.6315 H   0  0  0  0  0  0  0  0  0  0  0  0
 65 66  1  0  0  0
 66 67  2  0  0  0
 66 63  1  0  0  0
 63 62  1  0  0  0
 62 61  1  0  0  0
 61 60  1  0  0  0
 60 40  1  0  0  0
 40 41  1  0  0  0
 41 42  1  0  0  0
 42 43  2  0  0  0
 42 45  1  0  0  0
 45 46  1  0  0  0
 46 47  1  0  0  0
 47 48  1  0  0  0
 48 49  1  0  0  0
 49 50  1  0  0  0
 50 51  2  0  0  0
 50 52  1  0  0  0
 52 53  1  0  0  0
 53 54  1  0  0  0
 54 55  2  0  0  0
 55 56  1  0  0  0
 56 57  2  0  0  0
 57 58  1  0  0  0
 58 59  2  0  0  0
 40  1  1  0  0  0
  1  2  2  0  0  0
  1  3  1  0  0  0
  3  5  1  0  0  0
  5 33  1  0  0  0
 33 34  1  0  0  0
 34 35  2  0  0  0
 35 36  1  0  0  0
 36 37  2  0  0  0
 37 38  1  0  0  0
 38 39  2  0  0  0
  5  6  1  0  0  0
  6  7  2  0  0  0
  6  8  1  0  0  0
  8 10  1  0  0  0
 10 22  1  0  0  0
 22 23  1  0  0  0
 23 24  1  0  0  0
 24 25  1  0  0  0
 25 27  1  0  0  0
 27 28  1  0  0  0
 27 29  2  0  0  0
 10 11  1  0  0  0
 11 12  2  0  0  0
 11 13  1  0  0  0
 13 14  2  0  0  0
 14 15  1  0  0  0
 15 16  2  0  0  0
 16 17  1  0  0  0
 17 18  2  0  0  0
 18 19  1  0  0  0
 19 20  2  0  0  0
 20 21  1  0  0  0
 49 45  1  0  0  0
 59 54  1  0  0  0
 39 34  1  0  0  0
 21 13  1  0  0  0
 20 15  1  0  0  0
 65 68  1  0  0  0
 65 69  1  0  0  0
 67 70  1  0  0  0
 63 64  1  0  0  0
 41 44  1  0  0  0
  3  4  1  0  0  0
  8  9  1  0  0  0
 25 26  1  0  0  0
 28 30  1  0  0  0
 28 31  1  0  0  0
 29 32  1  0  0  0
M  END
> <minimizedAffinity>
19.70842

> <CNNscore>
0.5154214501

> <CNNaffinity>
7.5017714500

> <CNN_VS>
3.8665738106

> <CNNaffinity_variance>
1.4532233477

$$$$
[H]N=C(N([H])[H])N([H])C([H])([H])C([H])([H])C([H])([H])[C@@]([H])(C(=O)c1nc2c([H])c([H])c([H])c([H])c2s1)N([H])C(=O)[C@@]([H])(N([H])C(=O)[C@@]([H])(N([H])C(=O)[C@@]1([H])N(C(=O)OC([H])([H])c2c([H])c([H])c([H])c([H])c2[H])C([H])([H])C([H])([H])C1([H])[H])C([H])([H])C([H])([H])C([H])([H])N([H])C(=N[H])N([H])[H])C([H])([H])c1c([H])c([H])c([H])c([H])c1[H]


 70 74  0  0  0  0  0  0  0  0999 V2000
   28.6099    8.6635   58.7246 C   0  0  0  0  0  0  0  0  0  0  0  0
   28.2071    9.7105   59.2397 O   0  0  0  0  0  0  0  0  0  0  0  0
   28.0798    8.2227   57.4895 N   0  0  0  0  0  0  0  0  0  0  0  0
   28.4515    7.3365   57.0821 H   0  0  0  0  0  0  0  0  0  0  0  0
   27.0361    9.0134   56.8328 C   0  0  0  0  0  0  0  0  0  0  0  0
   26.8007    8.5725   55.4061 C   0  0  0  0  0  0  0  0  0  0  0  0
   27.7871    8.7463   54.6668 O   0  0  0  0  0  0  0  0  0  0  0  0
   25.5817    8.0416   55.0407 N   0  0  0  0  0  0  0  0  0  0  0  0
   26.0818    7.7030   53.8006 H   0  0  0  0  0  0  0  0  0  0  0  0
   24.3817    7.5121   54.6500 C   0  0  0  0  0  0  0  0  0  0  0  0
   23.2545    8.3717   55.1337 C   0  0  0  0  0  0  0  0  0  0  0  0
   22.7723    8.1567   56.2989 O   0  0  0  0  0  0  0  0  0  0  0  0
   22.6640    9.4522   54.3656 C   0  0  0  0  0  0  0  0  0  0  0  0
   22.4786    9.5781   53.0701 N   0  0  0  0  0  0  0  0  0  0  0  0
   21.9350   10.6428   52.5737 C   0  0  0  0  0  0  0  0  0  0  0  0
   21.6888   10.8995   51.2145 C   0  0  0  0  0  0  0  0  0  0  0  0
   21.1153   12.0550   50.7991 C   0  0  0  0  0  0  0  0  0  0  0  0
   20.7389   13.0418   51.6683 C   0  0  0  0  0  0  0  0  0  0  0  0
   20.9629   12.8294   53.0039 C   0  0  0  0  0  0  0  0  0  0  0  0
   21.5567   11.6366   53.4434 C   0  0  0  0  0  0  0  0  0  0  0  0
   22.0269   10.9401   54.9517 S   0  0  0  0  0  0  0  0  0  0  0  0
   24.0264    6.0756   54.8902 C   0  0  0  0  0  0  0  0  0  0  0  0
   22.6661    5.6123   54.6194 C   0  0  0  0  0  0  0  0  0  0  0  0
   22.1623    5.4341   53.2337 C   0  0  0  0  0  0  0  0  0  0  0  0
   22.0246    6.7224   52.5325 N   0  0  0  0  0  0  0  0  0  0  0  0
   22.8628    7.2119   52.2238 H   0  0  0  0  0  0  0  0  0  0  0  0
   20.7263    7.2228   52.3287 C   0  0  0  0  0  0  0  0  0  0  0  0
   20.3109    7.9014   51.1516 N   0  0  0  0  0  0  0  0  0  0  0  0
   19.7887    7.0745   53.2346 N   0  0  0  0  0  0  0  0  0  0  0  0
   20.0999    7.4122   50.2522 H   0  0  0  0  0  0  0  0  0  0  0  0
   20.2072    8.9265   51.1821 H   0  0  0  0  0  0  0  0  0  0  0  0
   20.0543    6.5760   54.0945 H   0  0  0  0  0  0  0  0  0  0  0  0
   27.4990   10.4375   56.8819 C   0  0  0  0  0  0  0  0  0  0  0  0
   28.5654   10.8014   55.9476 C   0  0  0  0  0  0  0  0  0  0  0  0
   29.0304   12.1005   55.7920 C   0  0  0  0  0  0  0  0  0  0  0  0
   30.0169   12.3163   54.8614 C   0  0  0  0  0  0  0  0  0  0  0  0
   30.5702   11.3455   54.0783 C   0  0  0  0  0  0  0  0  0  0  0  0
   30.1147   10.0153   54.2168 C   0  0  0  0  0  0  0  0  0  0  0  0
   29.1335    9.8236   55.1479 C   0  0  0  0  0  0  0  0  0  0  0  0
   29.6705    7.8398   59.4121 C   0  0  0  0  0  0  0  0  0  0  0  0
   30.7034    8.7133   59.8976 N   0  0  0  0  0  0  0  0  0  0  0  0
   30.5586    9.6148   61.0064 C   0  0  0  0  0  0  0  0  0  0  0  0
   29.4646    9.6515   61.5896 O   0  0  0  0  0  0  0  0  0  0  0  0
   31.6021    8.6849   59.4092 H   0  0  0  0  0  0  0  0  0  0  0  0
   31.7019   10.4179   61.3680 C   0  0  0  0  0  0  0  0  0  0  0  0
   32.4196    9.8612   62.6056 C   0  0  0  0  0  0  0  0  0  0  0  0
   32.8979   11.0620   63.3727 C   0  0  0  0  0  0  0  0  0  0  0  0
   32.9218   12.1063   62.2703 C   0  0  0  0  0  0  0  0  0  0  0  0
   31.5871   11.7987   61.6210 N   0  0  0  0  0  0  0  0  0  0  0  0
   30.6794   12.8373   61.4339 C   0  0  0  0  0  0  0  0  0  0  0  0
   30.9985   14.0028   61.8952 O   0  0  0  0  0  0  0  0  0  0  0  0
   29.4735   12.7958   60.8181 O   0  0  0  0  0  0  0  0  0  0  0  0
   28.3904   13.6676   61.1573 C   0  0  0  0  0  0  0  0  0  0  0  0
   28.7232   15.0804   60.8527 C   0  0  0  0  0  0  0  0  0  0  0  0
   28.1437   16.1351   61.4903 C   0  0  0  0  0  0  0  0  0  0  0  0
   28.4850   17.4499   61.1756 C   0  0  0  0  0  0  0  0  0  0  0  0
   29.4185   17.7527   60.2088 C   0  0  0  0  0  0  0  0  0  0  0  0
   30.0153   16.6717   59.5515 C   0  0  0  0  0  0  0  0  0  0  0  0
   29.6734   15.3824   59.8701 C   0  0  0  0  0  0  0  0  0  0  0  0
   28.9713    7.1364   60.5208 C   0  0  0  0  0  0  0  0  0  0  0  0
   28.3252    5.8371   60.2948 C   0  0  0  0  0  0  0  0  0  0  0  0
   28.5868    4.7577   61.2823 C   0  0  0  0  0  0  0  0  0  0  0  0
   27.2985    4.3806   61.8994 N   0  0  0  0  0  0  0  0  0  0  0  0
   26.4227    4.9052   61.6029 H   0  0  0  0  0  0  0  0  0  0  0  0
   26.0792    2.7582   63.2662 N   0  0  0  0  0  0  0  0  0  0  0  0
   27.2695    3.3580   62.8492 C   0  0  0  0  0  0  0  0  0  0  0  0
   28.3965    2.9391   63.3626 N   0  0  0  0  0  0  0  0  0  0  0  0
   25.2408    3.3516   63.4889 H   0  0  0  0  0  0  0  0  0  0  0  0
   25.9680    1.7111   63.3753 H   0  0  0  0  0  0  0  0  0  0  0  0
   29.3071    3.3794   63.0601 H   0  0  0  0  0  0  0  0  0  0  0  0
 65 66  1  0  0  0
 66 67  2  0  0  0
 66 63  1  0  0  0
 63 62  1  0  0  0
 62 61  1  0  0  0
 61 60  1  0  0  0
 60 40  1  0  0  0
 40 41  1  0  0  0
 41 42  1  0  0  0
 42 43  2  0  0  0
 42 45  1  0  0  0
 45 46  1  0  0  0
 46 47  1  0  0  0
 47 48  1  0  0  0
 48 49  1  0  0  0
 49 50  1  0  0  0
 50 51  2  0  0  0
 50 52  1  0  0  0
 52 53  1  0  0  0
 53 54  1  0  0  0
 54 55  2  0  0  0
 55 56  1  0  0  0
 56 57  2  0  0  0
 57 58  1  0  0  0
 58 59  2  0  0  0
 40  1  1  0  0  0
  1  2  2  0  0  0
  1  3  1  0  0  0
  3  5  1  0  0  0
  5 33  1  0  0  0
 33 34  1  0  0  0
 34 35  2  0  0  0
 35 36  1  0  0  0
 36 37  2  0  0  0
 37 38  1  0  0  0
 38 39  2  0  0  0
  5  6  1  0  0  0
  6  7  2  0  0  0
  6  8  1  0  0  0
  8 10  1  0  0  0
 10 22  1  0  0  0
 22 23  1  0  0  0
 23 24  1  0  0  0
 24 25  1  0  0  0
 25 27  1  0  0  0
 27 28  1  0  0  0
 27 29  2  0  0  0
 10 11  1  0  0  0
 11 12  2  0  0  0
 11 13  1  0  0  0
 13 14  2  0  0  0
 14 15  1  0  0  0
 15 16  2  0  0  0
 16 17  1  0  0  0
 17 18  2  0  0  0
 18 19  1  0  0  0
 19 20  2  0  0  0
 20 21  1  0  0  0
 49 45  1  0  0  0
 59 54  1  0  0  0
 39 34  1  0  0  0
 21 13  1  0  0  0
 20 15  1  0  0  0
 65 68  1  0  0  0
 65 69  1  0  0  0
 67 70  1  0  0  0
 63 64  1  0  0  0
 41 44  1  0  0  0
  3  4  1  0  0  0
  8  9  1  0  0  0
 25 26  1  0  0  0
 28 30  1  0  0  0
 28 31  1  0  0  0
 29 32  1  0  0  0
M  END
> <minimizedAffinity>
19.09020

> <CNNscore>
0.4552301168

> <CNNaffinity>
7.2412400246

> <CNN_VS>
3.2964305878

> <CNNaffinity_variance>
0.6650651693

$$$$
[H]N=C(N([H])[H])N([H])C([H])([H])C([H])([H])C([H])([H])[C@@]([H])(C(=O)c1nc2c([H])c([H])c([H])c([H])c2s1)N([H])C(=O)[C@@]([H])(N([H])C(=O)[C@@]([H])(N([H])C(=O)[C@@]1([H])N(C(=O)OC([H])([H])c2c([H])c([H])c([H])c([H])c2[H])C([H])([H])C([H])([H])C1([H])[H])C([H])([H])C([H])([H])C([H])([H])N([H])C(=N[H])N([H])[H])C([H])([H])c1c([H])c([H])c([H])c([H])c1[H]


 70 74  0  0  0  0  0  0  0  0999 V2000
   27.1622    8.9723   57.6160 C   0  0  0  0  0  0  0  0  0  0  0  0
   26.3330    9.4768   58.3788 O   0  0  0  0  0  0  0  0  0  0  0  0
   28.4591    8.6499   58.0797 N   0  0  0  0  0  0  0  0  0  0  0  0
   29.1294    8.2174   57.4066 H   0  0  0  0  0  0  0  0  0  0  0  0
   28.8151    8.9339   59.4719 C   0  0  0  0  0  0  0  0  0  0  0  0
   29.4351   10.3032   59.6330 C   0  0  0  0  0  0  0  0  0  0  0  0
   30.6578   10.3218   59.3997 O   0  0  0  0  0  0  0  0  0  0  0  0
   28.6523   11.3748   60.0075 N   0  0  0  0  0  0  0  0  0  0  0  0
   29.7011   12.2416   59.7814 H   0  0  0  0  0  0  0  0  0  0  0  0
   27.8995   12.4558   60.3788 C   0  0  0  0  0  0  0  0  0  0  0  0
   28.4584   13.7076   59.7753 C   0  0  0  0  0  0  0  0  0  0  0  0
   28.0633   14.0594   58.6106 O   0  0  0  0  0  0  0  0  0  0  0  0
   29.4274   14.5673   60.4297 C   0  0  0  0  0  0  0  0  0  0  0  0
   29.2822   15.7479   60.9897 N   0  0  0  0  0  0  0  0  0  0  0  0
   30.2899   16.3650   61.5179 C   0  0  0  0  0  0  0  0  0  0  0  0
   30.2666   17.6256   62.1378 C   0  0  0  0  0  0  0  0  0  0  0  0
   31.3859   18.1860   62.6572 C   0  0  0  0  0  0  0  0  0  0  0  0
   32.6048   17.5668   62.6146 C   0  0  0  0  0  0  0  0  0  0  0  0
   32.6693   16.3348   62.0171 C   0  0  0  0  0  0  0  0  0  0  0  0
   31.5161   15.7468   61.4759 C   0  0  0  0  0  0  0  0  0  0  0  0
   31.1101   14.2828   60.6556 S   0  0  0  0  0  0  0  0  0  0  0  0
   27.5463   12.7297   61.8097 C   0  0  0  0  0  0  0  0  0  0  0  0
   28.3160   12.0949   62.8787 C   0  0  0  0  0  0  0  0  0  0  0  0
   29.3845   11.1045   62.5904 C   0  0  0  0  0  0  0  0  0  0  0  0
   30.6776   11.7580   62.3230 N   0  0  0  0  0  0  0  0  0  0  0  0
   30.7158   12.5309   61.6607 H   0  0  0  0  0  0  0  0  0  0  0  0
   31.8109   11.2707   62.9981 C   0  0  0  0  0  0  0  0  0  0  0  0
   32.9102   12.0792   63.3934 N   0  0  0  0  0  0  0  0  0  0  0  0
   31.9164   10.0048   63.3268 N   0  0  0  0  0  0  0  0  0  0  0  0
   32.8825   12.7210   64.2181 H   0  0  0  0  0  0  0  0  0  0  0  0
   33.7819   12.0311   62.8454 H   0  0  0  0  0  0  0  0  0  0  0  0
   31.1306    9.3943   63.0655 H   0  0  0  0  0  0  0  0  0  0  0  0
   29.7764    7.8609   59.8835 C   0  0  0  0  0  0  0  0  0  0  0  0
   29.2484    6.8316   60.7802 C   0  0  0  0  0  0  0  0  0  0  0  0
   28.5828    5.6990   60.3305 C   0  0  0  0  0  0  0  0  0  0  0  0
   28.1105    4.8211   61.2750 C   0  0  0  0  0  0  0  0  0  0  0  0
   28.2473    4.9843   62.6228 C   0  0  0  0  0  0  0  0  0  0  0  0
   28.9205    6.1284   63.1066 C   0  0  0  0  0  0  0  0  0  0  0  0
   29.3818    6.9877   62.1501 C   0  0  0  0  0  0  0  0  0  0  0  0
   26.8004    8.6989   56.1771 C   0  0  0  0  0  0  0  0  0  0  0  0
   25.5987    9.4160   55.8496 N   0  0  0  0  0  0  0  0  0  0  0  0
   24.6977    9.0618   54.7886 C   0  0  0  0  0  0  0  0  0  0  0  0
   24.9718    8.0692   54.0972 O   0  0  0  0  0  0  0  0  0  0  0  0
   25.3800   10.2384   56.4179 H   0  0  0  0  0  0  0  0  0  0  0  0
   23.5295    9.8882   54.6005 C   0  0  0  0  0  0  0  0  0  0  0  0
   22.7858   10.1310   55.9214 C   0  0  0  0  0  0  0  0  0  0  0  0
   21.3251   10.1499   55.5680 C   0  0  0  0  0  0  0  0  0  0  0  0
   21.4000   10.4846   54.0885 C   0  0  0  0  0  0  0  0  0  0  0  0
   22.5158    9.5409   53.6863 N   0  0  0  0  0  0  0  0  0  0  0  0
   22.3040    8.6707   52.6208 C   0  0  0  0  0  0  0  0  0  0  0  0
   21.1310    8.6644   52.0759 O   0  0  0  0  0  0  0  0  0  0  0  0
   23.1810    7.8044   52.0591 O   0  0  0  0  0  0  0  0  0  0  0  0
   23.2674    6.4253   52.4318 C   0  0  0  0  0  0  0  0  0  0  0  0
   22.8548    6.2237   53.8420 C   0  0  0  0  0  0  0  0  0  0  0  0
   21.7070    6.7401   54.3622 C   0  0  0  0  0  0  0  0  0  0  0  0
   21.3536    6.5267   55.6940 C   0  0  0  0  0  0  0  0  0  0  0  0
   22.1404    5.7892   56.5512 C   0  0  0  0  0  0  0  0  0  0  0  0
   23.3205    5.2577   56.0204 C   0  0  0  0  0  0  0  0  0  0  0  0
   23.6575    5.4723   54.7085 C   0  0  0  0  0  0  0  0  0  0  0  0
   27.9635    9.1700   55.3781 C   0  0  0  0  0  0  0  0  0  0  0  0
   28.1752    8.6887   54.0069 C   0  0  0  0  0  0  0  0  0  0  0  0
   28.4117    9.7060   52.9496 C   0  0  0  0  0  0  0  0  0  0  0  0
   27.9334    9.1515   51.6664 N   0  0  0  0  0  0  0  0  0  0  0  0
   27.3374    8.2714   51.6864 H   0  0  0  0  0  0  0  0  0  0  0  0
   29.0012   10.9862   50.4497 N   0  0  0  0  0  0  0  0  0  0  0  0
   28.2786    9.7914   50.4748 C   0  0  0  0  0  0  0  0  0  0  0  0
   27.9209    9.2506   49.3396 N   0  0  0  0  0  0  0  0  0  0  0  0
   28.7504   11.7668   51.1075 H   0  0  0  0  0  0  0  0  0  0  0  0
   29.8094   11.1581   49.7879 H   0  0  0  0  0  0  0  0  0  0  0  0
   27.3745    8.3472   49.3373 H   0  0  0  0  0  0  0  0  0  0  0  0
 65 66  1  0  0  0
 66 67  2  0  0  0
 66 63  1  0  0  0
 63 62  1  0  0  0
 62 61  1  0  0  0
 61 60  1  0  0  0
 60 40  1  0  0  0
 40 41  1  0  0  0
 41 42  1  0  0  0
 42 43  2  0  0  0
 42 45  1  0  0  0
 45 46  1  0  0  0
 46 47  1  0  0  0
 47 48  1  0  0  0
 48 49  1  0  0  0
 49 50  1  0  0  0
 50 51  2  0  0  0
 50 52  1  0  0  0
 52 53  1  0  0  0
 53 54  1  0  0  0
 54 55  2  0  0  0
 55 56  1  0  0  0
 56 57  2  0  0  0
 57 58  1  0  0  0
 58 59  2  0  0  0
 40  1  1  0  0  0
  1  2  2  0  0  0
  1  3  1  0  0  0
  3  5  1  0  0  0
  5 33  1  0  0  0
 33 34  1  0  0  0
 34 35  2  0  0  0
 35 36  1  0  0  0
 36 37  2  0  0  0
 37 38  1  0  0  0
 38 39  2  0  0  0
  5  6  1  0  0  0
  6  7  2  0  0  0
  6  8  1  0  0  0
  8 10  1  0  0  0
 10 22  1  0  0  0
 22 23  1  0  0  0
 23 24  1  0  0  0
 24 25  1  0  0  0
 25 27  1  0  0  0
 27 28  1  0  0  0
 27 29  2  0  0  0
 10 11  1  0  0  0
 11 12  2  0  0  0
 11 13  1  0  0  0
 13 14  2  0  0  0
 14 15  1  0  0  0
 15 16  2  0  0  0
 16 17  1  0  0  0
 17 18  2  0  0  0
 18 19  1  0  0  0
 19 20  2  0  0  0
 20 21  1  0  0  0
 49 45  1  0  0  0
 59 54  1  0  0  0
 39 34  1  0  0  0
 21 13  1  0  0  0
 20 15  1  0  0  0
 65 68  1  0  0  0
 65 69  1  0  0  0
 67 70  1  0  0  0
 63 64  1  0  0  0
 41 44  1  0  0  0
  3  4  1  0  0  0
  8  9  1  0  0  0
 25 26  1  0  0  0
 28 30  1  0  0  0
 28 31  1  0  0  0
 29 32  1  0  0  0
M  END
> <minimizedAffinity>
14.40702

> <CNNscore>
0.4156264663

> <CNNaffinity>
7.1834425926

> <CNN_VS>
2.9856288433

> <CNNaffinity_variance>
1.3551410437

$$$$
[H]N=C(N([H])[H])N([H])C([H])([H])C([H])([H])C([H])([H])[C@@]([H])(C(=O)c1nc2c([H])c([H])c([H])c([H])c2s1)N([H])C(=O)[C@@]([H])(N([H])C(=O)[C@@]([H])(N([H])C(=O)[C@@]1([H])N(C(=O)OC([H])([H])c2c([H])c([H])c([H])c([H])c2[H])C([H])([H])C([H])([H])C1([H])[H])C([H])([H])C([H])([H])C([H])([H])N([H])C(=N[H])N([H])[H])C([H])([H])c1c([H])c([H])c([H])c([H])c1[H]


 70 74  0  0  0  0  0  0  0  0999 V2000
   26.9077   10.1032   57.1616 C   0  0  0  0  0  0  0  0  0  0  0  0
   27.6470    9.5323   56.3545 O   0  0  0  0  0  0  0  0  0  0  0  0
   25.5262   10.2440   56.8923 N   0  0  0  0  0  0  0  0  0  0  0  0
   24.9325   10.7258   57.6027 H   0  0  0  0  0  0  0  0  0  0  0  0
   24.9819    9.7183   55.6380 C   0  0  0  0  0  0  0  0  0  0  0  0
   23.4990    9.4405   55.7331 C   0  0  0  0  0  0  0  0  0  0  0  0
   23.1852    8.7734   56.7362 O   0  0  0  0  0  0  0  0  0  0  0  0
   22.6450    9.9140   54.7595 N   0  0  0  0  0  0  0  0  0  0  0  0
   21.5520    9.5213   55.5035 H   0  0  0  0  0  0  0  0  0  0  0  0
   21.7746   10.3711   53.8074 C   0  0  0  0  0  0  0  0  0  0  0  0
   21.5654    9.3275   52.7535 C   0  0  0  0  0  0  0  0  0  0  0  0
   22.0113    9.5450   51.5744 O   0  0  0  0  0  0  0  0  0  0  0  0
   20.8873    8.0643   52.9787 C   0  0  0  0  0  0  0  0  0  0  0  0
   19.6412    7.8105   53.3123 N   0  0  0  0  0  0  0  0  0  0  0  0
   19.2287    6.5950   53.4787 C   0  0  0  0  0  0  0  0  0  0  0  0
   17.9311    6.1946   53.8387 C   0  0  0  0  0  0  0  0  0  0  0  0
   17.6041    4.8883   53.9917 C   0  0  0  0  0  0  0  0  0  0  0  0
   18.5080    3.8786   53.8063 C   0  0  0  0  0  0  0  0  0  0  0  0
   19.7858    4.2284   53.4546 C   0  0  0  0  0  0  0  0  0  0  0  0
   20.1339    5.5781   53.2945 C   0  0  0  0  0  0  0  0  0  0  0  0
   21.5492    6.4780   52.8842 S   0  0  0  0  0  0  0  0  0  0  0  0
   21.9497   11.7007   53.1374 C   0  0  0  0  0  0  0  0  0  0  0  0
   21.2469   11.9775   51.8853 C   0  0  0  0  0  0  0  0  0  0  0  0
   21.6648   13.0794   50.9814 C   0  0  0  0  0  0  0  0  0  0  0  0
   20.5335   13.9539   50.6267 N   0  0  0  0  0  0  0  0  0  0  0  0
   19.8126   13.6030   49.9984 H   0  0  0  0  0  0  0  0  0  0  0  0
   20.5089   15.2491   51.1737 C   0  0  0  0  0  0  0  0  0  0  0  0
   19.5097   15.7154   52.0696 N   0  0  0  0  0  0  0  0  0  0  0  0
   21.4442   16.1254   50.8929 N   0  0  0  0  0  0  0  0  0  0  0  0
   19.4782   15.4520   53.0807 H   0  0  0  0  0  0  0  0  0  0  0  0
   18.7798   16.3485   51.7105 H   0  0  0  0  0  0  0  0  0  0  0  0
   22.1900   15.8145   50.2559 H   0  0  0  0  0  0  0  0  0  0  0  0
   25.7431    8.4607   55.3479 C   0  0  0  0  0  0  0  0  0  0  0  0
   25.0636    7.4757   54.5051 C   0  0  0  0  0  0  0  0  0  0  0  0
   24.9634    7.5945   53.1253 C   0  0  0  0  0  0  0  0  0  0  0  0
   24.2755    6.6162   52.4504 C   0  0  0  0  0  0  0  0  0  0  0  0
   23.6824    5.5379   53.0398 C   0  0  0  0  0  0  0  0  0  0  0  0
   23.7694    5.3935   54.4426 C   0  0  0  0  0  0  0  0  0  0  0  0
   24.4580    6.3777   55.0935 C   0  0  0  0  0  0  0  0  0  0  0  0
   27.4734   10.6618   58.4437 C   0  0  0  0  0  0  0  0  0  0  0  0
   28.5887    9.8549   58.8570 N   0  0  0  0  0  0  0  0  0  0  0  0
   28.9895    9.6497   60.2209 C   0  0  0  0  0  0  0  0  0  0  0  0
   28.3338   10.2097   61.1124 O   0  0  0  0  0  0  0  0  0  0  0  0
   29.1312    9.4005   58.1179 H   0  0  0  0  0  0  0  0  0  0  0  0
   30.1318    8.8009   60.4608 C   0  0  0  0  0  0  0  0  0  0  0  0
   29.7330    7.4958   61.1639 C   0  0  0  0  0  0  0  0  0  0  0  0
   30.8645    7.1761   62.1001 C   0  0  0  0  0  0  0  0  0  0  0  0
   31.9925    7.9605   61.4530 C   0  0  0  0  0  0  0  0  0  0  0  0
   31.2554    9.2561   61.1780 N   0  0  0  0  0  0  0  0  0  0  0  0
   31.8100   10.4499   61.6304 C   0  0  0  0  0  0  0  0  0  0  0  0
   32.8954   10.3794   62.3303 O   0  0  0  0  0  0  0  0  0  0  0  0
   31.3577   11.7117   61.4340 O   0  0  0  0  0  0  0  0  0  0  0  0
   31.8528   12.5692   60.4007 C   0  0  0  0  0  0  0  0  0  0  0  0
   31.7403   13.9964   60.7879 C   0  0  0  0  0  0  0  0  0  0  0  0
   32.8021   14.8490   60.8023 C   0  0  0  0  0  0  0  0  0  0  0  0
   32.6547   16.1855   61.1716 C   0  0  0  0  0  0  0  0  0  0  0  0
   31.4369   16.7129   61.5414 C   0  0  0  0  0  0  0  0  0  0  0  0
   30.3442   15.8397   61.5283 C   0  0  0  0  0  0  0  0  0  0  0  0
   30.5001   14.5275   61.1615 C   0  0  0  0  0  0  0  0  0  0  0  0
   27.8845   12.0552   58.1233 C   0  0  0  0  0  0  0  0  0  0  0  0
   28.6668   12.8453   59.0827 C   0  0  0  0  0  0  0  0  0  0  0  0
   27.9314   13.5011   60.1953 C   0  0  0  0  0  0  0  0  0  0  0  0
   27.3740   12.4422   61.0618 N   0  0  0  0  0  0  0  0  0  0  0  0
   26.8986   11.6101   60.6016 H   0  0  0  0  0  0  0  0  0  0  0  0
   26.4077   12.9527   63.2510 N   0  0  0  0  0  0  0  0  0  0  0  0
   27.4830   12.5662   62.4479 C   0  0  0  0  0  0  0  0  0  0  0  0
   28.6295   12.3037   63.0185 N   0  0  0  0  0  0  0  0  0  0  0  0
   25.7953   13.7557   62.9596 H   0  0  0  0  0  0  0  0  0  0  0  0
   26.1660   12.4717   64.1625 H   0  0  0  0  0  0  0  0  0  0  0  0
   29.4544   12.0095   62.4288 H   0  0  0  0  0  0  0  0  0  0  0  0
 65 66  1  0  0  0
 66 67  2  0  0  0
 66 63  1  0  0  0
 63 62  1  0  0  0
 62 61  1  0  0  0
 61 60  1  0  0  0
 60 40  1  0  0  0
 40 41  1  0  0  0
 41 42  1  0  0  0
 42 43  2  0  0  0
 42 45  1  0  0  0
 45 46  1  0  0  0
 46 47  1  0  0  0
 47 48  1  0  0  0
 48 49  1  0  0  0
 49 50  1  0  0  0
 50 51  2  0  0  0
 50 52  1  0  0  0
 52 53  1  0  0  0
 53 54  1  0  0  0
 54 55  2  0  0  0
 55 56  1  0  0  0
 56 57  2  0  0  0
 57 58  1  0  0  0
 58 59  2  0  0  0
 40  1  1  0  0  0
  1  2  2  0  0  0
  1  3  1  0  0  0
  3  5  1  0  0  0
  5 33  1  0  0  0
 33 34  1  0  0  0
 34 35  2  0  0  0
 35 36  1  0  0  0
 36 37  2  0  0  0
 37 38  1  0  0  0
 38 39  2  0  0  0
  5  6  1  0  0  0
  6  7  2  0  0  0
  6  8  1  0  0  0
  8 10  1  0  0  0
 10 22  1  0  0  0
 22 23  1  0  0  0
 23 24  1  0  0  0
 24 25  1  0  0  0
 25 27  1  0  0  0
 27 28  1  0  0  0
 27 29  2  0  0  0
 10 11  1  0  0  0
 11 12  2  0  0  0
 11 13  1  0  0  0
 13 14  2  0  0  0
 14 15  1  0  0  0
 15 16  2  0  0  0
 16 17  1  0  0  0
 17 18  2  0  0  0
 18 19  1  0  0  0
 19 20  2  0  0  0
 20 21  1  0  0  0
 49 45  1  0  0  0
 59 54  1  0  0  0
 39 34  1  0  0  0
 21 13  1  0  0  0
 20 15  1  0  0  0
 65 68  1  0  0  0
 65 69  1  0  0  0
 67 70  1  0  0  0
 63 64  1  0  0  0
 41 44  1  0  0  0
  3  4  1  0  0  0
  8  9  1  0  0  0
 25 26  1  0  0  0
 28 30  1  0  0  0
 28 31  1  0  0  0
 29 32  1  0  0  0
M  END
> <minimizedAffinity>
17.66403

> <CNNscore>
0.4144830406

> <CNNaffinity>
7.3448400497

> <CNN_VS>
3.0443115234

> <CNNaffinity_variance>
0.5681233406

$$$$
[H]N=C(N([H])[H])N([H])C([H])([H])C([H])([H])C([H])([H])[C@@]([H])(C(=O)c1nc2c([H])c([H])c([H])c([H])c2s1)N([H])C(=O)[C@@]([H])(N([H])C(=O)[C@@]([H])(N([H])C(=O)[C@@]1([H])N(C(=O)OC([H])([H])c2c([H])c([H])c([H])c([H])c2[H])C([H])([H])C([H])([H])C1([H])[H])C([H])([H])C([H])([H])C([H])([H])N([H])C(=N[H])N([H])[H])C([H])([H])c1c([H])c([H])c([H])c([H])c1[H]


 70 74  0  0  0  0  0  0  0  0999 V2000
   27.2540    9.7188   56.8309 C   0  0  0  0  0  0  0  0  0  0  0  0
   26.9413   10.9092   56.9258 O   0  0  0  0  0  0  0  0  0  0  0  0
   28.1866    9.1494   57.7290 N   0  0  0  0  0  0  0  0  0  0  0  0
   28.4194    8.1376   57.6215 H   0  0  0  0  0  0  0  0  0  0  0  0
   28.7905    9.9897   58.7658 C   0  0  0  0  0  0  0  0  0  0  0  0
   29.5757    9.1781   59.7707 C   0  0  0  0  0  0  0  0  0  0  0  0
   29.4394    7.9491   59.6270 O   0  0  0  0  0  0  0  0  0  0  0  0
   30.3423    9.8153   60.7234 N   0  0  0  0  0  0  0  0  0  0  0  0
   30.8828    8.6096   61.1193 H   0  0  0  0  0  0  0  0  0  0  0  0
   31.1108   10.4212   61.6803 C   0  0  0  0  0  0  0  0  0  0  0  0
   32.1221   11.3208   61.0388 C   0  0  0  0  0  0  0  0  0  0  0  0
   32.9332   10.8242   60.1833 O   0  0  0  0  0  0  0  0  0  0  0  0
   32.2465   12.7395   61.3183 C   0  0  0  0  0  0  0  0  0  0  0  0
   31.9671   13.7854   60.5724 N   0  0  0  0  0  0  0  0  0  0  0  0
   32.1627   14.9882   61.0087 C   0  0  0  0  0  0  0  0  0  0  0  0
   31.9114   16.1816   60.3111 C   0  0  0  0  0  0  0  0  0  0  0  0
   32.1573   17.3952   60.8619 C   0  0  0  0  0  0  0  0  0  0  0  0
   32.6617   17.5398   62.1250 C   0  0  0  0  0  0  0  0  0  0  0  0
   32.9210   16.3984   62.8384 C   0  0  0  0  0  0  0  0  0  0  0  0
   32.6705   15.1375   62.2765 C   0  0  0  0  0  0  0  0  0  0  0  0
   32.8310   13.4863   62.7550 S   0  0  0  0  0  0  0  0  0  0  0  0
   31.7833    9.6464   62.7733 C   0  0  0  0  0  0  0  0  0  0  0  0
   32.2413    8.2817   62.5159 C   0  0  0  0  0  0  0  0  0  0  0  0
   31.4047    7.1006   62.8487 C   0  0  0  0  0  0  0  0  0  0  0  0
   30.0058    7.2850   62.4252 N   0  0  0  0  0  0  0  0  0  0  0  0
   29.6617    8.2265   62.2440 H   0  0  0  0  0  0  0  0  0  0  0  0
   29.2021    6.1380   62.2984 C   0  0  0  0  0  0  0  0  0  0  0  0
   28.5952    5.4667   63.3937 N   0  0  0  0  0  0  0  0  0  0  0  0
   28.9445    5.6128   61.1239 N   0  0  0  0  0  0  0  0  0  0  0  0
   27.7439    5.8236   63.8843 H   0  0  0  0  0  0  0  0  0  0  0  0
   29.0088    4.5815   63.7219 H   0  0  0  0  0  0  0  0  0  0  0  0
   29.3595    6.0831   60.3083 H   0  0  0  0  0  0  0  0  0  0  0  0
   27.6575   10.7107   59.4303 C   0  0  0  0  0  0  0  0  0  0  0  0
   28.0256   11.8369   60.2897 C   0  0  0  0  0  0  0  0  0  0  0  0
   27.9579   11.7904   61.6758 C   0  0  0  0  0  0  0  0  0  0  0  0
   28.3048   12.9243   62.3685 C   0  0  0  0  0  0  0  0  0  0  0  0
   28.7088   14.0927   61.7910 C   0  0  0  0  0  0  0  0  0  0  0  0
   28.7860   14.1666   60.3822 C   0  0  0  0  0  0  0  0  0  0  0  0
   28.4366   13.0276   59.7136 C   0  0  0  0  0  0  0  0  0  0  0  0
   26.6463    8.8595   55.7500 C   0  0  0  0  0  0  0  0  0  0  0  0
   25.4876    9.5225   55.2176 N   0  0  0  0  0  0  0  0  0  0  0  0
   24.4077    8.8632   54.5377 C   0  0  0  0  0  0  0  0  0  0  0  0
   24.4745    7.6334   54.3912 O   0  0  0  0  0  0  0  0  0  0  0  0
   25.4398   10.5379   55.3343 H   0  0  0  0  0  0  0  0  0  0  0  0
   23.3137    9.6809   54.0714 C   0  0  0  0  0  0  0  0  0  0  0  0
   22.4312   10.1651   55.2304 C   0  0  0  0  0  0  0  0  0  0  0  0
   21.0258   10.1683   54.6974 C   0  0  0  0  0  0  0  0  0  0  0  0
   21.2934   10.2465   53.2046 C   0  0  0  0  0  0  0  0  0  0  0  0
   22.3999    9.2153   53.1059 N   0  0  0  0  0  0  0  0  0  0  0  0
   22.2727    8.1848   52.1789 C   0  0  0  0  0  0  0  0  0  0  0  0
   21.1742    8.1221   51.4990 O   0  0  0  0  0  0  0  0  0  0  0  0
   23.1654    7.2101   51.8814 O   0  0  0  0  0  0  0  0  0  0  0  0
   23.1199    5.9026   52.4616 C   0  0  0  0  0  0  0  0  0  0  0  0
   22.7101    5.9615   53.8858 C   0  0  0  0  0  0  0  0  0  0  0  0
   23.4025    5.3474   54.8849 C   0  0  0  0  0  0  0  0  0  0  0  0
   22.9849    5.4277   56.2128 C   0  0  0  0  0  0  0  0  0  0  0  0
   21.8567    6.1255   56.5846 C   0  0  0  0  0  0  0  0  0  0  0  0
   21.1428    6.7570   55.5608 C   0  0  0  0  0  0  0  0  0  0  0  0
   21.5635    6.6730   54.2582 C   0  0  0  0  0  0  0  0  0  0  0  0
   27.7124    8.6960   54.7254 C   0  0  0  0  0  0  0  0  0  0  0  0
   27.3752    8.6216   53.2980 C   0  0  0  0  0  0  0  0  0  0  0  0
   28.2345    9.3751   52.3479 C   0  0  0  0  0  0  0  0  0  0  0  0
   27.4369    9.6601   51.1374 N   0  0  0  0  0  0  0  0  0  0  0  0
   26.3803    9.7302   51.2326 H   0  0  0  0  0  0  0  0  0  0  0  0
   28.6094    8.7455   49.1943 N   0  0  0  0  0  0  0  0  0  0  0  0
   28.0878    9.8232   49.9133 C   0  0  0  0  0  0  0  0  0  0  0  0
   28.2077   11.0261   49.4157 N   0  0  0  0  0  0  0  0  0  0  0  0
   29.1584    7.9987   49.6898 H   0  0  0  0  0  0  0  0  0  0  0  0
   28.4818    8.6330   48.1494 H   0  0  0  0  0  0  0  0  0  0  0  0
   27.8196   11.8539   49.9439 H   0  0  0  0  0  0  0  0  0  0  0  0
 65 66  1  0  0  0
 66 67  2  0  0  0
 66 63  1  0  0  0
 63 62  1  0  0  0
 62 61  1  0  0  0
 61 60  1  0  0  0
 60 40  1  0  0  0
 40 41  1  0  0  0
 41 42  1  0  0  0
 42 43  2  0  0  0
 42 45  1  0  0  0
 45 46  1  0  0  0
 46 47  1  0  0  0
 47 48  1  0  0  0
 48 49  1  0  0  0
 49 50  1  0  0  0
 50 51  2  0  0  0
 50 52  1  0  0  0
 52 53  1  0  0  0
 53 54  1  0  0  0
 54 55  2  0  0  0
 55 56  1  0  0  0
 56 57  2  0  0  0
 57 58  1  0  0  0
 58 59  2  0  0  0
 40  1  1  0  0  0
  1  2  2  0  0  0
  1  3  1  0  0  0
  3  5  1  0  0  0
  5 33  1  0  0  0
 33 34  1  0  0  0
 34 35  2  0  0  0
 35 36  1  0  0  0
 36 37  2  0  0  0
 37 38  1  0  0  0
 38 39  2  0  0  0
  5  6  1  0  0  0
  6  7  2  0  0  0
  6  8  1  0  0  0
  8 10  1  0  0  0
 10 22  1  0  0  0
 22 23  1  0  0  0
 23 24  1  0  0  0
 24 25  1  0  0  0
 25 27  1  0  0  0
 27 28  1  0  0  0
 27 29  2  0  0  0
 10 11  1  0  0  0
 11 12  2  0  0  0
 11 13  1  0  0  0
 13 14  2  0  0  0
 14 15  1  0  0  0
 15 16  2  0  0  0
 16 17  1  0  0  0
 17 18  2  0  0  0
 18 19  1  0  0  0
 19 20  2  0  0  0
 20 21  1  0  0  0
 49 45  1  0  0  0
 59 54  1  0  0  0
 39 34  1  0  0  0
 21 13  1  0  0  0
 20 15  1  0  0  0
 65 68  1  0  0  0
 65 69  1  0  0  0
 67 70  1  0  0  0
 63 64  1  0  0  0
 41 44  1  0  0  0
  3  4  1  0  0  0
  8  9  1  0  0  0
 25 26  1  0  0  0
 28 30  1  0  0  0
 28 31  1  0  0  0
 29 32  1  0  0  0
M  END
> <minimizedAffinity>
12.62528

> <CNNscore>
0.4046579003

> <CNNaffinity>
7.3308243752

> <CNN_VS>
2.9664759636

> <CNNaffinity_variance>
1.3364210129

$$$$
[H]N=C(N([H])[H])N([H])C([H])([H])C([H])([H])C([H])([H])[C@@]([H])(C(=O)c1nc2c([H])c([H])c([H])c([H])c2s1)N([H])C(=O)[C@@]([H])(N([H])C(=O)[C@@]([H])(N([H])C(=O)[C@@]1([H])N(C(=O)OC([H])([H])c2c([H])c([H])c([H])c([H])c2[H])C([H])([H])C([H])([H])C1([H])[H])C([H])([H])C([H])([H])C([H])([H])N([H])C(=N[H])N([H])[H])C([H])([H])c1c([H])c([H])c([H])c([H])c1[H]


 70 74  0  0  0  0  0  0  0  0999 V2000
   29.4934    8.6178   59.2815 C   0  0  0  0  0  0  0  0  0  0  0  0
   29.4609    7.5624   58.6419 O   0  0  0  0  0  0  0  0  0  0  0  0
   28.8937    9.7889   58.7621 N   0  0  0  0  0  0  0  0  0  0  0  0
   28.9352   10.6597   59.3361 H   0  0  0  0  0  0  0  0  0  0  0  0
   28.2452    9.7421   57.4495 C   0  0  0  0  0  0  0  0  0  0  0  0
   26.7973    9.3180   57.5447 C   0  0  0  0  0  0  0  0  0  0  0  0
   26.3730    9.2697   58.7141 O   0  0  0  0  0  0  0  0  0  0  0  0
   26.0870    9.0280   56.3989 N   0  0  0  0  0  0  0  0  0  0  0  0
   24.9194    8.9314   57.1268 H   0  0  0  0  0  0  0  0  0  0  0  0
   25.3583    8.7336   55.2784 C   0  0  0  0  0  0  0  0  0  0  0  0
   23.9738    9.2922   55.3998 C   0  0  0  0  0  0  0  0  0  0  0  0
   23.6984   10.0440   56.3974 O   0  0  0  0  0  0  0  0  0  0  0  0
   22.9066    9.0425   54.4486 C   0  0  0  0  0  0  0  0  0  0  0  0
   21.7508    8.4347   54.6007 N   0  0  0  0  0  0  0  0  0  0  0  0
   20.9296    8.3034   53.6088 C   0  0  0  0  0  0  0  0  0  0  0  0
   19.6744    7.6732   53.6406 C   0  0  0  0  0  0  0  0  0  0  0  0
   18.8914    7.5864   52.5378 C   0  0  0  0  0  0  0  0  0  0  0  0
   19.2666    8.1035   51.3284 C   0  0  0  0  0  0  0  0  0  0  0  0
   20.4855    8.7264   51.2560 C   0  0  0  0  0  0  0  0  0  0  0  0
   21.3034    8.8205   52.3921 C   0  0  0  0  0  0  0  0  0  0  0  0
   22.8529    9.4743   52.7831 S   0  0  0  0  0  0  0  0  0  0  0  0
   25.2674    7.3424   54.7274 C   0  0  0  0  0  0  0  0  0  0  0  0
   24.8848    7.1416   53.3304 C   0  0  0  0  0  0  0  0  0  0  0  0
   24.3110    5.8573   52.8539 C   0  0  0  0  0  0  0  0  0  0  0  0
   22.8511    5.9436   52.6764 N   0  0  0  0  0  0  0  0  0  0  0  0
   22.4780    6.3319   51.8117 H   0  0  0  0  0  0  0  0  0  0  0  0
   22.0344    5.4872   53.7263 C   0  0  0  0  0  0  0  0  0  0  0  0
   20.8308    4.7562   53.5379 N   0  0  0  0  0  0  0  0  0  0  0  0
   22.3534    5.7023   54.9808 N   0  0  0  0  0  0  0  0  0  0  0  0
   20.8096    3.7426   53.2833 H   0  0  0  0  0  0  0  0  0  0  0  0
   19.9313    5.2442   53.6613 H   0  0  0  0  0  0  0  0  0  0  0  0
   23.2267    6.2188   55.1516 H   0  0  0  0  0  0  0  0  0  0  0  0
   29.0340    8.7675   56.6293 C   0  0  0  0  0  0  0  0  0  0  0  0
   28.6546    8.6551   55.2201 C   0  0  0  0  0  0  0  0  0  0  0  0
   28.2981    9.7460   54.4386 C   0  0  0  0  0  0  0  0  0  0  0  0
   27.9352    9.5047   53.1363 C   0  0  0  0  0  0  0  0  0  0  0  0
   27.8982    8.2695   52.5576 C   0  0  0  0  0  0  0  0  0  0  0  0
   28.2560    7.1427   53.3312 C   0  0  0  0  0  0  0  0  0  0  0  0
   28.6135    7.4058   54.6232 C   0  0  0  0  0  0  0  0  0  0  0  0
   30.1793    8.6694   60.6242 C   0  0  0  0  0  0  0  0  0  0  0  0
   29.4497    9.5532   61.4916 N   0  0  0  0  0  0  0  0  0  0  0  0
   29.7174   10.9562   61.6431 C   0  0  0  0  0  0  0  0  0  0  0  0
   30.6466   11.4475   60.9847 O   0  0  0  0  0  0  0  0  0  0  0  0
   28.6885    9.1424   62.0382 H   0  0  0  0  0  0  0  0  0  0  0  0
   28.8815   11.7011   62.5539 C   0  0  0  0  0  0  0  0  0  0  0  0
   27.4242   11.2205   62.5108 C   0  0  0  0  0  0  0  0  0  0  0  0
   26.5840   12.4530   62.6956 C   0  0  0  0  0  0  0  0  0  0  0  0
   27.5838   13.3735   63.3735 C   0  0  0  0  0  0  0  0  0  0  0  0
   28.7894   13.1053   62.4948 N   0  0  0  0  0  0  0  0  0  0  0  0
   29.4524   14.1865   61.9212 C   0  0  0  0  0  0  0  0  0  0  0  0
   28.9545   15.3649   62.1120 O   0  0  0  0  0  0  0  0  0  0  0  0
   30.5792   14.1756   61.1693 O   0  0  0  0  0  0  0  0  0  0  0  0
   31.6634   15.0881   61.3695 C   0  0  0  0  0  0  0  0  0  0  0  0
   31.6685   16.1507   60.3349 C   0  0  0  0  0  0  0  0  0  0  0  0
   30.5336   16.6257   59.7510 C   0  0  0  0  0  0  0  0  0  0  0  0
   30.5805   17.6272   58.7820 C   0  0  0  0  0  0  0  0  0  0  0  0
   31.7681   18.1861   58.3635 C   0  0  0  0  0  0  0  0  0  0  0  0
   32.9359   17.7001   58.9608 C   0  0  0  0  0  0  0  0  0  0  0  0
   32.8781   16.7160   59.9142 C   0  0  0  0  0  0  0  0  0  0  0  0
   30.1751    7.2693   61.1270 C   0  0  0  0  0  0  0  0  0  0  0  0
   28.9989    6.4097   60.9413 C   0  0  0  0  0  0  0  0  0  0  0  0
   28.5038    5.6565   62.1230 C   0  0  0  0  0  0  0  0  0  0  0  0
   27.6570    4.5480   61.6366 N   0  0  0  0  0  0  0  0  0  0  0  0
   27.1085    4.6876   60.7367 H   0  0  0  0  0  0  0  0  0  0  0  0
   26.3903    2.7356   62.6844 N   0  0  0  0  0  0  0  0  0  0  0  0
   27.5985    3.3610   62.3690 C   0  0  0  0  0  0  0  0  0  0  0  0
   28.7140    2.8083   62.7683 N   0  0  0  0  0  0  0  0  0  0  0  0
   25.5792    3.3046   63.0353 H   0  0  0  0  0  0  0  0  0  0  0  0
   26.2384    1.6923   62.5893 H   0  0  0  0  0  0  0  0  0  0  0  0
   29.6378    3.2653   62.5395 H   0  0  0  0  0  0  0  0  0  0  0  0
 65 66  1  0  0  0
 66 67  2  0  0  0
 66 63  1  0  0  0
 63 62  1  0  0  0
 62 61  1  0  0  0
 61 60  1  0  0  0
 60 40  1  0  0  0
 40 41  1  0  0  0
 41 42  1  0  0  0
 42 43  2  0  0  0
 42 45  1  0  0  0
 45 46  1  0  0  0
 46 47  1  0  0  0
 47 48  1  0  0  0
 48 49  1  0  0  0
 49 50  1  0  0  0
 50 51  2  0  0  0
 50 52  1  0  0  0
 52 53  1  0  0  0
 53 54  1  0  0  0
 54 55  2  0  0  0
 55 56  1  0  0  0
 56 57  2  0  0  0
 57 58  1  0  0  0
 58 59  2  0  0  0
 40  1  1  0  0  0
  1  2  2  0  0  0
  1  3  1  0  0  0
  3  5  1  0  0  0
  5 33  1  0  0  0
 33 34  1  0  0  0
 34 35  2  0  0  0
 35 36  1  0  0  0
 36 37  2  0  0  0
 37 38  1  0  0  0
 38 39  2  0  0  0
  5  6  1  0  0  0
  6  7  2  0  0  0
  6  8  1  0  0  0
  8 10  1  0  0  0
 10 22  1  0  0  0
 22 23  1  0  0  0
 23 24  1  0  0  0
 24 25  1  0  0  0
 25 27  1  0  0  0
 27 28  1  0  0  0
 27 29  2  0  0  0
 10 11  1  0  0  0
 11 12  2  0  0  0
 11 13  1  0  0  0
 13 14  2  0  0  0
 14 15  1  0  0  0
 15 16  2  0  0  0
 16 17  1  0  0  0
 17 18  2  0  0  0
 18 19  1  0  0  0
 19 20  2  0  0  0
 20 21  1  0  0  0
 49 45  1  0  0  0
 59 54  1  0  0  0
 39 34  1  0  0  0
 21 13  1  0  0  0
 20 15  1  0  0  0
 65 68  1  0  0  0
 65 69  1  0  0  0
 67 70  1  0  0  0
 63 64  1  0  0  0
 41 44  1  0  0  0
  3  4  1  0  0  0
  8  9  1  0  0  0
 25 26  1  0  0  0
 28 30  1  0  0  0
 28 31  1  0  0  0
 29 32  1  0  0  0
M  END
> <minimizedAffinity>
19.64983

> <CNNscore>
0.3979062438

> <CNNaffinity>
7.1854248047

> <CNN_VS>
2.8591253757

> <CNNaffinity_variance>
1.8607413769

$$$$
[H]c1c([H])c(C(=O)N([H])[H])c([H])c(-c2c([H])c([H])c([H])c([H])c2N([H])S(=O)(=O)c2c([H])c([H])c(OC([H])([H])[H])c([H])c2[H])c1[H]


 30 32  0  0  0  0  0  0  0  0999 V2000
   25.7852    8.1773   54.0232 C   0  0  0  0  0  0  0  0  0  0  0  0
   27.1078    7.9007   54.2134 C   0  0  0  0  0  0  0  0  0  0  0  0
   27.7798    8.4744   55.2918 C   0  0  0  0  0  0  0  0  0  0  0  0
   27.1026    9.3092   56.1461 C   0  0  0  0  0  0  0  0  0  0  0  0
   25.7661    9.5767   55.9360 C   0  0  0  0  0  0  0  0  0  0  0  0
   25.0822    9.0285   54.8882 C   0  0  0  0  0  0  0  0  0  0  0  0
   23.6640    9.3418   54.7071 C   0  0  0  0  0  0  0  0  0  0  0  0
   22.9155    9.8227   55.7761 C   0  0  0  0  0  0  0  0  0  0  0  0
   21.5877   10.1140   55.6346 C   0  0  0  0  0  0  0  0  0  0  0  0
   20.9386    9.9374   54.4083 C   0  0  0  0  0  0  0  0  0  0  0  0
   21.6604    9.4622   53.3363 C   0  0  0  0  0  0  0  0  0  0  0  0
   23.0036    9.1768   53.5136 C   0  0  0  0  0  0  0  0  0  0  0  0
   21.0080    9.2659   52.0356 C   0  0  0  0  0  0  0  0  0  0  0  0
   20.4445    8.0062   51.7020 N   0  0  0  0  0  0  0  0  0  0  0  0
   20.9261   10.1796   51.1924 O   0  0  0  0  0  0  0  0  0  0  0  0
   21.0761    7.1782   51.7266 H   0  0  0  0  0  0  0  0  0  0  0  0
   19.4525    7.8430   51.4352 H   0  0  0  0  0  0  0  0  0  0  0  0
   25.0577    7.6588   52.9484 N   0  0  0  0  0  0  0  0  0  0  0  0
   25.2054    8.1517   52.0070 H   0  0  0  0  0  0  0  0  0  0  0  0
   23.9645    6.3497   52.9100 S   0  0  0  0  0  0  0  0  0  0  0  0
   24.6404    5.0733   52.4571 O   0  0  0  0  0  0  0  0  0  0  0  0
   22.8483    6.6239   51.9110 O   0  0  0  0  0  0  0  0  0  0  0  0
   22.0581    5.4498   56.8856 C   0  0  0  0  0  0  0  0  0  0  0  0
   23.2351    4.8204   56.5504 C   0  0  0  0  0  0  0  0  0  0  0  0
   23.8154    5.1054   55.3202 C   0  0  0  0  0  0  0  0  0  0  0  0
   23.2373    5.9976   54.4423 C   0  0  0  0  0  0  0  0  0  0  0  0
   22.0595    6.6179   54.7953 C   0  0  0  0  0  0  0  0  0  0  0  0
   21.4958    6.3351   56.0009 C   0  0  0  0  0  0  0  0  0  0  0  0
   22.2883    4.7124   59.1686 C   0  0  0  0  0  0  0  0  0  0  0  0
   21.4617    5.1694   58.1277 O   0  0  0  0  0  0  0  0  0  0  0  0
 29 30  1  0  0  0
 30 23  1  0  0  0
 23 24  2  0  0  0
 24 25  1  0  0  0
 25 26  2  0  0  0
 26 27  1  0  0  0
 27 28  2  0  0  0
 26 20  1  0  0  0
 20 21  2  0  0  0
 20 22  2  0  0  0
 20 18  1  0  0  0
 18  1  1  0  0  0
  1  2  2  0  0  0
  2  3  1  0  0  0
  3  4  2  0  0  0
  4  5  1  0  0  0
  5  6  2  0  0  0
  6  7  1  0  0  0
  7  8  2  0  0  0
  8  9  1  0  0  0
  9 10  2  0  0  0
 10 11  1  0  0  0
 11 12  2  0  0  0
 11 13  1  0  0  0
 13 14  1  0  0  0
 13 15  2  0  0  0
 28 23  1  0  0  0
  6  1  1  0  0  0
 12  7  1  0  0  0
 18 19  1  0  0  0
 14 16  1  0  0  0
 14 17  1  0  0  0
M  END
> <minimizedAffinity>
15.70081

> <CNNscore>
0.6464567780

> <CNNaffinity>
6.4635581970

> <CNN_VS>
4.1784110069

> <CNNaffinity_variance>
0.5705243349

$$$$
[H]c1c([H])c(C(=O)N([H])[H])c([H])c(-c2c([H])c([H])c([H])c([H])c2N([H])S(=O)(=O)c2c([H])c([H])c(OC([H])([H])[H])c([H])c2[H])c1[H]


 30 32  0  0  0  0  0  0  0  0999 V2000
   23.5867    7.2667   53.7452 C   0  0  0  0  0  0  0  0  0  0  0  0
   23.8914    5.9370   53.7129 C   0  0  0  0  0  0  0  0  0  0  0  0
   22.8632    5.0004   53.6158 C   0  0  0  0  0  0  0  0  0  0  0  0
   21.5599    5.4284   53.5548 C   0  0  0  0  0  0  0  0  0  0  0  0
   21.2730    6.7769   53.5896 C   0  0  0  0  0  0  0  0  0  0  0  0
   22.2598    7.7168   53.6840 C   0  0  0  0  0  0  0  0  0  0  0  0
   21.9056    9.1365   53.7169 C   0  0  0  0  0  0  0  0  0  0  0  0
   21.5777    9.7441   54.9243 C   0  0  0  0  0  0  0  0  0  0  0  0
   21.2348   11.0660   54.9799 C   0  0  0  0  0  0  0  0  0  0  0  0
   21.2028   11.8507   53.8225 C   0  0  0  0  0  0  0  0  0  0  0  0
   21.5235   11.2696   52.6161 C   0  0  0  0  0  0  0  0  0  0  0  0
   21.8663    9.9283   52.5947 C   0  0  0  0  0  0  0  0  0  0  0  0
   21.4993   12.0665   51.3830 C   0  0  0  0  0  0  0  0  0  0  0  0
   21.9570   13.4104   51.3920 N   0  0  0  0  0  0  0  0  0  0  0  0
   21.0841   11.6023   50.3038 O   0  0  0  0  0  0  0  0  0  0  0  0
   21.4954   14.0684   52.0547 H   0  0  0  0  0  0  0  0  0  0  0  0
   22.7156   13.7912   50.7908 H   0  0  0  0  0  0  0  0  0  0  0  0
   24.5648    8.2573   53.8689 N   0  0  0  0  0  0  0  0  0  0  0  0
   24.1993    9.2617   53.9612 H   0  0  0  0  0  0  0  0  0  0  0  0
   26.2639    8.1059   53.8970 S   0  0  0  0  0  0  0  0  0  0  0  0
   26.8975    8.7196   52.6669 O   0  0  0  0  0  0  0  0  0  0  0  0
   26.6624    6.6361   53.8991 O   0  0  0  0  0  0  0  0  0  0  0  0
   28.2317   10.0818   57.4286 C   0  0  0  0  0  0  0  0  0  0  0  0
   26.8993    9.7462   57.5064 C   0  0  0  0  0  0  0  0  0  0  0  0
   26.3014    9.1365   56.4100 C   0  0  0  0  0  0  0  0  0  0  0  0
   27.0136    8.8661   55.2609 C   0  0  0  0  0  0  0  0  0  0  0  0
   28.3461    9.2092   55.2017 C   0  0  0  0  0  0  0  0  0  0  0  0
   28.9264    9.8059   56.2780 C   0  0  0  0  0  0  0  0  0  0  0  0
   29.0413    9.9327   59.6938 C   0  0  0  0  0  0  0  0  0  0  0  0
   28.8475   10.6992   58.5317 O   0  0  0  0  0  0  0  0  0  0  0  0
 29 30  1  0  0  0
 30 23  1  0  0  0
 23 24  2  0  0  0
 24 25  1  0  0  0
 25 26  2  0  0  0
 26 27  1  0  0  0
 27 28  2  0  0  0
 26 20  1  0  0  0
 20 21  2  0  0  0
 20 22  2  0  0  0
 20 18  1  0  0  0
 18  1  1  0  0  0
  1  2  2  0  0  0
  2  3  1  0  0  0
  3  4  2  0  0  0
  4  5  1  0  0  0
  5  6  2  0  0  0
  6  7  1  0  0  0
  7  8  2  0  0  0
  8  9  1  0  0  0
  9 10  2  0  0  0
 10 11  1  0  0  0
 11 12  2  0  0  0
 11 13  1  0  0  0
 13 14  1  0  0  0
 13 15  2  0  0  0
 28 23  1  0  0  0
  6  1  1  0  0  0
 12  7  1  0  0  0
 18 19  1  0  0  0
 14 16  1  0  0  0
 14 17  1  0  0  0
M  END
> <minimizedAffinity>
10.23944

> <CNNscore>
0.6336716413

> <CNNaffinity>
5.9134964943

> <CNN_VS>
3.7472150326

> <CNNaffinity_variance>
0.2323498279

$$$$
[H]c1c([H])c(C(=O)N([H])[H])c([H])c(-c2c([H])c([H])c([H])c([H])c2N([H])S(=O)(=O)c2c([H])c([H])c(OC([H])([H])[H])c([H])c2[H])c1[H]


 30 32  0  0  0  0  0  0  0  0999 V2000
   23.4689    6.2550   54.5580 C   0  0  0  0  0  0  0  0  0  0  0  0
   23.8694    5.4394   55.5761 C   0  0  0  0  0  0  0  0  0  0  0  0
   22.9993    5.1882   56.6359 C   0  0  0  0  0  0  0  0  0  0  0  0
   21.7531    5.7649   56.6411 C   0  0  0  0  0  0  0  0  0  0  0  0
   21.3676    6.5868   55.6030 C   0  0  0  0  0  0  0  0  0  0  0  0
   22.1990    6.8502   54.5516 C   0  0  0  0  0  0  0  0  0  0  0  0
   21.7445    7.7287   53.4727 C   0  0  0  0  0  0  0  0  0  0  0  0
   21.2039    7.1839   52.3128 C   0  0  0  0  0  0  0  0  0  0  0  0
   20.7807    7.9826   51.2876 C   0  0  0  0  0  0  0  0  0  0  0  0
   20.8782    9.3753   51.3728 C   0  0  0  0  0  0  0  0  0  0  0  0
   21.4105    9.9363   52.5120 C   0  0  0  0  0  0  0  0  0  0  0  0
   21.8297    9.0987   53.5318 C   0  0  0  0  0  0  0  0  0  0  0  0
   21.5263   11.3951   52.6321 C   0  0  0  0  0  0  0  0  0  0  0  0
   21.6472   12.2001   51.4689 N   0  0  0  0  0  0  0  0  0  0  0  0
   21.5230   11.9699   53.7375 O   0  0  0  0  0  0  0  0  0  0  0  0
   22.4422   11.9968   50.8271 H   0  0  0  0  0  0  0  0  0  0  0  0
   21.0066   12.9762   51.2055 H   0  0  0  0  0  0  0  0  0  0  0  0
   24.2994    6.5709   53.4793 N   0  0  0  0  0  0  0  0  0  0  0  0
   24.3881    5.8138   52.7244 H   0  0  0  0  0  0  0  0  0  0  0  0
   25.1973    7.9907   53.1817 S   0  0  0  0  0  0  0  0  0  0  0  0
   24.2976    9.1514   52.8149 O   0  0  0  0  0  0  0  0  0  0  0  0
   26.1359    7.7832   52.0006 O   0  0  0  0  0  0  0  0  0  0  0  0
   27.6389    9.3649   56.7030 C   0  0  0  0  0  0  0  0  0  0  0  0
   28.2860    8.9044   55.5791 C   0  0  0  0  0  0  0  0  0  0  0  0
   27.5224    8.4824   54.4974 C   0  0  0  0  0  0  0  0  0  0  0  0
   26.1447    8.5178   54.5327 C   0  0  0  0  0  0  0  0  0  0  0  0
   25.5148    8.9819   55.6660 C   0  0  0  0  0  0  0  0  0  0  0  0
   26.2672    9.3939   56.7221 C   0  0  0  0  0  0  0  0  0  0  0  0
   28.4038    8.9925   58.9579 C   0  0  0  0  0  0  0  0  0  0  0  0
   28.4009    9.7946   57.8038 O   0  0  0  0  0  0  0  0  0  0  0  0
 29 30  1  0  0  0
 30 23  1  0  0  0
 23 24  2  0  0  0
 24 25  1  0  0  0
 25 26  2  0  0  0
 26 27  1  0  0  0
 27 28  2  0  0  0
 26 20  1  0  0  0
 20 21  2  0  0  0
 20 22  2  0  0  0
 20 18  1  0  0  0
 18  1  1  0  0  0
  1  2  2  0  0  0
  2  3  1  0  0  0
  3  4  2  0  0  0
  4  5  1  0  0  0
  5  6  2  0  0  0
  6  7  1  0  0  0
  7  8  2  0  0  0
  8  9  1  0  0  0
  9 10  2  0  0  0
 10 11  1  0  0  0
 11 12  2  0  0  0
 11 13  1  0  0  0
 13 14  1  0  0  0
 13 15  2  0  0  0
 28 23  1  0  0  0
  6  1  1  0  0  0
 12  7  1  0  0  0
 18 19  1  0  0  0
 14 16  1  0  0  0
 14 17  1  0  0  0
M  END
> <minimizedAffinity>
13.26207

> <CNNscore>
0.6258201003

> <CNNaffinity>
5.8266549110

> <CNN_VS>
3.6464376450

> <CNNaffinity_variance>
0.1913221776

$$$$
[H]c1c([H])c(C(=O)N([H])[H])c([H])c(-c2c([H])c([H])c([H])c([H])c2N([H])S(=O)(=O)c2c([H])c([H])c(OC([H])([H])[H])c([H])c2[H])c1[H]


 30 32  0  0  0  0  0  0  0  0999 V2000
   26.0419    8.8600   55.1713 C   0  0  0  0  0  0  0  0  0  0  0  0
   25.6843    8.4625   53.9159 C   0  0  0  0  0  0  0  0  0  0  0  0
   26.6763    8.1639   52.9829 C   0  0  0  0  0  0  0  0  0  0  0  0
   27.9977    8.2746   53.3396 C   0  0  0  0  0  0  0  0  0  0  0  0
   28.3382    8.6787   54.6134 C   0  0  0  0  0  0  0  0  0  0  0  0
   27.3877    8.9773   55.5480 C   0  0  0  0  0  0  0  0  0  0  0  0
   27.7985    9.4014   56.8873 C   0  0  0  0  0  0  0  0  0  0  0  0
   28.0931    8.4505   57.8586 C   0  0  0  0  0  0  0  0  0  0  0  0
   28.4701    8.8212   59.1189 C   0  0  0  0  0  0  0  0  0  0  0  0
   28.5717   10.1707   59.4723 C   0  0  0  0  0  0  0  0  0  0  0  0
   28.2844   11.1292   58.5264 C   0  0  0  0  0  0  0  0  0  0  0  0
   27.9054   10.7198   57.2591 C   0  0  0  0  0  0  0  0  0  0  0  0
   28.3817   12.5544   58.8661 C   0  0  0  0  0  0  0  0  0  0  0  0
   29.1008   12.9664   60.0188 N   0  0  0  0  0  0  0  0  0  0  0  0
   27.8471   13.4382   58.1692 O   0  0  0  0  0  0  0  0  0  0  0  0
   28.8027   12.5707   60.9352 H   0  0  0  0  0  0  0  0  0  0  0  0
   29.9010   13.6310   60.0225 H   0  0  0  0  0  0  0  0  0  0  0  0
   25.1005    9.2007   56.1465 N   0  0  0  0  0  0  0  0  0  0  0  0
   25.4296    9.1043   57.1631 H   0  0  0  0  0  0  0  0  0  0  0  0
   23.4969    9.7521   55.9599 S   0  0  0  0  0  0  0  0  0  0  0  0
   23.4479   11.2417   55.6958 O   0  0  0  0  0  0  0  0  0  0  0  0
   22.7055    9.5151   57.2393 O   0  0  0  0  0  0  0  0  0  0  0  0
   21.2750    7.8152   52.5598 C   0  0  0  0  0  0  0  0  0  0  0  0
   21.8337    7.0191   53.5335 C   0  0  0  0  0  0  0  0  0  0  0  0
   22.5178    7.6275   54.5791 C   0  0  0  0  0  0  0  0  0  0  0  0
   22.6433    8.9984   54.6546 C   0  0  0  0  0  0  0  0  0  0  0  0
   22.0774    9.7787   53.6709 C   0  0  0  0  0  0  0  0  0  0  0  0
   21.4088    9.1778   52.6496 C   0  0  0  0  0  0  0  0  0  0  0  0
   19.7942    8.0323   50.6707 C   0  0  0  0  0  0  0  0  0  0  0  0
   20.5804    7.2109   51.4970 O   0  0  0  0  0  0  0  0  0  0  0  0
 29 30  1  0  0  0
 30 23  1  0  0  0
 23 24  2  0  0  0
 24 25  1  0  0  0
 25 26  2  0  0  0
 26 27  1  0  0  0
 27 28  2  0  0  0
 26 20  1  0  0  0
 20 21  2  0  0  0
 20 22  2  0  0  0
 20 18  1  0  0  0
 18  1  1  0  0  0
  1  2  2  0  0  0
  2  3  1  0  0  0
  3  4  2  0  0  0
  4  5  1  0  0  0
  5  6  2  0  0  0
  6  7  1  0  0  0
  7  8  2  0  0  0
  8  9  1  0  0  0
  9 10  2  0  0  0
 10 11  1  0  0  0
 11 12  2  0  0  0
 11 13  1  0  0  0
 13 14  1  0  0  0
 13 15  2  0  0  0
 28 23  1  0  0  0
  6  1  1  0  0  0
 12  7  1  0  0  0
 18 19  1  0  0  0
 14 16  1  0  0  0
 14 17  1  0  0  0
M  END
> <minimizedAffinity>
13.23033

> <CNNscore>
0.6167308092

> <CNNaffinity>
6.0759229660

> <CNN_VS>
3.7472088337

> <CNNaffinity_variance>
1.0583040714

$$$$
[H]c1c([H])c(C(=O)N([H])[H])c([H])c(-c2c([H])c([H])c([H])c([H])c2N([H])S(=O)(=O)c2c([H])c([H])c(OC([H])([H])[H])c([H])c2[H])c1[H]


 30 32  0  0  0  0  0  0  0  0999 V2000
   22.6792    9.0224   53.8864 C   0  0  0  0  0  0  0  0  0  0  0  0
   21.3645    9.3743   53.7873 C   0  0  0  0  0  0  0  0  0  0  0  0
   20.8256   10.2764   54.7034 C   0  0  0  0  0  0  0  0  0  0  0  0
   21.6238   10.7971   55.6919 C   0  0  0  0  0  0  0  0  0  0  0  0
   22.9500   10.4280   55.7754 C   0  0  0  0  0  0  0  0  0  0  0  0
   23.5050    9.5467   54.8915 C   0  0  0  0  0  0  0  0  0  0  0  0
   24.9177    9.1860   55.0203 C   0  0  0  0  0  0  0  0  0  0  0  0
   25.5368    8.4326   54.0286 C   0  0  0  0  0  0  0  0  0  0  0  0
   26.8522    8.0755   54.1302 C   0  0  0  0  0  0  0  0  0  0  0  0
   27.6184    8.4572   55.2363 C   0  0  0  0  0  0  0  0  0  0  0  0
   27.0257    9.2034   56.2303 C   0  0  0  0  0  0  0  0  0  0  0  0
   25.6914    9.5481   56.0965 C   0  0  0  0  0  0  0  0  0  0  0  0
   27.8031    9.6198   57.4042 C   0  0  0  0  0  0  0  0  0  0  0  0
   28.2735   10.9549   57.5125 N   0  0  0  0  0  0  0  0  0  0  0  0
   28.0738    8.8324   58.3312 O   0  0  0  0  0  0  0  0  0  0  0  0
   28.8799   11.3121   56.7444 H   0  0  0  0  0  0  0  0  0  0  0  0
   28.0618   11.6053   58.2962 H   0  0  0  0  0  0  0  0  0  0  0  0
   23.2769    8.1036   53.0193 N   0  0  0  0  0  0  0  0  0  0  0  0
   23.8422    8.5273   52.2118 H   0  0  0  0  0  0  0  0  0  0  0  0
   23.2427    6.3983   53.0550 S   0  0  0  0  0  0  0  0  0  0  0  0
   24.4903    5.8037   52.4376 O   0  0  0  0  0  0  0  0  0  0  0  0
   22.0676    5.8772   52.2384 O   0  0  0  0  0  0  0  0  0  0  0  0
   22.9157    4.6802   57.2011 C   0  0  0  0  0  0  0  0  0  0  0  0
   23.9607    4.2892   56.3955 C   0  0  0  0  0  0  0  0  0  0  0  0
   24.0522    4.8258   55.1168 C   0  0  0  0  0  0  0  0  0  0  0  0
   23.1243    5.7321   54.6496 C   0  0  0  0  0  0  0  0  0  0  0  0
   22.0855    6.1115   55.4703 C   0  0  0  0  0  0  0  0  0  0  0  0
   22.0007    5.5830   56.7212 C   0  0  0  0  0  0  0  0  0  0  0  0
   23.7498    3.1708   58.8848 C   0  0  0  0  0  0  0  0  0  0  0  0
   22.8127    4.1439   58.4968 O   0  0  0  0  0  0  0  0  0  0  0  0
 29 30  1  0  0  0
 30 23  1  0  0  0
 23 24  2  0  0  0
 24 25  1  0  0  0
 25 26  2  0  0  0
 26 27  1  0  0  0
 27 28  2  0  0  0
 26 20  1  0  0  0
 20 21  2  0  0  0
 20 22  2  0  0  0
 20 18  1  0  0  0
 18  1  1  0  0  0
  1  2  2  0  0  0
  2  3  1  0  0  0
  3  4  2  0  0  0
  4  5  1  0  0  0
  5  6  2  0  0  0
  6  7  1  0  0  0
  7  8  2  0  0  0
  8  9  1  0  0  0
  9 10  2  0  0  0
 10 11  1  0  0  0
 11 12  2  0  0  0
 11 13  1  0  0  0
 13 14  1  0  0  0
 13 15  2  0  0  0
 28 23  1  0  0  0
  6  1  1  0  0  0
 12  7  1  0  0  0
 18 19  1  0  0  0
 14 16  1  0  0  0
 14 17  1  0  0  0
M  END
> <minimizedAffinity>
19.05149

> <CNNscore>
0.6063600183

> <CNNaffinity>
6.1165199280

> <CNN_VS>
3.7088131905

> <CNNaffinity_variance>
0.4578461647

$$$$
[H]c1c([H])c(C(=O)N([H])[H])c([H])c(-c2c([H])c([H])c([H])c([H])c2N([H])S(=O)(=O)c2c([H])c([H])c(OC([H])([H])[H])c([H])c2[H])c1[H]


 30 32  0  0  0  0  0  0  0  0999 V2000
   22.3765    9.0782   53.0175 C   0  0  0  0  0  0  0  0  0  0  0  0
   22.5555   10.3427   52.5368 C   0  0  0  0  0  0  0  0  0  0  0  0
   21.8517   11.4002   53.1111 C   0  0  0  0  0  0  0  0  0  0  0  0
   20.9887   11.1551   54.1506 C   0  0  0  0  0  0  0  0  0  0  0  0
   20.8213    9.8697   54.6214 C   0  0  0  0  0  0  0  0  0  0  0  0
   21.4979    8.8144   54.0784 C   0  0  0  0  0  0  0  0  0  0  0  0
   21.2873    7.4682   54.6128 C   0  0  0  0  0  0  0  0  0  0  0  0
   21.8689    7.1004   55.8214 C   0  0  0  0  0  0  0  0  0  0  0  0
   21.6946    5.8467   56.3368 C   0  0  0  0  0  0  0  0  0  0  0  0
   20.9246    4.8924   55.6640 C   0  0  0  0  0  0  0  0  0  0  0  0
   20.3395    5.2348   54.4656 C   0  0  0  0  0  0  0  0  0  0  0  0
   20.5361    6.5132   53.9713 C   0  0  0  0  0  0  0  0  0  0  0  0
   19.5251    4.2556   53.7349 C   0  0  0  0  0  0  0  0  0  0  0  0
   18.1356    4.1404   54.0026 N   0  0  0  0  0  0  0  0  0  0  0  0
   20.0134    3.5037   52.8696 O   0  0  0  0  0  0  0  0  0  0  0  0
   17.8532    3.9310   54.9832 H   0  0  0  0  0  0  0  0  0  0  0  0
   17.3769    4.2481   53.2993 H   0  0  0  0  0  0  0  0  0  0  0  0
   23.0284    7.9691   52.4715 N   0  0  0  0  0  0  0  0  0  0  0  0
   22.7148    7.6851   51.4856 H   0  0  0  0  0  0  0  0  0  0  0  0
   24.2575    6.9948   53.1427 S   0  0  0  0  0  0  0  0  0  0  0  0
   25.0932    6.3340   52.0675 O   0  0  0  0  0  0  0  0  0  0  0  0
   23.6469    5.8688   53.9666 O   0  0  0  0  0  0  0  0  0  0  0  0
   27.1504    9.2367   55.7606 C   0  0  0  0  0  0  0  0  0  0  0  0
   25.8122    9.2460   56.0816 C   0  0  0  0  0  0  0  0  0  0  0  0
   24.9274    8.5505   55.2664 C   0  0  0  0  0  0  0  0  0  0  0  0
   25.3643    7.8603   54.1558 C   0  0  0  0  0  0  0  0  0  0  0  0
   26.7072    7.8624   53.8505 C   0  0  0  0  0  0  0  0  0  0  0  0
   27.5691    8.5450   54.6521 C   0  0  0  0  0  0  0  0  0  0  0  0
   28.1199    9.5903   57.9387 C   0  0  0  0  0  0  0  0  0  0  0  0
   28.0552    9.9369   56.5781 O   0  0  0  0  0  0  0  0  0  0  0  0
 29 30  1  0  0  0
 30 23  1  0  0  0
 23 24  2  0  0  0
 24 25  1  0  0  0
 25 26  2  0  0  0
 26 27  1  0  0  0
 27 28  2  0  0  0
 26 20  1  0  0  0
 20 21  2  0  0  0
 20 22  2  0  0  0
 20 18  1  0  0  0
 18  1  1  0  0  0
  1  2  2  0  0  0
  2  3  1  0  0  0
  3  4  2  0  0  0
  4  5  1  0  0  0
  5  6  2  0  0  0
  6  7  1  0  0  0
  7  8  2  0  0  0
  8  9  1  0  0  0
  9 10  2  0  0  0
 10 11  1  0  0  0
 11 12  2  0  0  0
 11 13  1  0  0  0
 13 14  1  0  0  0
 13 15  2  0  0  0
 28 23  1  0  0  0
  6  1  1  0  0  0
 12  7  1  0  0  0
 18 19  1  0  0  0
 14 16  1  0  0  0
 14 17  1  0  0  0
M  END
> <minimizedAffinity>
20.23304

> <CNNscore>
0.6040529013

> <CNNaffinity>
6.3428158760

> <CNN_VS>
3.8313963413

> <CNNaffinity_variance>
0.3811624646

$$$$
[H]c1c([H])c(C(=O)N([H])[H])c([H])c(-c2c([H])c([H])c([H])c([H])c2N([H])S(=O)(=O)c2c([H])c([H])c(OC([H])([H])[H])c([H])c2[H])c1[H]


 30 32  0  0  0  0  0  0  0  0999 V2000
   22.8257    8.6383   53.9826 C   0  0  0  0  0  0  0  0  0  0  0  0
   21.4984    8.9272   53.8528 C   0  0  0  0  0  0  0  0  0  0  0  0
   20.9575    9.9985   54.5623 C   0  0  0  0  0  0  0  0  0  0  0  0
   21.7667   10.7466   55.3814 C   0  0  0  0  0  0  0  0  0  0  0  0
   23.1056   10.4378   55.4995 C   0  0  0  0  0  0  0  0  0  0  0  0
   23.6627    9.3943   54.8161 C   0  0  0  0  0  0  0  0  0  0  0  0
   25.0890    9.1059   54.9735 C   0  0  0  0  0  0  0  0  0  0  0  0
   25.7689    8.3986   53.9877 C   0  0  0  0  0  0  0  0  0  0  0  0
   27.0985    8.1092   54.1155 C   0  0  0  0  0  0  0  0  0  0  0  0
   27.8185    8.5157   55.2436 C   0  0  0  0  0  0  0  0  0  0  0  0
   27.1653    9.2171   56.2322 C   0  0  0  0  0  0  0  0  0  0  0  0
   25.8182    9.4937   56.0716 C   0  0  0  0  0  0  0  0  0  0  0  0
   27.8932    9.6580   57.4288 C   0  0  0  0  0  0  0  0  0  0  0  0
   28.0966    8.7624   58.5115 N   0  0  0  0  0  0  0  0  0  0  0  0
   28.3505   10.8120   57.5368 O   0  0  0  0  0  0  0  0  0  0  0  0
   27.2505    8.3386   58.9470 H   0  0  0  0  0  0  0  0  0  0  0  0
   29.0217    8.4952   58.9050 H   0  0  0  0  0  0  0  0  0  0  0  0
   23.4271    7.5632   53.3225 N   0  0  0  0  0  0  0  0  0  0  0  0
   24.0710    7.8222   52.5044 H   0  0  0  0  0  0  0  0  0  0  0  0
   23.2903    5.8901   53.6270 S   0  0  0  0  0  0  0  0  0  0  0  0
   23.8204    5.5289   54.9980 O   0  0  0  0  0  0  0  0  0  0  0  0
   24.1205    5.1017   52.6227 O   0  0  0  0  0  0  0  0  0  0  0  0
   19.0589    4.3680   53.4602 C   0  0  0  0  0  0  0  0  0  0  0  0
   20.0972    3.4689   53.3735 C   0  0  0  0  0  0  0  0  0  0  0  0
   21.4001    3.9496   53.4260 C   0  0  0  0  0  0  0  0  0  0  0  0
   21.6646    5.2958   53.5620 C   0  0  0  0  0  0  0  0  0  0  0  0
   20.6125    6.1805   53.6472 C   0  0  0  0  0  0  0  0  0  0  0  0
   19.3390    5.7045   53.5953 C   0  0  0  0  0  0  0  0  0  0  0  0
   16.8895    4.1794   54.4930 C   0  0  0  0  0  0  0  0  0  0  0  0
   17.7364    3.8934   53.4083 O   0  0  0  0  0  0  0  0  0  0  0  0
 29 30  1  0  0  0
 30 23  1  0  0  0
 23 24  2  0  0  0
 24 25  1  0  0  0
 25 26  2  0  0  0
 26 27  1  0  0  0
 27 28  2  0  0  0
 26 20  1  0  0  0
 20 21  2  0  0  0
 20 22  2  0  0  0
 20 18  1  0  0  0
 18  1  1  0  0  0
  1  2  2  0  0  0
  2  3  1  0  0  0
  3  4  2  0  0  0
  4  5  1  0  0  0
  5  6  2  0  0  0
  6  7  1  0  0  0
  7  8  2  0  0  0
  8  9  1  0  0  0
  9 10  2  0  0  0
 10 11  1  0  0  0
 11 12  2  0  0  0
 11 13  1  0  0  0
 13 14  1  0  0  0
 13 15  2  0  0  0
 28 23  1  0  0  0
  6  1  1  0  0  0
 12  7  1  0  0  0
 18 19  1  0  0  0
 14 16  1  0  0  0
 14 17  1  0  0  0
M  END
> <minimizedAffinity>
14.15193

> <CNNscore>
0.6028737426

> <CNNaffinity>
6.4710717201

> <CNN_VS>
3.9012391567

> <CNNaffinity_variance>
0.1895402372

$$$$
[H]c1c([H])c(C(=O)N([H])[H])c([H])c(-c2c([H])c([H])c([H])c([H])c2N([H])S(=O)(=O)c2c([H])c([H])c(OC([H])([H])[H])c([H])c2[H])c1[H]


 30 32  0  0  0  0  0  0  0  0999 V2000
   21.9045    6.4027   53.9053 C   0  0  0  0  0  0  0  0  0  0  0  0
   21.6404    5.0694   53.7845 C   0  0  0  0  0  0  0  0  0  0  0  0
   20.4020    4.6577   53.2943 C   0  0  0  0  0  0  0  0  0  0  0  0
   19.4661    5.5982   52.9408 C   0  0  0  0  0  0  0  0  0  0  0  0
   19.7523    6.9410   53.0711 C   0  0  0  0  0  0  0  0  0  0  0  0
   20.9572    7.3733   53.5481 C   0  0  0  0  0  0  0  0  0  0  0  0
   21.2146    8.8092   53.6677 C   0  0  0  0  0  0  0  0  0  0  0  0
   21.4225    9.3769   54.9203 C   0  0  0  0  0  0  0  0  0  0  0  0
   21.6558   10.7164   55.0589 C   0  0  0  0  0  0  0  0  0  0  0  0
   21.6930   11.5599   53.9438 C   0  0  0  0  0  0  0  0  0  0  0  0
   21.4897   11.0191   52.6939 C   0  0  0  0  0  0  0  0  0  0  0  0
   21.2558    9.6585   52.5885 C   0  0  0  0  0  0  0  0  0  0  0  0
   21.5226   11.8780   51.5035 C   0  0  0  0  0  0  0  0  0  0  0  0
   21.9696   13.2218   51.6044 N   0  0  0  0  0  0  0  0  0  0  0  0
   21.1664   11.4679   50.3822 O   0  0  0  0  0  0  0  0  0  0  0  0
   21.4701   13.8428   52.2752 H   0  0  0  0  0  0  0  0  0  0  0  0
   22.7552   13.6364   51.0631 H   0  0  0  0  0  0  0  0  0  0  0  0
   23.1135    6.8845   54.4145 N   0  0  0  0  0  0  0  0  0  0  0  0
   23.1847    6.9217   55.4844 H   0  0  0  0  0  0  0  0  0  0  0  0
   24.5021    7.4240   53.5831 S   0  0  0  0  0  0  0  0  0  0  0  0
   24.1497    8.4199   52.4990 O   0  0  0  0  0  0  0  0  0  0  0  0
   25.1879    6.2553   52.8880 O   0  0  0  0  0  0  0  0  0  0  0  0
   27.5173    9.4558   56.2343 C   0  0  0  0  0  0  0  0  0  0  0  0
   27.9590    8.7407   55.1447 C   0  0  0  0  0  0  0  0  0  0  0  0
   27.0195    8.1170   54.3325 C   0  0  0  0  0  0  0  0  0  0  0  0
   25.6694    8.2030   54.5984 C   0  0  0  0  0  0  0  0  0  0  0  0
   25.2463    8.9233   55.6934 C   0  0  0  0  0  0  0  0  0  0  0  0
   26.1704    9.5318   56.4851 C   0  0  0  0  0  0  0  0  0  0  0  0
   28.4656    9.7593   58.4292 C   0  0  0  0  0  0  0  0  0  0  0  0
   28.4586   10.0912   57.0634 O   0  0  0  0  0  0  0  0  0  0  0  0
 29 30  1  0  0  0
 30 23  1  0  0  0
 23 24  2  0  0  0
 24 25  1  0  0  0
 25 26  2  0  0  0
 26 27  1  0  0  0
 27 28  2  0  0  0
 26 20  1  0  0  0
 20 21  2  0  0  0
 20 22  2  0  0  0
 20 18  1  0  0  0
 18  1  1  0  0  0
  1  2  2  0  0  0
  2  3  1  0  0  0
  3  4  2  0  0  0
  4  5  1  0  0  0
  5  6  2  0  0  0
  6  7  1  0  0  0
  7  8  2  0  0  0
  8  9  1  0  0  0
  9 10  2  0  0  0
 10 11  1  0  0  0
 11 12  2  0  0  0
 11 13  1  0  0  0
 13 14  1  0  0  0
 13 15  2  0  0  0
 28 23  1  0  0  0
  6  1  1  0  0  0
 12  7  1  0  0  0
 18 19  1  0  0  0
 14 16  1  0  0  0
 14 17  1  0  0  0
M  END
> <minimizedAffinity>
7.99958

> <CNNscore>
0.5980157256

> <CNNaffinity>
6.2542948723

> <CNN_VS>
3.7401666641

> <CNNaffinity_variance>
0.2828095257

$$$$
[H]c1c([H])c(C(=O)N([H])[H])c([H])c(-c2c([H])c([H])c([H])c([H])c2N([H])S(=O)(=O)c2c([H])c([H])c(OC([H])([H])[H])c([H])c2[H])c1[H]


 30 32  0  0  0  0  0  0  0  0999 V2000
   23.5194    6.2110   54.7395 C   0  0  0  0  0  0  0  0  0  0  0  0
   23.8855    5.0389   55.3347 C   0  0  0  0  0  0  0  0  0  0  0  0
   23.2414    4.6328   56.5025 C   0  0  0  0  0  0  0  0  0  0  0  0
   22.2494    5.4171   57.0374 C   0  0  0  0  0  0  0  0  0  0  0  0
   21.8946    6.5987   56.4210 C   0  0  0  0  0  0  0  0  0  0  0  0
   22.5080    7.0213   55.2759 C   0  0  0  0  0  0  0  0  0  0  0  0
   22.0962    8.2826   54.6579 C   0  0  0  0  0  0  0  0  0  0  0  0
   22.0690    9.4507   55.4123 C   0  0  0  0  0  0  0  0  0  0  0  0
   21.6796   10.6391   54.8607 C   0  0  0  0  0  0  0  0  0  0  0  0
   21.2957   10.7180   53.5181 C   0  0  0  0  0  0  0  0  0  0  0  0
   21.3149    9.5736   52.7526 C   0  0  0  0  0  0  0  0  0  0  0  0
   21.7144    8.3862   53.3422 C   0  0  0  0  0  0  0  0  0  0  0  0
   20.9176    9.6234   51.3399 C   0  0  0  0  0  0  0  0  0  0  0  0
   20.6109    8.4260   50.6415 N   0  0  0  0  0  0  0  0  0  0  0  0
   20.8364   10.6974   50.7133 O   0  0  0  0  0  0  0  0  0  0  0  0
   21.3474    7.6900   50.6078 H   0  0  0  0  0  0  0  0  0  0  0  0
   19.7108    8.2238   50.1611 H   0  0  0  0  0  0  0  0  0  0  0  0
   24.1410    6.6912   53.5836 N   0  0  0  0  0  0  0  0  0  0  0  0
   24.0335    6.0781   52.7098 H   0  0  0  0  0  0  0  0  0  0  0  0
   25.0495    8.1168   53.3535 S   0  0  0  0  0  0  0  0  0  0  0  0
   24.1564    9.3074   53.0779 O   0  0  0  0  0  0  0  0  0  0  0  0
   25.9603    7.9718   52.1416 O   0  0  0  0  0  0  0  0  0  0  0  0
   27.6201    9.2353   56.8735 C   0  0  0  0  0  0  0  0  0  0  0  0
   26.2598    9.4292   56.9501 C   0  0  0  0  0  0  0  0  0  0  0  0
   25.4752    9.0804   55.8573 C   0  0  0  0  0  0  0  0  0  0  0  0
   26.0317    8.5500   54.7129 C   0  0  0  0  0  0  0  0  0  0  0  0
   27.3949    8.3631   54.6548 C   0  0  0  0  0  0  0  0  0  0  0  0
   28.1583    8.7063   55.7275 C   0  0  0  0  0  0  0  0  0  0  0  0
   28.5127   10.9433   58.3206 C   0  0  0  0  0  0  0  0  0  0  0  0
   28.4242    9.5844   57.9728 O   0  0  0  0  0  0  0  0  0  0  0  0
 29 30  1  0  0  0
 30 23  1  0  0  0
 23 24  2  0  0  0
 24 25  1  0  0  0
 25 26  2  0  0  0
 26 27  1  0  0  0
 27 28  2  0  0  0
 26 20  1  0  0  0
 20 21  2  0  0  0
 20 22  2  0  0  0
 20 18  1  0  0  0
 18  1  1  0  0  0
  1  2  2  0  0  0
  2  3  1  0  0  0
  3  4  2  0  0  0
  4  5  1  0  0  0
  5  6  2  0  0  0
  6  7  1  0  0  0
  7  8  2  0  0  0
  8  9  1  0  0  0
  9 10  2  0  0  0
 10 11  1  0  0  0
 11 12  2  0  0  0
 11 13  1  0  0  0
 13 14  1  0  0  0
 13 15  2  0  0  0
 28 23  1  0  0  0
  6  1  1  0  0  0
 12  7  1  0  0  0
 18 19  1  0  0  0
 14 16  1  0  0  0
 14 17  1  0  0  0
M  END
> <minimizedAffinity>
14.26901

> <CNNscore>
0.5977411866

> <CNNaffinity>
5.9470272064

> <CNN_VS>
3.5547831059

> <CNNaffinity_variance>
0.5808392763

$$$$
[H]Oc1c([H])c2c(c([H])c1O[H])[C@@]1([H])C([H])([H])C([H])([H])[C@]3(C([H])([H])[H])C(=O)C([H])([H])C([H])([H])[C@@]3([H])[C@]1([H])C([H])([H])C2([H])[H]


 23 26  0  0  0  0  0  0  0  0999 V2000
   27.5982    9.9049   53.8839 C   0  0  0  0  0  0  0  0  0  0  0  0
   27.2826    8.6583   54.6717 C   0  0  0  0  0  0  0  0  0  0  0  0
   26.9953    7.4943   53.7741 C   0  0  0  0  0  0  0  0  0  0  0  0
   25.6563    7.7611   53.0952 C   0  0  0  0  0  0  0  0  0  0  0  0
   24.6146    7.9318   54.1443 C   0  0  0  0  0  0  0  0  0  0  0  0
   24.9208    9.1857   54.9527 C   0  0  0  0  0  0  0  0  0  0  0  0
   23.7467    9.5183   55.8287 C   0  0  0  0  0  0  0  0  0  0  0  0
   22.7995    8.3235   56.0079 C   0  0  0  0  0  0  0  0  0  0  0  0
   22.2480    8.0852   54.6254 C   0  0  0  0  0  0  0  0  0  0  0  0
   20.9144    8.0695   54.3403 C   0  0  0  0  0  0  0  0  0  0  0  0
   20.5457    7.8415   53.0338 C   0  0  0  0  0  0  0  0  0  0  0  0
   19.2039    7.8180   52.7045 O   0  0  0  0  0  0  0  0  0  0  0  0
   21.5137    7.6355   52.0477 C   0  0  0  0  0  0  0  0  0  0  0  0
   21.1059    7.4068   50.7320 O   0  0  0  0  0  0  0  0  0  0  0  0
   22.8561    7.6572   52.3672 C   0  0  0  0  0  0  0  0  0  0  0  0
   23.2306    7.8814   53.6541 C   0  0  0  0  0  0  0  0  0  0  0  0
   26.1649    8.8826   55.6786 C   0  0  0  0  0  0  0  0  0  0  0  0
   26.7489    9.9001   56.5614 C   0  0  0  0  0  0  0  0  0  0  0  0
   28.1625    9.3251   56.7799 C   0  0  0  0  0  0  0  0  0  0  0  0
   28.4040    8.4436   55.6136 C   0  0  0  0  0  0  0  0  0  0  0  0
   29.3246    7.6914   55.4427 O   0  0  0  0  0  0  0  0  0  0  0  0
   18.5089    7.9656   53.4104 H   0  0  0  0  0  0  0  0  0  0  0  0
   21.8026    7.2597   50.0282 H   0  0  0  0  0  0  0  0  0  0  0  0
  2  1  1  0  0  0
  2  3  1  0  0  0
  3  4  1  0  0  0
  4  5  1  0  0  0
  5  6  1  0  0  0
  6  7  1  0  0  0
  7  8  1  0  0  0
  8  9  1  0  0  0
  9 10  2  0  0  0
 10 11  1  0  0  0
 11 12  1  0  0  0
 11 13  2  0  0  0
 13 14  1  0  0  0
 13 15  1  0  0  0
 15 16  2  0  0  0
  6 17  1  0  0  0
 17 18  1  0  0  0
 18 19  1  0  0  0
 19 20  1  0  0  0
 20 21  2  0  0  0
 17  2  1  0  0  0
 20  2  1  0  0  0
 16  5  1  0  0  0
 16  9  1  0  0  0
 12 22  1  0  0  0
 14 23  1  0  0  0
M  END
> <minimizedAffinity>
15.48203

> <CNNscore>
0.7189419866

> <CNNaffinity>
6.3451776505

> <CNN_VS>
4.5618147850

> <CNNaffinity_variance>
0.6846300364

$$$$
[H]Oc1c([H])c2c(c([H])c1O[H])[C@@]1([H])C([H])([H])C([H])([H])[C@]3(C([H])([H])[H])C(=O)C([H])([H])C([H])([H])[C@@]3([H])[C@]1([H])C([H])([H])C2([H])[H]


 23 26  0  0  0  0  0  0  0  0999 V2000
   21.0424   10.0990   53.4082 C   0  0  0  0  0  0  0  0  0  0  0  0
   21.2338    8.6708   53.8531 C   0  0  0  0  0  0  0  0  0  0  0  0
   21.5240    8.5822   55.3197 C   0  0  0  0  0  0  0  0  0  0  0  0
   22.9210    9.1508   55.5437 C   0  0  0  0  0  0  0  0  0  0  0  0
   23.8911    8.3677   54.7311 C   0  0  0  0  0  0  0  0  0  0  0  0
   23.5934    8.5836   53.2532 C   0  0  0  0  0  0  0  0  0  0  0  0
   24.7166    8.0245   52.4271 C   0  0  0  0  0  0  0  0  0  0  0  0
   25.5840    7.0366   53.2199 C   0  0  0  0  0  0  0  0  0  0  0  0
   26.2213    7.8877   54.2885 C   0  0  0  0  0  0  0  0  0  0  0  0
   27.5694    7.9755   54.4753 C   0  0  0  0  0  0  0  0  0  0  0  0
   28.0196    8.7916   55.4883 C   0  0  0  0  0  0  0  0  0  0  0  0
   29.3787    8.9073   55.7095 O   0  0  0  0  0  0  0  0  0  0  0  0
   27.1163    9.4974   56.2870 C   0  0  0  0  0  0  0  0  0  0  0  0
   27.6062   10.3166   57.3061 O   0  0  0  0  0  0  0  0  0  0  0  0
   25.7573    9.3880   56.0735 C   0  0  0  0  0  0  0  0  0  0  0  0
   25.3026    8.5850   55.0760 C   0  0  0  0  0  0  0  0  0  0  0  0
   22.2856    7.9475   53.0260 C   0  0  0  0  0  0  0  0  0  0  0  0
   21.6933    7.9799   51.6830 C   0  0  0  0  0  0  0  0  0  0  0  0
   20.2392    7.5712   51.9916 C   0  0  0  0  0  0  0  0  0  0  0  0
   20.0371    7.9159   53.4185 C   0  0  0  0  0  0  0  0  0  0  0  0
   19.0931    7.6460   54.1101 O   0  0  0  0  0  0  0  0  0  0  0  0
   30.0273    8.4019   55.1376 H   0  0  0  0  0  0  0  0  0  0  0  0
   26.9557   10.8207   57.8763 H   0  0  0  0  0  0  0  0  0  0  0  0
  2  1  1  0  0  0
  2  3  1  0  0  0
  3  4  1  0  0  0
  4  5  1  0  0  0
  5  6  1  0  0  0
  6  7  1  0  0  0
  7  8  1  0  0  0
  8  9  1  0  0  0
  9 10  2  0  0  0
 10 11  1  0  0  0
 11 12  1  0  0  0
 11 13  2  0  0  0
 13 14  1  0  0  0
 13 15  1  0  0  0
 15 16  2  0  0  0
  6 17  1  0  0  0
 17 18  1  0  0  0
 18 19  1  0  0  0
 19 20  1  0  0  0
 20 21  2  0  0  0
 17  2  1  0  0  0
 20  2  1  0  0  0
 16  5  1  0  0  0
 16  9  1  0  0  0
 12 22  1  0  0  0
 14 23  1  0  0  0
M  END
> <minimizedAffinity>
8.69043

> <CNNscore>
0.6815509200

> <CNNaffinity>
5.9087419510

> <CNN_VS>
4.0271086693

> <CNNaffinity_variance>
0.4286435246

$$$$
[H]Oc1c([H])c2c(c([H])c1O[H])[C@@]1([H])C([H])([H])C([H])([H])[C@]3(C([H])([H])[H])C(=O)C([H])([H])C([H])([H])[C@@]3([H])[C@]1([H])C([H])([H])C2([H])[H]


 23 26  0  0  0  0  0  0  0  0999 V2000
   21.6835    5.8121   53.3027 C   0  0  0  0  0  0  0  0  0  0  0  0
   21.7497    7.2522   52.8599 C   0  0  0  0  0  0  0  0  0  0  0  0
   22.9287    7.5044   51.9716 C   0  0  0  0  0  0  0  0  0  0  0  0
   24.1811    7.4035   52.8355 C   0  0  0  0  0  0  0  0  0  0  0  0
   24.0836    8.4007   53.9358 C   0  0  0  0  0  0  0  0  0  0  0  0
   22.9246    8.0246   54.8494 C   0  0  0  0  0  0  0  0  0  0  0  0
   22.9801    8.8551   56.0999 C   0  0  0  0  0  0  0  0  0  0  0  0
   23.8590   10.1023   55.9297 C   0  0  0  0  0  0  0  0  0  0  0  0
   25.2448    9.5461   55.7236 C   0  0  0  0  0  0  0  0  0  0  0  0
   26.3141    9.8852   56.4991 C   0  0  0  0  0  0  0  0  0  0  0  0
   27.5253    9.3020   56.2030 C   0  0  0  0  0  0  0  0  0  0  0  0
   28.6329    9.6198   56.9657 O   0  0  0  0  0  0  0  0  0  0  0  0
   27.6388    8.3979   55.1439 C   0  0  0  0  0  0  0  0  0  0  0  0
   28.8821    7.8241   54.8702 O   0  0  0  0  0  0  0  0  0  0  0  0
   26.5382    8.0744   54.3768 C   0  0  0  0  0  0  0  0  0  0  0  0
   25.3379    8.6447   54.6609 C   0  0  0  0  0  0  0  0  0  0  0  0
   21.7134    8.2168   54.0354 C   0  0  0  0  0  0  0  0  0  0  0  0
   20.3986    7.9322   54.6234 C   0  0  0  0  0  0  0  0  0  0  0  0
   19.5133    7.8925   53.3620 C   0  0  0  0  0  0  0  0  0  0  0  0
   20.4415    7.5800   52.2500 C   0  0  0  0  0  0  0  0  0  0  0  0
   20.2019    7.5851   51.0732 O   0  0  0  0  0  0  0  0  0  0  0  0
   28.5529   10.2677   57.7252 H   0  0  0  0  0  0  0  0  0  0  0  0
   28.9594    7.1767   54.1105 H   0  0  0  0  0  0  0  0  0  0  0  0
  2  1  1  0  0  0
  2  3  1  0  0  0
  3  4  1  0  0  0
  4  5  1  0  0  0
  5  6  1  0  0  0
  6  7  1  0  0  0
  7  8  1  0  0  0
  8  9  1  0  0  0
  9 10  2  0  0  0
 10 11  1  0  0  0
 11 12  1  0  0  0
 11 13  2  0  0  0
 13 14  1  0  0  0
 13 15  1  0  0  0
 15 16  2  0  0  0
  6 17  1  0  0  0
 17 18  1  0  0  0
 18 19  1  0  0  0
 19 20  1  0  0  0
 20 21  2  0  0  0
 17  2  1  0  0  0
 20  2  1  0  0  0
 16  5  1  0  0  0
 16  9  1  0  0  0
 12 22  1  0  0  0
 14 23  1  0  0  0
M  END
> <minimizedAffinity>
10.21158

> <CNNscore>
0.6814577579

> <CNNaffinity>
5.9472632408

> <CNN_VS>
4.0528087616

> <CNNaffinity_variance>
0.4595363140

$$$$
[H]Oc1c([H])c2c(c([H])c1O[H])[C@@]1([H])C([H])([H])C([H])([H])[C@]3(C([H])([H])[H])C(=O)C([H])([H])C([H])([H])[C@@]3([H])[C@]1([H])C([H])([H])C2([H])[H]


 23 26  0  0  0  0  0  0  0  0999 V2000
   27.5626    6.6796   53.8919 C   0  0  0  0  0  0  0  0  0  0  0  0
   26.8990    7.7998   54.6530 C   0  0  0  0  0  0  0  0  0  0  0  0
   25.9955    7.2792   55.7280 C   0  0  0  0  0  0  0  0  0  0  0  0
   24.7946    6.6360   55.0431 C   0  0  0  0  0  0  0  0  0  0  0  0
   24.1254    7.6582   54.1934 C   0  0  0  0  0  0  0  0  0  0  0  0
   25.0676    8.0672   53.0689 C   0  0  0  0  0  0  0  0  0  0  0  0
   24.3175    8.8867   52.0577 C   0  0  0  0  0  0  0  0  0  0  0  0
   23.0052    9.4475   52.6234 C   0  0  0  0  0  0  0  0  0  0  0  0
   22.1684    8.2215   52.8862 C   0  0  0  0  0  0  0  0  0  0  0  0
   20.9239    8.0339   52.3608 C   0  0  0  0  0  0  0  0  0  0  0  0
   20.2677    6.8668   52.6804 C   0  0  0  0  0  0  0  0  0  0  0  0
   19.0047    6.6394   52.1679 O   0  0  0  0  0  0  0  0  0  0  0  0
   20.8677    5.9192   53.5135 C   0  0  0  0  0  0  0  0  0  0  0  0
   20.1747    4.7459   53.8181 O   0  0  0  0  0  0  0  0  0  0  0  0
   22.1287    6.1377   54.0300 C   0  0  0  0  0  0  0  0  0  0  0  0
   22.7850    7.2866   53.7206 C   0  0  0  0  0  0  0  0  0  0  0  0
   26.1771    8.7714   53.7319 C   0  0  0  0  0  0  0  0  0  0  0  0
   27.2807    9.3002   52.9207 C   0  0  0  0  0  0  0  0  0  0  0  0
   28.3369    9.5828   54.0075 C   0  0  0  0  0  0  0  0  0  0  0  0
   27.9749    8.6940   55.1364 C   0  0  0  0  0  0  0  0  0  0  0  0
   28.4486    8.6824   56.2400 O   0  0  0  0  0  0  0  0  0  0  0  0
   18.5734    7.3178   51.5705 H   0  0  0  0  0  0  0  0  0  0  0  0
   20.6081    4.0693   54.4154 H   0  0  0  0  0  0  0  0  0  0  0  0
  2  1  1  0  0  0
  2  3  1  0  0  0
  3  4  1  0  0  0
  4  5  1  0  0  0
  5  6  1  0  0  0
  6  7  1  0  0  0
  7  8  1  0  0  0
  8  9  1  0  0  0
  9 10  2  0  0  0
 10 11  1  0  0  0
 11 12  1  0  0  0
 11 13  2  0  0  0
 13 14  1  0  0  0
 13 15  1  0  0  0
 15 16  2  0  0  0
  6 17  1  0  0  0
 17 18  1  0  0  0
 18 19  1  0  0  0
 19 20  1  0  0  0
 20 21  2  0  0  0
 17  2  1  0  0  0
 20  2  1  0  0  0
 16  5  1  0  0  0
 16  9  1  0  0  0
 12 22  1  0  0  0
 14 23  1  0  0  0
M  END
> <minimizedAffinity>
26.49572

> <CNNscore>
0.4822514355

> <CNNaffinity>
5.9690356255

> <CNN_VS>
2.8785760403

> <CNNaffinity_variance>
0.6563912630

$$$$
[H]Oc1c([H])c2c(c([H])c1O[H])[C@@]1([H])C([H])([H])C([H])([H])[C@]3(C([H])([H])[H])C(=O)C([H])([H])C([H])([H])[C@@]3([H])[C@]1([H])C([H])([H])C2([H])[H]


 23 26  0  0  0  0  0  0  0  0999 V2000
   23.7714    8.6391   52.9586 C   0  0  0  0  0  0  0  0  0  0  0  0
   23.0292    8.5290   54.2668 C   0  0  0  0  0  0  0  0  0  0  0  0
   23.3554    7.2546   54.9826 C   0  0  0  0  0  0  0  0  0  0  0  0
   22.7280    6.1127   54.1905 C   0  0  0  0  0  0  0  0  0  0  0  0
   21.2609    6.3452   54.0982 C   0  0  0  0  0  0  0  0  0  0  0  0
   21.0053    7.6021   53.2770 C   0  0  0  0  0  0  0  0  0  0  0  0
   19.5425    7.6996   52.9492 C   0  0  0  0  0  0  0  0  0  0  0  0
   18.6829    6.8138   53.8621 C   0  0  0  0  0  0  0  0  0  0  0  0
   19.1072    5.4102   53.5122 C   0  0  0  0  0  0  0  0  0  0  0  0
   18.2384    4.4421   53.1028 C   0  0  0  0  0  0  0  0  0  0  0  0
   18.7588    3.2011   52.8131 C   0  0  0  0  0  0  0  0  0  0  0  0
   17.9109    2.1933   52.3950 O   0  0  0  0  0  0  0  0  0  0  0  0
   20.1289    2.9580   52.9388 C   0  0  0  0  0  0  0  0  0  0  0  0
   20.6244    1.6879   52.6371 O   0  0  0  0  0  0  0  0  0  0  0  0
   20.9834    3.9584   53.3557 C   0  0  0  0  0  0  0  0  0  0  0  0
   20.4796    5.1870   53.6441 C   0  0  0  0  0  0  0  0  0  0  0  0
   21.5290    8.7095   54.0931 C   0  0  0  0  0  0  0  0  0  0  0  0
   21.4439   10.0831   53.5816 C   0  0  0  0  0  0  0  0  0  0  0  0
   22.4142   10.8126   54.5319 C   0  0  0  0  0  0  0  0  0  0  0  0
   23.3232    9.7576   55.0381 C   0  0  0  0  0  0  0  0  0  0  0  0
   24.1476    9.8563   55.9059 O   0  0  0  0  0  0  0  0  0  0  0  0
   16.9286    2.3663   52.3044 H   0  0  0  0  0  0  0  0  0  0  0  0
   21.6068    1.5177   52.7284 H   0  0  0  0  0  0  0  0  0  0  0  0
  2  1  1  0  0  0
  2  3  1  0  0  0
  3  4  1  0  0  0
  4  5  1  0  0  0
  5  6  1  0  0  0
  6  7  1  0  0  0
  7  8  1  0  0  0
  8  9  1  0  0  0
  9 10  2  0  0  0
 10 11  1  0  0  0
 11 12  1  0  0  0
 11 13  2  0  0  0
 13 14  1  0  0  0
 13 15  1  0  0  0
 15 16  2  0  0  0
  6 17  1  0  0  0
 17 18  1  0  0  0
 18 19  1  0  0  0
 19 20  1  0  0  0
 20 21  2  0  0  0
 17  2  1  0  0  0
 20  2  1  0  0  0
 16  5  1  0  0  0
 16  9  1  0  0  0
 12 22  1  0  0  0
 14 23  1  0  0  0
M  END
> <minimizedAffinity>
30.93834

> <CNNscore>
0.4660756588

> <CNNaffinity>
5.8741426468

> <CNN_VS>
2.7377948761

> <CNNaffinity_variance>
0.5454311967

$$$$
[H]Oc1c([H])c2c(c([H])c1O[H])[C@@]1([H])C([H])([H])C([H])([H])[C@]3(C([H])([H])[H])C(=O)C([H])([H])C([H])([H])[C@@]3([H])[C@]1([H])C([H])([H])C2([H])[H]


 23 26  0  0  0  0  0  0  0  0999 V2000
   20.6841    9.7165   55.3718 C   0  0  0  0  0  0  0  0  0  0  0  0
   21.4373    9.9800   54.0922 C   0  0  0  0  0  0  0  0  0  0  0  0
   20.8777    9.1918   52.9483 C   0  0  0  0  0  0  0  0  0  0  0  0
   21.2178    7.7260   53.1943 C   0  0  0  0  0  0  0  0  0  0  0  0
   22.6960    7.5900   53.2999 C   0  0  0  0  0  0  0  0  0  0  0  0
   23.1789    8.3356   54.5370 C   0  0  0  0  0  0  0  0  0  0  0  0
   24.6151    7.9866   54.8056 C   0  0  0  0  0  0  0  0  0  0  0  0
   25.3034    7.3754   53.5770 C   0  0  0  0  0  0  0  0  0  0  0  0
   24.5786    6.0709   53.3647 C   0  0  0  0  0  0  0  0  0  0  0  0
   25.2063    4.8611   53.3165 C   0  0  0  0  0  0  0  0  0  0  0  0
   24.4242    3.7459   53.1178 C   0  0  0  0  0  0  0  0  0  0  0  0
   25.0228    2.5016   53.0628 O   0  0  0  0  0  0  0  0  0  0  0  0
   23.0398    3.8653   52.9726 C   0  0  0  0  0  0  0  0  0  0  0  0
   22.2755    2.7140   52.7723 O   0  0  0  0  0  0  0  0  0  0  0  0
   22.4332    5.1037   53.0260 C   0  0  0  0  0  0  0  0  0  0  0  0
   23.1964    6.2109   53.2218 C   0  0  0  0  0  0  0  0  0  0  0  0
   22.9338    9.7584   54.2503 C   0  0  0  0  0  0  0  0  0  0  0  0
   23.2870   10.7665   55.2576 C   0  0  0  0  0  0  0  0  0  0  0  0
   22.5311   11.9981   54.7203 C   0  0  0  0  0  0  0  0  0  0  0  0
   21.4404   11.4453   53.8834 C   0  0  0  0  0  0  0  0  0  0  0  0
   20.6904   12.0496   53.1658 O   0  0  0  0  0  0  0  0  0  0  0  0
   26.0152    2.4146   53.1668 H   0  0  0  0  0  0  0  0  0  0  0  0
   21.2837    2.8037   52.6688 H   0  0  0  0  0  0  0  0  0  0  0  0
  2  1  1  0  0  0
  2  3  1  0  0  0
  3  4  1  0  0  0
  4  5  1  0  0  0
  5  6  1  0  0  0
  6  7  1  0  0  0
  7  8  1  0  0  0
  8  9  1  0  0  0
  9 10  2  0  0  0
 10 11  1  0  0  0
 11 12  1  0  0  0
 11 13  2  0  0  0
 13 14  1  0  0  0
 13 15  1  0  0  0
 15 16  2  0  0  0
  6 17  1  0  0  0
 17 18  1  0  0  0
 18 19  1  0  0  0
 19 20  1  0  0  0
 20 21  2  0  0  0
 17  2  1  0  0  0
 20  2  1  0  0  0
 16  5  1  0  0  0
 16  9  1  0  0  0
 12 22  1  0  0  0
 14 23  1  0  0  0
M  END
> <minimizedAffinity>
44.81807

> <CNNscore>
0.4565078020

> <CNNaffinity>
5.5916061401

> <CNN_VS>
2.5526118279

> <CNNaffinity_variance>
0.4333675504

$$$$
[H]Oc1c([H])c2c(c([H])c1O[H])[C@@]1([H])C([H])([H])C([H])([H])[C@]3(C([H])([H])[H])C(=O)C([H])([H])C([H])([H])[C@@]3([H])[C@]1([H])C([H])([H])C2([H])[H]


 23 26  0  0  0  0  0  0  0  0999 V2000
   22.6248    5.1466   53.0348 C   0  0  0  0  0  0  0  0  0  0  0  0
   21.5126    5.7025   53.8881 C   0  0  0  0  0  0  0  0  0  0  0  0
   20.3367    6.1215   53.0606 C   0  0  0  0  0  0  0  0  0  0  0  0
   20.7510    7.3595   52.2727 C   0  0  0  0  0  0  0  0  0  0  0  0
   21.1685    8.4182   53.2317 C   0  0  0  0  0  0  0  0  0  0  0  0
   22.4226    7.9611   53.9652 C   0  0  0  0  0  0  0  0  0  0  0  0
   23.0057    9.1145   54.7308 C   0  0  0  0  0  0  0  0  0  0  0  0
   21.9920   10.2499   54.9312 C   0  0  0  0  0  0  0  0  0  0  0  0
   21.7279   10.7530   53.5350 C   0  0  0  0  0  0  0  0  0  0  0  0
   21.8962   12.0533   53.1600 C   0  0  0  0  0  0  0  0  0  0  0  0
   21.6201   12.3790   51.8513 C   0  0  0  0  0  0  0  0  0  0  0  0
   21.7782   13.6863   51.4323 O   0  0  0  0  0  0  0  0  0  0  0  0
   21.1844   11.4021   50.9525 C   0  0  0  0  0  0  0  0  0  0  0  0
   20.9130   11.7660   49.6320 O   0  0  0  0  0  0  0  0  0  0  0  0
   21.0236   10.0941   51.3619 C   0  0  0  0  0  0  0  0  0  0  0  0
   21.2934    9.7622   52.6517 C   0  0  0  0  0  0  0  0  0  0  0  0
   21.9913    6.8251   54.7959 C   0  0  0  0  0  0  0  0  0  0  0  0
   22.9756    6.1364   55.6400 C   0  0  0  0  0  0  0  0  0  0  0  0
   22.2080    4.8482   55.9976 C   0  0  0  0  0  0  0  0  0  0  0  0
   21.2054    4.6855   54.9187 C   0  0  0  0  0  0  0  0  0  0  0  0
   20.3076    3.8894   54.8678 O   0  0  0  0  0  0  0  0  0  0  0  0
   22.0905   14.3875   52.0756 H   0  0  0  0  0  0  0  0  0  0  0  0
   20.6010   11.0631   48.9909 H   0  0  0  0  0  0  0  0  0  0  0  0
  2  1  1  0  0  0
  2  3  1  0  0  0
  3  4  1  0  0  0
  4  5  1  0  0  0
  5  6  1  0  0  0
  6  7  1  0  0  0
  7  8  1  0  0  0
  8  9  1  0  0  0
  9 10  2  0  0  0
 10 11  1  0  0  0
 11 12  1  0  0  0
 11 13  2  0  0  0
 13 14  1  0  0  0
 13 15  1  0  0  0
 15 16  2  0  0  0
  6 17  1  0  0  0
 17 18  1  0  0  0
 18 19  1  0  0  0
 19 20  1  0  0  0
 20 21  2  0  0  0
 17  2  1  0  0  0
 20  2  1  0  0  0
 16  5  1  0  0  0
 16  9  1  0  0  0
 12 22  1  0  0  0
 14 23  1  0  0  0
M  END
> <minimizedAffinity>
27.99517

> <CNNscore>
0.4543220997

> <CNNaffinity>
5.8550405502

> <CNN_VS>
2.6600742340

> <CNNaffinity_variance>
0.5244662166

$$$$
[H]Oc1c([H])c2c(c([H])c1O[H])[C@@]1([H])C([H])([H])C([H])([H])[C@]3(C([H])([H])[H])C(=O)C([H])([H])C([H])([H])[C@@]3([H])[C@]1([H])C([H])([H])C2([H])[H]


 23 26  0  0  0  0  0  0  0  0999 V2000
   20.8927    9.9675   52.5890 C   0  0  0  0  0  0  0  0  0  0  0  0
   21.9434   10.0207   53.6695 C   0  0  0  0  0  0  0  0  0  0  0  0
   23.3272    9.9856   53.0979 C   0  0  0  0  0  0  0  0  0  0  0  0
   23.5533    8.5865   52.5353 C   0  0  0  0  0  0  0  0  0  0  0  0
   23.3732    7.5962   53.6315 C   0  0  0  0  0  0  0  0  0  0  0  0
   21.9225    7.6219   54.0942 C   0  0  0  0  0  0  0  0  0  0  0  0
   21.6635    6.4531   55.0017 C   0  0  0  0  0  0  0  0  0  0  0  0
   22.9619    5.8488   55.5547 C   0  0  0  0  0  0  0  0  0  0  0  0
   23.6558    5.2981   54.3351 C   0  0  0  0  0  0  0  0  0  0  0  0
   24.0488    3.9976   54.2166 C   0  0  0  0  0  0  0  0  0  0  0  0
   24.6721    3.6252   53.0471 C   0  0  0  0  0  0  0  0  0  0  0  0
   25.0854    2.3162   52.8886 O   0  0  0  0  0  0  0  0  0  0  0  0
   24.8868    4.5568   52.0283 C   0  0  0  0  0  0  0  0  0  0  0  0
   25.5219    4.1463   50.8545 O   0  0  0  0  0  0  0  0  0  0  0  0
   24.4775    5.8663   52.1776 C   0  0  0  0  0  0  0  0  0  0  0  0
   23.8613    6.2441   53.3284 C   0  0  0  0  0  0  0  0  0  0  0  0
   21.7408    8.9411   54.7215 C   0  0  0  0  0  0  0  0  0  0  0  0
   20.4300    9.2989   55.2777 C   0  0  0  0  0  0  0  0  0  0  0  0
   20.5907   10.8217   55.4561 C   0  0  0  0  0  0  0  0  0  0  0  0
   21.6533   11.2113   54.4997 C   0  0  0  0  0  0  0  0  0  0  0  0
   22.1910   12.2804   54.3985 O   0  0  0  0  0  0  0  0  0  0  0  0
   24.9320    1.6473   53.6182 H   0  0  0  0  0  0  0  0  0  0  0  0
   25.6740    4.8168   50.1268 H   0  0  0  0  0  0  0  0  0  0  0  0
  2  1  1  0  0  0
  2  3  1  0  0  0
  3  4  1  0  0  0
  4  5  1  0  0  0
  5  6  1  0  0  0
  6  7  1  0  0  0
  7  8  1  0  0  0
  8  9  1  0  0  0
  9 10  2  0  0  0
 10 11  1  0  0  0
 11 12  1  0  0  0
 11 13  2  0  0  0
 13 14  1  0  0  0
 13 15  1  0  0  0
 15 16  2  0  0  0
  6 17  1  0  0  0
 17 18  1  0  0  0
 18 19  1  0  0  0
 19 20  1  0  0  0
 20 21  2  0  0  0
 17  2  1  0  0  0
 20  2  1  0  0  0
 16  5  1  0  0  0
 16  9  1  0  0  0
 12 22  1  0  0  0
 14 23  1  0  0  0
M  END
> <minimizedAffinity>
41.21521

> <CNNscore>
0.4470978677

> <CNNaffinity>
5.4071021080

> <CNN_VS>
2.4175038338

> <CNNaffinity_variance>
0.3186405301

$$$$
[H]Oc1c([H])c2c(c([H])c1O[H])[C@@]1([H])C([H])([H])C([H])([H])[C@]3(C([H])([H])[H])C(=O)C([H])([H])C([H])([H])[C@@]3([H])[C@]1([H])C([H])([H])C2([H])[H]


 23 26  0  0  0  0  0  0  0  0999 V2000
   22.9036   12.4612   53.3910 C   0  0  0  0  0  0  0  0  0  0  0  0
   21.5042   11.8991   53.3938 C   0  0  0  0  0  0  0  0  0  0  0  0
   21.1552   11.2896   54.7166 C   0  0  0  0  0  0  0  0  0  0  0  0
   21.9839   10.0185   54.8663 C   0  0  0  0  0  0  0  0  0  0  0  0
   21.6733    9.1094   53.7298 C   0  0  0  0  0  0  0  0  0  0  0  0
   22.1429    9.7538   52.4322 C   0  0  0  0  0  0  0  0  0  0  0  0
   22.0840    8.7456   51.3201 C   0  0  0  0  0  0  0  0  0  0  0  0
   21.1860    7.5499   51.6677 C   0  0  0  0  0  0  0  0  0  0  0  0
   21.8988    6.8804   52.8149 C   0  0  0  0  0  0  0  0  0  0  0  0
   22.2715    5.5686   52.8057 C   0  0  0  0  0  0  0  0  0  0  0  0
   22.9180    5.0829   53.9197 C   0  0  0  0  0  0  0  0  0  0  0  0
   23.3117    3.7587   53.9491 O   0  0  0  0  0  0  0  0  0  0  0  0
   23.1756    5.9157   55.0115 C   0  0  0  0  0  0  0  0  0  0  0  0
   23.8334    5.3915   56.1261 O   0  0  0  0  0  0  0  0  0  0  0  0
   22.7860    7.2395   54.9912 C   0  0  0  0  0  0  0  0  0  0  0  0
   22.1472    7.7287   53.8962 C   0  0  0  0  0  0  0  0  0  0  0  0
   21.2733   10.9269   52.2471 C   0  0  0  0  0  0  0  0  0  0  0  0
   21.4664   11.7877   51.0735 C   0  0  0  0  0  0  0  0  0  0  0  0
   20.6515   13.0309   51.4819 C   0  0  0  0  0  0  0  0  0  0  0  0
   20.5980   12.9868   52.9621 C   0  0  0  0  0  0  0  0  0  0  0  0
   19.9516   13.6878   53.6924 O   0  0  0  0  0  0  0  0  0  0  0  0
   23.1277    3.1606   53.1671 H   0  0  0  0  0  0  0  0  0  0  0  0
   24.0162    5.9915   56.9065 H   0  0  0  0  0  0  0  0  0  0  0  0
  2  1  1  0  0  0
  2  3  1  0  0  0
  3  4  1  0  0  0
  4  5  1  0  0  0
  5  6  1  0  0  0
  6  7  1  0  0  0
  7  8  1  0  0  0
  8  9  1  0  0  0
  9 10  2  0  0  0
 10 11  1  0  0  0
 11 12  1  0  0  0
 11 13  2  0  0  0
 13 14  1  0  0  0
 13 15  1  0  0  0
 15 16  2  0  0  0
  6 17  1  0  0  0
 17 18  1  0  0  0
 18 19  1  0  0  0
 19 20  1  0  0  0
 20 21  2  0  0  0
 17  2  1  0  0  0
 20  2  1  0  0  0
 16  5  1  0  0  0
 16  9  1  0  0  0
 12 22  1  0  0  0
 14 23  1  0  0  0
M  END
> <minimizedAffinity>
31.43505

> <CNNscore>
0.4430880547

> <CNNaffinity>
5.8975119591

> <CNN_VS>
2.6131172180

> <CNNaffinity_variance>
0.5984626412

$$$$
[H]c1nc([C@@]2([H])C([H])([H])[C@]2([H])C([H])([H])Oc2nc(C([H])([H])[H])nc([H])c2-c2c([H])c([H])c(=O)n(C([H])([H])[H])c2[H])c([H])c([H])c1OC([H])([H])[H]


 28 31  0  0  0  0  0  0  0  0999 V2000
   23.5052    8.3925   53.9341 C   0  0  0  0  0  0  0  0  0  0  0  0
   22.1765    8.6083   53.8868 N   0  0  0  0  0  0  0  0  0  0  0  0
   21.5129    9.4393   54.7056 C   0  0  0  0  0  0  0  0  0  0  0  0
   20.0449    9.6503   54.6214 C   0  0  0  0  0  0  0  0  0  0  0  0
   22.2276   10.0980   55.6338 N   0  0  0  0  0  0  0  0  0  0  0  0
   23.5574    9.9282   55.7348 C   0  0  0  0  0  0  0  0  0  0  0  0
   24.2493    9.0617   54.8809 C   0  0  0  0  0  0  0  0  0  0  0  0
   25.6816    8.8772   54.9820 C   0  0  0  0  0  0  0  0  0  0  0  0
   26.3869    8.3719   53.9135 C   0  0  0  0  0  0  0  0  0  0  0  0
   27.7684    8.1814   53.9862 C   0  0  0  0  0  0  0  0  0  0  0  0
   28.4304    8.5051   55.1448 C   0  0  0  0  0  0  0  0  0  0  0  0
   29.6855    8.3205   55.1794 O   0  0  0  0  0  0  0  0  0  0  0  0
   27.7430    8.9949   56.1786 N   0  0  0  0  0  0  0  0  0  0  0  0
   28.4556    9.3320   57.3950 C   0  0  0  0  0  0  0  0  0  0  0  0
   26.3995    9.1830   56.1159 C   0  0  0  0  0  0  0  0  0  0  0  0
   24.1473    7.5329   53.0780 O   0  0  0  0  0  0  0  0  0  0  0  0
   23.9418    6.1639   52.9385 C   0  0  0  0  0  0  0  0  0  0  0  0
   21.4724    6.3064   53.5128 C   0  0  0  0  0  0  0  0  0  0  0  0
   22.1901    6.3837   54.8391 C   0  0  0  0  0  0  0  0  0  0  0  0
   22.7798    5.6112   53.7102 C   0  0  0  0  0  0  0  0  0  0  0  0
   17.9178    3.9407   53.6356 C   0  0  0  0  0  0  0  0  0  0  0  0
   19.1560    3.3674   53.4376 C   0  0  0  0  0  0  0  0  0  0  0  0
   20.2988    4.1200   53.3973 C   0  0  0  0  0  0  0  0  0  0  0  0
   20.2367    5.4865   53.5558 C   0  0  0  0  0  0  0  0  0  0  0  0
   19.0220    6.0339   53.7484 N   0  0  0  0  0  0  0  0  0  0  0  0
   17.8806    5.3250   53.7935 C   0  0  0  0  0  0  0  0  0  0  0  0
   15.5214    3.8879   53.7121 C   0  0  0  0  0  0  0  0  0  0  0  0
   16.7482    3.1949   53.6797 O   0  0  0  0  0  0  0  0  0  0  0  0
 27 28  1  0  0  0
 28 21  1  0  0  0
 21 22  2  0  0  0
 22 23  1  0  0  0
 23 24  2  0  0  0
 24 25  1  0  0  0
 25 26  2  0  0  0
 24 18  1  0  0  0
 18 19  1  0  0  0
 19 20  1  0  0  0
 20 17  1  0  0  0
 17 16  1  0  0  0
 16  1  1  0  0  0
  1  2  2  0  0  0
  2  3  1  0  0  0
  3  4  1  0  0  0
  3  5  2  0  0  0
  5  6  1  0  0  0
  6  7  2  0  0  0
  7  8  1  0  0  0
  8  9  1  0  0  0
  9 10  2  0  0  0
 10 11  1  0  0  0
 11 12  2  0  0  0
 11 13  1  0  0  0
 13 14  1  0  0  0
 13 15  1  0  0  0
 26 21  1  0  0  0
 20 18  1  0  0  0
  7  1  1  0  0  0
 15  8  2  0  0  0
M  END
> <minimizedAffinity>
17.55363

> <CNNscore>
0.6512503624

> <CNNaffinity>
6.4199743271

> <CNN_VS>
4.1810107231

> <CNNaffinity_variance>
0.1215458140

$$$$
[H]c1nc([C@@]2([H])C([H])([H])[C@]2([H])C([H])([H])Oc2nc(C([H])([H])[H])nc([H])c2-c2c([H])c([H])c(=O)n(C([H])([H])[H])c2[H])c([H])c([H])c1OC([H])([H])[H]


 28 31  0  0  0  0  0  0  0  0999 V2000
   22.4263   10.6659   53.7598 C   0  0  0  0  0  0  0  0  0  0  0  0
   22.0373   11.8392   53.2248 N   0  0  0  0  0  0  0  0  0  0  0  0
   21.4204   11.9656   52.0395 C   0  0  0  0  0  0  0  0  0  0  0  0
   21.0066   13.2794   51.4833 C   0  0  0  0  0  0  0  0  0  0  0  0
   21.1769   10.8419   51.3435 N   0  0  0  0  0  0  0  0  0  0  0  0
   21.5392    9.6383   51.8205 C   0  0  0  0  0  0  0  0  0  0  0  0
   22.1824    9.5066   53.0565 C   0  0  0  0  0  0  0  0  0  0  0  0
   22.5718    8.2133   53.5774 C   0  0  0  0  0  0  0  0  0  0  0  0
   23.5542    7.4851   52.9457 C   0  0  0  0  0  0  0  0  0  0  0  0
   23.9462    6.2338   53.4260 C   0  0  0  0  0  0  0  0  0  0  0  0
   23.3389    5.7251   54.5475 C   0  0  0  0  0  0  0  0  0  0  0  0
   23.7173    4.5857   54.9589 O   0  0  0  0  0  0  0  0  0  0  0  0
   22.3869    6.4343   55.1573 N   0  0  0  0  0  0  0  0  0  0  0  0
   21.7550    5.8843   56.3402 C   0  0  0  0  0  0  0  0  0  0  0  0
   22.0000    7.6518   54.6965 C   0  0  0  0  0  0  0  0  0  0  0  0
   23.0559   10.5786   54.9763 O   0  0  0  0  0  0  0  0  0  0  0  0
   23.1889    9.4532   55.7837 C   0  0  0  0  0  0  0  0  0  0  0  0
   25.6170   10.1773   55.9503 C   0  0  0  0  0  0  0  0  0  0  0  0
   25.6390    8.9132   55.1246 C   0  0  0  0  0  0  0  0  0  0  0  0
   24.5969    9.1085   56.1709 C   0  0  0  0  0  0  0  0  0  0  0  0
   28.8533   10.4491   58.7252 C   0  0  0  0  0  0  0  0  0  0  0  0
   28.3854    9.2294   58.2842 C   0  0  0  0  0  0  0  0  0  0  0  0
   27.3487    9.1356   57.3951 C   0  0  0  0  0  0  0  0  0  0  0  0
   26.7409   10.2739   56.9140 C   0  0  0  0  0  0  0  0  0  0  0  0
   27.2070   11.4582   57.3523 N   0  0  0  0  0  0  0  0  0  0  0  0
   28.2223   11.5864   58.2243 C   0  0  0  0  0  0  0  0  0  0  0  0
   29.7046   10.0910   60.9384 C   0  0  0  0  0  0  0  0  0  0  0  0
   29.9027   10.5647   59.6259 O   0  0  0  0  0  0  0  0  0  0  0  0
 27 28  1  0  0  0
 28 21  1  0  0  0
 21 22  2  0  0  0
 22 23  1  0  0  0
 23 24  2  0  0  0
 24 25  1  0  0  0
 25 26  2  0  0  0
 24 18  1  0  0  0
 18 19  1  0  0  0
 19 20  1  0  0  0
 20 17  1  0  0  0
 17 16  1  0  0  0
 16  1  1  0  0  0
  1  2  2  0  0  0
  2  3  1  0  0  0
  3  4  1  0  0  0
  3  5  2  0  0  0
  5  6  1  0  0  0
  6  7  2  0  0  0
  7  8  1  0  0  0
  8  9  1  0  0  0
  9 10  2  0  0  0
 10 11  1  0  0  0
 11 12  2  0  0  0
 11 13  1  0  0  0
 13 14  1  0  0  0
 13 15  1  0  0  0
 26 21  1  0  0  0
 20 18  1  0  0  0
  7  1  1  0  0  0
 15  8  2  0  0  0
M  END
> <minimizedAffinity>
16.39578

> <CNNscore>
0.6293203831

> <CNNaffinity>
6.2884492874

> <CNN_VS>
3.9574491978

> <CNNaffinity_variance>
0.1704239398

$$$$
[H]c1nc([C@@]2([H])C([H])([H])[C@]2([H])C([H])([H])Oc2nc(C([H])([H])[H])nc([H])c2-c2c([H])c([H])c(=O)n(C([H])([H])[H])c2[H])c([H])c([H])c1OC([H])([H])[H]


 28 31  0  0  0  0  0  0  0  0999 V2000
   21.0314    8.7805   53.7708 C   0  0  0  0  0  0  0  0  0  0  0  0
   21.0605    7.4718   54.0880 N   0  0  0  0  0  0  0  0  0  0  0  0
   21.4789    6.4998   53.2625 C   0  0  0  0  0  0  0  0  0  0  0  0
   21.4957    5.0660   53.6504 C   0  0  0  0  0  0  0  0  0  0  0  0
   21.8959    6.8627   52.0374 N   0  0  0  0  0  0  0  0  0  0  0  0
   21.8925    8.1521   51.6572 C   0  0  0  0  0  0  0  0  0  0  0  0
   21.4563    9.1657   52.5182 C   0  0  0  0  0  0  0  0  0  0  0  0
   21.4537   10.5564   52.1162 C   0  0  0  0  0  0  0  0  0  0  0  0
   22.0022   11.5117   52.9414 C   0  0  0  0  0  0  0  0  0  0  0  0
   22.0098   12.8602   52.5786 C   0  0  0  0  0  0  0  0  0  0  0  0
   21.4599   13.2351   51.3775 C   0  0  0  0  0  0  0  0  0  0  0  0
   21.4823   14.4678   51.0767 O   0  0  0  0  0  0  0  0  0  0  0  0
   20.9293   12.3058   50.5801 N   0  0  0  0  0  0  0  0  0  0  0  0
   20.3526   12.7167   49.3153 C   0  0  0  0  0  0  0  0  0  0  0  0
   20.9179   10.9925   50.9256 C   0  0  0  0  0  0  0  0  0  0  0  0
   20.5953    9.7453   54.6442 O   0  0  0  0  0  0  0  0  0  0  0  0
   21.3052   10.3253   55.6910 C   0  0  0  0  0  0  0  0  0  0  0  0
   23.2202    8.8313   54.9504 C   0  0  0  0  0  0  0  0  0  0  0  0
   22.6597    8.1692   56.1865 C   0  0  0  0  0  0  0  0  0  0  0  0
   22.6000    9.6499   56.0352 C   0  0  0  0  0  0  0  0  0  0  0  0
   27.4847    8.7037   54.7395 C   0  0  0  0  0  0  0  0  0  0  0  0
   26.8345    9.1797   55.8583 C   0  0  0  0  0  0  0  0  0  0  0  0
   25.4683    9.2231   55.9320 C   0  0  0  0  0  0  0  0  0  0  0  0
   24.7012    8.7860   54.8752 C   0  0  0  0  0  0  0  0  0  0  0  0
   25.3480    8.3237   53.7889 N   0  0  0  0  0  0  0  0  0  0  0  0
   26.6871    8.2670   53.6832 C   0  0  0  0  0  0  0  0  0  0  0  0
   29.4628    7.4233   54.2933 C   0  0  0  0  0  0  0  0  0  0  0  0
   28.8684    8.6516   54.6457 O   0  0  0  0  0  0  0  0  0  0  0  0
 27 28  1  0  0  0
 28 21  1  0  0  0
 21 22  2  0  0  0
 22 23  1  0  0  0
 23 24  2  0  0  0
 24 25  1  0  0  0
 25 26  2  0  0  0
 24 18  1  0  0  0
 18 19  1  0  0  0
 19 20  1  0  0  0
 20 17  1  0  0  0
 17 16  1  0  0  0
 16  1  1  0  0  0
  1  2  2  0  0  0
  2  3  1  0  0  0
  3  4  1  0  0  0
  3  5  2  0  0  0
  5  6  1  0  0  0
  6  7  2  0  0  0
  7  8  1  0  0  0
  8  9  1  0  0  0
  9 10  2  0  0  0
 10 11  1  0  0  0
 11 12  2  0  0  0
 11 13  1  0  0  0
 13 14  1  0  0  0
 13 15  1  0  0  0
 26 21  1  0  0  0
 20 18  1  0  0  0
  7  1  1  0  0  0
 15  8  2  0  0  0
M  END
> <minimizedAffinity>
21.17860

> <CNNscore>
0.5853458643

> <CNNaffinity>
6.0633678436

> <CNN_VS>
3.5491673946

> <CNNaffinity_variance>
0.1190766096

$$$$
[H]c1nc([C@@]2([H])C([H])([H])[C@]2([H])C([H])([H])Oc2nc(C([H])([H])[H])nc([H])c2-c2c([H])c([H])c(=O)n(C([H])([H])[H])c2[H])c([H])c([H])c1OC([H])([H])[H]


 28 31  0  0  0  0  0  0  0  0999 V2000
   23.7587    6.5428   54.7514 C   0  0  0  0  0  0  0  0  0  0  0  0
   24.0400    5.5628   55.6316 N   0  0  0  0  0  0  0  0  0  0  0  0
   23.1684    5.0743   56.5277 C   0  0  0  0  0  0  0  0  0  0  0  0
   23.5177    3.9915   57.4828 C   0  0  0  0  0  0  0  0  0  0  0  0
   21.9326    5.6024   56.5434 N   0  0  0  0  0  0  0  0  0  0  0  0
   21.5866    6.5832   55.6917 C   0  0  0  0  0  0  0  0  0  0  0  0
   22.4955    7.0926   54.7571 C   0  0  0  0  0  0  0  0  0  0  0  0
   22.1280    8.1460   53.8347 C   0  0  0  0  0  0  0  0  0  0  0  0
   21.8571    7.8446   52.5193 C   0  0  0  0  0  0  0  0  0  0  0  0
   21.5033    8.8424   51.6086 C   0  0  0  0  0  0  0  0  0  0  0  0
   21.4254   10.1447   52.0368 C   0  0  0  0  0  0  0  0  0  0  0  0
   21.1014   11.0281   51.1852 O   0  0  0  0  0  0  0  0  0  0  0  0
   21.6886   10.4329   53.3130 N   0  0  0  0  0  0  0  0  0  0  0  0
   21.6021   11.8122   53.7503 C   0  0  0  0  0  0  0  0  0  0  0  0
   22.0334    9.4684   54.2048 C   0  0  0  0  0  0  0  0  0  0  0  0
   24.6792    7.0160   53.8498 O   0  0  0  0  0  0  0  0  0  0  0  0
   25.4605    8.1622   53.9578 C   0  0  0  0  0  0  0  0  0  0  0  0
   27.2549    9.3781   55.2806 C   0  0  0  0  0  0  0  0  0  0  0  0
   27.9810    8.2659   54.5622 C   0  0  0  0  0  0  0  0  0  0  0  0
   26.5607    8.0910   54.9756 C   0  0  0  0  0  0  0  0  0  0  0  0
   28.6309   10.0031   59.2760 C   0  0  0  0  0  0  0  0  0  0  0  0
   28.3007    8.7451   58.8182 C   0  0  0  0  0  0  0  0  0  0  0  0
   27.8592    8.5383   57.5390 C   0  0  0  0  0  0  0  0  0  0  0  0
   27.7330    9.5973   56.6678 C   0  0  0  0  0  0  0  0  0  0  0  0
   28.0585   10.8201   57.1269 N   0  0  0  0  0  0  0  0  0  0  0  0
   28.4950   11.0586   58.3760 C   0  0  0  0  0  0  0  0  0  0  0  0
   30.3290   10.8649   60.7336 C   0  0  0  0  0  0  0  0  0  0  0  0
   29.0801   10.2330   60.5688 O   0  0  0  0  0  0  0  0  0  0  0  0
 27 28  1  0  0  0
 28 21  1  0  0  0
 21 22  2  0  0  0
 22 23  1  0  0  0
 23 24  2  0  0  0
 24 25  1  0  0  0
 25 26  2  0  0  0
 24 18  1  0  0  0
 18 19  1  0  0  0
 19 20  1  0  0  0
 20 17  1  0  0  0
 17 16  1  0  0  0
 16  1  1  0  0  0
  1  2  2  0  0  0
  2  3  1  0  0  0
  3  4  1  0  0  0
  3  5  2  0  0  0
  5  6  1  0  0  0
  6  7  2  0  0  0
  7  8  1  0  0  0
  8  9  1  0  0  0
  9 10  2  0  0  0
 10 11  1  0  0  0
 11 12  2  0  0  0
 11 13  1  0  0  0
 13 14  1  0  0  0
 13 15  1  0  0  0
 26 21  1  0  0  0
 20 18  1  0  0  0
  7  1  1  0  0  0
 15  8  2  0  0  0
M  END
> <minimizedAffinity>
7.74624

> <CNNscore>
0.5852402449

> <CNNaffinity>
6.2908563614

> <CNN_VS>
3.6816623211

> <CNNaffinity_variance>
0.2448341101

$$$$
[H]c1nc([C@@]2([H])C([H])([H])[C@]2([H])C([H])([H])Oc2nc(C([H])([H])[H])nc([H])c2-c2c([H])c([H])c(=O)n(C([H])([H])[H])c2[H])c([H])c([H])c1OC([H])([H])[H]


 28 31  0  0  0  0  0  0  0  0999 V2000
   21.3007    8.7371   53.1413 C   0  0  0  0  0  0  0  0  0  0  0  0
   20.1182    8.9769   52.5427 N   0  0  0  0  0  0  0  0  0  0  0  0
   19.7526    8.4713   51.3544 C   0  0  0  0  0  0  0  0  0  0  0  0
   18.4375    8.7600   50.7268 C   0  0  0  0  0  0  0  0  0  0  0  0
   20.6299    7.6723   50.7233 N   0  0  0  0  0  0  0  0  0  0  0  0
   21.8277    7.3924   51.2657 C   0  0  0  0  0  0  0  0  0  0  0  0
   22.2088    7.9195   52.5050 C   0  0  0  0  0  0  0  0  0  0  0  0
   23.4956    7.6190   53.0961 C   0  0  0  0  0  0  0  0  0  0  0  0
   23.6059    6.6118   54.0278 C   0  0  0  0  0  0  0  0  0  0  0  0
   24.8348    6.3039   54.6152 C   0  0  0  0  0  0  0  0  0  0  0  0
   25.9494    7.0204   54.2545 C   0  0  0  0  0  0  0  0  0  0  0  0
   27.0511    6.7164   54.8062 O   0  0  0  0  0  0  0  0  0  0  0  0
   25.8383    7.9960   53.3507 N   0  0  0  0  0  0  0  0  0  0  0  0
   27.0236    8.7435   52.9800 C   0  0  0  0  0  0  0  0  0  0  0  0
   24.6469    8.3017   52.7749 C   0  0  0  0  0  0  0  0  0  0  0  0
   21.6376    9.2743   54.3586 O   0  0  0  0  0  0  0  0  0  0  0  0
   22.4246   10.3956   54.6023 C   0  0  0  0  0  0  0  0  0  0  0  0
   24.5328    9.4561   55.6610 C   0  0  0  0  0  0  0  0  0  0  0  0
   23.4093    9.0289   56.5750 C   0  0  0  0  0  0  0  0  0  0  0  0
   23.3111   10.3029   55.8093 C   0  0  0  0  0  0  0  0  0  0  0  0
   28.0602   10.6625   57.7465 C   0  0  0  0  0  0  0  0  0  0  0  0
   27.0937   11.5755   57.3814 C   0  0  0  0  0  0  0  0  0  0  0  0
   25.9611   11.1952   56.7130 C   0  0  0  0  0  0  0  0  0  0  0  0
   25.7586    9.8730   56.3854 C   0  0  0  0  0  0  0  0  0  0  0  0
   26.7096    8.9918   56.7474 N   0  0  0  0  0  0  0  0  0  0  0  0
   27.8328    9.3307   57.4040 C   0  0  0  0  0  0  0  0  0  0  0  0
   29.2698   10.7947   59.8130 C   0  0  0  0  0  0  0  0  0  0  0  0
   29.2147   11.0283   58.4243 O   0  0  0  0  0  0  0  0  0  0  0  0
 27 28  1  0  0  0
 28 21  1  0  0  0
 21 22  2  0  0  0
 22 23  1  0  0  0
 23 24  2  0  0  0
 24 25  1  0  0  0
 25 26  2  0  0  0
 24 18  1  0  0  0
 18 19  1  0  0  0
 19 20  1  0  0  0
 20 17  1  0  0  0
 17 16  1  0  0  0
 16  1  1  0  0  0
  1  2  2  0  0  0
  2  3  1  0  0  0
  3  4  1  0  0  0
  3  5  2  0  0  0
  5  6  1  0  0  0
  6  7  2  0  0  0
  7  8  1  0  0  0
  8  9  1  0  0  0
  9 10  2  0  0  0
 10 11  1  0  0  0
 11 12  2  0  0  0
 11 13  1  0  0  0
 13 14  1  0  0  0
 13 15  1  0  0  0
 26 21  1  0  0  0
 20 18  1  0  0  0
  7  1  1  0  0  0
 15  8  2  0  0  0
M  END
> <minimizedAffinity>
28.31110

> <CNNscore>
0.5707836747

> <CNNaffinity>
6.2363290787

> <CNN_VS>
3.5595948696

> <CNNaffinity_variance>
0.4170903563

$$$$
[H]c1nc([C@@]2([H])C([H])([H])[C@]2([H])C([H])([H])Oc2nc(C([H])([H])[H])nc([H])c2-c2c([H])c([H])c(=O)n(C([H])([H])[H])c2[H])c([H])c([H])c1OC([H])([H])[H]


 28 31  0  0  0  0  0  0  0  0999 V2000
   22.7691    7.9787   54.7530 C   0  0  0  0  0  0  0  0  0  0  0  0
   21.4483    8.1429   54.9594 N   0  0  0  0  0  0  0  0  0  0  0  0
   20.9094    9.1520   55.6613 C   0  0  0  0  0  0  0  0  0  0  0  0
   19.4455    9.2983   55.8666 C   0  0  0  0  0  0  0  0  0  0  0  0
   21.7495   10.0570   56.1920 N   0  0  0  0  0  0  0  0  0  0  0  0
   23.0791    9.9517   56.0236 C   0  0  0  0  0  0  0  0  0  0  0  0
   23.6409    8.8995   55.2915 C   0  0  0  0  0  0  0  0  0  0  0  0
   25.0715    8.7825   55.1033 C   0  0  0  0  0  0  0  0  0  0  0  0
   25.5710    8.2806   53.9230 C   0  0  0  0  0  0  0  0  0  0  0  0
   26.9464    8.1547   53.7173 C   0  0  0  0  0  0  0  0  0  0  0  0
   27.8117    8.5392   54.7118 C   0  0  0  0  0  0  0  0  0  0  0  0
   29.0555    8.4124   54.4943 O   0  0  0  0  0  0  0  0  0  0  0  0
   27.3235    9.0255   55.8547 N   0  0  0  0  0  0  0  0  0  0  0  0
   28.2491    9.4274   56.8953 C   0  0  0  0  0  0  0  0  0  0  0  0
   25.9872    9.1511   56.0626 C   0  0  0  0  0  0  0  0  0  0  0  0
   23.2815    6.9313   54.0286 O   0  0  0  0  0  0  0  0  0  0  0  0
   23.0277    6.6163   52.6973 C   0  0  0  0  0  0  0  0  0  0  0  0
   21.4819    8.6270   52.5738 C   0  0  0  0  0  0  0  0  0  0  0  0
   21.0212    7.7078   51.4679 C   0  0  0  0  0  0  0  0  0  0  0  0
   22.4537    7.7328   51.8756 C   0  0  0  0  0  0  0  0  0  0  0  0
   21.4309   12.7595   51.4934 C   0  0  0  0  0  0  0  0  0  0  0  0
   21.6910   12.3580   52.7866 C   0  0  0  0  0  0  0  0  0  0  0  0
   21.7088   11.0353   53.1391 C   0  0  0  0  0  0  0  0  0  0  0  0
   21.4638   10.0617   52.1965 C   0  0  0  0  0  0  0  0  0  0  0  0
   21.2112   10.4668   50.9379 N   0  0  0  0  0  0  0  0  0  0  0  0
   21.1861   11.7560   50.5576 C   0  0  0  0  0  0  0  0  0  0  0  0
   20.3514   14.8988   51.5883 C   0  0  0  0  0  0  0  0  0  0  0  0
   21.4085   14.0949   51.1165 O   0  0  0  0  0  0  0  0  0  0  0  0
 27 28  1  0  0  0
 28 21  1  0  0  0
 21 22  2  0  0  0
 22 23  1  0  0  0
 23 24  2  0  0  0
 24 25  1  0  0  0
 25 26  2  0  0  0
 24 18  1  0  0  0
 18 19  1  0  0  0
 19 20  1  0  0  0
 20 17  1  0  0  0
 17 16  1  0  0  0
 16  1  1  0  0  0
  1  2  2  0  0  0
  2  3  1  0  0  0
  3  4  1  0  0  0
  3  5  2  0  0  0
  5  6  1  0  0  0
  6  7  2  0  0  0
  7  8  1  0  0  0
  8  9  1  0  0  0
  9 10  2  0  0  0
 10 11  1  0  0  0
 11 12  2  0  0  0
 11 13  1  0  0  0
 13 14  1  0  0  0
 13 15  1  0  0  0
 26 21  1  0  0  0
 20 18  1  0  0  0
  7  1  1  0  0  0
 15  8  2  0  0  0
M  END
> <minimizedAffinity>
13.96283

> <CNNscore>
0.5676398277

> <CNNaffinity>
6.2570419312

> <CNN_VS>
3.5517461300

> <CNNaffinity_variance>
0.0858790651

$$$$
[H]c1nc([C@@]2([H])C([H])([H])[C@]2([H])C([H])([H])Oc2nc(C([H])([H])[H])nc([H])c2-c2c([H])c([H])c(=O)n(C([H])([H])[H])c2[H])c([H])c([H])c1OC([H])([H])[H]


 28 31  0  0  0  0  0  0  0  0999 V2000
   21.4610    5.7067   53.6948 C   0  0  0  0  0  0  0  0  0  0  0  0
   21.0483    4.4300   53.5775 N   0  0  0  0  0  0  0  0  0  0  0  0
   19.7874    4.0622   53.3017 C   0  0  0  0  0  0  0  0  0  0  0  0
   19.3714    2.6413   53.1803 C   0  0  0  0  0  0  0  0  0  0  0  0
   18.8791    5.0382   53.1321 N   0  0  0  0  0  0  0  0  0  0  0  0
   19.2249    6.3332   53.2356 C   0  0  0  0  0  0  0  0  0  0  0  0
   20.5398    6.7166   53.5231 C   0  0  0  0  0  0  0  0  0  0  0  0
   20.9195    8.1093   53.6323 C   0  0  0  0  0  0  0  0  0  0  0  0
   21.1617    8.6611   54.8698 C   0  0  0  0  0  0  0  0  0  0  0  0
   21.5264   10.0025   55.0027 C   0  0  0  0  0  0  0  0  0  0  0  0
   21.6442   10.7806   53.8775 C   0  0  0  0  0  0  0  0  0  0  0  0
   21.9772   11.9955   54.0316 O   0  0  0  0  0  0  0  0  0  0  0  0
   21.4087   10.2419   52.6794 N   0  0  0  0  0  0  0  0  0  0  0  0
   21.5372   11.0757   51.5007 C   0  0  0  0  0  0  0  0  0  0  0  0
   21.0535    8.9383   52.5416 C   0  0  0  0  0  0  0  0  0  0  0  0
   22.7614    6.0422   53.9788 O   0  0  0  0  0  0  0  0  0  0  0  0
   23.8649    5.9486   53.1364 C   0  0  0  0  0  0  0  0  0  0  0  0
   24.5877    8.0636   54.3414 C   0  0  0  0  0  0  0  0  0  0  0  0
   24.5982    8.4230   52.8748 C   0  0  0  0  0  0  0  0  0  0  0  0
   24.8922    7.0285   53.3082 C   0  0  0  0  0  0  0  0  0  0  0  0
   27.8624    9.7267   56.5227 C   0  0  0  0  0  0  0  0  0  0  0  0
   28.0667    8.9337   55.4134 C   0  0  0  0  0  0  0  0  0  0  0  0
   27.0215    8.3978   54.7101 C   0  0  0  0  0  0  0  0  0  0  0  0
   25.7237    8.6422   55.1003 C   0  0  0  0  0  0  0  0  0  0  0  0
   25.5378    9.4178   56.1848 N   0  0  0  0  0  0  0  0  0  0  0  0
   26.5404    9.9596   56.8979 C   0  0  0  0  0  0  0  0  0  0  0  0
   28.6563   10.6750   58.5773 C   0  0  0  0  0  0  0  0  0  0  0  0
   28.9084   10.2789   57.2485 O   0  0  0  0  0  0  0  0  0  0  0  0
 27 28  1  0  0  0
 28 21  1  0  0  0
 21 22  2  0  0  0
 22 23  1  0  0  0
 23 24  2  0  0  0
 24 25  1  0  0  0
 25 26  2  0  0  0
 24 18  1  0  0  0
 18 19  1  0  0  0
 19 20  1  0  0  0
 20 17  1  0  0  0
 17 16  1  0  0  0
 16  1  1  0  0  0
  1  2  2  0  0  0
  2  3  1  0  0  0
  3  4  1  0  0  0
  3  5  2  0  0  0
  5  6  1  0  0  0
  6  7  2  0  0  0
  7  8  1  0  0  0
  8  9  1  0  0  0
  9 10  2  0  0  0
 10 11  1  0  0  0
 11 12  2  0  0  0
 11 13  1  0  0  0
 13 14  1  0  0  0
 13 15  1  0  0  0
 26 21  1  0  0  0
 20 18  1  0  0  0
  7  1  1  0  0  0
 15  8  2  0  0  0
M  END
> <minimizedAffinity>
13.30022

> <CNNscore>
0.5671611428

> <CNNaffinity>
6.3552656174

> <CNN_VS>
3.6044597626

> <CNNaffinity_variance>
0.1142379791

$$$$
[H]c1nc([C@@]2([H])C([H])([H])[C@]2([H])C([H])([H])Oc2nc(C([H])([H])[H])nc([H])c2-c2c([H])c([H])c(=O)n(C([H])([H])[H])c2[H])c([H])c([H])c1OC([H])([H])[H]


 28 31  0  0  0  0  0  0  0  0999 V2000
   23.6606    7.8636   55.3982 C   0  0  0  0  0  0  0  0  0  0  0  0
   22.3472    8.1170   55.5566 N   0  0  0  0  0  0  0  0  0  0  0  0
   21.8362    9.3246   55.8425 C   0  0  0  0  0  0  0  0  0  0  0  0
   20.3797    9.5635   56.0097 C   0  0  0  0  0  0  0  0  0  0  0  0
   22.6982   10.3469   55.9789 N   0  0  0  0  0  0  0  0  0  0  0  0
   24.0218   10.1622   55.8334 C   0  0  0  0  0  0  0  0  0  0  0  0
   24.5545    8.9028   55.5352 C   0  0  0  0  0  0  0  0  0  0  0  0
   25.9785    8.6981   55.3737 C   0  0  0  0  0  0  0  0  0  0  0  0
   26.8616    9.2878   56.2494 C   0  0  0  0  0  0  0  0  0  0  0  0
   28.2399    9.1086   56.1140 C   0  0  0  0  0  0  0  0  0  0  0  0
   28.7179    8.3303   55.0887 C   0  0  0  0  0  0  0  0  0  0  0  0
   29.9752    8.1870   54.9925 O   0  0  0  0  0  0  0  0  0  0  0  0
   27.8584    7.7601   54.2418 N   0  0  0  0  0  0  0  0  0  0  0  0
   28.3779    6.9412   53.1645 C   0  0  0  0  0  0  0  0  0  0  0  0
   26.5167    7.9294   54.3666 C   0  0  0  0  0  0  0  0  0  0  0  0
   24.1441    6.6125   55.1064 O   0  0  0  0  0  0  0  0  0  0  0  0
   23.7985    5.7990   54.0318 C   0  0  0  0  0  0  0  0  0  0  0  0
   21.8917    7.3289   53.3454 C   0  0  0  0  0  0  0  0  0  0  0  0
   21.6712    6.0524   52.5693 C   0  0  0  0  0  0  0  0  0  0  0  0
   23.0511    6.4851   52.9265 C   0  0  0  0  0  0  0  0  0  0  0  0
   21.0664   10.8560   51.0816 C   0  0  0  0  0  0  0  0  0  0  0  0
   20.6547    9.6127   50.6504 C   0  0  0  0  0  0  0  0  0  0  0  0
   20.9161    8.4787   51.3713 C   0  0  0  0  0  0  0  0  0  0  0  0
   21.6060    8.5551   52.5607 C   0  0  0  0  0  0  0  0  0  0  0  0
   22.0023    9.7746   52.9704 N   0  0  0  0  0  0  0  0  0  0  0  0
   21.7626   10.9077   52.2878 C   0  0  0  0  0  0  0  0  0  0  0  0
   21.4713   13.1978   50.7600 C   0  0  0  0  0  0  0  0  0  0  0  0
   20.8111   12.0169   50.3651 O   0  0  0  0  0  0  0  0  0  0  0  0
 27 28  1  0  0  0
 28 21  1  0  0  0
 21 22  2  0  0  0
 22 23  1  0  0  0
 23 24  2  0  0  0
 24 25  1  0  0  0
 25 26  2  0  0  0
 24 18  1  0  0  0
 18 19  1  0  0  0
 19 20  1  0  0  0
 20 17  1  0  0  0
 17 16  1  0  0  0
 16  1  1  0  0  0
  1  2  2  0  0  0
  2  3  1  0  0  0
  3  4  1  0  0  0
  3  5  2  0  0  0
  5  6  1  0  0  0
  6  7  2  0  0  0
  7  8  1  0  0  0
  8  9  1  0  0  0
  9 10  2  0  0  0
 10 11  1  0  0  0
 11 12  2  0  0  0
 11 13  1  0  0  0
 13 14  1  0  0  0
 13 15  1  0  0  0
 26 21  1  0  0  0
 20 18  1  0  0  0
  7  1  1  0  0  0
 15  8  2  0  0  0
M  END
> <minimizedAffinity>
18.67899

> <CNNscore>
0.5641745925

> <CNNaffinity>
6.1599245071

> <CNN_VS>
3.4752728939

> <CNNaffinity_variance>
0.1600089073

$$$$
[H]c1nc([C@@]2([H])C([H])([H])[C@]2([H])C([H])([H])Oc2nc(C([H])([H])[H])nc([H])c2-c2c([H])c([H])c(=O)n(C([H])([H])[H])c2[H])c([H])c([H])c1OC([H])([H])[H]


 28 31  0  0  0  0  0  0  0  0999 V2000
   27.0586    8.8362   53.0336 C   0  0  0  0  0  0  0  0  0  0  0  0
   26.9717    8.6963   54.3704 N   0  0  0  0  0  0  0  0  0  0  0  0
   27.8648    9.1860   55.2445 C   0  0  0  0  0  0  0  0  0  0  0  0
   27.7332    9.0102   56.7137 C   0  0  0  0  0  0  0  0  0  0  0  0
   28.9151    9.8607   54.7465 N   0  0  0  0  0  0  0  0  0  0  0  0
   29.0617   10.0364   53.4218 C   0  0  0  0  0  0  0  0  0  0  0  0
   28.1303    9.5259   52.5104 C   0  0  0  0  0  0  0  0  0  0  0  0
   28.2805    9.7148   51.0830 C   0  0  0  0  0  0  0  0  0  0  0  0
   28.1142   10.9659   50.5338 C   0  0  0  0  0  0  0  0  0  0  0  0
   28.2506   11.1744   49.1597 C   0  0  0  0  0  0  0  0  0  0  0  0
   28.5559   10.1109   48.3466 C   0  0  0  0  0  0  0  0  0  0  0  0
   28.6731   10.3330   47.1026 O   0  0  0  0  0  0  0  0  0  0  0  0
   28.7164    8.8995   48.8829 N   0  0  0  0  0  0  0  0  0  0  0  0
   29.0385    7.7865   48.0120 C   0  0  0  0  0  0  0  0  0  0  0  0
   28.5854    8.6883   50.2181 C   0  0  0  0  0  0  0  0  0  0  0  0
   26.1235    8.3193   52.1720 O   0  0  0  0  0  0  0  0  0  0  0  0
   25.3584    7.1694   52.3409 C   0  0  0  0  0  0  0  0  0  0  0  0
   24.2504    8.5363   54.1717 C   0  0  0  0  0  0  0  0  0  0  0  0
   24.7667    7.2972   54.8633 C   0  0  0  0  0  0  0  0  0  0  0  0
   24.3373    7.2378   53.4382 C   0  0  0  0  0  0  0  0  0  0  0  0
   20.4155    9.7954   55.5701 C   0  0  0  0  0  0  0  0  0  0  0  0
   21.5713   10.4294   55.9740 C   0  0  0  0  0  0  0  0  0  0  0  0
   22.8032   10.0307   55.5295 C   0  0  0  0  0  0  0  0  0  0  0  0
   22.9175    8.9721   54.6562 C   0  0  0  0  0  0  0  0  0  0  0  0
   21.7817    8.3617   54.2695 N   0  0  0  0  0  0  0  0  0  0  0  0
   20.5568    8.7271   54.6861 C   0  0  0  0  0  0  0  0  0  0  0  0
   19.0821   11.1877   56.9965 C   0  0  0  0  0  0  0  0  0  0  0  0
   19.1579   10.1847   56.0094 O   0  0  0  0  0  0  0  0  0  0  0  0
 27 28  1  0  0  0
 28 21  1  0  0  0
 21 22  2  0  0  0
 22 23  1  0  0  0
 23 24  2  0  0  0
 24 25  1  0  0  0
 25 26  2  0  0  0
 24 18  1  0  0  0
 18 19  1  0  0  0
 19 20  1  0  0  0
 20 17  1  0  0  0
 17 16  1  0  0  0
 16  1  1  0  0  0
  1  2  2  0  0  0
  2  3  1  0  0  0
  3  4  1  0  0  0
  3  5  2  0  0  0
  5  6  1  0  0  0
  6  7  2  0  0  0
  7  8  1  0  0  0
  8  9  1  0  0  0
  9 10  2  0  0  0
 10 11  1  0  0  0
 11 12  2  0  0  0
 11 13  1  0  0  0
 13 14  1  0  0  0
 13 15  1  0  0  0
 26 21  1  0  0  0
 20 18  1  0  0  0
  7  1  1  0  0  0
 15  8  2  0  0  0
M  END
> <minimizedAffinity>
37.47715

> <CNNscore>
0.5633634329

> <CNNaffinity>
5.7294559479

> <CNN_VS>
3.2277660370

> <CNNaffinity_variance>
0.1109675020

$$$$
[H]c1nc2c([H])c(OC([H])([H])C([H])([H])C([H])([H])N3C([H])([H])C([H])([H])C([H])([H])C3([H])[H])c(OC([H])([H])[H])c([H])c2c(Oc2c([H])c([H])c(N([H])C(=O)C3(C(=O)N([H])c4c([H])c([H])c(Cl)c([H])c4[H])C([H])([H])C3([H])[H])c([H])c2F)c1[H]


 47 52  0  0  0  0  0  0  0  0999 V2000
   23.6258    7.5349   54.5503 C   0  0  0  0  0  0  0  0  0  0  0  0
   24.8873    7.3834   54.0352 C   0  0  0  0  0  0  0  0  0  0  0  0
   25.9794    8.0882   54.5767 C   0  0  0  0  0  0  0  0  0  0  0  0
   25.8081    8.9363   55.6224 C   0  0  0  0  0  0  0  0  0  0  0  0
   24.5123    9.0978   56.1607 C   0  0  0  0  0  0  0  0  0  0  0  0
   23.4726    8.4123   55.6303 C   0  0  0  0  0  0  0  0  0  0  0  0
   22.2314    8.5792   56.2003 F   0  0  0  0  0  0  0  0  0  0  0  0
   26.8475    9.7096   56.1910 N   0  0  0  0  0  0  0  0  0  0  0  0
   27.3108    9.5430   57.4841 C   0  0  0  0  0  0  0  0  0  0  0  0
   26.7291    8.6095   58.1784 O   0  0  0  0  0  0  0  0  0  0  0  0
   27.2487   10.4388   55.5620 H   0  0  0  0  0  0  0  0  0  0  0  0
   28.3752   10.2689   58.2022 C   0  0  0  0  0  0  0  0  0  0  0  0
   29.2469   11.1151   57.2177 C   0  0  0  0  0  0  0  0  0  0  0  0
   28.3769   11.7516   58.2580 C   0  0  0  0  0  0  0  0  0  0  0  0
   29.1006    9.5803   59.2956 C   0  0  0  0  0  0  0  0  0  0  0  0
   28.9408    8.3897   59.6182 O   0  0  0  0  0  0  0  0  0  0  0  0
   30.0631   10.3527   60.0422 N   0  0  0  0  0  0  0  0  0  0  0  0
   30.1884   11.3666   59.7696 H   0  0  0  0  0  0  0  0  0  0  0  0
   30.8549    9.8949   61.1039 C   0  0  0  0  0  0  0  0  0  0  0  0
   31.3757   10.6823   62.0777 C   0  0  0  0  0  0  0  0  0  0  0  0
   32.1853   10.1640   63.0942 C   0  0  0  0  0  0  0  0  0  0  0  0
   32.4507    8.8150   63.0929 C   0  0  0  0  0  0  0  0  0  0  0  0
   33.4635    8.0808   64.3382 Cl  0  0  0  0  0  0  0  0  0  0  0  0
   31.9521    7.9686   62.1353 C   0  0  0  0  0  0  0  0  0  0  0  0
   31.1660    8.5191   61.1613 C   0  0  0  0  0  0  0  0  0  0  0  0
   22.5347    6.8607   54.0468 O   0  0  0  0  0  0  0  0  0  0  0  0
   22.1838   10.9346   53.4858 C   0  0  0  0  0  0  0  0  0  0  0  0
   22.2999    9.5714   53.6887 C   0  0  0  0  0  0  0  0  0  0  0  0
   21.7572    8.6780   52.7925 C   0  0  0  0  0  0  0  0  0  0  0  0
   21.8558    7.2935   52.9379 C   0  0  0  0  0  0  0  0  0  0  0  0
   21.3119    6.4353   52.0204 C   0  0  0  0  0  0  0  0  0  0  0  0
   20.6479    6.9668   50.9193 C   0  0  0  0  0  0  0  0  0  0  0  0
   20.5563    8.2992   50.7819 N   0  0  0  0  0  0  0  0  0  0  0  0
   21.0932    9.1542   51.6877 C   0  0  0  0  0  0  0  0  0  0  0  0
   20.9824   10.5230   51.4936 C   0  0  0  0  0  0  0  0  0  0  0  0
   21.5137   11.4392   52.3676 C   0  0  0  0  0  0  0  0  0  0  0  0
   22.9570   11.5108   55.6963 C   0  0  0  0  0  0  0  0  0  0  0  0
   22.7063   11.8843   54.3496 O   0  0  0  0  0  0  0  0  0  0  0  0
   21.3858   12.7740   52.1340 O   0  0  0  0  0  0  0  0  0  0  0  0
   21.4319   13.4580   50.9252 C   0  0  0  0  0  0  0  0  0  0  0  0
   21.1520   14.9290   51.2600 C   0  0  0  0  0  0  0  0  0  0  0  0
   22.2220   15.7893   50.6049 C   0  0  0  0  0  0  0  0  0  0  0  0
   21.7761   17.1394   50.3334 N   0  0  0  0  0  0  0  0  0  0  0  0
   22.5710   18.0291   51.1498 C   0  0  0  0  0  0  0  0  0  0  0  0
   22.8800   19.2605   50.3481 C   0  0  0  0  0  0  0  0  0  0  0  0
   22.8147   18.7641   48.9354 C   0  0  0  0  0  0  0  0  0  0  0  0
   22.0550   17.4765   48.9524 C   0  0  0  0  0  0  0  0  0  0  0  0
 37 38  1  0  0  0
 38 27  1  0  0  0
 27 28  2  0  0  0
 28 29  1  0  0  0
 29 30  2  0  0  0
 30 26  1  0  0  0
 26  1  1  0  0  0
  1  2  2  0  0  0
  2  3  1  0  0  0
  3  4  2  0  0  0
  4  8  1  0  0  0
  8  9  1  0  0  0
  9 10  2  0  0  0
  9 12  1  0  0  0
 12 13  1  0  0  0
 13 14  1  0  0  0
 12 15  1  0  0  0
 15 16  2  0  0  0
 15 17  1  0  0  0
 17 19  1  0  0  0
 19 20  2  0  0  0
 20 21  1  0  0  0
 21 22  2  0  0  0
 22 23  1  0  0  0
 22 24  1  0  0  0
 24 25  2  0  0  0
  4  5  1  0  0  0
  5  6  2  0  0  0
  6  7  1  0  0  0
 30 31  1  0  0  0
 31 32  2  0  0  0
 32 33  1  0  0  0
 33 34  2  0  0  0
 34 35  1  0  0  0
 35 36  2  0  0  0
 36 39  1  0  0  0
 39 40  1  0  0  0
 40 41  1  0  0  0
 41 42  1  0  0  0
 42 43  1  0  0  0
 43 44  1  0  0  0
 44 45  1  0  0  0
 45 46  1  0  0  0
 46 47  1  0  0  0
 36 27  1  0  0  0
 47 43  1  0  0  0
 34 29  1  0  0  0
  6  1  1  0  0  0
 14 12  1  0  0  0
 25 19  1  0  0  0
  8 11  1  0  0  0
 17 18  1  0  0  0
M  END
> <minimizedAffinity>
19.75078

> <CNNscore>
0.6471210718

> <CNNaffinity>
6.8539733887

> <CNN_VS>
4.4353504181

> <CNNaffinity_variance>
0.2765826881

$$$$
[H]c1nc2c([H])c(OC([H])([H])C([H])([H])C([H])([H])N3C([H])([H])C([H])([H])C([H])([H])C3([H])[H])c(OC([H])([H])[H])c([H])c2c(Oc2c([H])c([H])c(N([H])C(=O)C3(C(=O)N([H])c4c([H])c([H])c(Cl)c([H])c4[H])C([H])([H])C3([H])[H])c([H])c2F)c1[H]


 47 52  0  0  0  0  0  0  0  0999 V2000
   27.6615    9.8155   57.9084 C   0  0  0  0  0  0  0  0  0  0  0  0
   28.1439   11.0985   57.8798 C   0  0  0  0  0  0  0  0  0  0  0  0
   29.1823   11.5003   58.7417 C   0  0  0  0  0  0  0  0  0  0  0  0
   29.7301   10.6256   59.6231 C   0  0  0  0  0  0  0  0  0  0  0  0
   29.2406    9.3012   59.6587 C   0  0  0  0  0  0  0  0  0  0  0  0
   28.2429    8.9294   58.8230 C   0  0  0  0  0  0  0  0  0  0  0  0
   27.8125    7.6233   58.8724 F   0  0  0  0  0  0  0  0  0  0  0  0
   30.7448   10.9670   60.5480 N   0  0  0  0  0  0  0  0  0  0  0  0
   30.8627   12.2145   61.1347 C   0  0  0  0  0  0  0  0  0  0  0  0
   29.9663   13.0908   60.7873 O   0  0  0  0  0  0  0  0  0  0  0  0
   31.4226   10.2028   60.7603 H   0  0  0  0  0  0  0  0  0  0  0  0
   31.8589   12.7071   62.1044 C   0  0  0  0  0  0  0  0  0  0  0  0
   31.5923   12.1294   63.5328 C   0  0  0  0  0  0  0  0  0  0  0  0
   32.8172   11.7742   62.7469 C   0  0  0  0  0  0  0  0  0  0  0  0
   32.2834   14.1253   62.0384 C   0  0  0  0  0  0  0  0  0  0  0  0
   32.8342   14.7486   62.9633 O   0  0  0  0  0  0  0  0  0  0  0  0
   32.0358   14.8350   60.8074 N   0  0  0  0  0  0  0  0  0  0  0  0
   31.5593   14.3029   60.0277 H   0  0  0  0  0  0  0  0  0  0  0  0
   32.3618   16.1706   60.5360 C   0  0  0  0  0  0  0  0  0  0  0  0
   33.5345   16.5879   59.9972 C   0  0  0  0  0  0  0  0  0  0  0  0
   33.8083   17.9426   59.7802 C   0  0  0  0  0  0  0  0  0  0  0  0
   32.8503   18.8656   60.1272 C   0  0  0  0  0  0  0  0  0  0  0  0
   33.1160   20.5941   59.8875 Cl  0  0  0  0  0  0  0  0  0  0  0  0
   31.6456   18.5043   60.6750 C   0  0  0  0  0  0  0  0  0  0  0  0
   31.4216   17.1695   60.8694 C   0  0  0  0  0  0  0  0  0  0  0  0
   26.6478    9.3871   57.0792 O   0  0  0  0  0  0  0  0  0  0  0  0
   23.3665    8.5192   54.7310 C   0  0  0  0  0  0  0  0  0  0  0  0
   24.4592    8.8040   55.5298 C   0  0  0  0  0  0  0  0  0  0  0  0
   25.7391    8.7070   55.0319 C   0  0  0  0  0  0  0  0  0  0  0  0
   26.8772    8.9956   55.7862 C   0  0  0  0  0  0  0  0  0  0  0  0
   28.1347    8.8976   55.2538 C   0  0  0  0  0  0  0  0  0  0  0  0
   28.2699    8.5009   53.9272 C   0  0  0  0  0  0  0  0  0  0  0  0
   27.1728    8.2255   53.2039 N   0  0  0  0  0  0  0  0  0  0  0  0
   25.9246    8.3209   53.7262 C   0  0  0  0  0  0  0  0  0  0  0  0
   24.8222    8.0376   52.9336 C   0  0  0  0  0  0  0  0  0  0  0  0
   23.5338    8.1264   53.3999 C   0  0  0  0  0  0  0  0  0  0  0  0
   21.5676    7.5783   56.0326 C   0  0  0  0  0  0  0  0  0  0  0  0
   22.0548    8.5970   55.1720 O   0  0  0  0  0  0  0  0  0  0  0  0
   22.4812    7.8444   52.5843 O   0  0  0  0  0  0  0  0  0  0  0  0
   21.1370    7.7061   52.9085 C   0  0  0  0  0  0  0  0  0  0  0  0
   20.9019    6.2030   53.1078 C   0  0  0  0  0  0  0  0  0  0  0  0
   19.4047    5.9541   53.2111 C   0  0  0  0  0  0  0  0  0  0  0  0
   19.0814    4.7132   53.8825 N   0  0  0  0  0  0  0  0  0  0  0  0
   17.6722    4.7500   54.2030 C   0  0  0  0  0  0  0  0  0  0  0  0
   17.1001    3.3786   53.9877 C   0  0  0  0  0  0  0  0  0  0  0  0
   18.0197    2.7908   52.9604 C   0  0  0  0  0  0  0  0  0  0  0  0
   19.2755    3.6021   52.9733 C   0  0  0  0  0  0  0  0  0  0  0  0
 37 38  1  0  0  0
 38 27  1  0  0  0
 27 28  2  0  0  0
 28 29  1  0  0  0
 29 30  2  0  0  0
 30 26  1  0  0  0
 26  1  1  0  0  0
  1  2  2  0  0  0
  2  3  1  0  0  0
  3  4  2  0  0  0
  4  8  1  0  0  0
  8  9  1  0  0  0
  9 10  2  0  0  0
  9 12  1  0  0  0
 12 13  1  0  0  0
 13 14  1  0  0  0
 12 15  1  0  0  0
 15 16  2  0  0  0
 15 17  1  0  0  0
 17 19  1  0  0  0
 19 20  2  0  0  0
 20 21  1  0  0  0
 21 22  2  0  0  0
 22 23  1  0  0  0
 22 24  1  0  0  0
 24 25  2  0  0  0
  4  5  1  0  0  0
  5  6  2  0  0  0
  6  7  1  0  0  0
 30 31  1  0  0  0
 31 32  2  0  0  0
 32 33  1  0  0  0
 33 34  2  0  0  0
 34 35  1  0  0  0
 35 36  2  0  0  0
 36 39  1  0  0  0
 39 40  1  0  0  0
 40 41  1  0  0  0
 41 42  1  0  0  0
 42 43  1  0  0  0
 43 44  1  0  0  0
 44 45  1  0  0  0
 45 46  1  0  0  0
 46 47  1  0  0  0
 36 27  1  0  0  0
 47 43  1  0  0  0
 34 29  1  0  0  0
  6  1  1  0  0  0
 14 12  1  0  0  0
 25 19  1  0  0  0
  8 11  1  0  0  0
 17 18  1  0  0  0
M  END
> <minimizedAffinity>
11.08882

> <CNNscore>
0.6390387416

> <CNNaffinity>
6.7552461624

> <CNN_VS>
4.3168640137

> <CNNaffinity_variance>
0.0972382650

$$$$
[H]c1nc2c([H])c(OC([H])([H])C([H])([H])C([H])([H])N3C([H])([H])C([H])([H])C([H])([H])C3([H])[H])c(OC([H])([H])[H])c([H])c2c(Oc2c([H])c([H])c(N([H])C(=O)C3(C(=O)N([H])c4c([H])c([H])c(Cl)c([H])c4[H])C([H])([H])C3([H])[H])c([H])c2F)c1[H]


 47 52  0  0  0  0  0  0  0  0999 V2000
   26.4474    8.7722   54.7761 C   0  0  0  0  0  0  0  0  0  0  0  0
   27.8158    8.6907   54.7983 C   0  0  0  0  0  0  0  0  0  0  0  0
   28.5606    9.3052   55.8231 C   0  0  0  0  0  0  0  0  0  0  0  0
   27.9401    9.9945   56.8140 C   0  0  0  0  0  0  0  0  0  0  0  0
   26.5305   10.0825   56.8004 C   0  0  0  0  0  0  0  0  0  0  0  0
   25.8282    9.4854   55.8094 C   0  0  0  0  0  0  0  0  0  0  0  0
   24.4555    9.5739   55.8472 F   0  0  0  0  0  0  0  0  0  0  0  0
   28.6222   10.6730   57.8514 N   0  0  0  0  0  0  0  0  0  0  0  0
   28.8920   10.1146   59.0882 C   0  0  0  0  0  0  0  0  0  0  0  0
   28.4777    8.8937   59.2610 O   0  0  0  0  0  0  0  0  0  0  0  0
   28.9098   11.6498   57.6242 H   0  0  0  0  0  0  0  0  0  0  0  0
   29.5858   10.6977   60.2519 C   0  0  0  0  0  0  0  0  0  0  0  0
   29.7595    9.6438   61.3939 C   0  0  0  0  0  0  0  0  0  0  0  0
   30.9300   10.2146   60.6534 C   0  0  0  0  0  0  0  0  0  0  0  0
   29.2408   12.0749   60.6762 C   0  0  0  0  0  0  0  0  0  0  0  0
   28.1715   12.4074   61.2177 O   0  0  0  0  0  0  0  0  0  0  0  0
   30.2206   13.1066   60.4400 N   0  0  0  0  0  0  0  0  0  0  0  0
   31.1240   12.8199   59.9713 H   0  0  0  0  0  0  0  0  0  0  0  0
   30.0969   14.4634   60.7678 C   0  0  0  0  0  0  0  0  0  0  0  0
   31.1323   15.2843   61.0736 C   0  0  0  0  0  0  0  0  0  0  0  0
   30.9357   16.6247   61.4226 C   0  0  0  0  0  0  0  0  0  0  0  0
   29.6495   17.1096   61.4507 C   0  0  0  0  0  0  0  0  0  0  0  0
   29.3139   18.7882   61.8815 Cl  0  0  0  0  0  0  0  0  0  0  0  0
   28.5626   16.3283   61.1508 C   0  0  0  0  0  0  0  0  0  0  0  0
   28.8023   15.0245   60.8156 C   0  0  0  0  0  0  0  0  0  0  0  0
   25.6865    8.1825   53.7902 O   0  0  0  0  0  0  0  0  0  0  0  0
   21.7439    8.5308   52.6203 C   0  0  0  0  0  0  0  0  0  0  0  0
   23.0653    8.4287   53.0161 C   0  0  0  0  0  0  0  0  0  0  0  0
   23.5278    7.2902   53.6369 C   0  0  0  0  0  0  0  0  0  0  0  0
   24.8524    7.1255   54.0444 C   0  0  0  0  0  0  0  0  0  0  0  0
   25.2788    5.9742   54.6502 C   0  0  0  0  0  0  0  0  0  0  0  0
   24.3614    4.9492   54.8588 C   0  0  0  0  0  0  0  0  0  0  0  0
   23.0883    5.1105   54.4642 N   0  0  0  0  0  0  0  0  0  0  0  0
   22.6603    6.2489   53.8635 C   0  0  0  0  0  0  0  0  0  0  0  0
   21.3373    6.3613   53.4628 C   0  0  0  0  0  0  0  0  0  0  0  0
   20.8460    7.4823   52.8403 C   0  0  0  0  0  0  0  0  0  0  0  0
   21.6352   10.9325   52.4309 C   0  0  0  0  0  0  0  0  0  0  0  0
   21.2170    9.6485   51.9924 O   0  0  0  0  0  0  0  0  0  0  0  0
   19.5410    7.5467   52.4587 O   0  0  0  0  0  0  0  0  0  0  0  0
   18.3981    7.5417   53.2492 C   0  0  0  0  0  0  0  0  0  0  0  0
   17.7731    6.1505   53.0815 C   0  0  0  0  0  0  0  0  0  0  0  0
   18.6881    5.1242   53.7322 C   0  0  0  0  0  0  0  0  0  0  0  0
   17.9877    3.9333   54.1641 N   0  0  0  0  0  0  0  0  0  0  0  0
   16.5962    4.2876   54.3314 C   0  0  0  0  0  0  0  0  0  0  0  0
   15.7532    3.1440   53.8455 C   0  0  0  0  0  0  0  0  0  0  0  0
   16.6456    2.4727   52.8457 C   0  0  0  0  0  0  0  0  0  0  0  0
   18.0422    2.9301   53.1205 C   0  0  0  0  0  0  0  0  0  0  0  0
 37 38  1  0  0  0
 38 27  1  0  0  0
 27 28  2  0  0  0
 28 29  1  0  0  0
 29 30  2  0  0  0
 30 26  1  0  0  0
 26  1  1  0  0  0
  1  2  2  0  0  0
  2  3  1  0  0  0
  3  4  2  0  0  0
  4  8  1  0  0  0
  8  9  1  0  0  0
  9 10  2  0  0  0
  9 12  1  0  0  0
 12 13  1  0  0  0
 13 14  1  0  0  0
 12 15  1  0  0  0
 15 16  2  0  0  0
 15 17  1  0  0  0
 17 19  1  0  0  0
 19 20  2  0  0  0
 20 21  1  0  0  0
 21 22  2  0  0  0
 22 23  1  0  0  0
 22 24  1  0  0  0
 24 25  2  0  0  0
  4  5  1  0  0  0
  5  6  2  0  0  0
  6  7  1  0  0  0
 30 31  1  0  0  0
 31 32  2  0  0  0
 32 33  1  0  0  0
 33 34  2  0  0  0
 34 35  1  0  0  0
 35 36  2  0  0  0
 36 39  1  0  0  0
 39 40  1  0  0  0
 40 41  1  0  0  0
 41 42  1  0  0  0
 42 43  1  0  0  0
 43 44  1  0  0  0
 44 45  1  0  0  0
 45 46  1  0  0  0
 46 47  1  0  0  0
 36 27  1  0  0  0
 47 43  1  0  0  0
 34 29  1  0  0  0
  6  1  1  0  0  0
 14 12  1  0  0  0
 25 19  1  0  0  0
  8 11  1  0  0  0
 17 18  1  0  0  0
M  END
> <minimizedAffinity>
18.79092

> <CNNscore>
0.6341992617

> <CNNaffinity>
7.1709580421

> <CNN_VS>
4.5478162766

> <CNNaffinity_variance>
0.3291919529

$$$$
[H]c1nc2c([H])c(OC([H])([H])C([H])([H])C([H])([H])N3C([H])([H])C([H])([H])C([H])([H])C3([H])[H])c(OC([H])([H])[H])c([H])c2c(Oc2c([H])c([H])c(N([H])C(=O)C3(C(=O)N([H])c4c([H])c([H])c(Cl)c([H])c4[H])C([H])([H])C3([H])[H])c([H])c2F)c1[H]


 47 52  0  0  0  0  0  0  0  0999 V2000
   26.6909    9.0716   55.2699 C   0  0  0  0  0  0  0  0  0  0  0  0
   28.0434    8.8525   55.3191 C   0  0  0  0  0  0  0  0  0  0  0  0
   28.7719    9.0882   56.5008 C   0  0  0  0  0  0  0  0  0  0  0  0
   28.1512    9.5396   57.6202 C   0  0  0  0  0  0  0  0  0  0  0  0
   26.7578    9.7667   57.5794 C   0  0  0  0  0  0  0  0  0  0  0  0
   26.0709    9.5343   56.4366 C   0  0  0  0  0  0  0  0  0  0  0  0
   24.7110    9.7442   56.4467 F   0  0  0  0  0  0  0  0  0  0  0  0
   28.8220    9.8393   58.8293 N   0  0  0  0  0  0  0  0  0  0  0  0
   28.8311   11.0936   59.4132 C   0  0  0  0  0  0  0  0  0  0  0  0
   28.1706   12.0181   58.7799 O   0  0  0  0  0  0  0  0  0  0  0  0
   29.3306    9.0374   59.2614 H   0  0  0  0  0  0  0  0  0  0  0  0
   29.4810   11.5468   60.6574 C   0  0  0  0  0  0  0  0  0  0  0  0
   28.7126   11.0310   61.9178 C   0  0  0  0  0  0  0  0  0  0  0  0
   30.0998   10.5711   61.5883 C   0  0  0  0  0  0  0  0  0  0  0  0
   30.0058   12.9307   60.7291 C   0  0  0  0  0  0  0  0  0  0  0  0
   31.1992   13.2324   60.9084 O   0  0  0  0  0  0  0  0  0  0  0  0
   29.0581   14.0079   60.5814 N   0  0  0  0  0  0  0  0  0  0  0  0
   28.0438   13.7458   60.4381 H   0  0  0  0  0  0  0  0  0  0  0  0
   29.3446   15.3793   60.6115 C   0  0  0  0  0  0  0  0  0  0  0  0
   30.5372   15.9293   60.2726 C   0  0  0  0  0  0  0  0  0  0  0  0
   30.7666   17.3070   60.3548 C   0  0  0  0  0  0  0  0  0  0  0  0
   29.7431   18.1138   60.7926 C   0  0  0  0  0  0  0  0  0  0  0  0
   29.9494   19.8617   60.9265 Cl  0  0  0  0  0  0  0  0  0  0  0  0
   28.5154   17.6158   61.1487 C   0  0  0  0  0  0  0  0  0  0  0  0
   28.3365   16.2636   61.0527 C   0  0  0  0  0  0  0  0  0  0  0  0
   25.9462    8.8507   54.1318 O   0  0  0  0  0  0  0  0  0  0  0  0
   22.3628    9.1554   52.1069 C   0  0  0  0  0  0  0  0  0  0  0  0
   23.5610    9.0666   52.7920 C   0  0  0  0  0  0  0  0  0  0  0  0
   24.0163    7.8540   53.2588 C   0  0  0  0  0  0  0  0  0  0  0  0
   25.2232    7.7020   53.9428 C   0  0  0  0  0  0  0  0  0  0  0  0
   25.6488    6.4777   54.3836 C   0  0  0  0  0  0  0  0  0  0  0  0
   24.8518    5.3644   54.1373 C   0  0  0  0  0  0  0  0  0  0  0  0
   23.6920    5.5140   53.4776 N   0  0  0  0  0  0  0  0  0  0  0  0
   23.2654    6.7245   53.0386 C   0  0  0  0  0  0  0  0  0  0  0  0
   22.0654    6.8244   52.3504 C   0  0  0  0  0  0  0  0  0  0  0  0
   21.5849    8.0181   51.8712 C   0  0  0  0  0  0  0  0  0  0  0  0
   21.7484   11.4556   52.4910 C   0  0  0  0  0  0  0  0  0  0  0  0
   21.8497   10.3445   51.6130 O   0  0  0  0  0  0  0  0  0  0  0  0
   20.4043    8.0684   51.1958 O   0  0  0  0  0  0  0  0  0  0  0  0
   19.1728    7.5288   51.5471 C   0  0  0  0  0  0  0  0  0  0  0  0
   18.9573    7.8907   53.0226 C   0  0  0  0  0  0  0  0  0  0  0  0
   20.0917    7.2930   53.8411 C   0  0  0  0  0  0  0  0  0  0  0  0
   20.3449    8.0142   55.0703 N   0  0  0  0  0  0  0  0  0  0  0  0
   21.6001    7.5334   55.6023 C   0  0  0  0  0  0  0  0  0  0  0  0
   22.3482    8.6993   56.1816 C   0  0  0  0  0  0  0  0  0  0  0  0
   21.8121    9.8611   55.4009 C   0  0  0  0  0  0  0  0  0  0  0  0
   20.5242    9.4224   54.7812 C   0  0  0  0  0  0  0  0  0  0  0  0
 37 38  1  0  0  0
 38 27  1  0  0  0
 27 28  2  0  0  0
 28 29  1  0  0  0
 29 30  2  0  0  0
 30 26  1  0  0  0
 26  1  1  0  0  0
  1  2  2  0  0  0
  2  3  1  0  0  0
  3  4  2  0  0  0
  4  8  1  0  0  0
  8  9  1  0  0  0
  9 10  2  0  0  0
  9 12  1  0  0  0
 12 13  1  0  0  0
 13 14  1  0  0  0
 12 15  1  0  0  0
 15 16  2  0  0  0
 15 17  1  0  0  0
 17 19  1  0  0  0
 19 20  2  0  0  0
 20 21  1  0  0  0
 21 22  2  0  0  0
 22 23  1  0  0  0
 22 24  1  0  0  0
 24 25  2  0  0  0
  4  5  1  0  0  0
  5  6  2  0  0  0
  6  7  1  0  0  0
 30 31  1  0  0  0
 31 32  2  0  0  0
 32 33  1  0  0  0
 33 34  2  0  0  0
 34 35  1  0  0  0
 35 36  2  0  0  0
 36 39  1  0  0  0
 39 40  1  0  0  0
 40 41  1  0  0  0
 41 42  1  0  0  0
 42 43  1  0  0  0
 43 44  1  0  0  0
 44 45  1  0  0  0
 45 46  1  0  0  0
 46 47  1  0  0  0
 36 27  1  0  0  0
 47 43  1  0  0  0
 34 29  1  0  0  0
  6  1  1  0  0  0
 14 12  1  0  0  0
 25 19  1  0  0  0
  8 11  1  0  0  0
 17 18  1  0  0  0
M  END
> <minimizedAffinity>
14.52094

> <CNNscore>
0.6083387733

> <CNNaffinity>
7.1648406982

> <CNN_VS>
4.3586502075

> <CNNaffinity_variance>
1.1620360613

$$$$
[H]c1nc2c([H])c(OC([H])([H])C([H])([H])C([H])([H])N3C([H])([H])C([H])([H])C([H])([H])C3([H])[H])c(OC([H])([H])[H])c([H])c2c(Oc2c([H])c([H])c(N([H])C(=O)C3(C(=O)N([H])c4c([H])c([H])c(Cl)c([H])c4[H])C([H])([H])C3([H])[H])c([H])c2F)c1[H]


 47 52  0  0  0  0  0  0  0  0999 V2000
   27.5881    9.4842   57.2020 C   0  0  0  0  0  0  0  0  0  0  0  0
   26.2535    9.7159   57.4140 C   0  0  0  0  0  0  0  0  0  0  0  0
   25.2953    9.3652   56.4437 C   0  0  0  0  0  0  0  0  0  0  0  0
   25.6713    8.7897   55.2735 C   0  0  0  0  0  0  0  0  0  0  0  0
   27.0439    8.5457   55.0469 C   0  0  0  0  0  0  0  0  0  0  0  0
   27.9531    8.8870   55.9896 C   0  0  0  0  0  0  0  0  0  0  0  0
   29.2774    8.6091   55.7399 F   0  0  0  0  0  0  0  0  0  0  0  0
   24.7722    8.4495   54.2355 N   0  0  0  0  0  0  0  0  0  0  0  0
   23.4053    8.6523   54.3048 C   0  0  0  0  0  0  0  0  0  0  0  0
   22.9675    9.1904   55.4052 O   0  0  0  0  0  0  0  0  0  0  0  0
   25.2132    8.0167   53.3949 H   0  0  0  0  0  0  0  0  0  0  0  0
   22.3583    8.3495   53.3110 C   0  0  0  0  0  0  0  0  0  0  0  0
   21.5168    9.6224   52.9695 C   0  0  0  0  0  0  0  0  0  0  0  0
   22.3990    8.9570   51.9579 C   0  0  0  0  0  0  0  0  0  0  0  0
   21.6073    7.0772   53.4257 C   0  0  0  0  0  0  0  0  0  0  0  0
   22.1178    5.9432   53.4015 O   0  0  0  0  0  0  0  0  0  0  0  0
   20.1752    7.1636   53.5746 N   0  0  0  0  0  0  0  0  0  0  0  0
   19.7457    8.1297   53.5855 H   0  0  0  0  0  0  0  0  0  0  0  0
   19.2852    6.0890   53.7043 C   0  0  0  0  0  0  0  0  0  0  0  0
   19.6441    4.7811   53.7030 C   0  0  0  0  0  0  0  0  0  0  0  0
   18.6991    3.7545   53.8060 C   0  0  0  0  0  0  0  0  0  0  0  0
   17.3721    4.0976   53.9122 C   0  0  0  0  0  0  0  0  0  0  0  0
   16.1162    2.8644   54.0453 Cl  0  0  0  0  0  0  0  0  0  0  0  0
   16.9484    5.4024   53.9198 C   0  0  0  0  0  0  0  0  0  0  0  0
   17.9067    6.3723   53.8165 C   0  0  0  0  0  0  0  0  0  0  0  0
   28.5529    9.8128   58.1292 O   0  0  0  0  0  0  0  0  0  0  0  0
   31.1535   11.2258   61.0058 C   0  0  0  0  0  0  0  0  0  0  0  0
   30.2890   10.7606   60.0314 C   0  0  0  0  0  0  0  0  0  0  0  0
   29.8393    9.4595   60.0529 C   0  0  0  0  0  0  0  0  0  0  0  0
   28.9560    8.9398   59.1056 C   0  0  0  0  0  0  0  0  0  0  0  0
   28.5221    7.6427   59.1649 C   0  0  0  0  0  0  0  0  0  0  0  0
   28.9781    6.8318   60.1993 C   0  0  0  0  0  0  0  0  0  0  0  0
   29.8267    7.3355   61.1097 N   0  0  0  0  0  0  0  0  0  0  0  0
   30.2598    8.6198   61.0560 C   0  0  0  0  0  0  0  0  0  0  0  0
   31.1267    9.0961   62.0282 C   0  0  0  0  0  0  0  0  0  0  0  0
   31.5918   10.3880   62.0354 C   0  0  0  0  0  0  0  0  0  0  0  0
   32.8899   12.7928   60.4182 C   0  0  0  0  0  0  0  0  0  0  0  0
   31.6424   12.5223   61.0398 O   0  0  0  0  0  0  0  0  0  0  0  0
   32.4372   10.8142   63.0133 O   0  0  0  0  0  0  0  0  0  0  0  0
   32.2198   11.7647   64.0035 C   0  0  0  0  0  0  0  0  0  0  0  0
   33.5716   12.4532   64.2337 C   0  0  0  0  0  0  0  0  0  0  0  0
   33.3371   13.7363   65.0166 C   0  0  0  0  0  0  0  0  0  0  0  0
   34.2592   14.7939   64.6610 N   0  0  0  0  0  0  0  0  0  0  0  0
   33.5833   15.6576   63.7192 C   0  0  0  0  0  0  0  0  0  0  0  0
   33.9599   17.0789   64.0233 C   0  0  0  0  0  0  0  0  0  0  0  0
   34.3001   17.0292   65.4822 C   0  0  0  0  0  0  0  0  0  0  0  0
   34.5536   15.5974   65.8299 C   0  0  0  0  0  0  0  0  0  0  0  0
 37 38  1  0  0  0
 38 27  1  0  0  0
 27 28  2  0  0  0
 28 29  1  0  0  0
 29 30  2  0  0  0
 30 26  1  0  0  0
 26  1  1  0  0  0
  1  2  2  0  0  0
  2  3  1  0  0  0
  3  4  2  0  0  0
  4  8  1  0  0  0
  8  9  1  0  0  0
  9 10  2  0  0  0
  9 12  1  0  0  0
 12 13  1  0  0  0
 13 14  1  0  0  0
 12 15  1  0  0  0
 15 16  2  0  0  0
 15 17  1  0  0  0
 17 19  1  0  0  0
 19 20  2  0  0  0
 20 21  1  0  0  0
 21 22  2  0  0  0
 22 23  1  0  0  0
 22 24  1  0  0  0
 24 25  2  0  0  0
  4  5  1  0  0  0
  5  6  2  0  0  0
  6  7  1  0  0  0
 30 31  1  0  0  0
 31 32  2  0  0  0
 32 33  1  0  0  0
 33 34  2  0  0  0
 34 35  1  0  0  0
 35 36  2  0  0  0
 36 39  1  0  0  0
 39 40  1  0  0  0
 40 41  1  0  0  0
 41 42  1  0  0  0
 42 43  1  0  0  0
 43 44  1  0  0  0
 44 45  1  0  0  0
 45 46  1  0  0  0
 46 47  1  0  0  0
 36 27  1  0  0  0
 47 43  1  0  0  0
 34 29  1  0  0  0
  6  1  1  0  0  0
 14 12  1  0  0  0
 25 19  1  0  0  0
  8 11  1  0  0  0
 17 18  1  0  0  0
M  END
> <minimizedAffinity>
16.40844

> <CNNscore>
0.5653524995

> <CNNaffinity>
6.5455727577

> <CNN_VS>
3.7005558014

> <CNNaffinity_variance>
0.1149175912

$$$$
[H]c1nc2c([H])c(OC([H])([H])C([H])([H])C([H])([H])N3C([H])([H])C([H])([H])C([H])([H])C3([H])[H])c(OC([H])([H])[H])c([H])c2c(Oc2c([H])c([H])c(N([H])C(=O)C3(C(=O)N([H])c4c([H])c([H])c(Cl)c([H])c4[H])C([H])([H])C3([H])[H])c([H])c2F)c1[H]


 47 52  0  0  0  0  0  0  0  0999 V2000
   26.3568    9.1197   55.9592 C   0  0  0  0  0  0  0  0  0  0  0  0
   25.9352    9.6010   57.1717 C   0  0  0  0  0  0  0  0  0  0  0  0
   26.8580    9.8967   58.1933 C   0  0  0  0  0  0  0  0  0  0  0  0
   28.1886    9.7108   58.0014 C   0  0  0  0  0  0  0  0  0  0  0  0
   28.6326    9.2167   56.7550 C   0  0  0  0  0  0  0  0  0  0  0  0
   27.7336    8.9383   55.7822 C   0  0  0  0  0  0  0  0  0  0  0  0
   28.2099    8.4828   54.5742 F   0  0  0  0  0  0  0  0  0  0  0  0
   29.1702    9.9445   58.9932 N   0  0  0  0  0  0  0  0  0  0  0  0
   29.1798   11.0544   59.8193 C   0  0  0  0  0  0  0  0  0  0  0  0
   28.2109   11.9033   59.6389 O   0  0  0  0  0  0  0  0  0  0  0  0
   29.9116    9.2135   59.0600 H   0  0  0  0  0  0  0  0  0  0  0  0
   30.1299   11.4250   60.8849 C   0  0  0  0  0  0  0  0  0  0  0  0
   29.7657   10.7271   62.2360 C   0  0  0  0  0  0  0  0  0  0  0  0
   31.0250   10.4080   61.4899 C   0  0  0  0  0  0  0  0  0  0  0  0
   30.5934   12.8296   60.9754 C   0  0  0  0  0  0  0  0  0  0  0  0
   31.7513   13.1812   61.2633 O   0  0  0  0  0  0  0  0  0  0  0  0
   29.6254   13.8657   60.7112 N   0  0  0  0  0  0  0  0  0  0  0  0
   28.6406   13.5613   60.4758 H   0  0  0  0  0  0  0  0  0  0  0  0
   29.8565   15.2476   60.7374 C   0  0  0  0  0  0  0  0  0  0  0  0
   31.0676   15.8340   60.5671 C   0  0  0  0  0  0  0  0  0  0  0  0
   31.2339   17.2215   60.6358 C   0  0  0  0  0  0  0  0  0  0  0  0
   30.1278   17.9997   60.8826 C   0  0  0  0  0  0  0  0  0  0  0  0
   30.2506   19.7575   60.9858 Cl  0  0  0  0  0  0  0  0  0  0  0  0
   28.8776   17.4644   61.0626 C   0  0  0  0  0  0  0  0  0  0  0  0
   28.7624   16.1040   60.9872 C   0  0  0  0  0  0  0  0  0  0  0  0
   25.4828    8.8209   54.9368 O   0  0  0  0  0  0  0  0  0  0  0  0
   22.7081    6.2599   53.2704 C   0  0  0  0  0  0  0  0  0  0  0  0
   23.6478    7.1145   53.8180 C   0  0  0  0  0  0  0  0  0  0  0  0
   23.2661    8.3099   54.3844 C   0  0  0  0  0  0  0  0  0  0  0  0
   24.1674    9.2039   54.9642 C   0  0  0  0  0  0  0  0  0  0  0  0
   23.7497   10.3797   55.5274 C   0  0  0  0  0  0  0  0  0  0  0  0
   22.3913   10.6805   55.5171 C   0  0  0  0  0  0  0  0  0  0  0  0
   21.5269    9.8175   54.9598 N   0  0  0  0  0  0  0  0  0  0  0  0
   21.9351    8.6511   54.4005 C   0  0  0  0  0  0  0  0  0  0  0  0
   21.0009    7.7872   53.8487 C   0  0  0  0  0  0  0  0  0  0  0  0
   21.3492    6.5878   53.2782 C   0  0  0  0  0  0  0  0  0  0  0  0
   24.3794    4.7984   52.3289 C   0  0  0  0  0  0  0  0  0  0  0  0
   23.0274    5.0445   52.6856 O   0  0  0  0  0  0  0  0  0  0  0  0
   20.3976    5.7681   52.7537 O   0  0  0  0  0  0  0  0  0  0  0  0
   19.9979    4.5076   53.1809 C   0  0  0  0  0  0  0  0  0  0  0  0
   18.6487    4.7067   53.8840 C   0  0  0  0  0  0  0  0  0  0  0  0
   17.9968    3.3464   54.0802 C   0  0  0  0  0  0  0  0  0  0  0  0
   16.5888    3.4341   54.4045 N   0  0  0  0  0  0  0  0  0  0  0  0
   16.1719    4.7954   54.1538 C   0  0  0  0  0  0  0  0  0  0  0  0
   14.7949    4.7678   53.5556 C   0  0  0  0  0  0  0  0  0  0  0  0
   14.7428    3.4213   52.8994 C   0  0  0  0  0  0  0  0  0  0  0  0
   15.8280    2.5904   53.5055 C   0  0  0  0  0  0  0  0  0  0  0  0
 37 38  1  0  0  0
 38 27  1  0  0  0
 27 28  2  0  0  0
 28 29  1  0  0  0
 29 30  2  0  0  0
 30 26  1  0  0  0
 26  1  1  0  0  0
  1  2  2  0  0  0
  2  3  1  0  0  0
  3  4  2  0  0  0
  4  8  1  0  0  0
  8  9  1  0  0  0
  9 10  2  0  0  0
  9 12  1  0  0  0
 12 13  1  0  0  0
 13 14  1  0  0  0
 12 15  1  0  0  0
 15 16  2  0  0  0
 15 17  1  0  0  0
 17 19  1  0  0  0
 19 20  2  0  0  0
 20 21  1  0  0  0
 21 22  2  0  0  0
 22 23  1  0  0  0
 22 24  1  0  0  0
 24 25  2  0  0  0
  4  5  1  0  0  0
  5  6  2  0  0  0
  6  7  1  0  0  0
 30 31  1  0  0  0
 31 32  2  0  0  0
 32 33  1  0  0  0
 33 34  2  0  0  0
 34 35  1  0  0  0
 35 36  2  0  0  0
 36 39  1  0  0  0
 39 40  1  0  0  0
 40 41  1  0  0  0
 41 42  1  0  0  0
 42 43  1  0  0  0
 43 44  1  0  0  0
 44 45  1  0  0  0
 45 46  1  0  0  0
 46 47  1  0  0  0
 36 27  1  0  0  0
 47 43  1  0  0  0
 34 29  1  0  0  0
  6  1  1  0  0  0
 14 12  1  0  0  0
 25 19  1  0  0  0
  8 11  1  0  0  0
 17 18  1  0  0  0
M  END
> <minimizedAffinity>
18.63955

> <CNNscore>
0.5531835556

> <CNNaffinity>
6.9627456665

> <CNN_VS>
3.8516764641

> <CNNaffinity_variance>
0.2497772425

$$$$
[H]c1nc2c([H])c(OC([H])([H])C([H])([H])C([H])([H])N3C([H])([H])C([H])([H])C([H])([H])C3([H])[H])c(OC([H])([H])[H])c([H])c2c(Oc2c([H])c([H])c(N([H])C(=O)C3(C(=O)N([H])c4c([H])c([H])c(Cl)c([H])c4[H])C([H])([H])C3([H])[H])c([H])c2F)c1[H]


 47 52  0  0  0  0  0  0  0  0999 V2000
   26.2169    9.2298   55.6523 C   0  0  0  0  0  0  0  0  0  0  0  0
   25.7824    9.4935   56.9256 C   0  0  0  0  0  0  0  0  0  0  0  0
   26.6953    9.6162   57.9906 C   0  0  0  0  0  0  0  0  0  0  0  0
   28.0288    9.4750   57.7812 C   0  0  0  0  0  0  0  0  0  0  0  0
   28.4859    9.2047   56.4725 C   0  0  0  0  0  0  0  0  0  0  0  0
   27.5964    9.0909   55.4587 C   0  0  0  0  0  0  0  0  0  0  0  0
   28.0851    8.8521   54.1947 F   0  0  0  0  0  0  0  0  0  0  0  0
   29.0011    9.5422   58.8068 N   0  0  0  0  0  0  0  0  0  0  0  0
   29.2081   10.6577   59.5986 C   0  0  0  0  0  0  0  0  0  0  0  0
   28.4405   11.6784   59.3511 O   0  0  0  0  0  0  0  0  0  0  0  0
   29.5744    8.6788   58.9275 H   0  0  0  0  0  0  0  0  0  0  0  0
   30.1750   10.8681   60.6924 C   0  0  0  0  0  0  0  0  0  0  0  0
   31.0445   12.1433   60.4418 C   0  0  0  0  0  0  0  0  0  0  0  0
   30.0718   12.0543   61.5777 C   0  0  0  0  0  0  0  0  0  0  0  0
   30.8785    9.6953   61.2628 C   0  0  0  0  0  0  0  0  0  0  0  0
   30.9755    8.5844   60.7117 O   0  0  0  0  0  0  0  0  0  0  0  0
   31.4950    9.8566   62.5568 N   0  0  0  0  0  0  0  0  0  0  0  0
   31.4017   10.8002   63.0247 H   0  0  0  0  0  0  0  0  0  0  0  0
   32.2090    8.8817   63.2665 C   0  0  0  0  0  0  0  0  0  0  0  0
   31.9201    7.5566   63.2669 C   0  0  0  0  0  0  0  0  0  0  0  0
   32.6566    6.6391   64.0238 C   0  0  0  0  0  0  0  0  0  0  0  0
   33.7015    7.1096   64.7834 C   0  0  0  0  0  0  0  0  0  0  0  0
   34.6805    6.0196   65.7678 Cl  0  0  0  0  0  0  0  0  0  0  0  0
   34.0417    8.4380   64.8229 C   0  0  0  0  0  0  0  0  0  0  0  0
   33.2942    9.2984   64.0676 C   0  0  0  0  0  0  0  0  0  0  0  0
   25.3528    9.1045   54.5864 O   0  0  0  0  0  0  0  0  0  0  0  0
   22.8303    5.9833   53.6224 C   0  0  0  0  0  0  0  0  0  0  0  0
   23.6848    7.0253   53.9342 C   0  0  0  0  0  0  0  0  0  0  0  0
   23.1904    8.2350   54.3673 C   0  0  0  0  0  0  0  0  0  0  0  0
   24.0045    9.3157   54.7096 C   0  0  0  0  0  0  0  0  0  0  0  0
   23.4771   10.5011   55.1464 C   0  0  0  0  0  0  0  0  0  0  0  0
   22.0947   10.6204   55.2490 C   0  0  0  0  0  0  0  0  0  0  0  0
   21.3146    9.5783   54.9203 N   0  0  0  0  0  0  0  0  0  0  0  0
   21.8316    8.4015   54.4870 C   0  0  0  0  0  0  0  0  0  0  0  0
   20.9834    7.3504   54.1718 C   0  0  0  0  0  0  0  0  0  0  0  0
   21.4452    6.1319   53.7389 C   0  0  0  0  0  0  0  0  0  0  0  0
   24.5254    4.2680   53.6280 C   0  0  0  0  0  0  0  0  0  0  0  0
   23.2644    4.7432   53.1811 O   0  0  0  0  0  0  0  0  0  0  0  0
   20.5760    5.1261   53.4463 O   0  0  0  0  0  0  0  0  0  0  0  0
   19.2036    5.1901   53.2378 C   0  0  0  0  0  0  0  0  0  0  0  0
   18.6822    3.7570   53.4069 C   0  0  0  0  0  0  0  0  0  0  0  0
   18.0618    3.6248   54.7896 C   0  0  0  0  0  0  0  0  0  0  0  0
   16.6147    3.6490   54.7662 N   0  0  0  0  0  0  0  0  0  0  0  0
   16.2136    4.8816   54.1262 C   0  0  0  0  0  0  0  0  0  0  0  0
   15.0189    4.6008   53.2612 C   0  0  0  0  0  0  0  0  0  0  0  0
   15.1778    3.1467   52.9342 C   0  0  0  0  0  0  0  0  0  0  0  0
   16.1223    2.5672   53.9379 C   0  0  0  0  0  0  0  0  0  0  0  0
 37 38  1  0  0  0
 38 27  1  0  0  0
 27 28  2  0  0  0
 28 29  1  0  0  0
 29 30  2  0  0  0
 30 26  1  0  0  0
 26  1  1  0  0  0
  1  2  2  0  0  0
  2  3  1  0  0  0
  3  4  2  0  0  0
  4  8  1  0  0  0
  8  9  1  0  0  0
  9 10  2  0  0  0
  9 12  1  0  0  0
 12 13  1  0  0  0
 13 14  1  0  0  0
 12 15  1  0  0  0
 15 16  2  0  0  0
 15 17  1  0  0  0
 17 19  1  0  0  0
 19 20  2  0  0  0
 20 21  1  0  0  0
 21 22  2  0  0  0
 22 23  1  0  0  0
 22 24  1  0  0  0
 24 25  2  0  0  0
  4  5  1  0  0  0
  5  6  2  0  0  0
  6  7  1  0  0  0
 30 31  1  0  0  0
 31 32  2  0  0  0
 32 33  1  0  0  0
 33 34  2  0  0  0
 34 35  1  0  0  0
 35 36  2  0  0  0
 36 39  1  0  0  0
 39 40  1  0  0  0
 40 41  1  0  0  0
 41 42  1  0  0  0
 42 43  1  0  0  0
 43 44  1  0  0  0
 44 45  1  0  0  0
 45 46  1  0  0  0
 46 47  1  0  0  0
 36 27  1  0  0  0
 47 43  1  0  0  0
 34 29  1  0  0  0
  6  1  1  0  0  0
 14 12  1  0  0  0
 25 19  1  0  0  0
  8 11  1  0  0  0
 17 18  1  0  0  0
M  END
> <minimizedAffinity>
21.05366

> <CNNscore>
0.5524784327

> <CNNaffinity>
6.8610482216

> <CNN_VS>
3.7905812263

> <CNNaffinity_variance>
0.1638903767

$$$$
[H]c1nc2c([H])c(OC([H])([H])C([H])([H])C([H])([H])N3C([H])([H])C([H])([H])C([H])([H])C3([H])[H])c(OC([H])([H])[H])c([H])c2c(Oc2c([H])c([H])c(N([H])C(=O)C3(C(=O)N([H])c4c([H])c([H])c(Cl)c([H])c4[H])C([H])([H])C3([H])[H])c([H])c2F)c1[H]


 47 52  0  0  0  0  0  0  0  0999 V2000
   27.6966    9.3751   57.4767 C   0  0  0  0  0  0  0  0  0  0  0  0
   27.6121   10.7098   57.1747 C   0  0  0  0  0  0  0  0  0  0  0  0
   28.1699   11.6812   58.0279 C   0  0  0  0  0  0  0  0  0  0  0  0
   28.8042   11.3184   59.1715 C   0  0  0  0  0  0  0  0  0  0  0  0
   28.8975    9.9456   59.4902 C   0  0  0  0  0  0  0  0  0  0  0  0
   28.3577    9.0233   58.6595 C   0  0  0  0  0  0  0  0  0  0  0  0
   28.4927    7.6955   58.9941 F   0  0  0  0  0  0  0  0  0  0  0  0
   29.3508   12.2377   60.0977 N   0  0  0  0  0  0  0  0  0  0  0  0
   29.1099   13.5997   60.0628 C   0  0  0  0  0  0  0  0  0  0  0  0
   28.3294   14.0127   59.1076 O   0  0  0  0  0  0  0  0  0  0  0  0
   29.9704   11.8160   60.8235 H   0  0  0  0  0  0  0  0  0  0  0  0
   29.6072   14.6656   60.9529 C   0  0  0  0  0  0  0  0  0  0  0  0
   28.4328   15.5450   61.4940 C   0  0  0  0  0  0  0  0  0  0  0  0
   29.2554   14.6749   62.3943 C   0  0  0  0  0  0  0  0  0  0  0  0
   30.8505   15.3837   60.5865 C   0  0  0  0  0  0  0  0  0  0  0  0
   31.9831   14.8715   60.5423 O   0  0  0  0  0  0  0  0  0  0  0  0
   30.7357   16.7836   60.2588 N   0  0  0  0  0  0  0  0  0  0  0  0
   29.7720   17.2159   60.3068 H   0  0  0  0  0  0  0  0  0  0  0  0
   31.7798   17.6393   59.8828 C   0  0  0  0  0  0  0  0  0  0  0  0
   31.8519   18.3009   58.7010 C   0  0  0  0  0  0  0  0  0  0  0  0
   32.9402   19.1177   58.3756 C   0  0  0  0  0  0  0  0  0  0  0  0
   33.9578   19.2441   59.2914 C   0  0  0  0  0  0  0  0  0  0  0  0
   35.3670   20.2538   58.9594 Cl  0  0  0  0  0  0  0  0  0  0  0  0
   33.9408   18.6005   60.5028 C   0  0  0  0  0  0  0  0  0  0  0  0
   32.8576   17.8127   60.7779 C   0  0  0  0  0  0  0  0  0  0  0  0
   27.1640    8.3973   56.6651 O   0  0  0  0  0  0  0  0  0  0  0  0
   23.8042    7.0046   54.7140 C   0  0  0  0  0  0  0  0  0  0  0  0
   24.9292    7.4598   55.3775 C   0  0  0  0  0  0  0  0  0  0  0  0
   25.9719    8.0317   54.6838 C   0  0  0  0  0  0  0  0  0  0  0  0
   27.1239    8.5213   55.3009 C   0  0  0  0  0  0  0  0  0  0  0  0
   28.1367    9.0933   54.5789 C   0  0  0  0  0  0  0  0  0  0  0  0
   28.0037    9.1847   53.1970 C   0  0  0  0  0  0  0  0  0  0  0  0
   26.8934    8.7141   52.6068 N   0  0  0  0  0  0  0  0  0  0  0  0
   25.8868    8.1465   53.3171 C   0  0  0  0  0  0  0  0  0  0  0  0
   24.7544    7.6869   52.6614 C   0  0  0  0  0  0  0  0  0  0  0  0
   23.6975    7.1135   53.3245 C   0  0  0  0  0  0  0  0  0  0  0  0
   22.9430    5.2468   56.1227 C   0  0  0  0  0  0  0  0  0  0  0  0
   22.7225    6.4196   55.3535 O   0  0  0  0  0  0  0  0  0  0  0  0
   22.6029    6.6816   52.6404 O   0  0  0  0  0  0  0  0  0  0  0  0
   21.2635    6.9845   52.8534 C   0  0  0  0  0  0  0  0  0  0  0  0
   20.8717    7.9728   51.7470 C   0  0  0  0  0  0  0  0  0  0  0  0
   21.5304    9.3132   52.0361 C   0  0  0  0  0  0  0  0  0  0  0  0
   21.0461    9.9324   53.2515 N   0  0  0  0  0  0  0  0  0  0  0  0
   20.6923    8.8702   54.1660 C   0  0  0  0  0  0  0  0  0  0  0  0
   21.0984    9.2818   55.5518 C   0  0  0  0  0  0  0  0  0  0  0  0
   22.2225   10.2405   55.2994 C   0  0  0  0  0  0  0  0  0  0  0  0
   22.1159   10.6839   53.8756 C   0  0  0  0  0  0  0  0  0  0  0  0
 37 38  1  0  0  0
 38 27  1  0  0  0
 27 28  2  0  0  0
 28 29  1  0  0  0
 29 30  2  0  0  0
 30 26  1  0  0  0
 26  1  1  0  0  0
  1  2  2  0  0  0
  2  3  1  0  0  0
  3  4  2  0  0  0
  4  8  1  0  0  0
  8  9  1  0  0  0
  9 10  2  0  0  0
  9 12  1  0  0  0
 12 13  1  0  0  0
 13 14  1  0  0  0
 12 15  1  0  0  0
 15 16  2  0  0  0
 15 17  1  0  0  0
 17 19  1  0  0  0
 19 20  2  0  0  0
 20 21  1  0  0  0
 21 22  2  0  0  0
 22 23  1  0  0  0
 22 24  1  0  0  0
 24 25  2  0  0  0
  4  5  1  0  0  0
  5  6  2  0  0  0
  6  7  1  0  0  0
 30 31  1  0  0  0
 31 32  2  0  0  0
 32 33  1  0  0  0
 33 34  2  0  0  0
 34 35  1  0  0  0
 35 36  2  0  0  0
 36 39  1  0  0  0
 39 40  1  0  0  0
 40 41  1  0  0  0
 41 42  1  0  0  0
 42 43  1  0  0  0
 43 44  1  0  0  0
 44 45  1  0  0  0
 45 46  1  0  0  0
 46 47  1  0  0  0
 36 27  1  0  0  0
 47 43  1  0  0  0
 34 29  1  0  0  0
  6  1  1  0  0  0
 14 12  1  0  0  0
 25 19  1  0  0  0
  8 11  1  0  0  0
 17 18  1  0  0  0
M  END
> <minimizedAffinity>
6.83114

> <CNNscore>
0.5211186409

> <CNNaffinity>
6.9627404213

> <CNN_VS>
3.6284139156

> <CNNaffinity_variance>
0.4023645818

$$$$
[H]c1nc2c([H])c(OC([H])([H])C([H])([H])C([H])([H])N3C([H])([H])C([H])([H])C([H])([H])C3([H])[H])c(OC([H])([H])[H])c([H])c2c(Oc2c([H])c([H])c(N([H])C(=O)C3(C(=O)N([H])c4c([H])c([H])c(Cl)c([H])c4[H])C([H])([H])C3([H])[H])c([H])c2F)c1[H]


 47 52  0  0  0  0  0  0  0  0999 V2000
   27.4999    9.3211   56.5349 C   0  0  0  0  0  0  0  0  0  0  0  0
   26.1990    9.5476   56.9037 C   0  0  0  0  0  0  0  0  0  0  0  0
   25.1350    9.2169   56.0428 C   0  0  0  0  0  0  0  0  0  0  0  0
   25.3729    8.6662   54.8254 C   0  0  0  0  0  0  0  0  0  0  0  0
   26.7099    8.4277   54.4374 C   0  0  0  0  0  0  0  0  0  0  0  0
   27.7221    8.7497   55.2764 C   0  0  0  0  0  0  0  0  0  0  0  0
   29.0084    8.4777   54.8703 F   0  0  0  0  0  0  0  0  0  0  0  0
   24.3598    8.3474   53.8907 N   0  0  0  0  0  0  0  0  0  0  0  0
   23.0296    8.6928   54.0506 C   0  0  0  0  0  0  0  0  0  0  0  0
   22.7412    9.3487   55.1363 O   0  0  0  0  0  0  0  0  0  0  0  0
   24.6838    7.8139   53.0547 H   0  0  0  0  0  0  0  0  0  0  0  0
   21.8772    8.4293   53.1685 C   0  0  0  0  0  0  0  0  0  0  0  0
   21.5375    9.6790   52.2923 C   0  0  0  0  0  0  0  0  0  0  0  0
   22.0418    8.4014   51.6942 C   0  0  0  0  0  0  0  0  0  0  0  0
   20.7231    7.6697   53.7043 C   0  0  0  0  0  0  0  0  0  0  0  0
   20.0284    8.0190   54.6751 O   0  0  0  0  0  0  0  0  0  0  0  0
   20.3834    6.4303   53.0495 N   0  0  0  0  0  0  0  0  0  0  0  0
   20.9828    6.1338   52.2305 H   0  0  0  0  0  0  0  0  0  0  0  0
   19.3327    5.5684   53.3915 C   0  0  0  0  0  0  0  0  0  0  0  0
   19.4391    4.2204   53.4962 C   0  0  0  0  0  0  0  0  0  0  0  0
   18.3406    3.4138   53.8124 C   0  0  0  0  0  0  0  0  0  0  0  0
   17.1246    4.0204   54.0214 C   0  0  0  0  0  0  0  0  0  0  0  0
   15.6884    3.0762   54.4234 Cl  0  0  0  0  0  0  0  0  0  0  0  0
   16.9553    5.3787   53.9302 C   0  0  0  0  0  0  0  0  0  0  0  0
   18.0563    6.1272   53.6186 C   0  0  0  0  0  0  0  0  0  0  0  0
   28.5656    9.6307   57.3517 O   0  0  0  0  0  0  0  0  0  0  0  0
   30.6258    9.2888   60.9116 C   0  0  0  0  0  0  0  0  0  0  0  0
   29.9314    9.3889   59.7196 C   0  0  0  0  0  0  0  0  0  0  0  0
   29.2513   10.5416   59.3963 C   0  0  0  0  0  0  0  0  0  0  0  0
   28.5464   10.7045   58.2028 C   0  0  0  0  0  0  0  0  0  0  0  0
   27.8899   11.8698   57.9108 C   0  0  0  0  0  0  0  0  0  0  0  0
   27.9338   12.9110   58.8325 C   0  0  0  0  0  0  0  0  0  0  0  0
   28.6141   12.7513   59.9790 N   0  0  0  0  0  0  0  0  0  0  0  0
   29.2664   11.5991   60.2735 C   0  0  0  0  0  0  0  0  0  0  0  0
   29.9658   11.4885   61.4661 C   0  0  0  0  0  0  0  0  0  0  0  0
   30.6549   10.3537   61.8167 C   0  0  0  0  0  0  0  0  0  0  0  0
   30.7312    7.2739   62.2325 C   0  0  0  0  0  0  0  0  0  0  0  0
   31.3286    8.1575   61.2954 O   0  0  0  0  0  0  0  0  0  0  0  0
   31.3327   10.2915   62.9954 O   0  0  0  0  0  0  0  0  0  0  0  0
   32.3651   11.1011   63.4535 C   0  0  0  0  0  0  0  0  0  0  0  0
   32.9430   11.7936   62.2123 C   0  0  0  0  0  0  0  0  0  0  0  0
   32.6829   13.2883   62.3235 C   0  0  0  0  0  0  0  0  0  0  0  0
   32.1674   13.8665   61.1006 N   0  0  0  0  0  0  0  0  0  0  0  0
   31.0416   14.6999   61.4580 C   0  0  0  0  0  0  0  0  0  0  0  0
   31.0738   15.9338   60.6031 C   0  0  0  0  0  0  0  0  0  0  0  0
   32.5276   16.0672   60.2640 C   0  0  0  0  0  0  0  0  0  0  0  0
   33.1653   14.7385   60.5153 C   0  0  0  0  0  0  0  0  0  0  0  0
 37 38  1  0  0  0
 38 27  1  0  0  0
 27 28  2  0  0  0
 28 29  1  0  0  0
 29 30  2  0  0  0
 30 26  1  0  0  0
 26  1  1  0  0  0
  1  2  2  0  0  0
  2  3  1  0  0  0
  3  4  2  0  0  0
  4  8  1  0  0  0
  8  9  1  0  0  0
  9 10  2  0  0  0
  9 12  1  0  0  0
 12 13  1  0  0  0
 13 14  1  0  0  0
 12 15  1  0  0  0
 15 16  2  0  0  0
 15 17  1  0  0  0
 17 19  1  0  0  0
 19 20  2  0  0  0
 20 21  1  0  0  0
 21 22  2  0  0  0
 22 23  1  0  0  0
 22 24  1  0  0  0
 24 25  2  0  0  0
  4  5  1  0  0  0
  5  6  2  0  0  0
  6  7  1  0  0  0
 30 31  1  0  0  0
 31 32  2  0  0  0
 32 33  1  0  0  0
 33 34  2  0  0  0
 34 35  1  0  0  0
 35 36  2  0  0  0
 36 39  1  0  0  0
 39 40  1  0  0  0
 40 41  1  0  0  0
 41 42  1  0  0  0
 42 43  1  0  0  0
 43 44  1  0  0  0
 44 45  1  0  0  0
 45 46  1  0  0  0
 46 47  1  0  0  0
 36 27  1  0  0  0
 47 43  1  0  0  0
 34 29  1  0  0  0
  6  1  1  0  0  0
 14 12  1  0  0  0
 25 19  1  0  0  0
  8 11  1  0  0  0
 17 18  1  0  0  0
M  END
> <minimizedAffinity>
11.32826

> <CNNscore>
0.5188332796

> <CNNaffinity>
7.0463156700

> <CNN_VS>
3.6558630466

> <CNNaffinity_variance>
0.0649630353

$$$$
[H]c1nc([H])c2sc(C(=O)N([H])C([H])([H])[H])c([H])c2c1Oc1c([H])c([H])c(N([H])C(=O)C2(C(F)(F)F)C([H])([H])C2([H])[H])c([H])c1[H]


 32 35  0  0  0  0  0  0  0  0999 V2000
   23.0155    8.0851   54.7090 C   0  0  0  0  0  0  0  0  0  0  0  0
   21.8177    8.7184   54.4731 C   0  0  0  0  0  0  0  0  0  0  0  0
   20.7080    7.9680   54.0608 C   0  0  0  0  0  0  0  0  0  0  0  0
   20.7310    6.6226   53.8729 C   0  0  0  0  0  0  0  0  0  0  0  0
   21.9763    5.9991   54.1229 C   0  0  0  0  0  0  0  0  0  0  0  0
   23.0615    6.7257   54.5246 C   0  0  0  0  0  0  0  0  0  0  0  0
   19.6538    5.8026   53.4784 N   0  0  0  0  0  0  0  0  0  0  0  0
   19.3123    4.5868   54.0620 C   0  0  0  0  0  0  0  0  0  0  0  0
   19.9578    4.1051   55.0126 O   0  0  0  0  0  0  0  0  0  0  0  0
   19.0570    6.1539   52.6732 H   0  0  0  0  0  0  0  0  0  0  0  0
   18.1479    3.7666   53.5978 C   0  0  0  0  0  0  0  0  0  0  0  0
   17.0736    3.4054   54.5390 C   0  0  0  0  0  0  0  0  0  0  0  0
   16.8598    4.4535   53.4692 C   0  0  0  0  0  0  0  0  0  0  0  0
   18.5331    2.7079   52.5599 C   0  0  0  0  0  0  0  0  0  0  0  0
   19.5657    1.9589   53.0763 F   0  0  0  0  0  0  0  0  0  0  0  0
   17.4388    1.9007   52.3167 F   0  0  0  0  0  0  0  0  0  0  0  0
   18.8677    3.3461   51.3974 F   0  0  0  0  0  0  0  0  0  0  0  0
   24.1033    8.8197   55.1125 O   0  0  0  0  0  0  0  0  0  0  0  0
   27.9440    9.3834   57.0220 C   0  0  0  0  0  0  0  0  0  0  0  0
   26.6730    9.2310   56.5323 C   0  0  0  0  0  0  0  0  0  0  0  0
   26.5449    8.9152   55.2262 C   0  0  0  0  0  0  0  0  0  0  0  0
   25.3579    8.7072   54.4938 C   0  0  0  0  0  0  0  0  0  0  0  0
   25.3802    8.3898   53.1633 C   0  0  0  0  0  0  0  0  0  0  0  0
   26.5286    8.2566   52.4736 N   0  0  0  0  0  0  0  0  0  0  0  0
   27.6799    8.4465   53.1368 C   0  0  0  0  0  0  0  0  0  0  0  0
   27.6970    8.7748   54.5053 C   0  0  0  0  0  0  0  0  0  0  0  0
   28.9159    9.0844   55.6582 S   0  0  0  0  0  0  0  0  0  0  0  0
   29.0779   11.3509   60.1152 C   0  0  0  0  0  0  0  0  0  0  0  0
   28.7003   11.0307   58.7579 N   0  0  0  0  0  0  0  0  0  0  0  0
   28.3325    9.7245   58.4039 C   0  0  0  0  0  0  0  0  0  0  0  0
   28.3240    8.8156   59.2498 O   0  0  0  0  0  0  0  0  0  0  0  0
   28.6987   11.7730   58.0292 H   0  0  0  0  0  0  0  0  0  0  0  0
 28 29  1  0  0  0
 29 30  1  0  0  0
 30 31  2  0  0  0
 30 19  1  0  0  0
 19 20  2  0  0  0
 20 21  1  0  0  0
 21 22  2  0  0  0
 22 18  1  0  0  0
 18  1  1  0  0  0
  1  2  2  0  0  0
  2  3  1  0  0  0
  3  4  2  0  0  0
  4  7  1  0  0  0
  7  8  1  0  0  0
  8  9  2  0  0  0
  8 11  1  0  0  0
 11 12  1  0  0  0
 12 13  1  0  0  0
 11 14  1  0  0  0
 14 15  1  0  0  0
 14 16  1  0  0  0
 14 17  1  0  0  0
  4  5  1  0  0  0
  5  6  2  0  0  0
 22 23  1  0  0  0
 23 24  2  0  0  0
 24 25  1  0  0  0
 25 26  2  0  0  0
 26 27  1  0  0  0
 27 19  1  0  0  0
 26 21  1  0  0  0
  6  1  1  0  0  0
 13 11  1  0  0  0
 29 32  1  0  0  0
  7 10  1  0  0  0
M  END
> <minimizedAffinity>
20.47257

> <CNNscore>
0.6351847649

> <CNNaffinity>
6.6208381653

> <CNN_VS>
4.2054553032

> <CNNaffinity_variance>
0.2184837759

$$$$
[H]c1nc([H])c2sc(C(=O)N([H])C([H])([H])[H])c([H])c2c1Oc1c([H])c([H])c(N([H])C(=O)C2(C(F)(F)F)C([H])([H])C2([H])[H])c([H])c1[H]


 32 35  0  0  0  0  0  0  0  0999 V2000
   25.4670    8.4000   54.6748 C   0  0  0  0  0  0  0  0  0  0  0  0
   26.8153    8.1998   54.4918 C   0  0  0  0  0  0  0  0  0  0  0  0
   27.7254    8.7348   55.4138 C   0  0  0  0  0  0  0  0  0  0  0  0
   27.3613    9.4563   56.5059 C   0  0  0  0  0  0  0  0  0  0  0  0
   25.9685    9.6460   56.6675 C   0  0  0  0  0  0  0  0  0  0  0  0
   25.0768    9.1271   55.7718 C   0  0  0  0  0  0  0  0  0  0  0  0
   28.2166   10.0078   57.4820 N   0  0  0  0  0  0  0  0  0  0  0  0
   28.3527    9.5447   58.7867 C   0  0  0  0  0  0  0  0  0  0  0  0
   27.7022    8.5719   59.2143 O   0  0  0  0  0  0  0  0  0  0  0  0
   28.8051   10.8405   57.1849 H   0  0  0  0  0  0  0  0  0  0  0  0
   29.2874   10.1737   59.7739 C   0  0  0  0  0  0  0  0  0  0  0  0
   29.8493    9.3738   60.8762 C   0  0  0  0  0  0  0  0  0  0  0  0
   30.6985    9.7861   59.6940 C   0  0  0  0  0  0  0  0  0  0  0  0
   28.9330   11.6287   60.0958 C   0  0  0  0  0  0  0  0  0  0  0  0
   28.3533   12.1846   58.9782 F   0  0  0  0  0  0  0  0  0  0  0  0
   28.0416   11.6494   61.1509 F   0  0  0  0  0  0  0  0  0  0  0  0
   30.0752   12.2752   60.4807 F   0  0  0  0  0  0  0  0  0  0  0  0
   24.5747    7.8767   53.7717 O   0  0  0  0  0  0  0  0  0  0  0  0
   20.7075    6.0059   53.2620 C   0  0  0  0  0  0  0  0  0  0  0  0
   21.9795    6.4803   53.4505 C   0  0  0  0  0  0  0  0  0  0  0  0
   22.1768    7.8064   53.2935 C   0  0  0  0  0  0  0  0  0  0  0  0
   23.3799    8.5291   53.4308 C   0  0  0  0  0  0  0  0  0  0  0  0
   23.4313    9.8828   53.2400 C   0  0  0  0  0  0  0  0  0  0  0  0
   22.3443   10.6058   52.9114 N   0  0  0  0  0  0  0  0  0  0  0  0
   21.1799    9.9529   52.7720 C   0  0  0  0  0  0  0  0  0  0  0  0
   21.0879    8.5610   52.9597 C   0  0  0  0  0  0  0  0  0  0  0  0
   19.8306    7.4111   52.8745 S   0  0  0  0  0  0  0  0  0  0  0  0
   18.4545    2.9147   53.5677 C   0  0  0  0  0  0  0  0  0  0  0  0
   18.8877    4.2886   53.4559 N   0  0  0  0  0  0  0  0  0  0  0  0
   20.2510    4.6076   53.3770 C   0  0  0  0  0  0  0  0  0  0  0  0
   21.1146    3.7157   53.4020 O   0  0  0  0  0  0  0  0  0  0  0  0
   18.1853    5.0554   53.4329 H   0  0  0  0  0  0  0  0  0  0  0  0
 28 29  1  0  0  0
 29 30  1  0  0  0
 30 31  2  0  0  0
 30 19  1  0  0  0
 19 20  2  0  0  0
 20 21  1  0  0  0
 21 22  2  0  0  0
 22 18  1  0  0  0
 18  1  1  0  0  0
  1  2  2  0  0  0
  2  3  1  0  0  0
  3  4  2  0  0  0
  4  7  1  0  0  0
  7  8  1  0  0  0
  8  9  2  0  0  0
  8 11  1  0  0  0
 11 12  1  0  0  0
 12 13  1  0  0  0
 11 14  1  0  0  0
 14 15  1  0  0  0
 14 16  1  0  0  0
 14 17  1  0  0  0
  4  5  1  0  0  0
  5  6  2  0  0  0
 22 23  1  0  0  0
 23 24  2  0  0  0
 24 25  1  0  0  0
 25 26  2  0  0  0
 26 27  1  0  0  0
 27 19  1  0  0  0
 26 21  1  0  0  0
  6  1  1  0  0  0
 13 11  1  0  0  0
 29 32  1  0  0  0
  7 10  1  0  0  0
M  END
> <minimizedAffinity>
13.78144

> <CNNscore>
0.6031237841

> <CNNaffinity>
6.3125457764

> <CNN_VS>
3.8072464466

> <CNNaffinity_variance>
0.2342569381

$$$$
[H]c1nc([H])c2sc(C(=O)N([H])C([H])([H])[H])c([H])c2c1Oc1c([H])c([H])c(N([H])C(=O)C2(C(F)(F)F)C([H])([H])C2([H])[H])c([H])c1[H]


 32 35  0  0  0  0  0  0  0  0999 V2000
   26.4161    8.5425   54.8026 C   0  0  0  0  0  0  0  0  0  0  0  0
   25.6617    9.0654   55.8268 C   0  0  0  0  0  0  0  0  0  0  0  0
   26.3002    9.5777   56.9644 C   0  0  0  0  0  0  0  0  0  0  0  0
   27.6483    9.5960   57.1326 C   0  0  0  0  0  0  0  0  0  0  0  0
   28.3977    9.0514   56.0632 C   0  0  0  0  0  0  0  0  0  0  0  0
   27.7806    8.5503   54.9520 C   0  0  0  0  0  0  0  0  0  0  0  0
   28.3584   10.1094   58.2374 N   0  0  0  0  0  0  0  0  0  0  0  0
   28.2813   11.4168   58.7064 C   0  0  0  0  0  0  0  0  0  0  0  0
   27.5546   12.2718   58.1649 O   0  0  0  0  0  0  0  0  0  0  0  0
   28.9969    9.4330   58.7501 H   0  0  0  0  0  0  0  0  0  0  0  0
   29.0594   11.8967   59.8931 C   0  0  0  0  0  0  0  0  0  0  0  0
   29.4575   13.3115   59.9955 C   0  0  0  0  0  0  0  0  0  0  0  0
   28.3497   12.7441   60.8553 C   0  0  0  0  0  0  0  0  0  0  0  0
   30.0645   10.8637   60.4116 C   0  0  0  0  0  0  0  0  0  0  0  0
   30.8788   11.4839   61.3315 F   0  0  0  0  0  0  0  0  0  0  0  0
   29.3736    9.8295   61.0128 F   0  0  0  0  0  0  0  0  0  0  0  0
   30.7548   10.3604   59.3434 F   0  0  0  0  0  0  0  0  0  0  0  0
   25.7912    8.0400   53.6879 O   0  0  0  0  0  0  0  0  0  0  0  0
   21.8921    9.3760   52.3738 C   0  0  0  0  0  0  0  0  0  0  0  0
   23.1733    9.0681   52.7512 C   0  0  0  0  0  0  0  0  0  0  0  0
   23.3837    7.8520   53.2980 C   0  0  0  0  0  0  0  0  0  0  0  0
   24.5979    7.3051   53.7619 C   0  0  0  0  0  0  0  0  0  0  0  0
   24.6622    6.0479   54.2973 C   0  0  0  0  0  0  0  0  0  0  0  0
   23.5780    5.2584   54.4144 N   0  0  0  0  0  0  0  0  0  0  0  0
   22.4035    5.7441   53.9831 C   0  0  0  0  0  0  0  0  0  0  0  0
   22.2979    7.0329   53.4272 C   0  0  0  0  0  0  0  0  0  0  0  0
   21.0251    7.9725   52.7888 S   0  0  0  0  0  0  0  0  0  0  0  0
   21.3915   13.1031   51.6103 C   0  0  0  0  0  0  0  0  0  0  0  0
   21.8608   11.8809   52.2215 N   0  0  0  0  0  0  0  0  0  0  0  0
   21.4208   10.6321   51.7596 C   0  0  0  0  0  0  0  0  0  0  0  0
   20.6181   10.5505   50.8158 O   0  0  0  0  0  0  0  0  0  0  0  0
   22.5335   11.9203   53.0139 H   0  0  0  0  0  0  0  0  0  0  0  0
 28 29  1  0  0  0
 29 30  1  0  0  0
 30 31  2  0  0  0
 30 19  1  0  0  0
 19 20  2  0  0  0
 20 21  1  0  0  0
 21 22  2  0  0  0
 22 18  1  0  0  0
 18  1  1  0  0  0
  1  2  2  0  0  0
  2  3  1  0  0  0
  3  4  2  0  0  0
  4  7  1  0  0  0
  7  8  1  0  0  0
  8  9  2  0  0  0
  8 11  1  0  0  0
 11 12  1  0  0  0
 12 13  1  0  0  0
 11 14  1  0  0  0
 14 15  1  0  0  0
 14 16  1  0  0  0
 14 17  1  0  0  0
  4  5  1  0  0  0
  5  6  2  0  0  0
 22 23  1  0  0  0
 23 24  2  0  0  0
 24 25  1  0  0  0
 25 26  2  0  0  0
 26 27  1  0  0  0
 27 19  1  0  0  0
 26 21  1  0  0  0
  6  1  1  0  0  0
 13 11  1  0  0  0
 29 32  1  0  0  0
  7 10  1  0  0  0
M  END
> <minimizedAffinity>
4.93859

> <CNNscore>
0.5592811704

> <CNNaffinity>
6.2025246620

> <CNN_VS>
3.4689552784

> <CNNaffinity_variance>
0.1843403280

$$$$
[H]c1nc([H])c2sc(C(=O)N([H])C([H])([H])[H])c([H])c2c1Oc1c([H])c([H])c(N([H])C(=O)C2(C(F)(F)F)C([H])([H])C2([H])[H])c([H])c1[H]


 32 35  0  0  0  0  0  0  0  0999 V2000
   23.0303    7.9467   54.7119 C   0  0  0  0  0  0  0  0  0  0  0  0
   21.7946    8.5379   54.5892 C   0  0  0  0  0  0  0  0  0  0  0  0
   20.7049    7.7768   54.1445 C   0  0  0  0  0  0  0  0  0  0  0  0
   20.7835    6.4605   53.8176 C   0  0  0  0  0  0  0  0  0  0  0  0
   22.0666    5.8801   53.9535 C   0  0  0  0  0  0  0  0  0  0  0  0
   23.1326    6.6172   54.3862 C   0  0  0  0  0  0  0  0  0  0  0  0
   19.7302    5.6301   53.3822 N   0  0  0  0  0  0  0  0  0  0  0  0
   19.3401    4.4405   53.9886 C   0  0  0  0  0  0  0  0  0  0  0  0
   19.9145    3.9947   55.0003 O   0  0  0  0  0  0  0  0  0  0  0  0
   19.1932    5.9514   52.5239 H   0  0  0  0  0  0  0  0  0  0  0  0
   18.2047    3.6076   53.4777 C   0  0  0  0  0  0  0  0  0  0  0  0
   18.1923    3.1506   52.0771 C   0  0  0  0  0  0  0  0  0  0  0  0
   18.4841    2.1937   53.2119 C   0  0  0  0  0  0  0  0  0  0  0  0
   16.8524    3.9974   54.0823 C   0  0  0  0  0  0  0  0  0  0  0  0
   15.8708    3.2924   53.4242 F   0  0  0  0  0  0  0  0  0  0  0  0
   16.8510    3.6700   55.4244 F   0  0  0  0  0  0  0  0  0  0  0  0
   16.7034    5.3521   53.9667 F   0  0  0  0  0  0  0  0  0  0  0  0
   24.0985    8.6918   55.1470 O   0  0  0  0  0  0  0  0  0  0  0  0
   27.9285    9.4028   57.0288 C   0  0  0  0  0  0  0  0  0  0  0  0
   26.6609    9.1987   56.5490 C   0  0  0  0  0  0  0  0  0  0  0  0
   26.5338    8.9036   55.2379 C   0  0  0  0  0  0  0  0  0  0  0  0
   25.3501    8.6530   54.5134 C   0  0  0  0  0  0  0  0  0  0  0  0
   25.3730    8.3640   53.1765 C   0  0  0  0  0  0  0  0  0  0  0  0
   26.5187    8.3008   52.4726 N   0  0  0  0  0  0  0  0  0  0  0  0
   27.6669    8.5331   53.1278 C   0  0  0  0  0  0  0  0  0  0  0  0
   27.6833    8.8340   54.5027 C   0  0  0  0  0  0  0  0  0  0  0  0
   28.8985    9.1791   55.6493 S   0  0  0  0  0  0  0  0  0  0  0  0
   29.1036   11.3381   60.1269 C   0  0  0  0  0  0  0  0  0  0  0  0
   28.7281   11.0272   58.7668 N   0  0  0  0  0  0  0  0  0  0  0  0
   28.3153    9.7344   58.4135 C   0  0  0  0  0  0  0  0  0  0  0  0
   28.2643    8.8295   59.2623 O   0  0  0  0  0  0  0  0  0  0  0  0
   28.7617   11.7664   58.0357 H   0  0  0  0  0  0  0  0  0  0  0  0
 28 29  1  0  0  0
 29 30  1  0  0  0
 30 31  2  0  0  0
 30 19  1  0  0  0
 19 20  2  0  0  0
 20 21  1  0  0  0
 21 22  2  0  0  0
 22 18  1  0  0  0
 18  1  1  0  0  0
  1  2  2  0  0  0
  2  3  1  0  0  0
  3  4  2  0  0  0
  4  7  1  0  0  0
  7  8  1  0  0  0
  8  9  2  0  0  0
  8 11  1  0  0  0
 11 12  1  0  0  0
 12 13  1  0  0  0
 11 14  1  0  0  0
 14 15  1  0  0  0
 14 16  1  0  0  0
 14 17  1  0  0  0
  4  5  1  0  0  0
  5  6  2  0  0  0
 22 23  1  0  0  0
 23 24  2  0  0  0
 24 25  1  0  0  0
 25 26  2  0  0  0
 26 27  1  0  0  0
 27 19  1  0  0  0
 26 21  1  0  0  0
  6  1  1  0  0  0
 13 11  1  0  0  0
 29 32  1  0  0  0
  7 10  1  0  0  0
M  END
> <minimizedAffinity>
18.22447

> <CNNscore>
0.5520214438

> <CNNaffinity>
6.5663709641

> <CNN_VS>
3.6247775555

> <CNNaffinity_variance>
0.1817922890

$$$$
[H]c1nc([H])c2sc(C(=O)N([H])C([H])([H])[H])c([H])c2c1Oc1c([H])c([H])c(N([H])C(=O)C2(C(F)(F)F)C([H])([H])C2([H])[H])c([H])c1[H]


 32 35  0  0  0  0  0  0  0  0999 V2000
   26.3356    8.4409   54.6489 C   0  0  0  0  0  0  0  0  0  0  0  0
   25.6052    8.9951   55.6740 C   0  0  0  0  0  0  0  0  0  0  0  0
   26.2658    9.6846   56.7000 C   0  0  0  0  0  0  0  0  0  0  0  0
   27.6132    9.8499   56.7560 C   0  0  0  0  0  0  0  0  0  0  0  0
   28.3377    9.2689   55.6885 C   0  0  0  0  0  0  0  0  0  0  0  0
   27.6990    8.5954   54.6859 C   0  0  0  0  0  0  0  0  0  0  0  0
   28.3425   10.5438   57.7434 N   0  0  0  0  0  0  0  0  0  0  0  0
   28.6316   10.0635   59.0165 C   0  0  0  0  0  0  0  0  0  0  0  0
   28.2513    8.9414   59.4021 O   0  0  0  0  0  0  0  0  0  0  0  0
   28.7011   11.5087   57.4815 H   0  0  0  0  0  0  0  0  0  0  0  0
   29.4195   10.8515   60.0177 C   0  0  0  0  0  0  0  0  0  0  0  0
   30.0965   10.1668   61.1328 C   0  0  0  0  0  0  0  0  0  0  0  0
   30.8785   10.7249   59.9642 C   0  0  0  0  0  0  0  0  0  0  0  0
   28.8026   12.2188   60.3276 C   0  0  0  0  0  0  0  0  0  0  0  0
   29.8079   13.0531   60.7602 F   0  0  0  0  0  0  0  0  0  0  0  0
   28.2316   12.7239   59.1755 F   0  0  0  0  0  0  0  0  0  0  0  0
   27.8167   12.0452   61.2597 F   0  0  0  0  0  0  0  0  0  0  0  0
   25.6891    7.7648   53.6436 O   0  0  0  0  0  0  0  0  0  0  0  0
   21.8167    9.2762   52.4456 C   0  0  0  0  0  0  0  0  0  0  0  0
   23.0946    8.9059   52.7748 C   0  0  0  0  0  0  0  0  0  0  0  0
   23.2553    7.7216   53.4024 C   0  0  0  0  0  0  0  0  0  0  0  0
   24.4557    7.1249   53.8402 C   0  0  0  0  0  0  0  0  0  0  0  0
   24.4673    5.9093   54.4676 C   0  0  0  0  0  0  0  0  0  0  0  0
   23.3414    5.2105   54.7052 N   0  0  0  0  0  0  0  0  0  0  0  0
   22.1784    5.7459   54.3026 C   0  0  0  0  0  0  0  0  0  0  0  0
   22.1265    6.9943   53.6545 C   0  0  0  0  0  0  0  0  0  0  0  0
   20.8837    7.9730   53.0157 S   0  0  0  0  0  0  0  0  0  0  0  0
   21.4169   12.9770   51.5136 C   0  0  0  0  0  0  0  0  0  0  0  0
   21.8375   11.7730   52.1926 N   0  0  0  0  0  0  0  0  0  0  0  0
   21.3949   10.5139   51.7621 C   0  0  0  0  0  0  0  0  0  0  0  0
   20.6318   10.4075   50.7884 O   0  0  0  0  0  0  0  0  0  0  0  0
   22.4763   11.8334   53.0112 H   0  0  0  0  0  0  0  0  0  0  0  0
 28 29  1  0  0  0
 29 30  1  0  0  0
 30 31  2  0  0  0
 30 19  1  0  0  0
 19 20  2  0  0  0
 20 21  1  0  0  0
 21 22  2  0  0  0
 22 18  1  0  0  0
 18  1  1  0  0  0
  1  2  2  0  0  0
  2  3  1  0  0  0
  3  4  2  0  0  0
  4  7  1  0  0  0
  7  8  1  0  0  0
  8  9  2  0  0  0
  8 11  1  0  0  0
 11 12  1  0  0  0
 12 13  1  0  0  0
 11 14  1  0  0  0
 14 15  1  0  0  0
 14 16  1  0  0  0
 14 17  1  0  0  0
  4  5  1  0  0  0
  5  6  2  0  0  0
 22 23  1  0  0  0
 23 24  2  0  0  0
 24 25  1  0  0  0
 25 26  2  0  0  0
 26 27  1  0  0  0
 27 19  1  0  0  0
 26 21  1  0  0  0
  6  1  1  0  0  0
 13 11  1  0  0  0
 29 32  1  0  0  0
  7 10  1  0  0  0
M  END
> <minimizedAffinity>
2.37715

> <CNNscore>
0.5456975102

> <CNNaffinity>
6.3401956558

> <CNN_VS>
3.4598290920

> <CNNaffinity_variance>
0.1675248444

$$$$
[H]c1nc([H])c2sc(C(=O)N([H])C([H])([H])[H])c([H])c2c1Oc1c([H])c([H])c(N([H])C(=O)C2(C(F)(F)F)C([H])([H])C2([H])[H])c([H])c1[H]


 32 35  0  0  0  0  0  0  0  0999 V2000
   26.3914    8.4147   54.6625 C   0  0  0  0  0  0  0  0  0  0  0  0
   27.7592    8.5264   54.5723 C   0  0  0  0  0  0  0  0  0  0  0  0
   28.4642    9.2147   55.5690 C   0  0  0  0  0  0  0  0  0  0  0  0
   27.8774    9.7951   56.6483 C   0  0  0  0  0  0  0  0  0  0  0  0
   26.4702    9.6640   56.7138 C   0  0  0  0  0  0  0  0  0  0  0  0
   25.7776    8.9945   55.7448 C   0  0  0  0  0  0  0  0  0  0  0  0
   28.5220   10.4851   57.6956 N   0  0  0  0  0  0  0  0  0  0  0  0
   28.7183    9.9937   58.9820 C   0  0  0  0  0  0  0  0  0  0  0  0
   28.3215    8.8637   59.3259 O   0  0  0  0  0  0  0  0  0  0  0  0
   28.8893   11.4563   57.4717 H   0  0  0  0  0  0  0  0  0  0  0  0
   29.4192   10.7781   60.0485 C   0  0  0  0  0  0  0  0  0  0  0  0
   30.0014   10.0895   61.2135 C   0  0  0  0  0  0  0  0  0  0  0  0
   30.8777   10.6525   60.1164 C   0  0  0  0  0  0  0  0  0  0  0  0
   28.7774   12.1439   60.3111 C   0  0  0  0  0  0  0  0  0  0  0  0
   27.8638   11.9980   61.3299 F   0  0  0  0  0  0  0  0  0  0  0  0
   29.7629   13.0374   60.6838 F   0  0  0  0  0  0  0  0  0  0  0  0
   28.2108   12.5846   59.1468 F   0  0  0  0  0  0  0  0  0  0  0  0
   25.6999    7.7409   53.6861 O   0  0  0  0  0  0  0  0  0  0  0  0
   21.8301    9.2983   52.5395 C   0  0  0  0  0  0  0  0  0  0  0  0
   23.1081    8.9111   52.8484 C   0  0  0  0  0  0  0  0  0  0  0  0
   23.2606    7.7404   53.5029 C   0  0  0  0  0  0  0  0  0  0  0  0
   24.4592    7.1312   53.9280 C   0  0  0  0  0  0  0  0  0  0  0  0
   24.4622    5.9322   54.5867 C   0  0  0  0  0  0  0  0  0  0  0  0
   23.3290    5.2624   54.8688 N   0  0  0  0  0  0  0  0  0  0  0  0
   22.1673    5.8105   54.4796 C   0  0  0  0  0  0  0  0  0  0  0  0
   22.1243    7.0426   53.8003 C   0  0  0  0  0  0  0  0  0  0  0  0
   20.8858    8.0292   53.1652 S   0  0  0  0  0  0  0  0  0  0  0  0
   21.4234   12.9872   51.5640 C   0  0  0  0  0  0  0  0  0  0  0  0
   21.8359   11.7930   52.2649 N   0  0  0  0  0  0  0  0  0  0  0  0
   21.4162   10.5262   51.8338 C   0  0  0  0  0  0  0  0  0  0  0  0
   20.6810   10.4045   50.8406 O   0  0  0  0  0  0  0  0  0  0  0  0
   22.4516   11.8662   53.1001 H   0  0  0  0  0  0  0  0  0  0  0  0
 28 29  1  0  0  0
 29 30  1  0  0  0
 30 31  2  0  0  0
 30 19  1  0  0  0
 19 20  2  0  0  0
 20 21  1  0  0  0
 21 22  2  0  0  0
 22 18  1  0  0  0
 18  1  1  0  0  0
  1  2  2  0  0  0
  2  3  1  0  0  0
  3  4  2  0  0  0
  4  7  1  0  0  0
  7  8  1  0  0  0
  8  9  2  0  0  0
  8 11  1  0  0  0
 11 12  1  0  0  0
 12 13  1  0  0  0
 11 14  1  0  0  0
 14 15  1  0  0  0
 14 16  1  0  0  0
 14 17  1  0  0  0
  4  5  1  0  0  0
  5  6  2  0  0  0
 22 23  1  0  0  0
 23 24  2  0  0  0
 24 25  1  0  0  0
 25 26  2  0  0  0
 26 27  1  0  0  0
 27 19  1  0  0  0
 26 21  1  0  0  0
  6  1  1  0  0  0
 13 11  1  0  0  0
 29 32  1  0  0  0
  7 10  1  0  0  0
M  END
> <minimizedAffinity>
1.79668

> <CNNscore>
0.5447165966

> <CNNaffinity>
6.3806138039

> <CNN_VS>
3.4756262302

> <CNNaffinity_variance>
0.1596789211

$$$$
[H]c1nc([H])c2sc(C(=O)N([H])C([H])([H])[H])c([H])c2c1Oc1c([H])c([H])c(N([H])C(=O)C2(C(F)(F)F)C([H])([H])C2([H])[H])c([H])c1[H]


 32 35  0  0  0  0  0  0  0  0999 V2000
   26.5523    8.6065   54.5790 C   0  0  0  0  0  0  0  0  0  0  0  0
   27.9271    8.6231   54.6136 C   0  0  0  0  0  0  0  0  0  0  0  0
   28.5847    9.0063   55.7905 C   0  0  0  0  0  0  0  0  0  0  0  0
   27.9440    9.3719   56.9315 C   0  0  0  0  0  0  0  0  0  0  0  0
   26.5309    9.3453   56.8656 C   0  0  0  0  0  0  0  0  0  0  0  0
   25.8845    8.9730   55.7209 C   0  0  0  0  0  0  0  0  0  0  0  0
   28.5372    9.7502   58.1535 N   0  0  0  0  0  0  0  0  0  0  0  0
   28.5172   11.0314   58.6951 C   0  0  0  0  0  0  0  0  0  0  0  0
   27.9563   11.9837   58.1199 O   0  0  0  0  0  0  0  0  0  0  0  0
   29.0318    8.9857   58.7004 H   0  0  0  0  0  0  0  0  0  0  0  0
   29.1628   11.3650   60.0050 C   0  0  0  0  0  0  0  0  0  0  0  0
   29.3809   10.3130   61.0131 C   0  0  0  0  0  0  0  0  0  0  0  0
   30.5313   10.8840   60.2136 C   0  0  0  0  0  0  0  0  0  0  0  0
   28.7723   12.7488   60.5333 C   0  0  0  0  0  0  0  0  0  0  0  0
   29.7962   13.2062   61.3310 F   0  0  0  0  0  0  0  0  0  0  0  0
   28.5900   13.6018   59.4622 F   0  0  0  0  0  0  0  0  0  0  0  0
   27.5855   12.6348   61.2035 F   0  0  0  0  0  0  0  0  0  0  0  0
   25.9072    8.2317   53.4261 O   0  0  0  0  0  0  0  0  0  0  0  0
   21.7819    9.0895   54.4066 C   0  0  0  0  0  0  0  0  0  0  0  0
   23.1141    8.9432   54.1193 C   0  0  0  0  0  0  0  0  0  0  0  0
   23.5404    7.7132   53.7622 C   0  0  0  0  0  0  0  0  0  0  0  0
   24.8485    7.3106   53.4224 C   0  0  0  0  0  0  0  0  0  0  0  0
   25.1364    6.0183   53.0777 C   0  0  0  0  0  0  0  0  0  0  0  0
   24.1959    5.0559   53.0413 N   0  0  0  0  0  0  0  0  0  0  0  0
   22.9380    5.4007   53.3582 C   0  0  0  0  0  0  0  0  0  0  0  0
   22.6036    6.7197   53.7183 C   0  0  0  0  0  0  0  0  0  0  0  0
   21.1673    7.5206   54.1722 S   0  0  0  0  0  0  0  0  0  0  0  0
   19.5301   11.5581   56.2933 C   0  0  0  0  0  0  0  0  0  0  0  0
   20.2021   10.3402   55.9028 N   0  0  0  0  0  0  0  0  0  0  0  0
   21.0884   10.3257   54.8161 C   0  0  0  0  0  0  0  0  0  0  0  0
   21.3138   11.3595   54.1664 O   0  0  0  0  0  0  0  0  0  0  0  0
   20.0314    9.4597   56.4297 H   0  0  0  0  0  0  0  0  0  0  0  0
 28 29  1  0  0  0
 29 30  1  0  0  0
 30 31  2  0  0  0
 30 19  1  0  0  0
 19 20  2  0  0  0
 20 21  1  0  0  0
 21 22  2  0  0  0
 22 18  1  0  0  0
 18  1  1  0  0  0
  1  2  2  0  0  0
  2  3  1  0  0  0
  3  4  2  0  0  0
  4  7  1  0  0  0
  7  8  1  0  0  0
  8  9  2  0  0  0
  8 11  1  0  0  0
 11 12  1  0  0  0
 12 13  1  0  0  0
 11 14  1  0  0  0
 14 15  1  0  0  0
 14 16  1  0  0  0
 14 17  1  0  0  0
  4  5  1  0  0  0
  5  6  2  0  0  0
 22 23  1  0  0  0
 23 24  2  0  0  0
 24 25  1  0  0  0
 25 26  2  0  0  0
 26 27  1  0  0  0
 27 19  1  0  0  0
 26 21  1  0  0  0
  6  1  1  0  0  0
 13 11  1  0  0  0
 29 32  1  0  0  0
  7 10  1  0  0  0
M  END
> <minimizedAffinity>
9.59231

> <CNNscore>
0.5265648961

> <CNNaffinity>
6.0417437553

> <CNN_VS>
3.1813702583

> <CNNaffinity_variance>
0.2911790013

$$$$
[H]c1nc([H])c2sc(C(=O)N([H])C([H])([H])[H])c([H])c2c1Oc1c([H])c([H])c(N([H])C(=O)C2(C(F)(F)F)C([H])([H])C2([H])[H])c([H])c1[H]


 32 35  0  0  0  0  0  0  0  0999 V2000
   25.3790    8.2801   54.2234 C   0  0  0  0  0  0  0  0  0  0  0  0
   26.7016    8.5124   54.5207 C   0  0  0  0  0  0  0  0  0  0  0  0
   27.6119    8.7530   53.4825 C   0  0  0  0  0  0  0  0  0  0  0  0
   27.2723    8.7744   52.1671 C   0  0  0  0  0  0  0  0  0  0  0  0
   25.9057    8.5320   51.8923 C   0  0  0  0  0  0  0  0  0  0  0  0
   25.0139    8.2965   52.9003 C   0  0  0  0  0  0  0  0  0  0  0  0
   28.1270    9.0265   51.0743 N   0  0  0  0  0  0  0  0  0  0  0  0
   27.8012    9.7886   49.9571 C   0  0  0  0  0  0  0  0  0  0  0  0
   26.6848   10.3259   49.8258 O   0  0  0  0  0  0  0  0  0  0  0  0
   29.0987    8.6003   51.1206 H   0  0  0  0  0  0  0  0  0  0  0  0
   28.7612   10.0236   48.8314 C   0  0  0  0  0  0  0  0  0  0  0  0
   29.0186   11.3921   48.3502 C   0  0  0  0  0  0  0  0  0  0  0  0
   30.0453   10.6430   49.1708 C   0  0  0  0  0  0  0  0  0  0  0  0
   28.7254    8.9203   47.7695 C   0  0  0  0  0  0  0  0  0  0  0  0
   27.4154    8.5357   47.5967 F   0  0  0  0  0  0  0  0  0  0  0  0
   29.2313    9.4216   46.5858 F   0  0  0  0  0  0  0  0  0  0  0  0
   29.5306    7.8958   48.1855 F   0  0  0  0  0  0  0  0  0  0  0  0
   24.4866    8.0438   55.2400 O   0  0  0  0  0  0  0  0  0  0  0  0
   20.6791    6.6907   53.6951 C   0  0  0  0  0  0  0  0  0  0  0  0
   21.9367    7.0098   54.1368 C   0  0  0  0  0  0  0  0  0  0  0  0
   22.0852    8.1792   54.7947 C   0  0  0  0  0  0  0  0  0  0  0  0
   23.2644    8.7261   55.3413 C   0  0  0  0  0  0  0  0  0  0  0  0
   23.2656    9.9321   55.9871 C   0  0  0  0  0  0  0  0  0  0  0  0
   22.1489   10.6681   56.1408 N   0  0  0  0  0  0  0  0  0  0  0  0
   21.0058   10.1801   55.6341 C   0  0  0  0  0  0  0  0  0  0  0  0
   20.9654    8.9436   54.9628 C   0  0  0  0  0  0  0  0  0  0  0  0
   19.7476    8.0194   54.2057 S   0  0  0  0  0  0  0  0  0  0  0  0
   19.5638    3.1072   52.8957 C   0  0  0  0  0  0  0  0  0  0  0  0
   19.9602    4.2871   53.6293 N   0  0  0  0  0  0  0  0  0  0  0  0
   20.2734    5.4782   52.9587 C   0  0  0  0  0  0  0  0  0  0  0  0
   20.2168    5.5437   51.7201 O   0  0  0  0  0  0  0  0  0  0  0  0
   20.0160    4.2599   54.6677 H   0  0  0  0  0  0  0  0  0  0  0  0
 28 29  1  0  0  0
 29 30  1  0  0  0
 30 31  2  0  0  0
 30 19  1  0  0  0
 19 20  2  0  0  0
 20 21  1  0  0  0
 21 22  2  0  0  0
 22 18  1  0  0  0
 18  1  1  0  0  0
  1  2  2  0  0  0
  2  3  1  0  0  0
  3  4  2  0  0  0
  4  7  1  0  0  0
  7  8  1  0  0  0
  8  9  2  0  0  0
  8 11  1  0  0  0
 11 12  1  0  0  0
 12 13  1  0  0  0
 11 14  1  0  0  0
 14 15  1  0  0  0
 14 16  1  0  0  0
 14 17  1  0  0  0
  4  5  1  0  0  0
  5  6  2  0  0  0
 22 23  1  0  0  0
 23 24  2  0  0  0
 24 25  1  0  0  0
 25 26  2  0  0  0
 26 27  1  0  0  0
 27 19  1  0  0  0
 26 21  1  0  0  0
  6  1  1  0  0  0
 13 11  1  0  0  0
 29 32  1  0  0  0
  7 10  1  0  0  0
M  END
> <minimizedAffinity>
32.10372

> <CNNscore>
0.5123492479

> <CNNaffinity>
6.2452306747

> <CNN_VS>
3.1997392178

> <CNNaffinity_variance>
0.1686962843

$$$$
[H]c1nc([H])c2sc(C(=O)N([H])C([H])([H])[H])c([H])c2c1Oc1c([H])c([H])c(N([H])C(=O)C2(C(F)(F)F)C([H])([H])C2([H])[H])c([H])c1[H]


 32 35  0  0  0  0  0  0  0  0999 V2000
   25.0496    8.0414   54.0551 C   0  0  0  0  0  0  0  0  0  0  0  0
   24.5671    8.6840   55.1712 C   0  0  0  0  0  0  0  0  0  0  0  0
   25.4643    9.1646   56.1347 C   0  0  0  0  0  0  0  0  0  0  0  0
   26.8139    9.0382   56.0427 C   0  0  0  0  0  0  0  0  0  0  0  0
   27.2806    8.3730   54.8844 C   0  0  0  0  0  0  0  0  0  0  0  0
   26.4105    7.9021   53.9420 C   0  0  0  0  0  0  0  0  0  0  0  0
   27.7747    9.5107   56.9603 N   0  0  0  0  0  0  0  0  0  0  0  0
   27.7445    9.3028   58.3355 C   0  0  0  0  0  0  0  0  0  0  0  0
   26.8294    8.6623   58.8874 O   0  0  0  0  0  0  0  0  0  0  0  0
   28.5870   10.0640   56.5578 H   0  0  0  0  0  0  0  0  0  0  0  0
   28.8038    9.8277   59.2554 C   0  0  0  0  0  0  0  0  0  0  0  0
   29.5609   11.0402   58.8988 C   0  0  0  0  0  0  0  0  0  0  0  0
   28.5022   11.0659   59.9791 C   0  0  0  0  0  0  0  0  0  0  0  0
   29.5833    8.7197   59.9702 C   0  0  0  0  0  0  0  0  0  0  0  0
   30.8788    8.7411   59.5065 F   0  0  0  0  0  0  0  0  0  0  0  0
   29.5633    8.9639   61.3297 F   0  0  0  0  0  0  0  0  0  0  0  0
   28.9530    7.5289   59.7346 F   0  0  0  0  0  0  0  0  0  0  0  0
   24.1712    7.5699   53.1108 O   0  0  0  0  0  0  0  0  0  0  0  0
   20.1652    5.9392   53.1996 C   0  0  0  0  0  0  0  0  0  0  0  0
   21.4760    6.3395   53.2123 C   0  0  0  0  0  0  0  0  0  0  0  0
   21.7402    7.6103   52.8416 C   0  0  0  0  0  0  0  0  0  0  0  0
   22.9933    8.2534   52.7718 C   0  0  0  0  0  0  0  0  0  0  0  0
   23.1112    9.5574   52.3755 C   0  0  0  0  0  0  0  0  0  0  0  0
   22.0459   10.3043   52.0294 N   0  0  0  0  0  0  0  0  0  0  0  0
   20.8355    9.7270   52.0835 C   0  0  0  0  0  0  0  0  0  0  0  0
   20.6746    8.3878   52.4858 C   0  0  0  0  0  0  0  0  0  0  0  0
   19.3458    7.3349   52.6758 S   0  0  0  0  0  0  0  0  0  0  0  0
   17.7813    3.1234   54.2547 C   0  0  0  0  0  0  0  0  0  0  0  0
   18.2873    4.4305   53.9039 N   0  0  0  0  0  0  0  0  0  0  0  0
   19.6349    4.6104   53.5604 C   0  0  0  0  0  0  0  0  0  0  0  0
   20.4218    3.6499   53.5509 O   0  0  0  0  0  0  0  0  0  0  0  0
   17.6499    5.2525   53.9039 H   0  0  0  0  0  0  0  0  0  0  0  0
 28 29  1  0  0  0
 29 30  1  0  0  0
 30 31  2  0  0  0
 30 19  1  0  0  0
 19 20  2  0  0  0
 20 21  1  0  0  0
 21 22  2  0  0  0
 22 18  1  0  0  0
 18  1  1  0  0  0
  1  2  2  0  0  0
  2  3  1  0  0  0
  3  4  2  0  0  0
  4  7  1  0  0  0
  7  8  1  0  0  0
  8  9  2  0  0  0
  8 11  1  0  0  0
 11 12  1  0  0  0
 12 13  1  0  0  0
 11 14  1  0  0  0
 14 15  1  0  0  0
 14 16  1  0  0  0
 14 17  1  0  0  0
  4  5  1  0  0  0
  5  6  2  0  0  0
 22 23  1  0  0  0
 23 24  2  0  0  0
 24 25  1  0  0  0
 25 26  2  0  0  0
 26 27  1  0  0  0
 27 19  1  0  0  0
 26 21  1  0  0  0
  6  1  1  0  0  0
 13 11  1  0  0  0
 29 32  1  0  0  0
  7 10  1  0  0  0
M  END
> <minimizedAffinity>
16.94475

> <CNNscore>
0.5087422132

> <CNNaffinity>
6.2297401428

> <CNN_VS>
3.1693317890

> <CNNaffinity_variance>
0.2970235944

$$$$
[H]c1nc(N([H])c2c([H])c([H])c(N3C([H])([H])C([H])([H])N(C([H])([H])[H])C([H])([H])C3([H])[H])c([H])c2OC([H])([H])[H])nc(N([H])c2c([H])c([H])c([H])c([H])c2S(=O)(=O)C([H])(C([H])([H])[H])C([H])([H])[H])c1Cl


 38 41  0  0  0  0  0  0  0  0999 V2000
   25.0185    7.5463   53.7381 C   0  0  0  0  0  0  0  0  0  0  0  0
   24.7855    6.2657   54.0249 N   0  0  0  0  0  0  0  0  0  0  0  0
   23.6273    5.6383   53.8740 C   0  0  0  0  0  0  0  0  0  0  0  0
   22.5571    6.3500   53.3799 C   0  0  0  0  0  0  0  0  0  0  0  0
   20.9974    5.5829   53.1559 Cl  0  0  0  0  0  0  0  0  0  0  0  0
   22.7174    7.7200   53.0483 C   0  0  0  0  0  0  0  0  0  0  0  0
   23.9265    8.2100   53.2510 N   0  0  0  0  0  0  0  0  0  0  0  0
   26.2401    8.2413   53.8881 N   0  0  0  0  0  0  0  0  0  0  0  0
   26.7906    8.3572   52.9649 H   0  0  0  0  0  0  0  0  0  0  0  0
   28.1726    8.7667   55.2251 C   0  0  0  0  0  0  0  0  0  0  0  0
   28.7301    9.2775   56.3699 C   0  0  0  0  0  0  0  0  0  0  0  0
   28.0046    9.8051   57.3986 C   0  0  0  0  0  0  0  0  0  0  0  0
   26.6317    9.8071   57.2416 C   0  0  0  0  0  0  0  0  0  0  0  0
   26.0511    9.2870   56.0753 C   0  0  0  0  0  0  0  0  0  0  0  0
   26.7752    8.7657   55.0589 C   0  0  0  0  0  0  0  0  0  0  0  0
   28.6220   10.3321   58.5538 N   0  0  0  0  0  0  0  0  0  0  0  0
   28.6603   11.7518   58.8775 C   0  0  0  0  0  0  0  0  0  0  0  0
   28.3022   11.9886   60.3313 C   0  0  0  0  0  0  0  0  0  0  0  0
   28.8177   11.0100   61.2341 N   0  0  0  0  0  0  0  0  0  0  0  0
   30.2037   11.1807   61.5573 C   0  0  0  0  0  0  0  0  0  0  0  0
   28.5031    9.6440   60.8125 C   0  0  0  0  0  0  0  0  0  0  0  0
   29.2835    9.4651   59.4997 C   0  0  0  0  0  0  0  0  0  0  0  0
   28.7934    6.9014   53.8202 C   0  0  0  0  0  0  0  0  0  0  0  0
   28.9743    8.2432   54.2130 O   0  0  0  0  0  0  0  0  0  0  0  0
   21.5974    8.4058   52.5241 N   0  0  0  0  0  0  0  0  0  0  0  0
   20.7547    7.7920   52.3137 H   0  0  0  0  0  0  0  0  0  0  0  0
   21.5359    9.7904   52.3051 C   0  0  0  0  0  0  0  0  0  0  0  0
   21.3969   10.3987   51.0778 C   0  0  0  0  0  0  0  0  0  0  0  0
   21.4055   11.7943   50.9091 C   0  0  0  0  0  0  0  0  0  0  0  0
   21.5626   12.5663   52.0412 C   0  0  0  0  0  0  0  0  0  0  0  0
   21.7029   11.9854   53.2764 C   0  0  0  0  0  0  0  0  0  0  0  0
   21.6927   10.6134   53.4373 C   0  0  0  0  0  0  0  0  0  0  0  0
   21.8200    9.8767   55.0074 S   0  0  0  0  0  0  0  0  0  0  0  0
   23.1367   10.1267   55.6831 O   0  0  0  0  0  0  0  0  0  0  0  0
   20.8052   10.6290   55.8915 O   0  0  0  0  0  0  0  0  0  0  0  0
   21.3035    8.2007   55.0435 C   0  0  0  0  0  0  0  0  0  0  0  0
   19.7698    8.1251   55.0288 C   0  0  0  0  0  0  0  0  0  0  0  0
   21.6991    7.5211   56.3598 C   0  0  0  0  0  0  0  0  0  0  0  0
 23 24  1  0  0  0
 24 10  1  0  0  0
 10 11  2  0  0  0
 11 12  1  0  0  0
 12 13  2  0  0  0
 13 14  1  0  0  0
 14 15  2  0  0  0
 15  8  1  0  0  0
  8  1  1  0  0  0
  1  2  2  0  0  0
  2  3  1  0  0  0
  3  4  2  0  0  0
  4  5  1  0  0  0
  4  6  1  0  0  0
  6 25  1  0  0  0
 25 27  1  0  0  0
 27 28  2  0  0  0
 28 29  1  0  0  0
 29 30  2  0  0  0
 30 31  1  0  0  0
 31 32  2  0  0  0
 32 33  1  0  0  0
 33 34  2  0  0  0
 33 35  2  0  0  0
 33 36  1  0  0  0
 36 37  1  0  0  0
 36 38  1  0  0  0
  6  7  2  0  0  0
 12 16  1  0  0  0
 16 17  1  0  0  0
 17 18  1  0  0  0
 18 19  1  0  0  0
 19 20  1  0  0  0
 19 21  1  0  0  0
 21 22  1  0  0  0
 15 10  1  0  0  0
  7  1  1  0  0  0
 22 16  1  0  0  0
 32 27  1  0  0  0
  8  9  1  0  0  0
 25 26  1  0  0  0
M  END
> <minimizedAffinity>
12.48378

> <CNNscore>
0.6317015886

> <CNNaffinity>
7.1021757126

> <CNN_VS>
4.4864559174

> <CNNaffinity_variance>
0.4002474844

$$$$
[H]c1nc(N([H])c2c([H])c([H])c(N3C([H])([H])C([H])([H])N(C([H])([H])[H])C([H])([H])C3([H])[H])c([H])c2OC([H])([H])[H])nc(N([H])c2c([H])c([H])c([H])c([H])c2S(=O)(=O)C([H])(C([H])([H])[H])C([H])([H])[H])c1Cl


 38 41  0  0  0  0  0  0  0  0999 V2000
   25.3374    7.8646   53.4814 C   0  0  0  0  0  0  0  0  0  0  0  0
   24.8771    6.6383   53.2353 N   0  0  0  0  0  0  0  0  0  0  0  0
   23.6464    6.3390   52.8433 C   0  0  0  0  0  0  0  0  0  0  0  0
   22.7472    7.3670   52.6683 C   0  0  0  0  0  0  0  0  0  0  0  0
   21.1042    7.0424   52.1522 Cl  0  0  0  0  0  0  0  0  0  0  0  0
   23.1541    8.7047   52.9085 C   0  0  0  0  0  0  0  0  0  0  0  0
   24.4085    8.8505   53.2937 N   0  0  0  0  0  0  0  0  0  0  0  0
   26.6416    8.2139   53.8996 N   0  0  0  0  0  0  0  0  0  0  0  0
   27.3861    8.1265   53.1205 H   0  0  0  0  0  0  0  0  0  0  0  0
   28.3978    8.9249   55.3857 C   0  0  0  0  0  0  0  0  0  0  0  0
   28.8193    9.3472   56.6211 C   0  0  0  0  0  0  0  0  0  0  0  0
   27.9880    9.5185   57.6901 C   0  0  0  0  0  0  0  0  0  0  0  0
   26.6514    9.2402   57.4770 C   0  0  0  0  0  0  0  0  0  0  0  0
   26.2096    8.8075   56.2178 C   0  0  0  0  0  0  0  0  0  0  0  0
   27.0381    8.6398   55.1619 C   0  0  0  0  0  0  0  0  0  0  0  0
   28.4641    9.9680   58.9410 N   0  0  0  0  0  0  0  0  0  0  0  0
   28.7443    9.0871   60.0668 C   0  0  0  0  0  0  0  0  0  0  0  0
   30.0778    9.4248   60.7036 C   0  0  0  0  0  0  0  0  0  0  0  0
   30.3653   10.8218   60.7681 N   0  0  0  0  0  0  0  0  0  0  0  0
   29.6940   11.5116   61.8302 C   0  0  0  0  0  0  0  0  0  0  0  0
   30.1979   11.4844   59.4736 C   0  0  0  0  0  0  0  0  0  0  0  0
   28.6919   11.3726   59.1844 C   0  0  0  0  0  0  0  0  0  0  0  0
   30.2124    7.6956   54.3685 C   0  0  0  0  0  0  0  0  0  0  0  0
   29.3022    8.7717   54.3370 O   0  0  0  0  0  0  0  0  0  0  0  0
   22.2039    9.7301   52.6953 N   0  0  0  0  0  0  0  0  0  0  0  0
   22.0167    9.9618   51.6743 H   0  0  0  0  0  0  0  0  0  0  0  0
   21.5101   10.4037   53.7120 C   0  0  0  0  0  0  0  0  0  0  0  0
   21.1869    9.8764   54.9420 C   0  0  0  0  0  0  0  0  0  0  0  0
   20.4330   10.5752   55.9010 C   0  0  0  0  0  0  0  0  0  0  0  0
   20.0097   11.8451   55.5687 C   0  0  0  0  0  0  0  0  0  0  0  0
   20.3183   12.3943   54.3496 C   0  0  0  0  0  0  0  0  0  0  0  0
   21.0604   11.7041   53.4109 C   0  0  0  0  0  0  0  0  0  0  0  0
   21.4950   12.4174   51.8855 S   0  0  0  0  0  0  0  0  0  0  0  0
   22.9714   12.6324   51.7221 O   0  0  0  0  0  0  0  0  0  0  0  0
   21.1608   11.3465   50.8277 O   0  0  0  0  0  0  0  0  0  0  0  0
   20.5167   13.8077   51.4534 C   0  0  0  0  0  0  0  0  0  0  0  0
   21.3837   14.8577   50.7437 C   0  0  0  0  0  0  0  0  0  0  0  0
   19.9942   14.5336   52.6988 C   0  0  0  0  0  0  0  0  0  0  0  0
 23 24  1  0  0  0
 24 10  1  0  0  0
 10 11  2  0  0  0
 11 12  1  0  0  0
 12 13  2  0  0  0
 13 14  1  0  0  0
 14 15  2  0  0  0
 15  8  1  0  0  0
  8  1  1  0  0  0
  1  2  2  0  0  0
  2  3  1  0  0  0
  3  4  2  0  0  0
  4  5  1  0  0  0
  4  6  1  0  0  0
  6 25  1  0  0  0
 25 27  1  0  0  0
 27 28  2  0  0  0
 28 29  1  0  0  0
 29 30  2  0  0  0
 30 31  1  0  0  0
 31 32  2  0  0  0
 32 33  1  0  0  0
 33 34  2  0  0  0
 33 35  2  0  0  0
 33 36  1  0  0  0
 36 37  1  0  0  0
 36 38  1  0  0  0
  6  7  2  0  0  0
 12 16  1  0  0  0
 16 17  1  0  0  0
 17 18  1  0  0  0
 18 19  1  0  0  0
 19 20  1  0  0  0
 19 21  1  0  0  0
 21 22  1  0  0  0
 15 10  1  0  0  0
  7  1  1  0  0  0
 22 16  1  0  0  0
 32 27  1  0  0  0
  8  9  1  0  0  0
 25 26  1  0  0  0
M  END
> <minimizedAffinity>
30.98721

> <CNNscore>
0.6256766915

> <CNNaffinity>
6.8724241257

> <CNN_VS>
4.2999157906

> <CNNaffinity_variance>
0.5566004515

$$$$
[H]c1nc(N([H])c2c([H])c([H])c(N3C([H])([H])C([H])([H])N(C([H])([H])[H])C([H])([H])C3([H])[H])c([H])c2OC([H])([H])[H])nc(N([H])c2c([H])c([H])c([H])c([H])c2S(=O)(=O)C([H])(C([H])([H])[H])C([H])([H])[H])c1Cl


 38 41  0  0  0  0  0  0  0  0999 V2000
   25.2811    7.2725   53.9398 C   0  0  0  0  0  0  0  0  0  0  0  0
   25.2212    6.0218   53.4833 N   0  0  0  0  0  0  0  0  0  0  0  0
   24.1208    5.2902   53.3758 C   0  0  0  0  0  0  0  0  0  0  0  0
   22.9233    5.8488   53.7630 C   0  0  0  0  0  0  0  0  0  0  0  0
   21.4306    4.9377   53.6479 Cl  0  0  0  0  0  0  0  0  0  0  0  0
   22.8961    7.1768   54.2613 C   0  0  0  0  0  0  0  0  0  0  0  0
   24.0680    7.7829   54.3113 N   0  0  0  0  0  0  0  0  0  0  0  0
   26.4372    8.0760   54.0657 N   0  0  0  0  0  0  0  0  0  0  0  0
   26.9849    8.1978   53.1415 H   0  0  0  0  0  0  0  0  0  0  0  0
   28.2883    8.6194   55.5066 C   0  0  0  0  0  0  0  0  0  0  0  0
   28.7882    9.2213   56.6336 C   0  0  0  0  0  0  0  0  0  0  0  0
   28.0245    9.9151   57.5270 C   0  0  0  0  0  0  0  0  0  0  0  0
   26.6737    9.9940   57.2464 C   0  0  0  0  0  0  0  0  0  0  0  0
   26.1519    9.3821   56.0969 C   0  0  0  0  0  0  0  0  0  0  0  0
   26.9138    8.6959   55.2149 C   0  0  0  0  0  0  0  0  0  0  0  0
   28.5843   10.5301   58.6680 N   0  0  0  0  0  0  0  0  0  0  0  0
   28.4448   11.9467   58.9772 C   0  0  0  0  0  0  0  0  0  0  0  0
   28.0783   12.1526   60.4336 C   0  0  0  0  0  0  0  0  0  0  0  0
   28.7264   11.2584   61.3384 N   0  0  0  0  0  0  0  0  0  0  0  0
   30.0833   11.6086   61.6400 C   0  0  0  0  0  0  0  0  0  0  0  0
   28.5838    9.8586   60.9349 C   0  0  0  0  0  0  0  0  0  0  0  0
   29.3635    9.7657   59.6128 C   0  0  0  0  0  0  0  0  0  0  0  0
   30.4581    8.3607   54.4754 C   0  0  0  0  0  0  0  0  0  0  0  0
   29.1267    7.9262   54.6361 O   0  0  0  0  0  0  0  0  0  0  0  0
   21.6415    7.7172   54.6268 N   0  0  0  0  0  0  0  0  0  0  0  0
   20.8586    7.0041   54.7258 H   0  0  0  0  0  0  0  0  0  0  0  0
   21.3970    9.0754   54.8801 C   0  0  0  0  0  0  0  0  0  0  0  0
   21.2092    9.6338   56.1245 C   0  0  0  0  0  0  0  0  0  0  0  0
   20.9032   10.9925   56.3162 C   0  0  0  0  0  0  0  0  0  0  0  0
   20.7910   11.7797   55.1893 C   0  0  0  0  0  0  0  0  0  0  0  0
   20.9736   11.2483   53.9374 C   0  0  0  0  0  0  0  0  0  0  0  0
   21.2752    9.9127   53.7541 C   0  0  0  0  0  0  0  0  0  0  0  0
   21.5564    9.2484   52.1717 S   0  0  0  0  0  0  0  0  0  0  0  0
   21.3643   10.2398   51.0613 O   0  0  0  0  0  0  0  0  0  0  0  0
   23.0653    8.9344   52.1263 O   0  0  0  0  0  0  0  0  0  0  0  0
   20.7608    7.7085   51.9023 C   0  0  0  0  0  0  0  0  0  0  0  0
   20.0625    7.7121   50.5347 C   0  0  0  0  0  0  0  0  0  0  0  0
   19.6215    7.4842   52.9036 C   0  0  0  0  0  0  0  0  0  0  0  0
 23 24  1  0  0  0
 24 10  1  0  0  0
 10 11  2  0  0  0
 11 12  1  0  0  0
 12 13  2  0  0  0
 13 14  1  0  0  0
 14 15  2  0  0  0
 15  8  1  0  0  0
  8  1  1  0  0  0
  1  2  2  0  0  0
  2  3  1  0  0  0
  3  4  2  0  0  0
  4  5  1  0  0  0
  4  6  1  0  0  0
  6 25  1  0  0  0
 25 27  1  0  0  0
 27 28  2  0  0  0
 28 29  1  0  0  0
 29 30  2  0  0  0
 30 31  1  0  0  0
 31 32  2  0  0  0
 32 33  1  0  0  0
 33 34  2  0  0  0
 33 35  2  0  0  0
 33 36  1  0  0  0
 36 37  1  0  0  0
 36 38  1  0  0  0
  6  7  2  0  0  0
 12 16  1  0  0  0
 16 17  1  0  0  0
 17 18  1  0  0  0
 18 19  1  0  0  0
 19 20  1  0  0  0
 19 21  1  0  0  0
 21 22  1  0  0  0
 15 10  1  0  0  0
  7  1  1  0  0  0
 22 16  1  0  0  0
 32 27  1  0  0  0
  8  9  1  0  0  0
 25 26  1  0  0  0
M  END
> <minimizedAffinity>
21.62938

> <CNNscore>
0.5882691145

> <CNNaffinity>
6.8751611710

> <CNN_VS>
4.0444450378

> <CNNaffinity_variance>
0.8549262881

$$$$
[H]c1nc(N([H])c2c([H])c([H])c(N3C([H])([H])C([H])([H])N(C([H])([H])[H])C([H])([H])C3([H])[H])c([H])c2OC([H])([H])[H])nc(N([H])c2c([H])c([H])c([H])c([H])c2S(=O)(=O)C([H])(C([H])([H])[H])C([H])([H])[H])c1Cl


 38 41  0  0  0  0  0  0  0  0999 V2000
   25.9765    7.6735   54.2374 C   0  0  0  0  0  0  0  0  0  0  0  0
   26.0083    6.3411   54.2477 N   0  0  0  0  0  0  0  0  0  0  0  0
   24.9652    5.5418   54.0726 C   0  0  0  0  0  0  0  0  0  0  0  0
   23.7309    6.1138   53.8598 C   0  0  0  0  0  0  0  0  0  0  0  0
   22.3099    5.1162   53.6214 Cl  0  0  0  0  0  0  0  0  0  0  0  0
   23.6066    7.5268   53.8334 C   0  0  0  0  0  0  0  0  0  0  0  0
   24.7302    8.1939   54.0226 N   0  0  0  0  0  0  0  0  0  0  0  0
   27.0698    8.5504   54.4207 N   0  0  0  0  0  0  0  0  0  0  0  0
   27.6107    8.7674   53.5101 H   0  0  0  0  0  0  0  0  0  0  0  0
   28.5846   10.0231   55.5761 C   0  0  0  0  0  0  0  0  0  0  0  0
   29.0271   10.6139   56.7326 C   0  0  0  0  0  0  0  0  0  0  0  0
   28.4691   10.3958   57.9589 C   0  0  0  0  0  0  0  0  0  0  0  0
   27.3986    9.5228   57.9981 C   0  0  0  0  0  0  0  0  0  0  0  0
   26.9382    8.9130   56.8216 C   0  0  0  0  0  0  0  0  0  0  0  0
   27.4950    9.1332   55.6089 C   0  0  0  0  0  0  0  0  0  0  0  0
   28.9495   11.0363   59.1218 N   0  0  0  0  0  0  0  0  0  0  0  0
   28.4245   12.2965   59.6300 C   0  0  0  0  0  0  0  0  0  0  0  0
   28.1922   12.2258   61.1263 C   0  0  0  0  0  0  0  0  0  0  0  0
   29.1863   11.4952   61.8450 N   0  0  0  0  0  0  0  0  0  0  0  0
   30.3985   12.2241   62.0770 C   0  0  0  0  0  0  0  0  0  0  0  0
   29.4281   10.1712   61.2694 C   0  0  0  0  0  0  0  0  0  0  0  0
   30.0328   10.4656   59.8866 C   0  0  0  0  0  0  0  0  0  0  0  0
   30.2353   11.2491   54.3070 C   0  0  0  0  0  0  0  0  0  0  0  0
   29.2018   10.2916   54.3561 O   0  0  0  0  0  0  0  0  0  0  0  0
   22.3240    8.0704   53.5904 N   0  0  0  0  0  0  0  0  0  0  0  0
   21.7765    7.5954   52.8121 H   0  0  0  0  0  0  0  0  0  0  0  0
   21.7552    9.1337   54.3078 C   0  0  0  0  0  0  0  0  0  0  0  0
   21.5467    9.1570   55.6685 C   0  0  0  0  0  0  0  0  0  0  0  0
   20.9128   10.2244   56.3283 C   0  0  0  0  0  0  0  0  0  0  0  0
   20.4895   11.2838   55.5532 C   0  0  0  0  0  0  0  0  0  0  0  0
   20.6851   11.2858   54.1950 C   0  0  0  0  0  0  0  0  0  0  0  0
   21.3096   10.2351   53.5513 C   0  0  0  0  0  0  0  0  0  0  0  0
   21.6032   10.2584   51.8374 S   0  0  0  0  0  0  0  0  0  0  0  0
   22.6133    9.2436   51.3874 O   0  0  0  0  0  0  0  0  0  0  0  0
   20.2873    9.7764   51.1943 O   0  0  0  0  0  0  0  0  0  0  0  0
   21.8663   11.8669   51.1892 C   0  0  0  0  0  0  0  0  0  0  0  0
   21.6881   12.9139   52.2982 C   0  0  0  0  0  0  0  0  0  0  0  0
   20.7982   12.2344   50.1524 C   0  0  0  0  0  0  0  0  0  0  0  0
 23 24  1  0  0  0
 24 10  1  0  0  0
 10 11  2  0  0  0
 11 12  1  0  0  0
 12 13  2  0  0  0
 13 14  1  0  0  0
 14 15  2  0  0  0
 15  8  1  0  0  0
  8  1  1  0  0  0
  1  2  2  0  0  0
  2  3  1  0  0  0
  3  4  2  0  0  0
  4  5  1  0  0  0
  4  6  1  0  0  0
  6 25  1  0  0  0
 25 27  1  0  0  0
 27 28  2  0  0  0
 28 29  1  0  0  0
 29 30  2  0  0  0
 30 31  1  0  0  0
 31 32  2  0  0  0
 32 33  1  0  0  0
 33 34  2  0  0  0
 33 35  2  0  0  0
 33 36  1  0  0  0
 36 37  1  0  0  0
 36 38  1  0  0  0
  6  7  2  0  0  0
 12 16  1  0  0  0
 16 17  1  0  0  0
 17 18  1  0  0  0
 18 19  1  0  0  0
 19 20  1  0  0  0
 19 21  1  0  0  0
 21 22  1  0  0  0
 15 10  1  0  0  0
  7  1  1  0  0  0
 22 16  1  0  0  0
 32 27  1  0  0  0
  8  9  1  0  0  0
 25 26  1  0  0  0
M  END
> <minimizedAffinity>
25.65054

> <CNNscore>
0.5825009346

> <CNNaffinity>
6.8591995239

> <CNN_VS>
3.9954900742

> <CNNaffinity_variance>
0.7454980016

$$$$
[H]c1nc(N([H])c2c([H])c([H])c(N3C([H])([H])C([H])([H])N(C([H])([H])[H])C([H])([H])C3([H])[H])c([H])c2OC([H])([H])[H])nc(N([H])c2c([H])c([H])c([H])c([H])c2S(=O)(=O)C([H])(C([H])([H])[H])C([H])([H])[H])c1Cl


 38 41  0  0  0  0  0  0  0  0999 V2000
   27.7412    8.8459   56.8045 C   0  0  0  0  0  0  0  0  0  0  0  0
   28.5418    9.0584   55.7604 N   0  0  0  0  0  0  0  0  0  0  0  0
   28.1927    8.9564   54.4854 C   0  0  0  0  0  0  0  0  0  0  0  0
   26.8960    8.6014   54.1885 C   0  0  0  0  0  0  0  0  0  0  0  0
   26.3675    8.4478   52.5246 Cl  0  0  0  0  0  0  0  0  0  0  0  0
   25.9762    8.3564   55.2405 C   0  0  0  0  0  0  0  0  0  0  0  0
   26.4650    8.4963   56.4589 N   0  0  0  0  0  0  0  0  0  0  0  0
   28.0843    8.9468   58.1719 N   0  0  0  0  0  0  0  0  0  0  0  0
   28.0009    8.0135   58.7113 H   0  0  0  0  0  0  0  0  0  0  0  0
   28.1843   11.3476   58.3271 C   0  0  0  0  0  0  0  0  0  0  0  0
   28.5810   12.4870   58.9804 C   0  0  0  0  0  0  0  0  0  0  0  0
   29.2852   12.4865   60.1496 C   0  0  0  0  0  0  0  0  0  0  0  0
   29.5984   11.2474   60.6751 C   0  0  0  0  0  0  0  0  0  0  0  0
   29.1980   10.0760   60.0153 C   0  0  0  0  0  0  0  0  0  0  0  0
   28.5000   10.0827   58.8568 C   0  0  0  0  0  0  0  0  0  0  0  0
   29.6616   13.6847   60.7945 N   0  0  0  0  0  0  0  0  0  0  0  0
   30.7181   13.7714   61.7936 C   0  0  0  0  0  0  0  0  0  0  0  0
   31.6286   14.9526   61.5222 C   0  0  0  0  0  0  0  0  0  0  0  0
   30.9564   16.1216   61.0533 N   0  0  0  0  0  0  0  0  0  0  0  0
   30.3009   16.8750   62.0815 C   0  0  0  0  0  0  0  0  0  0  0  0
   30.0783   15.8400   59.9165 C   0  0  0  0  0  0  0  0  0  0  0  0
   28.9873   14.9267   60.4996 C   0  0  0  0  0  0  0  0  0  0  0  0
   26.8522   12.6397   56.7796 C   0  0  0  0  0  0  0  0  0  0  0  0
   27.4664   11.4216   57.1353 O   0  0  0  0  0  0  0  0  0  0  0  0
   24.6496    8.0154   54.8890 N   0  0  0  0  0  0  0  0  0  0  0  0
   24.4844    6.9790   54.7163 H   0  0  0  0  0  0  0  0  0  0  0  0
   23.5875    8.9270   54.7891 C   0  0  0  0  0  0  0  0  0  0  0  0
   23.4556   10.0822   55.5263 C   0  0  0  0  0  0  0  0  0  0  0  0
   22.3367   10.9280   55.4313 C   0  0  0  0  0  0  0  0  0  0  0  0
   21.3396   10.5600   54.5523 C   0  0  0  0  0  0  0  0  0  0  0  0
   21.4463    9.4138   53.8055 C   0  0  0  0  0  0  0  0  0  0  0  0
   22.5483    8.5863   53.9015 C   0  0  0  0  0  0  0  0  0  0  0  0
   22.7082    7.1600   52.9195 S   0  0  0  0  0  0  0  0  0  0  0  0
   22.2848    7.3619   51.4938 O   0  0  0  0  0  0  0  0  0  0  0  0
   24.2256    6.9053   52.8190 O   0  0  0  0  0  0  0  0  0  0  0  0
   22.0504    5.7143   53.6639 C   0  0  0  0  0  0  0  0  0  0  0  0
   20.5162    5.7492   53.6097 C   0  0  0  0  0  0  0  0  0  0  0  0
   22.3708    5.6608   55.1624 C   0  0  0  0  0  0  0  0  0  0  0  0
 23 24  1  0  0  0
 24 10  1  0  0  0
 10 11  2  0  0  0
 11 12  1  0  0  0
 12 13  2  0  0  0
 13 14  1  0  0  0
 14 15  2  0  0  0
 15  8  1  0  0  0
  8  1  1  0  0  0
  1  2  2  0  0  0
  2  3  1  0  0  0
  3  4  2  0  0  0
  4  5  1  0  0  0
  4  6  1  0  0  0
  6 25  1  0  0  0
 25 27  1  0  0  0
 27 28  2  0  0  0
 28 29  1  0  0  0
 29 30  2  0  0  0
 30 31  1  0  0  0
 31 32  2  0  0  0
 32 33  1  0  0  0
 33 34  2  0  0  0
 33 35  2  0  0  0
 33 36  1  0  0  0
 36 37  1  0  0  0
 36 38  1  0  0  0
  6  7  2  0  0  0
 12 16  1  0  0  0
 16 17  1  0  0  0
 17 18  1  0  0  0
 18 19  1  0  0  0
 19 20  1  0  0  0
 19 21  1  0  0  0
 21 22  1  0  0  0
 15 10  1  0  0  0
  7  1  1  0  0  0
 22 16  1  0  0  0
 32 27  1  0  0  0
  8  9  1  0  0  0
 25 26  1  0  0  0
M  END
> <minimizedAffinity>
9.46502

> <CNNscore>
0.5437920094

> <CNNaffinity>
6.9581222534

> <CNN_VS>
3.7837712765

> <CNNaffinity_variance>
0.1355629712

$$$$
[H]c1nc(N([H])c2c([H])c([H])c(N3C([H])([H])C([H])([H])N(C([H])([H])[H])C([H])([H])C3([H])[H])c([H])c2OC([H])([H])[H])nc(N([H])c2c([H])c([H])c([H])c([H])c2S(=O)(=O)C([H])(C([H])([H])[H])C([H])([H])[H])c1Cl


 38 41  0  0  0  0  0  0  0  0999 V2000
   25.5514    7.8419   54.7950 C   0  0  0  0  0  0  0  0  0  0  0  0
   25.4029    6.5199   54.8751 N   0  0  0  0  0  0  0  0  0  0  0  0
   24.2525    5.8653   54.7970 C   0  0  0  0  0  0  0  0  0  0  0  0
   23.0970    6.5922   54.6177 C   0  0  0  0  0  0  0  0  0  0  0  0
   21.5423    5.7908   54.5066 Cl  0  0  0  0  0  0  0  0  0  0  0  0
   23.1641    8.0061   54.5221 C   0  0  0  0  0  0  0  0  0  0  0  0
   24.3768    8.5193   54.6172 N   0  0  0  0  0  0  0  0  0  0  0  0
   26.7623    8.5666   54.8746 N   0  0  0  0  0  0  0  0  0  0  0  0
   27.2798    8.6539   53.9294 H   0  0  0  0  0  0  0  0  0  0  0  0
   28.4651    9.9606   55.8522 C   0  0  0  0  0  0  0  0  0  0  0  0
   29.0422   10.5508   56.9481 C   0  0  0  0  0  0  0  0  0  0  0  0
   28.5755   10.4068   58.2226 C   0  0  0  0  0  0  0  0  0  0  0  0
   27.4552    9.6129   58.3784 C   0  0  0  0  0  0  0  0  0  0  0  0
   26.8575    9.0044   57.2647 C   0  0  0  0  0  0  0  0  0  0  0  0
   27.3242    9.1510   56.0038 C   0  0  0  0  0  0  0  0  0  0  0  0
   29.1941   11.0441   59.3201 N   0  0  0  0  0  0  0  0  0  0  0  0
   28.7376   12.3048   59.8895 C   0  0  0  0  0  0  0  0  0  0  0  0
   28.6868   12.2320   61.4028 C   0  0  0  0  0  0  0  0  0  0  0  0
   29.7581   11.4977   61.9956 N   0  0  0  0  0  0  0  0  0  0  0  0
   30.9914   12.2231   62.0811 C   0  0  0  0  0  0  0  0  0  0  0  0
   29.9252   10.1740   61.3933 C   0  0  0  0  0  0  0  0  0  0  0  0
   30.3600   10.4692   59.9482 C   0  0  0  0  0  0  0  0  0  0  0  0
   29.9877   11.1333   54.3874 C   0  0  0  0  0  0  0  0  0  0  0  0
   28.9947   10.1509   54.5775 O   0  0  0  0  0  0  0  0  0  0  0  0
   21.9550    8.7101   54.3167 N   0  0  0  0  0  0  0  0  0  0  0  0
   21.1277    8.3535   54.8820 H   0  0  0  0  0  0  0  0  0  0  0  0
   21.8067    9.8177   53.4682 C   0  0  0  0  0  0  0  0  0  0  0  0
   22.0471   11.1277   53.8168 C   0  0  0  0  0  0  0  0  0  0  0  0
   21.8202   12.2066   52.9444 C   0  0  0  0  0  0  0  0  0  0  0  0
   21.3337   11.9114   51.6881 C   0  0  0  0  0  0  0  0  0  0  0  0
   21.0859   10.6143   51.3152 C   0  0  0  0  0  0  0  0  0  0  0  0
   21.3114    9.5573   52.1756 C   0  0  0  0  0  0  0  0  0  0  0  0
   21.0455    7.9094   51.6878 S   0  0  0  0  0  0  0  0  0  0  0  0
   20.9479    7.7316   50.2007 O   0  0  0  0  0  0  0  0  0  0  0  0
   22.3410    7.1619   52.0624 O   0  0  0  0  0  0  0  0  0  0  0  0
   19.7755    7.1034   52.5902 C   0  0  0  0  0  0  0  0  0  0  0  0
   19.6096    7.7654   53.9657 C   0  0  0  0  0  0  0  0  0  0  0  0
   20.1537    5.6536   52.9158 C   0  0  0  0  0  0  0  0  0  0  0  0
 23 24  1  0  0  0
 24 10  1  0  0  0
 10 11  2  0  0  0
 11 12  1  0  0  0
 12 13  2  0  0  0
 13 14  1  0  0  0
 14 15  2  0  0  0
 15  8  1  0  0  0
  8  1  1  0  0  0
  1  2  2  0  0  0
  2  3  1  0  0  0
  3  4  2  0  0  0
  4  5  1  0  0  0
  4  6  1  0  0  0
  6 25  1  0  0  0
 25 27  1  0  0  0
 27 28  2  0  0  0
 28 29  1  0  0  0
 29 30  2  0  0  0
 30 31  1  0  0  0
 31 32  2  0  0  0
 32 33  1  0  0  0
 33 34  2  0  0  0
 33 35  2  0  0  0
 33 36  1  0  0  0
 36 37  1  0  0  0
 36 38  1  0  0  0
  6  7  2  0  0  0
 12 16  1  0  0  0
 16 17  1  0  0  0
 17 18  1  0  0  0
 18 19  1  0  0  0
 19 20  1  0  0  0
 19 21  1  0  0  0
 21 22  1  0  0  0
 15 10  1  0  0  0
  7  1  1  0  0  0
 22 16  1  0  0  0
 32 27  1  0  0  0
  8  9  1  0  0  0
 25 26  1  0  0  0
M  END
> <minimizedAffinity>
15.23885

> <CNNscore>
0.5360098481

> <CNNaffinity>
6.9389700890

> <CNN_VS>
3.7193562984

> <CNNaffinity_variance>
0.5038969517

$$$$
[H]c1nc(N([H])c2c([H])c([H])c(N3C([H])([H])C([H])([H])N(C([H])([H])[H])C([H])([H])C3([H])[H])c([H])c2OC([H])([H])[H])nc(N([H])c2c([H])c([H])c([H])c([H])c2S(=O)(=O)C([H])(C([H])([H])[H])C([H])([H])[H])c1Cl


 38 41  0  0  0  0  0  0  0  0999 V2000
   27.6575    8.9313   56.5464 C   0  0  0  0  0  0  0  0  0  0  0  0
   28.5038    9.0658   55.5257 N   0  0  0  0  0  0  0  0  0  0  0  0
   28.2075    8.8816   54.2466 C   0  0  0  0  0  0  0  0  0  0  0  0
   26.9202    8.5194   53.9188 C   0  0  0  0  0  0  0  0  0  0  0  0
   26.4603    8.2593   52.2478 Cl  0  0  0  0  0  0  0  0  0  0  0  0
   25.9541    8.3541   54.9445 C   0  0  0  0  0  0  0  0  0  0  0  0
   26.3929    8.5710   56.1707 N   0  0  0  0  0  0  0  0  0  0  0  0
   27.9439    9.1207   57.9175 N   0  0  0  0  0  0  0  0  0  0  0  0
   27.8436    8.2225   58.5109 H   0  0  0  0  0  0  0  0  0  0  0  0
   29.1869   10.2304   59.6558 C   0  0  0  0  0  0  0  0  0  0  0  0
   29.5807   11.3780   60.2964 C   0  0  0  0  0  0  0  0  0  0  0  0
   29.1853   12.6301   59.9239 C   0  0  0  0  0  0  0  0  0  0  0  0
   28.3389   12.7061   58.8342 C   0  0  0  0  0  0  0  0  0  0  0  0
   27.9298   11.5390   58.1720 C   0  0  0  0  0  0  0  0  0  0  0  0
   28.3253   10.3007   58.5455 C   0  0  0  0  0  0  0  0  0  0  0  0
   29.6264   13.7854   60.6052 N   0  0  0  0  0  0  0  0  0  0  0  0
   30.8738   13.8596   61.3538 C   0  0  0  0  0  0  0  0  0  0  0  0
   31.6290   15.1331   61.0288 C   0  0  0  0  0  0  0  0  0  0  0  0
   30.8011   16.2833   60.8552 N   0  0  0  0  0  0  0  0  0  0  0  0
   30.3510   16.8740   62.0813 C   0  0  0  0  0  0  0  0  0  0  0  0
   29.7076   16.0443   59.9120 C   0  0  0  0  0  0  0  0  0  0  0  0
   28.8314   14.9904   60.6092 C   0  0  0  0  0  0  0  0  0  0  0  0
   30.4484    8.9066   61.2353 C   0  0  0  0  0  0  0  0  0  0  0  0
   29.6300    8.9828   60.0900 O   0  0  0  0  0  0  0  0  0  0  0  0
   24.6394    8.0025   54.5601 N   0  0  0  0  0  0  0  0  0  0  0  0
   24.5531    7.0644   54.0663 H   0  0  0  0  0  0  0  0  0  0  0  0
   23.4969    8.7777   54.8102 C   0  0  0  0  0  0  0  0  0  0  0  0
   23.4678    9.9420   55.5444 C   0  0  0  0  0  0  0  0  0  0  0  0
   22.2819   10.6456   55.8181 C   0  0  0  0  0  0  0  0  0  0  0  0
   21.1078   10.1234   55.3170 C   0  0  0  0  0  0  0  0  0  0  0  0
   21.1090    8.9646   54.5821 C   0  0  0  0  0  0  0  0  0  0  0  0
   22.2771    8.2773   54.3148 C   0  0  0  0  0  0  0  0  0  0  0  0
   22.2869    6.8362   53.3415 S   0  0  0  0  0  0  0  0  0  0  0  0
   23.6320    6.5143   52.7586 O   0  0  0  0  0  0  0  0  0  0  0  0
   22.0281    5.6795   54.3277 O   0  0  0  0  0  0  0  0  0  0  0  0
   20.9685    6.7563   52.1872 C   0  0  0  0  0  0  0  0  0  0  0  0
   20.8714    8.0777   51.4110 C   0  0  0  0  0  0  0  0  0  0  0  0
   19.6127    6.6364   52.8932 C   0  0  0  0  0  0  0  0  0  0  0  0
 23 24  1  0  0  0
 24 10  1  0  0  0
 10 11  2  0  0  0
 11 12  1  0  0  0
 12 13  2  0  0  0
 13 14  1  0  0  0
 14 15  2  0  0  0
 15  8  1  0  0  0
  8  1  1  0  0  0
  1  2  2  0  0  0
  2  3  1  0  0  0
  3  4  2  0  0  0
  4  5  1  0  0  0
  4  6  1  0  0  0
  6 25  1  0  0  0
 25 27  1  0  0  0
 27 28  2  0  0  0
 28 29  1  0  0  0
 29 30  2  0  0  0
 30 31  1  0  0  0
 31 32  2  0  0  0
 32 33  1  0  0  0
 33 34  2  0  0  0
 33 35  2  0  0  0
 33 36  1  0  0  0
 36 37  1  0  0  0
 36 38  1  0  0  0
  6  7  2  0  0  0
 12 16  1  0  0  0
 16 17  1  0  0  0
 17 18  1  0  0  0
 18 19  1  0  0  0
 19 20  1  0  0  0
 19 21  1  0  0  0
 21 22  1  0  0  0
 15 10  1  0  0  0
  7  1  1  0  0  0
 22 16  1  0  0  0
 32 27  1  0  0  0
  8  9  1  0  0  0
 25 26  1  0  0  0
M  END
> <minimizedAffinity>
3.93098

> <CNNscore>
0.4874168634

> <CNNaffinity>
6.8296442032

> <CNN_VS>
3.3288836479

> <CNNaffinity_variance>
0.3716832101

$$$$
[H]c1nc(N([H])c2c([H])c([H])c(N3C([H])([H])C([H])([H])N(C([H])([H])[H])C([H])([H])C3([H])[H])c([H])c2OC([H])([H])[H])nc(N([H])c2c([H])c([H])c([H])c([H])c2S(=O)(=O)C([H])(C([H])([H])[H])C([H])([H])[H])c1Cl


 38 41  0  0  0  0  0  0  0  0999 V2000
   24.9395    7.0429   53.4352 C   0  0  0  0  0  0  0  0  0  0  0  0
   24.8058    5.7185   53.3698 N   0  0  0  0  0  0  0  0  0  0  0  0
   23.6567    5.0571   53.3633 C   0  0  0  0  0  0  0  0  0  0  0  0
   22.4859    5.7789   53.4291 C   0  0  0  0  0  0  0  0  0  0  0  0
   20.9321    4.9684   53.4253 Cl  0  0  0  0  0  0  0  0  0  0  0  0
   22.5367    7.1948   53.5013 C   0  0  0  0  0  0  0  0  0  0  0  0
   23.7502    7.7150   53.4988 N   0  0  0  0  0  0  0  0  0  0  0  0
   26.1487    7.7748   53.4437 N   0  0  0  0  0  0  0  0  0  0  0  0
   26.5913    7.8948   52.4647 H   0  0  0  0  0  0  0  0  0  0  0  0
   26.0288    9.0348   55.4922 C   0  0  0  0  0  0  0  0  0  0  0  0
   26.6359    9.5934   56.5884 C   0  0  0  0  0  0  0  0  0  0  0  0
   27.9754    9.5134   56.8383 C   0  0  0  0  0  0  0  0  0  0  0  0
   28.7311    8.8220   55.9107 C   0  0  0  0  0  0  0  0  0  0  0  0
   28.1205    8.2472   54.7861 C   0  0  0  0  0  0  0  0  0  0  0  0
   26.7924    8.3294   54.5438 C   0  0  0  0  0  0  0  0  0  0  0  0
   28.5559   10.0930   57.9874 N   0  0  0  0  0  0  0  0  0  0  0  0
   28.6969   11.5288   58.1892 C   0  0  0  0  0  0  0  0  0  0  0  0
   28.2619   11.9277   59.5854 C   0  0  0  0  0  0  0  0  0  0  0  0
   28.6258   10.9982   60.6061 N   0  0  0  0  0  0  0  0  0  0  0  0
   29.9959   11.0844   61.0184 C   0  0  0  0  0  0  0  0  0  0  0  0
   28.2218    9.6293   60.2815 C   0  0  0  0  0  0  0  0  0  0  0  0
   29.0717    9.2663   59.0526 C   0  0  0  0  0  0  0  0  0  0  0  0
   23.9041    9.9510   56.1887 C   0  0  0  0  0  0  0  0  0  0  0  0
   24.6541    9.1549   55.2993 O   0  0  0  0  0  0  0  0  0  0  0  0
   21.3095    7.8961   53.5457 N   0  0  0  0  0  0  0  0  0  0  0  0
   20.5409    7.4928   52.9310 H   0  0  0  0  0  0  0  0  0  0  0  0
   21.0595    9.0242   54.3416 C   0  0  0  0  0  0  0  0  0  0  0  0
   20.7458    9.0014   55.6820 C   0  0  0  0  0  0  0  0  0  0  0  0
   20.4413   10.1602   56.4174 C   0  0  0  0  0  0  0  0  0  0  0  0
   20.4645   11.3618   55.7407 C   0  0  0  0  0  0  0  0  0  0  0  0
   20.7742   11.4126   54.4049 C   0  0  0  0  0  0  0  0  0  0  0  0
   21.0738   10.2712   53.6867 C   0  0  0  0  0  0  0  0  0  0  0  0
   21.5155   10.3388   52.0061 S   0  0  0  0  0  0  0  0  0  0  0  0
   22.8734    9.7680   51.7186 O   0  0  0  0  0  0  0  0  0  0  0  0
   20.5514    9.3685   51.2944 O   0  0  0  0  0  0  0  0  0  0  0  0
   21.2232   11.9006   51.2629 C   0  0  0  0  0  0  0  0  0  0  0  0
   22.2544   12.1538   50.1536 C   0  0  0  0  0  0  0  0  0  0  0  0
   21.4537   13.0454   52.2565 C   0  0  0  0  0  0  0  0  0  0  0  0
 23 24  1  0  0  0
 24 10  1  0  0  0
 10 11  2  0  0  0
 11 12  1  0  0  0
 12 13  2  0  0  0
 13 14  1  0  0  0
 14 15  2  0  0  0
 15  8  1  0  0  0
  8  1  1  0  0  0
  1  2  2  0  0  0
  2  3  1  0  0  0
  3  4  2  0  0  0
  4  5  1  0  0  0
  4  6  1  0  0  0
  6 25  1  0  0  0
 25 27  1  0  0  0
 27 28  2  0  0  0
 28 29  1  0  0  0
 29 30  2  0  0  0
 30 31  1  0  0  0
 31 32  2  0  0  0
 32 33  1  0  0  0
 33 34  2  0  0  0
 33 35  2  0  0  0
 33 36  1  0  0  0
 36 37  1  0  0  0
 36 38  1  0  0  0
  6  7  2  0  0  0
 12 16  1  0  0  0
 16 17  1  0  0  0
 17 18  1  0  0  0
 18 19  1  0  0  0
 19 20  1  0  0  0
 19 21  1  0  0  0
 21 22  1  0  0  0
 15 10  1  0  0  0
  7  1  1  0  0  0
 22 16  1  0  0  0
 32 27  1  0  0  0
  8  9  1  0  0  0
 25 26  1  0  0  0
M  END
> <minimizedAffinity>
24.50949

> <CNNscore>
0.4824649990

> <CNNaffinity>
6.6343216896

> <CNN_VS>
3.2008280754

> <CNNaffinity_variance>
0.6966670156

$$$$
[H]c1nc(N([H])c2c([H])c([H])c(N3C([H])([H])C([H])([H])N(C([H])([H])[H])C([H])([H])C3([H])[H])c([H])c2OC([H])([H])[H])nc(N([H])c2c([H])c([H])c([H])c([H])c2S(=O)(=O)C([H])(C([H])([H])[H])C([H])([H])[H])c1Cl


 38 41  0  0  0  0  0  0  0  0999 V2000
   26.2758    7.8957   54.0902 C   0  0  0  0  0  0  0  0  0  0  0  0
   26.0234    6.6015   54.2842 N   0  0  0  0  0  0  0  0  0  0  0  0
   24.8871    5.9836   53.9927 C   0  0  0  0  0  0  0  0  0  0  0  0
   23.8639    6.7214   53.4409 C   0  0  0  0  0  0  0  0  0  0  0  0
   22.3353    5.9682   53.0320 Cl  0  0  0  0  0  0  0  0  0  0  0  0
   24.0477    8.1075   53.2005 C   0  0  0  0  0  0  0  0  0  0  0  0
   25.2305    8.5853   53.5407 N   0  0  0  0  0  0  0  0  0  0  0  0
   27.4750    8.5811   54.3902 N   0  0  0  0  0  0  0  0  0  0  0  0
   28.1847    8.5933   53.5747 H   0  0  0  0  0  0  0  0  0  0  0  0
   28.8595   10.1514   55.5801 C   0  0  0  0  0  0  0  0  0  0  0  0
   29.2145   10.7906   56.7409 C   0  0  0  0  0  0  0  0  0  0  0  0
   28.6048   10.5767   57.9432 C   0  0  0  0  0  0  0  0  0  0  0  0
   27.5747    9.6557   57.9521 C   0  0  0  0  0  0  0  0  0  0  0  0
   27.2037    8.9961   56.7709 C   0  0  0  0  0  0  0  0  0  0  0  0
   27.8115    9.2123   55.5821 C   0  0  0  0  0  0  0  0  0  0  0  0
   28.9951   11.2675   59.1110 N   0  0  0  0  0  0  0  0  0  0  0  0
   28.3080   12.4444   59.6257 C   0  0  0  0  0  0  0  0  0  0  0  0
   28.0849   12.3342   61.1210 C   0  0  0  0  0  0  0  0  0  0  0  0
   29.1655   11.7364   61.8374 N   0  0  0  0  0  0  0  0  0  0  0  0
   30.2708   12.6170   62.0766 C   0  0  0  0  0  0  0  0  0  0  0  0
   29.5803   10.4594   61.2544 C   0  0  0  0  0  0  0  0  0  0  0  0
   30.1430   10.8395   59.8748 C   0  0  0  0  0  0  0  0  0  0  0  0
   30.3365   11.5682   54.2956 C   0  0  0  0  0  0  0  0  0  0  0  0
   29.5257   10.4185   54.3858 O   0  0  0  0  0  0  0  0  0  0  0  0
   22.9778    8.8212   52.6127 N   0  0  0  0  0  0  0  0  0  0  0  0
   23.1895    9.8383   52.3852 H   0  0  0  0  0  0  0  0  0  0  0  0
   21.7230    8.2741   52.3044 C   0  0  0  0  0  0  0  0  0  0  0  0
   21.3191    7.8578   51.0558 C   0  0  0  0  0  0  0  0  0  0  0  0
   20.0254    7.3757   50.7903 C   0  0  0  0  0  0  0  0  0  0  0  0
   19.1398    7.3288   51.8466 C   0  0  0  0  0  0  0  0  0  0  0  0
   19.5169    7.7374   53.1011 C   0  0  0  0  0  0  0  0  0  0  0  0
   20.7897    8.2094   53.3574 C   0  0  0  0  0  0  0  0  0  0  0  0
   21.2847    8.6804   54.9565 S   0  0  0  0  0  0  0  0  0  0  0  0
   20.1402    8.8624   55.9103 O   0  0  0  0  0  0  0  0  0  0  0  0
   22.0428    7.4623   55.5213 O   0  0  0  0  0  0  0  0  0  0  0  0
   22.4488    9.9925   54.9762 C   0  0  0  0  0  0  0  0  0  0  0  0
   22.9419   10.2336   56.4103 C   0  0  0  0  0  0  0  0  0  0  0  0
   21.8000   11.3226   54.5749 C   0  0  0  0  0  0  0  0  0  0  0  0
 23 24  1  0  0  0
 24 10  1  0  0  0
 10 11  2  0  0  0
 11 12  1  0  0  0
 12 13  2  0  0  0
 13 14  1  0  0  0
 14 15  2  0  0  0
 15  8  1  0  0  0
  8  1  1  0  0  0
  1  2  2  0  0  0
  2  3  1  0  0  0
  3  4  2  0  0  0
  4  5  1  0  0  0
  4  6  1  0  0  0
  6 25  1  0  0  0
 25 27  1  0  0  0
 27 28  2  0  0  0
 28 29  1  0  0  0
 29 30  2  0  0  0
 30 31  1  0  0  0
 31 32  2  0  0  0
 32 33  1  0  0  0
 33 34  2  0  0  0
 33 35  2  0  0  0
 33 36  1  0  0  0
 36 37  1  0  0  0
 36 38  1  0  0  0
  6  7  2  0  0  0
 12 16  1  0  0  0
 16 17  1  0  0  0
 17 18  1  0  0  0
 18 19  1  0  0  0
 19 20  1  0  0  0
 19 21  1  0  0  0
 21 22  1  0  0  0
 15 10  1  0  0  0
  7  1  1  0  0  0
 22 16  1  0  0  0
 32 27  1  0  0  0
  8  9  1  0  0  0
 25 26  1  0  0  0
M  END
> <minimizedAffinity>
19.13518

> <CNNscore>
0.4516185522

> <CNNaffinity>
6.9205865860

> <CNN_VS>
3.1254653931

> <CNNaffinity_variance>
0.4511645734

$$$$
[H]c1c([H])c([H])c2c(c1[H])c(C1=C(c3c([H])n(C([H])([H])[H])c4c([H])c([H])c(Cl)c([H])c34)C(=O)N([H])C1=O)c([H])n2C([H])([H])[H]


 29 33  0  0  0  0  0  0  0  0999 V2000
   23.4965    7.3395   53.9928 C   0  0  0  0  0  0  0  0  0  0  0  0
   22.2735    7.8009   53.7274 C   0  0  0  0  0  0  0  0  0  0  0  0
   21.4806    6.7346   53.1254 C   0  0  0  0  0  0  0  0  0  0  0  0
   20.2911    6.7320   52.7284 O   0  0  0  0  0  0  0  0  0  0  0  0
   22.3158    5.5931   53.0435 N   0  0  0  0  0  0  0  0  0  0  0  0
   23.5853    5.9443   53.5793 C   0  0  0  0  0  0  0  0  0  0  0  0
   24.6033    5.2123   53.6855 O   0  0  0  0  0  0  0  0  0  0  0  0
   22.0489    4.6699   52.6610 H   0  0  0  0  0  0  0  0  0  0  0  0
   25.6196   10.8460   56.7696 C   0  0  0  0  0  0  0  0  0  0  0  0
   25.5019    9.7190   55.8675 N   0  0  0  0  0  0  0  0  0  0  0  0
   24.3575    9.2013   55.4603 C   0  0  0  0  0  0  0  0  0  0  0  0
   24.5641    8.1214   54.5924 C   0  0  0  0  0  0  0  0  0  0  0  0
   25.9256    8.0135   54.4965 C   0  0  0  0  0  0  0  0  0  0  0  0
   26.7323    7.1524   53.8114 C   0  0  0  0  0  0  0  0  0  0  0  0
   28.1116    7.2975   53.9271 C   0  0  0  0  0  0  0  0  0  0  0  0
   29.1777    6.2261   53.0748 Cl  0  0  0  0  0  0  0  0  0  0  0  0
   28.6666    8.2930   54.7195 C   0  0  0  0  0  0  0  0  0  0  0  0
   27.8499    9.1586   55.4096 C   0  0  0  0  0  0  0  0  0  0  0  0
   26.4910    9.0038   55.2864 C   0  0  0  0  0  0  0  0  0  0  0  0
   21.7768    9.1334   54.0285 C   0  0  0  0  0  0  0  0  0  0  0  0
   21.3487    9.5353   55.2752 C   0  0  0  0  0  0  0  0  0  0  0  0
   20.9734   10.8199   55.1859 N   0  0  0  0  0  0  0  0  0  0  0  0
   20.4573   11.6108   56.2964 C   0  0  0  0  0  0  0  0  0  0  0  0
   21.1357   11.2730   53.9455 C   0  0  0  0  0  0  0  0  0  0  0  0
   20.8970   12.5042   53.3795 C   0  0  0  0  0  0  0  0  0  0  0  0
   21.1728   12.6864   52.0394 C   0  0  0  0  0  0  0  0  0  0  0  0
   21.6766   11.6765   51.2600 C   0  0  0  0  0  0  0  0  0  0  0  0
   21.9118   10.4340   51.8525 C   0  0  0  0  0  0  0  0  0  0  0  0
   21.6468   10.2210   53.1835 C   0  0  0  0  0  0  0  0  0  0  0  0
  9 10  1  0  0  0
 10 11  1  0  0  0
 11 12  2  0  0  0
 12  1  1  0  0  0
  1  2  2  0  0  0
  2  3  1  0  0  0
  3  4  2  0  0  0
  3  5  1  0  0  0
  5  6  1  0  0  0
  6  7  2  0  0  0
  2 20  1  0  0  0
 20 21  2  0  0  0
 21 22  1  0  0  0
 22 23  1  0  0  0
 22 24  1  0  0  0
 24 25  2  0  0  0
 25 26  1  0  0  0
 26 27  2  0  0  0
 27 28  1  0  0  0
 28 29  2  0  0  0
 12 13  1  0  0  0
 13 14  2  0  0  0
 14 15  1  0  0  0
 15 16  1  0  0  0
 15 17  2  0  0  0
 17 18  1  0  0  0
 18 19  2  0  0  0
 19 10  1  0  0  0
  6  1  1  0  0  0
 29 20  1  0  0  0
 19 13  1  0  0  0
 29 24  1  0  0  0
  5  8  1  0  0  0
M  END
> <minimizedAffinity>
30.17103

> <CNNscore>
0.5284292102

> <CNNaffinity>
6.2102179527

> <CNN_VS>
3.2816605568

> <CNNaffinity_variance>
0.3906803727

$$$$
[H]c1c([H])c([H])c2c(c1[H])c(C1=C(c3c([H])n(C([H])([H])[H])c4c([H])c([H])c(Cl)c([H])c34)C(=O)N([H])C1=O)c([H])n2C([H])([H])[H]


 29 33  0  0  0  0  0  0  0  0999 V2000
   24.1164    6.7288   53.5125 C   0  0  0  0  0  0  0  0  0  0  0  0
   22.8863    7.1603   53.7944 C   0  0  0  0  0  0  0  0  0  0  0  0
   21.9743    6.0219   53.8186 C   0  0  0  0  0  0  0  0  0  0  0  0
   20.7415    5.9734   54.0433 O   0  0  0  0  0  0  0  0  0  0  0  0
   22.7438    4.8684   53.5277 N   0  0  0  0  0  0  0  0  0  0  0  0
   24.0899    5.2825   53.3304 C   0  0  0  0  0  0  0  0  0  0  0  0
   25.0822    4.5611   53.0510 O   0  0  0  0  0  0  0  0  0  0  0  0
   22.3885    3.8989   53.4685 H   0  0  0  0  0  0  0  0  0  0  0  0
   27.6357    9.4317   51.3164 C   0  0  0  0  0  0  0  0  0  0  0  0
   26.8698    8.8086   52.3760 N   0  0  0  0  0  0  0  0  0  0  0  0
   25.8147    8.0381   52.1848 C   0  0  0  0  0  0  0  0  0  0  0  0
   25.2871    7.5816   53.3994 C   0  0  0  0  0  0  0  0  0  0  0  0
   26.0994    8.1312   54.3548 C   0  0  0  0  0  0  0  0  0  0  0  0
   26.0910    8.0620   55.7174 C   0  0  0  0  0  0  0  0  0  0  0  0
   27.0681    8.7555   56.4254 C   0  0  0  0  0  0  0  0  0  0  0  0
   27.0978    8.6976   58.1593 Cl  0  0  0  0  0  0  0  0  0  0  0  0
   28.0358    9.5049   55.7705 C   0  0  0  0  0  0  0  0  0  0  0  0
   28.0403    9.5731   54.3965 C   0  0  0  0  0  0  0  0  0  0  0  0
   27.0704    8.8842   53.7108 C   0  0  0  0  0  0  0  0  0  0  0  0
   22.5054    8.5329   54.0836 C   0  0  0  0  0  0  0  0  0  0  0  0
   22.5183    9.0895   55.3442 C   0  0  0  0  0  0  0  0  0  0  0  0
   22.1206   10.3656   55.2336 N   0  0  0  0  0  0  0  0  0  0  0  0
   22.0004   11.2952   56.3501 C   0  0  0  0  0  0  0  0  0  0  0  0
   21.8501   10.6666   53.9661 C   0  0  0  0  0  0  0  0  0  0  0  0
   21.4209   11.8304   53.3706 C   0  0  0  0  0  0  0  0  0  0  0  0
   21.2267   11.8475   52.0042 C   0  0  0  0  0  0  0  0  0  0  0  0
   21.4494   10.7394   51.2272 C   0  0  0  0  0  0  0  0  0  0  0  0
   21.8844    9.5675   51.8500 C   0  0  0  0  0  0  0  0  0  0  0  0
   22.0860    9.5185   53.2080 C   0  0  0  0  0  0  0  0  0  0  0  0
  9 10  1  0  0  0
 10 11  1  0  0  0
 11 12  2  0  0  0
 12  1  1  0  0  0
  1  2  2  0  0  0
  2  3  1  0  0  0
  3  4  2  0  0  0
  3  5  1  0  0  0
  5  6  1  0  0  0
  6  7  2  0  0  0
  2 20  1  0  0  0
 20 21  2  0  0  0
 21 22  1  0  0  0
 22 23  1  0  0  0
 22 24  1  0  0  0
 24 25  2  0  0  0
 25 26  1  0  0  0
 26 27  2  0  0  0
 27 28  1  0  0  0
 28 29  2  0  0  0
 12 13  1  0  0  0
 13 14  2  0  0  0
 14 15  1  0  0  0
 15 16  1  0  0  0
 15 17  2  0  0  0
 17 18  1  0  0  0
 18 19  2  0  0  0
 19 10  1  0  0  0
  6  1  1  0  0  0
 29 20  1  0  0  0
 19 13  1  0  0  0
 29 24  1  0  0  0
  5  8  1  0  0  0
M  END
> <minimizedAffinity>
30.86536

> <CNNscore>
0.5070196390

> <CNNaffinity>
6.3403806686

> <CNN_VS>
3.2146975994

> <CNNaffinity_variance>
0.3242829442

$$$$
[H]c1c([H])c([H])c2c(c1[H])c(C1=C(c3c([H])n(C([H])([H])[H])c4c([H])c([H])c(Cl)c([H])c34)C(=O)N([H])C1=O)c([H])n2C([H])([H])[H]


 29 33  0  0  0  0  0  0  0  0999 V2000
   23.8669    6.9291   53.7235 C   0  0  0  0  0  0  0  0  0  0  0  0
   22.6255    7.4063   53.6230 C   0  0  0  0  0  0  0  0  0  0  0  0
   21.7562    6.3667   53.0828 C   0  0  0  0  0  0  0  0  0  0  0  0
   20.5278    6.3849   52.8313 O   0  0  0  0  0  0  0  0  0  0  0  0
   22.5646    5.2246   52.8611 N   0  0  0  0  0  0  0  0  0  0  0  0
   23.8924    5.5494   53.2531 C   0  0  0  0  0  0  0  0  0  0  0  0
   24.9086    4.8086   53.2106 O   0  0  0  0  0  0  0  0  0  0  0  0
   22.2450    4.3174   52.4809 H   0  0  0  0  0  0  0  0  0  0  0  0
   26.9079    9.0205   57.0239 C   0  0  0  0  0  0  0  0  0  0  0  0
   26.3740    8.6170   55.7394 N   0  0  0  0  0  0  0  0  0  0  0  0
   25.2656    7.9187   55.5744 C   0  0  0  0  0  0  0  0  0  0  0  0
   25.0060    7.6831   54.2182 C   0  0  0  0  0  0  0  0  0  0  0  0
   26.0413    8.2906   53.5598 C   0  0  0  0  0  0  0  0  0  0  0  0
   26.3493    8.3991   52.2350 C   0  0  0  0  0  0  0  0  0  0  0  0
   27.5030    9.0885   51.8739 C   0  0  0  0  0  0  0  0  0  0  0  0
   27.9359    9.2525   50.2016 Cl  0  0  0  0  0  0  0  0  0  0  0  0
   28.3308    9.6578   52.8318 C   0  0  0  0  0  0  0  0  0  0  0  0
   28.0175    9.5454   54.1666 C   0  0  0  0  0  0  0  0  0  0  0  0
   26.8764    8.8624   54.5086 C   0  0  0  0  0  0  0  0  0  0  0  0
   22.1812    8.7296   54.0284 C   0  0  0  0  0  0  0  0  0  0  0  0
   21.9698    9.1068   55.3368 C   0  0  0  0  0  0  0  0  0  0  0  0
   21.5788   10.3898   55.3361 N   0  0  0  0  0  0  0  0  0  0  0  0
   21.2558   11.1576   56.5325 C   0  0  0  0  0  0  0  0  0  0  0  0
   21.5253   10.8653   54.0947 C   0  0  0  0  0  0  0  0  0  0  0  0
   21.1879   12.1041   53.6001 C   0  0  0  0  0  0  0  0  0  0  0  0
   21.2306   12.3114   52.2361 C   0  0  0  0  0  0  0  0  0  0  0  0
   21.5989   11.3189   51.3641 C   0  0  0  0  0  0  0  0  0  0  0  0
   21.9374   10.0682   51.8852 C   0  0  0  0  0  0  0  0  0  0  0  0
   21.9040    9.8305   53.2378 C   0  0  0  0  0  0  0  0  0  0  0  0
  9 10  1  0  0  0
 10 11  1  0  0  0
 11 12  2  0  0  0
 12  1  1  0  0  0
  1  2  2  0  0  0
  2  3  1  0  0  0
  3  4  2  0  0  0
  3  5  1  0  0  0
  5  6  1  0  0  0
  6  7  2  0  0  0
  2 20  1  0  0  0
 20 21  2  0  0  0
 21 22  1  0  0  0
 22 23  1  0  0  0
 22 24  1  0  0  0
 24 25  2  0  0  0
 25 26  1  0  0  0
 26 27  2  0  0  0
 27 28  1  0  0  0
 28 29  2  0  0  0
 12 13  1  0  0  0
 13 14  2  0  0  0
 14 15  1  0  0  0
 15 16  1  0  0  0
 15 17  2  0  0  0
 17 18  1  0  0  0
 18 19  2  0  0  0
 19 10  1  0  0  0
  6  1  1  0  0  0
 29 20  1  0  0  0
 19 13  1  0  0  0
 29 24  1  0  0  0
  5  8  1  0  0  0
M  END
> <minimizedAffinity>
30.64746

> <CNNscore>
0.4968923330

> <CNNaffinity>
6.2837419510

> <CNN_VS>
3.1223433018

> <CNNaffinity_variance>
0.4648803771

$$$$
[H]c1c([H])c([H])c2c(c1[H])c(C1=C(c3c([H])n(C([H])([H])[H])c4c([H])c([H])c(Cl)c([H])c34)C(=O)N([H])C1=O)c([H])n2C([H])([H])[H]


 29 33  0  0  0  0  0  0  0  0999 V2000
   22.3846    7.6059   53.7220 C   0  0  0  0  0  0  0  0  0  0  0  0
   23.6424    7.2147   53.9314 C   0  0  0  0  0  0  0  0  0  0  0  0
   23.8295    5.8835   53.3649 C   0  0  0  0  0  0  0  0  0  0  0  0
   24.8456    5.1492   53.3343 O   0  0  0  0  0  0  0  0  0  0  0  0
   22.5898    5.4962   52.7988 N   0  0  0  0  0  0  0  0  0  0  0  0
   21.6660    6.5567   53.0091 C   0  0  0  0  0  0  0  0  0  0  0  0
   20.4583    6.6038   52.6593 O   0  0  0  0  0  0  0  0  0  0  0  0
   22.3929    4.6013   52.3193 H   0  0  0  0  0  0  0  0  0  0  0  0
   20.3832   10.9466   56.7796 C   0  0  0  0  0  0  0  0  0  0  0  0
   20.9290   10.3782   55.5644 N   0  0  0  0  0  0  0  0  0  0  0  0
   21.3623    9.1365   55.4464 C   0  0  0  0  0  0  0  0  0  0  0  0
   21.8312    8.8785   54.1519 C   0  0  0  0  0  0  0  0  0  0  0  0
   21.6533   10.0586   53.4808 C   0  0  0  0  0  0  0  0  0  0  0  0
   21.9251   10.4351   52.1978 C   0  0  0  0  0  0  0  0  0  0  0  0
   21.6307   11.7387   51.8099 C   0  0  0  0  0  0  0  0  0  0  0  0
   21.9586   12.2635   50.1888 Cl  0  0  0  0  0  0  0  0  0  0  0  0
   21.0722   12.6458   52.7001 C   0  0  0  0  0  0  0  0  0  0  0  0
   20.8007   12.2628   53.9931 C   0  0  0  0  0  0  0  0  0  0  0  0
   21.0965   10.9736   54.3623 C   0  0  0  0  0  0  0  0  0  0  0  0
   24.6865    7.9957   54.5739 C   0  0  0  0  0  0  0  0  0  0  0  0
   24.4515    8.9749   55.5145 C   0  0  0  0  0  0  0  0  0  0  0  0
   25.6376    9.4728   55.8941 N   0  0  0  0  0  0  0  0  0  0  0  0
   25.8137   10.5332   56.8789 C   0  0  0  0  0  0  0  0  0  0  0  0
   26.6310    8.8674   55.2484 C   0  0  0  0  0  0  0  0  0  0  0  0
   27.9961    9.0308   55.3041 C   0  0  0  0  0  0  0  0  0  0  0  0
   28.7953    8.2389   54.5045 C   0  0  0  0  0  0  0  0  0  0  0  0
   28.2667    7.2972   53.6590 C   0  0  0  0  0  0  0  0  0  0  0  0
   26.8790    7.1465   53.6162 C   0  0  0  0  0  0  0  0  0  0  0  0
   26.0569    7.9200   54.3992 C   0  0  0  0  0  0  0  0  0  0  0  0
  9 10  1  0  0  0
 10 11  1  0  0  0
 11 12  2  0  0  0
 12  1  1  0  0  0
  1  2  2  0  0  0
  2  3  1  0  0  0
  3  4  2  0  0  0
  3  5  1  0  0  0
  5  6  1  0  0  0
  6  7  2  0  0  0
  2 20  1  0  0  0
 20 21  2  0  0  0
 21 22  1  0  0  0
 22 23  1  0  0  0
 22 24  1  0  0  0
 24 25  2  0  0  0
 25 26  1  0  0  0
 26 27  2  0  0  0
 27 28  1  0  0  0
 28 29  2  0  0  0
 12 13  1  0  0  0
 13 14  2  0  0  0
 14 15  1  0  0  0
 15 16  1  0  0  0
 15 17  2  0  0  0
 17 18  1  0  0  0
 18 19  2  0  0  0
 19 10  1  0  0  0
  6  1  1  0  0  0
 29 20  1  0  0  0
 19 13  1  0  0  0
 29 24  1  0  0  0
  5  8  1  0  0  0
M  END
> <minimizedAffinity>
29.60902

> <CNNscore>
0.4915718138

> <CNNaffinity>
6.2501683235

> <CNN_VS>
3.0724065304

> <CNNaffinity_variance>
0.4118390977

$$$$
[H]c1c([H])c([H])c2c(c1[H])c(C1=C(c3c([H])n(C([H])([H])[H])c4c([H])c([H])c(Cl)c([H])c34)C(=O)N([H])C1=O)c([H])n2C([H])([H])[H]


 29 33  0  0  0  0  0  0  0  0999 V2000
   23.3487    6.9847   54.0240 C   0  0  0  0  0  0  0  0  0  0  0  0
   22.2805    7.3974   53.3403 C   0  0  0  0  0  0  0  0  0  0  0  0
   21.4856    6.2381   52.9500 C   0  0  0  0  0  0  0  0  0  0  0  0
   20.4121    6.1690   52.3055 O   0  0  0  0  0  0  0  0  0  0  0  0
   22.1538    5.0916   53.4464 N   0  0  0  0  0  0  0  0  0  0  0  0
   23.3251    5.5303   54.1229 C   0  0  0  0  0  0  0  0  0  0  0  0
   24.1892    4.8214   54.7009 O   0  0  0  0  0  0  0  0  0  0  0  0
   21.8443    4.1110   53.3350 H   0  0  0  0  0  0  0  0  0  0  0  0
   25.2750   10.7521   56.5950 C   0  0  0  0  0  0  0  0  0  0  0  0
   25.2193    9.5758   55.7519 N   0  0  0  0  0  0  0  0  0  0  0  0
   24.1056    8.9682   55.3856 C   0  0  0  0  0  0  0  0  0  0  0  0
   24.3710    7.8606   54.5701 C   0  0  0  0  0  0  0  0  0  0  0  0
   25.7356    7.8326   54.4624 C   0  0  0  0  0  0  0  0  0  0  0  0
   26.5880    6.9896   53.8109 C   0  0  0  0  0  0  0  0  0  0  0  0
   27.9565    7.2256   53.9016 C   0  0  0  0  0  0  0  0  0  0  0  0
   29.0793    6.1806   53.0903 Cl  0  0  0  0  0  0  0  0  0  0  0  0
   28.4558    8.2924   54.6361 C   0  0  0  0  0  0  0  0  0  0  0  0
   27.5932    9.1396   55.2926 C   0  0  0  0  0  0  0  0  0  0  0  0
   26.2456    8.8948   55.1946 C   0  0  0  0  0  0  0  0  0  0  0  0
   21.9226    8.7786   53.0623 C   0  0  0  0  0  0  0  0  0  0  0  0
   21.9540    9.3477   51.8077 C   0  0  0  0  0  0  0  0  0  0  0  0
   21.5532   10.6223   51.9250 N   0  0  0  0  0  0  0  0  0  0  0  0
   21.4506   11.5634   50.8163 C   0  0  0  0  0  0  0  0  0  0  0  0
   21.2633   10.9104   53.1911 C   0  0  0  0  0  0  0  0  0  0  0  0
   20.8169   12.0656   53.7906 C   0  0  0  0  0  0  0  0  0  0  0  0
   20.5922   12.0659   55.1525 C   0  0  0  0  0  0  0  0  0  0  0  0
   20.8015   10.9494   55.9211 C   0  0  0  0  0  0  0  0  0  0  0  0
   21.2550    9.7866   55.2946 C   0  0  0  0  0  0  0  0  0  0  0  0
   21.4885    9.7548   53.9412 C   0  0  0  0  0  0  0  0  0  0  0  0
  9 10  1  0  0  0
 10 11  1  0  0  0
 11 12  2  0  0  0
 12  1  1  0  0  0
  1  2  2  0  0  0
  2  3  1  0  0  0
  3  4  2  0  0  0
  3  5  1  0  0  0
  5  6  1  0  0  0
  6  7  2  0  0  0
  2 20  1  0  0  0
 20 21  2  0  0  0
 21 22  1  0  0  0
 22 23  1  0  0  0
 22 24  1  0  0  0
 24 25  2  0  0  0
 25 26  1  0  0  0
 26 27  2  0  0  0
 27 28  1  0  0  0
 28 29  2  0  0  0
 12 13  1  0  0  0
 13 14  2  0  0  0
 14 15  1  0  0  0
 15 16  1  0  0  0
 15 17  2  0  0  0
 17 18  1  0  0  0
 18 19  2  0  0  0
 19 10  1  0  0  0
  6  1  1  0  0  0
 29 20  1  0  0  0
 19 13  1  0  0  0
 29 24  1  0  0  0
  5  8  1  0  0  0
M  END
> <minimizedAffinity>
30.91181

> <CNNscore>
0.4721497595

> <CNNaffinity>
6.3001699448

> <CNN_VS>
2.9746236801

> <CNNaffinity_variance>
0.4202061594

$$$$
[H]c1c([H])c([H])c2c(c1[H])c(C1=C(c3c([H])n(C([H])([H])[H])c4c([H])c([H])c(Cl)c([H])c34)C(=O)N([H])C1=O)c([H])n2C([H])([H])[H]


 29 33  0  0  0  0  0  0  0  0999 V2000
   22.7652    7.1493   53.8091 C   0  0  0  0  0  0  0  0  0  0  0  0
   23.9970    6.7595   53.4780 C   0  0  0  0  0  0  0  0  0  0  0  0
   23.9597    5.3627   53.0587 C   0  0  0  0  0  0  0  0  0  0  0  0
   24.8809    4.6075   52.6667 O   0  0  0  0  0  0  0  0  0  0  0  0
   22.6132    4.9346   53.1632 N   0  0  0  0  0  0  0  0  0  0  0  0
   21.8429    6.0341   53.6321 C   0  0  0  0  0  0  0  0  0  0  0  0
   20.6057    6.0636   53.8594 O   0  0  0  0  0  0  0  0  0  0  0  0
   22.2558    3.9903   52.9391 H   0  0  0  0  0  0  0  0  0  0  0  0
   22.0043   10.8280   57.0343 C   0  0  0  0  0  0  0  0  0  0  0  0
   22.0850   10.1338   55.7658 N   0  0  0  0  0  0  0  0  0  0  0  0
   22.4301    8.8670   55.6253 C   0  0  0  0  0  0  0  0  0  0  0  0
   22.4161    8.4788   54.2794 C   0  0  0  0  0  0  0  0  0  0  0  0
   22.0355    9.6054   53.6010 C   0  0  0  0  0  0  0  0  0  0  0  0
   21.8510    9.8591   52.2731 C   0  0  0  0  0  0  0  0  0  0  0  0
   21.4614   11.1383   51.8874 C   0  0  0  0  0  0  0  0  0  0  0  0
   21.2146   11.5084   50.2103 Cl  0  0  0  0  0  0  0  0  0  0  0  0
   21.2616   12.1429   52.8243 C   0  0  0  0  0  0  0  0  0  0  0  0
   21.4496   11.8835   54.1622 C   0  0  0  0  0  0  0  0  0  0  0  0
   21.8343   10.6172   54.5285 C   0  0  0  0  0  0  0  0  0  0  0  0
   25.1884    7.5922   53.4799 C   0  0  0  0  0  0  0  0  0  0  0  0
   25.8459    8.0033   52.3408 C   0  0  0  0  0  0  0  0  0  0  0  0
   26.8866    8.7605   52.7183 N   0  0  0  0  0  0  0  0  0  0  0  0
   27.8317    9.3855   51.8009 C   0  0  0  0  0  0  0  0  0  0  0  0
   26.9390    8.8624   54.0438 C   0  0  0  0  0  0  0  0  0  0  0  0
   27.8082    9.5247   54.8799 C   0  0  0  0  0  0  0  0  0  0  0  0
   27.6057    9.4538   56.2434 C   0  0  0  0  0  0  0  0  0  0  0  0
   26.5649    8.7433   56.7848 C   0  0  0  0  0  0  0  0  0  0  0  0
   25.6936    8.0775   55.9200 C   0  0  0  0  0  0  0  0  0  0  0  0
   25.8690    8.1283   54.5585 C   0  0  0  0  0  0  0  0  0  0  0  0
  9 10  1  0  0  0
 10 11  1  0  0  0
 11 12  2  0  0  0
 12  1  1  0  0  0
  1  2  2  0  0  0
  2  3  1  0  0  0
  3  4  2  0  0  0
  3  5  1  0  0  0
  5  6  1  0  0  0
  6  7  2  0  0  0
  2 20  1  0  0  0
 20 21  2  0  0  0
 21 22  1  0  0  0
 22 23  1  0  0  0
 22 24  1  0  0  0
 24 25  2  0  0  0
 25 26  1  0  0  0
 26 27  2  0  0  0
 27 28  1  0  0  0
 28 29  2  0  0  0
 12 13  1  0  0  0
 13 14  2  0  0  0
 14 15  1  0  0  0
 15 16  1  0  0  0
 15 17  2  0  0  0
 17 18  1  0  0  0
 18 19  2  0  0  0
 19 10  1  0  0  0
  6  1  1  0  0  0
 29 20  1  0  0  0
 19 13  1  0  0  0
 29 24  1  0  0  0
  5  8  1  0  0  0
M  END
> <minimizedAffinity>
32.77840

> <CNNscore>
0.4221535325

> <CNNaffinity>
6.1912841797

> <CNN_VS>
2.6136724949

> <CNNaffinity_variance>
0.3519104719

$$$$
[H]c1c([H])c([H])c2c(c1[H])c(C1=C(c3c([H])n(C([H])([H])[H])c4c([H])c([H])c(Cl)c([H])c34)C(=O)N([H])C1=O)c([H])n2C([H])([H])[H]


 29 33  0  0  0  0  0  0  0  0999 V2000
   22.8593    9.2219   55.5507 C   0  0  0  0  0  0  0  0  0  0  0  0
   21.8040    9.7899   54.9651 C   0  0  0  0  0  0  0  0  0  0  0  0
   21.0440   10.5315   55.9655 C   0  0  0  0  0  0  0  0  0  0  0  0
   19.9951   11.2090   55.8508 O   0  0  0  0  0  0  0  0  0  0  0  0
   21.7166   10.3680   57.2017 N   0  0  0  0  0  0  0  0  0  0  0  0
   22.8574    9.5509   56.9710 C   0  0  0  0  0  0  0  0  0  0  0  0
   23.7125    9.1706   57.8120 O   0  0  0  0  0  0  0  0  0  0  0  0
   21.4279   10.7709   58.1095 H   0  0  0  0  0  0  0  0  0  0  0  0
   24.6071    5.6731   52.5733 C   0  0  0  0  0  0  0  0  0  0  0  0
   24.6086    6.7844   53.5020 N   0  0  0  0  0  0  0  0  0  0  0  0
   23.5224    7.3512   53.9944 C   0  0  0  0  0  0  0  0  0  0  0  0
   23.8423    8.3996   54.8666 C   0  0  0  0  0  0  0  0  0  0  0  0
   25.2110    8.4351   54.8733 C   0  0  0  0  0  0  0  0  0  0  0  0
   26.1054    9.2382   55.5189 C   0  0  0  0  0  0  0  0  0  0  0  0
   27.4645    9.0250   55.3086 C   0  0  0  0  0  0  0  0  0  0  0  0
   28.6394   10.0209   56.1075 Cl  0  0  0  0  0  0  0  0  0  0  0  0
   27.9128    8.0200   54.4624 C   0  0  0  0  0  0  0  0  0  0  0  0
   27.0079    7.2130   53.8124 C   0  0  0  0  0  0  0  0  0  0  0  0
   25.6702    7.4347   54.0290 C   0  0  0  0  0  0  0  0  0  0  0  0
   21.4755    9.7323   53.5504 C   0  0  0  0  0  0  0  0  0  0  0  0
   21.0846    8.5856   52.8936 C   0  0  0  0  0  0  0  0  0  0  0  0
   20.8542    8.9051   51.6115 N   0  0  0  0  0  0  0  0  0  0  0  0
   20.4216    7.9616   50.5879 C   0  0  0  0  0  0  0  0  0  0  0  0
   21.0753   10.2002   51.4017 C   0  0  0  0  0  0  0  0  0  0  0  0
   20.9715   10.9777   50.2712 C   0  0  0  0  0  0  0  0  0  0  0  0
   21.2664   12.3233   50.3584 C   0  0  0  0  0  0  0  0  0  0  0  0
   21.6588   12.9036   51.5376 C   0  0  0  0  0  0  0  0  0  0  0  0
   21.7586   12.0980   52.6740 C   0  0  0  0  0  0  0  0  0  0  0  0
   21.4727   10.7555   52.6192 C   0  0  0  0  0  0  0  0  0  0  0  0
  9 10  1  0  0  0
 10 11  1  0  0  0
 11 12  2  0  0  0
 12  1  1  0  0  0
  1  2  2  0  0  0
  2  3  1  0  0  0
  3  4  2  0  0  0
  3  5  1  0  0  0
  5  6  1  0  0  0
  6  7  2  0  0  0
  2 20  1  0  0  0
 20 21  2  0  0  0
 21 22  1  0  0  0
 22 23  1  0  0  0
 22 24  1  0  0  0
 24 25  2  0  0  0
 25 26  1  0  0  0
 26 27  2  0  0  0
 27 28  1  0  0  0
 28 29  2  0  0  0
 12 13  1  0  0  0
 13 14  2  0  0  0
 14 15  1  0  0  0
 15 16  1  0  0  0
 15 17  2  0  0  0
 17 18  1  0  0  0
 18 19  2  0  0  0
 19 10  1  0  0  0
  6  1  1  0  0  0
 29 20  1  0  0  0
 19 13  1  0  0  0
 29 24  1  0  0  0
  5  8  1  0  0  0
M  END
> <minimizedAffinity>
34.32564

> <CNNscore>
0.4217861295

> <CNNaffinity>
6.2197799683

> <CNN_VS>
2.6234169006

> <CNNaffinity_variance>
0.4432038367

$$$$
[H]c1c([H])c([H])c2c(c1[H])c(C1=C(c3c([H])n(C([H])([H])[H])c4c([H])c([H])c(Cl)c([H])c34)C(=O)N([H])C1=O)c([H])n2C([H])([H])[H]


 29 33  0  0  0  0  0  0  0  0999 V2000
   21.0516    6.3923   53.1103 C   0  0  0  0  0  0  0  0  0  0  0  0
   20.5985    7.5410   52.6059 C   0  0  0  0  0  0  0  0  0  0  0  0
   19.4126    7.2739   51.7993 C   0  0  0  0  0  0  0  0  0  0  0  0
   18.6764    8.0571   51.1534 O   0  0  0  0  0  0  0  0  0  0  0  0
   19.1826    5.8769   51.8508 N   0  0  0  0  0  0  0  0  0  0  0  0
   20.1955    5.2995   52.6649 C   0  0  0  0  0  0  0  0  0  0  0  0
   20.3463    4.0850   52.9575 O   0  0  0  0  0  0  0  0  0  0  0  0
   18.4152    5.3688   51.3791 H   0  0  0  0  0  0  0  0  0  0  0  0
   23.8347    4.8173   56.8902 C   0  0  0  0  0  0  0  0  0  0  0  0
   23.4659    5.5295   55.6842 N   0  0  0  0  0  0  0  0  0  0  0  0
   22.2774    5.4695   55.1121 C   0  0  0  0  0  0  0  0  0  0  0  0
   22.2221    6.2668   53.9617 C   0  0  0  0  0  0  0  0  0  0  0  0
   23.4697    6.8230   53.8690 C   0  0  0  0  0  0  0  0  0  0  0  0
   24.0295    7.6763   52.9635 C   0  0  0  0  0  0  0  0  0  0  0  0
   25.3550    8.0611   53.1422 C   0  0  0  0  0  0  0  0  0  0  0  0
   26.1100    9.1445   52.0166 Cl  0  0  0  0  0  0  0  0  0  0  0  0
   26.1017    7.5935   54.2149 C   0  0  0  0  0  0  0  0  0  0  0  0
   25.5341    6.7324   55.1252 C   0  0  0  0  0  0  0  0  0  0  0  0
   24.2257    6.3609   54.9365 C   0  0  0  0  0  0  0  0  0  0  0  0
   21.1538    8.8618   52.8503 C   0  0  0  0  0  0  0  0  0  0  0  0
   21.2097    9.8638   51.9059 C   0  0  0  0  0  0  0  0  0  0  0  0
   21.7703   10.9384   52.4801 N   0  0  0  0  0  0  0  0  0  0  0  0
   22.0070   12.2089   51.8054 C   0  0  0  0  0  0  0  0  0  0  0  0
   22.0814   10.6862   53.7488 C   0  0  0  0  0  0  0  0  0  0  0  0
   22.6602   11.4651   54.7243 C   0  0  0  0  0  0  0  0  0  0  0  0
   22.8590   10.9241   55.9785 C   0  0  0  0  0  0  0  0  0  0  0  0
   22.4965    9.6354   56.2769 C   0  0  0  0  0  0  0  0  0  0  0  0
   21.9108    8.8604   55.2735 C   0  0  0  0  0  0  0  0  0  0  0  0
   21.7005    9.3699   54.0152 C   0  0  0  0  0  0  0  0  0  0  0  0
  9 10  1  0  0  0
 10 11  1  0  0  0
 11 12  2  0  0  0
 12  1  1  0  0  0
  1  2  2  0  0  0
  2  3  1  0  0  0
  3  4  2  0  0  0
  3  5  1  0  0  0
  5  6  1  0  0  0
  6  7  2  0  0  0
  2 20  1  0  0  0
 20 21  2  0  0  0
 21 22  1  0  0  0
 22 23  1  0  0  0
 22 24  1  0  0  0
 24 25  2  0  0  0
 25 26  1  0  0  0
 26 27  2  0  0  0
 27 28  1  0  0  0
 28 29  2  0  0  0
 12 13  1  0  0  0
 13 14  2  0  0  0
 14 15  1  0  0  0
 15 16  1  0  0  0
 15 17  2  0  0  0
 17 18  1  0  0  0
 18 19  2  0  0  0
 19 10  1  0  0  0
  6  1  1  0  0  0
 29 20  1  0  0  0
 19 13  1  0  0  0
 29 24  1  0  0  0
  5  8  1  0  0  0
M  END
> <minimizedAffinity>
37.69544

> <CNNscore>
0.4208865762

> <CNNaffinity>
6.2220234871

> <CNN_VS>
2.6187660694

> <CNNaffinity_variance>
0.5577050447

$$$$
[H]c1c([H])c([H])c2c(c1[H])c(C1=C(c3c([H])n(C([H])([H])[H])c4c([H])c([H])c(Cl)c([H])c34)C(=O)N([H])C1=O)c([H])n2C([H])([H])[H]


 29 33  0  0  0  0  0  0  0  0999 V2000
   22.2776    7.4545   53.3356 C   0  0  0  0  0  0  0  0  0  0  0  0
   23.3440    7.0503   54.0273 C   0  0  0  0  0  0  0  0  0  0  0  0
   23.3530    5.5925   54.0829 C   0  0  0  0  0  0  0  0  0  0  0  0
   24.1661    4.8054   54.6231 O   0  0  0  0  0  0  0  0  0  0  0  0
   22.2106    5.1439   53.3753 N   0  0  0  0  0  0  0  0  0  0  0  0
   21.5179    6.2900   52.8970 C   0  0  0  0  0  0  0  0  0  0  0  0
   20.4543    6.3198   52.2254 O   0  0  0  0  0  0  0  0  0  0  0  0
   21.9309    4.1583   53.2335 H   0  0  0  0  0  0  0  0  0  0  0  0
   21.6738   11.6302   50.7446 C   0  0  0  0  0  0  0  0  0  0  0  0
   21.6653   10.7237   51.8742 N   0  0  0  0  0  0  0  0  0  0  0  0
   22.0606    9.4647   51.8279 C   0  0  0  0  0  0  0  0  0  0  0  0
   21.9364    8.8428   53.0769 C   0  0  0  0  0  0  0  0  0  0  0  0
   21.4334    9.8169   53.8970 C   0  0  0  0  0  0  0  0  0  0  0  0
   21.0915    9.8186   55.2179 C   0  0  0  0  0  0  0  0  0  0  0  0
   20.5871   10.9906   55.7737 C   0  0  0  0  0  0  0  0  0  0  0  0
   20.1386   11.0410   57.4491 Cl  0  0  0  0  0  0  0  0  0  0  0  0
   20.4306   12.1396   55.0107 C   0  0  0  0  0  0  0  0  0  0  0  0
   20.7754   12.1337   53.6789 C   0  0  0  0  0  0  0  0  0  0  0  0
   21.2715   10.9705   53.1437 C   0  0  0  0  0  0  0  0  0  0  0  0
   24.3699    7.9074   54.5980 C   0  0  0  0  0  0  0  0  0  0  0  0
   24.1145    8.9435   55.4698 C   0  0  0  0  0  0  0  0  0  0  0  0
   25.2884    9.5040   55.7965 N   0  0  0  0  0  0  0  0  0  0  0  0
   25.4419   10.6370   56.7009 C   0  0  0  0  0  0  0  0  0  0  0  0
   26.2931    8.8853   55.1817 C   0  0  0  0  0  0  0  0  0  0  0  0
   27.6528    9.0947   55.2067 C   0  0  0  0  0  0  0  0  0  0  0  0
   28.4676    8.2729   54.4543 C   0  0  0  0  0  0  0  0  0  0  0  0
   27.9597    7.2571   53.6853 C   0  0  0  0  0  0  0  0  0  0  0  0
   26.5771    7.0606   53.6727 C   0  0  0  0  0  0  0  0  0  0  0  0
   25.7398    7.8621   54.4100 C   0  0  0  0  0  0  0  0  0  0  0  0
  9 10  1  0  0  0
 10 11  1  0  0  0
 11 12  2  0  0  0
 12  1  1  0  0  0
  1  2  2  0  0  0
  2  3  1  0  0  0
  3  4  2  0  0  0
  3  5  1  0  0  0
  5  6  1  0  0  0
  6  7  2  0  0  0
  2 20  1  0  0  0
 20 21  2  0  0  0
 21 22  1  0  0  0
 22 23  1  0  0  0
 22 24  1  0  0  0
 24 25  2  0  0  0
 25 26  1  0  0  0
 26 27  2  0  0  0
 27 28  1  0  0  0
 28 29  2  0  0  0
 12 13  1  0  0  0
 13 14  2  0  0  0
 14 15  1  0  0  0
 15 16  1  0  0  0
 15 17  2  0  0  0
 17 18  1  0  0  0
 18 19  2  0  0  0
 19 10  1  0  0  0
  6  1  1  0  0  0
 29 20  1  0  0  0
 19 13  1  0  0  0
 29 24  1  0  0  0
  5  8  1  0  0  0
M  END
> <minimizedAffinity>
35.75096

> <CNNscore>
0.4040230215

> <CNNaffinity>
6.1670980453

> <CNN_VS>
2.4916496277

> <CNNaffinity_variance>
0.5535143614

$$$$
[H]OC(=O)C(F)(F)F.[H]OC(=O)C(F)(F)F


  8  7  0  0  0  0  0  0  0  0999 V2000
   21.8328    7.6924   55.5265 O   0  0  0  0  0  0  0  0  0  0  0  0
   22.0745    8.9350   54.9578 C   0  0  0  0  0  0  0  0  0  0  0  0
   22.6546    9.7843   55.6672 O   0  0  0  0  0  0  0  0  0  0  0  0
   22.5654    6.9881   55.3716 H   0  0  0  0  0  0  0  0  0  0  0  0
   21.6352    9.1788   53.5582 C   0  0  0  0  0  0  0  0  0  0  0  0
   22.6257    8.7866   52.6945 F   0  0  0  0  0  0  0  0  0  0  0  0
   21.3693   10.5235   53.3701 F   0  0  0  0  0  0  0  0  0  0  0  0
   20.5333    8.3904   53.3136 F   0  0  0  0  0  0  0  0  0  0  0  0
  1  2  1  0  0  0
  2  3  2  0  0  0
  2  5  1  0  0  0
  5  6  1  0  0  0
  5  7  1  0  0  0
  5  8  1  0  0  0
  1  4  1  0  0  0
M  END
> <minimizedAffinity>
-5.11474

> <CNNscore>
0.6110422611

> <CNNaffinity>
3.3403308392

> <CNN_VS>
2.0410833359

> <CNNaffinity_variance>
0.4054505229

$$$$
[H]OC(=O)C(F)(F)F.[H]OC(=O)C(F)(F)F


  8  7  0  0  0  0  0  0  0  0999 V2000
   22.7359    9.8207   55.8093 O   0  0  0  0  0  0  0  0  0  0  0  0
   22.6888    9.0153   54.6801 C   0  0  0  0  0  0  0  0  0  0  0  0
   23.5650    8.1312   54.5726 O   0  0  0  0  0  0  0  0  0  0  0  0
   22.1784    9.4913   56.6076 H   0  0  0  0  0  0  0  0  0  0  0  0
   21.6140    9.2488   53.6792 C   0  0  0  0  0  0  0  0  0  0  0  0
   21.2634   10.5747   53.6876 F   0  0  0  0  0  0  0  0  0  0  0  0
   20.5049    8.4797   53.9835 F   0  0  0  0  0  0  0  0  0  0  0  0
   22.1222    8.9605   52.4325 F   0  0  0  0  0  0  0  0  0  0  0  0
  1  2  1  0  0  0
  2  3  2  0  0  0
  2  5  1  0  0  0
  5  6  1  0  0  0
  5  7  1  0  0  0
  5  8  1  0  0  0
  1  4  1  0  0  0
M  END
> <minimizedAffinity>
-4.93428

> <CNNscore>
0.6107335687

> <CNNaffinity>
3.3454451561

> <CNN_VS>
2.0431756973

> <CNNaffinity_variance>
0.3311584592

$$$$
[H]OC(=O)C(F)(F)F.[H]OC(=O)C(F)(F)F


  8  7  0  0  0  0  0  0  0  0999 V2000
   24.8766    6.7167   53.5022 O   0  0  0  0  0  0  0  0  0  0  0  0
   23.6565    6.6132   54.1554 C   0  0  0  0  0  0  0  0  0  0  0  0
   23.5558    5.7377   55.0411 O   0  0  0  0  0  0  0  0  0  0  0  0
   25.5417    7.3822   53.9161 H   0  0  0  0  0  0  0  0  0  0  0  0
   22.5572    7.5368   53.7683 C   0  0  0  0  0  0  0  0  0  0  0  0
   21.4923    6.8085   53.3030 F   0  0  0  0  0  0  0  0  0  0  0  0
   22.9884    8.4016   52.7782 F   0  0  0  0  0  0  0  0  0  0  0  0
   22.1428    8.2042   54.8990 F   0  0  0  0  0  0  0  0  0  0  0  0
  1  2  1  0  0  0
  2  3  2  0  0  0
  2  5  1  0  0  0
  5  6  1  0  0  0
  5  7  1  0  0  0
  5  8  1  0  0  0
  1  4  1  0  0  0
M  END
> <minimizedAffinity>
-4.75789

> <CNNscore>
0.5444842577

> <CNNaffinity>
3.2561004162

> <CNN_VS>
1.7728954554

> <CNNaffinity_variance>
0.6365303397

$$$$
[H]OC(=O)C(F)(F)F.[H]OC(=O)C(F)(F)F


  8  7  0  0  0  0  0  0  0  0999 V2000
   22.8056    7.6771   52.7305 O   0  0  0  0  0  0  0  0  0  0  0  0
   22.7362    8.4905   53.8527 C   0  0  0  0  0  0  0  0  0  0  0  0
   23.6712    8.4067   54.6772 O   0  0  0  0  0  0  0  0  0  0  0  0
   23.2630    8.0967   51.9111 H   0  0  0  0  0  0  0  0  0  0  0  0
   21.5701    9.4006   54.0055 C   0  0  0  0  0  0  0  0  0  0  0  0
   21.1681    9.8382   52.7694 F   0  0  0  0  0  0  0  0  0  0  0  0
   21.9148   10.4890   54.7870 F   0  0  0  0  0  0  0  0  0  0  0  0
   20.5324    8.6768   54.5485 F   0  0  0  0  0  0  0  0  0  0  0  0
  1  2  1  0  0  0
  2  3  2  0  0  0
  2  5  1  0  0  0
  5  6  1  0  0  0
  5  7  1  0  0  0
  5  8  1  0  0  0
  1  4  1  0  0  0
M  END
> <minimizedAffinity>
-4.84940

> <CNNscore>
0.5410367846

> <CNNaffinity>
3.2607376575

> <CNN_VS>
1.7641789913

> <CNNaffinity_variance>
0.4193101823

$$$$
[H]OC(=O)C(F)(F)F.[H]OC(=O)C(F)(F)F


  8  7  0  0  0  0  0  0  0  0999 V2000
   24.6599    6.4484   53.2802 O   0  0  0  0  0  0  0  0  0  0  0  0
   23.5539    6.5329   54.1143 C   0  0  0  0  0  0  0  0  0  0  0  0
   23.5104    5.7486   55.0858 O   0  0  0  0  0  0  0  0  0  0  0  0
   25.4428    7.0681   53.5242 H   0  0  0  0  0  0  0  0  0  0  0  0
   22.5013    7.5373   53.8069 C   0  0  0  0  0  0  0  0  0  0  0  0
   22.9645    8.4056   52.8517 F   0  0  0  0  0  0  0  0  0  0  0  0
   22.1713    8.2458   54.9486 F   0  0  0  0  0  0  0  0  0  0  0  0
   21.4193    6.8722   53.2753 F   0  0  0  0  0  0  0  0  0  0  0  0
  1  2  1  0  0  0
  2  3  2  0  0  0
  2  5  1  0  0  0
  5  6  1  0  0  0
  5  7  1  0  0  0
  5  8  1  0  0  0
  1  4  1  0  0  0
M  END
> <minimizedAffinity>
-4.81372

> <CNNscore>
0.5380355716

> <CNNaffinity>
3.2679429054

> <CNN_VS>
1.7582695484

> <CNNaffinity_variance>
0.6310148835

$$$$
[H]OC(=O)C(F)(F)F.[H]OC(=O)C(F)(F)F


  8  7  0  0  0  0  0  0  0  0999 V2000
   22.8069    7.7403   52.6635 O   0  0  0  0  0  0  0  0  0  0  0  0
   22.7137    8.5050   53.8178 C   0  0  0  0  0  0  0  0  0  0  0  0
   23.6315    8.3858   54.6570 O   0  0  0  0  0  0  0  0  0  0  0  0
   23.2807    8.1945   51.8724 H   0  0  0  0  0  0  0  0  0  0  0  0
   21.5440    9.4078   53.9853 C   0  0  0  0  0  0  0  0  0  0  0  0
   21.9090   10.4912   54.7430 F   0  0  0  0  0  0  0  0  0  0  0  0
   20.5105    8.7364   54.6140 F   0  0  0  0  0  0  0  0  0  0  0  0
   21.1826    9.8730   52.7409 F   0  0  0  0  0  0  0  0  0  0  0  0
  1  2  1  0  0  0
  2  3  2  0  0  0
  2  5  1  0  0  0
  5  6  1  0  0  0
  5  7  1  0  0  0
  5  8  1  0  0  0
  1  4  1  0  0  0
M  END
> <minimizedAffinity>
-4.87375

> <CNNscore>
0.5378929973

> <CNNaffinity>
3.2617716789

> <CNN_VS>
1.7544841766

> <CNNaffinity_variance>
0.4116249084

$$$$
[H]OC(=O)C(F)(F)F.[H]OC(=O)C(F)(F)F


  8  7  0  0  0  0  0  0  0  0999 V2000
   24.5426    8.6707   54.9058 O   0  0  0  0  0  0  0  0  0  0  0  0
   25.4691    7.9096   54.2069 C   0  0  0  0  0  0  0  0  0  0  0  0
   25.0357    6.9258   53.5704 O   0  0  0  0  0  0  0  0  0  0  0  0
   24.1482    9.4667   54.3887 H   0  0  0  0  0  0  0  0  0  0  0  0
   26.9020    8.3042   54.2563 C   0  0  0  0  0  0  0  0  0  0  0  0
   27.2189    9.0133   53.1261 F   0  0  0  0  0  0  0  0  0  0  0  0
   27.7034    7.1788   54.3308 F   0  0  0  0  0  0  0  0  0  0  0  0
   27.0770    9.1410   55.3355 F   0  0  0  0  0  0  0  0  0  0  0  0
  1  2  1  0  0  0
  2  3  2  0  0  0
  2  5  1  0  0  0
  5  6  1  0  0  0
  5  7  1  0  0  0
  5  8  1  0  0  0
  1  4  1  0  0  0
M  END
> <minimizedAffinity>
-3.47855

> <CNNscore>
0.5088483095

> <CNNaffinity>
3.1027164459

> <CNN_VS>
1.5788120031

> <CNNaffinity_variance>
0.7105945349

$$$$
[H]OC(=O)C(F)(F)F.[H]OC(=O)C(F)(F)F


  8  7  0  0  0  0  0  0  0  0999 V2000
   23.8600    7.8290   52.9783 O   0  0  0  0  0  0  0  0  0  0  0  0
   24.7397    7.4141   53.9682 C   0  0  0  0  0  0  0  0  0  0  0  0
   24.4014    6.4270   54.6553 O   0  0  0  0  0  0  0  0  0  0  0  0
   24.0163    7.4161   52.0500 H   0  0  0  0  0  0  0  0  0  0  0  0
   26.0144    8.1581   54.1500 C   0  0  0  0  0  0  0  0  0  0  0  0
   27.0305    7.2694   54.3922 F   0  0  0  0  0  0  0  0  0  0  0  0
   25.9070    9.0330   55.2164 F   0  0  0  0  0  0  0  0  0  0  0  0
   26.3015    8.8071   52.9702 F   0  0  0  0  0  0  0  0  0  0  0  0
  1  2  1  0  0  0
  2  3  2  0  0  0
  2  5  1  0  0  0
  5  6  1  0  0  0
  5  7  1  0  0  0
  5  8  1  0  0  0
  1  4  1  0  0  0
M  END
> <minimizedAffinity>
-3.88007

> <CNNscore>
0.4620600343

> <CNNaffinity>
3.1529493332

> <CNN_VS>
1.4568518400

> <CNNaffinity_variance>
0.6371371746

$$$$
[H]OC(=O)C(F)(F)F.[H]OC(=O)C(F)(F)F


  8  7  0  0  0  0  0  0  0  0999 V2000
   20.9055    7.8415   51.0082 O   0  0  0  0  0  0  0  0  0  0  0  0
   21.2648    8.6676   52.0637 C   0  0  0  0  0  0  0  0  0  0  0  0
   21.3760    9.8882   51.8211 O   0  0  0  0  0  0  0  0  0  0  0  0
   19.8960    7.6800   50.9003 H   0  0  0  0  0  0  0  0  0  0  0  0
   21.4931    8.0603   53.4018 C   0  0  0  0  0  0  0  0  0  0  0  0
   22.7772    8.3202   53.8074 F   0  0  0  0  0  0  0  0  0  0  0  0
   21.2995    6.6916   53.3427 F   0  0  0  0  0  0  0  0  0  0  0  0
   20.6425    8.6688   54.2972 F   0  0  0  0  0  0  0  0  0  0  0  0
  1  2  1  0  0  0
  2  3  2  0  0  0
  2  5  1  0  0  0
  5  6  1  0  0  0
  5  7  1  0  0  0
  5  8  1  0  0  0
  1  4  1  0  0  0
M  END
> <minimizedAffinity>
-4.92853

> <CNNscore>
0.3589075208

> <CNNaffinity>
3.1557912827

> <CNN_VS>
1.1326372623

> <CNNaffinity_variance>
0.5177545547

$$$$
[H]c1c([H])c(Cl)c(-c2c([H])c3c([H])nc(N([H])C([H])([H])[H])nc3n(C([H])([H])[H])c2=O)c(Cl)c1[H]


 23 25  0  0  0  0  0  0  0  0999 V2000
   20.7681    5.6929   53.4312 C   0  0  0  0  0  0  0  0  0  0  0  0
   21.8166    4.8723   53.2371 N   0  0  0  0  0  0  0  0  0  0  0  0
   23.0804    5.2748   53.5117 C   0  0  0  0  0  0  0  0  0  0  0  0
   23.3323    6.5323   53.9967 C   0  0  0  0  0  0  0  0  0  0  0  0
   24.6258    6.9167   54.2676 C   0  0  0  0  0  0  0  0  0  0  0  0
   24.8151    8.2104   54.7596 C   0  0  0  0  0  0  0  0  0  0  0  0
   23.7025    9.0069   54.9386 C   0  0  0  0  0  0  0  0  0  0  0  0
   23.8413   10.1839   55.3828 O   0  0  0  0  0  0  0  0  0  0  0  0
   22.4532    8.6051   54.6657 N   0  0  0  0  0  0  0  0  0  0  0  0
   21.3044    9.4933   54.8745 C   0  0  0  0  0  0  0  0  0  0  0  0
   22.2488    7.3636   54.1912 C   0  0  0  0  0  0  0  0  0  0  0  0
   21.0005    6.9190   53.9028 N   0  0  0  0  0  0  0  0  0  0  0  0
   26.1581    8.6934   55.0716 C   0  0  0  0  0  0  0  0  0  0  0  0
   26.4845    9.1832   56.3220 C   0  0  0  0  0  0  0  0  0  0  0  0
   25.2275    9.2080   57.5333 Cl  0  0  0  0  0  0  0  0  0  0  0  0
   27.7488    9.6418   56.6283 C   0  0  0  0  0  0  0  0  0  0  0  0
   28.7366    9.6154   55.6546 C   0  0  0  0  0  0  0  0  0  0  0  0
   28.4409    9.1312   54.3941 C   0  0  0  0  0  0  0  0  0  0  0  0
   27.1559    8.6770   54.1205 C   0  0  0  0  0  0  0  0  0  0  0  0
   26.8477    8.0767   52.5053 Cl  0  0  0  0  0  0  0  0  0  0  0  0
   19.1220    3.8318   53.2130 C   0  0  0  0  0  0  0  0  0  0  0  0
   19.4603    5.2341   53.1316 N   0  0  0  0  0  0  0  0  0  0  0  0
   18.7172    5.9000   52.8467 H   0  0  0  0  0  0  0  0  0  0  0  0
 21 22  1  0  0  0
 22  1  1  0  0  0
  1  2  2  0  0  0
  2  3  1  0  0  0
  3  4  2  0  0  0
  4  5  1  0  0  0
  5  6  2  0  0  0
  6 13  1  0  0  0
 13 14  2  0  0  0
 14 15  1  0  0  0
 14 16  1  0  0  0
 16 17  2  0  0  0
 17 18  1  0  0  0
 18 19  2  0  0  0
 19 20  1  0  0  0
  6  7  1  0  0  0
  7  8  2  0  0  0
  7  9  1  0  0  0
  9 10  1  0  0  0
  9 11  1  0  0  0
 11 12  2  0  0  0
 12  1  1  0  0  0
 11  4  1  0  0  0
 19 13  1  0  0  0
 22 23  1  0  0  0
M  END
> <minimizedAffinity>
16.32544

> <CNNscore>
0.5763939619

> <CNNaffinity>
5.8975439072

> <CNN_VS>
3.3993086815

> <CNNaffinity_variance>
0.2106895149

$$$$
[H]c1c([H])c(Cl)c(-c2c([H])c3c([H])nc(N([H])C([H])([H])[H])nc3n(C([H])([H])[H])c2=O)c(Cl)c1[H]


 23 25  0  0  0  0  0  0  0  0999 V2000
   20.6571    5.9547   53.4984 C   0  0  0  0  0  0  0  0  0  0  0  0
   21.6649    5.0870   53.2939 N   0  0  0  0  0  0  0  0  0  0  0  0
   22.9464    5.4243   53.5739 C   0  0  0  0  0  0  0  0  0  0  0  0
   23.2584    6.6618   54.0752 C   0  0  0  0  0  0  0  0  0  0  0  0
   24.5688    6.9797   54.3514 C   0  0  0  0  0  0  0  0  0  0  0  0
   24.8200    8.2563   54.8601 C   0  0  0  0  0  0  0  0  0  0  0  0
   23.7471    9.1033   55.0491 C   0  0  0  0  0  0  0  0  0  0  0  0
   23.9423   10.2663   55.5085 O   0  0  0  0  0  0  0  0  0  0  0  0
   22.4801    8.7659   54.7708 N   0  0  0  0  0  0  0  0  0  0  0  0
   21.3753    9.7059   54.9907 C   0  0  0  0  0  0  0  0  0  0  0  0
   22.2162    7.5420   54.2802 C   0  0  0  0  0  0  0  0  0  0  0  0
   20.9482    7.1620   53.9858 N   0  0  0  0  0  0  0  0  0  0  0  0
   26.1846    8.6696   55.1786 C   0  0  0  0  0  0  0  0  0  0  0  0
   27.1977    8.6246   54.2398 C   0  0  0  0  0  0  0  0  0  0  0  0
   26.7930    8.0515   52.6412 Cl  0  0  0  0  0  0  0  0  0  0  0  0
   28.4896    9.0121   54.5287 C   0  0  0  0  0  0  0  0  0  0  0  0
   28.7950    9.4651   55.8039 C   0  0  0  0  0  0  0  0  0  0  0  0
   27.8030    9.5217   56.7649 C   0  0  0  0  0  0  0  0  0  0  0  0
   26.5118    9.1232   56.4386 C   0  0  0  0  0  0  0  0  0  0  0  0
   25.3030    9.2195   57.7010 Cl  0  0  0  0  0  0  0  0  0  0  0  0
   18.8582    4.2272   53.4752 C   0  0  0  0  0  0  0  0  0  0  0  0
   19.3290    5.5636   53.1926 N   0  0  0  0  0  0  0  0  0  0  0  0
   18.6660    6.2331   52.7576 H   0  0  0  0  0  0  0  0  0  0  0  0
 21 22  1  0  0  0
 22  1  1  0  0  0
  1  2  2  0  0  0
  2  3  1  0  0  0
  3  4  2  0  0  0
  4  5  1  0  0  0
  5  6  2  0  0  0
  6 13  1  0  0  0
 13 14  2  0  0  0
 14 15  1  0  0  0
 14 16  1  0  0  0
 16 17  2  0  0  0
 17 18  1  0  0  0
 18 19  2  0  0  0
 19 20  1  0  0  0
  6  7  1  0  0  0
  7  8  2  0  0  0
  7  9  1  0  0  0
  9 10  1  0  0  0
  9 11  1  0  0  0
 11 12  2  0  0  0
 12  1  1  0  0  0
 11  4  1  0  0  0
 19 13  1  0  0  0
 22 23  1  0  0  0
M  END
> <minimizedAffinity>
15.39706

> <CNNscore>
0.5681350231

> <CNNaffinity>
5.8680853844

> <CNN_VS>
3.3338649273

> <CNNaffinity_variance>
0.2057345361

$$$$
[H]c1c([H])c(Cl)c(-c2c([H])c3c([H])nc(N([H])C([H])([H])[H])nc3n(C([H])([H])[H])c2=O)c(Cl)c1[H]


 23 25  0  0  0  0  0  0  0  0999 V2000
   20.3893    8.1452   51.6757 C   0  0  0  0  0  0  0  0  0  0  0  0
   20.8756    9.3927   51.5418 N   0  0  0  0  0  0  0  0  0  0  0  0
   22.0416    9.7558   52.1275 C   0  0  0  0  0  0  0  0  0  0  0  0
   22.7648    8.8633   52.8762 C   0  0  0  0  0  0  0  0  0  0  0  0
   23.9468    9.2575   53.4608 C   0  0  0  0  0  0  0  0  0  0  0  0
   24.6357    8.3011   54.2106 C   0  0  0  0  0  0  0  0  0  0  0  0
   24.0889    7.0382   54.3128 C   0  0  0  0  0  0  0  0  0  0  0  0
   24.6892    6.1497   54.9851 O   0  0  0  0  0  0  0  0  0  0  0  0
   22.9346    6.6825   53.7317 N   0  0  0  0  0  0  0  0  0  0  0  0
   22.3973    5.3246   53.8726 C   0  0  0  0  0  0  0  0  0  0  0  0
   22.2555    7.5879   53.0056 C   0  0  0  0  0  0  0  0  0  0  0  0
   21.0841    7.2678   52.4019 N   0  0  0  0  0  0  0  0  0  0  0  0
   25.8979    8.6417   54.8625 C   0  0  0  0  0  0  0  0  0  0  0  0
   25.9401    9.1653   56.1407 C   0  0  0  0  0  0  0  0  0  0  0  0
   24.4202    9.4108   56.9638 Cl  0  0  0  0  0  0  0  0  0  0  0  0
   27.1254    9.4908   56.7665 C   0  0  0  0  0  0  0  0  0  0  0  0
   28.3248    9.2897   56.0989 C   0  0  0  0  0  0  0  0  0  0  0  0
   28.3154    8.7674   54.8191 C   0  0  0  0  0  0  0  0  0  0  0  0
   27.1021    8.4507   54.2191 C   0  0  0  0  0  0  0  0  0  0  0  0
   27.1602    7.7932   52.5978 Cl  0  0  0  0  0  0  0  0  0  0  0  0
   18.3021    8.8194   50.4884 C   0  0  0  0  0  0  0  0  0  0  0  0
   19.1651    7.8041   51.0470 N   0  0  0  0  0  0  0  0  0  0  0  0
   18.8637    6.8137   50.9757 H   0  0  0  0  0  0  0  0  0  0  0  0
 21 22  1  0  0  0
 22  1  1  0  0  0
  1  2  2  0  0  0
  2  3  1  0  0  0
  3  4  2  0  0  0
  4  5  1  0  0  0
  5  6  2  0  0  0
  6 13  1  0  0  0
 13 14  2  0  0  0
 14 15  1  0  0  0
 14 16  1  0  0  0
 16 17  2  0  0  0
 17 18  1  0  0  0
 18 19  2  0  0  0
 19 20  1  0  0  0
  6  7  1  0  0  0
  7  8  2  0  0  0
  7  9  1  0  0  0
  9 10  1  0  0  0
  9 11  1  0  0  0
 11 12  2  0  0  0
 12  1  1  0  0  0
 11  4  1  0  0  0
 19 13  1  0  0  0
 22 23  1  0  0  0
M  END
> <minimizedAffinity>
18.23788

> <CNNscore>
0.5621629953

> <CNNaffinity>
5.8613595963

> <CNN_VS>
3.2950394154

> <CNNaffinity_variance>
0.2977386117

$$$$
[H]c1c([H])c(Cl)c(-c2c([H])c3c([H])nc(N([H])C([H])([H])[H])nc3n(C([H])([H])[H])c2=O)c(Cl)c1[H]


 23 25  0  0  0  0  0  0  0  0999 V2000
   20.3854    8.1367   51.6891 C   0  0  0  0  0  0  0  0  0  0  0  0
   20.8755    9.3813   51.5433 N   0  0  0  0  0  0  0  0  0  0  0  0
   22.0459    9.7445   52.1201 C   0  0  0  0  0  0  0  0  0  0  0  0
   22.7697    8.8551   52.8718 C   0  0  0  0  0  0  0  0  0  0  0  0
   23.9562    9.2493   53.4473 C   0  0  0  0  0  0  0  0  0  0  0  0
   24.6454    8.2960   54.2008 C   0  0  0  0  0  0  0  0  0  0  0  0
   24.0945    7.0360   54.3153 C   0  0  0  0  0  0  0  0  0  0  0  0
   24.6951    6.1503   54.9913 O   0  0  0  0  0  0  0  0  0  0  0  0
   22.9359    6.6801   53.7430 N   0  0  0  0  0  0  0  0  0  0  0  0
   22.3944    5.3253   53.8969 C   0  0  0  0  0  0  0  0  0  0  0  0
   22.2564    7.5826   53.0135 C   0  0  0  0  0  0  0  0  0  0  0  0
   21.0807    7.2622   52.4183 N   0  0  0  0  0  0  0  0  0  0  0  0
   25.9122    8.6369   54.8436 C   0  0  0  0  0  0  0  0  0  0  0  0
   27.1250    8.4549   54.2066 C   0  0  0  0  0  0  0  0  0  0  0  0
   27.0977    7.7970   52.5898 Cl  0  0  0  0  0  0  0  0  0  0  0  0
   28.3273    8.7730   54.8032 C   0  0  0  0  0  0  0  0  0  0  0  0
   28.3320    9.2950   56.0885 C   0  0  0  0  0  0  0  0  0  0  0  0
   27.1348    9.4885   56.7519 C   0  0  0  0  0  0  0  0  0  0  0  0
   25.9419    9.1568   56.1200 C   0  0  0  0  0  0  0  0  0  0  0  0
   24.4619    9.4265   57.0150 Cl  0  0  0  0  0  0  0  0  0  0  0  0
   18.2863    8.8111   50.5230 C   0  0  0  0  0  0  0  0  0  0  0  0
   19.1567    7.7955   51.0694 N   0  0  0  0  0  0  0  0  0  0  0  0
   18.8572    6.8046   50.9959 H   0  0  0  0  0  0  0  0  0  0  0  0
 21 22  1  0  0  0
 22  1  1  0  0  0
  1  2  2  0  0  0
  2  3  1  0  0  0
  3  4  2  0  0  0
  4  5  1  0  0  0
  5  6  2  0  0  0
  6 13  1  0  0  0
 13 14  2  0  0  0
 14 15  1  0  0  0
 14 16  1  0  0  0
 16 17  2  0  0  0
 17 18  1  0  0  0
 18 19  2  0  0  0
 19 20  1  0  0  0
  6  7  1  0  0  0
  7  8  2  0  0  0
  7  9  1  0  0  0
  9 10  1  0  0  0
  9 11  1  0  0  0
 11 12  2  0  0  0
 12  1  1  0  0  0
 11  4  1  0  0  0
 19 13  1  0  0  0
 22 23  1  0  0  0
M  END
> <minimizedAffinity>
18.34432

> <CNNscore>
0.5613348484

> <CNNaffinity>
5.8500204086

> <CNN_VS>
3.2838203907

> <CNNaffinity_variance>
0.2927690148

$$$$
[H]c1c([H])c(Cl)c(-c2c([H])c3c([H])nc(N([H])C([H])([H])[H])nc3n(C([H])([H])[H])c2=O)c(Cl)c1[H]


 23 25  0  0  0  0  0  0  0  0999 V2000
   20.3753    7.7912   53.7865 C   0  0  0  0  0  0  0  0  0  0  0  0
   20.5341    9.0431   54.2533 N   0  0  0  0  0  0  0  0  0  0  0  0
   21.7578    9.5129   54.5944 C   0  0  0  0  0  0  0  0  0  0  0  0
   22.8752    8.7273   54.4750 C   0  0  0  0  0  0  0  0  0  0  0  0
   24.1073    9.2286   54.8285 C   0  0  0  0  0  0  0  0  0  0  0  0
   25.2058    8.3779   54.6832 C   0  0  0  0  0  0  0  0  0  0  0  0
   24.9823    7.1049   54.1997 C   0  0  0  0  0  0  0  0  0  0  0  0
   25.9572    6.3105   54.0567 O   0  0  0  0  0  0  0  0  0  0  0  0
   23.7697    6.6435   53.8631 N   0  0  0  0  0  0  0  0  0  0  0  0
   23.5878    5.2798   53.3534 C   0  0  0  0  0  0  0  0  0  0  0  0
   22.6989    7.4460   53.9953 C   0  0  0  0  0  0  0  0  0  0  0  0
   21.4553    7.0172   53.6658 N   0  0  0  0  0  0  0  0  0  0  0  0
   26.5472    8.8359   55.0369 C   0  0  0  0  0  0  0  0  0  0  0  0
   26.8780    9.1935   56.3301 C   0  0  0  0  0  0  0  0  0  0  0  0
   25.6287    9.0802   57.5443 Cl  0  0  0  0  0  0  0  0  0  0  0  0
   28.1408    9.6273   56.6760 C   0  0  0  0  0  0  0  0  0  0  0  0
   29.1225    9.7117   55.6995 C   0  0  0  0  0  0  0  0  0  0  0  0
   28.8223    9.3610   54.3965 C   0  0  0  0  0  0  0  0  0  0  0  0
   27.5389    8.9280   54.0837 C   0  0  0  0  0  0  0  0  0  0  0  0
   27.2248    8.4992   52.4159 Cl  0  0  0  0  0  0  0  0  0  0  0  0
   18.7874    5.9271   53.3129 C   0  0  0  0  0  0  0  0  0  0  0  0
   19.0777    7.3367   53.4403 N   0  0  0  0  0  0  0  0  0  0  0  0
   18.3074    8.0112   53.2708 H   0  0  0  0  0  0  0  0  0  0  0  0
 21 22  1  0  0  0
 22  1  1  0  0  0
  1  2  2  0  0  0
  2  3  1  0  0  0
  3  4  2  0  0  0
  4  5  1  0  0  0
  5  6  2  0  0  0
  6 13  1  0  0  0
 13 14  2  0  0  0
 14 15  1  0  0  0
 14 16  1  0  0  0
 16 17  2  0  0  0
 17 18  1  0  0  0
 18 19  2  0  0  0
 19 20  1  0  0  0
  6  7  1  0  0  0
  7  8  2  0  0  0
  7  9  1  0  0  0
  9 10  1  0  0  0
  9 11  1  0  0  0
 11 12  2  0  0  0
 12  1  1  0  0  0
 11  4  1  0  0  0
 19 13  1  0  0  0
 22 23  1  0  0  0
M  END
> <minimizedAffinity>
17.75571

> <CNNscore>
0.4999115765

> <CNNaffinity>
5.7482314110

> <CNN_VS>
2.8736073971

> <CNNaffinity_variance>
0.3153868616

$$$$
[H]c1c([H])c(Cl)c(-c2c([H])c3c([H])nc(N([H])C([H])([H])[H])nc3n(C([H])([H])[H])c2=O)c(Cl)c1[H]


 23 25  0  0  0  0  0  0  0  0999 V2000
   27.5228   10.0699   56.8445 C   0  0  0  0  0  0  0  0  0  0  0  0
   26.3847   10.5737   57.3558 N   0  0  0  0  0  0  0  0  0  0  0  0
   25.1776   10.2372   56.8417 C   0  0  0  0  0  0  0  0  0  0  0  0
   25.0762    9.3718   55.7831 C   0  0  0  0  0  0  0  0  0  0  0  0
   23.8374    9.0460   55.2793 C   0  0  0  0  0  0  0  0  0  0  0  0
   23.8025    8.1591   54.2006 C   0  0  0  0  0  0  0  0  0  0  0  0
   25.0014    7.6749   53.7184 C   0  0  0  0  0  0  0  0  0  0  0  0
   25.0028    6.8696   52.7419 O   0  0  0  0  0  0  0  0  0  0  0  0
   26.1942    8.0101   54.2297 N   0  0  0  0  0  0  0  0  0  0  0  0
   27.4399    7.4655   53.6784 C   0  0  0  0  0  0  0  0  0  0  0  0
   26.2503    8.8624   55.2683 C   0  0  0  0  0  0  0  0  0  0  0  0
   27.4370    9.2267   55.8142 N   0  0  0  0  0  0  0  0  0  0  0  0
   22.5263    7.7641   53.6095 C   0  0  0  0  0  0  0  0  0  0  0  0
   22.0422    6.4740   53.7153 C   0  0  0  0  0  0  0  0  0  0  0  0
   23.0140    5.3154   54.5875 Cl  0  0  0  0  0  0  0  0  0  0  0  0
   20.8389    6.0893   53.1615 C   0  0  0  0  0  0  0  0  0  0  0  0
   20.0783    7.0220   52.4714 C   0  0  0  0  0  0  0  0  0  0  0  0
   20.5359    8.3206   52.3485 C   0  0  0  0  0  0  0  0  0  0  0  0
   21.7533    8.6733   52.9193 C   0  0  0  0  0  0  0  0  0  0  0  0
   22.2747   10.3332   52.7272 Cl  0  0  0  0  0  0  0  0  0  0  0  0
   28.8761   10.8063   58.8058 C   0  0  0  0  0  0  0  0  0  0  0  0
   28.7668   10.4468   57.4107 N   0  0  0  0  0  0  0  0  0  0  0  0
   29.6272   10.4718   56.8311 H   0  0  0  0  0  0  0  0  0  0  0  0
 21 22  1  0  0  0
 22  1  1  0  0  0
  1  2  2  0  0  0
  2  3  1  0  0  0
  3  4  2  0  0  0
  4  5  1  0  0  0
  5  6  2  0  0  0
  6 13  1  0  0  0
 13 14  2  0  0  0
 14 15  1  0  0  0
 14 16  1  0  0  0
 16 17  2  0  0  0
 17 18  1  0  0  0
 18 19  2  0  0  0
 19 20  1  0  0  0
  6  7  1  0  0  0
  7  8  2  0  0  0
  7  9  1  0  0  0
  9 10  1  0  0  0
  9 11  1  0  0  0
 11 12  2  0  0  0
 12  1  1  0  0  0
 11  4  1  0  0  0
 19 13  1  0  0  0
 22 23  1  0  0  0
M  END
> <minimizedAffinity>
12.55455

> <CNNscore>
0.4680288434

> <CNNaffinity>
5.7843828201

> <CNN_VS>
2.7072579861

> <CNNaffinity_variance>
0.2665854990

$$$$
[H]c1c([H])c(Cl)c(-c2c([H])c3c([H])nc(N([H])C([H])([H])[H])nc3n(C([H])([H])[H])c2=O)c(Cl)c1[H]


 23 25  0  0  0  0  0  0  0  0999 V2000
   26.8832    9.7754   56.5106 C   0  0  0  0  0  0  0  0  0  0  0  0
   25.8091   10.5280   56.8114 N   0  0  0  0  0  0  0  0  0  0  0  0
   24.6207   10.3304   56.1924 C   0  0  0  0  0  0  0  0  0  0  0  0
   24.4736    9.3564   55.2386 C   0  0  0  0  0  0  0  0  0  0  0  0
   23.2551    9.1760   54.6246 C   0  0  0  0  0  0  0  0  0  0  0  0
   23.1711    8.1672   53.6619 C   0  0  0  0  0  0  0  0  0  0  0  0
   24.3050    7.4275   53.3950 C   0  0  0  0  0  0  0  0  0  0  0  0
   24.2608    6.5065   52.5281 O   0  0  0  0  0  0  0  0  0  0  0  0
   25.4795    7.6260   54.0097 N   0  0  0  0  0  0  0  0  0  0  0  0
   26.6555    6.8100   53.6878 C   0  0  0  0  0  0  0  0  0  0  0  0
   25.5821    8.5919   54.9396 C   0  0  0  0  0  0  0  0  0  0  0  0
   26.7524    8.8244   55.5841 N   0  0  0  0  0  0  0  0  0  0  0  0
   21.9123    7.9134   52.9652 C   0  0  0  0  0  0  0  0  0  0  0  0
   21.1589    8.9381   52.4245 C   0  0  0  0  0  0  0  0  0  0  0  0
   21.7643   10.5660   52.6012 Cl  0  0  0  0  0  0  0  0  0  0  0  0
   19.9692    8.7108   51.7647 C   0  0  0  0  0  0  0  0  0  0  0  0
   19.5017    7.4113   51.6327 C   0  0  0  0  0  0  0  0  0  0  0  0
   20.2329    6.3649   52.1629 C   0  0  0  0  0  0  0  0  0  0  0  0
   21.4279    6.6307   52.8216 C   0  0  0  0  0  0  0  0  0  0  0  0
   22.3047    5.2613   53.4696 Cl  0  0  0  0  0  0  0  0  0  0  0  0
   29.3647   10.0216   56.4651 C   0  0  0  0  0  0  0  0  0  0  0  0
   28.1097   10.0135   57.1809 N   0  0  0  0  0  0  0  0  0  0  0  0
   28.1298   10.1873   58.2038 H   0  0  0  0  0  0  0  0  0  0  0  0
 21 22  1  0  0  0
 22  1  1  0  0  0
  1  2  2  0  0  0
  2  3  1  0  0  0
  3  4  2  0  0  0
  4  5  1  0  0  0
  5  6  2  0  0  0
  6 13  1  0  0  0
 13 14  2  0  0  0
 14 15  1  0  0  0
 14 16  1  0  0  0
 16 17  2  0  0  0
 17 18  1  0  0  0
 18 19  2  0  0  0
 19 20  1  0  0  0
  6  7  1  0  0  0
  7  8  2  0  0  0
  7  9  1  0  0  0
  9 10  1  0  0  0
  9 11  1  0  0  0
 11 12  2  0  0  0
 12  1  1  0  0  0
 11  4  1  0  0  0
 19 13  1  0  0  0
 22 23  1  0  0  0
M  END
> <minimizedAffinity>
21.47487

> <CNNscore>
0.4275873899

> <CNNaffinity>
5.7988367081

> <CNN_VS>
2.4795093536

> <CNNaffinity_variance>
0.2474627197

$$$$
[H]c1c([H])c(Cl)c(-c2c([H])c3c([H])nc(N([H])C([H])([H])[H])nc3n(C([H])([H])[H])c2=O)c(Cl)c1[H]


 23 25  0  0  0  0  0  0  0  0999 V2000
   27.4396    9.2114   56.1110 C   0  0  0  0  0  0  0  0  0  0  0  0
   27.7109    8.5836   54.9523 N   0  0  0  0  0  0  0  0  0  0  0  0
   26.7218    8.2474   54.0902 C   0  0  0  0  0  0  0  0  0  0  0  0
   25.4111    8.5362   54.3706 C   0  0  0  0  0  0  0  0  0  0  0  0
   24.4247    8.1837   53.4777 C   0  0  0  0  0  0  0  0  0  0  0  0
   23.1099    8.5063   53.8224 C   0  0  0  0  0  0  0  0  0  0  0  0
   22.8921    9.1501   55.0233 C   0  0  0  0  0  0  0  0  0  0  0  0
   21.7120    9.4556   55.3638 O   0  0  0  0  0  0  0  0  0  0  0  0
   23.8736    9.4812   55.8740 N   0  0  0  0  0  0  0  0  0  0  0  0
   23.5866   10.1659   57.1394 C   0  0  0  0  0  0  0  0  0  0  0  0
   25.1464    9.1800   55.5616 C   0  0  0  0  0  0  0  0  0  0  0  0
   26.1679    9.4978   56.3950 N   0  0  0  0  0  0  0  0  0  0  0  0
   22.0065    8.1657   52.9275 C   0  0  0  0  0  0  0  0  0  0  0  0
   21.5293    6.8734   52.8177 C   0  0  0  0  0  0  0  0  0  0  0  0
   22.2944    5.6440   53.7929 Cl  0  0  0  0  0  0  0  0  0  0  0  0
   20.4884    6.5398   51.9764 C   0  0  0  0  0  0  0  0  0  0  0  0
   19.8910    7.5283   51.2079 C   0  0  0  0  0  0  0  0  0  0  0  0
   20.3461    8.8306   51.2957 C   0  0  0  0  0  0  0  0  0  0  0  0
   21.3973    9.1308   52.1543 C   0  0  0  0  0  0  0  0  0  0  0  0
   21.9253   10.7986   52.2181 Cl  0  0  0  0  0  0  0  0  0  0  0  0
   28.3959    9.3313   58.4114 C   0  0  0  0  0  0  0  0  0  0  0  0
   28.5031    9.5465   56.9867 N   0  0  0  0  0  0  0  0  0  0  0  0
   29.3836    9.9549   56.6195 H   0  0  0  0  0  0  0  0  0  0  0  0
 21 22  1  0  0  0
 22  1  1  0  0  0
  1  2  2  0  0  0
  2  3  1  0  0  0
  3  4  2  0  0  0
  4  5  1  0  0  0
  5  6  2  0  0  0
  6 13  1  0  0  0
 13 14  2  0  0  0
 14 15  1  0  0  0
 14 16  1  0  0  0
 16 17  2  0  0  0
 17 18  1  0  0  0
 18 19  2  0  0  0
 19 20  1  0  0  0
  6  7  1  0  0  0
  7  8  2  0  0  0
  7  9  1  0  0  0
  9 10  1  0  0  0
  9 11  1  0  0  0
 11 12  2  0  0  0
 12  1  1  0  0  0
 11  4  1  0  0  0
 19 13  1  0  0  0
 22 23  1  0  0  0
M  END
> <minimizedAffinity>
10.13779

> <CNNscore>
0.3722886145

> <CNNaffinity>
5.9462575912

> <CNN_VS>
2.2137238979

> <CNNaffinity_variance>
0.0366884805

$$$$
[H]c1c([H])c(Cl)c(-c2c([H])c3c([H])nc(N([H])C([H])([H])[H])nc3n(C([H])([H])[H])c2=O)c(Cl)c1[H]


 23 25  0  0  0  0  0  0  0  0999 V2000
   27.4294    9.1964   56.0889 C   0  0  0  0  0  0  0  0  0  0  0  0
   27.6946    8.5722   54.9268 N   0  0  0  0  0  0  0  0  0  0  0  0
   26.7017    8.2452   54.0657 C   0  0  0  0  0  0  0  0  0  0  0  0
   25.3932    8.5399   54.3504 C   0  0  0  0  0  0  0  0  0  0  0  0
   24.4029    8.1967   53.4583 C   0  0  0  0  0  0  0  0  0  0  0  0
   23.0906    8.5249   53.8074 C   0  0  0  0  0  0  0  0  0  0  0  0
   22.8792    9.1647   55.0117 C   0  0  0  0  0  0  0  0  0  0  0  0
   21.7015    9.4751   55.3562 O   0  0  0  0  0  0  0  0  0  0  0  0
   23.8645    9.4867   55.8615 N   0  0  0  0  0  0  0  0  0  0  0  0
   23.5841   10.1674   57.1305 C   0  0  0  0  0  0  0  0  0  0  0  0
   25.1348    9.1799   55.5448 C   0  0  0  0  0  0  0  0  0  0  0  0
   26.1600    9.4885   56.3771 N   0  0  0  0  0  0  0  0  0  0  0  0
   21.9833    8.1943   52.9136 C   0  0  0  0  0  0  0  0  0  0  0  0
   21.3719    9.1509   52.1258 C   0  0  0  0  0  0  0  0  0  0  0  0
   21.9699   10.7877   52.2319 Cl  0  0  0  0  0  0  0  0  0  0  0  0
   20.3258    8.8508   51.2783 C   0  0  0  0  0  0  0  0  0  0  0  0
   19.8621    7.5454   51.2054 C   0  0  0  0  0  0  0  0  0  0  0  0
   20.4533    6.5659   51.9813 C   0  0  0  0  0  0  0  0  0  0  0  0
   21.5056    6.9042   52.8243 C   0  0  0  0  0  0  0  0  0  0  0  0
   22.2096    5.6172   53.7794 Cl  0  0  0  0  0  0  0  0  0  0  0  0
   28.3960    9.2905   58.3862 C   0  0  0  0  0  0  0  0  0  0  0  0
   28.4968    9.5219   56.9636 N   0  0  0  0  0  0  0  0  0  0  0  0
   29.3755    9.9346   56.5970 H   0  0  0  0  0  0  0  0  0  0  0  0
 21 22  1  0  0  0
 22  1  1  0  0  0
  1  2  2  0  0  0
  2  3  1  0  0  0
  3  4  2  0  0  0
  4  5  1  0  0  0
  5  6  2  0  0  0
  6 13  1  0  0  0
 13 14  2  0  0  0
 14 15  1  0  0  0
 14 16  1  0  0  0
 16 17  2  0  0  0
 17 18  1  0  0  0
 18 19  2  0  0  0
 19 20  1  0  0  0
  6  7  1  0  0  0
  7  8  2  0  0  0
  7  9  1  0  0  0
  9 10  1  0  0  0
  9 11  1  0  0  0
 11 12  2  0  0  0
 12  1  1  0  0  0
 11  4  1  0  0  0
 19 13  1  0  0  0
 22 23  1  0  0  0
M  END
> <minimizedAffinity>
10.33167

> <CNNscore>
0.3676076233

> <CNNaffinity>
5.9392938614

> <CNN_VS>
2.1833295822

> <CNNaffinity_variance>
0.0315705091

$$$$
[H]c1c([H])c([H])c(-c2c([H])c([H])c([H])c([H])c2S(=O)(=O)c2c([H])c([H])c(OC([H])([H])[H])c([H])c2[H])c([H])c1[H]


 23 25  0  0  0  0  0  0  0  0999 V2000
   23.2682    7.0609   54.5572 C   0  0  0  0  0  0  0  0  0  0  0  0
   23.4049    5.8888   55.3116 C   0  0  0  0  0  0  0  0  0  0  0  0
   22.3478    5.4141   56.0489 C   0  0  0  0  0  0  0  0  0  0  0  0
   21.1313    6.0788   56.0631 C   0  0  0  0  0  0  0  0  0  0  0  0
   21.0067    7.2240   55.3230 C   0  0  0  0  0  0  0  0  0  0  0  0
   22.0787    7.7278   54.5602 C   0  0  0  0  0  0  0  0  0  0  0  0
   21.8616    8.9535   53.8222 C   0  0  0  0  0  0  0  0  0  0  0  0
   21.9820   10.2254   54.2969 C   0  0  0  0  0  0  0  0  0  0  0  0
   21.7514   11.3046   53.4374 C   0  0  0  0  0  0  0  0  0  0  0  0
   21.4033   11.1176   52.1170 C   0  0  0  0  0  0  0  0  0  0  0  0
   21.2782    9.8403   51.6267 C   0  0  0  0  0  0  0  0  0  0  0  0
   21.5074    8.7905   52.4802 C   0  0  0  0  0  0  0  0  0  0  0  0
   24.6023    7.6150   53.6319 S   0  0  0  0  0  0  0  0  0  0  0  0
   24.1475    8.6439   52.6154 O   0  0  0  0  0  0  0  0  0  0  0  0
   25.1683    6.4452   52.8616 O   0  0  0  0  0  0  0  0  0  0  0  0
   27.8011    9.5805   56.0961 C   0  0  0  0  0  0  0  0  0  0  0  0
   26.5014    9.6504   56.5219 C   0  0  0  0  0  0  0  0  0  0  0  0
   25.5286    9.0303   55.7358 C   0  0  0  0  0  0  0  0  0  0  0  0
   25.8421    8.3710   54.5774 C   0  0  0  0  0  0  0  0  0  0  0  0
   27.1493    8.3187   54.1787 C   0  0  0  0  0  0  0  0  0  0  0  0
   28.1362    8.9291   54.9454 C   0  0  0  0  0  0  0  0  0  0  0  0
   28.5600   10.5487   58.2045 C   0  0  0  0  0  0  0  0  0  0  0  0
   28.7858   10.1906   56.8627 O   0  0  0  0  0  0  0  0  0  0  0  0
 22 23  1  0  0  0
 23 16  1  0  0  0
 16 17  2  0  0  0
 17 18  1  0  0  0
 18 19  2  0  0  0
 19 20  1  0  0  0
 20 21  2  0  0  0
 19 13  1  0  0  0
 13 14  2  0  0  0
 13 15  2  0  0  0
 13  1  1  0  0  0
  1  2  2  0  0  0
  2  3  1  0  0  0
  3  4  2  0  0  0
  4  5  1  0  0  0
  5  6  2  0  0  0
  6  7  1  0  0  0
  7  8  2  0  0  0
  8  9  1  0  0  0
  9 10  2  0  0  0
 10 11  1  0  0  0
 11 12  2  0  0  0
 21 16  1  0  0  0
  6  1  1  0  0  0
 12  7  1  0  0  0
M  END
> <minimizedAffinity>
7.79451

> <CNNscore>
0.6686324477

> <CNNaffinity>
5.3764076233

> <CNN_VS>
3.5948405266

> <CNNaffinity_variance>
0.1813203543

$$$$
[H]c1c([H])c([H])c(-c2c([H])c([H])c([H])c([H])c2S(=O)(=O)c2c([H])c([H])c(OC([H])([H])[H])c([H])c2[H])c([H])c1[H]


 23 25  0  0  0  0  0  0  0  0999 V2000
   25.6021    8.4787   54.6242 C   0  0  0  0  0  0  0  0  0  0  0  0
   26.9399    8.2919   54.9942 C   0  0  0  0  0  0  0  0  0  0  0  0
   27.4194    8.8457   56.1561 C   0  0  0  0  0  0  0  0  0  0  0  0
   26.5970    9.5961   56.9821 C   0  0  0  0  0  0  0  0  0  0  0  0
   25.2908    9.7738   56.6124 C   0  0  0  0  0  0  0  0  0  0  0  0
   24.7792    9.2145   55.4248 C   0  0  0  0  0  0  0  0  0  0  0  0
   23.3908    9.4684   55.1053 C   0  0  0  0  0  0  0  0  0  0  0  0
   22.9129   10.3450   54.1775 C   0  0  0  0  0  0  0  0  0  0  0  0
   21.5321   10.4539   53.9821 C   0  0  0  0  0  0  0  0  0  0  0  0
   20.6360    9.6965   54.7053 C   0  0  0  0  0  0  0  0  0  0  0  0
   21.1054    8.8098   55.6439 C   0  0  0  0  0  0  0  0  0  0  0  0
   22.4620    8.7123   55.8257 C   0  0  0  0  0  0  0  0  0  0  0  0
   25.0307    7.7564   53.1768 S   0  0  0  0  0  0  0  0  0  0  0  0
   25.9384    6.6146   52.7636 O   0  0  0  0  0  0  0  0  0  0  0  0
   25.0812    8.7891   52.0752 O   0  0  0  0  0  0  0  0  0  0  0  0
   20.8887    6.0525   53.5054 C   0  0  0  0  0  0  0  0  0  0  0  0
   21.1326    7.0224   52.5699 C   0  0  0  0  0  0  0  0  0  0  0  0
   22.4293    7.5334   52.4906 C   0  0  0  0  0  0  0  0  0  0  0  0
   23.4350    7.0942   53.3096 C   0  0  0  0  0  0  0  0  0  0  0  0
   23.1597    6.1244   54.2339 C   0  0  0  0  0  0  0  0  0  0  0  0
   21.8752    5.6000   54.3317 C   0  0  0  0  0  0  0  0  0  0  0  0
   19.3643    4.1459   53.5181 C   0  0  0  0  0  0  0  0  0  0  0  0
   19.6054    5.5296   53.6021 O   0  0  0  0  0  0  0  0  0  0  0  0
 22 23  1  0  0  0
 23 16  1  0  0  0
 16 17  2  0  0  0
 17 18  1  0  0  0
 18 19  2  0  0  0
 19 20  1  0  0  0
 20 21  2  0  0  0
 19 13  1  0  0  0
 13 14  2  0  0  0
 13 15  2  0  0  0
 13  1  1  0  0  0
  1  2  2  0  0  0
  2  3  1  0  0  0
  3  4  2  0  0  0
  4  5  1  0  0  0
  5  6  2  0  0  0
  6  7  1  0  0  0
  7  8  2  0  0  0
  8  9  1  0  0  0
  9 10  2  0  0  0
 10 11  1  0  0  0
 11 12  2  0  0  0
 21 16  1  0  0  0
  6  1  1  0  0  0
 12  7  1  0  0  0
M  END
> <minimizedAffinity>
15.76357

> <CNNscore>
0.6615346670

> <CNNaffinity>
5.7759447098

> <CNN_VS>
3.8209877014

> <CNNaffinity_variance>
0.3055563867

$$$$
[H]c1c([H])c([H])c(-c2c([H])c([H])c([H])c([H])c2S(=O)(=O)c2c([H])c([H])c(OC([H])([H])[H])c([H])c2[H])c([H])c1[H]


 23 25  0  0  0  0  0  0  0  0999 V2000
   24.6209    9.0267   55.5155 C   0  0  0  0  0  0  0  0  0  0  0  0
   25.5125    9.8835   56.1731 C   0  0  0  0  0  0  0  0  0  0  0  0
   26.8642    9.6441   56.1245 C   0  0  0  0  0  0  0  0  0  0  0  0
   27.3725    8.5580   55.4291 C   0  0  0  0  0  0  0  0  0  0  0  0
   26.4936    7.7255   54.7894 C   0  0  0  0  0  0  0  0  0  0  0  0
   25.1038    7.9531   54.8271 C   0  0  0  0  0  0  0  0  0  0  0  0
   24.2490    7.0118   54.1362 C   0  0  0  0  0  0  0  0  0  0  0  0
   23.6713    5.8947   54.6614 C   0  0  0  0  0  0  0  0  0  0  0  0
   22.8530    5.0991   53.8526 C   0  0  0  0  0  0  0  0  0  0  0  0
   22.6133    5.4138   52.5324 C   0  0  0  0  0  0  0  0  0  0  0  0
   23.1904    6.5370   51.9912 C   0  0  0  0  0  0  0  0  0  0  0  0
   23.9907    7.3091   52.7953 C   0  0  0  0  0  0  0  0  0  0  0  0
   22.9405    9.3661   55.5799 S   0  0  0  0  0  0  0  0  0  0  0  0
   22.6490   10.3802   56.6686 O   0  0  0  0  0  0  0  0  0  0  0  0
   22.2101    8.0951   55.9455 O   0  0  0  0  0  0  0  0  0  0  0  0
   21.2949   11.0939   51.7755 C   0  0  0  0  0  0  0  0  0  0  0  0
   21.7182   11.9462   52.7603 C   0  0  0  0  0  0  0  0  0  0  0  0
   22.2250   11.3807   53.9317 C   0  0  0  0  0  0  0  0  0  0  0  0
   22.3044   10.0253   54.1092 C   0  0  0  0  0  0  0  0  0  0  0  0
   21.8735    9.2004   53.1070 C   0  0  0  0  0  0  0  0  0  0  0  0
   21.3646    9.7405   51.9307 C   0  0  0  0  0  0  0  0  0  0  0  0
   21.0418   12.9684   50.2323 C   0  0  0  0  0  0  0  0  0  0  0  0
   20.7869   11.6347   50.6011 O   0  0  0  0  0  0  0  0  0  0  0  0
 22 23  1  0  0  0
 23 16  1  0  0  0
 16 17  2  0  0  0
 17 18  1  0  0  0
 18 19  2  0  0  0
 19 20  1  0  0  0
 20 21  2  0  0  0
 19 13  1  0  0  0
 13 14  2  0  0  0
 13 15  2  0  0  0
 13  1  1  0  0  0
  1  2  2  0  0  0
  2  3  1  0  0  0
  3  4  2  0  0  0
  4  5  1  0  0  0
  5  6  2  0  0  0
  6  7  1  0  0  0
  7  8  2  0  0  0
  8  9  1  0  0  0
  9 10  2  0  0  0
 10 11  1  0  0  0
 11 12  2  0  0  0
 21 16  1  0  0  0
  6  1  1  0  0  0
 12  7  1  0  0  0
M  END
> <minimizedAffinity>
17.49212

> <CNNscore>
0.6209538579

> <CNNaffinity>
5.7418069839

> <CNN_VS>
3.5653972626

> <CNNaffinity_variance>
0.3343996406

$$$$
[H]c1c([H])c([H])c(-c2c([H])c([H])c([H])c([H])c2S(=O)(=O)c2c([H])c([H])c(OC([H])([H])[H])c([H])c2[H])c([H])c1[H]


 23 25  0  0  0  0  0  0  0  0999 V2000
   22.4429    7.0493   53.2028 C   0  0  0  0  0  0  0  0  0  0  0  0
   22.3263    5.6874   53.5079 C   0  0  0  0  0  0  0  0  0  0  0  0
   21.1156    5.1669   53.8950 C   0  0  0  0  0  0  0  0  0  0  0  0
   19.9906    5.9711   53.9917 C   0  0  0  0  0  0  0  0  0  0  0  0
   20.1138    7.3013   53.6918 C   0  0  0  0  0  0  0  0  0  0  0  0
   21.3464    7.8550   53.2931 C   0  0  0  0  0  0  0  0  0  0  0  0
   21.3869    9.2741   53.0121 C   0  0  0  0  0  0  0  0  0  0  0  0
   21.2969    9.8677   51.7886 C   0  0  0  0  0  0  0  0  0  0  0  0
   21.3361   11.2630   51.6971 C   0  0  0  0  0  0  0  0  0  0  0  0
   21.4644   12.0591   52.8148 C   0  0  0  0  0  0  0  0  0  0  0  0
   21.5566   11.4726   54.0537 C   0  0  0  0  0  0  0  0  0  0  0  0
   21.5166   10.1030   54.1299 C   0  0  0  0  0  0  0  0  0  0  0  0
   23.9652    7.6627   52.7034 S   0  0  0  0  0  0  0  0  0  0  0  0
   23.7785    8.8805   51.8198 O   0  0  0  0  0  0  0  0  0  0  0  0
   24.6555    6.6078   51.8709 O   0  0  0  0  0  0  0  0  0  0  0  0
   26.6205    8.9354   56.0941 C   0  0  0  0  0  0  0  0  0  0  0  0
   27.1692    8.2414   55.0487 C   0  0  0  0  0  0  0  0  0  0  0  0
   26.3198    7.8590   54.0090 C   0  0  0  0  0  0  0  0  0  0  0  0
   24.9834    8.1571   54.0153 C   0  0  0  0  0  0  0  0  0  0  0  0
   24.4653    8.8514   55.0737 C   0  0  0  0  0  0  0  0  0  0  0  0
   25.2919    9.2432   56.1213 C   0  0  0  0  0  0  0  0  0  0  0  0
   27.6184   10.6810   57.4783 C   0  0  0  0  0  0  0  0  0  0  0  0
   27.4472    9.3261   57.1398 O   0  0  0  0  0  0  0  0  0  0  0  0
 22 23  1  0  0  0
 23 16  1  0  0  0
 16 17  2  0  0  0
 17 18  1  0  0  0
 18 19  2  0  0  0
 19 20  1  0  0  0
 20 21  2  0  0  0
 19 13  1  0  0  0
 13 14  2  0  0  0
 13 15  2  0  0  0
 13  1  1  0  0  0
  1  2  2  0  0  0
  2  3  1  0  0  0
  3  4  2  0  0  0
  4  5  1  0  0  0
  5  6  2  0  0  0
  6  7  1  0  0  0
  7  8  2  0  0  0
  8  9  1  0  0  0
  9 10  2  0  0  0
 10 11  1  0  0  0
 11 12  2  0  0  0
 21 16  1  0  0  0
  6  1  1  0  0  0
 12  7  1  0  0  0
M  END
> <minimizedAffinity>
14.11574

> <CNNscore>
0.6150411367

> <CNNaffinity>
5.4262657166

> <CNN_VS>
3.3373765945

> <CNNaffinity_variance>
0.2255103141

$$$$
[H]c1c([H])c([H])c(-c2c([H])c([H])c([H])c([H])c2S(=O)(=O)c2c([H])c([H])c(OC([H])([H])[H])c([H])c2[H])c([H])c1[H]


 23 25  0  0  0  0  0  0  0  0999 V2000
   26.4161    8.8743   55.0048 C   0  0  0  0  0  0  0  0  0  0  0  0
   26.2340    8.2527   53.7631 C   0  0  0  0  0  0  0  0  0  0  0  0
   27.3167    7.7865   53.0582 C   0  0  0  0  0  0  0  0  0  0  0  0
   28.6038    7.9194   53.5556 C   0  0  0  0  0  0  0  0  0  0  0  0
   28.7725    8.5286   54.7701 C   0  0  0  0  0  0  0  0  0  0  0  0
   27.6755    9.0139   55.5089 C   0  0  0  0  0  0  0  0  0  0  0  0
   27.9497    9.6589   56.7750 C   0  0  0  0  0  0  0  0  0  0  0  0
   28.2851    9.0492   57.9469 C   0  0  0  0  0  0  0  0  0  0  0  0
   28.5359    9.8295   59.0805 C   0  0  0  0  0  0  0  0  0  0  0  0
   28.4524   11.2048   59.0463 C   0  0  0  0  0  0  0  0  0  0  0  0
   28.1146   11.8311   57.8711 C   0  0  0  0  0  0  0  0  0  0  0  0
   27.8714   11.0542   56.7663 C   0  0  0  0  0  0  0  0  0  0  0  0
   25.0406    9.4272   55.8681 S   0  0  0  0  0  0  0  0  0  0  0  0
   25.0192   10.9426   55.9108 O   0  0  0  0  0  0  0  0  0  0  0  0
   25.1446    8.9411   57.2947 O   0  0  0  0  0  0  0  0  0  0  0  0
   21.1255    8.1634   54.0673 C   0  0  0  0  0  0  0  0  0  0  0  0
   21.2095    9.3876   54.6752 C   0  0  0  0  0  0  0  0  0  0  0  0
   22.4389    9.7537   55.2260 C   0  0  0  0  0  0  0  0  0  0  0  0
   23.5333    8.9326   55.1710 C   0  0  0  0  0  0  0  0  0  0  0  0
   23.4175    7.7159   54.5570 C   0  0  0  0  0  0  0  0  0  0  0  0
   22.2028    7.3292   54.0010 C   0  0  0  0  0  0  0  0  0  0  0  0
   19.8072    7.3893   52.1642 C   0  0  0  0  0  0  0  0  0  0  0  0
   19.9117    7.7783   53.5124 O   0  0  0  0  0  0  0  0  0  0  0  0
 22 23  1  0  0  0
 23 16  1  0  0  0
 16 17  2  0  0  0
 17 18  1  0  0  0
 18 19  2  0  0  0
 19 20  1  0  0  0
 20 21  2  0  0  0
 19 13  1  0  0  0
 13 14  2  0  0  0
 13 15  2  0  0  0
 13  1  1  0  0  0
  1  2  2  0  0  0
  2  3  1  0  0  0
  3  4  2  0  0  0
  4  5  1  0  0  0
  5  6  2  0  0  0
  6  7  1  0  0  0
  7  8  2  0  0  0
  8  9  1  0  0  0
  9 10  2  0  0  0
 10 11  1  0  0  0
 11 12  2  0  0  0
 21 16  1  0  0  0
  6  1  1  0  0  0
 12  7  1  0  0  0
M  END
> <minimizedAffinity>
15.99813

> <CNNscore>
0.6039805412

> <CNNaffinity>
5.2421040535

> <CNN_VS>
3.1661288738

> <CNNaffinity_variance>
0.9613394737

$$$$
[H]c1c([H])c([H])c(-c2c([H])c([H])c([H])c([H])c2S(=O)(=O)c2c([H])c([H])c(OC([H])([H])[H])c([H])c2[H])c([H])c1[H]


 23 25  0  0  0  0  0  0  0  0999 V2000
   25.2456    9.0942   55.4222 C   0  0  0  0  0  0  0  0  0  0  0  0
   26.3151    9.8462   55.9242 C   0  0  0  0  0  0  0  0  0  0  0  0
   27.6091    9.4761   55.6502 C   0  0  0  0  0  0  0  0  0  0  0  0
   27.8839    8.3590   54.8767 C   0  0  0  0  0  0  0  0  0  0  0  0
   26.8323    7.6295   54.3904 C   0  0  0  0  0  0  0  0  0  0  0  0
   25.4977    7.9919   54.6600 C   0  0  0  0  0  0  0  0  0  0  0  0
   24.4504    7.1527   54.1187 C   0  0  0  0  0  0  0  0  0  0  0  0
   24.0944    7.0329   52.8085 C   0  0  0  0  0  0  0  0  0  0  0  0
   23.0637    6.1563   52.4537 C   0  0  0  0  0  0  0  0  0  0  0  0
   22.3936    5.4065   53.3963 C   0  0  0  0  0  0  0  0  0  0  0  0
   22.7428    5.5189   54.7202 C   0  0  0  0  0  0  0  0  0  0  0  0
   23.7557    6.3821   55.0550 C   0  0  0  0  0  0  0  0  0  0  0  0
   23.6417    9.5958   55.7668 S   0  0  0  0  0  0  0  0  0  0  0  0
   23.5837   11.1023   55.9277 O   0  0  0  0  0  0  0  0  0  0  0  0
   23.2243    8.9888   57.0859 O   0  0  0  0  0  0  0  0  0  0  0  0
   20.6742    8.5287   52.5696 C   0  0  0  0  0  0  0  0  0  0  0  0
   20.4692    8.0678   53.8427 C   0  0  0  0  0  0  0  0  0  0  0  0
   21.4079    8.4154   54.8157 C   0  0  0  0  0  0  0  0  0  0  0  0
   22.5010    9.1882   54.5278 C   0  0  0  0  0  0  0  0  0  0  0  0
   22.6779    9.6331   53.2467 C   0  0  0  0  0  0  0  0  0  0  0  0
   21.7560    9.2998   52.2601 C   0  0  0  0  0  0  0  0  0  0  0  0
   20.1597    7.7693   50.3073 C   0  0  0  0  0  0  0  0  0  0  0  0
   19.7526    8.1950   51.5851 O   0  0  0  0  0  0  0  0  0  0  0  0
 22 23  1  0  0  0
 23 16  1  0  0  0
 16 17  2  0  0  0
 17 18  1  0  0  0
 18 19  2  0  0  0
 19 20  1  0  0  0
 20 21  2  0  0  0
 19 13  1  0  0  0
 13 14  2  0  0  0
 13 15  2  0  0  0
 13  1  1  0  0  0
  1  2  2  0  0  0
  2  3  1  0  0  0
  3  4  2  0  0  0
  4  5  1  0  0  0
  5  6  2  0  0  0
  6  7  1  0  0  0
  7  8  2  0  0  0
  8  9  1  0  0  0
  9 10  2  0  0  0
 10 11  1  0  0  0
 11 12  2  0  0  0
 21 16  1  0  0  0
  6  1  1  0  0  0
 12  7  1  0  0  0
M  END
> <minimizedAffinity>
13.39531

> <CNNscore>
0.6012363434

> <CNNaffinity>
5.7612261772

> <CNN_VS>
3.4638586044

> <CNNaffinity_variance>
0.4842477739

$$$$
[H]c1c([H])c([H])c(-c2c([H])c([H])c([H])c([H])c2S(=O)(=O)c2c([H])c([H])c(OC([H])([H])[H])c([H])c2[H])c([H])c1[H]


 23 25  0  0  0  0  0  0  0  0999 V2000
   21.9935    9.8584   53.5351 C   0  0  0  0  0  0  0  0  0  0  0  0
   22.0384   11.2207   53.2132 C   0  0  0  0  0  0  0  0  0  0  0  0
   21.4678   11.6751   52.0493 C   0  0  0  0  0  0  0  0  0  0  0  0
   20.8397   10.8028   51.1739 C   0  0  0  0  0  0  0  0  0  0  0  0
   20.8007    9.4728   51.4964 C   0  0  0  0  0  0  0  0  0  0  0  0
   21.3800    8.9863   52.6850 C   0  0  0  0  0  0  0  0  0  0  0  0
   21.3058    7.5630   52.9359 C   0  0  0  0  0  0  0  0  0  0  0  0
   22.3532    6.7033   53.0820 C   0  0  0  0  0  0  0  0  0  0  0  0
   22.1021    5.3515   53.3399 C   0  0  0  0  0  0  0  0  0  0  0  0
   20.8187    4.8613   53.4504 C   0  0  0  0  0  0  0  0  0  0  0  0
   19.7545    5.7177   53.3046 C   0  0  0  0  0  0  0  0  0  0  0  0
   20.0144    7.0413   53.0522 C   0  0  0  0  0  0  0  0  0  0  0  0
   22.6984    9.3275   55.0062 S   0  0  0  0  0  0  0  0  0  0  0  0
   21.9563    8.1179   55.5399 O   0  0  0  0  0  0  0  0  0  0  0  0
   22.5536   10.4288   56.0302 O   0  0  0  0  0  0  0  0  0  0  0  0
   27.0089    8.1241   54.6330 C   0  0  0  0  0  0  0  0  0  0  0  0
   26.6275    8.8963   55.6977 C   0  0  0  0  0  0  0  0  0  0  0  0
   25.2814    9.2549   55.7877 C   0  0  0  0  0  0  0  0  0  0  0  0
   24.3599    8.8592   54.8554 C   0  0  0  0  0  0  0  0  0  0  0  0
   24.7720    8.0884   53.8035 C   0  0  0  0  0  0  0  0  0  0  0  0
   26.1081    7.7184   53.6924 C   0  0  0  0  0  0  0  0  0  0  0  0
   29.3787    8.5807   54.9999 C   0  0  0  0  0  0  0  0  0  0  0  0
   28.3436    7.7553   54.5233 O   0  0  0  0  0  0  0  0  0  0  0  0
 22 23  1  0  0  0
 23 16  1  0  0  0
 16 17  2  0  0  0
 17 18  1  0  0  0
 18 19  2  0  0  0
 19 20  1  0  0  0
 20 21  2  0  0  0
 19 13  1  0  0  0
 13 14  2  0  0  0
 13 15  2  0  0  0
 13  1  1  0  0  0
  1  2  2  0  0  0
  2  3  1  0  0  0
  3  4  2  0  0  0
  4  5  1  0  0  0
  5  6  2  0  0  0
  6  7  1  0  0  0
  7  8  2  0  0  0
  8  9  1  0  0  0
  9 10  2  0  0  0
 10 11  1  0  0  0
 11 12  2  0  0  0
 21 16  1  0  0  0
  6  1  1  0  0  0
 12  7  1  0  0  0
M  END
> <minimizedAffinity>
8.65758

> <CNNscore>
0.5830444694

> <CNNaffinity>
5.5149602890

> <CNN_VS>
3.2154669762

> <CNNaffinity_variance>
0.2432376146

$$$$
[H]c1c([H])c([H])c(-c2c([H])c([H])c([H])c([H])c2S(=O)(=O)c2c([H])c([H])c(OC([H])([H])[H])c([H])c2[H])c([H])c1[H]


 23 25  0  0  0  0  0  0  0  0999 V2000
   21.9597    9.2174   53.4474 C   0  0  0  0  0  0  0  0  0  0  0  0
   21.3531   10.2247   52.6866 C   0  0  0  0  0  0  0  0  0  0  0  0
   20.7401    9.9176   51.4964 C   0  0  0  0  0  0  0  0  0  0  0  0
   20.7080    8.6144   51.0250 C   0  0  0  0  0  0  0  0  0  0  0  0
   21.3037    7.6361   51.7751 C   0  0  0  0  0  0  0  0  0  0  0  0
   21.9379    7.9300   52.9984 C   0  0  0  0  0  0  0  0  0  0  0  0
   22.5557    6.8355   53.7157 C   0  0  0  0  0  0  0  0  0  0  0  0
   23.5575    6.0270   53.2680 C   0  0  0  0  0  0  0  0  0  0  0  0
   24.0542    5.0210   54.1034 C   0  0  0  0  0  0  0  0  0  0  0  0
   23.5565    4.8224   55.3732 C   0  0  0  0  0  0  0  0  0  0  0  0
   22.5463    5.6305   55.8359 C   0  0  0  0  0  0  0  0  0  0  0  0
   22.0682    6.6137   55.0066 C   0  0  0  0  0  0  0  0  0  0  0  0
   22.6990    9.6324   54.9388 S   0  0  0  0  0  0  0  0  0  0  0  0
   22.0520    8.8695   56.0781 O   0  0  0  0  0  0  0  0  0  0  0  0
   22.4650   11.1027   55.1953 O   0  0  0  0  0  0  0  0  0  0  0  0
   27.0892    8.7053   55.1242 C   0  0  0  0  0  0  0  0  0  0  0  0
   26.5027    9.3444   56.1839 C   0  0  0  0  0  0  0  0  0  0  0  0
   25.1368    9.6196   56.0983 C   0  0  0  0  0  0  0  0  0  0  0  0
   24.3925    9.2713   55.0030 C   0  0  0  0  0  0  0  0  0  0  0  0
   25.0072    8.6338   53.9607 C   0  0  0  0  0  0  0  0  0  0  0  0
   26.3672    8.3491   54.0231 C   0  0  0  0  0  0  0  0  0  0  0  0
   29.0696    7.5780   54.2490 C   0  0  0  0  0  0  0  0  0  0  0  0
   28.4475    8.4214   55.1878 O   0  0  0  0  0  0  0  0  0  0  0  0
 22 23  1  0  0  0
 23 16  1  0  0  0
 16 17  2  0  0  0
 17 18  1  0  0  0
 18 19  2  0  0  0
 19 20  1  0  0  0
 20 21  2  0  0  0
 19 13  1  0  0  0
 13 14  2  0  0  0
 13 15  2  0  0  0
 13  1  1  0  0  0
  1  2  2  0  0  0
  2  3  1  0  0  0
  3  4  2  0  0  0
  4  5  1  0  0  0
  5  6  2  0  0  0
  6  7  1  0  0  0
  7  8  2  0  0  0
  8  9  1  0  0  0
  9 10  2  0  0  0
 10 11  1  0  0  0
 11 12  2  0  0  0
 21 16  1  0  0  0
  6  1  1  0  0  0
 12  7  1  0  0  0
M  END
> <minimizedAffinity>
9.94927

> <CNNscore>
0.5813108087

> <CNNaffinity>
5.4772005081

> <CNN_VS>
3.1839559078

> <CNNaffinity_variance>
0.2961471677

$$$$
[H]c1c([H])c([H])c(-c2c([H])c([H])c([H])c([H])c2S(=O)(=O)c2c([H])c([H])c(OC([H])([H])[H])c([H])c2[H])c([H])c1[H]


 23 25  0  0  0  0  0  0  0  0999 V2000
   22.1113    7.4119   52.7004 C   0  0  0  0  0  0  0  0  0  0  0  0
   21.7711    6.7969   51.4890 C   0  0  0  0  0  0  0  0  0  0  0  0
   20.9460    7.4369   50.5967 C   0  0  0  0  0  0  0  0  0  0  0  0
   20.4355    8.6959   50.8724 C   0  0  0  0  0  0  0  0  0  0  0  0
   20.7731    9.2895   52.0591 C   0  0  0  0  0  0  0  0  0  0  0  0
   21.6175    8.6501   52.9880 C   0  0  0  0  0  0  0  0  0  0  0  0
   21.9070    9.3455   54.2237 C   0  0  0  0  0  0  0  0  0  0  0  0
   23.1374    9.6856   54.7010 C   0  0  0  0  0  0  0  0  0  0  0  0
   23.2375   10.3769   55.9130 C   0  0  0  0  0  0  0  0  0  0  0  0
   22.1214   10.7254   56.6426 C   0  0  0  0  0  0  0  0  0  0  0  0
   20.8755   10.3877   56.1723 C   0  0  0  0  0  0  0  0  0  0  0  0
   20.7911    9.7099   54.9820 C   0  0  0  0  0  0  0  0  0  0  0  0
   23.1600    6.5932   53.7834 S   0  0  0  0  0  0  0  0  0  0  0  0
   23.4547    5.1952   53.2760 O   0  0  0  0  0  0  0  0  0  0  0  0
   22.4558    6.4475   55.1120 O   0  0  0  0  0  0  0  0  0  0  0  0
   27.1327    8.6193   54.3129 C   0  0  0  0  0  0  0  0  0  0  0  0
   26.6043    8.5182   53.0535 C   0  0  0  0  0  0  0  0  0  0  0  0
   25.3683    7.8835   52.9194 C   0  0  0  0  0  0  0  0  0  0  0  0
   24.6924    7.3736   53.9956 C   0  0  0  0  0  0  0  0  0  0  0  0
   25.2464    7.4902   55.2406 C   0  0  0  0  0  0  0  0  0  0  0  0
   26.4771    8.1185   55.3993 C   0  0  0  0  0  0  0  0  0  0  0  0
   28.8610    9.5840   55.7415 C   0  0  0  0  0  0  0  0  0  0  0  0
   28.3618    9.2470   54.4700 O   0  0  0  0  0  0  0  0  0  0  0  0
 22 23  1  0  0  0
 23 16  1  0  0  0
 16 17  2  0  0  0
 17 18  1  0  0  0
 18 19  2  0  0  0
 19 20  1  0  0  0
 20 21  2  0  0  0
 19 13  1  0  0  0
 13 14  2  0  0  0
 13 15  2  0  0  0
 13  1  1  0  0  0
  1  2  2  0  0  0
  2  3  1  0  0  0
  3  4  2  0  0  0
  4  5  1  0  0  0
  5  6  2  0  0  0
  6  7  1  0  0  0
  7  8  2  0  0  0
  8  9  1  0  0  0
  9 10  2  0  0  0
 10 11  1  0  0  0
 11 12  2  0  0  0
 21 16  1  0  0  0
  6  1  1  0  0  0
 12  7  1  0  0  0
M  END
> <minimizedAffinity>
15.42035

> <CNNscore>
0.5709522367

> <CNNaffinity>
5.6993393898

> <CNN_VS>
3.2540504932

> <CNNaffinity_variance>
0.1513646543

$$$$
[H]c1nc(Cl)c(Cl)c([H])c1OC([H])([H])[C@@]1([H])N(C([H])([H])[H])C([H])([H])C([H])([H])C1([H])[H]


 16 17  0  0  0  0  0  0  0  0999 V2000
   24.4097    7.8560   53.0423 O   0  0  0  0  0  0  0  0  0  0  0  0
   25.3524    8.2333   53.9536 C   0  0  0  0  0  0  0  0  0  0  0  0
   24.9078    8.8318   55.1459 C   0  0  0  0  0  0  0  0  0  0  0  0
   25.7441    9.2364   56.1042 N   0  0  0  0  0  0  0  0  0  0  0  0
   27.0767    9.1076   56.0140 C   0  0  0  0  0  0  0  0  0  0  0  0
   28.1449    9.6523   57.2961 Cl  0  0  0  0  0  0  0  0  0  0  0  0
   27.5569    8.5261   54.8631 C   0  0  0  0  0  0  0  0  0  0  0  0
   29.2704    8.3260   54.6746 Cl  0  0  0  0  0  0  0  0  0  0  0  0
   26.7101    8.0918   53.8416 C   0  0  0  0  0  0  0  0  0  0  0  0
   23.2655    7.1126   53.1333 C   0  0  0  0  0  0  0  0  0  0  0  0
   21.1477    9.8232   54.4835 C   0  0  0  0  0  0  0  0  0  0  0  0
   22.0819    9.1253   53.6571 N   0  0  0  0  0  0  0  0  0  0  0  0
   21.7064    9.1905   52.2651 C   0  0  0  0  0  0  0  0  0  0  0  0
   20.8537    7.9742   51.9769 C   0  0  0  0  0  0  0  0  0  0  0  0
   20.7993    7.2438   53.3085 C   0  0  0  0  0  0  0  0  0  0  0  0
   22.1216    7.6937   53.9159 C   0  0  0  0  0  0  0  0  0  0  0  0
 11 12  1  0  0  0
 12 13  1  0  0  0
 13 14  1  0  0  0
 14 15  1  0  0  0
 15 16  1  0  0  0
 16 10  1  0  0  0
 10  1  1  0  0  0
  1  2  1  0  0  0
  2  3  2  0  0  0
  3  4  1  0  0  0
  4  5  2  0  0  0
  5  6  1  0  0  0
  5  7  1  0  0  0
  7  8  1  0  0  0
  7  9  2  0  0  0
 16 12  1  0  0  0
  9  2  1  0  0  0
M  END
> <minimizedAffinity>
-2.59706

> <CNNscore>
0.5397576094

> <CNNaffinity>
5.1897482872

> <CNN_VS>
2.8012061119

> <CNNaffinity_variance>
0.2450844347

$$$$
[H]c1nc(Cl)c(Cl)c([H])c1OC([H])([H])[C@@]1([H])N(C([H])([H])[H])C([H])([H])C([H])([H])C1([H])[H]


 16 17  0  0  0  0  0  0  0  0999 V2000
   23.3383    8.3140   54.2116 O   0  0  0  0  0  0  0  0  0  0  0  0
   24.5974    8.5235   54.6934 C   0  0  0  0  0  0  0  0  0  0  0  0
   24.7338    9.3178   55.8456 C   0  0  0  0  0  0  0  0  0  0  0  0
   25.9179    9.5843   56.4009 N   0  0  0  0  0  0  0  0  0  0  0  0
   27.0770    9.1191   55.9100 C   0  0  0  0  0  0  0  0  0  0  0  0
   28.6156    9.4916   56.6685 Cl  0  0  0  0  0  0  0  0  0  0  0  0
   26.9911    8.3360   54.7819 C   0  0  0  0  0  0  0  0  0  0  0  0
   28.4487    7.6981   54.0890 Cl  0  0  0  0  0  0  0  0  0  0  0  0
   25.7690    8.0378   54.1762 C   0  0  0  0  0  0  0  0  0  0  0  0
   22.1765    9.0314   54.2872 C   0  0  0  0  0  0  0  0  0  0  0  0
   20.7037    7.9939   51.0607 C   0  0  0  0  0  0  0  0  0  0  0  0
   21.6623    8.2138   52.0979 N   0  0  0  0  0  0  0  0  0  0  0  0
   22.3282    6.9883   52.4691 C   0  0  0  0  0  0  0  0  0  0  0  0
   21.5386    6.3803   53.6079 C   0  0  0  0  0  0  0  0  0  0  0  0
   20.4029    7.3654   53.8302 C   0  0  0  0  0  0  0  0  0  0  0  0
   21.0644    8.6507   53.3506 C   0  0  0  0  0  0  0  0  0  0  0  0
 11 12  1  0  0  0
 12 13  1  0  0  0
 13 14  1  0  0  0
 14 15  1  0  0  0
 15 16  1  0  0  0
 16 10  1  0  0  0
 10  1  1  0  0  0
  1  2  1  0  0  0
  2  3  2  0  0  0
  3  4  1  0  0  0
  4  5  2  0  0  0
  5  6  1  0  0  0
  5  7  1  0  0  0
  7  8  1  0  0  0
  7  9  2  0  0  0
 16 12  1  0  0  0
  9  2  1  0  0  0
M  END
> <minimizedAffinity>
1.47331

> <CNNscore>
0.5144488215

> <CNNaffinity>
5.1606550217

> <CNN_VS>
2.6548929214

> <CNNaffinity_variance>
0.1623140424

$$$$
[H]c1nc(Cl)c(Cl)c([H])c1OC([H])([H])[C@@]1([H])N(C([H])([H])[H])C([H])([H])C([H])([H])C1([H])[H]


 16 17  0  0  0  0  0  0  0  0999 V2000
   23.8712    7.6183   53.0759 O   0  0  0  0  0  0  0  0  0  0  0  0
   23.0912    8.7140   53.3053 C   0  0  0  0  0  0  0  0  0  0  0  0
   22.5918    9.4074   52.1886 C   0  0  0  0  0  0  0  0  0  0  0  0
   21.8186   10.4897   52.2994 N   0  0  0  0  0  0  0  0  0  0  0  0
   21.4518   11.0084   53.4814 C   0  0  0  0  0  0  0  0  0  0  0  0
   20.4334   12.4342   53.5869 Cl  0  0  0  0  0  0  0  0  0  0  0  0
   21.9179   10.3611   54.6026 C   0  0  0  0  0  0  0  0  0  0  0  0
   21.4851   10.9740   56.1675 Cl  0  0  0  0  0  0  0  0  0  0  0  0
   22.7280    9.2268   54.5222 C   0  0  0  0  0  0  0  0  0  0  0  0
   23.6076    6.2776   53.0201 C   0  0  0  0  0  0  0  0  0  0  0  0
   21.7715    6.2656   56.2271 C   0  0  0  0  0  0  0  0  0  0  0  0
   22.2875    6.7068   54.9693 N   0  0  0  0  0  0  0  0  0  0  0  0
   21.2286    7.1237   54.0816 C   0  0  0  0  0  0  0  0  0  0  0  0
   20.8318    5.9141   53.2636 C   0  0  0  0  0  0  0  0  0  0  0  0
   21.7539    4.8159   53.7667 C   0  0  0  0  0  0  0  0  0  0  0  0
   22.9462    5.6507   54.2153 C   0  0  0  0  0  0  0  0  0  0  0  0
 11 12  1  0  0  0
 12 13  1  0  0  0
 13 14  1  0  0  0
 14 15  1  0  0  0
 15 16  1  0  0  0
 16 10  1  0  0  0
 10  1  1  0  0  0
  1  2  1  0  0  0
  2  3  2  0  0  0
  3  4  1  0  0  0
  4  5  2  0  0  0
  5  6  1  0  0  0
  5  7  1  0  0  0
  7  8  1  0  0  0
  7  9  2  0  0  0
 16 12  1  0  0  0
  9  2  1  0  0  0
M  END
> <minimizedAffinity>
10.51780

> <CNNscore>
0.5124399662

> <CNNaffinity>
5.3000364304

> <CNN_VS>
2.7159504890

> <CNNaffinity_variance>
0.2541064620

$$$$
[H]c1nc(Cl)c(Cl)c([H])c1OC([H])([H])[C@@]1([H])N(C([H])([H])[H])C([H])([H])C([H])([H])C1([H])[H]


 16 17  0  0  0  0  0  0  0  0999 V2000
   23.2123    9.1291   55.1436 O   0  0  0  0  0  0  0  0  0  0  0  0
   24.5566    8.9036   55.0844 C   0  0  0  0  0  0  0  0  0  0  0  0
   25.0534    8.1949   53.9761 C   0  0  0  0  0  0  0  0  0  0  0  0
   26.3502    7.9214   53.8182 N   0  0  0  0  0  0  0  0  0  0  0  0
   27.2893    8.2975   54.6998 C   0  0  0  0  0  0  0  0  0  0  0  0
   28.9862    7.9189   54.4576 Cl  0  0  0  0  0  0  0  0  0  0  0  0
   26.8481    8.9948   55.8009 C   0  0  0  0  0  0  0  0  0  0  0  0
   28.0051    9.5147   56.9852 Cl  0  0  0  0  0  0  0  0  0  0  0  0
   25.4993    9.2976   55.9965 C   0  0  0  0  0  0  0  0  0  0  0  0
   22.1210    8.3126   55.0317 C   0  0  0  0  0  0  0  0  0  0  0  0
   21.0504    9.1914   51.6057 C   0  0  0  0  0  0  0  0  0  0  0  0
   21.8557    8.7210   52.6889 N   0  0  0  0  0  0  0  0  0  0  0  0
   22.2971    7.3648   52.4679 C   0  0  0  0  0  0  0  0  0  0  0  0
   21.2700    6.4535   53.1040 C   0  0  0  0  0  0  0  0  0  0  0  0
   20.2459    7.4117   53.6892 C   0  0  0  0  0  0  0  0  0  0  0  0
   21.1296    8.6253   53.9464 C   0  0  0  0  0  0  0  0  0  0  0  0
 11 12  1  0  0  0
 12 13  1  0  0  0
 13 14  1  0  0  0
 14 15  1  0  0  0
 15 16  1  0  0  0
 16 10  1  0  0  0
 10  1  1  0  0  0
  1  2  1  0  0  0
  2  3  2  0  0  0
  3  4  1  0  0  0
  4  5  2  0  0  0
  5  6  1  0  0  0
  5  7  1  0  0  0
  7  8  1  0  0  0
  7  9  2  0  0  0
 16 12  1  0  0  0
  9  2  1  0  0  0
M  END
> <minimizedAffinity>
-0.22768

> <CNNscore>
0.4680520296

> <CNNaffinity>
5.1850509644

> <CNN_VS>
2.4268736839

> <CNNaffinity_variance>
0.2204696685

$$$$
[H]c1nc(Cl)c(Cl)c([H])c1OC([H])([H])[C@@]1([H])N(C([H])([H])[H])C([H])([H])C([H])([H])C1([H])[H]


 16 17  0  0  0  0  0  0  0  0999 V2000
   24.5582    7.6776   53.1857 O   0  0  0  0  0  0  0  0  0  0  0  0
   25.4754    8.1487   54.0792 C   0  0  0  0  0  0  0  0  0  0  0  0
   24.9945    8.7980   55.2301 C   0  0  0  0  0  0  0  0  0  0  0  0
   25.8037    9.2945   56.1682 N   0  0  0  0  0  0  0  0  0  0  0  0
   27.1414    9.2176   56.0953 C   0  0  0  0  0  0  0  0  0  0  0  0
   28.1733    9.8832   57.3498 Cl  0  0  0  0  0  0  0  0  0  0  0  0
   27.6567    8.5893   54.9849 C   0  0  0  0  0  0  0  0  0  0  0  0
   29.3789    8.4516   54.8209 Cl  0  0  0  0  0  0  0  0  0  0  0  0
   26.8388    8.0588   53.9855 C   0  0  0  0  0  0  0  0  0  0  0  0
   23.2110    7.4543   53.2580 C   0  0  0  0  0  0  0  0  0  0  0  0
   20.2842    8.4408   51.2291 C   0  0  0  0  0  0  0  0  0  0  0  0
   21.1364    7.6785   52.0868 N   0  0  0  0  0  0  0  0  0  0  0  0
   20.4750    7.3431   53.3250 C   0  0  0  0  0  0  0  0  0  0  0  0
   20.8011    8.4402   54.3148 C   0  0  0  0  0  0  0  0  0  0  0  0
   21.6895    9.3889   53.5272 C   0  0  0  0  0  0  0  0  0  0  0  0
   22.3093    8.4145   52.5342 C   0  0  0  0  0  0  0  0  0  0  0  0
 11 12  1  0  0  0
 12 13  1  0  0  0
 13 14  1  0  0  0
 14 15  1  0  0  0
 15 16  1  0  0  0
 16 10  1  0  0  0
 10  1  1  0  0  0
  1  2  1  0  0  0
  2  3  2  0  0  0
  3  4  1  0  0  0
  4  5  2  0  0  0
  5  6  1  0  0  0
  5  7  1  0  0  0
  7  8  1  0  0  0
  7  9  2  0  0  0
 16 12  1  0  0  0
  9  2  1  0  0  0
M  END
> <minimizedAffinity>
-1.45745

> <CNNscore>
0.4623441100

> <CNNaffinity>
5.2812051773

> <CNN_VS>
2.4417340755

> <CNNaffinity_variance>
0.2567421794

$$$$
[H]c1nc(Cl)c(Cl)c([H])c1OC([H])([H])[C@@]1([H])N(C([H])([H])[H])C([H])([H])C([H])([H])C1([H])[H]


 16 17  0  0  0  0  0  0  0  0999 V2000
   23.8655    7.4503   53.7474 O   0  0  0  0  0  0  0  0  0  0  0  0
   25.1037    7.9261   54.0667 C   0  0  0  0  0  0  0  0  0  0  0  0
   26.0425    8.0570   53.0280 C   0  0  0  0  0  0  0  0  0  0  0  0
   27.2805    8.5135   53.2293 N   0  0  0  0  0  0  0  0  0  0  0  0
   27.7354    8.8859   54.4356 C   0  0  0  0  0  0  0  0  0  0  0  0
   29.3711    9.4815   54.6610 Cl  0  0  0  0  0  0  0  0  0  0  0  0
   26.8494    8.7748   55.4826 C   0  0  0  0  0  0  0  0  0  0  0  0
   27.3662    9.2377   57.0733 Cl  0  0  0  0  0  0  0  0  0  0  0  0
   25.5477    8.3016   55.3067 C   0  0  0  0  0  0  0  0  0  0  0  0
   22.7491    7.1762   54.4882 C   0  0  0  0  0  0  0  0  0  0  0  0
   21.3932   10.5884   54.0702 C   0  0  0  0  0  0  0  0  0  0  0  0
   22.1394    9.3938   53.8272 N   0  0  0  0  0  0  0  0  0  0  0  0
   21.8652    8.8582   52.5153 C   0  0  0  0  0  0  0  0  0  0  0  0
   20.7265    7.8731   52.6660 C   0  0  0  0  0  0  0  0  0  0  0  0
   20.4082    7.9091   54.1516 C   0  0  0  0  0  0  0  0  0  0  0  0
   21.7716    8.2962   54.7092 C   0  0  0  0  0  0  0  0  0  0  0  0
 11 12  1  0  0  0
 12 13  1  0  0  0
 13 14  1  0  0  0
 14 15  1  0  0  0
 15 16  1  0  0  0
 16 10  1  0  0  0
 10  1  1  0  0  0
  1  2  1  0  0  0
  2  3  2  0  0  0
  3  4  1  0  0  0
  4  5  2  0  0  0
  5  6  1  0  0  0
  5  7  1  0  0  0
  7  8  1  0  0  0
  7  9  2  0  0  0
 16 12  1  0  0  0
  9  2  1  0  0  0
M  END
> <minimizedAffinity>
-0.30693

> <CNNscore>
0.4497658610

> <CNNaffinity>
4.8798294067

> <CNN_VS>
2.1947805882

> <CNNaffinity_variance>
0.3324632645

$$$$
[H]c1nc(Cl)c(Cl)c([H])c1OC([H])([H])[C@@]1([H])N(C([H])([H])[H])C([H])([H])C([H])([H])C1([H])[H]


 16 17  0  0  0  0  0  0  0  0999 V2000
   23.8535    7.4267   54.5762 O   0  0  0  0  0  0  0  0  0  0  0  0
   25.1146    7.9445   54.6320 C   0  0  0  0  0  0  0  0  0  0  0  0
   25.8620    7.9779   53.4414 C   0  0  0  0  0  0  0  0  0  0  0  0
   27.1035    8.4645   53.3836 N   0  0  0  0  0  0  0  0  0  0  0  0
   27.7442    8.9624   54.4523 C   0  0  0  0  0  0  0  0  0  0  0  0
   29.3780    9.5937   54.3368 Cl  0  0  0  0  0  0  0  0  0  0  0  0
   27.0497    8.9502   55.6402 C   0  0  0  0  0  0  0  0  0  0  0  0
   27.8136    9.5780   57.0664 Cl  0  0  0  0  0  0  0  0  0  0  0  0
   25.7502    8.4490   55.7354 C   0  0  0  0  0  0  0  0  0  0  0  0
   23.0431    7.0473   53.5421 C   0  0  0  0  0  0  0  0  0  0  0  0
   20.5241    8.4941   51.2580 C   0  0  0  0  0  0  0  0  0  0  0  0
   21.1491    7.6122   52.1932 N   0  0  0  0  0  0  0  0  0  0  0  0
   20.3365    7.4316   53.3722 C   0  0  0  0  0  0  0  0  0  0  0  0
   20.7719    8.4760   54.3768 C   0  0  0  0  0  0  0  0  0  0  0  0
   21.8804    9.2300   53.6610 C   0  0  0  0  0  0  0  0  0  0  0  0
   22.3943    8.1359   52.7343 C   0  0  0  0  0  0  0  0  0  0  0  0
 11 12  1  0  0  0
 12 13  1  0  0  0
 13 14  1  0  0  0
 14 15  1  0  0  0
 15 16  1  0  0  0
 16 10  1  0  0  0
 10  1  1  0  0  0
  1  2  1  0  0  0
  2  3  2  0  0  0
  3  4  1  0  0  0
  4  5  2  0  0  0
  5  6  1  0  0  0
  5  7  1  0  0  0
  7  8  1  0  0  0
  7  9  2  0  0  0
 16 12  1  0  0  0
  9  2  1  0  0  0
M  END
> <minimizedAffinity>
-0.08315

> <CNNscore>
0.4466899037

> <CNNaffinity>
5.1371231079

> <CNN_VS>
2.2947010994

> <CNNaffinity_variance>
0.3566043973

$$$$
[H]c1nc(Cl)c(Cl)c([H])c1OC([H])([H])[C@@]1([H])N(C([H])([H])[H])C([H])([H])C([H])([H])C1([H])[H]


 16 17  0  0  0  0  0  0  0  0999 V2000
   22.6026    8.9340   54.4277 O   0  0  0  0  0  0  0  0  0  0  0  0
   22.1230    9.7062   53.4102 C   0  0  0  0  0  0  0  0  0  0  0  0
   21.5711    9.0509   52.2952 C   0  0  0  0  0  0  0  0  0  0  0  0
   21.0726    9.7092   51.2466 N   0  0  0  0  0  0  0  0  0  0  0  0
   21.0545   11.0485   51.1654 C   0  0  0  0  0  0  0  0  0  0  0  0
   20.3900   11.8789   49.7689 Cl  0  0  0  0  0  0  0  0  0  0  0  0
   21.5847   11.7317   52.2356 C   0  0  0  0  0  0  0  0  0  0  0  0
   21.5962   13.4668   52.2023 Cl  0  0  0  0  0  0  0  0  0  0  0  0
   22.1138   11.0743   53.3478 C   0  0  0  0  0  0  0  0  0  0  0  0
   21.9976    8.2097   55.4174 C   0  0  0  0  0  0  0  0  0  0  0  0
   21.2568    5.2760   53.2960 C   0  0  0  0  0  0  0  0  0  0  0  0
   21.6980    6.5756   53.6952 N   0  0  0  0  0  0  0  0  0  0  0  0
   23.0768    6.7992   53.3321 C   0  0  0  0  0  0  0  0  0  0  0  0
   23.9224    6.3731   54.5125 C   0  0  0  0  0  0  0  0  0  0  0  0
   22.9044    5.9091   55.5410 C   0  0  0  0  0  0  0  0  0  0  0  0
   21.7081    6.7615   55.1385 C   0  0  0  0  0  0  0  0  0  0  0  0
 11 12  1  0  0  0
 12 13  1  0  0  0
 13 14  1  0  0  0
 14 15  1  0  0  0
 15 16  1  0  0  0
 16 10  1  0  0  0
 10  1  1  0  0  0
  1  2  1  0  0  0
  2  3  2  0  0  0
  3  4  1  0  0  0
  4  5  2  0  0  0
  5  6  1  0  0  0
  5  7  1  0  0  0
  7  8  1  0  0  0
  7  9  2  0  0  0
 16 12  1  0  0  0
  9  2  1  0  0  0
M  END
> <minimizedAffinity>
9.04776

> <CNNscore>
0.4393642247

> <CNNaffinity>
4.9207425117

> <CNN_VS>
2.1619982719

> <CNNaffinity_variance>
0.2113388330

$$$$
[H]c1nc(Cl)c(Cl)c([H])c1OC([H])([H])[C@@]1([H])N(C([H])([H])[H])C([H])([H])C([H])([H])C1([H])[H]


 16 17  0  0  0  0  0  0  0  0999 V2000
   21.5766    8.2133   52.7388 O   0  0  0  0  0  0  0  0  0  0  0  0
   22.7413    7.7466   53.2746 C   0  0  0  0  0  0  0  0  0  0  0  0
   23.9319    8.4130   52.9342 C   0  0  0  0  0  0  0  0  0  0  0  0
   25.1249    8.0410   53.4029 N   0  0  0  0  0  0  0  0  0  0  0  0
   25.2917    7.0028   54.2367 C   0  0  0  0  0  0  0  0  0  0  0  0
   26.8778    6.5436   54.8321 Cl  0  0  0  0  0  0  0  0  0  0  0  0
   24.1522    6.3210   54.5973 C   0  0  0  0  0  0  0  0  0  0  0  0
   24.2889    4.9661   55.6732 Cl  0  0  0  0  0  0  0  0  0  0  0  0
   22.8892    6.6837   54.1257 C   0  0  0  0  0  0  0  0  0  0  0  0
   21.1076    9.4697   52.4708 C   0  0  0  0  0  0  0  0  0  0  0  0
   20.5518   10.2770   56.0338 C   0  0  0  0  0  0  0  0  0  0  0  0
   21.1247    9.7150   54.8510 N   0  0  0  0  0  0  0  0  0  0  0  0
   22.5291   10.0300   54.7441 C   0  0  0  0  0  0  0  0  0  0  0  0
   22.6383   11.3094   53.9435 C   0  0  0  0  0  0  0  0  0  0  0  0
   21.1956   11.6609   53.6201 C   0  0  0  0  0  0  0  0  0  0  0  0
   20.5730   10.2709   53.6245 C   0  0  0  0  0  0  0  0  0  0  0  0
 11 12  1  0  0  0
 12 13  1  0  0  0
 13 14  1  0  0  0
 14 15  1  0  0  0
 15 16  1  0  0  0
 16 10  1  0  0  0
 10  1  1  0  0  0
  1  2  1  0  0  0
  2  3  2  0  0  0
  3  4  1  0  0  0
  4  5  2  0  0  0
  5  6  1  0  0  0
  5  7  1  0  0  0
  7  8  1  0  0  0
  7  9  2  0  0  0
 16 12  1  0  0  0
  9  2  1  0  0  0
M  END
> <minimizedAffinity>
13.81694

> <CNNscore>
0.4373431504

> <CNNaffinity>
5.0557699203

> <CNN_VS>
2.2111063004

> <CNNaffinity_variance>
0.3547153771

$$$$
[H]c1c([H])c([H])c(C([H])(c2c([H])c([H])c([H])c([H])c2[H])N([H])C(=O)c2c([H])c([H])c3nc(-c4c([H])c([H])c(C(C([H])([H])[H])(C([H])([H])[H])C([H])([H])[H])c([H])c4[H])n([H])c3c2[H])c([H])c1[H]


 37 41  0  0  0  0  0  0  0  0999 V2000
   22.9830    7.7066   54.5936 C   0  0  0  0  0  0  0  0  0  0  0  0
   22.8231    8.9947   54.9185 N   0  0  0  0  0  0  0  0  0  0  0  0
   23.9916    9.5312   55.3788 C   0  0  0  0  0  0  0  0  0  0  0  0
   24.3616   10.7676   55.8839 C   0  0  0  0  0  0  0  0  0  0  0  0
   25.6740   10.9389   56.3463 C   0  0  0  0  0  0  0  0  0  0  0  0
   26.5521    9.9096   56.2877 C   0  0  0  0  0  0  0  0  0  0  0  0
   26.1960    8.6440   55.7639 C   0  0  0  0  0  0  0  0  0  0  0  0
   24.9013    8.4938   55.3193 C   0  0  0  0  0  0  0  0  0  0  0  0
   24.2708    7.4089   54.8425 N   0  0  0  0  0  0  0  0  0  0  0  0
   24.7859    6.4944   54.7111 H   0  0  0  0  0  0  0  0  0  0  0  0
   20.2931    4.6303   53.2733 C   0  0  0  0  0  0  0  0  0  0  0  0
   19.9088    5.9542   53.2734 C   0  0  0  0  0  0  0  0  0  0  0  0
   20.7790    6.9441   53.6835 C   0  0  0  0  0  0  0  0  0  0  0  0
   22.0684    6.6781   54.1166 C   0  0  0  0  0  0  0  0  0  0  0  0
   22.4227    5.3386   54.1034 C   0  0  0  0  0  0  0  0  0  0  0  0
   21.5727    4.3448   53.6960 C   0  0  0  0  0  0  0  0  0  0  0  0
   20.0886    2.2354   53.2761 C   0  0  0  0  0  0  0  0  0  0  0  0
   19.3929    3.5061   52.8978 C   0  0  0  0  0  0  0  0  0  0  0  0
   18.0905    3.6529   53.7015 C   0  0  0  0  0  0  0  0  0  0  0  0
   18.9790    3.5544   51.4398 C   0  0  0  0  0  0  0  0  0  0  0  0
   27.9014    9.9461   56.8886 C   0  0  0  0  0  0  0  0  0  0  0  0
   28.8716    9.4871   56.2732 O   0  0  0  0  0  0  0  0  0  0  0  0
   28.0154   10.4973   58.1788 N   0  0  0  0  0  0  0  0  0  0  0  0
   27.1596   10.9603   58.6418 H   0  0  0  0  0  0  0  0  0  0  0  0
   29.2028   10.5267   58.9847 C   0  0  0  0  0  0  0  0  0  0  0  0
   29.4438    9.3097   59.7024 C   0  0  0  0  0  0  0  0  0  0  0  0
   30.3217    9.3732   60.7933 C   0  0  0  0  0  0  0  0  0  0  0  0
   30.5576    8.2436   61.5316 C   0  0  0  0  0  0  0  0  0  0  0  0
   29.9527    7.0314   61.2352 C   0  0  0  0  0  0  0  0  0  0  0  0
   29.0871    7.0049   60.1472 C   0  0  0  0  0  0  0  0  0  0  0  0
   28.8467    8.1264   59.4061 C   0  0  0  0  0  0  0  0  0  0  0  0
   29.2511   11.7881   59.7942 C   0  0  0  0  0  0  0  0  0  0  0  0
   28.3092   12.7697   59.7478 C   0  0  0  0  0  0  0  0  0  0  0  0
   28.4143   13.9093   60.5573 C   0  0  0  0  0  0  0  0  0  0  0  0
   29.4815   14.0459   61.4128 C   0  0  0  0  0  0  0  0  0  0  0  0
   30.4472   13.0457   61.4653 C   0  0  0  0  0  0  0  0  0  0  0  0
   30.3398   11.9279   60.6699 C   0  0  0  0  0  0  0  0  0  0  0  0
 17 18  1  0  0  0
 18 19  1  0  0  0
 18 20  1  0  0  0
 18 11  1  0  0  0
 11 12  2  0  0  0
 12 13  1  0  0  0
 13 14  2  0  0  0
 14 15  1  0  0  0
 15 16  2  0  0  0
 14  1  1  0  0  0
  1  2  2  0  0  0
  2  3  1  0  0  0
  3  4  2  0  0  0
  4  5  1  0  0  0
  5  6  2  0  0  0
  6  7  1  0  0  0
  7  8  2  0  0  0
  8  9  1  0  0  0
  6 21  1  0  0  0
 21 22  2  0  0  0
 21 23  1  0  0  0
 23 25  1  0  0  0
 25 26  1  0  0  0
 26 27  2  0  0  0
 27 28  1  0  0  0
 28 29  2  0  0  0
 29 30  1  0  0  0
 30 31  2  0  0  0
 25 32  1  0  0  0
 32 33  2  0  0  0
 33 34  1  0  0  0
 34 35  2  0  0  0
 35 36  1  0  0  0
 36 37  2  0  0  0
 16 11  1  0  0  0
  9  1  1  0  0  0
 31 26  1  0  0  0
 37 32  1  0  0  0
  8  3  1  0  0  0
  9 10  1  0  0  0
 23 24  1  0  0  0
M  END
> <minimizedAffinity>
29.91917

> <CNNscore>
0.4052089751

> <CNNaffinity>
6.1040163040

> <CNN_VS>
2.4734022617

> <CNNaffinity_variance>
0.0665752143

$$$$
[H]c1c([H])c([H])c(C([H])(c2c([H])c([H])c([H])c([H])c2[H])N([H])C(=O)c2c([H])c([H])c3nc(-c4c([H])c([H])c(C(C([H])([H])[H])(C([H])([H])[H])C([H])([H])[H])c([H])c4[H])n([H])c3c2[H])c([H])c1[H]


 37 41  0  0  0  0  0  0  0  0999 V2000
   24.6159    8.1282   54.1015 C   0  0  0  0  0  0  0  0  0  0  0  0
   25.7923    8.2837   53.4833 N   0  0  0  0  0  0  0  0  0  0  0  0
   26.7532    8.7010   54.3594 C   0  0  0  0  0  0  0  0  0  0  0  0
   28.0882    9.0548   54.2427 C   0  0  0  0  0  0  0  0  0  0  0  0
   28.7607    9.5239   55.3798 C   0  0  0  0  0  0  0  0  0  0  0  0
   28.1072    9.6173   56.5623 C   0  0  0  0  0  0  0  0  0  0  0  0
   26.7479    9.2491   56.7034 C   0  0  0  0  0  0  0  0  0  0  0  0
   26.1032    8.7954   55.5742 C   0  0  0  0  0  0  0  0  0  0  0  0
   24.8204    8.4442   55.3928 N   0  0  0  0  0  0  0  0  0  0  0  0
   24.1377    8.4420   56.2007 H   0  0  0  0  0  0  0  0  0  0  0  0
   20.6657    7.0375   52.8175 C   0  0  0  0  0  0  0  0  0  0  0  0
   21.2027    8.2642   52.4901 C   0  0  0  0  0  0  0  0  0  0  0  0
   22.4783    8.6083   52.8902 C   0  0  0  0  0  0  0  0  0  0  0  0
   23.2853    7.7627   53.6348 C   0  0  0  0  0  0  0  0  0  0  0  0
   22.7159    6.5384   53.9459 C   0  0  0  0  0  0  0  0  0  0  0  0
   21.4535    6.1801   53.5535 C   0  0  0  0  0  0  0  0  0  0  0  0
   18.9430    7.2548   51.1554 C   0  0  0  0  0  0  0  0  0  0  0  0
   19.2804    6.6197   52.4687 C   0  0  0  0  0  0  0  0  0  0  0  0
   19.2673    5.0884   52.3321 C   0  0  0  0  0  0  0  0  0  0  0  0
   18.2830    6.9390   53.5653 C   0  0  0  0  0  0  0  0  0  0  0  0
   28.6826   10.2416   57.7714 C   0  0  0  0  0  0  0  0  0  0  0  0
   29.8078   10.7546   57.7342 O   0  0  0  0  0  0  0  0  0  0  0  0
   27.9080   10.2006   58.9461 N   0  0  0  0  0  0  0  0  0  0  0  0
   26.9010    9.8188   58.9115 H   0  0  0  0  0  0  0  0  0  0  0  0
   28.3208   10.6425   60.2479 C   0  0  0  0  0  0  0  0  0  0  0  0
   28.6320   12.0401   60.3116 C   0  0  0  0  0  0  0  0  0  0  0  0
   29.4930   12.4580   61.3357 C   0  0  0  0  0  0  0  0  0  0  0  0
   29.8474   13.7788   61.4174 C   0  0  0  0  0  0  0  0  0  0  0  0
   29.3810   14.7227   60.5149 C   0  0  0  0  0  0  0  0  0  0  0  0
   28.5298   14.2731   59.5114 C   0  0  0  0  0  0  0  0  0  0  0  0
   28.1716   12.9583   59.4231 C   0  0  0  0  0  0  0  0  0  0  0  0
   29.3542    9.7123   60.8096 C   0  0  0  0  0  0  0  0  0  0  0  0
   30.5377   10.1121   61.3506 C   0  0  0  0  0  0  0  0  0  0  0  0
   31.4410    9.1794   61.8791 C   0  0  0  0  0  0  0  0  0  0  0  0
   31.1354    7.8395   61.8540 C   0  0  0  0  0  0  0  0  0  0  0  0
   29.9270    7.4247   61.3031 C   0  0  0  0  0  0  0  0  0  0  0  0
   29.0424    8.3434   60.7863 C   0  0  0  0  0  0  0  0  0  0  0  0
 17 18  1  0  0  0
 18 19  1  0  0  0
 18 20  1  0  0  0
 18 11  1  0  0  0
 11 12  2  0  0  0
 12 13  1  0  0  0
 13 14  2  0  0  0
 14 15  1  0  0  0
 15 16  2  0  0  0
 14  1  1  0  0  0
  1  2  2  0  0  0
  2  3  1  0  0  0
  3  4  2  0  0  0
  4  5  1  0  0  0
  5  6  2  0  0  0
  6  7  1  0  0  0
  7  8  2  0  0  0
  8  9  1  0  0  0
  6 21  1  0  0  0
 21 22  2  0  0  0
 21 23  1  0  0  0
 23 25  1  0  0  0
 25 26  1  0  0  0
 26 27  2  0  0  0
 27 28  1  0  0  0
 28 29  2  0  0  0
 29 30  1  0  0  0
 30 31  2  0  0  0
 25 32  1  0  0  0
 32 33  2  0  0  0
 33 34  1  0  0  0
 34 35  2  0  0  0
 35 36  1  0  0  0
 36 37  2  0  0  0
 16 11  1  0  0  0
  9  1  1  0  0  0
 31 26  1  0  0  0
 37 32  1  0  0  0
  8  3  1  0  0  0
  9 10  1  0  0  0
 23 24  1  0  0  0
M  END
> <minimizedAffinity>
21.44576

> <CNNscore>
0.3037162423

> <CNNaffinity>
6.1154375076

> <CNN_VS>
1.8573577404

> <CNNaffinity_variance>
0.2031722814

$$$$
[H]c1c([H])c([H])c(C([H])(c2c([H])c([H])c([H])c([H])c2[H])N([H])C(=O)c2c([H])c([H])c3nc(-c4c([H])c([H])c(C(C([H])([H])[H])(C([H])([H])[H])C([H])([H])[H])c([H])c4[H])n([H])c3c2[H])c([H])c1[H]


 37 41  0  0  0  0  0  0  0  0999 V2000
   22.5546    7.1679   54.0285 C   0  0  0  0  0  0  0  0  0  0  0  0
   23.5917    7.7003   53.3717 N   0  0  0  0  0  0  0  0  0  0  0  0
   23.1990    8.2039   52.1645 C   0  0  0  0  0  0  0  0  0  0  0  0
   23.8560    8.7976   51.0983 C   0  0  0  0  0  0  0  0  0  0  0  0
   23.1170    9.1275   49.9535 C   0  0  0  0  0  0  0  0  0  0  0  0
   21.7880    8.8711   49.9085 C   0  0  0  0  0  0  0  0  0  0  0  0
   21.0979    8.2769   50.9920 C   0  0  0  0  0  0  0  0  0  0  0  0
   21.8418    7.9556   52.1056 C   0  0  0  0  0  0  0  0  0  0  0  0
   21.4788    7.3339   53.2384 N   0  0  0  0  0  0  0  0  0  0  0  0
   20.4731    7.0518   53.4058 H   0  0  0  0  0  0  0  0  0  0  0  0
   22.1126    5.1469   57.7918 C   0  0  0  0  0  0  0  0  0  0  0  0
   22.2517    4.4361   56.6189 C   0  0  0  0  0  0  0  0  0  0  0  0
   22.4090    5.0862   55.4113 C   0  0  0  0  0  0  0  0  0  0  0  0
   22.4335    6.4674   55.2998 C   0  0  0  0  0  0  0  0  0  0  0  0
   22.2920    7.1511   56.4968 C   0  0  0  0  0  0  0  0  0  0  0  0
   22.1388    6.5214   57.7034 C   0  0  0  0  0  0  0  0  0  0  0  0
   21.8459    3.0350   58.9079 C   0  0  0  0  0  0  0  0  0  0  0  0
   21.8846    4.5166   59.1206 C   0  0  0  0  0  0  0  0  0  0  0  0
   23.0672    4.8873   60.0304 C   0  0  0  0  0  0  0  0  0  0  0  0
   20.6506    5.0569   59.8168 C   0  0  0  0  0  0  0  0  0  0  0  0
   20.9598    9.0390   48.6966 C   0  0  0  0  0  0  0  0  0  0  0  0
   21.4869    9.3264   47.6149 O   0  0  0  0  0  0  0  0  0  0  0  0
   19.5687    8.8809   48.8423 N   0  0  0  0  0  0  0  0  0  0  0  0
   19.1621    8.5489   49.7833 H   0  0  0  0  0  0  0  0  0  0  0  0
   18.5799    9.1101   47.8273 C   0  0  0  0  0  0  0  0  0  0  0  0
   17.3698    9.6976   48.3221 C   0  0  0  0  0  0  0  0  0  0  0  0
   16.6972   10.5881   47.4740 C   0  0  0  0  0  0  0  0  0  0  0  0
   15.5182   11.1490   47.8887 C   0  0  0  0  0  0  0  0  0  0  0  0
   14.9632   10.8634   49.1270 C   0  0  0  0  0  0  0  0  0  0  0  0
   15.6564    9.9753   49.9421 C   0  0  0  0  0  0  0  0  0  0  0  0
   16.8323    9.4119   49.5362 C   0  0  0  0  0  0  0  0  0  0  0  0
   18.4165    7.8876   46.9744 C   0  0  0  0  0  0  0  0  0  0  0  0
   17.4877    6.9162   47.1904 C   0  0  0  0  0  0  0  0  0  0  0  0
   17.3824    5.8146   46.3299 C   0  0  0  0  0  0  0  0  0  0  0  0
   18.2260    5.7055   45.2503 C   0  0  0  0  0  0  0  0  0  0  0  0
   19.1770    6.6954   45.0237 C   0  0  0  0  0  0  0  0  0  0  0  0
   19.2766    7.7759   45.8701 C   0  0  0  0  0  0  0  0  0  0  0  0
 17 18  1  0  0  0
 18 19  1  0  0  0
 18 20  1  0  0  0
 18 11  1  0  0  0
 11 12  2  0  0  0
 12 13  1  0  0  0
 13 14  2  0  0  0
 14 15  1  0  0  0
 15 16  2  0  0  0
 14  1  1  0  0  0
  1  2  2  0  0  0
  2  3  1  0  0  0
  3  4  2  0  0  0
  4  5  1  0  0  0
  5  6  2  0  0  0
  6  7  1  0  0  0
  7  8  2  0  0  0
  8  9  1  0  0  0
  6 21  1  0  0  0
 21 22  2  0  0  0
 21 23  1  0  0  0
 23 25  1  0  0  0
 25 26  1  0  0  0
 26 27  2  0  0  0
 27 28  1  0  0  0
 28 29  2  0  0  0
 29 30  1  0  0  0
 30 31  2  0  0  0
 25 32  1  0  0  0
 32 33  2  0  0  0
 33 34  1  0  0  0
 34 35  2  0  0  0
 35 36  1  0  0  0
 36 37  2  0  0  0
 16 11  1  0  0  0
  9  1  1  0  0  0
 31 26  1  0  0  0
 37 32  1  0  0  0
  8  3  1  0  0  0
  9 10  1  0  0  0
 23 24  1  0  0  0
M  END
> <minimizedAffinity>
182.09555

> <CNNscore>
0.0259863157

> <CNNaffinity>
4.4313406944

> <CNN_VS>
0.1151542217

> <CNNaffinity_variance>
1.1462584734

$$$$
[H]OC(=O)[C@@]([H])(N([H])C(=O)[C@@]([H])(N([H])C(=O)[C@@]([H])(N([H])C(=O)[C@@]([H])(N([H])C(=O)[C@@]([H])(N([H])C(=O)[C@@]([H])(N([H])C(=O)[C@@]([H])(N([H])C(=O)C([H])([H])[H])C([H])(C([H])([H])[H])C([H])([H])[H])C([H])([H])C([H])([H])C(=O)N([H])[H])C([H])([H])C([H])(C([H])([H])[H])C([H])([H])[H])C([H])([H])O[H])C([H])([H])O[H])C([H])(C([H])([H])[H])C([H])([H])[H])C([H])([H])O[H]


 66 65  0  0  0  0  0  0  0  0999 V2000
   21.8637   10.5410   54.2644 C   0  0  0  0  0  0  0  0  0  0  0  0
   21.2702   10.9122   55.2986 O   0  0  0  0  0  0  0  0  0  0  0  0
   23.0279    9.7729   54.3594 N   0  0  0  0  0  0  0  0  0  0  0  0
   23.5388    9.4673   53.5171 H   0  0  0  0  0  0  0  0  0  0  0  0
   21.2935   10.9344   52.9392 C   0  0  0  0  0  0  0  0  0  0  0  0
   21.1321   12.3547   52.8732 N   0  0  0  0  0  0  0  0  0  0  0  0
   21.3403   13.1089   51.6691 C   0  0  0  0  0  0  0  0  0  0  0  0
   21.6635   12.4451   50.6534 O   0  0  0  0  0  0  0  0  0  0  0  0
   20.8560   12.9061   53.6877 H   0  0  0  0  0  0  0  0  0  0  0  0
   21.1965   14.5513   51.5756 C   0  0  0  0  0  0  0  0  0  0  0  0
   21.9673   15.0602   50.4556 N   0  0  0  0  0  0  0  0  0  0  0  0
   22.2932   16.3979   50.2111 C   0  0  0  0  0  0  0  0  0  0  0  0
   21.8919   17.2674   51.0256 O   0  0  0  0  0  0  0  0  0  0  0  0
   22.3007   14.3408   49.7580 H   0  0  0  0  0  0  0  0  0  0  0  0
   23.0787   16.8403   49.0517 C   0  0  0  0  0  0  0  0  0  0  0  0
   22.4264   17.9592   48.3656 N   0  0  0  0  0  0  0  0  0  0  0  0
   21.8649   17.8193   47.0749 C   0  0  0  0  0  0  0  0  0  0  0  0
   21.2042   18.9429   46.3693 C   0  0  0  0  0  0  0  0  0  0  0  0
   21.9201   16.7093   46.4919 O   0  0  0  0  0  0  0  0  0  0  0  0
   22.3631   18.8937   48.8207 H   0  0  0  0  0  0  0  0  0  0  0  0
   24.4762   17.3016   49.3567 C   0  0  0  0  0  0  0  0  0  0  0  0
   25.5060   16.7381   48.4083 C   0  0  0  0  0  0  0  0  0  0  0  0
   24.6291   18.7672   49.6304 C   0  0  0  0  0  0  0  0  0  0  0  0
   19.8397   15.1247   51.5651 C   0  0  0  0  0  0  0  0  0  0  0  0
   19.4299   15.9637   52.7159 C   0  0  0  0  0  0  0  0  0  0  0  0
   18.8842   15.0262   53.7656 C   0  0  0  0  0  0  0  0  0  0  0  0
   17.5680   15.2117   54.2530 N   0  0  0  0  0  0  0  0  0  0  0  0
   19.5610   14.0739   54.2306 O   0  0  0  0  0  0  0  0  0  0  0  0
   17.2871   14.7489   55.1271 H   0  0  0  0  0  0  0  0  0  0  0  0
   16.8762   15.8078   53.7493 H   0  0  0  0  0  0  0  0  0  0  0  0
   21.9867   10.2414   51.8576 C   0  0  0  0  0  0  0  0  0  0  0  0
   20.3550    8.2838   51.8875 C   0  0  0  0  0  0  0  0  0  0  0  0
   21.6797    8.8397   51.5304 C   0  0  0  0  0  0  0  0  0  0  0  0
   22.7149    7.9853   52.2990 C   0  0  0  0  0  0  0  0  0  0  0  0
   23.5815    9.3572   55.6369 C   0  0  0  0  0  0  0  0  0  0  0  0
   24.9946    8.9424   55.5821 C   0  0  0  0  0  0  0  0  0  0  0  0
   25.4734    8.1585   54.7340 O   0  0  0  0  0  0  0  0  0  0  0  0
   25.8740    9.4708   56.5554 N   0  0  0  0  0  0  0  0  0  0  0  0
   25.5018   10.1163   57.2759 H   0  0  0  0  0  0  0  0  0  0  0  0
   27.2986    9.1726   56.6289 C   0  0  0  0  0  0  0  0  0  0  0  0
   28.0044   10.2039   57.4102 C   0  0  0  0  0  0  0  0  0  0  0  0
   28.2024   11.3458   56.8401 O   0  0  0  0  0  0  0  0  0  0  0  0
   28.4969   10.0991   58.7106 N   0  0  0  0  0  0  0  0  0  0  0  0
   28.4221    9.2402   59.2650 H   0  0  0  0  0  0  0  0  0  0  0  0
   29.1847   11.2086   59.4167 C   0  0  0  0  0  0  0  0  0  0  0  0
   30.0897   10.6133   60.4435 C   0  0  0  0  0  0  0  0  0  0  0  0
   29.9086    9.3974   60.8080 O   0  0  0  0  0  0  0  0  0  0  0  0
   31.1537   11.2980   61.0580 N   0  0  0  0  0  0  0  0  0  0  0  0
   31.4235   12.2806   60.8599 H   0  0  0  0  0  0  0  0  0  0  0  0
   32.0090   10.6455   62.0630 C   0  0  0  0  0  0  0  0  0  0  0  0
   31.9702   11.5392   63.2829 C   0  0  0  0  0  0  0  0  0  0  0  0
   30.8365   11.5440   64.0803 O   0  0  0  0  0  0  0  0  0  0  0  0
   32.9264   12.2769   63.5993 O   0  0  0  0  0  0  0  0  0  0  0  0
   30.0311   10.9534   63.8937 H   0  0  0  0  0  0  0  0  0  0  0  0
   33.4224   10.6049   61.5215 C   0  0  0  0  0  0  0  0  0  0  0  0
   33.6735   11.7298   60.7223 O   0  0  0  0  0  0  0  0  0  0  0  0
   33.3813   11.5855   59.7740 H   0  0  0  0  0  0  0  0  0  0  0  0
   28.1659   12.1436   59.9711 C   0  0  0  0  0  0  0  0  0  0  0  0
   27.6220   11.6769   61.3090 C   0  0  0  0  0  0  0  0  0  0  0  0
   28.5930   13.5563   59.9215 C   0  0  0  0  0  0  0  0  0  0  0  0
   27.8616    8.8769   55.2750 C   0  0  0  0  0  0  0  0  0  0  0  0
   28.9265    9.6622   54.9291 O   0  0  0  0  0  0  0  0  0  0  0  0
   29.7796    9.2416   55.2330 H   0  0  0  0  0  0  0  0  0  0  0  0
   22.7128    8.3189   56.2981 C   0  0  0  0  0  0  0  0  0  0  0  0
   22.3887    7.3047   55.4076 O   0  0  0  0  0  0  0  0  0  0  0  0
   23.1756    6.6760   55.4197 H   0  0  0  0  0  0  0  0  0  0  0  0
 32 33  1  0  0  0
 33 34  1  0  0  0
 33 31  1  0  0  0
 31  5  1  0  0  0
  5  6  1  0  0  0
  6  7  1  0  0  0
  7  8  2  0  0  0
  7 10  1  0  0  0
 10 24  1  0  0  0
 24 25  1  0  0  0
 25 26  1  0  0  0
 26 27  1  0  0  0
 26 28  2  0  0  0
 10 11  1  0  0  0
 11 12  1  0  0  0
 12 13  2  0  0  0
 12 15  1  0  0  0
 15 16  1  0  0  0
 16 17  1  0  0  0
 17 18  1  0  0  0
 17 19  2  0  0  0
 15 21  1  0  0  0
 21 22  1  0  0  0
 21 23  1  0  0  0
  5  1  1  0  0  0
  1  2  2  0  0  0
  1  3  1  0  0  0
  3 35  1  0  0  0
 35 64  1  0  0  0
 64 65  1  0  0  0
 35 36  1  0  0  0
 36 37  2  0  0  0
 36 38  1  0  0  0
 38 40  1  0  0  0
 40 61  1  0  0  0
 61 62  1  0  0  0
 40 41  1  0  0  0
 41 42  2  0  0  0
 41 43  1  0  0  0
 43 45  1  0  0  0
 45 58  1  0  0  0
 58 59  1  0  0  0
 58 60  1  0  0  0
 45 46  1  0  0  0
 46 47  2  0  0  0
 46 48  1  0  0  0
 48 50  1  0  0  0
 50 55  1  0  0  0
 55 56  1  0  0  0
 50 51  1  0  0  0
 51 52  1  0  0  0
 51 53  2  0  0  0
  6  9  1  0  0  0
 27 29  1  0  0  0
 27 30  1  0  0  0
 11 14  1  0  0  0
 16 20  1  0  0  0
  3  4  1  0  0  0
 65 66  1  0  0  0
 38 39  1  0  0  0
 62 63  1  0  0  0
 43 44  1  0  0  0
 48 49  1  0  0  0
 56 57  1  0  0  0
 52 54  1  0  0  0
M  END
> <minimizedAffinity>
10.83909

> <CNNscore>
0.6258750558

> <CNNaffinity>
6.8095731735

> <CNN_VS>
4.2619419098

> <CNNaffinity_variance>
0.9013722539

$$$$
[H]OC(=O)[C@@]([H])(N([H])C(=O)[C@@]([H])(N([H])C(=O)[C@@]([H])(N([H])C(=O)[C@@]([H])(N([H])C(=O)[C@@]([H])(N([H])C(=O)[C@@]([H])(N([H])C(=O)[C@@]([H])(N([H])C(=O)C([H])([H])[H])C([H])(C([H])([H])[H])C([H])([H])[H])C([H])([H])C([H])([H])C(=O)N([H])[H])C([H])([H])C([H])(C([H])([H])[H])C([H])([H])[H])C([H])([H])O[H])C([H])([H])O[H])C([H])(C([H])([H])[H])C([H])([H])[H])C([H])([H])O[H]


 66 65  0  0  0  0  0  0  0  0999 V2000
   21.7851   10.7144   54.1761 C   0  0  0  0  0  0  0  0  0  0  0  0
   21.1596   11.0803   55.1932 O   0  0  0  0  0  0  0  0  0  0  0  0
   22.9497    9.9517   54.3036 N   0  0  0  0  0  0  0  0  0  0  0  0
   23.4866    9.6506   53.4760 H   0  0  0  0  0  0  0  0  0  0  0  0
   21.2521   11.1082   52.8356 C   0  0  0  0  0  0  0  0  0  0  0  0
   21.1954   12.5338   52.7263 N   0  0  0  0  0  0  0  0  0  0  0  0
   21.3558   13.2282   51.4796 C   0  0  0  0  0  0  0  0  0  0  0  0
   21.5378   12.5069   50.4679 O   0  0  0  0  0  0  0  0  0  0  0  0
   21.0340   13.1325   53.5381 H   0  0  0  0  0  0  0  0  0  0  0  0
   21.3157   14.6736   51.3405 C   0  0  0  0  0  0  0  0  0  0  0  0
   22.4442   15.1324   50.5509 N   0  0  0  0  0  0  0  0  0  0  0  0
   22.8521   16.4588   50.3777 C   0  0  0  0  0  0  0  0  0  0  0  0
   22.1947   17.3640   50.9509 O   0  0  0  0  0  0  0  0  0  0  0  0
   22.9981   14.3823   50.0551 H   0  0  0  0  0  0  0  0  0  0  0  0
   24.0077   16.8494   49.5598 C   0  0  0  0  0  0  0  0  0  0  0  0
   23.6540   16.9123   48.1387 N   0  0  0  0  0  0  0  0  0  0  0  0
   22.3788   17.3437   47.7045 C   0  0  0  0  0  0  0  0  0  0  0  0
   22.0076   17.4102   46.2711 C   0  0  0  0  0  0  0  0  0  0  0  0
   21.5184   17.6860   48.5517 O   0  0  0  0  0  0  0  0  0  0  0  0
   24.3441   16.6357   47.4097 H   0  0  0  0  0  0  0  0  0  0  0  0
   24.6134   18.1838   49.8935 C   0  0  0  0  0  0  0  0  0  0  0  0
   25.9111   18.0711   50.6556 C   0  0  0  0  0  0  0  0  0  0  0  0
   24.6421   19.1802   48.7743 C   0  0  0  0  0  0  0  0  0  0  0  0
   20.0706   15.3013   50.8659 C   0  0  0  0  0  0  0  0  0  0  0  0
   19.0020   15.5650   51.8583 C   0  0  0  0  0  0  0  0  0  0  0  0
   19.6566   15.5455   53.2183 C   0  0  0  0  0  0  0  0  0  0  0  0
   20.6242   16.5268   53.5430 N   0  0  0  0  0  0  0  0  0  0  0  0
   19.3730   14.6810   54.0863 O   0  0  0  0  0  0  0  0  0  0  0  0
   21.2437   16.3726   54.3490 H   0  0  0  0  0  0  0  0  0  0  0  0
   20.7264   17.4013   52.9842 H   0  0  0  0  0  0  0  0  0  0  0  0
   21.8986   10.3343   51.7802 C   0  0  0  0  0  0  0  0  0  0  0  0
   20.2559    8.3986   52.0047 C   0  0  0  0  0  0  0  0  0  0  0  0
   21.5723    8.9149   51.5671 C   0  0  0  0  0  0  0  0  0  0  0  0
   22.6254    8.1105   52.3648 C   0  0  0  0  0  0  0  0  0  0  0  0
   23.4676    9.5356   55.5958 C   0  0  0  0  0  0  0  0  0  0  0  0
   24.8399    9.0000   55.5580 C   0  0  0  0  0  0  0  0  0  0  0  0
   25.2337    8.1070   54.7766 O   0  0  0  0  0  0  0  0  0  0  0  0
   25.7811    9.5359   56.4674 N   0  0  0  0  0  0  0  0  0  0  0  0
   25.4793   10.2713   57.1326 H   0  0  0  0  0  0  0  0  0  0  0  0
   27.1774    9.1263   56.5468 C   0  0  0  0  0  0  0  0  0  0  0  0
   27.9213    9.9977   57.4738 C   0  0  0  0  0  0  0  0  0  0  0  0
   28.2035   11.1905   57.0667 O   0  0  0  0  0  0  0  0  0  0  0  0
   28.3695    9.6897   58.7579 N   0  0  0  0  0  0  0  0  0  0  0  0
   28.2277    8.7711   59.1900 H   0  0  0  0  0  0  0  0  0  0  0  0
   29.1024   10.6496   59.6206 C   0  0  0  0  0  0  0  0  0  0  0  0
   29.6610    9.8958   60.7814 C   0  0  0  0  0  0  0  0  0  0  0  0
   30.2993   10.5329   61.6928 O   0  0  0  0  0  0  0  0  0  0  0  0
   29.5383    8.5060   60.9597 N   0  0  0  0  0  0  0  0  0  0  0  0
   29.0454    7.8631   60.3107 H   0  0  0  0  0  0  0  0  0  0  0  0
   30.1135    7.8281   62.1332 C   0  0  0  0  0  0  0  0  0  0  0  0
   31.6011    7.7405   61.8730 C   0  0  0  0  0  0  0  0  0  0  0  0
   32.4348    7.2676   62.8742 O   0  0  0  0  0  0  0  0  0  0  0  0
   32.1084    8.0808   60.7842 O   0  0  0  0  0  0  0  0  0  0  0  0
   32.0873    6.9538   63.7760 H   0  0  0  0  0  0  0  0  0  0  0  0
   29.5370    6.4295   62.1969 C   0  0  0  0  0  0  0  0  0  0  0  0
   28.7718    6.2675   63.3611 O   0  0  0  0  0  0  0  0  0  0  0  0
   29.3369    5.9940   64.1430 H   0  0  0  0  0  0  0  0  0  0  0  0
   28.1892   11.7639   60.0003 C   0  0  0  0  0  0  0  0  0  0  0  0
   27.4874   11.5098   61.3219 C   0  0  0  0  0  0  0  0  0  0  0  0
   28.8159   13.0940   59.8640 C   0  0  0  0  0  0  0  0  0  0  0  0
   27.7723    8.9598   55.1845 C   0  0  0  0  0  0  0  0  0  0  0  0
   28.8729    9.7388   54.9565 O   0  0  0  0  0  0  0  0  0  0  0  0
   29.7017    9.2567   55.2355 H   0  0  0  0  0  0  0  0  0  0  0  0
   22.5143    8.5994   56.2919 C   0  0  0  0  0  0  0  0  0  0  0  0
   22.2385    7.4941   55.4988 O   0  0  0  0  0  0  0  0  0  0  0  0
   23.0022    6.8559   55.6537 H   0  0  0  0  0  0  0  0  0  0  0  0
 32 33  1  0  0  0
 33 34  1  0  0  0
 33 31  1  0  0  0
 31  5  1  0  0  0
  5  6  1  0  0  0
  6  7  1  0  0  0
  7  8  2  0  0  0
  7 10  1  0  0  0
 10 24  1  0  0  0
 24 25  1  0  0  0
 25 26  1  0  0  0
 26 27  1  0  0  0
 26 28  2  0  0  0
 10 11  1  0  0  0
 11 12  1  0  0  0
 12 13  2  0  0  0
 12 15  1  0  0  0
 15 16  1  0  0  0
 16 17  1  0  0  0
 17 18  1  0  0  0
 17 19  2  0  0  0
 15 21  1  0  0  0
 21 22  1  0  0  0
 21 23  1  0  0  0
  5  1  1  0  0  0
  1  2  2  0  0  0
  1  3  1  0  0  0
  3 35  1  0  0  0
 35 64  1  0  0  0
 64 65  1  0  0  0
 35 36  1  0  0  0
 36 37  2  0  0  0
 36 38  1  0  0  0
 38 40  1  0  0  0
 40 61  1  0  0  0
 61 62  1  0  0  0
 40 41  1  0  0  0
 41 42  2  0  0  0
 41 43  1  0  0  0
 43 45  1  0  0  0
 45 58  1  0  0  0
 58 59  1  0  0  0
 58 60  1  0  0  0
 45 46  1  0  0  0
 46 47  2  0  0  0
 46 48  1  0  0  0
 48 50  1  0  0  0
 50 55  1  0  0  0
 55 56  1  0  0  0
 50 51  1  0  0  0
 51 52  1  0  0  0
 51 53  2  0  0  0
  6  9  1  0  0  0
 27 29  1  0  0  0
 27 30  1  0  0  0
 11 14  1  0  0  0
 16 20  1  0  0  0
  3  4  1  0  0  0
 65 66  1  0  0  0
 38 39  1  0  0  0
 62 63  1  0  0  0
 43 44  1  0  0  0
 48 49  1  0  0  0
 56 57  1  0  0  0
 52 54  1  0  0  0
M  END
> <minimizedAffinity>
10.98593

> <CNNscore>
0.6241141558

> <CNNaffinity>
6.9466652870

> <CNN_VS>
4.3355121613

> <CNNaffinity_variance>
1.1825832129

$$$$
[H]OC(=O)[C@@]([H])(N([H])C(=O)[C@@]([H])(N([H])C(=O)[C@@]([H])(N([H])C(=O)[C@@]([H])(N([H])C(=O)[C@@]([H])(N([H])C(=O)[C@@]([H])(N([H])C(=O)[C@@]([H])(N([H])C(=O)C([H])([H])[H])C([H])(C([H])([H])[H])C([H])([H])[H])C([H])([H])C([H])([H])C(=O)N([H])[H])C([H])([H])C([H])(C([H])([H])[H])C([H])([H])[H])C([H])([H])O[H])C([H])([H])O[H])C([H])(C([H])([H])[H])C([H])([H])[H])C([H])([H])O[H]


 66 65  0  0  0  0  0  0  0  0999 V2000
   27.7890    9.0345   58.2063 C   0  0  0  0  0  0  0  0  0  0  0  0
   26.9746    8.3241   58.8322 O   0  0  0  0  0  0  0  0  0  0  0  0
   28.7937    9.7230   58.8926 N   0  0  0  0  0  0  0  0  0  0  0  0
   29.4678   10.3241   58.3946 H   0  0  0  0  0  0  0  0  0  0  0  0
   27.6601    9.1192   56.7190 C   0  0  0  0  0  0  0  0  0  0  0  0
   26.3612    9.6025   56.3628 N   0  0  0  0  0  0  0  0  0  0  0  0
   25.5738    9.0226   55.3112 C   0  0  0  0  0  0  0  0  0  0  0  0
   26.0860    8.0417   54.7176 O   0  0  0  0  0  0  0  0  0  0  0  0
   25.9260   10.3903   56.8460 H   0  0  0  0  0  0  0  0  0  0  0  0
   24.2589    9.4998   54.9195 C   0  0  0  0  0  0  0  0  0  0  0  0
   23.3943    8.3788   54.5981 N   0  0  0  0  0  0  0  0  0  0  0  0
   23.2440    7.7787   53.3440 C   0  0  0  0  0  0  0  0  0  0  0  0
   23.9115    8.2348   52.3814 O   0  0  0  0  0  0  0  0  0  0  0  0
   22.8196    7.9935   55.3961 H   0  0  0  0  0  0  0  0  0  0  0  0
   22.3459    6.6442   53.0925 C   0  0  0  0  0  0  0  0  0  0  0  0
   21.8200    6.0967   54.3464 N   0  0  0  0  0  0  0  0  0  0  0  0
   22.6730    5.6522   55.3835 C   0  0  0  0  0  0  0  0  0  0  0  0
   22.1544    5.0950   56.6553 C   0  0  0  0  0  0  0  0  0  0  0  0
   23.9173    5.7254   55.2370 O   0  0  0  0  0  0  0  0  0  0  0  0
   20.7930    6.0220   54.5008 H   0  0  0  0  0  0  0  0  0  0  0  0
   21.1462    6.9471   52.2395 C   0  0  0  0  0  0  0  0  0  0  0  0
   19.8473    6.4993   52.8639 C   0  0  0  0  0  0  0  0  0  0  0  0
   21.1023    8.3241   51.6492 C   0  0  0  0  0  0  0  0  0  0  0  0
   23.5604   10.4467   55.8055 C   0  0  0  0  0  0  0  0  0  0  0  0
   22.1642   10.1362   56.1936 C   0  0  0  0  0  0  0  0  0  0  0  0
   21.3548   10.1066   54.9198 C   0  0  0  0  0  0  0  0  0  0  0  0
   20.3267    9.1453   54.7665 N   0  0  0  0  0  0  0  0  0  0  0  0
   21.5596   10.9126   53.9766 O   0  0  0  0  0  0  0  0  0  0  0  0
   19.9520    8.9572   53.8277 H   0  0  0  0  0  0  0  0  0  0  0  0
   19.9409    8.6211   55.5814 H   0  0  0  0  0  0  0  0  0  0  0  0
   28.8423    9.7478   56.1376 C   0  0  0  0  0  0  0  0  0  0  0  0
   28.9946   10.0778   53.6150 C   0  0  0  0  0  0  0  0  0  0  0  0
   29.3679    9.3206   54.8309 C   0  0  0  0  0  0  0  0  0  0  0  0
   28.8419    7.8831   54.6085 C   0  0  0  0  0  0  0  0  0  0  0  0
   28.9524    9.6310   60.3339 C   0  0  0  0  0  0  0  0  0  0  0  0
   29.3260   10.8979   60.9875 C   0  0  0  0  0  0  0  0  0  0  0  0
   28.6860   11.9669   60.8849 O   0  0  0  0  0  0  0  0  0  0  0  0
   30.4893   10.9058   61.7916 N   0  0  0  0  0  0  0  0  0  0  0  0
   31.0439   10.0353   61.8870 H   0  0  0  0  0  0  0  0  0  0  0  0
   30.9842   12.0698   62.5154 C   0  0  0  0  0  0  0  0  0  0  0  0
   31.2124   13.1958   61.5922 C   0  0  0  0  0  0  0  0  0  0  0  0
   32.2705   13.1495   60.8529 O   0  0  0  0  0  0  0  0  0  0  0  0
   30.4164   14.3269   61.4151 N   0  0  0  0  0  0  0  0  0  0  0  0
   29.5608   14.4936   61.9543 H   0  0  0  0  0  0  0  0  0  0  0  0
   30.7296   15.4035   60.4426 C   0  0  0  0  0  0  0  0  0  0  0  0
   31.6671   16.3617   61.0988 C   0  0  0  0  0  0  0  0  0  0  0  0
   31.3035   16.9548   62.1758 O   0  0  0  0  0  0  0  0  0  0  0  0
   32.9516   16.6726   60.6173 N   0  0  0  0  0  0  0  0  0  0  0  0
   33.3824   16.2675   59.7641 H   0  0  0  0  0  0  0  0  0  0  0  0
   33.8251   17.6274   61.3193 C   0  0  0  0  0  0  0  0  0  0  0  0
   33.5111   17.4712   62.7908 C   0  0  0  0  0  0  0  0  0  0  0  0
   33.0090   18.5559   63.4927 O   0  0  0  0  0  0  0  0  0  0  0  0
   33.6889   16.3960   63.3998 O   0  0  0  0  0  0  0  0  0  0  0  0
   32.8201   19.4534   63.0555 H   0  0  0  0  0  0  0  0  0  0  0  0
   33.4457   19.0245   60.8758 C   0  0  0  0  0  0  0  0  0  0  0  0
   32.0507   19.1588   60.8191 O   0  0  0  0  0  0  0  0  0  0  0  0
   31.6831   18.8551   59.9370 H   0  0  0  0  0  0  0  0  0  0  0  0
   29.4594   16.0215   59.9690 C   0  0  0  0  0  0  0  0  0  0  0  0
   28.4067   16.0848   61.0605 C   0  0  0  0  0  0  0  0  0  0  0  0
   29.6731   17.2786   59.2244 C   0  0  0  0  0  0  0  0  0  0  0  0
   32.1318   11.7085   63.4042 C   0  0  0  0  0  0  0  0  0  0  0  0
   31.7741   11.0010   64.5186 O   0  0  0  0  0  0  0  0  0  0  0  0
   31.7845   10.0216   64.3244 H   0  0  0  0  0  0  0  0  0  0  0  0
   29.8794    8.5050   60.7119 C   0  0  0  0  0  0  0  0  0  0  0  0
   31.1971    8.8298   60.4203 O   0  0  0  0  0  0  0  0  0  0  0  0
   31.5177    9.3767   61.2029 H   0  0  0  0  0  0  0  0  0  0  0  0
 32 33  1  0  0  0
 33 34  1  0  0  0
 33 31  1  0  0  0
 31  5  1  0  0  0
  5  6  1  0  0  0
  6  7  1  0  0  0
  7  8  2  0  0  0
  7 10  1  0  0  0
 10 24  1  0  0  0
 24 25  1  0  0  0
 25 26  1  0  0  0
 26 27  1  0  0  0
 26 28  2  0  0  0
 10 11  1  0  0  0
 11 12  1  0  0  0
 12 13  2  0  0  0
 12 15  1  0  0  0
 15 16  1  0  0  0
 16 17  1  0  0  0
 17 18  1  0  0  0
 17 19  2  0  0  0
 15 21  1  0  0  0
 21 22  1  0  0  0
 21 23  1  0  0  0
  5  1  1  0  0  0
  1  2  2  0  0  0
  1  3  1  0  0  0
  3 35  1  0  0  0
 35 64  1  0  0  0
 64 65  1  0  0  0
 35 36  1  0  0  0
 36 37  2  0  0  0
 36 38  1  0  0  0
 38 40  1  0  0  0
 40 61  1  0  0  0
 61 62  1  0  0  0
 40 41  1  0  0  0
 41 42  2  0  0  0
 41 43  1  0  0  0
 43 45  1  0  0  0
 45 58  1  0  0  0
 58 59  1  0  0  0
 58 60  1  0  0  0
 45 46  1  0  0  0
 46 47  2  0  0  0
 46 48  1  0  0  0
 48 50  1  0  0  0
 50 55  1  0  0  0
 55 56  1  0  0  0
 50 51  1  0  0  0
 51 52  1  0  0  0
 51 53  2  0  0  0
  6  9  1  0  0  0
 27 29  1  0  0  0
 27 30  1  0  0  0
 11 14  1  0  0  0
 16 20  1  0  0  0
  3  4  1  0  0  0
 65 66  1  0  0  0
 38 39  1  0  0  0
 62 63  1  0  0  0
 43 44  1  0  0  0
 48 49  1  0  0  0
 56 57  1  0  0  0
 52 54  1  0  0  0
M  END
> <minimizedAffinity>
5.80012

> <CNNscore>
0.6159398556

> <CNNaffinity>
6.8317232132

> <CNN_VS>
4.2079305649

> <CNNaffinity_variance>
0.4709231853

$$$$
[H]OC(=O)[C@@]([H])(N([H])C(=O)[C@@]([H])(N([H])C(=O)[C@@]([H])(N([H])C(=O)[C@@]([H])(N([H])C(=O)[C@@]([H])(N([H])C(=O)[C@@]([H])(N([H])C(=O)[C@@]([H])(N([H])C(=O)C([H])([H])[H])C([H])(C([H])([H])[H])C([H])([H])[H])C([H])([H])C([H])([H])C(=O)N([H])[H])C([H])([H])C([H])(C([H])([H])[H])C([H])([H])[H])C([H])([H])O[H])C([H])([H])O[H])C([H])(C([H])([H])[H])C([H])([H])[H])C([H])([H])O[H]


 66 65  0  0  0  0  0  0  0  0999 V2000
   21.8301   10.6563   54.2330 C   0  0  0  0  0  0  0  0  0  0  0  0
   21.3352   11.1829   55.2516 O   0  0  0  0  0  0  0  0  0  0  0  0
   22.9417    9.8160   54.3458 N   0  0  0  0  0  0  0  0  0  0  0  0
   23.3719    9.3818   53.5150 H   0  0  0  0  0  0  0  0  0  0  0  0
   21.2004   10.9450   52.9078 C   0  0  0  0  0  0  0  0  0  0  0  0
   20.9636   12.3494   52.7692 N   0  0  0  0  0  0  0  0  0  0  0  0
   21.3331   13.0914   51.5967 C   0  0  0  0  0  0  0  0  0  0  0  0
   21.8721   12.4305   50.6749 O   0  0  0  0  0  0  0  0  0  0  0  0
   20.5136   12.8972   53.5047 H   0  0  0  0  0  0  0  0  0  0  0  0
   21.1170   14.5185   51.4333 C   0  0  0  0  0  0  0  0  0  0  0  0
   22.1613   15.0917   50.6037 N   0  0  0  0  0  0  0  0  0  0  0  0
   22.4218   16.4532   50.4189 C   0  0  0  0  0  0  0  0  0  0  0  0
   21.6952   17.2855   51.0185 O   0  0  0  0  0  0  0  0  0  0  0  0
   22.7717   14.4028   50.0857 H   0  0  0  0  0  0  0  0  0  0  0  0
   23.4992   16.9613   49.5598 C   0  0  0  0  0  0  0  0  0  0  0  0
   24.0850   15.8868   48.7532 N   0  0  0  0  0  0  0  0  0  0  0  0
   25.4824   15.6778   48.6887 C   0  0  0  0  0  0  0  0  0  0  0  0
   26.0878   14.5965   47.8757 C   0  0  0  0  0  0  0  0  0  0  0  0
   26.2520   16.4273   49.3377 O   0  0  0  0  0  0  0  0  0  0  0  0
   23.4753   15.2468   48.2027 H   0  0  0  0  0  0  0  0  0  0  0  0
   23.0978   18.0349   48.5877 C   0  0  0  0  0  0  0  0  0  0  0  0
   24.2330   18.9615   48.2269 C   0  0  0  0  0  0  0  0  0  0  0  0
   22.2824   17.5763   47.4167 C   0  0  0  0  0  0  0  0  0  0  0  0
   19.7937   14.9836   50.9837 C   0  0  0  0  0  0  0  0  0  0  0  0
   19.0043   15.8334   51.9062 C   0  0  0  0  0  0  0  0  0  0  0  0
   19.5992   15.6519   53.2816 C   0  0  0  0  0  0  0  0  0  0  0  0
   20.5753   16.5654   53.7476 N   0  0  0  0  0  0  0  0  0  0  0  0
   19.2577   14.7092   54.0405 O   0  0  0  0  0  0  0  0  0  0  0  0
   21.1557   16.3095   54.5568 H   0  0  0  0  0  0  0  0  0  0  0  0
   20.7226   17.4908   53.2897 H   0  0  0  0  0  0  0  0  0  0  0  0
   21.8956   10.2275   51.8436 C   0  0  0  0  0  0  0  0  0  0  0  0
   20.2967    8.2443   51.9198 C   0  0  0  0  0  0  0  0  0  0  0  0
   21.6234    8.8055   51.5792 C   0  0  0  0  0  0  0  0  0  0  0  0
   22.6456    8.0107   52.4253 C   0  0  0  0  0  0  0  0  0  0  0  0
   23.5501    9.5013   55.6272 C   0  0  0  0  0  0  0  0  0  0  0  0
   24.9370    9.0111   55.5387 C   0  0  0  0  0  0  0  0  0  0  0  0
   25.3314    8.1327   54.7414 O   0  0  0  0  0  0  0  0  0  0  0  0
   25.8922    9.5764   56.4151 N   0  0  0  0  0  0  0  0  0  0  0  0
   25.5906   10.3006   57.0926 H   0  0  0  0  0  0  0  0  0  0  0  0
   27.3032    9.2129   56.4432 C   0  0  0  0  0  0  0  0  0  0  0  0
   28.0562   10.1256   57.3218 C   0  0  0  0  0  0  0  0  0  0  0  0
   28.3566   11.2890   56.8480 O   0  0  0  0  0  0  0  0  0  0  0  0
   28.4957    9.8857   58.6233 N   0  0  0  0  0  0  0  0  0  0  0  0
   28.3395    8.9955   59.1068 H   0  0  0  0  0  0  0  0  0  0  0  0
   29.2392   10.8833   59.4325 C   0  0  0  0  0  0  0  0  0  0  0  0
   30.2963   10.1615   60.2002 C   0  0  0  0  0  0  0  0  0  0  0  0
   30.0973    8.9427   60.5451 O   0  0  0  0  0  0  0  0  0  0  0  0
   31.5256   10.7268   60.5841 N   0  0  0  0  0  0  0  0  0  0  0  0
   31.8280   11.6967   60.3710 H   0  0  0  0  0  0  0  0  0  0  0  0
   32.5247    9.9530   61.3395 C   0  0  0  0  0  0  0  0  0  0  0  0
   31.9128    9.7036   62.7003 C   0  0  0  0  0  0  0  0  0  0  0  0
   31.6652    8.3998   63.1003 O   0  0  0  0  0  0  0  0  0  0  0  0
   31.6205   10.6336   63.4802 O   0  0  0  0  0  0  0  0  0  0  0  0
   31.8977    7.5951   62.5252 H   0  0  0  0  0  0  0  0  0  0  0  0
   33.7607   10.8127   61.5005 C   0  0  0  0  0  0  0  0  0  0  0  0
   33.6206   12.0110   60.7852 O   0  0  0  0  0  0  0  0  0  0  0  0
   33.9025   11.9087   59.8284 H   0  0  0  0  0  0  0  0  0  0  0  0
   28.2778   11.6398   60.2829 C   0  0  0  0  0  0  0  0  0  0  0  0
   28.2064   11.0947   61.6976 C   0  0  0  0  0  0  0  0  0  0  0  0
   28.4440   13.1033   60.1779 C   0  0  0  0  0  0  0  0  0  0  0  0
   27.8461    9.0382   55.0604 C   0  0  0  0  0  0  0  0  0  0  0  0
   27.9983    7.7332   54.6807 O   0  0  0  0  0  0  0  0  0  0  0  0
   27.1603    7.3972   54.2543 H   0  0  0  0  0  0  0  0  0  0  0  0
   22.6754    8.5798   56.4369 C   0  0  0  0  0  0  0  0  0  0  0  0
   22.0789    7.6241   55.6258 O   0  0  0  0  0  0  0  0  0  0  0  0
   22.7683    6.8980   55.5160 H   0  0  0  0  0  0  0  0  0  0  0  0
 32 33  1  0  0  0
 33 34  1  0  0  0
 33 31  1  0  0  0
 31  5  1  0  0  0
  5  6  1  0  0  0
  6  7  1  0  0  0
  7  8  2  0  0  0
  7 10  1  0  0  0
 10 24  1  0  0  0
 24 25  1  0  0  0
 25 26  1  0  0  0
 26 27  1  0  0  0
 26 28  2  0  0  0
 10 11  1  0  0  0
 11 12  1  0  0  0
 12 13  2  0  0  0
 12 15  1  0  0  0
 15 16  1  0  0  0
 16 17  1  0  0  0
 17 18  1  0  0  0
 17 19  2  0  0  0
 15 21  1  0  0  0
 21 22  1  0  0  0
 21 23  1  0  0  0
  5  1  1  0  0  0
  1  2  2  0  0  0
  1  3  1  0  0  0
  3 35  1  0  0  0
 35 64  1  0  0  0
 64 65  1  0  0  0
 35 36  1  0  0  0
 36 37  2  0  0  0
 36 38  1  0  0  0
 38 40  1  0  0  0
 40 61  1  0  0  0
 61 62  1  0  0  0
 40 41  1  0  0  0
 41 42  2  0  0  0
 41 43  1  0  0  0
 43 45  1  0  0  0
 45 58  1  0  0  0
 58 59  1  0  0  0
 58 60  1  0  0  0
 45 46  1  0  0  0
 46 47  2  0  0  0
 46 48  1  0  0  0
 48 50  1  0  0  0
 50 55  1  0  0  0
 55 56  1  0  0  0
 50 51  1  0  0  0
 51 52  1  0  0  0
 51 53  2  0  0  0
  6  9  1  0  0  0
 27 29  1  0  0  0
 27 30  1  0  0  0
 11 14  1  0  0  0
 16 20  1  0  0  0
  3  4  1  0  0  0
 65 66  1  0  0  0
 38 39  1  0  0  0
 62 63  1  0  0  0
 43 44  1  0  0  0
 48 49  1  0  0  0
 56 57  1  0  0  0
 52 54  1  0  0  0
M  END
> <minimizedAffinity>
11.88701

> <CNNscore>
0.6094554067

> <CNNaffinity>
6.9029412270

> <CNN_VS>
4.2070350647

> <CNNaffinity_variance>
1.4079391956

$$$$
[H]OC(=O)[C@@]([H])(N([H])C(=O)[C@@]([H])(N([H])C(=O)[C@@]([H])(N([H])C(=O)[C@@]([H])(N([H])C(=O)[C@@]([H])(N([H])C(=O)[C@@]([H])(N([H])C(=O)[C@@]([H])(N([H])C(=O)C([H])([H])[H])C([H])(C([H])([H])[H])C([H])([H])[H])C([H])([H])C([H])([H])C(=O)N([H])[H])C([H])([H])C([H])(C([H])([H])[H])C([H])([H])[H])C([H])([H])O[H])C([H])([H])O[H])C([H])(C([H])([H])[H])C([H])([H])[H])C([H])([H])O[H]


 66 65  0  0  0  0  0  0  0  0999 V2000
   27.9880    9.5267   57.6971 C   0  0  0  0  0  0  0  0  0  0  0  0
   27.9955   10.7753   57.7186 O   0  0  0  0  0  0  0  0  0  0  0  0
   28.5451    8.8021   58.7549 N   0  0  0  0  0  0  0  0  0  0  0  0
   28.5593    7.7708   58.7496 H   0  0  0  0  0  0  0  0  0  0  0  0
   27.3671    8.8410   56.5222 C   0  0  0  0  0  0  0  0  0  0  0  0
   26.0711    9.3879   56.2596 N   0  0  0  0  0  0  0  0  0  0  0  0
   25.1002    8.7313   55.4300 C   0  0  0  0  0  0  0  0  0  0  0  0
   25.4467    7.6245   54.9486 O   0  0  0  0  0  0  0  0  0  0  0  0
   25.7703   10.2802   56.6556 H   0  0  0  0  0  0  0  0  0  0  0  0
   23.7829    9.2682   55.1357 C   0  0  0  0  0  0  0  0  0  0  0  0
   23.1321    8.4674   54.1146 N   0  0  0  0  0  0  0  0  0  0  0  0
   22.3879    7.3018   54.3222 C   0  0  0  0  0  0  0  0  0  0  0  0
   22.2528    6.8830   55.4998 O   0  0  0  0  0  0  0  0  0  0  0  0
   23.2476    8.8026   53.1198 H   0  0  0  0  0  0  0  0  0  0  0  0
   21.7571    6.5406   53.2361 C   0  0  0  0  0  0  0  0  0  0  0  0
   20.4346    6.0486   53.6328 N   0  0  0  0  0  0  0  0  0  0  0  0
   20.0714    4.6884   53.4958 C   0  0  0  0  0  0  0  0  0  0  0  0
   18.7371    4.1782   53.8910 C   0  0  0  0  0  0  0  0  0  0  0  0
   20.8980    3.8706   53.0235 O   0  0  0  0  0  0  0  0  0  0  0  0
   19.7251    6.7001   54.0282 H   0  0  0  0  0  0  0  0  0  0  0  0
   21.5484    7.2969   51.9542 C   0  0  0  0  0  0  0  0  0  0  0  0
   20.0915    7.4952   51.6141 C   0  0  0  0  0  0  0  0  0  0  0  0
   22.3928    8.5230   51.7808 C   0  0  0  0  0  0  0  0  0  0  0  0
   22.8586    9.5195   56.2547 C   0  0  0  0  0  0  0  0  0  0  0  0
   21.7723   10.5069   56.0517 C   0  0  0  0  0  0  0  0  0  0  0  0
   21.0305   10.0878   54.8057 C   0  0  0  0  0  0  0  0  0  0  0  0
   20.1228    9.0028   54.8636 N   0  0  0  0  0  0  0  0  0  0  0  0
   21.1883   10.6719   53.7033 O   0  0  0  0  0  0  0  0  0  0  0  0
   19.8147    8.5595   53.9885 H   0  0  0  0  0  0  0  0  0  0  0  0
   19.7601    8.6397   55.7715 H   0  0  0  0  0  0  0  0  0  0  0  0
   28.3293    8.7234   55.4308 C   0  0  0  0  0  0  0  0  0  0  0  0
   27.6775    8.4071   52.9873 C   0  0  0  0  0  0  0  0  0  0  0  0
   28.0530    9.3012   54.1057 C   0  0  0  0  0  0  0  0  0  0  0  0
   29.3601   10.0004   53.6639 C   0  0  0  0  0  0  0  0  0  0  0  0
   29.1276    9.4500   59.9178 C   0  0  0  0  0  0  0  0  0  0  0  0
   29.7181    8.5229   60.8994 C   0  0  0  0  0  0  0  0  0  0  0  0
   30.7529    8.7529   61.5621 O   0  0  0  0  0  0  0  0  0  0  0  0
   29.0667    7.2855   61.1109 N   0  0  0  0  0  0  0  0  0  0  0  0
   28.2115    7.0652   60.5682 H   0  0  0  0  0  0  0  0  0  0  0  0
   29.5131    6.2688   62.0546 C   0  0  0  0  0  0  0  0  0  0  0  0
   28.3729    5.4625   62.5258 C   0  0  0  0  0  0  0  0  0  0  0  0
   28.2240    5.3379   63.8027 O   0  0  0  0  0  0  0  0  0  0  0  0
   27.4186    4.8028   61.7520 N   0  0  0  0  0  0  0  0  0  0  0  0
   27.4357    4.8065   60.7272 H   0  0  0  0  0  0  0  0  0  0  0  0
   26.2943    4.0240   62.3285 C   0  0  0  0  0  0  0  0  0  0  0  0
   26.7897    2.6482   62.6276 C   0  0  0  0  0  0  0  0  0  0  0  0
   27.9944    2.3360   62.3193 O   0  0  0  0  0  0  0  0  0  0  0  0
   26.0199    1.6415   63.2378 N   0  0  0  0  0  0  0  0  0  0  0  0
   25.0349    1.7497   63.5473 H   0  0  0  0  0  0  0  0  0  0  0  0
   26.5760    0.3050   63.5056 C   0  0  0  0  0  0  0  0  0  0  0  0
   25.4510   -0.4954   64.1238 C   0  0  0  0  0  0  0  0  0  0  0  0
   25.6895   -1.8031   64.5166 O   0  0  0  0  0  0  0  0  0  0  0  0
   24.3094   -0.0193   64.2936 O   0  0  0  0  0  0  0  0  0  0  0  0
   26.5995   -2.2462   64.4274 H   0  0  0  0  0  0  0  0  0  0  0  0
   27.6929    0.4552   64.5169 C   0  0  0  0  0  0  0  0  0  0  0  0
   28.9305    0.5685   63.8667 O   0  0  0  0  0  0  0  0  0  0  0  0
   29.3289   -0.3294   63.6654 H   0  0  0  0  0  0  0  0  0  0  0  0
   25.1376    4.0646   61.3904 C   0  0  0  0  0  0  0  0  0  0  0  0
   25.4738    3.4719   60.0341 C   0  0  0  0  0  0  0  0  0  0  0  0
   23.8844    3.5760   61.9997 C   0  0  0  0  0  0  0  0  0  0  0  0
   30.3813    6.8606   63.1193 C   0  0  0  0  0  0  0  0  0  0  0  0
   31.6418    7.1823   62.6974 O   0  0  0  0  0  0  0  0  0  0  0  0
   31.6605    8.1162   62.3446 H   0  0  0  0  0  0  0  0  0  0  0  0
   28.1539   10.4055   60.5572 C   0  0  0  0  0  0  0  0  0  0  0  0
   28.5851   10.7784   61.8228 O   0  0  0  0  0  0  0  0  0  0  0  0
   29.2432   11.5260   61.6722 H   0  0  0  0  0  0  0  0  0  0  0  0
 32 33  1  0  0  0
 33 34  1  0  0  0
 33 31  1  0  0  0
 31  5  1  0  0  0
  5  6  1  0  0  0
  6  7  1  0  0  0
  7  8  2  0  0  0
  7 10  1  0  0  0
 10 24  1  0  0  0
 24 25  1  0  0  0
 25 26  1  0  0  0
 26 27  1  0  0  0
 26 28  2  0  0  0
 10 11  1  0  0  0
 11 12  1  0  0  0
 12 13  2  0  0  0
 12 15  1  0  0  0
 15 16  1  0  0  0
 16 17  1  0  0  0
 17 18  1  0  0  0
 17 19  2  0  0  0
 15 21  1  0  0  0
 21 22  1  0  0  0
 21 23  1  0  0  0
  5  1  1  0  0  0
  1  2  2  0  0  0
  1  3  1  0  0  0
  3 35  1  0  0  0
 35 64  1  0  0  0
 64 65  1  0  0  0
 35 36  1  0  0  0
 36 37  2  0  0  0
 36 38  1  0  0  0
 38 40  1  0  0  0
 40 61  1  0  0  0
 61 62  1  0  0  0
 40 41  1  0  0  0
 41 42  2  0  0  0
 41 43  1  0  0  0
 43 45  1  0  0  0
 45 58  1  0  0  0
 58 59  1  0  0  0
 58 60  1  0  0  0
 45 46  1  0  0  0
 46 47  2  0  0  0
 46 48  1  0  0  0
 48 50  1  0  0  0
 50 55  1  0  0  0
 55 56  1  0  0  0
 50 51  1  0  0  0
 51 52  1  0  0  0
 51 53  2  0  0  0
  6  9  1  0  0  0
 27 29  1  0  0  0
 27 30  1  0  0  0
 11 14  1  0  0  0
 16 20  1  0  0  0
  3  4  1  0  0  0
 65 66  1  0  0  0
 38 39  1  0  0  0
 62 63  1  0  0  0
 43 44  1  0  0  0
 48 49  1  0  0  0
 56 57  1  0  0  0
 52 54  1  0  0  0
M  END
> <minimizedAffinity>
9.06591

> <CNNscore>
0.5532212257

> <CNNaffinity>
6.9810876846

> <CNN_VS>
3.8620858192

> <CNNaffinity_variance>
0.3540119529

$$$$
[H]OC(=O)[C@@]([H])(N([H])C(=O)[C@@]([H])(N([H])C(=O)[C@@]([H])(N([H])C(=O)[C@@]([H])(N([H])C(=O)[C@@]([H])(N([H])C(=O)[C@@]([H])(N([H])C(=O)[C@@]([H])(N([H])C(=O)C([H])([H])[H])C([H])(C([H])([H])[H])C([H])([H])[H])C([H])([H])C([H])([H])C(=O)N([H])[H])C([H])([H])C([H])(C([H])([H])[H])C([H])([H])[H])C([H])([H])O[H])C([H])([H])O[H])C([H])(C([H])([H])[H])C([H])([H])[H])C([H])([H])O[H]


 66 65  0  0  0  0  0  0  0  0999 V2000
   21.7243   11.1787   54.0709 C   0  0  0  0  0  0  0  0  0  0  0  0
   20.9658   11.3482   55.0484 O   0  0  0  0  0  0  0  0  0  0  0  0
   22.9120   10.4564   54.2197 N   0  0  0  0  0  0  0  0  0  0  0  0
   23.5571   10.3163   53.4272 H   0  0  0  0  0  0  0  0  0  0  0  0
   21.3237   11.7602   52.7527 C   0  0  0  0  0  0  0  0  0  0  0  0
   21.9080   13.0557   52.5867 N   0  0  0  0  0  0  0  0  0  0  0  0
   21.2826   14.1028   51.8287 C   0  0  0  0  0  0  0  0  0  0  0  0
   20.1686   13.8239   51.3207 O   0  0  0  0  0  0  0  0  0  0  0  0
   22.8067   13.3015   53.0057 H   0  0  0  0  0  0  0  0  0  0  0  0
   21.8577   15.4223   51.6326 C   0  0  0  0  0  0  0  0  0  0  0  0
   22.0373   15.6851   50.2163 N   0  0  0  0  0  0  0  0  0  0  0  0
   22.8893   16.6386   49.6500 C   0  0  0  0  0  0  0  0  0  0  0  0
   23.5798   17.3529   50.4202 O   0  0  0  0  0  0  0  0  0  0  0  0
   21.4543   15.0992   49.5589 H   0  0  0  0  0  0  0  0  0  0  0  0
   23.0184   16.8499   48.2024 C   0  0  0  0  0  0  0  0  0  0  0  0
   22.0292   17.8169   47.7179 N   0  0  0  0  0  0  0  0  0  0  0  0
   21.4244   17.6933   46.4452 C   0  0  0  0  0  0  0  0  0  0  0  0
   20.4244   18.6649   45.9424 C   0  0  0  0  0  0  0  0  0  0  0  0
   21.7355   16.7311   45.7019 O   0  0  0  0  0  0  0  0  0  0  0  0
   21.7483   18.6268   48.3091 H   0  0  0  0  0  0  0  0  0  0  0  0
   24.3545   17.3603   47.7410 C   0  0  0  0  0  0  0  0  0  0  0  0
   24.4695   18.8636   47.8079 C   0  0  0  0  0  0  0  0  0  0  0  0
   25.5476   16.6278   48.2762 C   0  0  0  0  0  0  0  0  0  0  0  0
   21.2169   16.5746   52.2893 C   0  0  0  0  0  0  0  0  0  0  0  0
   21.5867   17.9332   51.8270 C   0  0  0  0  0  0  0  0  0  0  0  0
   22.2596   18.6206   52.9904 C   0  0  0  0  0  0  0  0  0  0  0  0
   21.4741   19.3128   53.9434 N   0  0  0  0  0  0  0  0  0  0  0  0
   23.5069   18.6026   53.1492 O   0  0  0  0  0  0  0  0  0  0  0  0
   21.9297   19.9806   54.5788 H   0  0  0  0  0  0  0  0  0  0  0  0
   20.4444   19.1646   54.0162 H   0  0  0  0  0  0  0  0  0  0  0  0
   21.4669   10.7686   51.6911 C   0  0  0  0  0  0  0  0  0  0  0  0
   22.5318    8.4852   52.0759 C   0  0  0  0  0  0  0  0  0  0  0  0
   21.3213    9.3302   51.9670 C   0  0  0  0  0  0  0  0  0  0  0  0
   20.5082    8.7493   50.7864 C   0  0  0  0  0  0  0  0  0  0  0  0
   23.3045    9.8601   55.4852 C   0  0  0  0  0  0  0  0  0  0  0  0
   24.6275    9.2112   55.4683 C   0  0  0  0  0  0  0  0  0  0  0  0
   24.9515    8.2765   54.7039 O   0  0  0  0  0  0  0  0  0  0  0  0
   25.6028    9.6807   56.3785 N   0  0  0  0  0  0  0  0  0  0  0  0
   25.3581   10.4490   57.0298 H   0  0  0  0  0  0  0  0  0  0  0  0
   26.9593    9.1573   56.4770 C   0  0  0  0  0  0  0  0  0  0  0  0
   27.7901   10.0275   57.3283 C   0  0  0  0  0  0  0  0  0  0  0  0
   28.1630   11.1598   56.8311 O   0  0  0  0  0  0  0  0  0  0  0  0
   28.2347    9.7764   58.6259 N   0  0  0  0  0  0  0  0  0  0  0  0
   28.0249    8.9067   59.1261 H   0  0  0  0  0  0  0  0  0  0  0  0
   29.0607   10.7309   59.4066 C   0  0  0  0  0  0  0  0  0  0  0  0
   29.8442    9.9519   60.4101 C   0  0  0  0  0  0  0  0  0  0  0  0
   29.5173    8.7360   60.6523 O   0  0  0  0  0  0  0  0  0  0  0  0
   30.9418   10.4589   61.1288 N   0  0  0  0  0  0  0  0  0  0  0  0
   31.3237   11.4195   61.0340 H   0  0  0  0  0  0  0  0  0  0  0  0
   31.6710    9.6307   62.1033 C   0  0  0  0  0  0  0  0  0  0  0  0
   32.9492   10.3797   62.4090 C   0  0  0  0  0  0  0  0  0  0  0  0
   33.8436    9.8438   63.3223 O   0  0  0  0  0  0  0  0  0  0  0  0
   33.2296   11.4687   61.8667 O   0  0  0  0  0  0  0  0  0  0  0  0
   33.6891    8.9521   63.7842 H   0  0  0  0  0  0  0  0  0  0  0  0
   32.0134    8.3145   61.4377 C   0  0  0  0  0  0  0  0  0  0  0  0
   31.9369    7.2630   62.3627 O   0  0  0  0  0  0  0  0  0  0  0  0
   32.7949    7.1494   62.8690 H   0  0  0  0  0  0  0  0  0  0  0  0
   28.1769   11.7734   59.9996 C   0  0  0  0  0  0  0  0  0  0  0  0
   27.7865   11.4526   61.4308 C   0  0  0  0  0  0  0  0  0  0  0  0
   28.6727   13.1457   59.7730 C   0  0  0  0  0  0  0  0  0  0  0  0
   27.5166    8.8368   55.1264 C   0  0  0  0  0  0  0  0  0  0  0  0
   28.8830    8.8040   55.0794 O   0  0  0  0  0  0  0  0  0  0  0  0
   29.2143    7.8861   55.2909 H   0  0  0  0  0  0  0  0  0  0  0  0
   22.2321    8.9437   56.0145 C   0  0  0  0  0  0  0  0  0  0  0  0
   22.3284    7.6845   55.4382 O   0  0  0  0  0  0  0  0  0  0  0  0
   23.0295    7.1979   55.9732 H   0  0  0  0  0  0  0  0  0  0  0  0
 32 33  1  0  0  0
 33 34  1  0  0  0
 33 31  1  0  0  0
 31  5  1  0  0  0
  5  6  1  0  0  0
  6  7  1  0  0  0
  7  8  2  0  0  0
  7 10  1  0  0  0
 10 24  1  0  0  0
 24 25  1  0  0  0
 25 26  1  0  0  0
 26 27  1  0  0  0
 26 28  2  0  0  0
 10 11  1  0  0  0
 11 12  1  0  0  0
 12 13  2  0  0  0
 12 15  1  0  0  0
 15 16  1  0  0  0
 16 17  1  0  0  0
 17 18  1  0  0  0
 17 19  2  0  0  0
 15 21  1  0  0  0
 21 22  1  0  0  0
 21 23  1  0  0  0
  5  1  1  0  0  0
  1  2  2  0  0  0
  1  3  1  0  0  0
  3 35  1  0  0  0
 35 64  1  0  0  0
 64 65  1  0  0  0
 35 36  1  0  0  0
 36 37  2  0  0  0
 36 38  1  0  0  0
 38 40  1  0  0  0
 40 61  1  0  0  0
 61 62  1  0  0  0
 40 41  1  0  0  0
 41 42  2  0  0  0
 41 43  1  0  0  0
 43 45  1  0  0  0
 45 58  1  0  0  0
 58 59  1  0  0  0
 58 60  1  0  0  0
 45 46  1  0  0  0
 46 47  2  0  0  0
 46 48  1  0  0  0
 48 50  1  0  0  0
 50 55  1  0  0  0
 55 56  1  0  0  0
 50 51  1  0  0  0
 51 52  1  0  0  0
 51 53  2  0  0  0
  6  9  1  0  0  0
 27 29  1  0  0  0
 27 30  1  0  0  0
 11 14  1  0  0  0
 16 20  1  0  0  0
  3  4  1  0  0  0
 65 66  1  0  0  0
 38 39  1  0  0  0
 62 63  1  0  0  0
 43 44  1  0  0  0
 48 49  1  0  0  0
 56 57  1  0  0  0
 52 54  1  0  0  0
M  END
> <minimizedAffinity>
11.75151

> <CNNscore>
0.5530406833

> <CNNaffinity>
6.7203865051

> <CNN_VS>
3.7166471481

> <CNNaffinity_variance>
1.0088025331

$$$$
[H]OC(=O)[C@@]([H])(N([H])C(=O)[C@@]([H])(N([H])C(=O)[C@@]([H])(N([H])C(=O)[C@@]([H])(N([H])C(=O)[C@@]([H])(N([H])C(=O)[C@@]([H])(N([H])C(=O)[C@@]([H])(N([H])C(=O)C([H])([H])[H])C([H])(C([H])([H])[H])C([H])([H])[H])C([H])([H])C([H])([H])C(=O)N([H])[H])C([H])([H])C([H])(C([H])([H])[H])C([H])([H])[H])C([H])([H])O[H])C([H])([H])O[H])C([H])(C([H])([H])[H])C([H])([H])[H])C([H])([H])O[H]


 66 65  0  0  0  0  0  0  0  0999 V2000
   27.8488    9.1862   58.2274 C   0  0  0  0  0  0  0  0  0  0  0  0
   27.1234    8.3897   58.8592 O   0  0  0  0  0  0  0  0  0  0  0  0
   28.8365    9.9174   58.8938 N   0  0  0  0  0  0  0  0  0  0  0  0
   29.4371   10.5888   58.3915 H   0  0  0  0  0  0  0  0  0  0  0  0
   27.6335    9.3262   56.7543 C   0  0  0  0  0  0  0  0  0  0  0  0
   26.2525    9.5803   56.4791 N   0  0  0  0  0  0  0  0  0  0  0  0
   25.5662    9.0220   55.3481 C   0  0  0  0  0  0  0  0  0  0  0  0
   26.2482    8.2732   54.6057 O   0  0  0  0  0  0  0  0  0  0  0  0
   25.6816   10.1758   57.0817 H   0  0  0  0  0  0  0  0  0  0  0  0
   24.1696    9.2724   55.0369 C   0  0  0  0  0  0  0  0  0  0  0  0
   23.6120    8.1530   54.2998 N   0  0  0  0  0  0  0  0  0  0  0  0
   22.6638    7.2388   54.7697 C   0  0  0  0  0  0  0  0  0  0  0  0
   22.2342    7.3761   55.9431 O   0  0  0  0  0  0  0  0  0  0  0  0
   23.9731    8.0201   53.3163 H   0  0  0  0  0  0  0  0  0  0  0  0
   22.1446    6.1258   53.9642 C   0  0  0  0  0  0  0  0  0  0  0  0
   21.0597    6.5697   53.0842 N   0  0  0  0  0  0  0  0  0  0  0  0
   21.2172    7.6579   52.1944 C   0  0  0  0  0  0  0  0  0  0  0  0
   20.1280    8.1181   51.3007 C   0  0  0  0  0  0  0  0  0  0  0  0
   22.3135    8.2671   52.1479 O   0  0  0  0  0  0  0  0  0  0  0  0
   20.1374    6.0865   53.0973 H   0  0  0  0  0  0  0  0  0  0  0  0
   23.1486    5.4505   53.0729 C   0  0  0  0  0  0  0  0  0  0  0  0
   24.2994    6.3487   52.6903 C   0  0  0  0  0  0  0  0  0  0  0  0
   23.5579    4.0698   53.4880 C   0  0  0  0  0  0  0  0  0  0  0  0
   23.2642    9.6669   56.1297 C   0  0  0  0  0  0  0  0  0  0  0  0
   22.2739   10.7363   55.8612 C   0  0  0  0  0  0  0  0  0  0  0  0
   21.4392   10.2728   54.6919 C   0  0  0  0  0  0  0  0  0  0  0  0
   21.5614   10.9271   53.4423 N   0  0  0  0  0  0  0  0  0  0  0  0
   20.6288    9.3158   54.7845 O   0  0  0  0  0  0  0  0  0  0  0  0
   20.8324   10.7890   52.7306 H   0  0  0  0  0  0  0  0  0  0  0  0
   22.3711   11.5476   53.2257 H   0  0  0  0  0  0  0  0  0  0  0  0
   28.6517   10.1926   56.1682 C   0  0  0  0  0  0  0  0  0  0  0  0
   29.5179    8.7546   54.2505 C   0  0  0  0  0  0  0  0  0  0  0  0
   29.0418   10.0622   54.7550 C   0  0  0  0  0  0  0  0  0  0  0  0
   30.2158   11.0468   54.5436 C   0  0  0  0  0  0  0  0  0  0  0  0
   29.0795    9.7743   60.3191 C   0  0  0  0  0  0  0  0  0  0  0  0
   29.4964   11.0166   60.9935 C   0  0  0  0  0  0  0  0  0  0  0  0
   28.8796   12.1021   60.9295 O   0  0  0  0  0  0  0  0  0  0  0  0
   30.6764   10.9789   61.7721 N   0  0  0  0  0  0  0  0  0  0  0  0
   31.2123   10.0939   61.8353 H   0  0  0  0  0  0  0  0  0  0  0  0
   31.2136   12.1139   62.5116 C   0  0  0  0  0  0  0  0  0  0  0  0
   31.3832   13.2778   61.6235 C   0  0  0  0  0  0  0  0  0  0  0  0
   32.4580   13.3250   60.9088 O   0  0  0  0  0  0  0  0  0  0  0  0
   30.5144   14.3557   61.4567 N   0  0  0  0  0  0  0  0  0  0  0  0
   29.6376   14.4481   61.9793 H   0  0  0  0  0  0  0  0  0  0  0  0
   30.7734   15.4776   60.5200 C   0  0  0  0  0  0  0  0  0  0  0  0
   31.6259   16.4806   61.2235 C   0  0  0  0  0  0  0  0  0  0  0  0
   31.1066   17.2091   62.1420 O   0  0  0  0  0  0  0  0  0  0  0  0
   32.9893   16.6945   60.9524 N   0  0  0  0  0  0  0  0  0  0  0  0
   33.5442   16.1776   60.2435 H   0  0  0  0  0  0  0  0  0  0  0  0
   33.7706   17.7015   61.6893 C   0  0  0  0  0  0  0  0  0  0  0  0
   33.5533   17.4020   63.1561 C   0  0  0  0  0  0  0  0  0  0  0  0
   32.9804   18.3708   63.9651 O   0  0  0  0  0  0  0  0  0  0  0  0
   33.8732   16.3091   63.6677 O   0  0  0  0  0  0  0  0  0  0  0  0
   32.6770   19.2734   63.6108 H   0  0  0  0  0  0  0  0  0  0  0  0
   33.1972   19.0661   61.3705 C   0  0  0  0  0  0  0  0  0  0  0  0
   32.6435   19.0761   60.0819 O   0  0  0  0  0  0  0  0  0  0  0  0
   33.3323   19.2800   59.3823 H   0  0  0  0  0  0  0  0  0  0  0  0
   29.4740   16.0182   60.0311 C   0  0  0  0  0  0  0  0  0  0  0  0
   28.4102   16.0302   61.1136 C   0  0  0  0  0  0  0  0  0  0  0  0
   29.6219   17.2794   59.2775 C   0  0  0  0  0  0  0  0  0  0  0  0
   32.4142   11.7205   63.3124 C   0  0  0  0  0  0  0  0  0  0  0  0
   33.2249   12.7673   63.6546 O   0  0  0  0  0  0  0  0  0  0  0  0
   32.9338   13.1600   64.5253 H   0  0  0  0  0  0  0  0  0  0  0  0
   30.0223    8.6337   60.6020 C   0  0  0  0  0  0  0  0  0  0  0  0
   29.6741    7.9838   61.7782 O   0  0  0  0  0  0  0  0  0  0  0  0
   28.9453    7.3377   61.5216 H   0  0  0  0  0  0  0  0  0  0  0  0
 32 33  1  0  0  0
 33 34  1  0  0  0
 33 31  1  0  0  0
 31  5  1  0  0  0
  5  6  1  0  0  0
  6  7  1  0  0  0
  7  8  2  0  0  0
  7 10  1  0  0  0
 10 24  1  0  0  0
 24 25  1  0  0  0
 25 26  1  0  0  0
 26 27  1  0  0  0
 26 28  2  0  0  0
 10 11  1  0  0  0
 11 12  1  0  0  0
 12 13  2  0  0  0
 12 15  1  0  0  0
 15 16  1  0  0  0
 16 17  1  0  0  0
 17 18  1  0  0  0
 17 19  2  0  0  0
 15 21  1  0  0  0
 21 22  1  0  0  0
 21 23  1  0  0  0
  5  1  1  0  0  0
  1  2  2  0  0  0
  1  3  1  0  0  0
  3 35  1  0  0  0
 35 64  1  0  0  0
 64 65  1  0  0  0
 35 36  1  0  0  0
 36 37  2  0  0  0
 36 38  1  0  0  0
 38 40  1  0  0  0
 40 61  1  0  0  0
 61 62  1  0  0  0
 40 41  1  0  0  0
 41 42  2  0  0  0
 41 43  1  0  0  0
 43 45  1  0  0  0
 45 58  1  0  0  0
 58 59  1  0  0  0
 58 60  1  0  0  0
 45 46  1  0  0  0
 46 47  2  0  0  0
 46 48  1  0  0  0
 48 50  1  0  0  0
 50 55  1  0  0  0
 55 56  1  0  0  0
 50 51  1  0  0  0
 51 52  1  0  0  0
 51 53  2  0  0  0
  6  9  1  0  0  0
 27 29  1  0  0  0
 27 30  1  0  0  0
 11 14  1  0  0  0
 16 20  1  0  0  0
  3  4  1  0  0  0
 65 66  1  0  0  0
 38 39  1  0  0  0
 62 63  1  0  0  0
 43 44  1  0  0  0
 48 49  1  0  0  0
 56 57  1  0  0  0
 52 54  1  0  0  0
M  END
> <minimizedAffinity>
5.89700

> <CNNscore>
0.5496688485

> <CNNaffinity>
6.9756989479

> <CNN_VS>
3.8343243599

> <CNNaffinity_variance>
0.3196059763

$$$$
[H]OC(=O)[C@@]([H])(N([H])C(=O)[C@@]([H])(N([H])C(=O)[C@@]([H])(N([H])C(=O)[C@@]([H])(N([H])C(=O)[C@@]([H])(N([H])C(=O)[C@@]([H])(N([H])C(=O)[C@@]([H])(N([H])C(=O)C([H])([H])[H])C([H])(C([H])([H])[H])C([H])([H])[H])C([H])([H])C([H])([H])C(=O)N([H])[H])C([H])([H])C([H])(C([H])([H])[H])C([H])([H])[H])C([H])([H])O[H])C([H])([H])O[H])C([H])(C([H])([H])[H])C([H])([H])[H])C([H])([H])O[H]


 66 65  0  0  0  0  0  0  0  0999 V2000
   21.8298   10.4674   54.1776 C   0  0  0  0  0  0  0  0  0  0  0  0
   21.0664   10.5305   55.1640 O   0  0  0  0  0  0  0  0  0  0  0  0
   23.1339    9.9867   54.3277 N   0  0  0  0  0  0  0  0  0  0  0  0
   23.7829    9.9385   53.5275 H   0  0  0  0  0  0  0  0  0  0  0  0
   21.3091   10.9110   52.8479 C   0  0  0  0  0  0  0  0  0  0  0  0
   21.1815   12.3359   52.8181 N   0  0  0  0  0  0  0  0  0  0  0  0
   21.2852   13.1039   51.6091 C   0  0  0  0  0  0  0  0  0  0  0  0
   21.4832   12.4483   50.5565 O   0  0  0  0  0  0  0  0  0  0  0  0
   21.0064   12.8811   53.6641 H   0  0  0  0  0  0  0  0  0  0  0  0
   21.1728   14.5509   51.5504 C   0  0  0  0  0  0  0  0  0  0  0  0
   21.8847   15.0622   50.3931 N   0  0  0  0  0  0  0  0  0  0  0  0
   22.2863   16.3851   50.1828 C   0  0  0  0  0  0  0  0  0  0  0  0
   22.0174   17.2372   51.0671 O   0  0  0  0  0  0  0  0  0  0  0  0
   22.1067   14.3583   49.6378 H   0  0  0  0  0  0  0  0  0  0  0  0
   23.0047   16.8312   48.9820 C   0  0  0  0  0  0  0  0  0  0  0  0
   22.2651   17.8865   48.2836 N   0  0  0  0  0  0  0  0  0  0  0  0
   21.8235   17.7315   46.9488 C   0  0  0  0  0  0  0  0  0  0  0  0
   21.0765   18.7912   46.2305 C   0  0  0  0  0  0  0  0  0  0  0  0
   22.0653   16.6633   46.3359 O   0  0  0  0  0  0  0  0  0  0  0  0
   22.0475   18.7851   48.7627 H   0  0  0  0  0  0  0  0  0  0  0  0
   24.3824   17.3821   49.2212 C   0  0  0  0  0  0  0  0  0  0  0  0
   25.4391   16.7260   48.3665 C   0  0  0  0  0  0  0  0  0  0  0  0
   24.4808   18.8764   49.2817 C   0  0  0  0  0  0  0  0  0  0  0  0
   19.8333   15.1574   51.6358 C   0  0  0  0  0  0  0  0  0  0  0  0
   19.5023   15.9462   52.8460 C   0  0  0  0  0  0  0  0  0  0  0  0
   18.8739   14.9898   53.8304 C   0  0  0  0  0  0  0  0  0  0  0  0
   17.5549   15.2239   54.2885 N   0  0  0  0  0  0  0  0  0  0  0  0
   19.4833   13.9797   54.2658 O   0  0  0  0  0  0  0  0  0  0  0  0
   17.2219   14.7349   55.1294 H   0  0  0  0  0  0  0  0  0  0  0  0
   16.9125   15.8815   53.7960 H   0  0  0  0  0  0  0  0  0  0  0  0
   22.0193   10.2329   51.7678 C   0  0  0  0  0  0  0  0  0  0  0  0
   20.4086    8.2605   51.6616 C   0  0  0  0  0  0  0  0  0  0  0  0
   21.7660    8.8158   51.4611 C   0  0  0  0  0  0  0  0  0  0  0  0
   22.6941    8.0044   52.3953 C   0  0  0  0  0  0  0  0  0  0  0  0
   23.6488    9.5250   55.6055 C   0  0  0  0  0  0  0  0  0  0  0  0
   25.0578    9.0944   55.5746 C   0  0  0  0  0  0  0  0  0  0  0  0
   25.5592    8.3640   54.6925 O   0  0  0  0  0  0  0  0  0  0  0  0
   25.9058    9.5416   56.6143 N   0  0  0  0  0  0  0  0  0  0  0  0
   25.5141   10.1412   57.3636 H   0  0  0  0  0  0  0  0  0  0  0  0
   27.3229    9.2185   56.7198 C   0  0  0  0  0  0  0  0  0  0  0  0
   27.7244    9.1032   58.1332 C   0  0  0  0  0  0  0  0  0  0  0  0
   27.1490    8.1871   58.8388 O   0  0  0  0  0  0  0  0  0  0  0  0
   28.6628    9.8748   58.8178 N   0  0  0  0  0  0  0  0  0  0  0  0
   29.1744   10.6462   58.3778 H   0  0  0  0  0  0  0  0  0  0  0  0
   29.0067    9.6670   60.2466 C   0  0  0  0  0  0  0  0  0  0  0  0
   29.0768   11.0046   60.9051 C   0  0  0  0  0  0  0  0  0  0  0  0
   28.2702   11.2727   61.8651 O   0  0  0  0  0  0  0  0  0  0  0  0
   29.9819   12.0201   60.5474 N   0  0  0  0  0  0  0  0  0  0  0  0
   30.6952   11.9454   59.7969 H   0  0  0  0  0  0  0  0  0  0  0  0
   29.9964   13.3170   61.2440 C   0  0  0  0  0  0  0  0  0  0  0  0
   28.9589   14.1715   60.5499 C   0  0  0  0  0  0  0  0  0  0  0  0
   27.6186   13.8418   60.6765 O   0  0  0  0  0  0  0  0  0  0  0  0
   29.2669   15.1676   59.8633 O   0  0  0  0  0  0  0  0  0  0  0  0
   27.2961   13.0580   61.2367 H   0  0  0  0  0  0  0  0  0  0  0  0
   31.3631   13.9390   61.0499 C   0  0  0  0  0  0  0  0  0  0  0  0
   32.2906   13.3699   61.9348 O   0  0  0  0  0  0  0  0  0  0  0  0
   32.2858   13.8297   62.8258 H   0  0  0  0  0  0  0  0  0  0  0  0
   30.2660    8.8761   60.3380 C   0  0  0  0  0  0  0  0  0  0  0  0
   31.3458    9.5994   61.1219 C   0  0  0  0  0  0  0  0  0  0  0  0
   30.0364    7.4708   60.7288 C   0  0  0  0  0  0  0  0  0  0  0  0
   28.1524   10.1333   55.8757 C   0  0  0  0  0  0  0  0  0  0  0  0
   28.5584    9.5849   54.6905 O   0  0  0  0  0  0  0  0  0  0  0  0
   27.8787    9.7562   53.9793 H   0  0  0  0  0  0  0  0  0  0  0  0
   22.7509    8.4777   56.2113 C   0  0  0  0  0  0  0  0  0  0  0  0
   22.7190    7.3363   55.4220 O   0  0  0  0  0  0  0  0  0  0  0  0
   23.5362    6.8079   55.6820 H   0  0  0  0  0  0  0  0  0  0  0  0
 32 33  1  0  0  0
 33 34  1  0  0  0
 33 31  1  0  0  0
 31  5  1  0  0  0
  5  6  1  0  0  0
  6  7  1  0  0  0
  7  8  2  0  0  0
  7 10  1  0  0  0
 10 24  1  0  0  0
 24 25  1  0  0  0
 25 26  1  0  0  0
 26 27  1  0  0  0
 26 28  2  0  0  0
 10 11  1  0  0  0
 11 12  1  0  0  0
 12 13  2  0  0  0
 12 15  1  0  0  0
 15 16  1  0  0  0
 16 17  1  0  0  0
 17 18  1  0  0  0
 17 19  2  0  0  0
 15 21  1  0  0  0
 21 22  1  0  0  0
 21 23  1  0  0  0
  5  1  1  0  0  0
  1  2  2  0  0  0
  1  3  1  0  0  0
  3 35  1  0  0  0
 35 64  1  0  0  0
 64 65  1  0  0  0
 35 36  1  0  0  0
 36 37  2  0  0  0
 36 38  1  0  0  0
 38 40  1  0  0  0
 40 61  1  0  0  0
 61 62  1  0  0  0
 40 41  1  0  0  0
 41 42  2  0  0  0
 41 43  1  0  0  0
 43 45  1  0  0  0
 45 58  1  0  0  0
 58 59  1  0  0  0
 58 60  1  0  0  0
 45 46  1  0  0  0
 46 47  2  0  0  0
 46 48  1  0  0  0
 48 50  1  0  0  0
 50 55  1  0  0  0
 55 56  1  0  0  0
 50 51  1  0  0  0
 51 52  1  0  0  0
 51 53  2  0  0  0
  6  9  1  0  0  0
 27 29  1  0  0  0
 27 30  1  0  0  0
 11 14  1  0  0  0
 16 20  1  0  0  0
  3  4  1  0  0  0
 65 66  1  0  0  0
 38 39  1  0  0  0
 62 63  1  0  0  0
 43 44  1  0  0  0
 48 49  1  0  0  0
 56 57  1  0  0  0
 52 54  1  0  0  0
M  END
> <minimizedAffinity>
12.40882

> <CNNscore>
0.5486024022

> <CNNaffinity>
6.5671873093

> <CNN_VS>
3.6027746201

> <CNNaffinity_variance>
0.6158904433

$$$$
[H]OC(=O)[C@@]([H])(N([H])C(=O)[C@@]([H])(N([H])C(=O)[C@@]([H])(N([H])C(=O)[C@@]([H])(N([H])C(=O)[C@@]([H])(N([H])C(=O)[C@@]([H])(N([H])C(=O)[C@@]([H])(N([H])C(=O)C([H])([H])[H])C([H])(C([H])([H])[H])C([H])([H])[H])C([H])([H])C([H])([H])C(=O)N([H])[H])C([H])([H])C([H])(C([H])([H])[H])C([H])([H])[H])C([H])([H])O[H])C([H])([H])O[H])C([H])(C([H])([H])[H])C([H])([H])[H])C([H])([H])O[H]


 66 65  0  0  0  0  0  0  0  0999 V2000
   28.7423    9.6268   59.0533 C   0  0  0  0  0  0  0  0  0  0  0  0
   28.2052    8.5206   59.2713 O   0  0  0  0  0  0  0  0  0  0  0  0
   29.7748   10.0818   59.8787 N   0  0  0  0  0  0  0  0  0  0  0  0
   30.2223   10.9978   59.7220 H   0  0  0  0  0  0  0  0  0  0  0  0
   28.2558   10.4353   57.8932 C   0  0  0  0  0  0  0  0  0  0  0  0
   27.1197    9.8049   57.2939 N   0  0  0  0  0  0  0  0  0  0  0  0
   27.1461    9.2402   55.9739 C   0  0  0  0  0  0  0  0  0  0  0  0
   28.2418    9.3159   55.3652 O   0  0  0  0  0  0  0  0  0  0  0  0
   26.2261    9.7235   57.7823 H   0  0  0  0  0  0  0  0  0  0  0  0
   26.0057    8.6061   55.3356 C   0  0  0  0  0  0  0  0  0  0  0  0
   24.8628    9.5011   55.3481 N   0  0  0  0  0  0  0  0  0  0  0  0
   23.5159    9.1277   55.3928 C   0  0  0  0  0  0  0  0  0  0  0  0
   23.2381    7.9022   55.4261 O   0  0  0  0  0  0  0  0  0  0  0  0
   25.0825   10.5334   55.3090 H   0  0  0  0  0  0  0  0  0  0  0  0
   22.4088   10.0927   55.4015 C   0  0  0  0  0  0  0  0  0  0  0  0
   22.2453   10.7233   54.0884 N   0  0  0  0  0  0  0  0  0  0  0  0
   21.6705   10.0343   52.9950 C   0  0  0  0  0  0  0  0  0  0  0  0
   21.5012   10.6595   51.6618 C   0  0  0  0  0  0  0  0  0  0  0  0
   21.2848    8.8492   53.1426 O   0  0  0  0  0  0  0  0  0  0  0  0
   22.5545   11.7052   53.9316 H   0  0  0  0  0  0  0  0  0  0  0  0
   21.0626    9.5277   55.7582 C   0  0  0  0  0  0  0  0  0  0  0  0
   19.9807   10.5773   55.8324 C   0  0  0  0  0  0  0  0  0  0  0  0
   20.6650    8.2858   55.0194 C   0  0  0  0  0  0  0  0  0  0  0  0
   26.1834    8.0224   53.9949 C   0  0  0  0  0  0  0  0  0  0  0  0
   25.0448    8.0923   53.0490 C   0  0  0  0  0  0  0  0  0  0  0  0
   24.2553    6.8175   53.2233 C   0  0  0  0  0  0  0  0  0  0  0  0
   22.9868    6.6905   52.6074 N   0  0  0  0  0  0  0  0  0  0  0  0
   24.6851    5.8506   53.9027 O   0  0  0  0  0  0  0  0  0  0  0  0
   22.3486    5.9485   52.9222 H   0  0  0  0  0  0  0  0  0  0  0  0
   22.6819    7.3320   51.8437 H   0  0  0  0  0  0  0  0  0  0  0  0
   28.1858   11.8495   58.2483 C   0  0  0  0  0  0  0  0  0  0  0  0
   27.5279   12.0248   60.7044 C   0  0  0  0  0  0  0  0  0  0  0  0
   28.4879   12.3082   59.6138 C   0  0  0  0  0  0  0  0  0  0  0  0
   28.5896   13.8495   59.5336 C   0  0  0  0  0  0  0  0  0  0  0  0
   30.2799    9.2984   60.9933 C   0  0  0  0  0  0  0  0  0  0  0  0
   31.4776    9.8625   61.6407 C   0  0  0  0  0  0  0  0  0  0  0  0
   32.6371    9.7888   61.1791 O   0  0  0  0  0  0  0  0  0  0  0  0
   31.3043   10.5392   62.8703 N   0  0  0  0  0  0  0  0  0  0  0  0
   30.3547   10.6075   63.2803 H   0  0  0  0  0  0  0  0  0  0  0  0
   32.3814   11.1641   63.6273 C   0  0  0  0  0  0  0  0  0  0  0  0
   32.6148   12.5410   63.1564 C   0  0  0  0  0  0  0  0  0  0  0  0
   33.3191   13.3141   63.9143 O   0  0  0  0  0  0  0  0  0  0  0  0
   32.1601   13.1259   61.9749 N   0  0  0  0  0  0  0  0  0  0  0  0
   31.5754   12.6262   61.2974 H   0  0  0  0  0  0  0  0  0  0  0  0
   32.4645   14.5252   61.5850 C   0  0  0  0  0  0  0  0  0  0  0  0
   31.1785   15.2000   61.2406 C   0  0  0  0  0  0  0  0  0  0  0  0
   30.0758   14.6951   61.6566 O   0  0  0  0  0  0  0  0  0  0  0  0
   31.0782   16.3770   60.4771 N   0  0  0  0  0  0  0  0  0  0  0  0
   31.8821   16.9000   60.0800 H   0  0  0  0  0  0  0  0  0  0  0  0
   29.7735   16.9901   60.1780 C   0  0  0  0  0  0  0  0  0  0  0  0
   30.0708   18.1957   59.3141 C   0  0  0  0  0  0  0  0  0  0  0  0
   29.0759   18.6969   58.4894 O   0  0  0  0  0  0  0  0  0  0  0  0
   31.1852   18.7585   59.3160 O   0  0  0  0  0  0  0  0  0  0  0  0
   28.1406   18.3015   58.4539 H   0  0  0  0  0  0  0  0  0  0  0  0
   29.1619   17.4529   61.4836 C   0  0  0  0  0  0  0  0  0  0  0  0
   29.4432   18.8093   61.7027 O   0  0  0  0  0  0  0  0  0  0  0  0
   30.3294   18.9376   62.1539 H   0  0  0  0  0  0  0  0  0  0  0  0
   33.4647   14.5201   60.4808 C   0  0  0  0  0  0  0  0  0  0  0  0
   33.4494   13.2220   59.6945 C   0  0  0  0  0  0  0  0  0  0  0  0
   33.4302   15.7516   59.6668 C   0  0  0  0  0  0  0  0  0  0  0  0
   33.5861   10.2795   63.6878 C   0  0  0  0  0  0  0  0  0  0  0  0
   33.3379    9.0311   64.1881 O   0  0  0  0  0  0  0  0  0  0  0  0
   33.0784    8.4088   63.4516 H   0  0  0  0  0  0  0  0  0  0  0  0
   30.4738    7.8556   60.6050 C   0  0  0  0  0  0  0  0  0  0  0  0
   31.2932    7.2036   61.5163 O   0  0  0  0  0  0  0  0  0  0  0  0
   30.6884    6.9339   62.2753 H   0  0  0  0  0  0  0  0  0  0  0  0
 32 33  1  0  0  0
 33 34  1  0  0  0
 33 31  1  0  0  0
 31  5  1  0  0  0
  5  6  1  0  0  0
  6  7  1  0  0  0
  7  8  2  0  0  0
  7 10  1  0  0  0
 10 24  1  0  0  0
 24 25  1  0  0  0
 25 26  1  0  0  0
 26 27  1  0  0  0
 26 28  2  0  0  0
 10 11  1  0  0  0
 11 12  1  0  0  0
 12 13  2  0  0  0
 12 15  1  0  0  0
 15 16  1  0  0  0
 16 17  1  0  0  0
 17 18  1  0  0  0
 17 19  2  0  0  0
 15 21  1  0  0  0
 21 22  1  0  0  0
 21 23  1  0  0  0
  5  1  1  0  0  0
  1  2  2  0  0  0
  1  3  1  0  0  0
  3 35  1  0  0  0
 35 64  1  0  0  0
 64 65  1  0  0  0
 35 36  1  0  0  0
 36 37  2  0  0  0
 36 38  1  0  0  0
 38 40  1  0  0  0
 40 61  1  0  0  0
 61 62  1  0  0  0
 40 41  1  0  0  0
 41 42  2  0  0  0
 41 43  1  0  0  0
 43 45  1  0  0  0
 45 58  1  0  0  0
 58 59  1  0  0  0
 58 60  1  0  0  0
 45 46  1  0  0  0
 46 47  2  0  0  0
 46 48  1  0  0  0
 48 50  1  0  0  0
 50 55  1  0  0  0
 55 56  1  0  0  0
 50 51  1  0  0  0
 51 52  1  0  0  0
 51 53  2  0  0  0
  6  9  1  0  0  0
 27 29  1  0  0  0
 27 30  1  0  0  0
 11 14  1  0  0  0
 16 20  1  0  0  0
  3  4  1  0  0  0
 65 66  1  0  0  0
 38 39  1  0  0  0
 62 63  1  0  0  0
 43 44  1  0  0  0
 48 49  1  0  0  0
 56 57  1  0  0  0
 52 54  1  0  0  0
M  END
> <minimizedAffinity>
1.48913

> <CNNscore>
0.5263444185

> <CNNaffinity>
7.0417008400

> <CNN_VS>
3.7063598633

> <CNNaffinity_variance>
0.3998071551

$$$$
[H]c1nc2c([H])c([H])c([H])c([H])n2c1C#Cc1c([H])c(C(=O)N([H])c2c([H])c([H])c(C([H])([H])N3C([H])([H])C([H])([H])N(C([H])([H])[H])C([H])([H])C3([H])[H])c(C(F)(F)F)c2[H])c([H])c([H])c1C([H])([H])[H]


 40 44  0  0  0  0  0  0  0  0999 V2000
   27.8427    9.0060   56.8227 N   0  0  0  0  0  0  0  0  0  0  0  0
   27.7480    8.7043   58.1765 C   0  0  0  0  0  0  0  0  0  0  0  0
   26.7221    8.1861   58.6607 O   0  0  0  0  0  0  0  0  0  0  0  0
   28.7712    9.4454   56.5116 H   0  0  0  0  0  0  0  0  0  0  0  0
   28.8285    8.9657   59.1290 C   0  0  0  0  0  0  0  0  0  0  0  0
   29.5324    7.9526   59.7372 C   0  0  0  0  0  0  0  0  0  0  0  0
   30.5610    8.1693   60.6528 C   0  0  0  0  0  0  0  0  0  0  0  0
   30.8713    9.4793   60.9483 C   0  0  0  0  0  0  0  0  0  0  0  0
   31.9567    9.8258   61.9161 C   0  0  0  0  0  0  0  0  0  0  0  0
   30.1904   10.5385   60.3609 C   0  0  0  0  0  0  0  0  0  0  0  0
   29.1864   10.2541   59.4664 C   0  0  0  0  0  0  0  0  0  0  0  0
   30.5123   11.9086   60.6675 C   0  0  0  0  0  0  0  0  0  0  0  0
   30.7682   13.0657   60.9218 C   0  0  0  0  0  0  0  0  0  0  0  0
   31.0498   14.4524   61.2206 C   0  0  0  0  0  0  0  0  0  0  0  0
   32.3007   14.9541   61.4354 C   0  0  0  0  0  0  0  0  0  0  0  0
   32.1436   16.2624   61.6783 N   0  0  0  0  0  0  0  0  0  0  0  0
   30.8418   16.5807   61.6200 C   0  0  0  0  0  0  0  0  0  0  0  0
   30.1245   17.7510   61.7836 C   0  0  0  0  0  0  0  0  0  0  0  0
   28.7690   17.8129   61.6699 C   0  0  0  0  0  0  0  0  0  0  0  0
   28.0949   16.6511   61.3788 C   0  0  0  0  0  0  0  0  0  0  0  0
   28.8056   15.4912   61.2166 C   0  0  0  0  0  0  0  0  0  0  0  0
   30.1673   15.4581   61.3366 N   0  0  0  0  0  0  0  0  0  0  0  0
   24.8241    8.5220   53.8299 C   0  0  0  0  0  0  0  0  0  0  0  0
   26.1338    8.1631   53.5888 C   0  0  0  0  0  0  0  0  0  0  0  0
   27.1439    8.3055   54.5541 C   0  0  0  0  0  0  0  0  0  0  0  0
   26.8828    8.8134   55.7979 C   0  0  0  0  0  0  0  0  0  0  0  0
   25.5585    9.1702   56.0232 C   0  0  0  0  0  0  0  0  0  0  0  0
   24.5544    9.0347   55.0807 C   0  0  0  0  0  0  0  0  0  0  0  0
   23.1784    9.4587   55.4304 C   0  0  0  0  0  0  0  0  0  0  0  0
   22.4326    9.9415   54.4063 F   0  0  0  0  0  0  0  0  0  0  0  0
   23.1491   10.2707   56.5752 F   0  0  0  0  0  0  0  0  0  0  0  0
   22.4698    8.3132   55.8666 F   0  0  0  0  0  0  0  0  0  0  0  0
   23.7458    8.4043   52.8540 C   0  0  0  0  0  0  0  0  0  0  0  0
   20.0065    8.1390   54.4039 C   0  0  0  0  0  0  0  0  0  0  0  0
   20.4799    7.2845   53.3562 N   0  0  0  0  0  0  0  0  0  0  0  0
   21.2731    6.1794   53.7638 C   0  0  0  0  0  0  0  0  0  0  0  0
   22.7586    6.3926   53.7320 C   0  0  0  0  0  0  0  0  0  0  0  0
   23.2446    7.0879   52.5842 N   0  0  0  0  0  0  0  0  0  0  0  0
   22.1499    7.2204   51.6428 C   0  0  0  0  0  0  0  0  0  0  0  0
   20.9767    7.9553   52.2013 C   0  0  0  0  0  0  0  0  0  0  0  0
 34 35  1  0  0  0
 35 36  1  0  0  0
 36 37  1  0  0  0
 37 38  1  0  0  0
 38 33  1  0  0  0
 33 23  1  0  0  0
 23 24  2  0  0  0
 24 25  1  0  0  0
 25 26  2  0  0  0
 26  1  1  0  0  0
  1  2  1  0  0  0
  2  3  2  0  0  0
  2  5  1  0  0  0
  5  6  2  0  0  0
  6  7  1  0  0  0
  7  8  2  0  0  0
  8  9  1  0  0  0
  8 10  1  0  0  0
 10 11  2  0  0  0
 10 12  1  0  0  0
 12 13  3  0  0  0
 13 14  1  0  0  0
 14 15  2  0  0  0
 15 16  1  0  0  0
 16 17  2  0  0  0
 17 18  1  0  0  0
 18 19  2  0  0  0
 19 20  1  0  0  0
 20 21  2  0  0  0
 21 22  1  0  0  0
 26 27  1  0  0  0
 27 28  2  0  0  0
 28 29  1  0  0  0
 29 30  1  0  0  0
 29 31  1  0  0  0
 29 32  1  0  0  0
 38 39  1  0  0  0
 39 40  1  0  0  0
 40 35  1  0  0  0
 28 23  1  0  0  0
 11  5  1  0  0  0
 22 14  1  0  0  0
 22 17  1  0  0  0
  1  4  1  0  0  0
M  END
> <minimizedAffinity>
4.49194

> <CNNscore>
0.5853613019

> <CNNaffinity>
6.6452355385

> <CNN_VS>
3.8898637295

> <CNNaffinity_variance>
0.0932237655

$$$$
[H]c1nc2c([H])c([H])c([H])c([H])n2c1C#Cc1c([H])c(C(=O)N([H])c2c([H])c([H])c(C([H])([H])N3C([H])([H])C([H])([H])N(C([H])([H])[H])C([H])([H])C3([H])[H])c(C(F)(F)F)c2[H])c([H])c([H])c1C([H])([H])[H]


 40 44  0  0  0  0  0  0  0  0999 V2000
   23.0255    7.3671   53.4631 N   0  0  0  0  0  0  0  0  0  0  0  0
   24.0923    7.0192   54.2840 C   0  0  0  0  0  0  0  0  0  0  0  0
   23.9996    6.1006   55.1225 O   0  0  0  0  0  0  0  0  0  0  0  0
   23.2150    8.1685   52.7748 H   0  0  0  0  0  0  0  0  0  0  0  0
   25.3913    7.6921   54.2312 C   0  0  0  0  0  0  0  0  0  0  0  0
   26.1757    7.8629   55.3481 C   0  0  0  0  0  0  0  0  0  0  0  0
   27.4130    8.5048   55.3312 C   0  0  0  0  0  0  0  0  0  0  0  0
   27.8529    8.9859   54.1168 C   0  0  0  0  0  0  0  0  0  0  0  0
   29.1648    9.6903   53.9844 C   0  0  0  0  0  0  0  0  0  0  0  0
   27.0982    8.8388   52.9594 C   0  0  0  0  0  0  0  0  0  0  0  0
   25.8867    8.1956   53.0468 C   0  0  0  0  0  0  0  0  0  0  0  0
   27.5551    9.3404   51.6889 C   0  0  0  0  0  0  0  0  0  0  0  0
   27.9309    9.7512   50.6123 C   0  0  0  0  0  0  0  0  0  0  0  0
   28.3645   10.2247   49.3163 C   0  0  0  0  0  0  0  0  0  0  0  0
   28.5453   11.5397   48.9992 C   0  0  0  0  0  0  0  0  0  0  0  0
   28.9454   11.5657   47.7208 N   0  0  0  0  0  0  0  0  0  0  0  0
   29.0164   10.3143   47.2429 C   0  0  0  0  0  0  0  0  0  0  0  0
   29.3624    9.7634   46.0232 C   0  0  0  0  0  0  0  0  0  0  0  0
   29.3532    8.4228   45.7847 C   0  0  0  0  0  0  0  0  0  0  0  0
   28.9809    7.5899   46.8126 C   0  0  0  0  0  0  0  0  0  0  0  0
   28.6380    8.1357   48.0215 C   0  0  0  0  0  0  0  0  0  0  0  0
   28.6562    9.4864   48.2331 N   0  0  0  0  0  0  0  0  0  0  0  0
   19.1707    5.5170   53.3209 C   0  0  0  0  0  0  0  0  0  0  0  0
   19.3032    6.8845   53.4418 C   0  0  0  0  0  0  0  0  0  0  0  0
   20.5553    7.5191   53.4853 C   0  0  0  0  0  0  0  0  0  0  0  0
   21.7234    6.8099   53.4104 C   0  0  0  0  0  0  0  0  0  0  0  0
   21.5711    5.4337   53.2894 C   0  0  0  0  0  0  0  0  0  0  0  0
   20.3434    4.7966   53.2453 C   0  0  0  0  0  0  0  0  0  0  0  0
   20.3036    3.3204   53.1246 C   0  0  0  0  0  0  0  0  0  0  0  0
   21.5074    2.6968   53.1225 F   0  0  0  0  0  0  0  0  0  0  0  0
   19.4518    2.8960   52.0926 F   0  0  0  0  0  0  0  0  0  0  0  0
   19.6495    2.8096   54.2717 F   0  0  0  0  0  0  0  0  0  0  0  0
   17.8924    4.8143   53.2850 C   0  0  0  0  0  0  0  0  0  0  0  0
   14.2340    3.4903   52.1370 C   0  0  0  0  0  0  0  0  0  0  0  0
   14.6041    3.6701   53.5091 N   0  0  0  0  0  0  0  0  0  0  0  0
   14.5254    4.9976   54.0070 C   0  0  0  0  0  0  0  0  0  0  0  0
   15.7995    5.7899   53.9636 C   0  0  0  0  0  0  0  0  0  0  0  0
   16.9705    5.0727   54.3527 N   0  0  0  0  0  0  0  0  0  0  0  0
   16.5543    3.7924   54.8914 C   0  0  0  0  0  0  0  0  0  0  0  0
   15.7744    2.9690   53.9207 C   0  0  0  0  0  0  0  0  0  0  0  0
 34 35  1  0  0  0
 35 36  1  0  0  0
 36 37  1  0  0  0
 37 38  1  0  0  0
 38 33  1  0  0  0
 33 23  1  0  0  0
 23 24  2  0  0  0
 24 25  1  0  0  0
 25 26  2  0  0  0
 26  1  1  0  0  0
  1  2  1  0  0  0
  2  3  2  0  0  0
  2  5  1  0  0  0
  5  6  2  0  0  0
  6  7  1  0  0  0
  7  8  2  0  0  0
  8  9  1  0  0  0
  8 10  1  0  0  0
 10 11  2  0  0  0
 10 12  1  0  0  0
 12 13  3  0  0  0
 13 14  1  0  0  0
 14 15  2  0  0  0
 15 16  1  0  0  0
 16 17  2  0  0  0
 17 18  1  0  0  0
 18 19  2  0  0  0
 19 20  1  0  0  0
 20 21  2  0  0  0
 21 22  1  0  0  0
 26 27  1  0  0  0
 27 28  2  0  0  0
 28 29  1  0  0  0
 29 30  1  0  0  0
 29 31  1  0  0  0
 29 32  1  0  0  0
 38 39  1  0  0  0
 39 40  1  0  0  0
 40 35  1  0  0  0
 28 23  1  0  0  0
 11  5  1  0  0  0
 22 14  1  0  0  0
 22 17  1  0  0  0
  1  4  1  0  0  0
M  END
> <minimizedAffinity>
45.41109

> <CNNscore>
0.5258938670

> <CNNaffinity>
6.5556440353

> <CNN_VS>
3.4475729465

> <CNNaffinity_variance>
0.2762061059

$$$$
[H]c1nc2c([H])c([H])c([H])c([H])n2c1C#Cc1c([H])c(C(=O)N([H])c2c([H])c([H])c(C([H])([H])N3C([H])([H])C([H])([H])N(C([H])([H])[H])C([H])([H])C3([H])[H])c(C(F)(F)F)c2[H])c([H])c([H])c1C([H])([H])[H]


 40 44  0  0  0  0  0  0  0  0999 V2000
   27.8712    9.3094   57.7080 N   0  0  0  0  0  0  0  0  0  0  0  0
   28.3219    8.4044   58.6623 C   0  0  0  0  0  0  0  0  0  0  0  0
   27.8983    7.2320   58.7031 O   0  0  0  0  0  0  0  0  0  0  0  0
   28.3046   10.2898   57.7607 H   0  0  0  0  0  0  0  0  0  0  0  0
   29.3155    8.7485   59.6808 C   0  0  0  0  0  0  0  0  0  0  0  0
   29.9935    7.7908   60.3984 C   0  0  0  0  0  0  0  0  0  0  0  0
   30.9395    8.0868   61.3786 C   0  0  0  0  0  0  0  0  0  0  0  0
   31.1921    9.4194   61.6237 C   0  0  0  0  0  0  0  0  0  0  0  0
   32.1873    9.8494   62.6530 C   0  0  0  0  0  0  0  0  0  0  0  0
   30.5341   10.4249   60.9261 C   0  0  0  0  0  0  0  0  0  0  0  0
   29.6127   10.0632   59.9726 C   0  0  0  0  0  0  0  0  0  0  0  0
   30.7959   11.8184   61.1798 C   0  0  0  0  0  0  0  0  0  0  0  0
   31.0273   12.9909   61.3818 C   0  0  0  0  0  0  0  0  0  0  0  0
   31.3196   14.3898   61.6038 C   0  0  0  0  0  0  0  0  0  0  0  0
   32.5648   14.8829   61.8661 C   0  0  0  0  0  0  0  0  0  0  0  0
   32.4214   16.2074   62.0087 N   0  0  0  0  0  0  0  0  0  0  0  0
   31.1335   16.5439   61.8433 C   0  0  0  0  0  0  0  0  0  0  0  0
   30.4332   17.7352   61.8794 C   0  0  0  0  0  0  0  0  0  0  0  0
   29.0895   17.8130   61.6727 C   0  0  0  0  0  0  0  0  0  0  0  0
   28.4101   16.6460   61.4172 C   0  0  0  0  0  0  0  0  0  0  0  0
   29.1039   15.4653   61.3813 C   0  0  0  0  0  0  0  0  0  0  0  0
   30.4539   15.4165   61.5928 N   0  0  0  0  0  0  0  0  0  0  0  0
   25.1273    8.6389   54.4948 C   0  0  0  0  0  0  0  0  0  0  0  0
   24.6948    9.1055   55.7186 C   0  0  0  0  0  0  0  0  0  0  0  0
   25.5735    9.3399   56.7888 C   0  0  0  0  0  0  0  0  0  0  0  0
   26.9189    9.1156   56.6763 C   0  0  0  0  0  0  0  0  0  0  0  0
   27.3369    8.6453   55.4371 C   0  0  0  0  0  0  0  0  0  0  0  0
   26.4814    8.4106   54.3749 C   0  0  0  0  0  0  0  0  0  0  0  0
   27.0399    7.8985   53.1017 C   0  0  0  0  0  0  0  0  0  0  0  0
   27.1843    8.8132   52.1115 F   0  0  0  0  0  0  0  0  0  0  0  0
   26.4085    6.7164   52.6837 F   0  0  0  0  0  0  0  0  0  0  0  0
   28.3588    7.4508   53.3562 F   0  0  0  0  0  0  0  0  0  0  0  0
   24.2501    8.3688   53.3605 C   0  0  0  0  0  0  0  0  0  0  0  0
   21.2657   10.3983   55.2123 C   0  0  0  0  0  0  0  0  0  0  0  0
   21.0455    9.1971   54.4634 N   0  0  0  0  0  0  0  0  0  0  0  0
   21.3227    7.9805   55.1413 C   0  0  0  0  0  0  0  0  0  0  0  0
   22.6915    7.4054   54.9209 C   0  0  0  0  0  0  0  0  0  0  0  0
   23.1606    7.4611   53.5741 N   0  0  0  0  0  0  0  0  0  0  0  0
   22.0606    7.8915   52.7332 C   0  0  0  0  0  0  0  0  0  0  0  0
   21.5111    9.2254   53.1170 C   0  0  0  0  0  0  0  0  0  0  0  0
 34 35  1  0  0  0
 35 36  1  0  0  0
 36 37  1  0  0  0
 37 38  1  0  0  0
 38 33  1  0  0  0
 33 23  1  0  0  0
 23 24  2  0  0  0
 24 25  1  0  0  0
 25 26  2  0  0  0
 26  1  1  0  0  0
  1  2  1  0  0  0
  2  3  2  0  0  0
  2  5  1  0  0  0
  5  6  2  0  0  0
  6  7  1  0  0  0
  7  8  2  0  0  0
  8  9  1  0  0  0
  8 10  1  0  0  0
 10 11  2  0  0  0
 10 12  1  0  0  0
 12 13  3  0  0  0
 13 14  1  0  0  0
 14 15  2  0  0  0
 15 16  1  0  0  0
 16 17  2  0  0  0
 17 18  1  0  0  0
 18 19  2  0  0  0
 19 20  1  0  0  0
 20 21  2  0  0  0
 21 22  1  0  0  0
 26 27  1  0  0  0
 27 28  2  0  0  0
 28 29  1  0  0  0
 29 30  1  0  0  0
 29 31  1  0  0  0
 29 32  1  0  0  0
 38 39  1  0  0  0
 39 40  1  0  0  0
 40 35  1  0  0  0
 28 23  1  0  0  0
 11  5  1  0  0  0
 22 14  1  0  0  0
 22 17  1  0  0  0
  1  4  1  0  0  0
M  END
> <minimizedAffinity>
9.51575

> <CNNscore>
0.5100456476

> <CNNaffinity>
6.4312996864

> <CNN_VS>
3.2802565098

> <CNNaffinity_variance>
0.0802295804

$$$$
[H]c1nc2c([H])c([H])c([H])c([H])n2c1C#Cc1c([H])c(C(=O)N([H])c2c([H])c([H])c(C([H])([H])N3C([H])([H])C([H])([H])N(C([H])([H])[H])C([H])([H])C3([H])[H])c(C(F)(F)F)c2[H])c([H])c([H])c1C([H])([H])[H]


 40 44  0  0  0  0  0  0  0  0999 V2000
   22.1033   11.3279   52.2005 N   0  0  0  0  0  0  0  0  0  0  0  0
   21.4659   10.0926   52.1762 C   0  0  0  0  0  0  0  0  0  0  0  0
   20.4144    9.9120   51.5302 O   0  0  0  0  0  0  0  0  0  0  0  0
   23.0031   11.3716   52.7839 H   0  0  0  0  0  0  0  0  0  0  0  0
   21.9698    8.9213   52.8952 C   0  0  0  0  0  0  0  0  0  0  0  0
   21.2063    7.7936   53.0882 C   0  0  0  0  0  0  0  0  0  0  0  0
   21.6552    6.6659   53.7740 C   0  0  0  0  0  0  0  0  0  0  0  0
   22.9379    6.7074   54.2766 C   0  0  0  0  0  0  0  0  0  0  0  0
   23.5201    5.5537   55.0280 C   0  0  0  0  0  0  0  0  0  0  0  0
   23.7494    7.8227   54.1086 C   0  0  0  0  0  0  0  0  0  0  0  0
   23.2442    8.9009   53.4221 C   0  0  0  0  0  0  0  0  0  0  0  0
   25.0903    7.8691   54.6325 C   0  0  0  0  0  0  0  0  0  0  0  0
   26.2174    7.9240   55.0749 C   0  0  0  0  0  0  0  0  0  0  0  0
   27.5594    8.0141   55.6065 C   0  0  0  0  0  0  0  0  0  0  0  0
   28.6861    7.6861   54.9097 C   0  0  0  0  0  0  0  0  0  0  0  0
   29.7163    7.9036   55.7383 N   0  0  0  0  0  0  0  0  0  0  0  0
   29.2618    8.3531   56.9177 C   0  0  0  0  0  0  0  0  0  0  0  0
   29.8614    8.7288   58.1052 C   0  0  0  0  0  0  0  0  0  0  0  0
   29.1578    9.1622   59.1875 C   0  0  0  0  0  0  0  0  0  0  0  0
   27.7890    9.2243   59.0812 C   0  0  0  0  0  0  0  0  0  0  0  0
   27.1946    8.8520   57.9044 C   0  0  0  0  0  0  0  0  0  0  0  0
   27.9262    8.4204   56.8329 N   0  0  0  0  0  0  0  0  0  0  0  0
   20.9045   15.0353   50.4337 C   0  0  0  0  0  0  0  0  0  0  0  0
   21.7064   14.1444   49.7513 C   0  0  0  0  0  0  0  0  0  0  0  0
   22.1105   12.9182   50.3041 C   0  0  0  0  0  0  0  0  0  0  0  0
   21.7286   12.5364   51.5617 C   0  0  0  0  0  0  0  0  0  0  0  0
   20.9216   13.4459   52.2347 C   0  0  0  0  0  0  0  0  0  0  0  0
   20.5165   14.6568   51.7010 C   0  0  0  0  0  0  0  0  0  0  0  0
   19.6631   15.5522   52.5166 C   0  0  0  0  0  0  0  0  0  0  0  0
   20.1981   16.7604   52.8202 F   0  0  0  0  0  0  0  0  0  0  0  0
   19.1087   14.8916   53.6242 F   0  0  0  0  0  0  0  0  0  0  0  0
   18.5107   15.8638   51.7555 F   0  0  0  0  0  0  0  0  0  0  0  0
   20.4715   16.3244   49.9047 C   0  0  0  0  0  0  0  0  0  0  0  0
   21.2264   14.7587   46.2395 C   0  0  0  0  0  0  0  0  0  0  0  0
   21.4992   16.1240   46.5767 N   0  0  0  0  0  0  0  0  0  0  0  0
   22.7090   16.3621   47.2810 C   0  0  0  0  0  0  0  0  0  0  0  0
   22.5952   16.4216   48.7765 C   0  0  0  0  0  0  0  0  0  0  0  0
   21.4643   17.1403   49.2682 N   0  0  0  0  0  0  0  0  0  0  0  0
   20.8314   17.8041   48.1451 C   0  0  0  0  0  0  0  0  0  0  0  0
   20.3870   16.8614   47.0764 C   0  0  0  0  0  0  0  0  0  0  0  0
 34 35  1  0  0  0
 35 36  1  0  0  0
 36 37  1  0  0  0
 37 38  1  0  0  0
 38 33  1  0  0  0
 33 23  1  0  0  0
 23 24  2  0  0  0
 24 25  1  0  0  0
 25 26  2  0  0  0
 26  1  1  0  0  0
  1  2  1  0  0  0
  2  3  2  0  0  0
  2  5  1  0  0  0
  5  6  2  0  0  0
  6  7  1  0  0  0
  7  8  2  0  0  0
  8  9  1  0  0  0
  8 10  1  0  0  0
 10 11  2  0  0  0
 10 12  1  0  0  0
 12 13  3  0  0  0
 13 14  1  0  0  0
 14 15  2  0  0  0
 15 16  1  0  0  0
 16 17  2  0  0  0
 17 18  1  0  0  0
 18 19  2  0  0  0
 19 20  1  0  0  0
 20 21  2  0  0  0
 21 22  1  0  0  0
 26 27  1  0  0  0
 27 28  2  0  0  0
 28 29  1  0  0  0
 29 30  1  0  0  0
 29 31  1  0  0  0
 29 32  1  0  0  0
 38 39  1  0  0  0
 39 40  1  0  0  0
 40 35  1  0  0  0
 28 23  1  0  0  0
 11  5  1  0  0  0
 22 14  1  0  0  0
 22 17  1  0  0  0
  1  4  1  0  0  0
M  END
> <minimizedAffinity>
52.88552

> <CNNscore>
0.4959571660

> <CNNaffinity>
6.0592894554

> <CNN_VS>
3.0051479340

> <CNNaffinity_variance>
0.1395443380

$$$$
[H]c1nc2c([H])c([H])c([H])c([H])n2c1C#Cc1c([H])c(C(=O)N([H])c2c([H])c([H])c(C([H])([H])N3C([H])([H])C([H])([H])N(C([H])([H])[H])C([H])([H])C3([H])[H])c(C(F)(F)F)c2[H])c([H])c([H])c1C([H])([H])[H]


 40 44  0  0  0  0  0  0  0  0999 V2000
   27.2698    9.2371   51.4428 N   0  0  0  0  0  0  0  0  0  0  0  0
   27.5437    8.4659   52.5666 C   0  0  0  0  0  0  0  0  0  0  0  0
   28.4000    7.5593   52.5446 O   0  0  0  0  0  0  0  0  0  0  0  0
   26.5183    9.9923   51.5733 H   0  0  0  0  0  0  0  0  0  0  0  0
   26.8605    8.6528   53.8477 C   0  0  0  0  0  0  0  0  0  0  0  0
   25.4949    8.5471   53.9739 C   0  0  0  0  0  0  0  0  0  0  0  0
   24.8151    8.7262   55.1777 C   0  0  0  0  0  0  0  0  0  0  0  0
   25.5750    9.0247   56.2882 C   0  0  0  0  0  0  0  0  0  0  0  0
   24.9490    9.2366   57.6291 C   0  0  0  0  0  0  0  0  0  0  0  0
   26.9574    9.1424   56.2135 C   0  0  0  0  0  0  0  0  0  0  0  0
   27.5644    8.9534   54.9949 C   0  0  0  0  0  0  0  0  0  0  0  0
   27.7543    9.4541   57.3722 C   0  0  0  0  0  0  0  0  0  0  0  0
   28.4146    9.7280   58.3509 C   0  0  0  0  0  0  0  0  0  0  0  0
   29.1855   10.0721   59.5253 C   0  0  0  0  0  0  0  0  0  0  0  0
   29.9729    9.1945   60.2125 C   0  0  0  0  0  0  0  0  0  0  0  0
   30.5129    9.8877   61.2240 N   0  0  0  0  0  0  0  0  0  0  0  0
   30.0851   11.1583   61.1815 C   0  0  0  0  0  0  0  0  0  0  0  0
   30.3129   12.2815   61.9544 C   0  0  0  0  0  0  0  0  0  0  0  0
   29.7418   13.4900   61.6944 C   0  0  0  0  0  0  0  0  0  0  0  0
   28.9022   13.5839   60.6104 C   0  0  0  0  0  0  0  0  0  0  0  0
   28.6763   12.4709   59.8442 C   0  0  0  0  0  0  0  0  0  0  0  0
   29.2634   11.2693   60.1288 N   0  0  0  0  0  0  0  0  0  0  0  0
   29.0328    9.1975   47.5450 C   0  0  0  0  0  0  0  0  0  0  0  0
   28.7757    8.0255   48.2253 C   0  0  0  0  0  0  0  0  0  0  0  0
   28.1928    8.0084   49.5029 C   0  0  0  0  0  0  0  0  0  0  0  0
   27.8455    9.1633   50.1498 C   0  0  0  0  0  0  0  0  0  0  0  0
   28.1120   10.3343   49.4502 C   0  0  0  0  0  0  0  0  0  0  0  0
   28.6856   10.3645   48.1912 C   0  0  0  0  0  0  0  0  0  0  0  0
   28.9327   11.6747   47.5451 C   0  0  0  0  0  0  0  0  0  0  0  0
   27.8884   12.5393   47.5479 F   0  0  0  0  0  0  0  0  0  0  0  0
   29.5432   11.5390   46.2883 F   0  0  0  0  0  0  0  0  0  0  0  0
   29.9375   12.3410   48.2874 F   0  0  0  0  0  0  0  0  0  0  0  0
   29.6480    9.2637   46.2236 C   0  0  0  0  0  0  0  0  0  0  0  0
   28.6481    6.4023   43.5277 C   0  0  0  0  0  0  0  0  0  0  0  0
   27.9306    7.6350   43.6603 N   0  0  0  0  0  0  0  0  0  0  0  0
   28.5013    8.7613   43.0105 C   0  0  0  0  0  0  0  0  0  0  0  0
   29.3808    9.6316   43.8602 C   0  0  0  0  0  0  0  0  0  0  0  0
   28.8900    9.8844   45.1763 N   0  0  0  0  0  0  0  0  0  0  0  0
   27.5348    9.3750   45.2555 C   0  0  0  0  0  0  0  0  0  0  0  0
   27.4358    7.9137   44.9672 C   0  0  0  0  0  0  0  0  0  0  0  0
 34 35  1  0  0  0
 35 36  1  0  0  0
 36 37  1  0  0  0
 37 38  1  0  0  0
 38 33  1  0  0  0
 33 23  1  0  0  0
 23 24  2  0  0  0
 24 25  1  0  0  0
 25 26  2  0  0  0
 26  1  1  0  0  0
  1  2  1  0  0  0
  2  3  2  0  0  0
  2  5  1  0  0  0
  5  6  2  0  0  0
  6  7  1  0  0  0
  7  8  2  0  0  0
  8  9  1  0  0  0
  8 10  1  0  0  0
 10 11  2  0  0  0
 10 12  1  0  0  0
 12 13  3  0  0  0
 13 14  1  0  0  0
 14 15  2  0  0  0
 15 16  1  0  0  0
 16 17  2  0  0  0
 17 18  1  0  0  0
 18 19  2  0  0  0
 19 20  1  0  0  0
 20 21  2  0  0  0
 21 22  1  0  0  0
 26 27  1  0  0  0
 27 28  2  0  0  0
 28 29  1  0  0  0
 29 30  1  0  0  0
 29 31  1  0  0  0
 29 32  1  0  0  0
 38 39  1  0  0  0
 39 40  1  0  0  0
 40 35  1  0  0  0
 28 23  1  0  0  0
 11  5  1  0  0  0
 22 14  1  0  0  0
 22 17  1  0  0  0
  1  4  1  0  0  0
M  END
> <minimizedAffinity>
50.25227

> <CNNscore>
0.4852280021

> <CNNaffinity>
6.0285062790

> <CNN_VS>
2.9251999855

> <CNNaffinity_variance>
0.0479711033

$$$$
[H]c1nc2c([H])c([H])c([H])c([H])n2c1C#Cc1c([H])c(C(=O)N([H])c2c([H])c([H])c(C([H])([H])N3C([H])([H])C([H])([H])N(C([H])([H])[H])C([H])([H])C3([H])[H])c(C(F)(F)F)c2[H])c([H])c([H])c1C([H])([H])[H]


 40 44  0  0  0  0  0  0  0  0999 V2000
   25.9796    9.3379   56.6077 N   0  0  0  0  0  0  0  0  0  0  0  0
   27.3680    9.2959   56.6657 C   0  0  0  0  0  0  0  0  0  0  0  0
   28.0571    9.0417   55.6577 O   0  0  0  0  0  0  0  0  0  0  0  0
   25.4858    9.5701   57.5320 H   0  0  0  0  0  0  0  0  0  0  0  0
   28.1223    9.5435   57.8956 C   0  0  0  0  0  0  0  0  0  0  0  0
   28.7268    8.5304   58.6028 C   0  0  0  0  0  0  0  0  0  0  0  0
   29.4456    8.7333   59.7799 C   0  0  0  0  0  0  0  0  0  0  0  0
   29.5418   10.0290   60.2400 C   0  0  0  0  0  0  0  0  0  0  0  0
   30.2888   10.3600   61.4918 C   0  0  0  0  0  0  0  0  0  0  0  0
   28.9494   11.0875   59.5624 C   0  0  0  0  0  0  0  0  0  0  0  0
   28.2548   10.8172   58.4076 C   0  0  0  0  0  0  0  0  0  0  0  0
   29.0481   12.4426   60.0405 C   0  0  0  0  0  0  0  0  0  0  0  0
   29.1153   13.5844   60.4416 C   0  0  0  0  0  0  0  0  0  0  0  0
   29.1706   14.9483   60.9194 C   0  0  0  0  0  0  0  0  0  0  0  0
   28.0733   15.7156   61.1836 C   0  0  0  0  0  0  0  0  0  0  0  0
   28.5364   16.9016   61.6006 N   0  0  0  0  0  0  0  0  0  0  0  0
   29.8777   16.8891   61.6016 C   0  0  0  0  0  0  0  0  0  0  0  0
   30.8529   17.8126   61.9289 C   0  0  0  0  0  0  0  0  0  0  0  0
   32.1857   17.5475   61.8414 C   0  0  0  0  0  0  0  0  0  0  0  0
   32.5655   16.3004   61.4063 C   0  0  0  0  0  0  0  0  0  0  0  0
   31.5992   15.3850   61.0820 C   0  0  0  0  0  0  0  0  0  0  0  0
   30.2673   15.6785   61.1793 N   0  0  0  0  0  0  0  0  0  0  0  0
   23.2920    8.7973   53.3232 C   0  0  0  0  0  0  0  0  0  0  0  0
   24.5469    8.2249   53.3218 C   0  0  0  0  0  0  0  0  0  0  0  0
   25.4472    8.3808   54.3883 C   0  0  0  0  0  0  0  0  0  0  0  0
   25.1273    9.1164   55.4972 C   0  0  0  0  0  0  0  0  0  0  0  0
   23.8597    9.6861   55.4815 C   0  0  0  0  0  0  0  0  0  0  0  0
   22.9635    9.5398   54.4372 C   0  0  0  0  0  0  0  0  0  0  0  0
   21.6414   10.2028   54.5263 C   0  0  0  0  0  0  0  0  0  0  0  0
   20.5733    9.3748   54.6337 F   0  0  0  0  0  0  0  0  0  0  0  0
   21.4813   11.1988   53.5500 F   0  0  0  0  0  0  0  0  0  0  0  0
   21.6162   10.9597   55.7225 F   0  0  0  0  0  0  0  0  0  0  0  0
   22.3299    8.6733   52.2333 C   0  0  0  0  0  0  0  0  0  0  0  0
   22.0269    6.5454   55.6735 C   0  0  0  0  0  0  0  0  0  0  0  0
   21.3170    6.2016   54.4777 N   0  0  0  0  0  0  0  0  0  0  0  0
   22.0531    5.4787   53.5020 C   0  0  0  0  0  0  0  0  0  0  0  0
   22.6929    6.3016   52.4220 C   0  0  0  0  0  0  0  0  0  0  0  0
   21.8797    7.3527   51.9015 N   0  0  0  0  0  0  0  0  0  0  0  0
   20.5437    7.1965   52.4427 C   0  0  0  0  0  0  0  0  0  0  0  0
   20.5027    7.2371   53.9344 C   0  0  0  0  0  0  0  0  0  0  0  0
 34 35  1  0  0  0
 35 36  1  0  0  0
 36 37  1  0  0  0
 37 38  1  0  0  0
 38 33  1  0  0  0
 33 23  1  0  0  0
 23 24  2  0  0  0
 24 25  1  0  0  0
 25 26  2  0  0  0
 26  1  1  0  0  0
  1  2  1  0  0  0
  2  3  2  0  0  0
  2  5  1  0  0  0
  5  6  2  0  0  0
  6  7  1  0  0  0
  7  8  2  0  0  0
  8  9  1  0  0  0
  8 10  1  0  0  0
 10 11  2  0  0  0
 10 12  1  0  0  0
 12 13  3  0  0  0
 13 14  1  0  0  0
 14 15  2  0  0  0
 15 16  1  0  0  0
 16 17  2  0  0  0
 17 18  1  0  0  0
 18 19  2  0  0  0
 19 20  1  0  0  0
 20 21  2  0  0  0
 21 22  1  0  0  0
 26 27  1  0  0  0
 27 28  2  0  0  0
 28 29  1  0  0  0
 29 30  1  0  0  0
 29 31  1  0  0  0
 29 32  1  0  0  0
 38 39  1  0  0  0
 39 40  1  0  0  0
 40 35  1  0  0  0
 28 23  1  0  0  0
 11  5  1  0  0  0
 22 14  1  0  0  0
 22 17  1  0  0  0
  1  4  1  0  0  0
M  END
> <minimizedAffinity>
2.29635

> <CNNscore>
0.4653244019

> <CNNaffinity>
6.5345153809

> <CNN_VS>
3.0406694412

> <CNNaffinity_variance>
0.1157556772

$$$$
[H]c1nc2c([H])c([H])c([H])c([H])n2c1C#Cc1c([H])c(C(=O)N([H])c2c([H])c([H])c(C([H])([H])N3C([H])([H])C([H])([H])N(C([H])([H])[H])C([H])([H])C3([H])[H])c(C(F)(F)F)c2[H])c([H])c([H])c1C([H])([H])[H]


 40 44  0  0  0  0  0  0  0  0999 V2000
   25.8808    9.9266   56.5669 N   0  0  0  0  0  0  0  0  0  0  0  0
   25.4940    8.8822   55.7349 C   0  0  0  0  0  0  0  0  0  0  0  0
   26.1364    7.8143   55.6842 O   0  0  0  0  0  0  0  0  0  0  0  0
   25.2547   10.7978   56.5356 H   0  0  0  0  0  0  0  0  0  0  0  0
   24.3189    8.9496   54.8645 C   0  0  0  0  0  0  0  0  0  0  0  0
   23.9486   10.1064   54.2190 C   0  0  0  0  0  0  0  0  0  0  0  0
   22.8322   10.2039   53.3899 C   0  0  0  0  0  0  0  0  0  0  0  0
   22.0738    9.0650   53.2235 C   0  0  0  0  0  0  0  0  0  0  0  0
   20.8560    9.0573   52.3565 C   0  0  0  0  0  0  0  0  0  0  0  0
   22.4054    7.8717   53.8532 C   0  0  0  0  0  0  0  0  0  0  0  0
   23.5195    7.8450   54.6576 C   0  0  0  0  0  0  0  0  0  0  0  0
   21.6150    6.6799   53.6813 C   0  0  0  0  0  0  0  0  0  0  0  0
   20.9536    5.6725   53.5515 C   0  0  0  0  0  0  0  0  0  0  0  0
   20.1692    4.4646   53.4205 C   0  0  0  0  0  0  0  0  0  0  0  0
   20.6708    3.2624   53.0134 C   0  0  0  0  0  0  0  0  0  0  0  0
   19.6418    2.4043   53.0219 N   0  0  0  0  0  0  0  0  0  0  0  0
   18.5278    3.0370   53.4195 C   0  0  0  0  0  0  0  0  0  0  0  0
   17.2131    2.6535   53.6078 C   0  0  0  0  0  0  0  0  0  0  0  0
   16.2430    3.5107   54.0301 C   0  0  0  0  0  0  0  0  0  0  0  0
   16.6007    4.8145   54.2771 C   0  0  0  0  0  0  0  0  0  0  0  0
   17.9036    5.1947   54.0906 C   0  0  0  0  0  0  0  0  0  0  0  0
   18.8576    4.3122   53.6654 N   0  0  0  0  0  0  0  0  0  0  0  0
   29.2237    9.9612   59.2366 C   0  0  0  0  0  0  0  0  0  0  0  0
   28.7934   11.1147   58.6149 C   0  0  0  0  0  0  0  0  0  0  0  0
   27.6960   11.1339   57.7386 C   0  0  0  0  0  0  0  0  0  0  0  0
   26.9872    9.9993   57.4497 C   0  0  0  0  0  0  0  0  0  0  0  0
   27.4348    8.8466   58.0842 C   0  0  0  0  0  0  0  0  0  0  0  0
   28.5142    8.8147   58.9496 C   0  0  0  0  0  0  0  0  0  0  0  0
   28.9074    7.5236   59.5610 C   0  0  0  0  0  0  0  0  0  0  0  0
   28.0441    7.0178   60.4758 F   0  0  0  0  0  0  0  0  0  0  0  0
   30.2428    7.5275   59.9942 F   0  0  0  0  0  0  0  0  0  0  0  0
   28.9363    6.5492   58.5343 F   0  0  0  0  0  0  0  0  0  0  0  0
   30.3652    9.8917   60.1428 C   0  0  0  0  0  0  0  0  0  0  0  0
   32.4471   13.1138   61.4613 C   0  0  0  0  0  0  0  0  0  0  0  0
   31.2941   12.5990   62.1378 N   0  0  0  0  0  0  0  0  0  0  0  0
   31.5150   11.4778   62.9807 C   0  0  0  0  0  0  0  0  0  0  0  0
   31.2701   10.1334   62.3597 C   0  0  0  0  0  0  0  0  0  0  0  0
   30.1022   10.0485   61.5439 N   0  0  0  0  0  0  0  0  0  0  0  0
   29.3464   11.2743   61.7132 C   0  0  0  0  0  0  0  0  0  0  0  0
   30.1162   12.4983   61.3423 C   0  0  0  0  0  0  0  0  0  0  0  0
 34 35  1  0  0  0
 35 36  1  0  0  0
 36 37  1  0  0  0
 37 38  1  0  0  0
 38 33  1  0  0  0
 33 23  1  0  0  0
 23 24  2  0  0  0
 24 25  1  0  0  0
 25 26  2  0  0  0
 26  1  1  0  0  0
  1  2  1  0  0  0
  2  3  2  0  0  0
  2  5  1  0  0  0
  5  6  2  0  0  0
  6  7  1  0  0  0
  7  8  2  0  0  0
  8  9  1  0  0  0
  8 10  1  0  0  0
 10 11  2  0  0  0
 10 12  1  0  0  0
 12 13  3  0  0  0
 13 14  1  0  0  0
 14 15  2  0  0  0
 15 16  1  0  0  0
 16 17  2  0  0  0
 17 18  1  0  0  0
 18 19  2  0  0  0
 19 20  1  0  0  0
 20 21  2  0  0  0
 21 22  1  0  0  0
 26 27  1  0  0  0
 27 28  2  0  0  0
 28 29  1  0  0  0
 29 30  1  0  0  0
 29 31  1  0  0  0
 29 32  1  0  0  0
 38 39  1  0  0  0
 39 40  1  0  0  0
 40 35  1  0  0  0
 28 23  1  0  0  0
 11  5  1  0  0  0
 22 14  1  0  0  0
 22 17  1  0  0  0
  1  4  1  0  0  0
M  END
> <minimizedAffinity>
34.42804

> <CNNscore>
0.4536123872

> <CNNaffinity>
6.4702796936

> <CNN_VS>
2.9349989891

> <CNNaffinity_variance>
0.7309180498

$$$$
[H]c1nc2c([H])c([H])c([H])c([H])n2c1C#Cc1c([H])c(C(=O)N([H])c2c([H])c([H])c(C([H])([H])N3C([H])([H])C([H])([H])N(C([H])([H])[H])C([H])([H])C3([H])[H])c(C(F)(F)F)c2[H])c([H])c([H])c1C([H])([H])[H]


 40 44  0  0  0  0  0  0  0  0999 V2000
   26.3993    9.4334   56.8371 N   0  0  0  0  0  0  0  0  0  0  0  0
   26.3712    8.6287   55.7038 C   0  0  0  0  0  0  0  0  0  0  0  0
   27.3725    7.9826   55.3357 O   0  0  0  0  0  0  0  0  0  0  0  0
   25.4817    9.9413   57.0654 H   0  0  0  0  0  0  0  0  0  0  0  0
   25.1821    8.4762   54.8636 C   0  0  0  0  0  0  0  0  0  0  0  0
   24.8800    7.2954   54.2261 C   0  0  0  0  0  0  0  0  0  0  0  0
   23.7598    7.1212   53.4148 C   0  0  0  0  0  0  0  0  0  0  0  0
   22.9244    8.2063   53.2585 C   0  0  0  0  0  0  0  0  0  0  0  0
   21.6953    8.1302   52.4109 C   0  0  0  0  0  0  0  0  0  0  0  0
   23.1851    9.4208   53.8810 C   0  0  0  0  0  0  0  0  0  0  0  0
   24.3075    9.5242   54.6676 C   0  0  0  0  0  0  0  0  0  0  0  0
   22.3140   10.5565   53.7198 C   0  0  0  0  0  0  0  0  0  0  0  0
   21.5913   11.5212   53.5923 C   0  0  0  0  0  0  0  0  0  0  0  0
   20.7462   12.6864   53.4517 C   0  0  0  0  0  0  0  0  0  0  0  0
   19.7662   13.0366   54.3346 C   0  0  0  0  0  0  0  0  0  0  0  0
   19.2168   14.1620   53.8583 N   0  0  0  0  0  0  0  0  0  0  0  0
   19.8247   14.5143   52.7156 C   0  0  0  0  0  0  0  0  0  0  0  0
   19.6719   15.5568   51.8208 C   0  0  0  0  0  0  0  0  0  0  0  0
   20.4369   15.6937   50.7027 C   0  0  0  0  0  0  0  0  0  0  0  0
   21.4022   14.7448   50.4645 C   0  0  0  0  0  0  0  0  0  0  0  0
   21.5538   13.7115   51.3511 C   0  0  0  0  0  0  0  0  0  0  0  0
   20.7709   13.5988   52.4665 N   0  0  0  0  0  0  0  0  0  0  0  0
   29.6496    9.9811   59.5646 C   0  0  0  0  0  0  0  0  0  0  0  0
   29.1785   11.0243   58.7951 C   0  0  0  0  0  0  0  0  0  0  0  0
   28.1099   10.8748   57.8961 C   0  0  0  0  0  0  0  0  0  0  0  0
   27.4718    9.6753   57.7315 C   0  0  0  0  0  0  0  0  0  0  0  0
   27.9597    8.6354   58.5140 C   0  0  0  0  0  0  0  0  0  0  0  0
   29.0114    8.7700   59.4033 C   0  0  0  0  0  0  0  0  0  0  0  0
   29.4530    7.5870   60.1785 C   0  0  0  0  0  0  0  0  0  0  0  0
   28.8687    6.4108   59.8425 F   0  0  0  0  0  0  0  0  0  0  0  0
   29.4619    7.8326   61.5607 F   0  0  0  0  0  0  0  0  0  0  0  0
   30.8278    7.3815   59.9096 F   0  0  0  0  0  0  0  0  0  0  0  0
   30.7639   10.0869   60.5005 C   0  0  0  0  0  0  0  0  0  0  0  0
   32.5654   13.6584   61.1741 C   0  0  0  0  0  0  0  0  0  0  0  0
   31.4403   13.1964   61.9308 N   0  0  0  0  0  0  0  0  0  0  0  0
   31.7272   12.2825   62.9791 C   0  0  0  0  0  0  0  0  0  0  0  0
   31.5990   10.8276   62.6327 C   0  0  0  0  0  0  0  0  0  0  0  0
   30.4591   10.4931   61.8417 N   0  0  0  0  0  0  0  0  0  0  0  0
   29.6087   11.6649   61.7618 C   0  0  0  0  0  0  0  0  0  0  0  0
   30.2912   12.8497   61.1628 C   0  0  0  0  0  0  0  0  0  0  0  0
 34 35  1  0  0  0
 35 36  1  0  0  0
 36 37  1  0  0  0
 37 38  1  0  0  0
 38 33  1  0  0  0
 33 23  1  0  0  0
 23 24  2  0  0  0
 24 25  1  0  0  0
 25 26  2  0  0  0
 26  1  1  0  0  0
  1  2  1  0  0  0
  2  3  2  0  0  0
  2  5  1  0  0  0
  5  6  2  0  0  0
  6  7  1  0  0  0
  7  8  2  0  0  0
  8  9  1  0  0  0
  8 10  1  0  0  0
 10 11  2  0  0  0
 10 12  1  0  0  0
 12 13  3  0  0  0
 13 14  1  0  0  0
 14 15  2  0  0  0
 15 16  1  0  0  0
 16 17  2  0  0  0
 17 18  1  0  0  0
 18 19  2  0  0  0
 19 20  1  0  0  0
 20 21  2  0  0  0
 21 22  1  0  0  0
 26 27  1  0  0  0
 27 28  2  0  0  0
 28 29  1  0  0  0
 29 30  1  0  0  0
 29 31  1  0  0  0
 29 32  1  0  0  0
 38 39  1  0  0  0
 39 40  1  0  0  0
 40 35  1  0  0  0
 28 23  1  0  0  0
 11  5  1  0  0  0
 22 14  1  0  0  0
 22 17  1  0  0  0
  1  4  1  0  0  0
M  END
> <minimizedAffinity>
26.04900

> <CNNscore>
0.4530481696

> <CNNaffinity>
6.0127592087

> <CNN_VS>
2.7240695953

> <CNNaffinity_variance>
0.1075756177

$$$$
[H]c1nc2c([H])c([H])c([H])c([H])n2c1C#Cc1c([H])c(C(=O)N([H])c2c([H])c([H])c(C([H])([H])N3C([H])([H])C([H])([H])N(C([H])([H])[H])C([H])([H])C3([H])[H])c(C(F)(F)F)c2[H])c([H])c([H])c1C([H])([H])[H]


 40 44  0  0  0  0  0  0  0  0999 V2000
   25.8611    9.3517   56.3876 N   0  0  0  0  0  0  0  0  0  0  0  0
   25.7095    8.3722   55.4128 C   0  0  0  0  0  0  0  0  0  0  0  0
   26.5941    7.5191   55.2000 O   0  0  0  0  0  0  0  0  0  0  0  0
   25.0375   10.0323   56.4901 H   0  0  0  0  0  0  0  0  0  0  0  0
   24.5174    8.2638   54.5701 C   0  0  0  0  0  0  0  0  0  0  0  0
   23.9266    7.0547   54.2858 C   0  0  0  0  0  0  0  0  0  0  0  0
   22.7959    6.9184   53.4819 C   0  0  0  0  0  0  0  0  0  0  0  0
   22.2588    8.0732   52.9549 C   0  0  0  0  0  0  0  0  0  0  0  0
   21.0471    8.0427   52.0800 C   0  0  0  0  0  0  0  0  0  0  0  0
   22.8178    9.3190   53.2121 C   0  0  0  0  0  0  0  0  0  0  0  0
   23.9329    9.3819   54.0132 C   0  0  0  0  0  0  0  0  0  0  0  0
   22.2589   10.5276   52.6631 C   0  0  0  0  0  0  0  0  0  0  0  0
   21.8032   11.5506   52.1996 C   0  0  0  0  0  0  0  0  0  0  0  0
   21.2828   12.7799   51.6430 C   0  0  0  0  0  0  0  0  0  0  0  0
   21.5234   13.2102   50.3704 C   0  0  0  0  0  0  0  0  0  0  0  0
   20.8749   14.3752   50.2394 N   0  0  0  0  0  0  0  0  0  0  0  0
   20.2455   14.6746   51.3856 C   0  0  0  0  0  0  0  0  0  0  0  0
   19.4500   15.7239   51.8062 C   0  0  0  0  0  0  0  0  0  0  0  0
   18.9163   15.7960   53.0568 C   0  0  0  0  0  0  0  0  0  0  0  0
   19.1886   14.7716   53.9316 C   0  0  0  0  0  0  0  0  0  0  0  0
   19.9769   13.7315   53.5150 C   0  0  0  0  0  0  0  0  0  0  0  0
   20.5001   13.6850   52.2525 N   0  0  0  0  0  0  0  0  0  0  0  0
   29.0894   10.1958   59.0651 C   0  0  0  0  0  0  0  0  0  0  0  0
   28.8743    8.9212   58.5840 C   0  0  0  0  0  0  0  0  0  0  0  0
   27.8265    8.6165   57.6999 C   0  0  0  0  0  0  0  0  0  0  0  0
   26.9525    9.5752   57.2638 C   0  0  0  0  0  0  0  0  0  0  0  0
   27.1837   10.8532   57.7588 C   0  0  0  0  0  0  0  0  0  0  0  0
   28.2124   11.1662   58.6299 C   0  0  0  0  0  0  0  0  0  0  0  0
   28.3558   12.5638   59.1003 C   0  0  0  0  0  0  0  0  0  0  0  0
   27.9361   13.5218   58.2375 F   0  0  0  0  0  0  0  0  0  0  0  0
   29.6282   12.8139   59.6382 F   0  0  0  0  0  0  0  0  0  0  0  0
   27.5226   12.7272   60.2332 F   0  0  0  0  0  0  0  0  0  0  0  0
   30.1556   10.5555   59.9941 C   0  0  0  0  0  0  0  0  0  0  0  0
   32.5613    7.8590   61.8368 C   0  0  0  0  0  0  0  0  0  0  0  0
   31.9294    8.9425   62.5286 N   0  0  0  0  0  0  0  0  0  0  0  0
   30.5728    8.7405   62.8963 C   0  0  0  0  0  0  0  0  0  0  0  0
   29.5482    9.2684   61.9349 C   0  0  0  0  0  0  0  0  0  0  0  0
   29.8362   10.5566   61.3922 N   0  0  0  0  0  0  0  0  0  0  0  0
   30.9790   11.0974   62.1021 C   0  0  0  0  0  0  0  0  0  0  0  0
   32.1963   10.2393   62.0016 C   0  0  0  0  0  0  0  0  0  0  0  0
 34 35  1  0  0  0
 35 36  1  0  0  0
 36 37  1  0  0  0
 37 38  1  0  0  0
 38 33  1  0  0  0
 33 23  1  0  0  0
 23 24  2  0  0  0
 24 25  1  0  0  0
 25 26  2  0  0  0
 26  1  1  0  0  0
  1  2  1  0  0  0
  2  3  2  0  0  0
  2  5  1  0  0  0
  5  6  2  0  0  0
  6  7  1  0  0  0
  7  8  2  0  0  0
  8  9  1  0  0  0
  8 10  1  0  0  0
 10 11  2  0  0  0
 10 12  1  0  0  0
 12 13  3  0  0  0
 13 14  1  0  0  0
 14 15  2  0  0  0
 15 16  1  0  0  0
 16 17  2  0  0  0
 17 18  1  0  0  0
 18 19  2  0  0  0
 19 20  1  0  0  0
 20 21  2  0  0  0
 21 22  1  0  0  0
 26 27  1  0  0  0
 27 28  2  0  0  0
 28 29  1  0  0  0
 29 30  1  0  0  0
 29 31  1  0  0  0
 29 32  1  0  0  0
 38 39  1  0  0  0
 39 40  1  0  0  0
 40 35  1  0  0  0
 28 23  1  0  0  0
 11  5  1  0  0  0
 22 14  1  0  0  0
 22 17  1  0  0  0
  1  4  1  0  0  0
M  END
> <minimizedAffinity>
30.81185

> <CNNscore>
0.4339718521

> <CNNaffinity>
5.9131865501

> <CNN_VS>
2.5661566257

> <CNNaffinity_variance>
0.0962910205

$$$$
[H]c1nc2c([H])c(OC([H])([H])C([H])([H])C([H])([H])N3C([H])([H])C([H])([H])OC([H])([H])C3([H])[H])c(OC([H])([H])[H])c([H])c2c(Oc2c([H])c([H])c(N([H])C(=O)C3(C(=O)N([H])c4c([H])c([H])c(F)c([H])c4[H])C([H])([H])C3([H])[H])c([H])c2F)c1[H]


 48 53  0  0  0  0  0  0  0  0999 V2000
   21.0162   14.8451   50.9988 C   0  0  0  0  0  0  0  0  0  0  0  0
   21.9047   13.9070   50.4964 C   0  0  0  0  0  0  0  0  0  0  0  0
   22.1091   12.6806   51.1331 C   0  0  0  0  0  0  0  0  0  0  0  0
   21.4449   12.3340   52.2848 C   0  0  0  0  0  0  0  0  0  0  0  0
   20.5603   13.2729   52.7806 C   0  0  0  0  0  0  0  0  0  0  0  0
   20.3483   14.5052   52.1528 C   0  0  0  0  0  0  0  0  0  0  0  0
   19.4800   15.4078   52.6959 F   0  0  0  0  0  0  0  0  0  0  0  0
   21.6528   11.0929   52.9558 N   0  0  0  0  0  0  0  0  0  0  0  0
   21.3434    9.8193   52.4317 C   0  0  0  0  0  0  0  0  0  0  0  0
   20.8095    9.6427   51.3199 O   0  0  0  0  0  0  0  0  0  0  0  0
   22.0764   11.1232   53.9176 H   0  0  0  0  0  0  0  0  0  0  0  0
   21.7124    8.6117   53.2681 C   0  0  0  0  0  0  0  0  0  0  0  0
   21.0603    7.3092   52.8316 C   0  0  0  0  0  0  0  0  0  0  0  0
   20.5077    8.0860   54.0126 C   0  0  0  0  0  0  0  0  0  0  0  0
   23.0177    8.6193   53.9425 C   0  0  0  0  0  0  0  0  0  0  0  0
   23.0054    8.7612   55.2343 O   0  0  0  0  0  0  0  0  0  0  0  0
   24.2758    8.5031   53.3355 N   0  0  0  0  0  0  0  0  0  0  0  0
   24.3312    8.4509   52.2723 H   0  0  0  0  0  0  0  0  0  0  0  0
   25.5182    8.4872   54.0528 C   0  0  0  0  0  0  0  0  0  0  0  0
   25.5485    8.8340   55.3624 C   0  0  0  0  0  0  0  0  0  0  0  0
   26.7468    8.8692   56.0448 C   0  0  0  0  0  0  0  0  0  0  0  0
   27.9206    8.5443   55.3686 C   0  0  0  0  0  0  0  0  0  0  0  0
   29.1362    8.5535   55.9841 F   0  0  0  0  0  0  0  0  0  0  0  0
   27.9031    8.1860   54.0233 C   0  0  0  0  0  0  0  0  0  0  0  0
   26.6891    8.1674   53.3964 C   0  0  0  0  0  0  0  0  0  0  0  0
   20.8550   16.0578   50.3224 O   0  0  0  0  0  0  0  0  0  0  0  0
   21.5859   17.6699   46.6297 C   0  0  0  0  0  0  0  0  0  0  0  0
   21.3565   17.1404   47.8813 C   0  0  0  0  0  0  0  0  0  0  0  0
   22.0591   17.6236   48.9943 C   0  0  0  0  0  0  0  0  0  0  0  0
   21.7994   17.0651   50.2529 C   0  0  0  0  0  0  0  0  0  0  0  0
   22.4794   17.5348   51.3406 C   0  0  0  0  0  0  0  0  0  0  0  0
   23.4123   18.5554   51.1565 C   0  0  0  0  0  0  0  0  0  0  0  0
   23.6395   19.0725   49.9338 N   0  0  0  0  0  0  0  0  0  0  0  0
   22.9857   18.6300   48.8606 C   0  0  0  0  0  0  0  0  0  0  0  0
   23.2248   19.1662   47.6166 C   0  0  0  0  0  0  0  0  0  0  0  0
   22.5402   18.6942   46.5348 C   0  0  0  0  0  0  0  0  0  0  0  0
   21.1943   16.0348   44.8639 C   0  0  0  0  0  0  0  0  0  0  0  0
   20.9268   17.2388   45.5090 O   0  0  0  0  0  0  0  0  0  0  0  0
   22.8086   19.2463   45.3164 O   0  0  0  0  0  0  0  0  0  0  0  0
   21.8364   19.8742   44.5050 C   0  0  0  0  0  0  0  0  0  0  0  0
   21.6222   19.1373   43.2094 C   0  0  0  0  0  0  0  0  0  0  0  0
   20.2034   19.3292   42.7696 C   0  0  0  0  0  0  0  0  0  0  0  0
   19.8308   18.4929   41.6431 N   0  0  0  0  0  0  0  0  0  0  0  0
   18.4855   17.9790   41.9901 C   0  0  0  0  0  0  0  0  0  0  0  0
   18.0346   16.8856   41.0821 C   0  0  0  0  0  0  0  0  0  0  0  0
   19.0642   16.0029   40.7076 O   0  0  0  0  0  0  0  0  0  0  0  0
   20.0199   16.0339   41.7027 C   0  0  0  0  0  0  0  0  0  0  0  0
   20.7699   17.3653   41.6230 C   0  0  0  0  0  0  0  0  0  0  0  0
 37 38  1  0  0  0
 38 27  1  0  0  0
 27 28  2  0  0  0
 28 29  1  0  0  0
 29 30  2  0  0  0
 30 26  1  0  0  0
 26  1  1  0  0  0
  1  2  2  0  0  0
  2  3  1  0  0  0
  3  4  2  0  0  0
  4  8  1  0  0  0
  8  9  1  0  0  0
  9 10  2  0  0  0
  9 12  1  0  0  0
 12 13  1  0  0  0
 13 14  1  0  0  0
 12 15  1  0  0  0
 15 16  2  0  0  0
 15 17  1  0  0  0
 17 19  1  0  0  0
 19 20  2  0  0  0
 20 21  1  0  0  0
 21 22  2  0  0  0
 22 23  1  0  0  0
 22 24  1  0  0  0
 24 25  2  0  0  0
  4  5  1  0  0  0
  5  6  2  0  0  0
  6  7  1  0  0  0
 30 31  1  0  0  0
 31 32  2  0  0  0
 32 33  1  0  0  0
 33 34  2  0  0  0
 34 35  1  0  0  0
 35 36  2  0  0  0
 36 39  1  0  0  0
 39 40  1  0  0  0
 40 41  1  0  0  0
 41 42  1  0  0  0
 42 43  1  0  0  0
 43 44  1  0  0  0
 44 45  1  0  0  0
 45 46  1  0  0  0
 46 47  1  0  0  0
 47 48  1  0  0  0
 36 27  1  0  0  0
 48 43  1  0  0  0
 34 29  1  0  0  0
  6  1  1  0  0  0
 14 12  1  0  0  0
 25 19  1  0  0  0
  8 11  1  0  0  0
 17 18  1  0  0  0
M  END
> <minimizedAffinity>
9.94096

> <CNNscore>
0.6441656351

> <CNNaffinity>
6.7957291603

> <CNN_VS>
4.3775753975

> <CNNaffinity_variance>
0.0174935907

$$$$
[H]c1nc2c([H])c(OC([H])([H])C([H])([H])C([H])([H])N3C([H])([H])C([H])([H])OC([H])([H])C3([H])[H])c(OC([H])([H])[H])c([H])c2c(Oc2c([H])c([H])c(N([H])C(=O)C3(C(=O)N([H])c4c([H])c([H])c(F)c([H])c4[H])C([H])([H])C3([H])[H])c([H])c2F)c1[H]


 48 53  0  0  0  0  0  0  0  0999 V2000
   21.2096   10.4638   52.8947 C   0  0  0  0  0  0  0  0  0  0  0  0
   21.5178   11.6191   53.5962 C   0  0  0  0  0  0  0  0  0  0  0  0
   21.7898   12.8215   52.9394 C   0  0  0  0  0  0  0  0  0  0  0  0
   21.7661   12.9293   51.5699 C   0  0  0  0  0  0  0  0  0  0  0  0
   21.4579   11.7744   50.8761 C   0  0  0  0  0  0  0  0  0  0  0  0
   21.1852   10.5639   51.5226 C   0  0  0  0  0  0  0  0  0  0  0  0
   20.9086    9.4458   50.7900 F   0  0  0  0  0  0  0  0  0  0  0  0
   22.0560   14.1449   50.8830 N   0  0  0  0  0  0  0  0  0  0  0  0
   21.2062   15.2702   50.8203 C   0  0  0  0  0  0  0  0  0  0  0  0
   20.0732   15.3078   51.3368 O   0  0  0  0  0  0  0  0  0  0  0  0
   22.9797   14.2160   50.3857 H   0  0  0  0  0  0  0  0  0  0  0  0
   21.7275   16.4998   50.1057 C   0  0  0  0  0  0  0  0  0  0  0  0
   23.0367   17.0482   50.6509 C   0  0  0  0  0  0  0  0  0  0  0  0
   21.7173   17.6990   51.0241 C   0  0  0  0  0  0  0  0  0  0  0  0
   21.3564   16.6806   48.6956 C   0  0  0  0  0  0  0  0  0  0  0  0
   20.5437   15.8017   48.1895 O   0  0  0  0  0  0  0  0  0  0  0  0
   21.7987   17.6952   47.8357 N   0  0  0  0  0  0  0  0  0  0  0  0
   22.5165   18.3970   48.1942 H   0  0  0  0  0  0  0  0  0  0  0  0
   21.3760   17.8370   46.4720 C   0  0  0  0  0  0  0  0  0  0  0  0
   21.8003   16.9535   45.5361 C   0  0  0  0  0  0  0  0  0  0  0  0
   21.4383   17.1129   44.2147 C   0  0  0  0  0  0  0  0  0  0  0  0
   20.6332   18.1927   43.8589 C   0  0  0  0  0  0  0  0  0  0  0  0
   20.2347   18.4053   42.5734 F   0  0  0  0  0  0  0  0  0  0  0  0
   20.1902   19.1073   44.8107 C   0  0  0  0  0  0  0  0  0  0  0  0
   20.5784   18.9014   46.1046 C   0  0  0  0  0  0  0  0  0  0  0  0
   20.9506    9.2875   53.6042 O   0  0  0  0  0  0  0  0  0  0  0  0
   24.6643    9.3842   55.3270 C   0  0  0  0  0  0  0  0  0  0  0  0
   23.4187    9.3305   54.7397 C   0  0  0  0  0  0  0  0  0  0  0  0
   22.9780    8.1523   54.1203 C   0  0  0  0  0  0  0  0  0  0  0  0
   21.7048    8.1309   53.5355 C   0  0  0  0  0  0  0  0  0  0  0  0
   21.2702    6.9843   52.9334 C   0  0  0  0  0  0  0  0  0  0  0  0
   22.1144    5.8739   52.9214 C   0  0  0  0  0  0  0  0  0  0  0  0
   23.3330    5.9252   53.4928 N   0  0  0  0  0  0  0  0  0  0  0  0
   23.7750    7.0329   54.0866 C   0  0  0  0  0  0  0  0  0  0  0  0
   25.0209    7.0738   54.6682 C   0  0  0  0  0  0  0  0  0  0  0  0
   25.4479    8.2216   55.2700 C   0  0  0  0  0  0  0  0  0  0  0  0
   24.5653   11.7671   55.8338 C   0  0  0  0  0  0  0  0  0  0  0  0
   25.1444   10.5066   55.9483 O   0  0  0  0  0  0  0  0  0  0  0  0
   26.6917    8.2262   55.8306 O   0  0  0  0  0  0  0  0  0  0  0  0
   27.2367    9.3278   56.5287 C   0  0  0  0  0  0  0  0  0  0  0  0
   27.5394    8.9911   57.9649 C   0  0  0  0  0  0  0  0  0  0  0  0
   28.7252    9.7894   58.4119 C   0  0  0  0  0  0  0  0  0  0  0  0
   28.6929   10.1290   59.8229 N   0  0  0  0  0  0  0  0  0  0  0  0
   29.0821   11.5574   59.8708 C   0  0  0  0  0  0  0  0  0  0  0  0
   29.3685   12.0305   61.2555 C   0  0  0  0  0  0  0  0  0  0  0  0
   30.0345   11.0793   62.0500 O   0  0  0  0  0  0  0  0  0  0  0  0
   30.7356   10.2473   61.2011 C   0  0  0  0  0  0  0  0  0  0  0  0
   29.7434    9.3374   60.4739 C   0  0  0  0  0  0  0  0  0  0  0  0
 37 38  1  0  0  0
 38 27  1  0  0  0
 27 28  2  0  0  0
 28 29  1  0  0  0
 29 30  2  0  0  0
 30 26  1  0  0  0
 26  1  1  0  0  0
  1  2  2  0  0  0
  2  3  1  0  0  0
  3  4  2  0  0  0
  4  8  1  0  0  0
  8  9  1  0  0  0
  9 10  2  0  0  0
  9 12  1  0  0  0
 12 13  1  0  0  0
 13 14  1  0  0  0
 12 15  1  0  0  0
 15 16  2  0  0  0
 15 17  1  0  0  0
 17 19  1  0  0  0
 19 20  2  0  0  0
 20 21  1  0  0  0
 21 22  2  0  0  0
 22 23  1  0  0  0
 22 24  1  0  0  0
 24 25  2  0  0  0
  4  5  1  0  0  0
  5  6  2  0  0  0
  6  7  1  0  0  0
 30 31  1  0  0  0
 31 32  2  0  0  0
 32 33  1  0  0  0
 33 34  2  0  0  0
 34 35  1  0  0  0
 35 36  2  0  0  0
 36 39  1  0  0  0
 39 40  1  0  0  0
 40 41  1  0  0  0
 41 42  1  0  0  0
 42 43  1  0  0  0
 43 44  1  0  0  0
 44 45  1  0  0  0
 45 46  1  0  0  0
 46 47  1  0  0  0
 47 48  1  0  0  0
 36 27  1  0  0  0
 48 43  1  0  0  0
 34 29  1  0  0  0
  6  1  1  0  0  0
 14 12  1  0  0  0
 25 19  1  0  0  0
  8 11  1  0  0  0
 17 18  1  0  0  0
M  END
> <minimizedAffinity>
17.79015

> <CNNscore>
0.6346337199

> <CNNaffinity>
6.6607294083

> <CNN_VS>
4.2271232605

> <CNNaffinity_variance>
0.2371845990

$$$$
[H]c1nc2c([H])c(OC([H])([H])C([H])([H])C([H])([H])N3C([H])([H])C([H])([H])OC([H])([H])C3([H])[H])c(OC([H])([H])[H])c([H])c2c(Oc2c([H])c([H])c(N([H])C(=O)C3(C(=O)N([H])c4c([H])c([H])c(F)c([H])c4[H])C([H])([H])C3([H])[H])c([H])c2F)c1[H]


 48 53  0  0  0  0  0  0  0  0999 V2000
   25.8940    8.8522   54.6082 C   0  0  0  0  0  0  0  0  0  0  0  0
   27.2741    8.7224   54.5903 C   0  0  0  0  0  0  0  0  0  0  0  0
   28.0512    9.0316   55.7090 C   0  0  0  0  0  0  0  0  0  0  0  0
   27.4972    9.4774   56.8847 C   0  0  0  0  0  0  0  0  0  0  0  0
   26.1210    9.6044   56.8966 C   0  0  0  0  0  0  0  0  0  0  0  0
   25.3322    9.2993   55.7820 C   0  0  0  0  0  0  0  0  0  0  0  0
   23.9783    9.4638   55.8381 F   0  0  0  0  0  0  0  0  0  0  0  0
   28.2768    9.8119   58.0310 N   0  0  0  0  0  0  0  0  0  0  0  0
   28.3629   11.0944   58.6142 C   0  0  0  0  0  0  0  0  0  0  0  0
   27.7852   12.0993   58.1575 O   0  0  0  0  0  0  0  0  0  0  0  0
   28.8300    9.0424   58.4862 H   0  0  0  0  0  0  0  0  0  0  0  0
   29.1843   11.2323   59.8793 C   0  0  0  0  0  0  0  0  0  0  0  0
   30.3143   10.2246   60.0200 C   0  0  0  0  0  0  0  0  0  0  0  0
   29.0088   10.0232   60.7676 C   0  0  0  0  0  0  0  0  0  0  0  0
   29.2709   12.5625   60.4974 C   0  0  0  0  0  0  0  0  0  0  0  0
   29.1293   12.6156   61.7882 O   0  0  0  0  0  0  0  0  0  0  0  0
   29.4770   13.7818   59.8375 N   0  0  0  0  0  0  0  0  0  0  0  0
   29.5324   13.7878   58.7730 H   0  0  0  0  0  0  0  0  0  0  0  0
   29.5826   15.0494   60.5012 C   0  0  0  0  0  0  0  0  0  0  0  0
   30.7991   15.6167   60.6879 C   0  0  0  0  0  0  0  0  0  0  0  0
   30.9122   16.8106   61.3692 C   0  0  0  0  0  0  0  0  0  0  0  0
   29.7607   17.4214   61.8607 C   0  0  0  0  0  0  0  0  0  0  0  0
   29.8011   18.6035   62.5370 F   0  0  0  0  0  0  0  0  0  0  0  0
   28.5049   16.8492   61.6753 C   0  0  0  0  0  0  0  0  0  0  0  0
   28.4507   15.6664   60.9933 C   0  0  0  0  0  0  0  0  0  0  0  0
   25.1670    8.5326   53.4577 O   0  0  0  0  0  0  0  0  0  0  0  0
   22.8496    5.1706   53.7669 C   0  0  0  0  0  0  0  0  0  0  0  0
   23.6109    6.3142   53.6576 C   0  0  0  0  0  0  0  0  0  0  0  0
   22.9994    7.5508   53.4070 C   0  0  0  0  0  0  0  0  0  0  0  0
   23.8027    8.6943   53.3046 C   0  0  0  0  0  0  0  0  0  0  0  0
   23.2108    9.9017   53.0634 C   0  0  0  0  0  0  0  0  0  0  0  0
   21.8236    9.9508   52.9253 C   0  0  0  0  0  0  0  0  0  0  0  0
   21.0782    8.8339   53.0295 N   0  0  0  0  0  0  0  0  0  0  0  0
   21.6354    7.6471   53.2662 C   0  0  0  0  0  0  0  0  0  0  0  0
   20.8644    6.5129   53.3720 C   0  0  0  0  0  0  0  0  0  0  0  0
   21.4617    5.3105   53.6155 C   0  0  0  0  0  0  0  0  0  0  0  0
   24.3574    3.3373   53.2094 C   0  0  0  0  0  0  0  0  0  0  0  0
   23.3931    3.9378   54.0138 O   0  0  0  0  0  0  0  0  0  0  0  0
   20.6651    4.2068   53.7079 O   0  0  0  0  0  0  0  0  0  0  0  0
   19.9216    3.6796   52.6275 C   0  0  0  0  0  0  0  0  0  0  0  0
   18.6593    3.0011   53.0899 C   0  0  0  0  0  0  0  0  0  0  0  0
   18.0620    3.7964   54.2097 C   0  0  0  0  0  0  0  0  0  0  0  0
   16.6341    3.5878   54.3675 N   0  0  0  0  0  0  0  0  0  0  0  0
   16.2230    2.8790   53.1335 C   0  0  0  0  0  0  0  0  0  0  0  0
   14.7420    2.8062   52.9770 C   0  0  0  0  0  0  0  0  0  0  0  0
   14.0733    3.9733   53.3895 O   0  0  0  0  0  0  0  0  0  0  0  0
   14.9586    5.0247   53.2656 C   0  0  0  0  0  0  0  0  0  0  0  0
   16.0094    4.9158   54.3725 C   0  0  0  0  0  0  0  0  0  0  0  0
 37 38  1  0  0  0
 38 27  1  0  0  0
 27 28  2  0  0  0
 28 29  1  0  0  0
 29 30  2  0  0  0
 30 26  1  0  0  0
 26  1  1  0  0  0
  1  2  2  0  0  0
  2  3  1  0  0  0
  3  4  2  0  0  0
  4  8  1  0  0  0
  8  9  1  0  0  0
  9 10  2  0  0  0
  9 12  1  0  0  0
 12 13  1  0  0  0
 13 14  1  0  0  0
 12 15  1  0  0  0
 15 16  2  0  0  0
 15 17  1  0  0  0
 17 19  1  0  0  0
 19 20  2  0  0  0
 20 21  1  0  0  0
 21 22  2  0  0  0
 22 23  1  0  0  0
 22 24  1  0  0  0
 24 25  2  0  0  0
  4  5  1  0  0  0
  5  6  2  0  0  0
  6  7  1  0  0  0
 30 31  1  0  0  0
 31 32  2  0  0  0
 32 33  1  0  0  0
 33 34  2  0  0  0
 34 35  1  0  0  0
 35 36  2  0  0  0
 36 39  1  0  0  0
 39 40  1  0  0  0
 40 41  1  0  0  0
 41 42  1  0  0  0
 42 43  1  0  0  0
 43 44  1  0  0  0
 44 45  1  0  0  0
 45 46  1  0  0  0
 46 47  1  0  0  0
 47 48  1  0  0  0
 36 27  1  0  0  0
 48 43  1  0  0  0
 34 29  1  0  0  0
  6  1  1  0  0  0
 14 12  1  0  0  0
 25 19  1  0  0  0
  8 11  1  0  0  0
 17 18  1  0  0  0
M  END
> <minimizedAffinity>
22.14289

> <CNNscore>
0.6337972879

> <CNNaffinity>
7.0936584473

> <CNN_VS>
4.4959416389

> <CNNaffinity_variance>
0.2348725498

$$$$
[H]c1nc2c([H])c(OC([H])([H])C([H])([H])C([H])([H])N3C([H])([H])C([H])([H])OC([H])([H])C3([H])[H])c(OC([H])([H])[H])c([H])c2c(Oc2c([H])c([H])c(N([H])C(=O)C3(C(=O)N([H])c4c([H])c([H])c(F)c([H])c4[H])C([H])([H])C3([H])[H])c([H])c2F)c1[H]


 48 53  0  0  0  0  0  0  0  0999 V2000
   26.4918    8.9300   55.0541 C   0  0  0  0  0  0  0  0  0  0  0  0
   25.9371    9.5191   56.1798 C   0  0  0  0  0  0  0  0  0  0  0  0
   26.7152    9.8401   57.2945 C   0  0  0  0  0  0  0  0  0  0  0  0
   28.0663    9.5945   57.3394 C   0  0  0  0  0  0  0  0  0  0  0  0
   28.6137    9.0077   56.2143 C   0  0  0  0  0  0  0  0  0  0  0  0
   27.8443    8.6801   55.0924 C   0  0  0  0  0  0  0  0  0  0  0  0
   28.4294    8.0804   54.0147 F   0  0  0  0  0  0  0  0  0  0  0  0
   28.8726    9.9020   58.4748 N   0  0  0  0  0  0  0  0  0  0  0  0
   29.1941    9.0042   59.5155 C   0  0  0  0  0  0  0  0  0  0  0  0
   28.7675    7.8351   59.5733 O   0  0  0  0  0  0  0  0  0  0  0  0
   29.2672   10.8741   58.5441 H   0  0  0  0  0  0  0  0  0  0  0  0
   30.1320    9.4970   60.5979 C   0  0  0  0  0  0  0  0  0  0  0  0
   31.2167    8.5104   61.0007 C   0  0  0  0  0  0  0  0  0  0  0  0
   29.9752    8.6781   61.8575 C   0  0  0  0  0  0  0  0  0  0  0  0
   30.3423   10.9465   60.7133 C   0  0  0  0  0  0  0  0  0  0  0  0
   31.5661   11.3688   60.5995 O   0  0  0  0  0  0  0  0  0  0  0  0
   29.3613   11.9200   60.9471 N   0  0  0  0  0  0  0  0  0  0  0  0
   28.3554   11.6078   61.1114 H   0  0  0  0  0  0  0  0  0  0  0  0
   29.6250   13.3284   61.0202 C   0  0  0  0  0  0  0  0  0  0  0  0
   28.5964   14.2108   61.0208 C   0  0  0  0  0  0  0  0  0  0  0  0
   28.8443   15.5675   61.0401 C   0  0  0  0  0  0  0  0  0  0  0  0
   30.1636   16.0144   61.0587 C   0  0  0  0  0  0  0  0  0  0  0  0
   30.4781   17.3400   61.0841 F   0  0  0  0  0  0  0  0  0  0  0  0
   31.2293   15.1184   61.0587 C   0  0  0  0  0  0  0  0  0  0  0  0
   30.9266   13.7860   61.0392 C   0  0  0  0  0  0  0  0  0  0  0  0
   25.6642    8.6264   53.9692 O   0  0  0  0  0  0  0  0  0  0  0  0
   22.0834    9.0288   52.0236 C   0  0  0  0  0  0  0  0  0  0  0  0
   23.2834    8.8716   52.6831 C   0  0  0  0  0  0  0  0  0  0  0  0
   23.6527    7.6186   53.1923 C   0  0  0  0  0  0  0  0  0  0  0  0
   24.8809    7.4930   53.8550 C   0  0  0  0  0  0  0  0  0  0  0  0
   25.2462    6.2733   54.3502 C   0  0  0  0  0  0  0  0  0  0  0  0
   24.3782    5.1948   54.1790 C   0  0  0  0  0  0  0  0  0  0  0  0
   23.2042    5.3470   53.5368 N   0  0  0  0  0  0  0  0  0  0  0  0
   22.8301    6.5273   53.0448 C   0  0  0  0  0  0  0  0  0  0  0  0
   21.6292    6.6711   52.3894 C   0  0  0  0  0  0  0  0  0  0  0  0
   21.2716    7.8916   51.8951 C   0  0  0  0  0  0  0  0  0  0  0  0
   21.8568   11.4539   52.1367 C   0  0  0  0  0  0  0  0  0  0  0  0
   21.6737   10.2279   51.5035 O   0  0  0  0  0  0  0  0  0  0  0  0
   20.0706    7.9970   51.2566 O   0  0  0  0  0  0  0  0  0  0  0  0
   18.8544    7.5023   51.7801 C   0  0  0  0  0  0  0  0  0  0  0  0
   18.7613    7.6979   53.2703 C   0  0  0  0  0  0  0  0  0  0  0  0
   20.1272    7.5494   53.8665 C   0  0  0  0  0  0  0  0  0  0  0  0
   20.3571    8.4199   55.0052 N   0  0  0  0  0  0  0  0  0  0  0  0
   20.8734    9.6765   54.4147 C   0  0  0  0  0  0  0  0  0  0  0  0
   21.4238   10.6106   55.4383 C   0  0  0  0  0  0  0  0  0  0  0  0
   22.1247    9.9641   56.4729 O   0  0  0  0  0  0  0  0  0  0  0  0
   22.6007    8.7708   55.9691 C   0  0  0  0  0  0  0  0  0  0  0  0
   21.4262    7.8047   55.8004 C   0  0  0  0  0  0  0  0  0  0  0  0
 37 38  1  0  0  0
 38 27  1  0  0  0
 27 28  2  0  0  0
 28 29  1  0  0  0
 29 30  2  0  0  0
 30 26  1  0  0  0
 26  1  1  0  0  0
  1  2  2  0  0  0
  2  3  1  0  0  0
  3  4  2  0  0  0
  4  8  1  0  0  0
  8  9  1  0  0  0
  9 10  2  0  0  0
  9 12  1  0  0  0
 12 13  1  0  0  0
 13 14  1  0  0  0
 12 15  1  0  0  0
 15 16  2  0  0  0
 15 17  1  0  0  0
 17 19  1  0  0  0
 19 20  2  0  0  0
 20 21  1  0  0  0
 21 22  2  0  0  0
 22 23  1  0  0  0
 22 24  1  0  0  0
 24 25  2  0  0  0
  4  5  1  0  0  0
  5  6  2  0  0  0
  6  7  1  0  0  0
 30 31  1  0  0  0
 31 32  2  0  0  0
 32 33  1  0  0  0
 33 34  2  0  0  0
 34 35  1  0  0  0
 35 36  2  0  0  0
 36 39  1  0  0  0
 39 40  1  0  0  0
 40 41  1  0  0  0
 41 42  1  0  0  0
 42 43  1  0  0  0
 43 44  1  0  0  0
 44 45  1  0  0  0
 45 46  1  0  0  0
 46 47  1  0  0  0
 47 48  1  0  0  0
 36 27  1  0  0  0
 48 43  1  0  0  0
 34 29  1  0  0  0
  6  1  1  0  0  0
 14 12  1  0  0  0
 25 19  1  0  0  0
  8 11  1  0  0  0
 17 18  1  0  0  0
M  END
> <minimizedAffinity>
13.04079

> <CNNscore>
0.5796396136

> <CNNaffinity>
7.0384559631

> <CNN_VS>
4.0797677040

> <CNNaffinity_variance>
1.1763703823

$$$$
[H]c1nc2c([H])c(OC([H])([H])C([H])([H])C([H])([H])N3C([H])([H])C([H])([H])OC([H])([H])C3([H])[H])c(OC([H])([H])[H])c([H])c2c(Oc2c([H])c([H])c(N([H])C(=O)C3(C(=O)N([H])c4c([H])c([H])c(F)c([H])c4[H])C([H])([H])C3([H])[H])c([H])c2F)c1[H]


 48 53  0  0  0  0  0  0  0  0999 V2000
   21.5051    9.2545   53.6175 C   0  0  0  0  0  0  0  0  0  0  0  0
   21.3696   10.2537   54.5689 C   0  0  0  0  0  0  0  0  0  0  0  0
   21.1621   11.5860   54.2041 C   0  0  0  0  0  0  0  0  0  0  0  0
   21.0787   11.9809   52.8908 C   0  0  0  0  0  0  0  0  0  0  0  0
   21.2140   10.9805   51.9470 C   0  0  0  0  0  0  0  0  0  0  0  0
   21.4238    9.6429   52.3000 C   0  0  0  0  0  0  0  0  0  0  0  0
   21.5740    8.6959   51.3284 F   0  0  0  0  0  0  0  0  0  0  0  0
   20.8823   13.3385   52.5007 N   0  0  0  0  0  0  0  0  0  0  0  0
   21.5580   13.9916   51.4475 C   0  0  0  0  0  0  0  0  0  0  0  0
   22.4435   13.4516   50.7573 O   0  0  0  0  0  0  0  0  0  0  0  0
   20.1729   13.9017   53.0345 H   0  0  0  0  0  0  0  0  0  0  0  0
   21.1525   15.4172   51.1356 C   0  0  0  0  0  0  0  0  0  0  0  0
   19.9308   15.9137   51.8926 C   0  0  0  0  0  0  0  0  0  0  0  0
   19.8064   15.4548   50.4512 C   0  0  0  0  0  0  0  0  0  0  0  0
   22.2016   16.3459   50.6932 C   0  0  0  0  0  0  0  0  0  0  0  0
   22.7139   17.1218   51.6013 O   0  0  0  0  0  0  0  0  0  0  0  0
   22.6978   16.4912   49.3904 N   0  0  0  0  0  0  0  0  0  0  0  0
   22.2580   15.9195   48.6056 H   0  0  0  0  0  0  0  0  0  0  0  0
   23.7479   17.3978   49.0245 C   0  0  0  0  0  0  0  0  0  0  0  0
   23.4447   18.6428   48.5838 C   0  0  0  0  0  0  0  0  0  0  0  0
   24.4468   19.5017   48.1830 C   0  0  0  0  0  0  0  0  0  0  0  0
   25.7703   19.0703   48.2379 C   0  0  0  0  0  0  0  0  0  0  0  0
   26.8079   19.8697   47.8626 F   0  0  0  0  0  0  0  0  0  0  0  0
   26.0953   17.7938   48.6890 C   0  0  0  0  0  0  0  0  0  0  0  0
   25.0636   16.9846   49.0738 C   0  0  0  0  0  0  0  0  0  0  0  0
   21.7157    7.9387   54.0401 O   0  0  0  0  0  0  0  0  0  0  0  0
   25.2380    9.3774   55.5543 C   0  0  0  0  0  0  0  0  0  0  0  0
   24.0640    8.8762   55.0346 C   0  0  0  0  0  0  0  0  0  0  0  0
   24.0663    7.6772   54.3079 C   0  0  0  0  0  0  0  0  0  0  0  0
   22.8547    7.1942   53.7958 C   0  0  0  0  0  0  0  0  0  0  0  0
   22.8517    6.0248   53.0896 C   0  0  0  0  0  0  0  0  0  0  0  0
   24.0601    5.3538   52.9020 C   0  0  0  0  0  0  0  0  0  0  0  0
   25.2088    5.8432   53.4072 N   0  0  0  0  0  0  0  0  0  0  0  0
   25.2331    6.9808   54.1003 C   0  0  0  0  0  0  0  0  0  0  0  0
   26.4118    7.4709   54.6129 C   0  0  0  0  0  0  0  0  0  0  0  0
   26.4073    8.6382   55.3194 C   0  0  0  0  0  0  0  0  0  0  0  0
   24.4552   11.6310   56.0580 C   0  0  0  0  0  0  0  0  0  0  0  0
   25.2939   10.5413   56.2742 O   0  0  0  0  0  0  0  0  0  0  0  0
   27.5963    9.0961   55.8070 O   0  0  0  0  0  0  0  0  0  0  0  0
   27.9657    9.0320   57.1699 C   0  0  0  0  0  0  0  0  0  0  0  0
   28.3833   10.3764   57.7044 C   0  0  0  0  0  0  0  0  0  0  0  0
   28.4177   10.3155   59.2005 C   0  0  0  0  0  0  0  0  0  0  0  0
   29.6607   10.8043   59.7692 N   0  0  0  0  0  0  0  0  0  0  0  0
   30.1016    9.7251   60.6831 C   0  0  0  0  0  0  0  0  0  0  0  0
   31.2252   10.1438   61.5693 C   0  0  0  0  0  0  0  0  0  0  0  0
   31.1194   11.4704   62.0256 O   0  0  0  0  0  0  0  0  0  0  0  0
   29.7806   11.8054   62.0207 C   0  0  0  0  0  0  0  0  0  0  0  0
   29.3241   11.9862   60.5715 C   0  0  0  0  0  0  0  0  0  0  0  0
 37 38  1  0  0  0
 38 27  1  0  0  0
 27 28  2  0  0  0
 28 29  1  0  0  0
 29 30  2  0  0  0
 30 26  1  0  0  0
 26  1  1  0  0  0
  1  2  2  0  0  0
  2  3  1  0  0  0
  3  4  2  0  0  0
  4  8  1  0  0  0
  8  9  1  0  0  0
  9 10  2  0  0  0
  9 12  1  0  0  0
 12 13  1  0  0  0
 13 14  1  0  0  0
 12 15  1  0  0  0
 15 16  2  0  0  0
 15 17  1  0  0  0
 17 19  1  0  0  0
 19 20  2  0  0  0
 20 21  1  0  0  0
 21 22  2  0  0  0
 22 23  1  0  0  0
 22 24  1  0  0  0
 24 25  2  0  0  0
  4  5  1  0  0  0
  5  6  2  0  0  0
  6  7  1  0  0  0
 30 31  1  0  0  0
 31 32  2  0  0  0
 32 33  1  0  0  0
 33 34  2  0  0  0
 34 35  1  0  0  0
 35 36  2  0  0  0
 36 39  1  0  0  0
 39 40  1  0  0  0
 40 41  1  0  0  0
 41 42  1  0  0  0
 42 43  1  0  0  0
 43 44  1  0  0  0
 44 45  1  0  0  0
 45 46  1  0  0  0
 46 47  1  0  0  0
 47 48  1  0  0  0
 36 27  1  0  0  0
 48 43  1  0  0  0
 34 29  1  0  0  0
  6  1  1  0  0  0
 14 12  1  0  0  0
 25 19  1  0  0  0
  8 11  1  0  0  0
 17 18  1  0  0  0
M  END
> <minimizedAffinity>
16.85283

> <CNNscore>
0.5471708775

> <CNNaffinity>
6.9018340111

> <CNN_VS>
3.7764825821

> <CNNaffinity_variance>
0.3507979512

$$$$
[H]c1nc2c([H])c(OC([H])([H])C([H])([H])C([H])([H])N3C([H])([H])C([H])([H])OC([H])([H])C3([H])[H])c(OC([H])([H])[H])c([H])c2c(Oc2c([H])c([H])c(N([H])C(=O)C3(C(=O)N([H])c4c([H])c([H])c(F)c([H])c4[H])C([H])([H])C3([H])[H])c([H])c2F)c1[H]


 48 53  0  0  0  0  0  0  0  0999 V2000
   21.3004   10.5941   51.9192 C   0  0  0  0  0  0  0  0  0  0  0  0
   22.0196   11.3824   52.8042 C   0  0  0  0  0  0  0  0  0  0  0  0
   22.3912   12.6897   52.4816 C   0  0  0  0  0  0  0  0  0  0  0  0
   22.0665   13.2672   51.2780 C   0  0  0  0  0  0  0  0  0  0  0  0
   21.3493   12.4768   50.4000 C   0  0  0  0  0  0  0  0  0  0  0  0
   20.9727   11.1656   50.7111 C   0  0  0  0  0  0  0  0  0  0  0  0
   20.2842   10.4185   49.7994 F   0  0  0  0  0  0  0  0  0  0  0  0
   22.4509   14.5948   50.9266 N   0  0  0  0  0  0  0  0  0  0  0  0
   21.5643   15.6718   50.7110 C   0  0  0  0  0  0  0  0  0  0  0  0
   20.3243   15.5656   50.7685 O   0  0  0  0  0  0  0  0  0  0  0  0
   23.4781   14.7943   50.8242 H   0  0  0  0  0  0  0  0  0  0  0  0
   22.1716   17.0290   50.4223 C   0  0  0  0  0  0  0  0  0  0  0  0
   23.3029   17.4336   51.3543 C   0  0  0  0  0  0  0  0  0  0  0  0
   21.9049   17.9888   51.5579 C   0  0  0  0  0  0  0  0  0  0  0  0
   22.1100   17.5265   49.0412 C   0  0  0  0  0  0  0  0  0  0  0  0
   22.9318   18.4838   48.7294 O   0  0  0  0  0  0  0  0  0  0  0  0
   21.2472   17.0849   48.0287 N   0  0  0  0  0  0  0  0  0  0  0  0
   20.5143   16.3471   48.2627 H   0  0  0  0  0  0  0  0  0  0  0  0
   21.2549   17.5906   46.6860 C   0  0  0  0  0  0  0  0  0  0  0  0
   20.7239   18.8083   46.4181 C   0  0  0  0  0  0  0  0  0  0  0  0
   20.6827   19.2789   45.1222 C   0  0  0  0  0  0  0  0  0  0  0  0
   21.1934   18.4855   44.0973 C   0  0  0  0  0  0  0  0  0  0  0  0
   21.1890   18.8923   42.7969 F   0  0  0  0  0  0  0  0  0  0  0  0
   21.7419   17.2328   44.3592 C   0  0  0  0  0  0  0  0  0  0  0  0
   21.7573   16.8161   45.6605 C   0  0  0  0  0  0  0  0  0  0  0  0
   20.9595    9.2911   52.2934 O   0  0  0  0  0  0  0  0  0  0  0  0
   24.8790    8.5574   53.2250 C   0  0  0  0  0  0  0  0  0  0  0  0
   23.5535    8.7944   52.9310 C   0  0  0  0  0  0  0  0  0  0  0  0
   22.5531    8.4646   53.8563 C   0  0  0  0  0  0  0  0  0  0  0  0
   21.2156    8.7216   53.5268 C   0  0  0  0  0  0  0  0  0  0  0  0
   20.2377    8.4046   54.4264 C   0  0  0  0  0  0  0  0  0  0  0  0
   20.6085    7.8325   55.6434 C   0  0  0  0  0  0  0  0  0  0  0  0
   21.9032    7.5980   55.9315 N   0  0  0  0  0  0  0  0  0  0  0  0
   22.8721    7.9015   55.0689 C   0  0  0  0  0  0  0  0  0  0  0  0
   24.1913    7.6588   55.3741 C   0  0  0  0  0  0  0  0  0  0  0  0
   25.1633    7.9802   54.4719 C   0  0  0  0  0  0  0  0  0  0  0  0
   27.1555    8.2688   52.4008 C   0  0  0  0  0  0  0  0  0  0  0  0
   25.8971    8.8622   52.3608 O   0  0  0  0  0  0  0  0  0  0  0  0
   26.4597    7.7192   54.8072 O   0  0  0  0  0  0  0  0  0  0  0  0
   27.4029    8.7174   55.1417 C   0  0  0  0  0  0  0  0  0  0  0  0
   27.0997    9.3565   56.4711 C   0  0  0  0  0  0  0  0  0  0  0  0
   28.3624    9.4328   57.2731 C   0  0  0  0  0  0  0  0  0  0  0  0
   28.1421    9.7893   58.6629 N   0  0  0  0  0  0  0  0  0  0  0  0
   28.8720   11.0661   58.8397 C   0  0  0  0  0  0  0  0  0  0  0  0
   28.9929   11.4674   60.2706 C   0  0  0  0  0  0  0  0  0  0  0  0
   29.2185   10.3864   61.1423 O   0  0  0  0  0  0  0  0  0  0  0  0
   29.8322    9.3874   60.4144 C   0  0  0  0  0  0  0  0  0  0  0  0
   28.8010    8.7593   59.4746 C   0  0  0  0  0  0  0  0  0  0  0  0
 37 38  1  0  0  0
 38 27  1  0  0  0
 27 28  2  0  0  0
 28 29  1  0  0  0
 29 30  2  0  0  0
 30 26  1  0  0  0
 26  1  1  0  0  0
  1  2  2  0  0  0
  2  3  1  0  0  0
  3  4  2  0  0  0
  4  8  1  0  0  0
  8  9  1  0  0  0
  9 10  2  0  0  0
  9 12  1  0  0  0
 12 13  1  0  0  0
 13 14  1  0  0  0
 12 15  1  0  0  0
 15 16  2  0  0  0
 15 17  1  0  0  0
 17 19  1  0  0  0
 19 20  2  0  0  0
 20 21  1  0  0  0
 21 22  2  0  0  0
 22 23  1  0  0  0
 22 24  1  0  0  0
 24 25  2  0  0  0
  4  5  1  0  0  0
  5  6  2  0  0  0
  6  7  1  0  0  0
 30 31  1  0  0  0
 31 32  2  0  0  0
 32 33  1  0  0  0
 33 34  2  0  0  0
 34 35  1  0  0  0
 35 36  2  0  0  0
 36 39  1  0  0  0
 39 40  1  0  0  0
 40 41  1  0  0  0
 41 42  1  0  0  0
 42 43  1  0  0  0
 43 44  1  0  0  0
 44 45  1  0  0  0
 45 46  1  0  0  0
 46 47  1  0  0  0
 47 48  1  0  0  0
 36 27  1  0  0  0
 48 43  1  0  0  0
 34 29  1  0  0  0
  6  1  1  0  0  0
 14 12  1  0  0  0
 25 19  1  0  0  0
  8 11  1  0  0  0
 17 18  1  0  0  0
M  END
> <minimizedAffinity>
19.77784

> <CNNscore>
0.5464499593

> <CNNaffinity>
6.7133164406

> <CNN_VS>
3.6684916019

> <CNNaffinity_variance>
0.2535547614

$$$$
[H]c1nc2c([H])c(OC([H])([H])C([H])([H])C([H])([H])N3C([H])([H])C([H])([H])OC([H])([H])C3([H])[H])c(OC([H])([H])[H])c([H])c2c(Oc2c([H])c([H])c(N([H])C(=O)C3(C(=O)N([H])c4c([H])c([H])c(F)c([H])c4[H])C([H])([H])C3([H])[H])c([H])c2F)c1[H]


 48 53  0  0  0  0  0  0  0  0999 V2000
   27.5395    9.3087   56.5606 C   0  0  0  0  0  0  0  0  0  0  0  0
   26.2235    9.5940   56.8902 C   0  0  0  0  0  0  0  0  0  0  0  0
   25.1667    9.2412   56.0476 C   0  0  0  0  0  0  0  0  0  0  0  0
   25.3681    8.5939   54.8525 C   0  0  0  0  0  0  0  0  0  0  0  0
   26.6819    8.3119   54.5295 C   0  0  0  0  0  0  0  0  0  0  0  0
   27.7488    8.6616   55.3644 C   0  0  0  0  0  0  0  0  0  0  0  0
   29.0306    8.3806   54.9883 F   0  0  0  0  0  0  0  0  0  0  0  0
   24.3023    8.2401   53.9735 N   0  0  0  0  0  0  0  0  0  0  0  0
   22.9278    8.4080   54.2475 C   0  0  0  0  0  0  0  0  0  0  0  0
   22.4895    8.8569   55.3239 O   0  0  0  0  0  0  0  0  0  0  0  0
   24.5560    7.8252   53.0414 H   0  0  0  0  0  0  0  0  0  0  0  0
   21.9478    8.0432   53.1518 C   0  0  0  0  0  0  0  0  0  0  0  0
   22.4244    8.3499   51.7408 C   0  0  0  0  0  0  0  0  0  0  0  0
   21.4517    9.2807   52.4416 C   0  0  0  0  0  0  0  0  0  0  0  0
   21.0049    6.9473   53.4140 C   0  0  0  0  0  0  0  0  0  0  0  0
   21.5150    5.8263   53.8289 O   0  0  0  0  0  0  0  0  0  0  0  0
   19.6133    6.9814   53.2502 N   0  0  0  0  0  0  0  0  0  0  0  0
   19.1638    7.8611   52.8497 H   0  0  0  0  0  0  0  0  0  0  0  0
   18.7391    5.8847   53.5525 C   0  0  0  0  0  0  0  0  0  0  0  0
   19.2180    4.6169   53.5515 C   0  0  0  0  0  0  0  0  0  0  0  0
   18.3723    3.5541   53.7919 C   0  0  0  0  0  0  0  0  0  0  0  0
   17.0234    3.8038   54.0346 C   0  0  0  0  0  0  0  0  0  0  0  0
   16.1356    2.8009   54.2847 F   0  0  0  0  0  0  0  0  0  0  0  0
   16.5189    5.1015   54.0388 C   0  0  0  0  0  0  0  0  0  0  0  0
   17.4006    6.1165   53.7950 C   0  0  0  0  0  0  0  0  0  0  0  0
   28.5574    9.6893   57.4399 O   0  0  0  0  0  0  0  0  0  0  0  0
   30.7169    9.4740   60.9126 C   0  0  0  0  0  0  0  0  0  0  0  0
   29.9822    9.5669   59.7502 C   0  0  0  0  0  0  0  0  0  0  0  0
   29.2583   10.7324   59.4613 C   0  0  0  0  0  0  0  0  0  0  0  0
   28.5243   10.7948   58.2693 C   0  0  0  0  0  0  0  0  0  0  0  0
   27.8198   11.9295   57.9823 C   0  0  0  0  0  0  0  0  0  0  0  0
   27.8560   12.9869   58.8913 C   0  0  0  0  0  0  0  0  0  0  0  0
   28.5715   12.8971   60.0288 N   0  0  0  0  0  0  0  0  0  0  0  0
   29.2669   11.8003   60.3266 C   0  0  0  0  0  0  0  0  0  0  0  0
   29.9953   11.7198   61.4907 C   0  0  0  0  0  0  0  0  0  0  0  0
   30.6987   10.5844   61.7701 C   0  0  0  0  0  0  0  0  0  0  0  0
   31.1418    7.5240   62.3134 C   0  0  0  0  0  0  0  0  0  0  0  0
   31.4447    8.3618   61.2439 O   0  0  0  0  0  0  0  0  0  0  0  0
   31.4043   10.5391   62.9368 O   0  0  0  0  0  0  0  0  0  0  0  0
   32.2590   11.5735   63.3809 C   0  0  0  0  0  0  0  0  0  0  0  0
   32.7642   12.4161   62.2396 C   0  0  0  0  0  0  0  0  0  0  0  0
   32.4212   13.8498   62.5046 C   0  0  0  0  0  0  0  0  0  0  0  0
   32.4557   14.6804   61.3146 N   0  0  0  0  0  0  0  0  0  0  0  0
   33.0212   15.9692   61.7767 C   0  0  0  0  0  0  0  0  0  0  0  0
   32.8933   17.0521   60.7598 C   0  0  0  0  0  0  0  0  0  0  0  0
   31.6808   17.0161   60.0470 O   0  0  0  0  0  0  0  0  0  0  0  0
   30.7453   16.3965   60.8504 C   0  0  0  0  0  0  0  0  0  0  0  0
   31.0621   14.9008   60.9106 C   0  0  0  0  0  0  0  0  0  0  0  0
 37 38  1  0  0  0
 38 27  1  0  0  0
 27 28  2  0  0  0
 28 29  1  0  0  0
 29 30  2  0  0  0
 30 26  1  0  0  0
 26  1  1  0  0  0
  1  2  2  0  0  0
  2  3  1  0  0  0
  3  4  2  0  0  0
  4  8  1  0  0  0
  8  9  1  0  0  0
  9 10  2  0  0  0
  9 12  1  0  0  0
 12 13  1  0  0  0
 13 14  1  0  0  0
 12 15  1  0  0  0
 15 16  2  0  0  0
 15 17  1  0  0  0
 17 19  1  0  0  0
 19 20  2  0  0  0
 20 21  1  0  0  0
 21 22  2  0  0  0
 22 23  1  0  0  0
 22 24  1  0  0  0
 24 25  2  0  0  0
  4  5  1  0  0  0
  5  6  2  0  0  0
  6  7  1  0  0  0
 30 31  1  0  0  0
 31 32  2  0  0  0
 32 33  1  0  0  0
 33 34  2  0  0  0
 34 35  1  0  0  0
 35 36  2  0  0  0
 36 39  1  0  0  0
 39 40  1  0  0  0
 40 41  1  0  0  0
 41 42  1  0  0  0
 42 43  1  0  0  0
 43 44  1  0  0  0
 44 45  1  0  0  0
 45 46  1  0  0  0
 46 47  1  0  0  0
 47 48  1  0  0  0
 36 27  1  0  0  0
 48 43  1  0  0  0
 34 29  1  0  0  0
  6  1  1  0  0  0
 14 12  1  0  0  0
 25 19  1  0  0  0
  8 11  1  0  0  0
 17 18  1  0  0  0
M  END
> <minimizedAffinity>
11.32094

> <CNNscore>
0.5252159834

> <CNNaffinity>
6.9764771461

> <CNN_VS>
3.6641573906

> <CNNaffinity_variance>
0.1234403849

$$$$
[H]c1nc2c([H])c(OC([H])([H])C([H])([H])C([H])([H])N3C([H])([H])C([H])([H])OC([H])([H])C3([H])[H])c(OC([H])([H])[H])c([H])c2c(Oc2c([H])c([H])c(N([H])C(=O)C3(C(=O)N([H])c4c([H])c([H])c(F)c([H])c4[H])C([H])([H])C3([H])[H])c([H])c2F)c1[H]


 48 53  0  0  0  0  0  0  0  0999 V2000
   27.3860    9.4461   57.2840 C   0  0  0  0  0  0  0  0  0  0  0  0
   27.8442   10.7379   57.0760 C   0  0  0  0  0  0  0  0  0  0  0  0
   28.7654   11.3340   57.9404 C   0  0  0  0  0  0  0  0  0  0  0  0
   29.2690   10.6790   59.0383 C   0  0  0  0  0  0  0  0  0  0  0  0
   28.8089    9.3916   59.2402 C   0  0  0  0  0  0  0  0  0  0  0  0
   27.8852    8.7845   58.3823 C   0  0  0  0  0  0  0  0  0  0  0  0
   27.4449    7.5182   58.6390 F   0  0  0  0  0  0  0  0  0  0  0  0
   30.1982   11.2779   59.9392 N   0  0  0  0  0  0  0  0  0  0  0  0
   29.9413   11.5849   61.2928 C   0  0  0  0  0  0  0  0  0  0  0  0
   28.8406   11.3966   61.8453 O   0  0  0  0  0  0  0  0  0  0  0  0
   31.1564   11.5060   59.5715 H   0  0  0  0  0  0  0  0  0  0  0  0
   31.0855   12.1476   62.1103 C   0  0  0  0  0  0  0  0  0  0  0  0
   32.0315   11.1058   62.6864 C   0  0  0  0  0  0  0  0  0  0  0  0
   30.9624   11.7377   63.5590 C   0  0  0  0  0  0  0  0  0  0  0  0
   31.5516   13.5041   61.7921 C   0  0  0  0  0  0  0  0  0  0  0  0
   32.7900   13.7766   62.0771 O   0  0  0  0  0  0  0  0  0  0  0  0
   30.7953   14.5392   61.2254 N   0  0  0  0  0  0  0  0  0  0  0  0
   29.7588   14.3758   61.0378 H   0  0  0  0  0  0  0  0  0  0  0  0
   31.3163   15.8381   60.9091 C   0  0  0  0  0  0  0  0  0  0  0  0
   30.7401   16.5792   59.9319 C   0  0  0  0  0  0  0  0  0  0  0  0
   31.2666   17.8071   59.5886 C   0  0  0  0  0  0  0  0  0  0  0  0
   32.3957   18.2710   60.2597 C   0  0  0  0  0  0  0  0  0  0  0  0
   32.9626   19.4767   59.9742 F   0  0  0  0  0  0  0  0  0  0  0  0
   32.9970   17.5195   61.2659 C   0  0  0  0  0  0  0  0  0  0  0  0
   32.4342   16.3109   61.5655 C   0  0  0  0  0  0  0  0  0  0  0  0
   26.4605    8.9017   56.3888 O   0  0  0  0  0  0  0  0  0  0  0  0
   24.5287    7.2778   53.1639 C   0  0  0  0  0  0  0  0  0  0  0  0
   25.1633    7.8410   54.2500 C   0  0  0  0  0  0  0  0  0  0  0  0
   24.6113    8.9590   54.8912 C   0  0  0  0  0  0  0  0  0  0  0  0
   25.2808    9.5050   55.9945 C   0  0  0  0  0  0  0  0  0  0  0  0
   24.7452   10.5926   56.6242 C   0  0  0  0  0  0  0  0  0  0  0  0
   23.5483   11.1224   56.1420 C   0  0  0  0  0  0  0  0  0  0  0  0
   22.9279   10.5747   55.0793 N   0  0  0  0  0  0  0  0  0  0  0  0
   23.4324    9.5130   54.4523 C   0  0  0  0  0  0  0  0  0  0  0  0
   22.7898    8.9609   53.3685 C   0  0  0  0  0  0  0  0  0  0  0  0
   23.3289    7.8731   52.7457 C   0  0  0  0  0  0  0  0  0  0  0  0
   24.4797    4.9055   52.6023 C   0  0  0  0  0  0  0  0  0  0  0  0
   25.0205    6.1842   52.5016 O   0  0  0  0  0  0  0  0  0  0  0  0
   22.6663    7.3570   51.6706 O   0  0  0  0  0  0  0  0  0  0  0  0
   21.4099    7.8237   51.2217 C   0  0  0  0  0  0  0  0  0  0  0  0
   20.2720    7.2104   51.9940 C   0  0  0  0  0  0  0  0  0  0  0  0
   20.0672    7.9878   53.2577 C   0  0  0  0  0  0  0  0  0  0  0  0
   20.2901    7.2043   54.4593 N   0  0  0  0  0  0  0  0  0  0  0  0
   21.1266    8.0726   55.3198 C   0  0  0  0  0  0  0  0  0  0  0  0
   21.6899    7.3481   56.4950 C   0  0  0  0  0  0  0  0  0  0  0  0
   22.0859    6.0291   56.2076 O   0  0  0  0  0  0  0  0  0  0  0  0
   22.3878    5.9702   54.8623 C   0  0  0  0  0  0  0  0  0  0  0  0
   21.0851    6.0362   54.0625 C   0  0  0  0  0  0  0  0  0  0  0  0
 37 38  1  0  0  0
 38 27  1  0  0  0
 27 28  2  0  0  0
 28 29  1  0  0  0
 29 30  2  0  0  0
 30 26  1  0  0  0
 26  1  1  0  0  0
  1  2  2  0  0  0
  2  3  1  0  0  0
  3  4  2  0  0  0
  4  8  1  0  0  0
  8  9  1  0  0  0
  9 10  2  0  0  0
  9 12  1  0  0  0
 12 13  1  0  0  0
 13 14  1  0  0  0
 12 15  1  0  0  0
 15 16  2  0  0  0
 15 17  1  0  0  0
 17 19  1  0  0  0
 19 20  2  0  0  0
 20 21  1  0  0  0
 21 22  2  0  0  0
 22 23  1  0  0  0
 22 24  1  0  0  0
 24 25  2  0  0  0
  4  5  1  0  0  0
  5  6  2  0  0  0
  6  7  1  0  0  0
 30 31  1  0  0  0
 31 32  2  0  0  0
 32 33  1  0  0  0
 33 34  2  0  0  0
 34 35  1  0  0  0
 35 36  2  0  0  0
 36 39  1  0  0  0
 39 40  1  0  0  0
 40 41  1  0  0  0
 41 42  1  0  0  0
 42 43  1  0  0  0
 43 44  1  0  0  0
 44 45  1  0  0  0
 45 46  1  0  0  0
 46 47  1  0  0  0
 47 48  1  0  0  0
 36 27  1  0  0  0
 48 43  1  0  0  0
 34 29  1  0  0  0
  6  1  1  0  0  0
 14 12  1  0  0  0
 25 19  1  0  0  0
  8 11  1  0  0  0
 17 18  1  0  0  0
M  END
> <minimizedAffinity>
18.26643

> <CNNscore>
0.5244731903

> <CNNaffinity>
6.7382659912

> <CNN_VS>
3.5340399742

> <CNNaffinity_variance>
0.2577725053

$$$$
[H]c1nc2c([H])c(OC([H])([H])C([H])([H])C([H])([H])N3C([H])([H])C([H])([H])OC([H])([H])C3([H])[H])c(OC([H])([H])[H])c([H])c2c(Oc2c([H])c([H])c(N([H])C(=O)C3(C(=O)N([H])c4c([H])c([H])c(F)c([H])c4[H])C([H])([H])C3([H])[H])c([H])c2F)c1[H]


 48 53  0  0  0  0  0  0  0  0999 V2000
   27.4601    9.0014   56.2451 C   0  0  0  0  0  0  0  0  0  0  0  0
   26.2673    9.5171   56.7279 C   0  0  0  0  0  0  0  0  0  0  0  0
   25.0951    9.4789   55.9693 C   0  0  0  0  0  0  0  0  0  0  0  0
   25.0554    8.9302   54.7102 C   0  0  0  0  0  0  0  0  0  0  0  0
   26.2474    8.4174   54.2345 C   0  0  0  0  0  0  0  0  0  0  0  0
   27.4282    8.4513   54.9843 C   0  0  0  0  0  0  0  0  0  0  0  0
   28.5849    7.9516   54.4592 F   0  0  0  0  0  0  0  0  0  0  0  0
   23.8712    8.8966   53.9164 N   0  0  0  0  0  0  0  0  0  0  0  0
   22.8315    7.9501   54.0403 C   0  0  0  0  0  0  0  0  0  0  0  0
   22.8560    7.0011   54.8472 O   0  0  0  0  0  0  0  0  0  0  0  0
   23.7557    9.6391   53.1810 H   0  0  0  0  0  0  0  0  0  0  0  0
   21.6153    8.1290   53.1554 C   0  0  0  0  0  0  0  0  0  0  0  0
   20.4648    7.1799   53.4517 C   0  0  0  0  0  0  0  0  0  0  0  0
   21.4000    6.9122   52.2866 C   0  0  0  0  0  0  0  0  0  0  0  0
   21.3736    9.4616   52.5857 C   0  0  0  0  0  0  0  0  0  0  0  0
   20.8205    9.5012   51.4103 O   0  0  0  0  0  0  0  0  0  0  0  0
   21.6902   10.6944   53.1726 N   0  0  0  0  0  0  0  0  0  0  0  0
   22.2039   10.7028   54.1066 H   0  0  0  0  0  0  0  0  0  0  0  0
   21.4012   11.9678   52.5782 C   0  0  0  0  0  0  0  0  0  0  0  0
   20.6499   12.8738   53.2499 C   0  0  0  0  0  0  0  0  0  0  0  0
   20.3264   14.0799   52.6640 C   0  0  0  0  0  0  0  0  0  0  0  0
   20.7822   14.3505   51.3757 C   0  0  0  0  0  0  0  0  0  0  0  0
   20.5039   15.5239   50.7414 F   0  0  0  0  0  0  0  0  0  0  0  0
   21.5552   13.4285   50.6750 C   0  0  0  0  0  0  0  0  0  0  0  0
   21.8460   12.2502   51.3028 C   0  0  0  0  0  0  0  0  0  0  0  0
   28.6035    9.0709   57.0464 O   0  0  0  0  0  0  0  0  0  0  0  0
   29.2419    6.9708   60.5034 C   0  0  0  0  0  0  0  0  0  0  0  0
   29.0258    7.6969   59.3521 C   0  0  0  0  0  0  0  0  0  0  0  0
   28.9346    9.0950   59.4033 C   0  0  0  0  0  0  0  0  0  0  0  0
   28.7173    9.8028   58.2136 C   0  0  0  0  0  0  0  0  0  0  0  0
   28.6307   11.1654   58.2584 C   0  0  0  0  0  0  0  0  0  0  0  0
   28.7600   11.8036   59.4920 C   0  0  0  0  0  0  0  0  0  0  0  0
   28.9689   11.0955   60.6185 N   0  0  0  0  0  0  0  0  0  0  0  0
   29.0584    9.7664   60.5963 C   0  0  0  0  0  0  0  0  0  0  0  0
   29.2732    9.0533   61.7528 C   0  0  0  0  0  0  0  0  0  0  0  0
   29.3612    7.6926   61.7007 C   0  0  0  0  0  0  0  0  0  0  0  0
   28.2487    4.7440   60.5125 C   0  0  0  0  0  0  0  0  0  0  0  0
   29.3425    5.6047   60.5117 O   0  0  0  0  0  0  0  0  0  0  0  0
   29.5686    7.0191   62.8689 O   0  0  0  0  0  0  0  0  0  0  0  0
   28.6166    6.1585   63.4614 C   0  0  0  0  0  0  0  0  0  0  0  0
   29.1907    5.4027   64.6305 C   0  0  0  0  0  0  0  0  0  0  0  0
   28.2875    4.2535   64.9574 C   0  0  0  0  0  0  0  0  0  0  0  0
   28.0261    3.3851   63.8239 N   0  0  0  0  0  0  0  0  0  0  0  0
   26.5495    3.2800   63.7685 C   0  0  0  0  0  0  0  0  0  0  0  0
   26.0823    2.2163   62.8339 C   0  0  0  0  0  0  0  0  0  0  0  0
   26.8828    1.0595   62.8505 O   0  0  0  0  0  0  0  0  0  0  0  0
   27.4889    0.9919   64.0885 C   0  0  0  0  0  0  0  0  0  0  0  0
   28.5749    2.0671   64.1638 C   0  0  0  0  0  0  0  0  0  0  0  0
 37 38  1  0  0  0
 38 27  1  0  0  0
 27 28  2  0  0  0
 28 29  1  0  0  0
 29 30  2  0  0  0
 30 26  1  0  0  0
 26  1  1  0  0  0
  1  2  2  0  0  0
  2  3  1  0  0  0
  3  4  2  0  0  0
  4  8  1  0  0  0
  8  9  1  0  0  0
  9 10  2  0  0  0
  9 12  1  0  0  0
 12 13  1  0  0  0
 13 14  1  0  0  0
 12 15  1  0  0  0
 15 16  2  0  0  0
 15 17  1  0  0  0
 17 19  1  0  0  0
 19 20  2  0  0  0
 20 21  1  0  0  0
 21 22  2  0  0  0
 22 23  1  0  0  0
 22 24  1  0  0  0
 24 25  2  0  0  0
  4  5  1  0  0  0
  5  6  2  0  0  0
  6  7  1  0  0  0
 30 31  1  0  0  0
 31 32  2  0  0  0
 32 33  1  0  0  0
 33 34  2  0  0  0
 34 35  1  0  0  0
 35 36  2  0  0  0
 36 39  1  0  0  0
 39 40  1  0  0  0
 40 41  1  0  0  0
 41 42  1  0  0  0
 42 43  1  0  0  0
 43 44  1  0  0  0
 44 45  1  0  0  0
 45 46  1  0  0  0
 46 47  1  0  0  0
 47 48  1  0  0  0
 36 27  1  0  0  0
 48 43  1  0  0  0
 34 29  1  0  0  0
  6  1  1  0  0  0
 14 12  1  0  0  0
 25 19  1  0  0  0
  8 11  1  0  0  0
 17 18  1  0  0  0
M  END
> <minimizedAffinity>
11.80425

> <CNNscore>
0.5100772977

> <CNNaffinity>
6.8599944115

> <CNN_VS>
3.4991273880

> <CNNaffinity_variance>
0.3470793962

$$$$
[H]O[C@@]1([H])[C@]([H])(C([H])([H])OP(=O)(O[H])OP(=O)(O[H])O[H])O[C@@]([H])(n2c([H])nc3c(N([H])[H])nc([H])nc32)[C@]1([H])O[H]


 34 36  0  0  0  0  0  0  0  0999 V2000
   23.6307    7.7649   54.2823 C   0  0  0  0  0  0  0  0  0  0  0  0
   22.7235    7.1728   55.1822 O   0  0  0  0  0  0  0  0  0  0  0  0
   22.1507    6.1172   54.5196 C   0  0  0  0  0  0  0  0  0  0  0  0
   23.2022    5.5173   53.6484 C   0  0  0  0  0  0  0  0  0  0  0  0
   23.7655    4.3945   54.2601 O   0  0  0  0  0  0  0  0  0  0  0  0
   24.2126    6.6382   53.4811 C   0  0  0  0  0  0  0  0  0  0  0  0
   24.2647    7.0209   52.1463 O   0  0  0  0  0  0  0  0  0  0  0  0
   23.1899    4.1481   55.0400 H   0  0  0  0  0  0  0  0  0  0  0  0
   23.9293    6.2607   51.6090 H   0  0  0  0  0  0  0  0  0  0  0  0
   28.2003   10.5486   57.1024 N   0  0  0  0  0  0  0  0  0  0  0  0
   27.7490    9.6377   56.1162 C   0  0  0  0  0  0  0  0  0  0  0  0
   28.6128    8.9613   55.3107 N   0  0  0  0  0  0  0  0  0  0  0  0
   28.1094    8.1153   54.4002 C   0  0  0  0  0  0  0  0  0  0  0  0
   26.7950    7.8903   54.2301 N   0  0  0  0  0  0  0  0  0  0  0  0
   25.9197    8.5381   55.0046 C   0  0  0  0  0  0  0  0  0  0  0  0
   24.5761    8.5069   55.0516 N   0  0  0  0  0  0  0  0  0  0  0  0
   24.2218    9.3636   56.0263 C   0  0  0  0  0  0  0  0  0  0  0  0
   25.3064    9.9035   56.5610 N   0  0  0  0  0  0  0  0  0  0  0  0
   26.3981    9.4135   55.9494 C   0  0  0  0  0  0  0  0  0  0  0  0
   28.1220   11.5744   56.8927 H   0  0  0  0  0  0  0  0  0  0  0  0
   28.6048   10.2611   58.0228 H   0  0  0  0  0  0  0  0  0  0  0  0
   20.9226    6.5317   53.7222 C   0  0  0  0  0  0  0  0  0  0  0  0
   20.9467    7.9005   53.4538 O   0  0  0  0  0  0  0  0  0  0  0  0
   20.7723    8.2048   51.8086 P   0  0  0  0  0  0  0  0  0  0  0  0
   19.2804    7.5215   51.3357 O   0  0  0  0  0  0  0  0  0  0  0  0
   21.8507    7.5275   50.9910 O   0  0  0  0  0  0  0  0  0  0  0  0
   18.6529    7.7219   52.0801 H   0  0  0  0  0  0  0  0  0  0  0  0
   20.6976    9.8629   51.4953 O   0  0  0  0  0  0  0  0  0  0  0  0
   21.6943   10.7001   52.5418 P   0  0  0  0  0  0  0  0  0  0  0  0
   21.0283   10.8466   54.0859 O   0  0  0  0  0  0  0  0  0  0  0  0
   23.1898    9.8966   52.6732 O   0  0  0  0  0  0  0  0  0  0  0  0
   21.9862   12.1104   52.0454 O   0  0  0  0  0  0  0  0  0  0  0  0
   21.0265    9.9917   54.5789 H   0  0  0  0  0  0  0  0  0  0  0  0
   23.0192    8.9120   52.7737 H   0  0  0  0  0  0  0  0  0  0  0  0
 10 11  1  0  0  0
 11 12  2  0  0  0
 12 13  1  0  0  0
 13 14  2  0  0  0
 14 15  1  0  0  0
 15 16  1  0  0  0
 16 17  1  0  0  0
 17 18  2  0  0  0
 18 19  1  0  0  0
 16  1  1  0  0  0
  1  2  1  0  0  0
  2  3  1  0  0  0
  3 22  1  0  0  0
 22 23  1  0  0  0
 23 24  1  0  0  0
 24 25  1  0  0  0
 24 26  2  0  0  0
 24 28  1  0  0  0
 28 29  1  0  0  0
 29 30  1  0  0  0
 29 31  1  0  0  0
 29 32  2  0  0  0
  3  4  1  0  0  0
  4  5  1  0  0  0
  4  6  1  0  0  0
  6  7  1  0  0  0
 19 11  1  0  0  0
  6  1  1  0  0  0
 19 15  2  0  0  0
 10 20  1  0  0  0
 10 21  1  0  0  0
 25 27  1  0  0  0
 30 33  1  0  0  0
 31 34  1  0  0  0
  5  8  1  0  0  0
  7  9  1  0  0  0
M  END
> <minimizedAffinity>
8.82500

> <CNNscore>
0.4771338403

> <CNNaffinity>
5.6603031158

> <CNN_VS>
2.7007222176

> <CNNaffinity_variance>
0.4401729107

$$$$
[H]O[C@@]1([H])[C@]([H])(C([H])([H])OP(=O)(O[H])OP(=O)(O[H])O[H])O[C@@]([H])(n2c([H])nc3c(N([H])[H])nc([H])nc32)[C@]1([H])O[H]


 34 36  0  0  0  0  0  0  0  0999 V2000
   22.2776    8.3824   54.1622 C   0  0  0  0  0  0  0  0  0  0  0  0
   22.5655    7.8038   52.9109 O   0  0  0  0  0  0  0  0  0  0  0  0
   22.4397    6.4472   53.0710 C   0  0  0  0  0  0  0  0  0  0  0  0
   21.3166    6.2157   54.0249 C   0  0  0  0  0  0  0  0  0  0  0  0
   20.1418    5.9062   53.3349 O   0  0  0  0  0  0  0  0  0  0  0  0
   21.2040    7.5317   54.7736 C   0  0  0  0  0  0  0  0  0  0  0  0
   21.5051    7.3299   56.1151 O   0  0  0  0  0  0  0  0  0  0  0  0
   20.3848    5.7174   52.3833 H   0  0  0  0  0  0  0  0  0  0  0  0
   21.3583    6.3707   56.3085 H   0  0  0  0  0  0  0  0  0  0  0  0
   20.7225   13.9583   52.4087 N   0  0  0  0  0  0  0  0  0  0  0  0
   21.0544   12.6224   52.0749 C   0  0  0  0  0  0  0  0  0  0  0  0
   21.0973   12.1914   50.7846 N   0  0  0  0  0  0  0  0  0  0  0  0
   21.4199   10.9116   50.5480 C   0  0  0  0  0  0  0  0  0  0  0  0
   21.7061   10.0188   51.5115 N   0  0  0  0  0  0  0  0  0  0  0  0
   21.6732   10.4092   52.7891 C   0  0  0  0  0  0  0  0  0  0  0  0
   21.9099    9.7418   53.9322 N   0  0  0  0  0  0  0  0  0  0  0  0
   21.7298   10.6336   54.9231 C   0  0  0  0  0  0  0  0  0  0  0  0
   21.3944   11.8077   54.4106 N   0  0  0  0  0  0  0  0  0  0  0  0
   21.3466   11.7137   53.0708 C   0  0  0  0  0  0  0  0  0  0  0  0
   19.7558   14.1452   52.7734 H   0  0  0  0  0  0  0  0  0  0  0  0
   21.3804   14.7655   52.3140 H   0  0  0  0  0  0  0  0  0  0  0  0
   23.7309    5.7982   53.5475 C   0  0  0  0  0  0  0  0  0  0  0  0
   24.2135    6.4381   54.6894 O   0  0  0  0  0  0  0  0  0  0  0  0
   25.3241    7.6385   54.2952 P   0  0  0  0  0  0  0  0  0  0  0  0
   24.9426    8.9984   55.2551 O   0  0  0  0  0  0  0  0  0  0  0  0
   25.2036    8.0672   52.8489 O   0  0  0  0  0  0  0  0  0  0  0  0
   24.7076    8.6309   56.1482 H   0  0  0  0  0  0  0  0  0  0  0  0
   26.8999    7.1672   54.6792 O   0  0  0  0  0  0  0  0  0  0  0  0
   27.9125    8.4949   54.7206 P   0  0  0  0  0  0  0  0  0  0  0  0
   27.7485    9.4721   53.3540 O   0  0  0  0  0  0  0  0  0  0  0  0
   27.5693    9.4332   56.0993 O   0  0  0  0  0  0  0  0  0  0  0  0
   29.3787    8.0911   54.8078 O   0  0  0  0  0  0  0  0  0  0  0  0
   26.8965    9.9701   53.3462 H   0  0  0  0  0  0  0  0  0  0  0  0
   26.5728    9.5206   56.1902 H   0  0  0  0  0  0  0  0  0  0  0  0
 10 11  1  0  0  0
 11 12  2  0  0  0
 12 13  1  0  0  0
 13 14  2  0  0  0
 14 15  1  0  0  0
 15 16  1  0  0  0
 16 17  1  0  0  0
 17 18  2  0  0  0
 18 19  1  0  0  0
 16  1  1  0  0  0
  1  2  1  0  0  0
  2  3  1  0  0  0
  3 22  1  0  0  0
 22 23  1  0  0  0
 23 24  1  0  0  0
 24 25  1  0  0  0
 24 26  2  0  0  0
 24 28  1  0  0  0
 28 29  1  0  0  0
 29 30  1  0  0  0
 29 31  1  0  0  0
 29 32  2  0  0  0
  3  4  1  0  0  0
  4  5  1  0  0  0
  4  6  1  0  0  0
  6  7  1  0  0  0
 19 11  1  0  0  0
  6  1  1  0  0  0
 19 15  2  0  0  0
 10 20  1  0  0  0
 10 21  1  0  0  0
 25 27  1  0  0  0
 30 33  1  0  0  0
 31 34  1  0  0  0
  5  8  1  0  0  0
  7  9  1  0  0  0
M  END
> <minimizedAffinity>
8.05824

> <CNNscore>
0.4716697931

> <CNNaffinity>
5.7355313301

> <CNN_VS>
2.7052769661

> <CNNaffinity_variance>
0.3034694195

$$$$
[H]O[C@@]1([H])[C@]([H])(C([H])([H])OP(=O)(O[H])OP(=O)(O[H])O[H])O[C@@]([H])(n2c([H])nc3c(N([H])[H])nc([H])nc32)[C@]1([H])O[H]


 34 36  0  0  0  0  0  0  0  0999 V2000
   22.8241    8.1821   53.8337 C   0  0  0  0  0  0  0  0  0  0  0  0
   24.0358    7.7245   53.2807 O   0  0  0  0  0  0  0  0  0  0  0  0
   24.4867    6.7245   54.1044 C   0  0  0  0  0  0  0  0  0  0  0  0
   23.2902    5.9828   54.5973 C   0  0  0  0  0  0  0  0  0  0  0  0
   23.0908    4.8195   53.8494 O   0  0  0  0  0  0  0  0  0  0  0  0
   22.1540    6.9737   54.4175 C   0  0  0  0  0  0  0  0  0  0  0  0
   21.6310    7.3106   55.6600 O   0  0  0  0  0  0  0  0  0  0  0  0
   23.9114    4.6632   53.2994 H   0  0  0  0  0  0  0  0  0  0  0  0
   21.8639    6.5800   56.2852 H   0  0  0  0  0  0  0  0  0  0  0  0
   19.9896   11.6168   49.7409 N   0  0  0  0  0  0  0  0  0  0  0  0
   20.8134   11.5158   50.8886 C   0  0  0  0  0  0  0  0  0  0  0  0
   21.3064   12.6157   51.5209 N   0  0  0  0  0  0  0  0  0  0  0  0
   22.0795   12.4393   52.6021 C   0  0  0  0  0  0  0  0  0  0  0  0
   22.4021   11.2356   53.1063 N   0  0  0  0  0  0  0  0  0  0  0  0
   21.9346   10.1351   52.5096 C   0  0  0  0  0  0  0  0  0  0  0  0
   22.0947    8.8303   52.7926 N   0  0  0  0  0  0  0  0  0  0  0  0
   21.3974    8.1622   51.8562 C   0  0  0  0  0  0  0  0  0  0  0  0
   20.8281    9.0226   51.0260 N   0  0  0  0  0  0  0  0  0  0  0  0
   21.1387   10.2760   51.3985 C   0  0  0  0  0  0  0  0  0  0  0  0
   20.4264   11.4192   48.8068 H   0  0  0  0  0  0  0  0  0  0  0  0
   18.9767   11.8751   49.7688 H   0  0  0  0  0  0  0  0  0  0  0  0
   25.3352    7.2566   55.2501 C   0  0  0  0  0  0  0  0  0  0  0  0
   25.8228    8.5298   54.9540 O   0  0  0  0  0  0  0  0  0  0  0  0
   27.3990    8.4613   54.3706 P   0  0  0  0  0  0  0  0  0  0  0  0
   27.3449    8.9696   52.7412 O   0  0  0  0  0  0  0  0  0  0  0  0
   27.9437    7.0495   54.3781 O   0  0  0  0  0  0  0  0  0  0  0  0
   26.7029    9.7283   52.7248 H   0  0  0  0  0  0  0  0  0  0  0  0
   28.4096    9.5266   55.2053 O   0  0  0  0  0  0  0  0  0  0  0  0
   27.8396    9.7786   56.7549 P   0  0  0  0  0  0  0  0  0  0  0  0
   28.4047   11.2229   57.4215 O   0  0  0  0  0  0  0  0  0  0  0  0
   26.1375    9.8215   56.7383 O   0  0  0  0  0  0  0  0  0  0  0  0
   28.2498    8.6586   57.7025 O   0  0  0  0  0  0  0  0  0  0  0  0
   27.9887   12.0171   57.0092 H   0  0  0  0  0  0  0  0  0  0  0  0
   25.8365   10.3837   55.9624 H   0  0  0  0  0  0  0  0  0  0  0  0
 10 11  1  0  0  0
 11 12  2  0  0  0
 12 13  1  0  0  0
 13 14  2  0  0  0
 14 15  1  0  0  0
 15 16  1  0  0  0
 16 17  1  0  0  0
 17 18  2  0  0  0
 18 19  1  0  0  0
 16  1  1  0  0  0
  1  2  1  0  0  0
  2  3  1  0  0  0
  3 22  1  0  0  0
 22 23  1  0  0  0
 23 24  1  0  0  0
 24 25  1  0  0  0
 24 26  2  0  0  0
 24 28  1  0  0  0
 28 29  1  0  0  0
 29 30  1  0  0  0
 29 31  1  0  0  0
 29 32  2  0  0  0
  3  4  1  0  0  0
  4  5  1  0  0  0
  4  6  1  0  0  0
  6  7  1  0  0  0
 19 11  1  0  0  0
  6  1  1  0  0  0
 19 15  2  0  0  0
 10 20  1  0  0  0
 10 21  1  0  0  0
 25 27  1  0  0  0
 30 33  1  0  0  0
 31 34  1  0  0  0
  5  8  1  0  0  0
  7  9  1  0  0  0
M  END
> <minimizedAffinity>
10.71240

> <CNNscore>
0.4703873992

> <CNNaffinity>
5.6191158295

> <CNN_VS>
2.6431612968

> <CNNaffinity_variance>
0.4550726414

$$$$
[H]O[C@@]1([H])[C@]([H])(C([H])([H])OP(=O)(O[H])OP(=O)(O[H])O[H])O[C@@]([H])(n2c([H])nc3c(N([H])[H])nc([H])nc32)[C@]1([H])O[H]


 34 36  0  0  0  0  0  0  0  0999 V2000
   23.3769    8.6396   54.2509 C   0  0  0  0  0  0  0  0  0  0  0  0
   23.1746   10.0115   54.0052 O   0  0  0  0  0  0  0  0  0  0  0  0
   21.9420   10.3219   54.5209 C   0  0  0  0  0  0  0  0  0  0  0  0
   21.7616    9.5089   55.7584 C   0  0  0  0  0  0  0  0  0  0  0  0
   22.0568   10.2690   56.8930 O   0  0  0  0  0  0  0  0  0  0  0  0
   22.7360    8.3586   55.5777 C   0  0  0  0  0  0  0  0  0  0  0  0
   22.0323    7.1637   55.4887 O   0  0  0  0  0  0  0  0  0  0  0  0
   22.1215   11.2270   56.6130 H   0  0  0  0  0  0  0  0  0  0  0  0
   21.1521    7.3081   55.9170 H   0  0  0  0  0  0  0  0  0  0  0  0
   29.3785    8.0384   54.7014 N   0  0  0  0  0  0  0  0  0  0  0  0
   28.1621    8.5531   55.2128 C   0  0  0  0  0  0  0  0  0  0  0  0
   28.1170    9.3004   56.3495 N   0  0  0  0  0  0  0  0  0  0  0  0
   26.9272    9.7527   56.7711 C   0  0  0  0  0  0  0  0  0  0  0  0
   25.7657    9.5136   56.1379 N   0  0  0  0  0  0  0  0  0  0  0  0
   25.7745    8.7833   55.0188 C   0  0  0  0  0  0  0  0  0  0  0  0
   24.7820    8.3965   54.1981 N   0  0  0  0  0  0  0  0  0  0  0  0
   25.3684    7.6753   53.2257 C   0  0  0  0  0  0  0  0  0  0  0  0
   26.6742    7.6190   53.4384 N   0  0  0  0  0  0  0  0  0  0  0  0
   26.9754    8.3024   54.5558 C   0  0  0  0  0  0  0  0  0  0  0  0
   29.5824    7.0204   54.8574 H   0  0  0  0  0  0  0  0  0  0  0  0
   30.0820    8.6098   54.1799 H   0  0  0  0  0  0  0  0  0  0  0  0
   20.8199   10.0874   53.5202 C   0  0  0  0  0  0  0  0  0  0  0  0
   21.3313    9.6510   52.2977 O   0  0  0  0  0  0  0  0  0  0  0  0
   20.8381    8.0800   51.9537 P   0  0  0  0  0  0  0  0  0  0  0  0
   22.2556    7.1401   51.7999 O   0  0  0  0  0  0  0  0  0  0  0  0
   20.1026    7.9946   50.6339 O   0  0  0  0  0  0  0  0  0  0  0  0
   22.8633    7.4634   52.5170 H   0  0  0  0  0  0  0  0  0  0  0  0
   19.9288    7.4305   53.2203 O   0  0  0  0  0  0  0  0  0  0  0  0
   20.0546    5.7651   53.2350 P   0  0  0  0  0  0  0  0  0  0  0  0
   21.4537    5.2323   54.0149 O   0  0  0  0  0  0  0  0  0  0  0  0
   18.7056    5.0967   54.0303 O   0  0  0  0  0  0  0  0  0  0  0  0
   20.0783    5.1827   51.8276 O   0  0  0  0  0  0  0  0  0  0  0  0
   21.4122    5.3590   54.9927 H   0  0  0  0  0  0  0  0  0  0  0  0
   18.5297    5.6247   54.8664 H   0  0  0  0  0  0  0  0  0  0  0  0
 10 11  1  0  0  0
 11 12  2  0  0  0
 12 13  1  0  0  0
 13 14  2  0  0  0
 14 15  1  0  0  0
 15 16  1  0  0  0
 16 17  1  0  0  0
 17 18  2  0  0  0
 18 19  1  0  0  0
 16  1  1  0  0  0
  1  2  1  0  0  0
  2  3  1  0  0  0
  3 22  1  0  0  0
 22 23  1  0  0  0
 23 24  1  0  0  0
 24 25  1  0  0  0
 24 26  2  0  0  0
 24 28  1  0  0  0
 28 29  1  0  0  0
 29 30  1  0  0  0
 29 31  1  0  0  0
 29 32  2  0  0  0
  3  4  1  0  0  0
  4  5  1  0  0  0
  4  6  1  0  0  0
  6  7  1  0  0  0
 19 11  1  0  0  0
  6  1  1  0  0  0
 19 15  2  0  0  0
 10 20  1  0  0  0
 10 21  1  0  0  0
 25 27  1  0  0  0
 30 33  1  0  0  0
 31 34  1  0  0  0
  5  8  1  0  0  0
  7  9  1  0  0  0
M  END
> <minimizedAffinity>
9.73435

> <CNNscore>
0.4636197686

> <CNNaffinity>
5.5209932327

> <CNN_VS>
2.5596415997

> <CNNaffinity_variance>
0.1240801588

$$$$
[H]O[C@@]1([H])[C@]([H])(C([H])([H])OP(=O)(O[H])OP(=O)(O[H])O[H])O[C@@]([H])(n2c([H])nc3c(N([H])[H])nc([H])nc32)[C@]1([H])O[H]


 34 36  0  0  0  0  0  0  0  0999 V2000
   23.4033    7.8481   53.9728 C   0  0  0  0  0  0  0  0  0  0  0  0
   23.0110    7.3639   55.2359 O   0  0  0  0  0  0  0  0  0  0  0  0
   21.7459    6.8563   55.0827 C   0  0  0  0  0  0  0  0  0  0  0  0
   21.6787    6.2346   53.7286 C   0  0  0  0  0  0  0  0  0  0  0  0
   21.8617    4.8520   53.8131 O   0  0  0  0  0  0  0  0  0  0  0  0
   22.8052    6.9098   52.9668 C   0  0  0  0  0  0  0  0  0  0  0  0
   22.2763    7.6559   51.9207 O   0  0  0  0  0  0  0  0  0  0  0  0
   21.7920    4.5909   54.7761 H   0  0  0  0  0  0  0  0  0  0  0  0
   21.3836    7.2822   51.7146 H   0  0  0  0  0  0  0  0  0  0  0  0
   29.3789    8.5322   54.6109 N   0  0  0  0  0  0  0  0  0  0  0  0
   28.0666    8.7587   55.0931 C   0  0  0  0  0  0  0  0  0  0  0  0
   27.8304    9.4440   56.2451 N   0  0  0  0  0  0  0  0  0  0  0  0
   26.5599    9.6181   56.6370 C   0  0  0  0  0  0  0  0  0  0  0  0
   25.4950    9.1553   55.9595 N   0  0  0  0  0  0  0  0  0  0  0  0
   25.6916    8.4783   54.8243 C   0  0  0  0  0  0  0  0  0  0  0  0
   24.8286    7.9131   53.9617 N   0  0  0  0  0  0  0  0  0  0  0  0
   25.5831    7.3642   52.9927 C   0  0  0  0  0  0  0  0  0  0  0  0
   26.8641    7.5823   53.2478 N   0  0  0  0  0  0  0  0  0  0  0  0
   26.9802    8.2799   54.3907 C   0  0  0  0  0  0  0  0  0  0  0  0
   29.7924    7.5771   54.7494 H   0  0  0  0  0  0  0  0  0  0  0  0
   29.9574    9.2566   54.1271 H   0  0  0  0  0  0  0  0  0  0  0  0
   20.6700    7.9153   55.2741 C   0  0  0  0  0  0  0  0  0  0  0  0
   20.7210    8.8621   54.2506 O   0  0  0  0  0  0  0  0  0  0  0  0
   21.2137   10.3628   54.8291 P   0  0  0  0  0  0  0  0  0  0  0  0
   22.8103   10.1704   55.4037 O   0  0  0  0  0  0  0  0  0  0  0  0
   20.3719   10.8215   56.0000 O   0  0  0  0  0  0  0  0  0  0  0  0
   23.2563    9.5759   54.7437 H   0  0  0  0  0  0  0  0  0  0  0  0
   21.2499   11.5151   53.5946 O   0  0  0  0  0  0  0  0  0  0  0  0
   21.6088   10.7926   52.1321 P   0  0  0  0  0  0  0  0  0  0  0  0
   20.4539    9.6478   51.6793 O   0  0  0  0  0  0  0  0  0  0  0  0
   21.6985   11.9795   50.9146 O   0  0  0  0  0  0  0  0  0  0  0  0
   22.9552   10.0808   52.1631 O   0  0  0  0  0  0  0  0  0  0  0  0
   19.6009   10.0608   51.4039 H   0  0  0  0  0  0  0  0  0  0  0  0
   20.9239   12.6100   51.0210 H   0  0  0  0  0  0  0  0  0  0  0  0
 10 11  1  0  0  0
 11 12  2  0  0  0
 12 13  1  0  0  0
 13 14  2  0  0  0
 14 15  1  0  0  0
 15 16  1  0  0  0
 16 17  1  0  0  0
 17 18  2  0  0  0
 18 19  1  0  0  0
 16  1  1  0  0  0
  1  2  1  0  0  0
  2  3  1  0  0  0
  3 22  1  0  0  0
 22 23  1  0  0  0
 23 24  1  0  0  0
 24 25  1  0  0  0
 24 26  2  0  0  0
 24 28  1  0  0  0
 28 29  1  0  0  0
 29 30  1  0  0  0
 29 31  1  0  0  0
 29 32  2  0  0  0
  3  4  1  0  0  0
  4  5  1  0  0  0
  4  6  1  0  0  0
  6  7  1  0  0  0
 19 11  1  0  0  0
  6  1  1  0  0  0
 19 15  2  0  0  0
 10 20  1  0  0  0
 10 21  1  0  0  0
 25 27  1  0  0  0
 30 33  1  0  0  0
 31 34  1  0  0  0
  5  8  1  0  0  0
  7  9  1  0  0  0
M  END
> <minimizedAffinity>
8.11093

> <CNNscore>
0.4619739056

> <CNNaffinity>
5.6342544556

> <CNN_VS>
2.6028785706

> <CNNaffinity_variance>
0.4304610193

$$$$
[H]O[C@@]1([H])[C@]([H])(C([H])([H])OP(=O)(O[H])OP(=O)(O[H])O[H])O[C@@]([H])(n2c([H])nc3c(N([H])[H])nc([H])nc32)[C@]1([H])O[H]


 34 36  0  0  0  0  0  0  0  0999 V2000
   23.2734    8.8202   54.4762 C   0  0  0  0  0  0  0  0  0  0  0  0
   22.6415    8.7340   53.2205 O   0  0  0  0  0  0  0  0  0  0  0  0
   21.4166    9.3356   53.3589 C   0  0  0  0  0  0  0  0  0  0  0  0
   21.5900   10.4847   54.2940 C   0  0  0  0  0  0  0  0  0  0  0  0
   21.7238   11.6804   53.5836 O   0  0  0  0  0  0  0  0  0  0  0  0
   22.8536   10.1365   55.0604 C   0  0  0  0  0  0  0  0  0  0  0  0
   22.5461    9.9506   56.4027 O   0  0  0  0  0  0  0  0  0  0  0  0
   21.4696   11.5031   52.6327 H   0  0  0  0  0  0  0  0  0  0  0  0
   21.6997   10.4315   56.5799 H   0  0  0  0  0  0  0  0  0  0  0  0
   29.3106    8.4907   54.3120 N   0  0  0  0  0  0  0  0  0  0  0  0
   28.1249    8.8094   55.0182 C   0  0  0  0  0  0  0  0  0  0  0  0
   28.1513    9.2878   56.2921 N   0  0  0  0  0  0  0  0  0  0  0  0
   26.9865    9.5668   56.8950 C   0  0  0  0  0  0  0  0  0  0  0  0
   25.7838    9.4028   56.3173 N   0  0  0  0  0  0  0  0  0  0  0  0
   25.7222    8.9349   55.0671 C   0  0  0  0  0  0  0  0  0  0  0  0
   24.6769    8.6778   54.2613 N   0  0  0  0  0  0  0  0  0  0  0  0
   25.2028    8.2209   53.1106 C   0  0  0  0  0  0  0  0  0  0  0  0
   26.5236    8.1969   53.2027 N   0  0  0  0  0  0  0  0  0  0  0  0
   26.8954    8.6377   54.4167 C   0  0  0  0  0  0  0  0  0  0  0  0
   29.5686    7.4769   54.2223 H   0  0  0  0  0  0  0  0  0  0  0  0
   29.9412    9.2023   53.8767 H   0  0  0  0  0  0  0  0  0  0  0  0
   20.3473    8.3673   53.8433 C   0  0  0  0  0  0  0  0  0  0  0  0
   20.2673    7.2578   53.0012 O   0  0  0  0  0  0  0  0  0  0  0  0
   21.3757    6.0724   53.4438 P   0  0  0  0  0  0  0  0  0  0  0  0
   22.6760    6.1761   52.3415 O   0  0  0  0  0  0  0  0  0  0  0  0
   20.7955    4.6805   53.3173 O   0  0  0  0  0  0  0  0  0  0  0  0
   22.8220    7.1490   52.1996 H   0  0  0  0  0  0  0  0  0  0  0  0
   21.9927    6.3553   54.9905 O   0  0  0  0  0  0  0  0  0  0  0  0
   23.3810    5.4604   55.2378 P   0  0  0  0  0  0  0  0  0  0  0  0
   23.3798    4.6695   56.7291 O   0  0  0  0  0  0  0  0  0  0  0  0
   23.5357    4.2930   54.0080 O   0  0  0  0  0  0  0  0  0  0  0  0
   24.6333    6.3266   55.1925 O   0  0  0  0  0  0  0  0  0  0  0  0
   22.7437    3.9155   56.7558 H   0  0  0  0  0  0  0  0  0  0  0  0
   22.6419    3.8592   53.8607 H   0  0  0  0  0  0  0  0  0  0  0  0
 10 11  1  0  0  0
 11 12  2  0  0  0
 12 13  1  0  0  0
 13 14  2  0  0  0
 14 15  1  0  0  0
 15 16  1  0  0  0
 16 17  1  0  0  0
 17 18  2  0  0  0
 18 19  1  0  0  0
 16  1  1  0  0  0
  1  2  1  0  0  0
  2  3  1  0  0  0
  3 22  1  0  0  0
 22 23  1  0  0  0
 23 24  1  0  0  0
 24 25  1  0  0  0
 24 26  2  0  0  0
 24 28  1  0  0  0
 28 29  1  0  0  0
 29 30  1  0  0  0
 29 31  1  0  0  0
 29 32  2  0  0  0
  3  4  1  0  0  0
  4  5  1  0  0  0
  4  6  1  0  0  0
  6  7  1  0  0  0
 19 11  1  0  0  0
  6  1  1  0  0  0
 19 15  2  0  0  0
 10 20  1  0  0  0
 10 21  1  0  0  0
 25 27  1  0  0  0
 30 33  1  0  0  0
 31 34  1  0  0  0
  5  8  1  0  0  0
  7  9  1  0  0  0
M  END
> <minimizedAffinity>
5.22541

> <CNNscore>
0.4484880567

> <CNNaffinity>
5.7729468346

> <CNN_VS>
2.5890977383

> <CNNaffinity_variance>
0.1530293673

$$$$
[H]O[C@@]1([H])[C@]([H])(C([H])([H])OP(=O)(O[H])OP(=O)(O[H])O[H])O[C@@]([H])(n2c([H])nc3c(N([H])[H])nc([H])nc32)[C@]1([H])O[H]


 34 36  0  0  0  0  0  0  0  0999 V2000
   22.1108    7.8293   53.3869 C   0  0  0  0  0  0  0  0  0  0  0  0
   22.7463    6.7927   52.6761 O   0  0  0  0  0  0  0  0  0  0  0  0
   22.7546    5.7001   53.5054 C   0  0  0  0  0  0  0  0  0  0  0  0
   21.4802    5.7218   54.2801 C   0  0  0  0  0  0  0  0  0  0  0  0
   20.5416    4.8605   53.7062 O   0  0  0  0  0  0  0  0  0  0  0  0
   21.0385    7.1725   54.2048 C   0  0  0  0  0  0  0  0  0  0  0  0
   21.0470    7.7271   55.4788 O   0  0  0  0  0  0  0  0  0  0  0  0
   21.0172    4.2893   53.0370 H   0  0  0  0  0  0  0  0  0  0  0  0
   20.9787    6.9809   56.1250 H   0  0  0  0  0  0  0  0  0  0  0  0
   20.4139   12.4180   49.8305 N   0  0  0  0  0  0  0  0  0  0  0  0
   21.0308   11.9602   51.0205 C   0  0  0  0  0  0  0  0  0  0  0  0
   21.5601   12.8189   51.9342 N   0  0  0  0  0  0  0  0  0  0  0  0
   22.1279   12.3095   53.0371 C   0  0  0  0  0  0  0  0  0  0  0  0
   22.2088   10.9938   53.3007 N   0  0  0  0  0  0  0  0  0  0  0  0
   21.6988   10.1233   52.4243 C   0  0  0  0  0  0  0  0  0  0  0  0
   21.6415    8.7798   52.4318 N   0  0  0  0  0  0  0  0  0  0  0  0
   21.0153    8.4318   51.2932 C   0  0  0  0  0  0  0  0  0  0  0  0
   20.6981    9.5200   50.6085 N   0  0  0  0  0  0  0  0  0  0  0  0
   21.1089   10.6080   51.2821 C   0  0  0  0  0  0  0  0  0  0  0  0
   20.9597   12.3425   48.9368 H   0  0  0  0  0  0  0  0  0  0  0  0
   19.4514   12.8246   49.7898 H   0  0  0  0  0  0  0  0  0  0  0  0
   23.9721    5.6750   54.4179 C   0  0  0  0  0  0  0  0  0  0  0  0
   24.0771    6.8674   55.1346 O   0  0  0  0  0  0  0  0  0  0  0  0
   25.2595    7.8710   54.4833 P   0  0  0  0  0  0  0  0  0  0  0  0
   25.1446    9.3652   55.3021 O   0  0  0  0  0  0  0  0  0  0  0  0
   25.0193    8.1488   53.0152 O   0  0  0  0  0  0  0  0  0  0  0  0
   24.9761    9.1304   56.2531 H   0  0  0  0  0  0  0  0  0  0  0  0
   26.8078    7.2547   54.7587 O   0  0  0  0  0  0  0  0  0  0  0  0
   27.9358    8.4865   54.7533 P   0  0  0  0  0  0  0  0  0  0  0  0
   27.8074    9.4707   53.3880 O   0  0  0  0  0  0  0  0  0  0  0  0
   27.7311    9.4556   56.1383 O   0  0  0  0  0  0  0  0  0  0  0  0
   29.3624    7.9533   54.7872 O   0  0  0  0  0  0  0  0  0  0  0  0
   27.0037   10.0430   53.4095 H   0  0  0  0  0  0  0  0  0  0  0  0
   26.7507    9.6320   56.2665 H   0  0  0  0  0  0  0  0  0  0  0  0
 10 11  1  0  0  0
 11 12  2  0  0  0
 12 13  1  0  0  0
 13 14  2  0  0  0
 14 15  1  0  0  0
 15 16  1  0  0  0
 16 17  1  0  0  0
 17 18  2  0  0  0
 18 19  1  0  0  0
 16  1  1  0  0  0
  1  2  1  0  0  0
  2  3  1  0  0  0
  3 22  1  0  0  0
 22 23  1  0  0  0
 23 24  1  0  0  0
 24 25  1  0  0  0
 24 26  2  0  0  0
 24 28  1  0  0  0
 28 29  1  0  0  0
 29 30  1  0  0  0
 29 31  1  0  0  0
 29 32  2  0  0  0
  3  4  1  0  0  0
  4  5  1  0  0  0
  4  6  1  0  0  0
  6  7  1  0  0  0
 19 11  1  0  0  0
  6  1  1  0  0  0
 19 15  2  0  0  0
 10 20  1  0  0  0
 10 21  1  0  0  0
 25 27  1  0  0  0
 30 33  1  0  0  0
 31 34  1  0  0  0
  5  8  1  0  0  0
  7  9  1  0  0  0
M  END
> <minimizedAffinity>
11.75607

> <CNNscore>
0.4471407235

> <CNNaffinity>
5.6049394608

> <CNN_VS>
2.5061967373

> <CNNaffinity_variance>
0.5318222046

$$$$
[H]O[C@@]1([H])[C@]([H])(C([H])([H])OP(=O)(O[H])OP(=O)(O[H])O[H])O[C@@]([H])(n2c([H])nc3c(N([H])[H])nc([H])nc32)[C@]1([H])O[H]


 34 36  0  0  0  0  0  0  0  0999 V2000
   22.8051    8.4007   54.1104 C   0  0  0  0  0  0  0  0  0  0  0  0
   24.1737    8.4126   53.7780 O   0  0  0  0  0  0  0  0  0  0  0  0
   24.7765    7.4744   54.5767 C   0  0  0  0  0  0  0  0  0  0  0  0
   23.8150    6.3456   54.7379 C   0  0  0  0  0  0  0  0  0  0  0  0
   24.1246    5.3067   53.8564 O   0  0  0  0  0  0  0  0  0  0  0  0
   22.4685    6.9730   54.4238 C   0  0  0  0  0  0  0  0  0  0  0  0
   21.6664    6.9428   55.5580 O   0  0  0  0  0  0  0  0  0  0  0  0
   25.0315    5.4870   53.4752 H   0  0  0  0  0  0  0  0  0  0  0  0
   22.0129    6.2251   56.1445 H   0  0  0  0  0  0  0  0  0  0  0  0
   20.0304   11.4796   49.7052 N   0  0  0  0  0  0  0  0  0  0  0  0
   20.8377   11.4754   50.8690 C   0  0  0  0  0  0  0  0  0  0  0  0
   21.3220   12.6246   51.4142 N   0  0  0  0  0  0  0  0  0  0  0  0
   22.0797   12.5397   52.5173 C   0  0  0  0  0  0  0  0  0  0  0  0
   22.3946   11.3825   53.1247 N   0  0  0  0  0  0  0  0  0  0  0  0
   21.9353   10.2357   52.6153 C   0  0  0  0  0  0  0  0  0  0  0  0
   22.0909    8.9592   53.0085 N   0  0  0  0  0  0  0  0  0  0  0  0
   21.4067    8.2147   52.1213 C   0  0  0  0  0  0  0  0  0  0  0  0
   20.8496    9.0024   51.2142 N   0  0  0  0  0  0  0  0  0  0  0  0
   21.1554   10.2828   51.4852 C   0  0  0  0  0  0  0  0  0  0  0  0
   20.4804   11.2051   48.7972 H   0  0  0  0  0  0  0  0  0  0  0  0
   19.0174   11.7385   49.6971 H   0  0  0  0  0  0  0  0  0  0  0  0
   25.2078    8.0475   55.9188 C   0  0  0  0  0  0  0  0  0  0  0  0
   25.8508    9.2739   55.7487 O   0  0  0  0  0  0  0  0  0  0  0  0
   27.2140    9.3911   56.7273 P   0  0  0  0  0  0  0  0  0  0  0  0
   26.7954    8.7177   58.2398 O   0  0  0  0  0  0  0  0  0  0  0  0
   27.6095   10.8306   56.9756 O   0  0  0  0  0  0  0  0  0  0  0  0
   26.2434    7.9190   58.0270 H   0  0  0  0  0  0  0  0  0  0  0  0
   28.4976    8.4880   56.1031 O   0  0  0  0  0  0  0  0  0  0  0  0
   28.5627    8.6377   54.4409 P   0  0  0  0  0  0  0  0  0  0  0  0
   27.0311    8.6092   53.7317 O   0  0  0  0  0  0  0  0  0  0  0  0
   29.3212   10.1052   54.0280 O   0  0  0  0  0  0  0  0  0  0  0  0
   29.3731    7.5190   53.7989 O   0  0  0  0  0  0  0  0  0  0  0  0
   26.5184    9.4340   53.9074 H   0  0  0  0  0  0  0  0  0  0  0  0
   28.9549   10.8338   54.6143 H   0  0  0  0  0  0  0  0  0  0  0  0
 10 11  1  0  0  0
 11 12  2  0  0  0
 12 13  1  0  0  0
 13 14  2  0  0  0
 14 15  1  0  0  0
 15 16  1  0  0  0
 16 17  1  0  0  0
 17 18  2  0  0  0
 18 19  1  0  0  0
 16  1  1  0  0  0
  1  2  1  0  0  0
  2  3  1  0  0  0
  3 22  1  0  0  0
 22 23  1  0  0  0
 23 24  1  0  0  0
 24 25  1  0  0  0
 24 26  2  0  0  0
 24 28  1  0  0  0
 28 29  1  0  0  0
 29 30  1  0  0  0
 29 31  1  0  0  0
 29 32  2  0  0  0
  3  4  1  0  0  0
  4  5  1  0  0  0
  4  6  1  0  0  0
  6  7  1  0  0  0
 19 11  1  0  0  0
  6  1  1  0  0  0
 19 15  2  0  0  0
 10 20  1  0  0  0
 10 21  1  0  0  0
 25 27  1  0  0  0
 30 33  1  0  0  0
 31 34  1  0  0  0
  5  8  1  0  0  0
  7  9  1  0  0  0
M  END
> <minimizedAffinity>
16.04409

> <CNNscore>
0.4470723867

> <CNNaffinity>
5.6650419235

> <CNN_VS>
2.5326838493

> <CNNaffinity_variance>
0.8006311655

$$$$
[H]O[C@@]1([H])[C@]([H])(C([H])([H])OP(=O)(O[H])OP(=O)(O[H])O[H])O[C@@]([H])(n2c([H])nc3c(N([H])[H])nc([H])nc32)[C@]1([H])O[H]


 34 36  0  0  0  0  0  0  0  0999 V2000
   24.2115    7.0764   53.7023 C   0  0  0  0  0  0  0  0  0  0  0  0
   23.3285    7.7423   54.5743 O   0  0  0  0  0  0  0  0  0  0  0  0
   22.3672    6.8296   54.9269 C   0  0  0  0  0  0  0  0  0  0  0  0
   23.0355    5.5003   55.0328 C   0  0  0  0  0  0  0  0  0  0  0  0
   23.3306    5.2036   56.3659 O   0  0  0  0  0  0  0  0  0  0  0  0
   24.2925    5.6625   54.1968 C   0  0  0  0  0  0  0  0  0  0  0  0
   24.2379    4.8046   53.1051 O   0  0  0  0  0  0  0  0  0  0  0  0
   22.8429    5.8596   56.9421 H   0  0  0  0  0  0  0  0  0  0  0  0
   23.6084    4.0765   53.3343 H   0  0  0  0  0  0  0  0  0  0  0  0
   29.3550   10.1436   54.5506 N   0  0  0  0  0  0  0  0  0  0  0  0
   28.1908    9.5416   55.0874 C   0  0  0  0  0  0  0  0  0  0  0  0
   27.9221    9.5555   56.4216 N   0  0  0  0  0  0  0  0  0  0  0  0
   26.7991    8.9643   56.8543 C   0  0  0  0  0  0  0  0  0  0  0  0
   25.9137    8.3531   56.0482 N   0  0  0  0  0  0  0  0  0  0  0  0
   26.1471    8.3214   54.7328 C   0  0  0  0  0  0  0  0  0  0  0  0
   25.4472    7.7899   53.7151 N   0  0  0  0  0  0  0  0  0  0  0  0
   26.1550    8.0564   52.6027 C   0  0  0  0  0  0  0  0  0  0  0  0
   27.2511    8.7274   52.9220 N   0  0  0  0  0  0  0  0  0  0  0  0
   27.2881    8.9169   54.2520 C   0  0  0  0  0  0  0  0  0  0  0  0
   30.1473    9.5133   54.2725 H   0  0  0  0  0  0  0  0  0  0  0  0
   29.4714   11.1739   54.4152 H   0  0  0  0  0  0  0  0  0  0  0  0
   21.2056    6.8031   53.9442 C   0  0  0  0  0  0  0  0  0  0  0  0
   20.7052    8.0887   53.7360 O   0  0  0  0  0  0  0  0  0  0  0  0
   21.6078    8.9177   52.5838 P   0  0  0  0  0  0  0  0  0  0  0  0
   20.5725   10.0874   51.8937 O   0  0  0  0  0  0  0  0  0  0  0  0
   22.0634    8.0098   51.4621 O   0  0  0  0  0  0  0  0  0  0  0  0
   20.0422   10.4483   52.6529 H   0  0  0  0  0  0  0  0  0  0  0  0
   22.9043    9.7366   53.2921 O   0  0  0  0  0  0  0  0  0  0  0  0
   22.4133   10.5096   54.6888 P   0  0  0  0  0  0  0  0  0  0  0  0
   20.8594   11.1552   54.5549 O   0  0  0  0  0  0  0  0  0  0  0  0
   22.4302    9.4090   55.9879 O   0  0  0  0  0  0  0  0  0  0  0  0
   23.3431   11.6571   55.0624 O   0  0  0  0  0  0  0  0  0  0  0  0
   20.1604   10.4586   54.5503 H   0  0  0  0  0  0  0  0  0  0  0  0
   22.0174    8.5452   55.6843 H   0  0  0  0  0  0  0  0  0  0  0  0
 10 11  1  0  0  0
 11 12  2  0  0  0
 12 13  1  0  0  0
 13 14  2  0  0  0
 14 15  1  0  0  0
 15 16  1  0  0  0
 16 17  1  0  0  0
 17 18  2  0  0  0
 18 19  1  0  0  0
 16  1  1  0  0  0
  1  2  1  0  0  0
  2  3  1  0  0  0
  3 22  1  0  0  0
 22 23  1  0  0  0
 23 24  1  0  0  0
 24 25  1  0  0  0
 24 26  2  0  0  0
 24 28  1  0  0  0
 28 29  1  0  0  0
 29 30  1  0  0  0
 29 31  1  0  0  0
 29 32  2  0  0  0
  3  4  1  0  0  0
  4  5  1  0  0  0
  4  6  1  0  0  0
  6  7  1  0  0  0
 19 11  1  0  0  0
  6  1  1  0  0  0
 19 15  2  0  0  0
 10 20  1  0  0  0
 10 21  1  0  0  0
 25 27  1  0  0  0
 30 33  1  0  0  0
 31 34  1  0  0  0
  5  8  1  0  0  0
  7  9  1  0  0  0
M  END
> <minimizedAffinity>
11.44821

> <CNNscore>
0.4469969869

> <CNNaffinity>
5.5603322983

> <CNN_VS>
2.4854516983

> <CNNaffinity_variance>
0.5853286386

$$$$
[H]c1nc(N([H])c2c([H])c(N([H])C(=O)c3c([H])c([H])c(C([H])([H])N4C([H])([H])C([H])([H])N(C([H])([H])C([H])([H])[H])C([H])([H])C4([H])[H])c(C(F)(F)F)c3[H])c([H])c([H])c2C([H])([H])[H])nc(-c2c([H])nc([H])c([H])c2[H])c1[H]


 44 48  0  0  0  0  0  0  0  0999 V2000
   28.7805    9.9693   58.7087 C   0  0  0  0  0  0  0  0  0  0  0  0
   28.2815    8.9074   59.0877 O   0  0  0  0  0  0  0  0  0  0  0  0
   28.6600   10.4357   57.3928 N   0  0  0  0  0  0  0  0  0  0  0  0
   29.1162   11.3620   57.1741 H   0  0  0  0  0  0  0  0  0  0  0  0
   27.9846    9.7742   56.3426 C   0  0  0  0  0  0  0  0  0  0  0  0
   28.6963    9.3831   55.2184 C   0  0  0  0  0  0  0  0  0  0  0  0
   28.0676    8.6815   54.2280 C   0  0  0  0  0  0  0  0  0  0  0  0
   26.7808    8.3461   54.2924 C   0  0  0  0  0  0  0  0  0  0  0  0
   26.0852    7.6811   53.1421 C   0  0  0  0  0  0  0  0  0  0  0  0
   26.0161    8.7293   55.4431 C   0  0  0  0  0  0  0  0  0  0  0  0
   26.6301    9.4385   56.4315 C   0  0  0  0  0  0  0  0  0  0  0  0
   24.7690    8.1255   55.4944 N   0  0  0  0  0  0  0  0  0  0  0  0
   24.6376    7.1019   55.3299 H   0  0  0  0  0  0  0  0  0  0  0  0
   23.5303    8.9098   55.7842 C   0  0  0  0  0  0  0  0  0  0  0  0
   23.5783   10.1218   56.2194 N   0  0  0  0  0  0  0  0  0  0  0  0
   22.5956   10.9784   55.7559 C   0  0  0  0  0  0  0  0  0  0  0  0
   21.6225   10.5551   54.8719 C   0  0  0  0  0  0  0  0  0  0  0  0
   21.6007    9.2956   54.4425 C   0  0  0  0  0  0  0  0  0  0  0  0
   22.5617    8.4429   54.9082 N   0  0  0  0  0  0  0  0  0  0  0  0
   20.8490    8.7557   53.3234 C   0  0  0  0  0  0  0  0  0  0  0  0
   20.2547    7.5381   53.3102 C   0  0  0  0  0  0  0  0  0  0  0  0
   19.9619    6.9040   52.1135 C   0  0  0  0  0  0  0  0  0  0  0  0
   20.2887    7.5483   50.9260 C   0  0  0  0  0  0  0  0  0  0  0  0
   20.8717    8.7603   50.9461 N   0  0  0  0  0  0  0  0  0  0  0  0
   21.1525    9.3633   52.0896 C   0  0  0  0  0  0  0  0  0  0  0  0
   30.8547   12.3336   61.4935 C   0  0  0  0  0  0  0  0  0  0  0  0
   31.5040   11.2793   60.9203 C   0  0  0  0  0  0  0  0  0  0  0  0
   30.8194   10.4575   59.9958 C   0  0  0  0  0  0  0  0  0  0  0  0
   29.5228   10.7400   59.7023 C   0  0  0  0  0  0  0  0  0  0  0  0
   28.9316   11.8111   60.3254 C   0  0  0  0  0  0  0  0  0  0  0  0
   29.5205   12.6400   61.2118 C   0  0  0  0  0  0  0  0  0  0  0  0
   28.7939   13.6823   61.9238 C   0  0  0  0  0  0  0  0  0  0  0  0
   28.8020   13.4356   63.3352 F   0  0  0  0  0  0  0  0  0  0  0  0
   27.4244   13.5381   61.6167 F   0  0  0  0  0  0  0  0  0  0  0  0
   29.1012   14.9769   61.6482 F   0  0  0  0  0  0  0  0  0  0  0  0
   31.5546   13.3755   62.2792 C   0  0  0  0  0  0  0  0  0  0  0  0
   32.5835   17.0131   60.4200 N   0  0  0  0  0  0  0  0  0  0  0  0
   31.6495   16.8865   61.5136 C   0  0  0  0  0  0  0  0  0  0  0  0
   32.1334   15.6783   62.3786 C   0  0  0  0  0  0  0  0  0  0  0  0
   31.8405   14.5254   61.6073 N   0  0  0  0  0  0  0  0  0  0  0  0
   32.0473   14.6512   60.2507 C   0  0  0  0  0  0  0  0  0  0  0  0
   33.1120   15.7460   60.0462 C   0  0  0  0  0  0  0  0  0  0  0  0
   30.3947   17.5960   59.5875 C   0  0  0  0  0  0  0  0  0  0  0  0
   31.8566   17.5325   59.2470 C   0  0  0  0  0  0  0  0  0  0  0  0
 43 44  1  0  0  0
 44 37  1  0  0  0
 37 38  1  0  0  0
 38 39  1  0  0  0
 39 40  1  0  0  0
 40 36  1  0  0  0
 36 26  1  0  0  0
 26 27  2  0  0  0
 27 28  1  0  0  0
 28 29  2  0  0  0
 29 30  1  0  0  0
 30 31  2  0  0  0
 31 32  1  0  0  0
 32 33  1  0  0  0
 32 34  1  0  0  0
 32 35  1  0  0  0
 29  1  1  0  0  0
  1  2  2  0  0  0
  1  3  1  0  0  0
  3  5  1  0  0  0
  5  6  2  0  0  0
  6  7  1  0  0  0
  7  8  2  0  0  0
  8  9  1  0  0  0
  8 10  1  0  0  0
 10 12  1  0  0  0
 12 14  1  0  0  0
 14 15  2  0  0  0
 15 16  1  0  0  0
 16 17  2  0  0  0
 17 18  1  0  0  0
 18 19  2  0  0  0
 18 20  1  0  0  0
 20 21  2  0  0  0
 21 22  1  0  0  0
 22 23  2  0  0  0
 23 24  1  0  0  0
 24 25  2  0  0  0
 10 11  2  0  0  0
 40 41  1  0  0  0
 41 42  1  0  0  0
 42 37  1  0  0  0
 31 26  1  0  0  0
 11  5  1  0  0  0
 19 14  1  0  0  0
 25 20  1  0  0  0
  3  4  1  0  0  0
 12 13  1  0  0  0
M  END
> <minimizedAffinity>
7.34320

> <CNNscore>
0.5133014917

> <CNNaffinity>
6.7152643204

> <CNN_VS>
3.4469552040

> <CNNaffinity_variance>
0.2571153045

$$$$
[H]c1nc(N([H])c2c([H])c(N([H])C(=O)c3c([H])c([H])c(C([H])([H])N4C([H])([H])C([H])([H])N(C([H])([H])C([H])([H])[H])C([H])([H])C4([H])[H])c(C(F)(F)F)c3[H])c([H])c([H])c2C([H])([H])[H])nc(-c2c([H])nc([H])c([H])c2[H])c1[H]


 44 48  0  0  0  0  0  0  0  0999 V2000
   21.1904   13.0855   51.7988 C   0  0  0  0  0  0  0  0  0  0  0  0
   20.8472   13.3795   52.9459 O   0  0  0  0  0  0  0  0  0  0  0  0
   21.6063   11.7964   51.4396 N   0  0  0  0  0  0  0  0  0  0  0  0
   21.8697   11.6474   50.4284 H   0  0  0  0  0  0  0  0  0  0  0  0
   21.7023   10.6886   52.3114 C   0  0  0  0  0  0  0  0  0  0  0  0
   21.1745    9.4679   51.9179 C   0  0  0  0  0  0  0  0  0  0  0  0
   21.3231    8.3736   52.7234 C   0  0  0  0  0  0  0  0  0  0  0  0
   21.9651    8.4225   53.8886 C   0  0  0  0  0  0  0  0  0  0  0  0
   22.0121    7.2387   54.8084 C   0  0  0  0  0  0  0  0  0  0  0  0
   22.5284    9.6670   54.3238 C   0  0  0  0  0  0  0  0  0  0  0  0
   22.3766   10.7669   53.5338 C   0  0  0  0  0  0  0  0  0  0  0  0
   23.3608    9.5332   55.4247 N   0  0  0  0  0  0  0  0  0  0  0  0
   23.1407    9.9723   56.3471 H   0  0  0  0  0  0  0  0  0  0  0  0
   24.6331    8.7524   55.3543 C   0  0  0  0  0  0  0  0  0  0  0  0
   25.1495    8.3924   54.2299 N   0  0  0  0  0  0  0  0  0  0  0  0
   26.5313    8.4030   54.1592 C   0  0  0  0  0  0  0  0  0  0  0  0
   27.3096    8.7840   55.2346 C   0  0  0  0  0  0  0  0  0  0  0  0
   26.7443    9.1494   56.3827 C   0  0  0  0  0  0  0  0  0  0  0  0
   25.3802    9.1276   56.4610 N   0  0  0  0  0  0  0  0  0  0  0  0
   27.3715    9.8361   57.4980 C   0  0  0  0  0  0  0  0  0  0  0  0
   27.7088   11.1485   57.5036 C   0  0  0  0  0  0  0  0  0  0  0  0
   28.6808   11.6279   58.3668 C   0  0  0  0  0  0  0  0  0  0  0  0
   29.2997   10.7313   59.2300 C   0  0  0  0  0  0  0  0  0  0  0  0
   28.9549    9.4312   59.2246 N   0  0  0  0  0  0  0  0  0  0  0  0
   28.0281    8.9747   58.3983 C   0  0  0  0  0  0  0  0  0  0  0  0
   21.0811   16.2779   49.0705 C   0  0  0  0  0  0  0  0  0  0  0  0
   20.2450   15.2186   48.8695 C   0  0  0  0  0  0  0  0  0  0  0  0
   20.2789   14.1236   49.7633 C   0  0  0  0  0  0  0  0  0  0  0  0
   21.1513   14.1545   50.8050 C   0  0  0  0  0  0  0  0  0  0  0  0
   21.9692   15.2493   50.9383 C   0  0  0  0  0  0  0  0  0  0  0  0
   21.9904   16.3293   50.1306 C   0  0  0  0  0  0  0  0  0  0  0  0
   22.9706   17.3982   50.2644 C   0  0  0  0  0  0  0  0  0  0  0  0
   22.7640   18.1298   51.4789 F   0  0  0  0  0  0  0  0  0  0  0  0
   22.6773   18.3749   49.2894 F   0  0  0  0  0  0  0  0  0  0  0  0
   24.2822   17.0867   50.0940 F   0  0  0  0  0  0  0  0  0  0  0  0
   20.9482   17.5555   48.3338 C   0  0  0  0  0  0  0  0  0  0  0  0
   21.5226   17.5957   44.1605 N   0  0  0  0  0  0  0  0  0  0  0  0
   20.2336   17.5954   44.8110 C   0  0  0  0  0  0  0  0  0  0  0  0
   20.4135   18.3595   46.1623 C   0  0  0  0  0  0  0  0  0  0  0  0
   21.1604   17.4839   46.9902 N   0  0  0  0  0  0  0  0  0  0  0  0
   22.1532   16.7700   46.3549 C   0  0  0  0  0  0  0  0  0  0  0  0
   22.5791   17.5771   45.1134 C   0  0  0  0  0  0  0  0  0  0  0  0
   20.5868   16.3753   42.3009 C   0  0  0  0  0  0  0  0  0  0  0  0
   21.6430   16.3575   43.3691 C   0  0  0  0  0  0  0  0  0  0  0  0
 43 44  1  0  0  0
 44 37  1  0  0  0
 37 38  1  0  0  0
 38 39  1  0  0  0
 39 40  1  0  0  0
 40 36  1  0  0  0
 36 26  1  0  0  0
 26 27  2  0  0  0
 27 28  1  0  0  0
 28 29  2  0  0  0
 29 30  1  0  0  0
 30 31  2  0  0  0
 31 32  1  0  0  0
 32 33  1  0  0  0
 32 34  1  0  0  0
 32 35  1  0  0  0
 29  1  1  0  0  0
  1  2  2  0  0  0
  1  3  1  0  0  0
  3  5  1  0  0  0
  5  6  2  0  0  0
  6  7  1  0  0  0
  7  8  2  0  0  0
  8  9  1  0  0  0
  8 10  1  0  0  0
 10 12  1  0  0  0
 12 14  1  0  0  0
 14 15  2  0  0  0
 15 16  1  0  0  0
 16 17  2  0  0  0
 17 18  1  0  0  0
 18 19  2  0  0  0
 18 20  1  0  0  0
 20 21  2  0  0  0
 21 22  1  0  0  0
 22 23  2  0  0  0
 23 24  1  0  0  0
 24 25  2  0  0  0
 10 11  2  0  0  0
 40 41  1  0  0  0
 41 42  1  0  0  0
 42 37  1  0  0  0
 31 26  1  0  0  0
 11  5  1  0  0  0
 19 14  1  0  0  0
 25 20  1  0  0  0
  3  4  1  0  0  0
 12 13  1  0  0  0
M  END
> <minimizedAffinity>
25.85936

> <CNNscore>
0.4865168333

> <CNNaffinity>
6.4043984413

> <CNN_VS>
3.1158475876

> <CNNaffinity_variance>
0.1419086754

$$$$
[H]c1nc(N([H])c2c([H])c(N([H])C(=O)c3c([H])c([H])c(C([H])([H])N4C([H])([H])C([H])([H])N(C([H])([H])C([H])([H])[H])C([H])([H])C4([H])[H])c(C(F)(F)F)c3[H])c([H])c([H])c2C([H])([H])[H])nc(-c2c([H])nc([H])c([H])c2[H])c1[H]


 44 48  0  0  0  0  0  0  0  0999 V2000
   28.1520    8.8777   58.3559 C   0  0  0  0  0  0  0  0  0  0  0  0
   27.5604    7.8111   58.5357 O   0  0  0  0  0  0  0  0  0  0  0  0
   28.1312    9.5583   57.1311 N   0  0  0  0  0  0  0  0  0  0  0  0
   28.6626   10.4691   57.0853 H   0  0  0  0  0  0  0  0  0  0  0  0
   27.4640    9.1300   55.9615 C   0  0  0  0  0  0  0  0  0  0  0  0
   27.8654    9.6272   54.7307 C   0  0  0  0  0  0  0  0  0  0  0  0
   27.2734    9.1673   53.5877 C   0  0  0  0  0  0  0  0  0  0  0  0
   26.3135    8.2450   53.5983 C   0  0  0  0  0  0  0  0  0  0  0  0
   25.5977    7.8437   52.3429 C   0  0  0  0  0  0  0  0  0  0  0  0
   25.8779    7.7047   54.8529 C   0  0  0  0  0  0  0  0  0  0  0  0
   26.4536    8.1641   55.9994 C   0  0  0  0  0  0  0  0  0  0  0  0
   25.0518    6.6000   54.7132 N   0  0  0  0  0  0  0  0  0  0  0  0
   25.4285    5.6380   54.5560 H   0  0  0  0  0  0  0  0  0  0  0  0
   23.5635    6.7221   54.7738 C   0  0  0  0  0  0  0  0  0  0  0  0
   22.8983    6.4185   55.8350 N   0  0  0  0  0  0  0  0  0  0  0  0
   21.7952    7.2061   56.1126 C   0  0  0  0  0  0  0  0  0  0  0  0
   21.4338    8.2612   55.2979 C   0  0  0  0  0  0  0  0  0  0  0  0
   22.1422    8.5475   54.2083 C   0  0  0  0  0  0  0  0  0  0  0  0
   23.2247    7.7638   53.9232 N   0  0  0  0  0  0  0  0  0  0  0  0
   22.0859    9.7594   53.4101 C   0  0  0  0  0  0  0  0  0  0  0  0
   21.8507   10.9983   53.9058 C   0  0  0  0  0  0  0  0  0  0  0  0
   21.3648   12.0084   53.0913 C   0  0  0  0  0  0  0  0  0  0  0  0
   21.1277   11.7219   51.7520 C   0  0  0  0  0  0  0  0  0  0  0  0
   21.3704   10.4921   51.2645 N   0  0  0  0  0  0  0  0  0  0  0  0
   21.8323    9.5282   52.0441 C   0  0  0  0  0  0  0  0  0  0  0  0
   30.2812   10.5900   61.5468 C   0  0  0  0  0  0  0  0  0  0  0  0
   30.7403    9.4241   61.0068 C   0  0  0  0  0  0  0  0  0  0  0  0
   30.0285    8.8189   59.9456 C   0  0  0  0  0  0  0  0  0  0  0  0
   28.8965    9.4175   59.4901 C   0  0  0  0  0  0  0  0  0  0  0  0
   28.4896   10.5841   60.0888 C   0  0  0  0  0  0  0  0  0  0  0  0
   29.1170   11.2205   61.0992 C   0  0  0  0  0  0  0  0  0  0  0  0
   28.5599   12.3901   61.7648 C   0  0  0  0  0  0  0  0  0  0  0  0
   27.1285   12.3782   61.7020 F   0  0  0  0  0  0  0  0  0  0  0  0
   28.8707   13.5203   60.9796 F   0  0  0  0  0  0  0  0  0  0  0  0
   28.9956   12.6790   63.0190 F   0  0  0  0  0  0  0  0  0  0  0  0
   31.0812   11.4082   62.4866 C   0  0  0  0  0  0  0  0  0  0  0  0
   32.6834   15.0730   61.1637 N   0  0  0  0  0  0  0  0  0  0  0  0
   31.8407   14.9182   62.3257 C   0  0  0  0  0  0  0  0  0  0  0  0
   32.1342   13.4971   62.9059 C   0  0  0  0  0  0  0  0  0  0  0  0
   31.5421   12.5903   61.9909 N   0  0  0  0  0  0  0  0  0  0  0  0
   31.6536   12.9326   60.6608 C   0  0  0  0  0  0  0  0  0  0  0  0
   32.9018   13.8244   60.5172 C   0  0  0  0  0  0  0  0  0  0  0  0
   32.9216   16.2285   59.0586 C   0  0  0  0  0  0  0  0  0  0  0  0
   31.9831   15.9359   60.1946 C   0  0  0  0  0  0  0  0  0  0  0  0
 43 44  1  0  0  0
 44 37  1  0  0  0
 37 38  1  0  0  0
 38 39  1  0  0  0
 39 40  1  0  0  0
 40 36  1  0  0  0
 36 26  1  0  0  0
 26 27  2  0  0  0
 27 28  1  0  0  0
 28 29  2  0  0  0
 29 30  1  0  0  0
 30 31  2  0  0  0
 31 32  1  0  0  0
 32 33  1  0  0  0
 32 34  1  0  0  0
 32 35  1  0  0  0
 29  1  1  0  0  0
  1  2  2  0  0  0
  1  3  1  0  0  0
  3  5  1  0  0  0
  5  6  2  0  0  0
  6  7  1  0  0  0
  7  8  2  0  0  0
  8  9  1  0  0  0
  8 10  1  0  0  0
 10 12  1  0  0  0
 12 14  1  0  0  0
 14 15  2  0  0  0
 15 16  1  0  0  0
 16 17  2  0  0  0
 17 18  1  0  0  0
 18 19  2  0  0  0
 18 20  1  0  0  0
 20 21  2  0  0  0
 21 22  1  0  0  0
 22 23  2  0  0  0
 23 24  1  0  0  0
 24 25  2  0  0  0
 10 11  2  0  0  0
 40 41  1  0  0  0
 41 42  1  0  0  0
 42 37  1  0  0  0
 31 26  1  0  0  0
 11  5  1  0  0  0
 19 14  1  0  0  0
 25 20  1  0  0  0
  3  4  1  0  0  0
 12 13  1  0  0  0
M  END
> <minimizedAffinity>
14.22932

> <CNNscore>
0.4823843241

> <CNNaffinity>
6.5558557510

> <CNN_VS>
3.1624419689

> <CNNaffinity_variance>
0.1817945689

$$$$
[H]c1nc(N([H])c2c([H])c(N([H])C(=O)c3c([H])c([H])c(C([H])([H])N4C([H])([H])C([H])([H])N(C([H])([H])C([H])([H])[H])C([H])([H])C4([H])[H])c(C(F)(F)F)c3[H])c([H])c([H])c2C([H])([H])[H])nc(-c2c([H])nc([H])c([H])c2[H])c1[H]


 44 48  0  0  0  0  0  0  0  0999 V2000
   28.7495    9.9064   58.5206 C   0  0  0  0  0  0  0  0  0  0  0  0
   28.4097    8.7735   58.8686 O   0  0  0  0  0  0  0  0  0  0  0  0
   28.5805   10.3795   57.2124 N   0  0  0  0  0  0  0  0  0  0  0  0
   28.8959   11.3685   57.0211 H   0  0  0  0  0  0  0  0  0  0  0  0
   28.0282    9.6486   56.1367 C   0  0  0  0  0  0  0  0  0  0  0  0
   28.8571    8.8518   55.3613 C   0  0  0  0  0  0  0  0  0  0  0  0
   28.3223    8.0872   54.3624 C   0  0  0  0  0  0  0  0  0  0  0  0
   27.0184    8.0672   54.0943 C   0  0  0  0  0  0  0  0  0  0  0  0
   26.4709    7.3132   52.9190 C   0  0  0  0  0  0  0  0  0  0  0  0
   26.1315    8.8745   54.8800 C   0  0  0  0  0  0  0  0  0  0  0  0
   26.6553    9.6491   55.8712 C   0  0  0  0  0  0  0  0  0  0  0  0
   24.7931    8.5890   54.6570 N   0  0  0  0  0  0  0  0  0  0  0  0
   24.0453    9.3130   54.7497 H   0  0  0  0  0  0  0  0  0  0  0  0
   24.3379    7.2181   54.2739 C   0  0  0  0  0  0  0  0  0  0  0  0
   24.3228    6.2450   55.1187 N   0  0  0  0  0  0  0  0  0  0  0  0
   23.2785    5.3455   54.9982 C   0  0  0  0  0  0  0  0  0  0  0  0
   22.3056    5.4893   54.0286 C   0  0  0  0  0  0  0  0  0  0  0  0
   22.3511    6.5056   53.1706 C   0  0  0  0  0  0  0  0  0  0  0  0
   23.3883    7.3889   53.2776 N   0  0  0  0  0  0  0  0  0  0  0  0
   21.2919    6.9691   52.2917 C   0  0  0  0  0  0  0  0  0  0  0  0
   21.4145    7.9897   51.4090 C   0  0  0  0  0  0  0  0  0  0  0  0
   20.2977    8.6688   50.9494 C   0  0  0  0  0  0  0  0  0  0  0  0
   19.0473    8.2758   51.4123 C   0  0  0  0  0  0  0  0  0  0  0  0
   18.9320    7.2569   52.2828 N   0  0  0  0  0  0  0  0  0  0  0  0
   19.9996    6.6110   52.7222 C   0  0  0  0  0  0  0  0  0  0  0  0
   30.3582   12.4711   61.4330 C   0  0  0  0  0  0  0  0  0  0  0  0
   31.2086   11.8679   60.5530 C   0  0  0  0  0  0  0  0  0  0  0  0
   30.6918   10.9848   59.5772 C   0  0  0  0  0  0  0  0  0  0  0  0
   29.3524   10.7567   59.5432 C   0  0  0  0  0  0  0  0  0  0  0  0
   28.5592   11.3913   60.4669 C   0  0  0  0  0  0  0  0  0  0  0  0
   28.9786   12.2474   61.4211 C   0  0  0  0  0  0  0  0  0  0  0  0
   28.0934   12.7881   62.4435 C   0  0  0  0  0  0  0  0  0  0  0  0
   27.6267   14.0919   62.0757 F   0  0  0  0  0  0  0  0  0  0  0  0
   28.8762   13.0756   63.5816 F   0  0  0  0  0  0  0  0  0  0  0  0
   27.0733   12.0057   62.8835 F   0  0  0  0  0  0  0  0  0  0  0  0
   30.7769   13.5792   62.3215 C   0  0  0  0  0  0  0  0  0  0  0  0
   30.9190   17.4317   60.6227 N   0  0  0  0  0  0  0  0  0  0  0  0
   29.9157   16.4385   60.3202 C   0  0  0  0  0  0  0  0  0  0  0  0
   29.7213   15.5886   61.6171 C   0  0  0  0  0  0  0  0  0  0  0  0
   30.8934   14.7984   61.7253 N   0  0  0  0  0  0  0  0  0  0  0  0
   32.0668   15.4262   61.3678 C   0  0  0  0  0  0  0  0  0  0  0  0
   31.8601   16.9397   61.5697 C   0  0  0  0  0  0  0  0  0  0  0  0
   33.1217   17.8815   59.7457 C   0  0  0  0  0  0  0  0  0  0  0  0
   31.6712   17.7220   59.3882 C   0  0  0  0  0  0  0  0  0  0  0  0
 43 44  1  0  0  0
 44 37  1  0  0  0
 37 38  1  0  0  0
 38 39  1  0  0  0
 39 40  1  0  0  0
 40 36  1  0  0  0
 36 26  1  0  0  0
 26 27  2  0  0  0
 27 28  1  0  0  0
 28 29  2  0  0  0
 29 30  1  0  0  0
 30 31  2  0  0  0
 31 32  1  0  0  0
 32 33  1  0  0  0
 32 34  1  0  0  0
 32 35  1  0  0  0
 29  1  1  0  0  0
  1  2  2  0  0  0
  1  3  1  0  0  0
  3  5  1  0  0  0
  5  6  2  0  0  0
  6  7  1  0  0  0
  7  8  2  0  0  0
  8  9  1  0  0  0
  8 10  1  0  0  0
 10 12  1  0  0  0
 12 14  1  0  0  0
 14 15  2  0  0  0
 15 16  1  0  0  0
 16 17  2  0  0  0
 17 18  1  0  0  0
 18 19  2  0  0  0
 18 20  1  0  0  0
 20 21  2  0  0  0
 21 22  1  0  0  0
 22 23  2  0  0  0
 23 24  1  0  0  0
 24 25  2  0  0  0
 10 11  2  0  0  0
 40 41  1  0  0  0
 41 42  1  0  0  0
 42 37  1  0  0  0
 31 26  1  0  0  0
 11  5  1  0  0  0
 19 14  1  0  0  0
 25 20  1  0  0  0
  3  4  1  0  0  0
 12 13  1  0  0  0
M  END
> <minimizedAffinity>
12.44046

> <CNNscore>
0.4670776129

> <CNNaffinity>
6.4109144211

> <CNN_VS>
2.9943945408

> <CNNaffinity_variance>
0.0980329067

$$$$
[H]c1nc(N([H])c2c([H])c(N([H])C(=O)c3c([H])c([H])c(C([H])([H])N4C([H])([H])C([H])([H])N(C([H])([H])C([H])([H])[H])C([H])([H])C4([H])[H])c(C(F)(F)F)c3[H])c([H])c([H])c2C([H])([H])[H])nc(-c2c([H])nc([H])c([H])c2[H])c1[H]


 44 48  0  0  0  0  0  0  0  0999 V2000
   25.7475    8.3820   55.1329 C   0  0  0  0  0  0  0  0  0  0  0  0
   26.8034    7.8253   54.8242 O   0  0  0  0  0  0  0  0  0  0  0  0
   25.6543    9.2956   56.1913 N   0  0  0  0  0  0  0  0  0  0  0  0
   24.7055    9.7237   56.3664 H   0  0  0  0  0  0  0  0  0  0  0  0
   26.7159    9.6880   57.0372 C   0  0  0  0  0  0  0  0  0  0  0  0
   27.6723    8.7530   57.4038 C   0  0  0  0  0  0  0  0  0  0  0  0
   28.7407    9.1383   58.1645 C   0  0  0  0  0  0  0  0  0  0  0  0
   28.9129   10.3926   58.5762 C   0  0  0  0  0  0  0  0  0  0  0  0
   30.0276   10.7662   59.5075 C   0  0  0  0  0  0  0  0  0  0  0  0
   27.9464   11.3865   58.2107 C   0  0  0  0  0  0  0  0  0  0  0  0
   26.8716   11.0111   57.4618 C   0  0  0  0  0  0  0  0  0  0  0  0
   28.3577   12.6788   58.4992 N   0  0  0  0  0  0  0  0  0  0  0  0
   28.8764   13.2666   57.8082 H   0  0  0  0  0  0  0  0  0  0  0  0
   28.0864   13.3092   59.8268 C   0  0  0  0  0  0  0  0  0  0  0  0
   27.6765   12.6207   60.8362 N   0  0  0  0  0  0  0  0  0  0  0  0
   28.1595   13.0031   62.0751 C   0  0  0  0  0  0  0  0  0  0  0  0
   29.0361   14.0610   62.2168 C   0  0  0  0  0  0  0  0  0  0  0  0
   29.4391   14.7523   61.1534 C   0  0  0  0  0  0  0  0  0  0  0  0
   28.9540   14.3863   59.9294 N   0  0  0  0  0  0  0  0  0  0  0  0
   30.5479   15.6868   61.0745 C   0  0  0  0  0  0  0  0  0  0  0  0
   30.5289   16.8477   60.3760 C   0  0  0  0  0  0  0  0  0  0  0  0
   31.7079   17.4490   59.9662 C   0  0  0  0  0  0  0  0  0  0  0  0
   32.9118   16.8350   60.2917 C   0  0  0  0  0  0  0  0  0  0  0  0
   32.9239   15.6866   60.9917 N   0  0  0  0  0  0  0  0  0  0  0  0
   31.7971   15.1127   61.3804 C   0  0  0  0  0  0  0  0  0  0  0  0
   22.2617    7.5202   52.9527 C   0  0  0  0  0  0  0  0  0  0  0  0
   23.0726    6.4870   53.3222 C   0  0  0  0  0  0  0  0  0  0  0  0
   24.2615    6.7551   54.0387 C   0  0  0  0  0  0  0  0  0  0  0  0
   24.5685    8.0443   54.3404 C   0  0  0  0  0  0  0  0  0  0  0  0
   23.7099    9.0329   53.9272 C   0  0  0  0  0  0  0  0  0  0  0  0
   22.5594    8.8537   53.2463 C   0  0  0  0  0  0  0  0  0  0  0  0
   21.7616    9.9602   52.7359 C   0  0  0  0  0  0  0  0  0  0  0  0
   21.1334    9.6066   51.4977 F   0  0  0  0  0  0  0  0  0  0  0  0
   22.6496   10.9769   52.3253 F   0  0  0  0  0  0  0  0  0  0  0  0
   20.8815   10.5565   53.5822 F   0  0  0  0  0  0  0  0  0  0  0  0
   20.8964    7.3161   52.4169 C   0  0  0  0  0  0  0  0  0  0  0  0
   19.0605    3.9016   54.0657 N   0  0  0  0  0  0  0  0  0  0  0  0
   20.0721    3.8723   53.0360 C   0  0  0  0  0  0  0  0  0  0  0  0
   20.9993    5.1056   53.2836 C   0  0  0  0  0  0  0  0  0  0  0  0
   20.2288    6.2343   52.9062 N   0  0  0  0  0  0  0  0  0  0  0  0
   18.8928    6.1783   53.2391 C   0  0  0  0  0  0  0  0  0  0  0  0
   18.7588    5.2374   54.4519 C   0  0  0  0  0  0  0  0  0  0  0  0
   16.6521    3.9900   54.1895 C   0  0  0  0  0  0  0  0  0  0  0  0
   17.8193    3.3290   53.5129 C   0  0  0  0  0  0  0  0  0  0  0  0
 43 44  1  0  0  0
 44 37  1  0  0  0
 37 38  1  0  0  0
 38 39  1  0  0  0
 39 40  1  0  0  0
 40 36  1  0  0  0
 36 26  1  0  0  0
 26 27  2  0  0  0
 27 28  1  0  0  0
 28 29  2  0  0  0
 29 30  1  0  0  0
 30 31  2  0  0  0
 31 32  1  0  0  0
 32 33  1  0  0  0
 32 34  1  0  0  0
 32 35  1  0  0  0
 29  1  1  0  0  0
  1  2  2  0  0  0
  1  3  1  0  0  0
  3  5  1  0  0  0
  5  6  2  0  0  0
  6  7  1  0  0  0
  7  8  2  0  0  0
  8  9  1  0  0  0
  8 10  1  0  0  0
 10 12  1  0  0  0
 12 14  1  0  0  0
 14 15  2  0  0  0
 15 16  1  0  0  0
 16 17  2  0  0  0
 17 18  1  0  0  0
 18 19  2  0  0  0
 18 20  1  0  0  0
 20 21  2  0  0  0
 21 22  1  0  0  0
 22 23  2  0  0  0
 23 24  1  0  0  0
 24 25  2  0  0  0
 10 11  2  0  0  0
 40 41  1  0  0  0
 41 42  1  0  0  0
 42 37  1  0  0  0
 31 26  1  0  0  0
 11  5  1  0  0  0
 19 14  1  0  0  0
 25 20  1  0  0  0
  3  4  1  0  0  0
 12 13  1  0  0  0
M  END
> <minimizedAffinity>
18.61752

> <CNNscore>
0.4664389789

> <CNNaffinity>
6.6051301956

> <CNN_VS>
3.0808901787

> <CNNaffinity_variance>
0.3240181804

$$$$
[H]c1nc(N([H])c2c([H])c(N([H])C(=O)c3c([H])c([H])c(C([H])([H])N4C([H])([H])C([H])([H])N(C([H])([H])C([H])([H])[H])C([H])([H])C4([H])[H])c(C(F)(F)F)c3[H])c([H])c([H])c2C([H])([H])[H])nc(-c2c([H])nc([H])c([H])c2[H])c1[H]


 44 48  0  0  0  0  0  0  0  0999 V2000
   28.5288   10.5096   58.4279 C   0  0  0  0  0  0  0  0  0  0  0  0
   28.2537    9.4426   58.9810 O   0  0  0  0  0  0  0  0  0  0  0  0
   28.4566   10.6835   57.0393 N   0  0  0  0  0  0  0  0  0  0  0  0
   28.7037   11.6399   56.6675 H   0  0  0  0  0  0  0  0  0  0  0  0
   28.0842    9.6930   56.1030 C   0  0  0  0  0  0  0  0  0  0  0  0
   29.0594    8.8659   55.5662 C   0  0  0  0  0  0  0  0  0  0  0  0
   28.7010    7.8598   54.7131 C   0  0  0  0  0  0  0  0  0  0  0  0
   27.4361    7.6287   54.3678 C   0  0  0  0  0  0  0  0  0  0  0  0
   27.0800    6.5967   53.3395 C   0  0  0  0  0  0  0  0  0  0  0  0
   26.4014    8.4610   54.9086 C   0  0  0  0  0  0  0  0  0  0  0  0
   26.7487    9.4739   55.7515 C   0  0  0  0  0  0  0  0  0  0  0  0
   25.1264    7.9763   54.6600 N   0  0  0  0  0  0  0  0  0  0  0  0
   24.9528    7.1596   54.0315 H   0  0  0  0  0  0  0  0  0  0  0  0
   23.9168    8.6014   55.2760 C   0  0  0  0  0  0  0  0  0  0  0  0
   23.9724    9.7355   55.8855 N   0  0  0  0  0  0  0  0  0  0  0  0
   22.8748   10.5648   55.7373 C   0  0  0  0  0  0  0  0  0  0  0  0
   21.7849   10.1959   54.9734 C   0  0  0  0  0  0  0  0  0  0  0  0
   21.7589    9.0165   54.3575 C   0  0  0  0  0  0  0  0  0  0  0  0
   22.8352    8.1888   54.5121 N   0  0  0  0  0  0  0  0  0  0  0  0
   20.8509    8.5862   53.3090 C   0  0  0  0  0  0  0  0  0  0  0  0
   20.0774    7.4752   53.3676 C   0  0  0  0  0  0  0  0  0  0  0  0
   19.6013    6.8799   52.2106 C   0  0  0  0  0  0  0  0  0  0  0  0
   19.9327    7.4516   50.9877 C   0  0  0  0  0  0  0  0  0  0  0  0
   20.6947    8.5587   50.9369 N   0  0  0  0  0  0  0  0  0  0  0  0
   21.1502    9.1247   52.0425 C   0  0  0  0  0  0  0  0  0  0  0  0
   29.7194   13.5690   61.0489 C   0  0  0  0  0  0  0  0  0  0  0  0
   28.7937   13.8559   60.0884 C   0  0  0  0  0  0  0  0  0  0  0  0
   28.3932   12.8472   59.1822 C   0  0  0  0  0  0  0  0  0  0  0  0
   28.9466   11.6107   59.2911 C   0  0  0  0  0  0  0  0  0  0  0  0
   29.8794   11.3982   60.2760 C   0  0  0  0  0  0  0  0  0  0  0  0
   30.3064   12.3071   61.1764 C   0  0  0  0  0  0  0  0  0  0  0  0
   31.3883   12.0430   62.1151 C   0  0  0  0  0  0  0  0  0  0  0  0
   32.4934   12.9242   61.8797 F   0  0  0  0  0  0  0  0  0  0  0  0
   31.9471   10.7901   61.7855 F   0  0  0  0  0  0  0  0  0  0  0  0
   31.0842   11.9767   63.4377 F   0  0  0  0  0  0  0  0  0  0  0  0
   30.0165   14.4836   62.1749 C   0  0  0  0  0  0  0  0  0  0  0  0
   31.7913   18.1986   61.2823 N   0  0  0  0  0  0  0  0  0  0  0  0
   30.5462   17.7289   60.7223 C   0  0  0  0  0  0  0  0  0  0  0  0
   29.8774   16.8278   61.8100 C   0  0  0  0  0  0  0  0  0  0  0  0
   30.6522   15.6409   61.8400 N   0  0  0  0  0  0  0  0  0  0  0  0
   32.0112   15.8160   61.6941 C   0  0  0  0  0  0  0  0  0  0  0  0
   32.3468   17.2406   62.1757 C   0  0  0  0  0  0  0  0  0  0  0  0
   32.0055   18.3652   58.8845 C   0  0  0  0  0  0  0  0  0  0  0  0
   32.7601   18.3660   60.1835 C   0  0  0  0  0  0  0  0  0  0  0  0
 43 44  1  0  0  0
 44 37  1  0  0  0
 37 38  1  0  0  0
 38 39  1  0  0  0
 39 40  1  0  0  0
 40 36  1  0  0  0
 36 26  1  0  0  0
 26 27  2  0  0  0
 27 28  1  0  0  0
 28 29  2  0  0  0
 29 30  1  0  0  0
 30 31  2  0  0  0
 31 32  1  0  0  0
 32 33  1  0  0  0
 32 34  1  0  0  0
 32 35  1  0  0  0
 29  1  1  0  0  0
  1  2  2  0  0  0
  1  3  1  0  0  0
  3  5  1  0  0  0
  5  6  2  0  0  0
  6  7  1  0  0  0
  7  8  2  0  0  0
  8  9  1  0  0  0
  8 10  1  0  0  0
 10 12  1  0  0  0
 12 14  1  0  0  0
 14 15  2  0  0  0
 15 16  1  0  0  0
 16 17  2  0  0  0
 17 18  1  0  0  0
 18 19  2  0  0  0
 18 20  1  0  0  0
 20 21  2  0  0  0
 21 22  1  0  0  0
 22 23  2  0  0  0
 23 24  1  0  0  0
 24 25  2  0  0  0
 10 11  2  0  0  0
 40 41  1  0  0  0
 41 42  1  0  0  0
 42 37  1  0  0  0
 31 26  1  0  0  0
 11  5  1  0  0  0
 19 14  1  0  0  0
 25 20  1  0  0  0
  3  4  1  0  0  0
 12 13  1  0  0  0
M  END
> <minimizedAffinity>
9.45638

> <CNNscore>
0.4612128437

> <CNNaffinity>
6.4849929810

> <CNN_VS>
2.9909620285

> <CNNaffinity_variance>
0.0881384164

$$$$
[H]c1nc(N([H])c2c([H])c(N([H])C(=O)c3c([H])c([H])c(C([H])([H])N4C([H])([H])C([H])([H])N(C([H])([H])C([H])([H])[H])C([H])([H])C4([H])[H])c(C(F)(F)F)c3[H])c([H])c([H])c2C([H])([H])[H])nc(-c2c([H])nc([H])c([H])c2[H])c1[H]


 44 48  0  0  0  0  0  0  0  0999 V2000
   27.9399    9.9509   58.0175 C   0  0  0  0  0  0  0  0  0  0  0  0
   27.9408    8.7834   58.4136 O   0  0  0  0  0  0  0  0  0  0  0  0
   27.3353   10.3424   56.8154 N   0  0  0  0  0  0  0  0  0  0  0  0
   27.3824   11.3686   56.5729 H   0  0  0  0  0  0  0  0  0  0  0  0
   26.6739    9.4847   55.9080 C   0  0  0  0  0  0  0  0  0  0  0  0
   27.4219    8.7544   54.9966 C   0  0  0  0  0  0  0  0  0  0  0  0
   26.7982    7.8701   54.1615 C   0  0  0  0  0  0  0  0  0  0  0  0
   25.4823    7.6693   54.1828 C   0  0  0  0  0  0  0  0  0  0  0  0
   24.8078    6.7834   53.1780 C   0  0  0  0  0  0  0  0  0  0  0  0
   24.6790    8.4031   55.1165 C   0  0  0  0  0  0  0  0  0  0  0  0
   25.2891    9.2955   55.9462 C   0  0  0  0  0  0  0  0  0  0  0  0
   23.3754    7.9377   55.1976 N   0  0  0  0  0  0  0  0  0  0  0  0
   23.0951    7.1754   55.8552 H   0  0  0  0  0  0  0  0  0  0  0  0
   22.2884    8.4990   54.3391 C   0  0  0  0  0  0  0  0  0  0  0  0
   22.5354    9.3257   53.3819 N   0  0  0  0  0  0  0  0  0  0  0  0
   21.7525    9.2014   52.2480 C   0  0  0  0  0  0  0  0  0  0  0  0
   20.7658    8.2400   52.1497 C   0  0  0  0  0  0  0  0  0  0  0  0
   20.5356    7.4018   53.1575 C   0  0  0  0  0  0  0  0  0  0  0  0
   21.2978    7.5299   54.2845 N   0  0  0  0  0  0  0  0  0  0  0  0
   19.7572    6.1762   53.1282 C   0  0  0  0  0  0  0  0  0  0  0  0
   18.4810    6.0632   53.5694 C   0  0  0  0  0  0  0  0  0  0  0  0
   17.9634    4.8317   53.9369 C   0  0  0  0  0  0  0  0  0  0  0  0
   18.7832    3.7134   53.8388 C   0  0  0  0  0  0  0  0  0  0  0  0
   20.0467    3.8314   53.3929 N   0  0  0  0  0  0  0  0  0  0  0  0
   20.5400    5.0083   53.0444 C   0  0  0  0  0  0  0  0  0  0  0  0
   29.8618   12.6654   60.5836 C   0  0  0  0  0  0  0  0  0  0  0  0
   28.8671   13.1270   59.7718 C   0  0  0  0  0  0  0  0  0  0  0  0
   28.2201   12.2358   58.8852 C   0  0  0  0  0  0  0  0  0  0  0  0
   28.6107   10.9342   58.8633 C   0  0  0  0  0  0  0  0  0  0  0  0
   29.6256   10.5436   59.7015 C   0  0  0  0  0  0  0  0  0  0  0  0
   30.2844   11.3332   60.5745 C   0  0  0  0  0  0  0  0  0  0  0  0
   31.4328   10.8754   61.3444 C   0  0  0  0  0  0  0  0  0  0  0  0
   31.2088   11.0541   62.7483 F   0  0  0  0  0  0  0  0  0  0  0  0
   32.4946   11.7738   61.1081 F   0  0  0  0  0  0  0  0  0  0  0  0
   31.9279    9.6383   61.0781 F   0  0  0  0  0  0  0  0  0  0  0  0
   30.4228   13.4632   61.6978 C   0  0  0  0  0  0  0  0  0  0  0  0
   31.3810   17.4893   60.9103 N   0  0  0  0  0  0  0  0  0  0  0  0
   30.1406   16.8530   60.5349 C   0  0  0  0  0  0  0  0  0  0  0  0
   29.8473   15.7678   61.6205 C   0  0  0  0  0  0  0  0  0  0  0  0
   30.7903   14.7363   61.3820 N   0  0  0  0  0  0  0  0  0  0  0  0
   32.0499   15.1577   61.0148 C   0  0  0  0  0  0  0  0  0  0  0  0
   32.2441   16.5778   61.5802 C   0  0  0  0  0  0  0  0  0  0  0  0
   31.0456   18.2102   58.6319 C   0  0  0  0  0  0  0  0  0  0  0  0
   32.0782   17.9080   59.6804 C   0  0  0  0  0  0  0  0  0  0  0  0
 43 44  1  0  0  0
 44 37  1  0  0  0
 37 38  1  0  0  0
 38 39  1  0  0  0
 39 40  1  0  0  0
 40 36  1  0  0  0
 36 26  1  0  0  0
 26 27  2  0  0  0
 27 28  1  0  0  0
 28 29  2  0  0  0
 29 30  1  0  0  0
 30 31  2  0  0  0
 31 32  1  0  0  0
 32 33  1  0  0  0
 32 34  1  0  0  0
 32 35  1  0  0  0
 29  1  1  0  0  0
  1  2  2  0  0  0
  1  3  1  0  0  0
  3  5  1  0  0  0
  5  6  2  0  0  0
  6  7  1  0  0  0
  7  8  2  0  0  0
  8  9  1  0  0  0
  8 10  1  0  0  0
 10 12  1  0  0  0
 12 14  1  0  0  0
 14 15  2  0  0  0
 15 16  1  0  0  0
 16 17  2  0  0  0
 17 18  1  0  0  0
 18 19  2  0  0  0
 18 20  1  0  0  0
 20 21  2  0  0  0
 21 22  1  0  0  0
 22 23  2  0  0  0
 23 24  1  0  0  0
 24 25  2  0  0  0
 10 11  2  0  0  0
 40 41  1  0  0  0
 41 42  1  0  0  0
 42 37  1  0  0  0
 31 26  1  0  0  0
 11  5  1  0  0  0
 19 14  1  0  0  0
 25 20  1  0  0  0
  3  4  1  0  0  0
 12 13  1  0  0  0
M  END
> <minimizedAffinity>
9.50223

> <CNNscore>
0.4153051376

> <CNNaffinity>
6.4584136009

> <CNN_VS>
2.6822123528

> <CNNaffinity_variance>
0.0529028885

$$$$
[H]c1nc(N([H])c2c([H])c(N([H])C(=O)c3c([H])c([H])c(C([H])([H])N4C([H])([H])C([H])([H])N(C([H])([H])C([H])([H])[H])C([H])([H])C4([H])[H])c(C(F)(F)F)c3[H])c([H])c([H])c2C([H])([H])[H])nc(-c2c([H])nc([H])c([H])c2[H])c1[H]


 44 48  0  0  0  0  0  0  0  0999 V2000
   27.2854    8.7787   56.2143 C   0  0  0  0  0  0  0  0  0  0  0  0
   28.3801    8.4647   55.7421 O   0  0  0  0  0  0  0  0  0  0  0  0
   27.0999    9.0600   57.5745 N   0  0  0  0  0  0  0  0  0  0  0  0
   26.1243    9.3289   57.8746 H   0  0  0  0  0  0  0  0  0  0  0  0
   28.1018    9.0136   58.5698 C   0  0  0  0  0  0  0  0  0  0  0  0
   28.3276    7.8265   59.2503 C   0  0  0  0  0  0  0  0  0  0  0  0
   29.3402    7.7514   60.1654 C   0  0  0  0  0  0  0  0  0  0  0  0
   30.1380    8.7816   60.4385 C   0  0  0  0  0  0  0  0  0  0  0  0
   31.1640    8.7112   61.5301 C   0  0  0  0  0  0  0  0  0  0  0  0
   29.9367   10.0227   59.7492 C   0  0  0  0  0  0  0  0  0  0  0  0
   28.9230   10.1119   58.8428 C   0  0  0  0  0  0  0  0  0  0  0  0
   30.9656   10.9303   59.9492 N   0  0  0  0  0  0  0  0  0  0  0  0
   31.7370   11.0607   59.2564 H   0  0  0  0  0  0  0  0  0  0  0  0
   31.0351   11.7771   61.1787 C   0  0  0  0  0  0  0  0  0  0  0  0
   31.9868   11.6518   62.0386 N   0  0  0  0  0  0  0  0  0  0  0  0
   32.4286   12.8181   62.6375 C   0  0  0  0  0  0  0  0  0  0  0  0
   31.8809   14.0468   62.3243 C   0  0  0  0  0  0  0  0  0  0  0  0
   30.8980   14.1413   61.4320 C   0  0  0  0  0  0  0  0  0  0  0  0
   30.4496   12.9901   60.8479 N   0  0  0  0  0  0  0  0  0  0  0  0
   30.4070   15.3431   60.7812 C   0  0  0  0  0  0  0  0  0  0  0  0
   31.1831   16.3891   60.4079 C   0  0  0  0  0  0  0  0  0  0  0  0
   30.6364   17.6490   60.2252 C   0  0  0  0  0  0  0  0  0  0  0  0
   29.2716   17.8142   60.4301 C   0  0  0  0  0  0  0  0  0  0  0  0
   28.5055   16.7700   60.7934 N   0  0  0  0  0  0  0  0  0  0  0  0
   29.0295   15.5682   60.9695 C   0  0  0  0  0  0  0  0  0  0  0  0
   23.9476    8.9048   53.6667 C   0  0  0  0  0  0  0  0  0  0  0  0
   25.1229    8.4126   53.1788 C   0  0  0  0  0  0  0  0  0  0  0  0
   26.2647    8.3795   54.0119 C   0  0  0  0  0  0  0  0  0  0  0  0
   26.1612    8.8445   55.2848 C   0  0  0  0  0  0  0  0  0  0  0  0
   24.9489    9.3344   55.7035 C   0  0  0  0  0  0  0  0  0  0  0  0
   23.8187    9.3937   54.9697 C   0  0  0  0  0  0  0  0  0  0  0  0
   22.6014   10.0389   55.4423 C   0  0  0  0  0  0  0  0  0  0  0  0
   22.7451   10.4626   56.8035 F   0  0  0  0  0  0  0  0  0  0  0  0
   21.6051    9.0464   55.5559 F   0  0  0  0  0  0  0  0  0  0  0  0
   22.0602   11.0212   54.6751 F   0  0  0  0  0  0  0  0  0  0  0  0
   22.6587    8.7585   52.9524 C   0  0  0  0  0  0  0  0  0  0  0  0
   20.7387    5.0130   53.1315 N   0  0  0  0  0  0  0  0  0  0  0  0
   20.1073    6.2386   52.7028 C   0  0  0  0  0  0  0  0  0  0  0  0
   21.2210    7.1054   52.0316 C   0  0  0  0  0  0  0  0  0  0  0  0
   22.0391    7.5543   53.0989 N   0  0  0  0  0  0  0  0  0  0  0  0
   22.2582    6.6377   54.1042 C   0  0  0  0  0  0  0  0  0  0  0  0
   22.0977    5.2334   53.4908 C   0  0  0  0  0  0  0  0  0  0  0  0
   18.7651    3.8784   53.9320 C   0  0  0  0  0  0  0  0  0  0  0  0
   20.0506    4.5368   54.3455 C   0  0  0  0  0  0  0  0  0  0  0  0
 43 44  1  0  0  0
 44 37  1  0  0  0
 37 38  1  0  0  0
 38 39  1  0  0  0
 39 40  1  0  0  0
 40 36  1  0  0  0
 36 26  1  0  0  0
 26 27  2  0  0  0
 27 28  1  0  0  0
 28 29  2  0  0  0
 29 30  1  0  0  0
 30 31  2  0  0  0
 31 32  1  0  0  0
 32 33  1  0  0  0
 32 34  1  0  0  0
 32 35  1  0  0  0
 29  1  1  0  0  0
  1  2  2  0  0  0
  1  3  1  0  0  0
  3  5  1  0  0  0
  5  6  2  0  0  0
  6  7  1  0  0  0
  7  8  2  0  0  0
  8  9  1  0  0  0
  8 10  1  0  0  0
 10 12  1  0  0  0
 12 14  1  0  0  0
 14 15  2  0  0  0
 15 16  1  0  0  0
 16 17  2  0  0  0
 17 18  1  0  0  0
 18 19  2  0  0  0
 18 20  1  0  0  0
 20 21  2  0  0  0
 21 22  1  0  0  0
 22 23  2  0  0  0
 23 24  1  0  0  0
 24 25  2  0  0  0
 10 11  2  0  0  0
 40 41  1  0  0  0
 41 42  1  0  0  0
 42 37  1  0  0  0
 31 26  1  0  0  0
 11  5  1  0  0  0
 19 14  1  0  0  0
 25 20  1  0  0  0
  3  4  1  0  0  0
 12 13  1  0  0  0
M  END
> <minimizedAffinity>
10.83604

> <CNNscore>
0.4143591225

> <CNNaffinity>
6.5276222229

> <CNN_VS>
2.7047798634

> <CNNaffinity_variance>
0.1732050180

$$$$
[H]c1nc(N([H])c2c([H])c(N([H])C(=O)c3c([H])c([H])c(C([H])([H])N4C([H])([H])C([H])([H])N(C([H])([H])C([H])([H])[H])C([H])([H])C4([H])[H])c(C(F)(F)F)c3[H])c([H])c([H])c2C([H])([H])[H])nc(-c2c([H])nc([H])c([H])c2[H])c1[H]


 44 48  0  0  0  0  0  0  0  0999 V2000
   28.4692   10.0866   58.0928 C   0  0  0  0  0  0  0  0  0  0  0  0
   28.5049    8.9709   58.6162 O   0  0  0  0  0  0  0  0  0  0  0  0
   28.2278   10.2742   56.7252 N   0  0  0  0  0  0  0  0  0  0  0  0
   28.2079   11.2713   56.3794 H   0  0  0  0  0  0  0  0  0  0  0  0
   28.0112    9.2482   55.7783 C   0  0  0  0  0  0  0  0  0  0  0  0
   29.0550    8.3959   55.4506 C   0  0  0  0  0  0  0  0  0  0  0  0
   28.8376    7.3576   54.5885 C   0  0  0  0  0  0  0  0  0  0  0  0
   27.6486    7.1180   54.0396 C   0  0  0  0  0  0  0  0  0  0  0  0
   27.4634    6.0467   53.0065 C   0  0  0  0  0  0  0  0  0  0  0  0
   26.5456    7.9758   54.3608 C   0  0  0  0  0  0  0  0  0  0  0  0
   26.7537    9.0206   55.2106 C   0  0  0  0  0  0  0  0  0  0  0  0
   25.3271    7.4867   53.9152 N   0  0  0  0  0  0  0  0  0  0  0  0
   25.2077    6.5019   53.5866 H   0  0  0  0  0  0  0  0  0  0  0  0
   24.1058    8.3471   53.8730 C   0  0  0  0  0  0  0  0  0  0  0  0
   24.0356    9.3930   53.1234 N   0  0  0  0  0  0  0  0  0  0  0  0
   22.8032    9.6552   52.5518 C   0  0  0  0  0  0  0  0  0  0  0  0
   21.7131    8.8359   52.7708 C   0  0  0  0  0  0  0  0  0  0  0  0
   21.8193    7.7634   53.5516 C   0  0  0  0  0  0  0  0  0  0  0  0
   23.0313    7.5083   54.1288 N   0  0  0  0  0  0  0  0  0  0  0  0
   20.8857    6.6569   53.6660 C   0  0  0  0  0  0  0  0  0  0  0  0
   20.9453    5.6937   54.6172 C   0  0  0  0  0  0  0  0  0  0  0  0
   20.3449    4.4611   54.4177 C   0  0  0  0  0  0  0  0  0  0  0  0
   19.6763    4.2367   53.2199 C   0  0  0  0  0  0  0  0  0  0  0  0
   19.6145    5.1998   52.2830 N   0  0  0  0  0  0  0  0  0  0  0  0
   20.1901    6.3754   52.4742 C   0  0  0  0  0  0  0  0  0  0  0  0
   29.0836   13.2825   60.7491 C   0  0  0  0  0  0  0  0  0  0  0  0
   28.3850   13.5138   59.6001 C   0  0  0  0  0  0  0  0  0  0  0  0
   28.1836   12.4580   58.6816 C   0  0  0  0  0  0  0  0  0  0  0  0
   28.6969   11.2327   58.9684 C   0  0  0  0  0  0  0  0  0  0  0  0
   29.3976   11.0769   60.1389 C   0  0  0  0  0  0  0  0  0  0  0  0
   29.6258   12.0331   61.0625 C   0  0  0  0  0  0  0  0  0  0  0  0
   30.4818   11.8245   62.2223 C   0  0  0  0  0  0  0  0  0  0  0  0
   29.8449   12.2948   63.4165 F   0  0  0  0  0  0  0  0  0  0  0  0
   31.5751   12.7098   62.1143 F   0  0  0  0  0  0  0  0  0  0  0  0
   31.0207   10.5906   62.4044 F   0  0  0  0  0  0  0  0  0  0  0  0
   29.1368   14.2546   61.8648 C   0  0  0  0  0  0  0  0  0  0  0  0
   30.6952   18.0919   61.0937 N   0  0  0  0  0  0  0  0  0  0  0  0
   29.5014   17.5542   60.4854 C   0  0  0  0  0  0  0  0  0  0  0  0
   28.8582   16.5917   61.5352 C   0  0  0  0  0  0  0  0  0  0  0  0
   29.7066   15.4564   61.5705 N   0  0  0  0  0  0  0  0  0  0  0  0
   31.0554   15.7209   61.4721 C   0  0  0  0  0  0  0  0  0  0  0  0
   31.2830   17.1546   61.9884 C   0  0  0  0  0  0  0  0  0  0  0  0
   33.0592   18.2158   60.6250 C   0  0  0  0  0  0  0  0  0  0  0  0
   31.6854   18.3418   60.0302 C   0  0  0  0  0  0  0  0  0  0  0  0
 43 44  1  0  0  0
 44 37  1  0  0  0
 37 38  1  0  0  0
 38 39  1  0  0  0
 39 40  1  0  0  0
 40 36  1  0  0  0
 36 26  1  0  0  0
 26 27  2  0  0  0
 27 28  1  0  0  0
 28 29  2  0  0  0
 29 30  1  0  0  0
 30 31  2  0  0  0
 31 32  1  0  0  0
 32 33  1  0  0  0
 32 34  1  0  0  0
 32 35  1  0  0  0
 29  1  1  0  0  0
  1  2  2  0  0  0
  1  3  1  0  0  0
  3  5  1  0  0  0
  5  6  2  0  0  0
  6  7  1  0  0  0
  7  8  2  0  0  0
  8  9  1  0  0  0
  8 10  1  0  0  0
 10 12  1  0  0  0
 12 14  1  0  0  0
 14 15  2  0  0  0
 15 16  1  0  0  0
 16 17  2  0  0  0
 17 18  1  0  0  0
 18 19  2  0  0  0
 18 20  1  0  0  0
 20 21  2  0  0  0
 21 22  1  0  0  0
 22 23  2  0  0  0
 23 24  1  0  0  0
 24 25  2  0  0  0
 10 11  2  0  0  0
 40 41  1  0  0  0
 41 42  1  0  0  0
 42 37  1  0  0  0
 31 26  1  0  0  0
 11  5  1  0  0  0
 19 14  1  0  0  0
 25 20  1  0  0  0
  3  4  1  0  0  0
 12 13  1  0  0  0
M  END
> <minimizedAffinity>
21.42049

> <CNNscore>
0.3983202279

> <CNNaffinity>
6.1924252510

> <CNN_VS>
2.4665682316

> <CNNaffinity_variance>
0.0400452018

$$$$
[H]c1nc(C(=O)N([H])c2c([H])c([H])c(C3([H])C([H])([H])C([H])([H])N(C(=O)C([H])([H])N(C([H])([H])[H])C([H])([H])[H])C([H])([H])C3([H])[H])c([H])c2[H])n([H])c1C#N


 30 32  0  0  0  0  0  0  0  0999 V2000
   27.4297    9.2761   55.5703 C   0  0  0  0  0  0  0  0  0  0  0  0
   26.4206    8.7568   54.8098 C   0  0  0  0  0  0  0  0  0  0  0  0
   26.6175    8.4856   53.4482 C   0  0  0  0  0  0  0  0  0  0  0  0
   27.8094    8.7201   52.8106 C   0  0  0  0  0  0  0  0  0  0  0  0
   28.8385    9.2559   53.6097 C   0  0  0  0  0  0  0  0  0  0  0  0
   28.6240    9.5111   54.9291 C   0  0  0  0  0  0  0  0  0  0  0  0
   28.5147   11.0477   60.6583 C   0  0  0  0  0  0  0  0  0  0  0  0
   28.0148   10.2326   61.5910 O   0  0  0  0  0  0  0  0  0  0  0  0
   28.6439   10.5120   59.3748 N   0  0  0  0  0  0  0  0  0  0  0  0
   28.4207    9.0323   59.2198 C   0  0  0  0  0  0  0  0  0  0  0  0
   28.2755    8.7094   57.7723 C   0  0  0  0  0  0  0  0  0  0  0  0
   27.3292    9.5912   57.0126 C   0  0  0  0  0  0  0  0  0  0  0  0
   27.5482   11.0084   57.3396 C   0  0  0  0  0  0  0  0  0  0  0  0
   28.8644   11.1686   58.1298 C   0  0  0  0  0  0  0  0  0  0  0  0
   28.8239   12.3491   61.1805 C   0  0  0  0  0  0  0  0  0  0  0  0
   31.1326   11.9960   61.7064 C   0  0  0  0  0  0  0  0  0  0  0  0
   30.1312   12.8277   61.0390 N   0  0  0  0  0  0  0  0  0  0  0  0
   30.3551   14.2236   61.1726 C   0  0  0  0  0  0  0  0  0  0  0  0
   28.0732    8.4645   51.4437 N   0  0  0  0  0  0  0  0  0  0  0  0
   28.3008    9.3763   50.4075 C   0  0  0  0  0  0  0  0  0  0  0  0
   28.3119   10.6156   50.5122 O   0  0  0  0  0  0  0  0  0  0  0  0
   28.1022    7.4342   51.1634 H   0  0  0  0  0  0  0  0  0  0  0  0
   28.5522    8.8445   49.0607 C   0  0  0  0  0  0  0  0  0  0  0  0
   29.2392    7.7468   48.7844 N   0  0  0  0  0  0  0  0  0  0  0  0
   29.2645    7.5719   47.4608 C   0  0  0  0  0  0  0  0  0  0  0  0
   28.5620    8.6055   46.8780 C   0  0  0  0  0  0  0  0  0  0  0  0
   28.1406    9.3660   47.8983 N   0  0  0  0  0  0  0  0  0  0  0  0
   27.5688   10.2398   47.7410 H   0  0  0  0  0  0  0  0  0  0  0  0
   28.3205    8.8388   45.4782 C   0  0  0  0  0  0  0  0  0  0  0  0
   28.1110    9.0309   44.3365 N   0  0  0  0  0  0  0  0  0  0  0  0
 16 17  1  0  0  0
 17 18  1  0  0  0
 17 15  1  0  0  0
 15  7  1  0  0  0
  7  8  2  0  0  0
  7  9  1  0  0  0
  9 10  1  0  0  0
 10 11  1  0  0  0
 11 12  1  0  0  0
 12 13  1  0  0  0
 13 14  1  0  0  0
 12  1  1  0  0  0
  1  2  2  0  0  0
  2  3  1  0  0  0
  3  4  2  0  0  0
  4 19  1  0  0  0
 19 20  1  0  0  0
 20 21  2  0  0  0
 20 23  1  0  0  0
 23 24  2  0  0  0
 24 25  1  0  0  0
 25 26  2  0  0  0
 26 27  1  0  0  0
 26 29  1  0  0  0
 29 30  3  0  0  0
  4  5  1  0  0  0
  5  6  2  0  0  0
 14  9  1  0  0  0
  6  1  1  0  0  0
 27 23  1  0  0  0
 19 22  1  0  0  0
 27 28  1  0  0  0
M  END
> <minimizedAffinity>
20.22879

> <CNNscore>
0.6600595713

> <CNNaffinity>
5.8473224640

> <CNN_VS>
3.8595812321

> <CNNaffinity_variance>
0.1210074797

$$$$
[H]c1nc(C(=O)N([H])c2c([H])c([H])c(C3([H])C([H])([H])C([H])([H])N(C(=O)C([H])([H])N(C([H])([H])[H])C([H])([H])[H])C([H])([H])C3([H])[H])c([H])c2[H])n([H])c1C#N


 30 32  0  0  0  0  0  0  0  0999 V2000
   26.9815    9.3013   56.0327 C   0  0  0  0  0  0  0  0  0  0  0  0
   27.1240    8.5324   54.9126 C   0  0  0  0  0  0  0  0  0  0  0  0
   26.0045    7.9649   54.2870 C   0  0  0  0  0  0  0  0  0  0  0  0
   24.7261    8.1435   54.7515 C   0  0  0  0  0  0  0  0  0  0  0  0
   24.5978    8.9386   55.9073 C   0  0  0  0  0  0  0  0  0  0  0  0
   25.6988    9.4788   56.4973 C   0  0  0  0  0  0  0  0  0  0  0  0
   30.3649   11.0455   59.9968 C   0  0  0  0  0  0  0  0  0  0  0  0
   30.8331   12.2726   59.7533 O   0  0  0  0  0  0  0  0  0  0  0  0
   29.2236   10.6675   59.2858 N   0  0  0  0  0  0  0  0  0  0  0  0
   28.5175   11.7363   58.4968 C   0  0  0  0  0  0  0  0  0  0  0  0
   27.5475   11.0950   57.5650 C   0  0  0  0  0  0  0  0  0  0  0  0
   28.0926    9.9502   56.7634 C   0  0  0  0  0  0  0  0  0  0  0  0
   28.8761    9.0372   57.6094 C   0  0  0  0  0  0  0  0  0  0  0  0
   28.6512    9.3764   59.0983 C   0  0  0  0  0  0  0  0  0  0  0  0
   31.1563   10.3426   60.9671 C   0  0  0  0  0  0  0  0  0  0  0  0
   31.2468    7.9755   61.3130 C   0  0  0  0  0  0  0  0  0  0  0  0
   30.5855    9.2439   61.6192 N   0  0  0  0  0  0  0  0  0  0  0  0
   29.1694    9.1589   61.6809 C   0  0  0  0  0  0  0  0  0  0  0  0
   23.5567    7.6033   54.1647 N   0  0  0  0  0  0  0  0  0  0  0  0
   22.4485    8.2739   53.6367 C   0  0  0  0  0  0  0  0  0  0  0  0
   22.2936    9.5070   53.5889 O   0  0  0  0  0  0  0  0  0  0  0  0
   23.5130    6.5369   54.1188 H   0  0  0  0  0  0  0  0  0  0  0  0
   21.3522    7.4681   53.0813 C   0  0  0  0  0  0  0  0  0  0  0  0
   20.5791    7.8197   52.0653 N   0  0  0  0  0  0  0  0  0  0  0  0
   19.6931    6.8470   51.8369 C   0  0  0  0  0  0  0  0  0  0  0  0
   19.9185    5.8383   52.7496 C   0  0  0  0  0  0  0  0  0  0  0  0
   20.9482    6.2611   53.4966 N   0  0  0  0  0  0  0  0  0  0  0  0
   21.3387    5.6779   54.2857 H   0  0  0  0  0  0  0  0  0  0  0  0
   19.2129    4.5914   52.8898 C   0  0  0  0  0  0  0  0  0  0  0  0
   18.6395    3.5719   53.0163 N   0  0  0  0  0  0  0  0  0  0  0  0
 16 17  1  0  0  0
 17 18  1  0  0  0
 17 15  1  0  0  0
 15  7  1  0  0  0
  7  8  2  0  0  0
  7  9  1  0  0  0
  9 10  1  0  0  0
 10 11  1  0  0  0
 11 12  1  0  0  0
 12 13  1  0  0  0
 13 14  1  0  0  0
 12  1  1  0  0  0
  1  2  2  0  0  0
  2  3  1  0  0  0
  3  4  2  0  0  0
  4 19  1  0  0  0
 19 20  1  0  0  0
 20 21  2  0  0  0
 20 23  1  0  0  0
 23 24  2  0  0  0
 24 25  1  0  0  0
 25 26  2  0  0  0
 26 27  1  0  0  0
 26 29  1  0  0  0
 29 30  3  0  0  0
  4  5  1  0  0  0
  5  6  2  0  0  0
 14  9  1  0  0  0
  6  1  1  0  0  0
 27 23  1  0  0  0
 19 22  1  0  0  0
 27 28  1  0  0  0
M  END
> <minimizedAffinity>
14.60754

> <CNNscore>
0.6487144232

> <CNNaffinity>
6.1991596222

> <CNN_VS>
4.0214843750

> <CNNaffinity_variance>
0.7283746004

$$$$
[H]c1nc(C(=O)N([H])c2c([H])c([H])c(C3([H])C([H])([H])C([H])([H])N(C(=O)C([H])([H])N(C([H])([H])[H])C([H])([H])[H])C([H])([H])C3([H])[H])c([H])c2[H])n([H])c1C#N


 30 32  0  0  0  0  0  0  0  0999 V2000
   26.7273    8.8297   55.7864 C   0  0  0  0  0  0  0  0  0  0  0  0
   26.7071    8.0179   54.6879 C   0  0  0  0  0  0  0  0  0  0  0  0
   25.4908    7.6170   54.1166 C   0  0  0  0  0  0  0  0  0  0  0  0
   24.2737    8.0072   54.6149 C   0  0  0  0  0  0  0  0  0  0  0  0
   24.3133    8.8437   55.7478 C   0  0  0  0  0  0  0  0  0  0  0  0
   25.5058    9.2195   56.2851 C   0  0  0  0  0  0  0  0  0  0  0  0
   30.1996   11.1818   59.3382 C   0  0  0  0  0  0  0  0  0  0  0  0
   31.2484   11.7351   58.7233 O   0  0  0  0  0  0  0  0  0  0  0  0
   29.0864   10.9120   58.5387 N   0  0  0  0  0  0  0  0  0  0  0  0
   29.0937   11.4627   57.1386 C   0  0  0  0  0  0  0  0  0  0  0  0
   28.0095   10.8102   56.3517 C   0  0  0  0  0  0  0  0  0  0  0  0
   27.9519    9.3151   56.4604 C   0  0  0  0  0  0  0  0  0  0  0  0
   28.0863    8.8806   57.8591 C   0  0  0  0  0  0  0  0  0  0  0  0
   27.9499   10.0945   58.8025 C   0  0  0  0  0  0  0  0  0  0  0  0
   30.4386   10.9679   60.7378 C   0  0  0  0  0  0  0  0  0  0  0  0
   28.5716   12.1337   61.6791 C   0  0  0  0  0  0  0  0  0  0  0  0
   30.0227   11.9529   61.6405 N   0  0  0  0  0  0  0  0  0  0  0  0
   30.7594   13.1654   61.7004 C   0  0  0  0  0  0  0  0  0  0  0  0
   23.0138    7.6422   54.0831 N   0  0  0  0  0  0  0  0  0  0  0  0
   22.0859    8.4347   53.3993 C   0  0  0  0  0  0  0  0  0  0  0  0
   22.2126    9.6423   53.1295 O   0  0  0  0  0  0  0  0  0  0  0  0
   22.7312    6.6216   54.2230 H   0  0  0  0  0  0  0  0  0  0  0  0
   20.8373    7.8047   52.9478 C   0  0  0  0  0  0  0  0  0  0  0  0
   20.4606    7.6640   51.6862 N   0  0  0  0  0  0  0  0  0  0  0  0
   19.2752    7.0501   51.6528 C   0  0  0  0  0  0  0  0  0  0  0  0
   18.8886    6.7929   52.9512 C   0  0  0  0  0  0  0  0  0  0  0  0
   19.8785    7.2735   53.7166 N   0  0  0  0  0  0  0  0  0  0  0  0
   19.8466    7.2111   54.7704 H   0  0  0  0  0  0  0  0  0  0  0  0
   17.6856    6.1490   53.4102 C   0  0  0  0  0  0  0  0  0  0  0  0
   16.6957    5.6305   53.7783 N   0  0  0  0  0  0  0  0  0  0  0  0
 16 17  1  0  0  0
 17 18  1  0  0  0
 17 15  1  0  0  0
 15  7  1  0  0  0
  7  8  2  0  0  0
  7  9  1  0  0  0
  9 10  1  0  0  0
 10 11  1  0  0  0
 11 12  1  0  0  0
 12 13  1  0  0  0
 13 14  1  0  0  0
 12  1  1  0  0  0
  1  2  2  0  0  0
  2  3  1  0  0  0
  3  4  2  0  0  0
  4 19  1  0  0  0
 19 20  1  0  0  0
 20 21  2  0  0  0
 20 23  1  0  0  0
 23 24  2  0  0  0
 24 25  1  0  0  0
 25 26  2  0  0  0
 26 27  1  0  0  0
 26 29  1  0  0  0
 29 30  3  0  0  0
  4  5  1  0  0  0
  5  6  2  0  0  0
 14  9  1  0  0  0
  6  1  1  0  0  0
 27 23  1  0  0  0
 19 22  1  0  0  0
 27 28  1  0  0  0
M  END
> <minimizedAffinity>
24.03330

> <CNNscore>
0.5852059126

> <CNNaffinity>
6.1288986206

> <CNN_VS>
3.5866677761

> <CNNaffinity_variance>
1.2389212847

$$$$
[H]c1nc(C(=O)N([H])c2c([H])c([H])c(C3([H])C([H])([H])C([H])([H])N(C(=O)C([H])([H])N(C([H])([H])[H])C([H])([H])[H])C([H])([H])C3([H])[H])c([H])c2[H])n([H])c1C#N


 30 32  0  0  0  0  0  0  0  0999 V2000
   25.0081    8.2237   54.9420 C   0  0  0  0  0  0  0  0  0  0  0  0
   25.0493    7.4233   53.8357 C   0  0  0  0  0  0  0  0  0  0  0  0
   23.9756    6.5768   53.5244 C   0  0  0  0  0  0  0  0  0  0  0  0
   22.8430    6.5024   54.2950 C   0  0  0  0  0  0  0  0  0  0  0  0
   22.8177    7.3341   55.4317 C   0  0  0  0  0  0  0  0  0  0  0  0
   23.8717    8.1474   55.7137 C   0  0  0  0  0  0  0  0  0  0  0  0
   28.6308   11.0903   57.9190 C   0  0  0  0  0  0  0  0  0  0  0  0
   28.7948   12.3309   57.4517 O   0  0  0  0  0  0  0  0  0  0  0  0
   27.4789   10.4199   57.5008 N   0  0  0  0  0  0  0  0  0  0  0  0
   26.4453   11.2227   56.7588 C   0  0  0  0  0  0  0  0  0  0  0  0
   25.4713   10.2933   56.1200 C   0  0  0  0  0  0  0  0  0  0  0  0
   26.0806    9.1555   55.3555 C   0  0  0  0  0  0  0  0  0  0  0  0
   27.1681    8.5262   56.1201 C   0  0  0  0  0  0  0  0  0  0  0  0
   27.1501    9.0358   57.5770 C   0  0  0  0  0  0  0  0  0  0  0  0
   29.7065   10.6852   58.7797 C   0  0  0  0  0  0  0  0  0  0  0  0
   29.6595   11.8517   60.8697 C   0  0  0  0  0  0  0  0  0  0  0  0
   29.4582   10.5920   60.1537 N   0  0  0  0  0  0  0  0  0  0  0  0
   29.9346    9.4485   60.8477 C   0  0  0  0  0  0  0  0  0  0  0  0
   21.7253    5.6742   54.0335 N   0  0  0  0  0  0  0  0  0  0  0  0
   20.4418    6.0379   53.6128 C   0  0  0  0  0  0  0  0  0  0  0  0
   20.0460    7.1951   53.3865 O   0  0  0  0  0  0  0  0  0  0  0  0
   21.8820    4.6275   54.1774 H   0  0  0  0  0  0  0  0  0  0  0  0
   19.4509    4.9711   53.4131 C   0  0  0  0  0  0  0  0  0  0  0  0
   19.6946    3.7886   52.8694 N   0  0  0  0  0  0  0  0  0  0  0  0
   18.5636    3.0789   52.8483 C   0  0  0  0  0  0  0  0  0  0  0  0
   17.5636    3.8489   53.4035 C   0  0  0  0  0  0  0  0  0  0  0  0
   18.1524    5.0058   53.7377 N   0  0  0  0  0  0  0  0  0  0  0  0
   17.6135    5.7935   54.1899 H   0  0  0  0  0  0  0  0  0  0  0  0
   16.1783    3.5060   53.5932 C   0  0  0  0  0  0  0  0  0  0  0  0
   15.0439    3.2291   53.7365 N   0  0  0  0  0  0  0  0  0  0  0  0
 16 17  1  0  0  0
 17 18  1  0  0  0
 17 15  1  0  0  0
 15  7  1  0  0  0
  7  8  2  0  0  0
  7  9  1  0  0  0
  9 10  1  0  0  0
 10 11  1  0  0  0
 11 12  1  0  0  0
 12 13  1  0  0  0
 13 14  1  0  0  0
 12  1  1  0  0  0
  1  2  2  0  0  0
  2  3  1  0  0  0
  3  4  2  0  0  0
  4 19  1  0  0  0
 19 20  1  0  0  0
 20 21  2  0  0  0
 20 23  1  0  0  0
 23 24  2  0  0  0
 24 25  1  0  0  0
 25 26  2  0  0  0
 26 27  1  0  0  0
 26 29  1  0  0  0
 29 30  3  0  0  0
  4  5  1  0  0  0
  5  6  2  0  0  0
 14  9  1  0  0  0
  6  1  1  0  0  0
 27 23  1  0  0  0
 19 22  1  0  0  0
 27 28  1  0  0  0
M  END
> <minimizedAffinity>
26.68564

> <CNNscore>
0.5447614193

> <CNNaffinity>
6.0061311722

> <CNN_VS>
3.2719085217

> <CNNaffinity_variance>
0.6875556707

$$$$
[H]c1nc(C(=O)N([H])c2c([H])c([H])c(C3([H])C([H])([H])C([H])([H])N(C(=O)C([H])([H])N(C([H])([H])[H])C([H])([H])[H])C([H])([H])C3([H])[H])c([H])c2[H])n([H])c1C#N


 30 32  0  0  0  0  0  0  0  0999 V2000
   25.0945    8.7250   54.9467 C   0  0  0  0  0  0  0  0  0  0  0  0
   26.4150    8.4356   54.7498 C   0  0  0  0  0  0  0  0  0  0  0  0
   27.3887    8.8865   55.6525 C   0  0  0  0  0  0  0  0  0  0  0  0
   27.0814    9.6294   56.7642 C   0  0  0  0  0  0  0  0  0  0  0  0
   25.7154    9.9187   56.9513 C   0  0  0  0  0  0  0  0  0  0  0  0
   24.7883    9.4705   56.0617 C   0  0  0  0  0  0  0  0  0  0  0  0
   20.6939    6.1500   52.8953 C   0  0  0  0  0  0  0  0  0  0  0  0
   20.7951    5.9553   51.5776 O   0  0  0  0  0  0  0  0  0  0  0  0
   21.8840    6.4274   53.5719 N   0  0  0  0  0  0  0  0  0  0  0  0
   23.1675    6.2638   52.8042 C   0  0  0  0  0  0  0  0  0  0  0  0
   24.2763    6.9072   53.5640 C   0  0  0  0  0  0  0  0  0  0  0  0
   23.9901    8.2932   54.0616 C   0  0  0  0  0  0  0  0  0  0  0  0
   22.6560    8.3700   54.6761 C   0  0  0  0  0  0  0  0  0  0  0  0
   22.0889    6.9493   54.8816 C   0  0  0  0  0  0  0  0  0  0  0  0
   19.3407    6.0339   53.3613 C   0  0  0  0  0  0  0  0  0  0  0  0
   19.6147    3.6573   53.2741 C   0  0  0  0  0  0  0  0  0  0  0  0
   18.9150    4.7989   53.8630 N   0  0  0  0  0  0  0  0  0  0  0  0
   17.5225    4.5918   54.0492 C   0  0  0  0  0  0  0  0  0  0  0  0
   28.0144   10.1096   57.7141 N   0  0  0  0  0  0  0  0  0  0  0  0
   28.5223    9.4680   58.8486 C   0  0  0  0  0  0  0  0  0  0  0  0
   28.2317    8.3213   59.2328 O   0  0  0  0  0  0  0  0  0  0  0  0
   28.3814   11.0980   57.5425 H   0  0  0  0  0  0  0  0  0  0  0  0
   29.4907   10.1964   59.6801 C   0  0  0  0  0  0  0  0  0  0  0  0
   30.4733    9.6453   60.3758 N   0  0  0  0  0  0  0  0  0  0  0  0
   31.1490   10.6068   61.0099 C   0  0  0  0  0  0  0  0  0  0  0  0
   30.5657   11.8171   60.6995 C   0  0  0  0  0  0  0  0  0  0  0  0
   29.5487   11.5192   59.8787 N   0  0  0  0  0  0  0  0  0  0  0  0
   28.9195   12.2674   59.4791 H   0  0  0  0  0  0  0  0  0  0  0  0
   30.9484   13.1302   61.1486 C   0  0  0  0  0  0  0  0  0  0  0  0
   31.2540   14.2084   61.5068 N   0  0  0  0  0  0  0  0  0  0  0  0
 16 17  1  0  0  0
 17 18  1  0  0  0
 17 15  1  0  0  0
 15  7  1  0  0  0
  7  8  2  0  0  0
  7  9  1  0  0  0
  9 10  1  0  0  0
 10 11  1  0  0  0
 11 12  1  0  0  0
 12 13  1  0  0  0
 13 14  1  0  0  0
 12  1  1  0  0  0
  1  2  2  0  0  0
  2  3  1  0  0  0
  3  4  2  0  0  0
  4 19  1  0  0  0
 19 20  1  0  0  0
 20 21  2  0  0  0
 20 23  1  0  0  0
 23 24  2  0  0  0
 24 25  1  0  0  0
 25 26  2  0  0  0
 26 27  1  0  0  0
 26 29  1  0  0  0
 29 30  3  0  0  0
  4  5  1  0  0  0
  5  6  2  0  0  0
 14  9  1  0  0  0
  6  1  1  0  0  0
 27 23  1  0  0  0
 19 22  1  0  0  0
 27 28  1  0  0  0
M  END
> <minimizedAffinity>
12.52496

> <CNNscore>
0.5419998765

> <CNNaffinity>
5.9102406502

> <CNN_VS>
3.2033495903

> <CNNaffinity_variance>
0.4179740548

$$$$
[H]c1nc(C(=O)N([H])c2c([H])c([H])c(C3([H])C([H])([H])C([H])([H])N(C(=O)C([H])([H])N(C([H])([H])[H])C([H])([H])[H])C([H])([H])C3([H])[H])c([H])c2[H])n([H])c1C#N


 30 32  0  0  0  0  0  0  0  0999 V2000
   26.1528    8.6530   55.2383 C   0  0  0  0  0  0  0  0  0  0  0  0
   27.5115    8.6029   55.1060 C   0  0  0  0  0  0  0  0  0  0  0  0
   28.3445    9.2610   56.0222 C   0  0  0  0  0  0  0  0  0  0  0  0
   27.8564    9.9795   57.0841 C   0  0  0  0  0  0  0  0  0  0  0  0
   26.4534   10.0208   57.2049 C   0  0  0  0  0  0  0  0  0  0  0  0
   25.6652    9.3745   56.3034 C   0  0  0  0  0  0  0  0  0  0  0  0
   21.5274    6.7518   52.9588 C   0  0  0  0  0  0  0  0  0  0  0  0
   21.7037    5.5577   52.3867 O   0  0  0  0  0  0  0  0  0  0  0  0
   22.4973    7.1422   53.8852 N   0  0  0  0  0  0  0  0  0  0  0  0
   23.5053    6.1072   54.3052 C   0  0  0  0  0  0  0  0  0  0  0  0
   24.6267    6.7798   55.0198 C   0  0  0  0  0  0  0  0  0  0  0  0
   25.1872    7.9903   54.3338 C   0  0  0  0  0  0  0  0  0  0  0  0
   24.1121    8.8683   53.8473 C   0  0  0  0  0  0  0  0  0  0  0  0
   22.7600    8.4254   54.4455 C   0  0  0  0  0  0  0  0  0  0  0  0
   20.3425    7.4123   52.4882 C   0  0  0  0  0  0  0  0  0  0  0  0
   20.9871    8.0276   50.2663 C   0  0  0  0  0  0  0  0  0  0  0  0
   20.4859    8.4594   51.5710 N   0  0  0  0  0  0  0  0  0  0  0  0
   21.0407    9.6838   52.0286 C   0  0  0  0  0  0  0  0  0  0  0  0
   28.6418   10.6609   58.0444 N   0  0  0  0  0  0  0  0  0  0  0  0
   28.9007   10.3130   59.3743 C   0  0  0  0  0  0  0  0  0  0  0  0
   28.4700    9.3066   59.9649 O   0  0  0  0  0  0  0  0  0  0  0  0
   29.0999   11.5657   57.7089 H   0  0  0  0  0  0  0  0  0  0  0  0
   29.7583   11.2040   60.1683 C   0  0  0  0  0  0  0  0  0  0  0  0
   30.6697   10.8119   61.0453 N   0  0  0  0  0  0  0  0  0  0  0  0
   31.2535   11.8893   61.5760 C   0  0  0  0  0  0  0  0  0  0  0  0
   30.6844   13.0093   61.0077 C   0  0  0  0  0  0  0  0  0  0  0  0
   29.7688   12.5426   60.1469 N   0  0  0  0  0  0  0  0  0  0  0  0
   29.1726   13.1908   59.5641 H   0  0  0  0  0  0  0  0  0  0  0  0
   30.9904   14.3918   61.2675 C   0  0  0  0  0  0  0  0  0  0  0  0
   31.2503   15.5209   61.4720 N   0  0  0  0  0  0  0  0  0  0  0  0
 16 17  1  0  0  0
 17 18  1  0  0  0
 17 15  1  0  0  0
 15  7  1  0  0  0
  7  8  2  0  0  0
  7  9  1  0  0  0
  9 10  1  0  0  0
 10 11  1  0  0  0
 11 12  1  0  0  0
 12 13  1  0  0  0
 13 14  1  0  0  0
 12  1  1  0  0  0
  1  2  2  0  0  0
  2  3  1  0  0  0
  3  4  2  0  0  0
  4 19  1  0  0  0
 19 20  1  0  0  0
 20 21  2  0  0  0
 20 23  1  0  0  0
 23 24  2  0  0  0
 24 25  1  0  0  0
 25 26  2  0  0  0
 26 27  1  0  0  0
 26 29  1  0  0  0
 29 30  3  0  0  0
  4  5  1  0  0  0
  5  6  2  0  0  0
 14  9  1  0  0  0
  6  1  1  0  0  0
 27 23  1  0  0  0
 19 22  1  0  0  0
 27 28  1  0  0  0
M  END
> <minimizedAffinity>
7.31596

> <CNNscore>
0.5367131829

> <CNNaffinity>
5.8759479523

> <CNN_VS>
3.1536986828

> <CNNaffinity_variance>
0.2148843110

$$$$
[H]c1nc(C(=O)N([H])c2c([H])c([H])c(C3([H])C([H])([H])C([H])([H])N(C(=O)C([H])([H])N(C([H])([H])[H])C([H])([H])[H])C([H])([H])C3([H])[H])c([H])c2[H])n([H])c1C#N


 30 32  0  0  0  0  0  0  0  0999 V2000
   27.2350    9.3191   56.1823 C   0  0  0  0  0  0  0  0  0  0  0  0
   27.3889    8.5650   55.0536 C   0  0  0  0  0  0  0  0  0  0  0  0
   26.2772    8.1952   54.2830 C   0  0  0  0  0  0  0  0  0  0  0  0
   24.9954    8.5601   54.6084 C   0  0  0  0  0  0  0  0  0  0  0  0
   24.8553    9.3370   55.7753 C   0  0  0  0  0  0  0  0  0  0  0  0
   25.9489    9.6836   56.5073 C   0  0  0  0  0  0  0  0  0  0  0  0
   30.3086   10.5201   60.5772 C   0  0  0  0  0  0  0  0  0  0  0  0
   31.0363   11.6252   60.3941 O   0  0  0  0  0  0  0  0  0  0  0  0
   29.2257   10.3433   59.7128 N   0  0  0  0  0  0  0  0  0  0  0  0
   28.8584   11.4994   58.8227 C   0  0  0  0  0  0  0  0  0  0  0  0
   27.9212   11.0236   57.7664 C   0  0  0  0  0  0  0  0  0  0  0  0
   28.3387    9.7680   57.0598 C   0  0  0  0  0  0  0  0  0  0  0  0
   28.8036    8.7520   58.0163 C   0  0  0  0  0  0  0  0  0  0  0  0
   28.4443    9.1804   59.4549 C   0  0  0  0  0  0  0  0  0  0  0  0
   30.8049    9.7131   61.6562 C   0  0  0  0  0  0  0  0  0  0  0  0
   31.2388    7.5042   60.8415 C   0  0  0  0  0  0  0  0  0  0  0  0
   30.4303    8.3657   61.7041 N   0  0  0  0  0  0  0  0  0  0  0  0
   29.0455    8.0516   61.7024 C   0  0  0  0  0  0  0  0  0  0  0  0
   23.8343    8.2241   53.8720 N   0  0  0  0  0  0  0  0  0  0  0  0
   22.5798    7.8241   54.3440 C   0  0  0  0  0  0  0  0  0  0  0  0
   22.2552    7.6903   55.5372 O   0  0  0  0  0  0  0  0  0  0  0  0
   23.9278    8.2830   52.8095 H   0  0  0  0  0  0  0  0  0  0  0  0
   21.5314    7.5284   53.3575 C   0  0  0  0  0  0  0  0  0  0  0  0
   21.0665    6.3225   53.0690 N   0  0  0  0  0  0  0  0  0  0  0  0
   20.1248    6.4336   52.1287 C   0  0  0  0  0  0  0  0  0  0  0  0
   19.9910    7.7688   51.8113 C   0  0  0  0  0  0  0  0  0  0  0  0
   20.8751    8.4078   52.5905 N   0  0  0  0  0  0  0  0  0  0  0  0
   20.9893    9.4571   52.5564 H   0  0  0  0  0  0  0  0  0  0  0  0
   19.1011    8.3704   50.8529 C   0  0  0  0  0  0  0  0  0  0  0  0
   18.3642    8.8566   50.0752 N   0  0  0  0  0  0  0  0  0  0  0  0
 16 17  1  0  0  0
 17 18  1  0  0  0
 17 15  1  0  0  0
 15  7  1  0  0  0
  7  8  2  0  0  0
  7  9  1  0  0  0
  9 10  1  0  0  0
 10 11  1  0  0  0
 11 12  1  0  0  0
 12 13  1  0  0  0
 13 14  1  0  0  0
 12  1  1  0  0  0
  1  2  2  0  0  0
  2  3  1  0  0  0
  3  4  2  0  0  0
  4 19  1  0  0  0
 19 20  1  0  0  0
 20 21  2  0  0  0
 20 23  1  0  0  0
 23 24  2  0  0  0
 24 25  1  0  0  0
 25 26  2  0  0  0
 26 27  1  0  0  0
 26 29  1  0  0  0
 29 30  3  0  0  0
  4  5  1  0  0  0
  5  6  2  0  0  0
 14  9  1  0  0  0
  6  1  1  0  0  0
 27 23  1  0  0  0
 19 22  1  0  0  0
 27 28  1  0  0  0
M  END
> <minimizedAffinity>
14.17777

> <CNNscore>
0.5334045291

> <CNNaffinity>
6.1785578728

> <CNN_VS>
3.2956707478

> <CNNaffinity_variance>
0.6228076220

$$$$
[H]c1nc(C(=O)N([H])c2c([H])c([H])c(C3([H])C([H])([H])C([H])([H])N(C(=O)C([H])([H])N(C([H])([H])[H])C([H])([H])[H])C([H])([H])C3([H])[H])c([H])c2[H])n([H])c1C#N


 30 32  0  0  0  0  0  0  0  0999 V2000
   24.5982    8.5863   54.8833 C   0  0  0  0  0  0  0  0  0  0  0  0
   24.6224    8.0315   53.6352 C   0  0  0  0  0  0  0  0  0  0  0  0
   23.5348    8.1835   52.7632 C   0  0  0  0  0  0  0  0  0  0  0  0
   22.4048    8.8833   53.1029 C   0  0  0  0  0  0  0  0  0  0  0  0
   22.3968    9.4481   54.3935 C   0  0  0  0  0  0  0  0  0  0  0  0
   23.4640    9.2872   55.2224 C   0  0  0  0  0  0  0  0  0  0  0  0
   28.7691    9.8001   58.2500 C   0  0  0  0  0  0  0  0  0  0  0  0
   29.6657    8.8120   58.3149 O   0  0  0  0  0  0  0  0  0  0  0  0
   27.8987    9.7735   57.1578 N   0  0  0  0  0  0  0  0  0  0  0  0
   28.1933    8.7816   56.0656 C   0  0  0  0  0  0  0  0  0  0  0  0
   27.0054    8.6715   55.1727 C   0  0  0  0  0  0  0  0  0  0  0  0
   25.6922    8.4918   55.8752 C   0  0  0  0  0  0  0  0  0  0  0  0
   25.5656    9.4227   57.0069 C   0  0  0  0  0  0  0  0  0  0  0  0
   26.6834   10.4850   56.9419 C   0  0  0  0  0  0  0  0  0  0  0  0
   28.8843   10.7141   59.3514 C   0  0  0  0  0  0  0  0  0  0  0  0
   28.5746   11.2114   61.6725 C   0  0  0  0  0  0  0  0  0  0  0  0
   28.8351   10.1974   60.6509 N   0  0  0  0  0  0  0  0  0  0  0  0
   29.8043    9.2305   61.0280 C   0  0  0  0  0  0  0  0  0  0  0  0
   21.2775    9.0768   52.2691 N   0  0  0  0  0  0  0  0  0  0  0  0
   20.1126    8.3082   52.1743 C   0  0  0  0  0  0  0  0  0  0  0  0
   19.8560    7.2839   52.8315 O   0  0  0  0  0  0  0  0  0  0  0  0
   21.3213    9.9259   51.6224 H   0  0  0  0  0  0  0  0  0  0  0  0
   19.0815    8.7298   51.2158 C   0  0  0  0  0  0  0  0  0  0  0  0
   17.8539    8.2388   51.1429 N   0  0  0  0  0  0  0  0  0  0  0  0
   17.1976    8.8549   50.1565 C   0  0  0  0  0  0  0  0  0  0  0  0
   18.0499    9.7746   49.5830 C   0  0  0  0  0  0  0  0  0  0  0  0
   19.1989    9.6650   50.2649 N   0  0  0  0  0  0  0  0  0  0  0  0
   20.0403   10.2605   50.0354 H   0  0  0  0  0  0  0  0  0  0  0  0
   17.7856   10.6698   48.4871 C   0  0  0  0  0  0  0  0  0  0  0  0
   17.5695   11.4111   47.5994 N   0  0  0  0  0  0  0  0  0  0  0  0
 16 17  1  0  0  0
 17 18  1  0  0  0
 17 15  1  0  0  0
 15  7  1  0  0  0
  7  8  2  0  0  0
  7  9  1  0  0  0
  9 10  1  0  0  0
 10 11  1  0  0  0
 11 12  1  0  0  0
 12 13  1  0  0  0
 13 14  1  0  0  0
 12  1  1  0  0  0
  1  2  2  0  0  0
  2  3  1  0  0  0
  3  4  2  0  0  0
  4 19  1  0  0  0
 19 20  1  0  0  0
 20 21  2  0  0  0
 20 23  1  0  0  0
 23 24  2  0  0  0
 24 25  1  0  0  0
 25 26  2  0  0  0
 26 27  1  0  0  0
 26 29  1  0  0  0
 29 30  3  0  0  0
  4  5  1  0  0  0
  5  6  2  0  0  0
 14  9  1  0  0  0
  6  1  1  0  0  0
 27 23  1  0  0  0
 19 22  1  0  0  0
 27 28  1  0  0  0
M  END
> <minimizedAffinity>
40.40823

> <CNNscore>
0.4901722670

> <CNNaffinity>
5.8620586395

> <CNN_VS>
2.8734185696

> <CNNaffinity_variance>
0.8739998937

$$$$
[H]c1nc(C(=O)N([H])c2c([H])c([H])c(C3([H])C([H])([H])C([H])([H])N(C(=O)C([H])([H])N(C([H])([H])[H])C([H])([H])[H])C([H])([H])C3([H])[H])c([H])c2[H])n([H])c1C#N


 30 32  0  0  0  0  0  0  0  0999 V2000
   25.5881    8.7995   54.8494 C   0  0  0  0  0  0  0  0  0  0  0  0
   26.9142    8.9286   54.5475 C   0  0  0  0  0  0  0  0  0  0  0  0
   27.8167    9.4387   55.4917 C   0  0  0  0  0  0  0  0  0  0  0  0
   27.4316    9.8307   56.7487 C   0  0  0  0  0  0  0  0  0  0  0  0
   26.0609    9.6910   57.0427 C   0  0  0  0  0  0  0  0  0  0  0  0
   25.2037    9.1936   56.1102 C   0  0  0  0  0  0  0  0  0  0  0  0
   20.7849    7.4341   52.5539 C   0  0  0  0  0  0  0  0  0  0  0  0
   20.8434    6.2535   51.9317 O   0  0  0  0  0  0  0  0  0  0  0  0
   21.7953    7.6935   53.4829 N   0  0  0  0  0  0  0  0  0  0  0  0
   22.7056    6.5526   53.8477 C   0  0  0  0  0  0  0  0  0  0  0  0
   23.8914    7.0874   54.5746 C   0  0  0  0  0  0  0  0  0  0  0  0
   24.5567    8.2679   53.9312 C   0  0  0  0  0  0  0  0  0  0  0  0
   23.5643    9.2617   53.4945 C   0  0  0  0  0  0  0  0  0  0  0  0
   22.1820    8.9223   54.0914 C   0  0  0  0  0  0  0  0  0  0  0  0
   19.6629    8.2212   52.1256 C   0  0  0  0  0  0  0  0  0  0  0  0
   19.8596    7.8932   49.7624 C   0  0  0  0  0  0  0  0  0  0  0  0
   19.0036    7.8516   50.9480 N   0  0  0  0  0  0  0  0  0  0  0  0
   17.6885    8.3413   50.7306 C   0  0  0  0  0  0  0  0  0  0  0  0
   28.2917   10.3479   57.7468 N   0  0  0  0  0  0  0  0  0  0  0  0
   28.5610    9.8418   59.0227 C   0  0  0  0  0  0  0  0  0  0  0  0
   28.0736    8.8108   59.5192 O   0  0  0  0  0  0  0  0  0  0  0  0
   28.8060   11.2488   57.4921 H   0  0  0  0  0  0  0  0  0  0  0  0
   29.5040   10.5796   59.8749 C   0  0  0  0  0  0  0  0  0  0  0  0
   30.4578   10.0355   60.6149 N   0  0  0  0  0  0  0  0  0  0  0  0
   31.1169   11.0045   61.2551 C   0  0  0  0  0  0  0  0  0  0  0  0
   30.5529   12.2123   60.9023 C   0  0  0  0  0  0  0  0  0  0  0  0
   29.5636   11.9055   60.0514 N   0  0  0  0  0  0  0  0  0  0  0  0
   28.9538   12.6499   59.6163 H   0  0  0  0  0  0  0  0  0  0  0  0
   30.9280   13.5312   61.3409 C   0  0  0  0  0  0  0  0  0  0  0  0
   31.2463   14.6051   61.7009 N   0  0  0  0  0  0  0  0  0  0  0  0
 16 17  1  0  0  0
 17 18  1  0  0  0
 17 15  1  0  0  0
 15  7  1  0  0  0
  7  8  2  0  0  0
  7  9  1  0  0  0
  9 10  1  0  0  0
 10 11  1  0  0  0
 11 12  1  0  0  0
 12 13  1  0  0  0
 13 14  1  0  0  0
 12  1  1  0  0  0
  1  2  2  0  0  0
  2  3  1  0  0  0
  3  4  2  0  0  0
  4 19  1  0  0  0
 19 20  1  0  0  0
 20 21  2  0  0  0
 20 23  1  0  0  0
 23 24  2  0  0  0
 24 25  1  0  0  0
 25 26  2  0  0  0
 26 27  1  0  0  0
 26 29  1  0  0  0
 29 30  3  0  0  0
  4  5  1  0  0  0
  5  6  2  0  0  0
 14  9  1  0  0  0
  6  1  1  0  0  0
 27 23  1  0  0  0
 19 22  1  0  0  0
 27 28  1  0  0  0
M  END
> <minimizedAffinity>
20.22741

> <CNNscore>
0.4733625352

> <CNNaffinity>
5.9237251282

> <CNN_VS>
2.8040695190

> <CNNaffinity_variance>
0.2432756424

$$$$
[H]c1nc([H])c(-c2c(O[C@]3([H])C([H])([H])OC([H])([H])C3([H])[H])nc3sc(N([H])C(=O)N([H])C([H])([H])C([H])([H])[H])nc3c2[H])c([H])c1[H]


 29 32  0  0  0  0  0  0  0  0999 V2000
   21.1376    7.2446   53.4939 C   0  0  0  0  0  0  0  0  0  0  0  0
   22.0860    7.4885   54.3728 N   0  0  0  0  0  0  0  0  0  0  0  0
   23.2813    7.7970   53.9740 C   0  0  0  0  0  0  0  0  0  0  0  0
   24.3899    8.0824   54.7963 C   0  0  0  0  0  0  0  0  0  0  0  0
   25.5870    8.3914   54.2035 C   0  0  0  0  0  0  0  0  0  0  0  0
   25.7998    8.4473   52.8417 C   0  0  0  0  0  0  0  0  0  0  0  0
   24.7276    8.1713   52.0780 N   0  0  0  0  0  0  0  0  0  0  0  0
   23.5128    7.8577   52.6278 C   0  0  0  0  0  0  0  0  0  0  0  0
   21.9657    7.4591   52.0036 S   0  0  0  0  0  0  0  0  0  0  0  0
   18.0212    5.1347   53.9262 N   0  0  0  0  0  0  0  0  0  0  0  0
   19.3453    5.5505   53.7142 C   0  0  0  0  0  0  0  0  0  0  0  0
   20.2070    4.6296   53.5062 O   0  0  0  0  0  0  0  0  0  0  0  0
   19.7595    6.8891   53.7192 N   0  0  0  0  0  0  0  0  0  0  0  0
   17.3098    5.9055   54.0986 H   0  0  0  0  0  0  0  0  0  0  0  0
   19.0882    7.6557   53.8842 H   0  0  0  0  0  0  0  0  0  0  0  0
   16.0954    3.6226   53.9074 C   0  0  0  0  0  0  0  0  0  0  0  0
   17.5875    3.7656   53.9229 C   0  0  0  0  0  0  0  0  0  0  0  0
   26.7412    8.6837   55.0535 C   0  0  0  0  0  0  0  0  0  0  0  0
   28.0201    8.4138   54.6302 C   0  0  0  0  0  0  0  0  0  0  0  0
   29.0795    8.7095   55.4643 C   0  0  0  0  0  0  0  0  0  0  0  0
   28.8540    9.2703   56.7100 C   0  0  0  0  0  0  0  0  0  0  0  0
   27.5997    9.5312   57.1167 N   0  0  0  0  0  0  0  0  0  0  0  0
   26.5592    9.2409   56.2975 C   0  0  0  0  0  0  0  0  0  0  0  0
   27.0185    8.7626   52.2978 O   0  0  0  0  0  0  0  0  0  0  0  0
   27.1911    9.6625   51.2477 C   0  0  0  0  0  0  0  0  0  0  0  0
   28.4822   10.4289   51.3341 C   0  0  0  0  0  0  0  0  0  0  0  0
   28.8699   10.5636   49.8769 C   0  0  0  0  0  0  0  0  0  0  0  0
   28.5242    9.3039   49.3751 O   0  0  0  0  0  0  0  0  0  0  0  0
   27.2750    9.0070   49.9024 C   0  0  0  0  0  0  0  0  0  0  0  0
 16 17  1  0  0  0
 17 10  1  0  0  0
 10 11  1  0  0  0
 11 12  2  0  0  0
 11 13  1  0  0  0
 13  1  1  0  0  0
  1  2  2  0  0  0
  2  3  1  0  0  0
  3  4  2  0  0  0
  4  5  1  0  0  0
  5 18  1  0  0  0
 18 19  2  0  0  0
 19 20  1  0  0  0
 20 21  2  0  0  0
 21 22  1  0  0  0
 22 23  2  0  0  0
  5  6  2  0  0  0
  6 24  1  0  0  0
 24 25  1  0  0  0
 25 26  1  0  0  0
 26 27  1  0  0  0
 27 28  1  0  0  0
 28 29  1  0  0  0
  6  7  1  0  0  0
  7  8  2  0  0  0
  8  9  1  0  0  0
  9  1  1  0  0  0
  8  3  1  0  0  0
 23 18  1  0  0  0
 29 25  1  0  0  0
 10 14  1  0  0  0
 13 15  1  0  0  0
M  END
> <minimizedAffinity>
26.97625

> <CNNscore>
0.5615352392

> <CNNaffinity>
6.0484824181

> <CNN_VS>
3.3964359760

> <CNNaffinity_variance>
0.4216313362

$$$$
[H]c1nc([H])c(-c2c(O[C@]3([H])C([H])([H])OC([H])([H])C3([H])[H])nc3sc(N([H])C(=O)N([H])C([H])([H])C([H])([H])[H])nc3c2[H])c([H])c1[H]


 29 32  0  0  0  0  0  0  0  0999 V2000
   20.9799    7.2163   53.6515 C   0  0  0  0  0  0  0  0  0  0  0  0
   21.7263    7.6533   54.6432 N   0  0  0  0  0  0  0  0  0  0  0  0
   22.9367    8.0620   54.4176 C   0  0  0  0  0  0  0  0  0  0  0  0
   23.8459    8.5536   55.3759 C   0  0  0  0  0  0  0  0  0  0  0  0
   25.0928    8.9446   54.9607 C   0  0  0  0  0  0  0  0  0  0  0  0
   25.5392    8.8958   53.6564 C   0  0  0  0  0  0  0  0  0  0  0  0
   24.6543    8.4234   52.7605 N   0  0  0  0  0  0  0  0  0  0  0  0
   23.3983    8.0216   53.1312 C   0  0  0  0  0  0  0  0  0  0  0  0
   22.0358    7.3849   52.3064 S   0  0  0  0  0  0  0  0  0  0  0  0
   18.0632    4.8088   53.8678 N   0  0  0  0  0  0  0  0  0  0  0  0
   19.3554    5.3562   53.8303 C   0  0  0  0  0  0  0  0  0  0  0  0
   20.3278    4.5339   53.9408 O   0  0  0  0  0  0  0  0  0  0  0  0
   19.6264    6.7230   53.6819 N   0  0  0  0  0  0  0  0  0  0  0  0
   17.2593    5.4981   53.7754 H   0  0  0  0  0  0  0  0  0  0  0  0
   18.8635    7.4123   53.5904 H   0  0  0  0  0  0  0  0  0  0  0  0
   17.5382    2.7145   52.7129 C   0  0  0  0  0  0  0  0  0  0  0  0
   17.7758    3.4098   54.0194 C   0  0  0  0  0  0  0  0  0  0  0  0
   26.0408    9.4511   55.9529 C   0  0  0  0  0  0  0  0  0  0  0  0
   26.9573    8.6181   56.5478 C   0  0  0  0  0  0  0  0  0  0  0  0
   27.8352    9.1403   57.4763 C   0  0  0  0  0  0  0  0  0  0  0  0
   27.7909   10.4853   57.8022 C   0  0  0  0  0  0  0  0  0  0  0  0
   26.8911   11.2935   57.2158 N   0  0  0  0  0  0  0  0  0  0  0  0
   26.0290   10.7807   56.3038 C   0  0  0  0  0  0  0  0  0  0  0  0
   26.7978    9.3003   53.2919 O   0  0  0  0  0  0  0  0  0  0  0  0
   27.9136    8.4651   53.2950 C   0  0  0  0  0  0  0  0  0  0  0  0
   29.0027    8.9396   54.2172 C   0  0  0  0  0  0  0  0  0  0  0  0
   29.5654    7.6358   54.7418 C   0  0  0  0  0  0  0  0  0  0  0  0
   28.4022    6.8802   54.9264 O   0  0  0  0  0  0  0  0  0  0  0  0
   27.6265    7.0808   53.7929 C   0  0  0  0  0  0  0  0  0  0  0  0
 16 17  1  0  0  0
 17 10  1  0  0  0
 10 11  1  0  0  0
 11 12  2  0  0  0
 11 13  1  0  0  0
 13  1  1  0  0  0
  1  2  2  0  0  0
  2  3  1  0  0  0
  3  4  2  0  0  0
  4  5  1  0  0  0
  5 18  1  0  0  0
 18 19  2  0  0  0
 19 20  1  0  0  0
 20 21  2  0  0  0
 21 22  1  0  0  0
 22 23  2  0  0  0
  5  6  2  0  0  0
  6 24  1  0  0  0
 24 25  1  0  0  0
 25 26  1  0  0  0
 26 27  1  0  0  0
 27 28  1  0  0  0
 28 29  1  0  0  0
  6  7  1  0  0  0
  7  8  2  0  0  0
  8  9  1  0  0  0
  9  1  1  0  0  0
  8  3  1  0  0  0
 23 18  1  0  0  0
 29 25  1  0  0  0
 10 14  1  0  0  0
 13 15  1  0  0  0
M  END
> <minimizedAffinity>
32.47905

> <CNNscore>
0.5369579792

> <CNNaffinity>
5.9776401520

> <CNN_VS>
3.2097415924

> <CNNaffinity_variance>
0.5087703466

$$$$
[H]c1nc([H])c(-c2c(O[C@]3([H])C([H])([H])OC([H])([H])C3([H])[H])nc3sc(N([H])C(=O)N([H])C([H])([H])C([H])([H])[H])nc3c2[H])c([H])c1[H]


 29 32  0  0  0  0  0  0  0  0999 V2000
   20.2918    4.8254   53.3995 C   0  0  0  0  0  0  0  0  0  0  0  0
   21.5961    4.9925   53.4469 N   0  0  0  0  0  0  0  0  0  0  0  0
   22.0949    6.1307   53.8193 C   0  0  0  0  0  0  0  0  0  0  0  0
   23.4637    6.4523   53.9172 C   0  0  0  0  0  0  0  0  0  0  0  0
   23.8162    7.7113   54.3302 C   0  0  0  0  0  0  0  0  0  0  0  0
   22.9239    8.7087   54.6645 C   0  0  0  0  0  0  0  0  0  0  0  0
   21.6241    8.3783   54.5632 N   0  0  0  0  0  0  0  0  0  0  0  0
   21.2269    7.1325   54.1547 C   0  0  0  0  0  0  0  0  0  0  0  0
   19.7146    6.3615   53.9093 S   0  0  0  0  0  0  0  0  0  0  0  0
   17.3800    2.4406   52.9699 N   0  0  0  0  0  0  0  0  0  0  0  0
   18.1724    3.5482   53.3110 C   0  0  0  0  0  0  0  0  0  0  0  0
   17.5856    4.5028   53.9261 O   0  0  0  0  0  0  0  0  0  0  0  0
   19.5385    3.6575   53.0189 N   0  0  0  0  0  0  0  0  0  0  0  0
   17.8741    1.6504   52.4586 H   0  0  0  0  0  0  0  0  0  0  0  0
   20.0411    2.9043   52.5234 H   0  0  0  0  0  0  0  0  0  0  0  0
   15.3315    3.6331   53.5840 C   0  0  0  0  0  0  0  0  0  0  0  0
   15.9797    2.3197   53.2651 C   0  0  0  0  0  0  0  0  0  0  0  0
   25.2358    8.0504   54.4289 C   0  0  0  0  0  0  0  0  0  0  0  0
   25.7769    8.5012   55.6086 C   0  0  0  0  0  0  0  0  0  0  0  0
   27.1224    8.8059   55.6565 C   0  0  0  0  0  0  0  0  0  0  0  0
   27.9139    8.6586   54.5301 C   0  0  0  0  0  0  0  0  0  0  0  0
   27.3768    8.2172   53.3797 N   0  0  0  0  0  0  0  0  0  0  0  0
   26.0554    7.9178   53.3326 C   0  0  0  0  0  0  0  0  0  0  0  0
   23.3282    9.9536   55.0733 O   0  0  0  0  0  0  0  0  0  0  0  0
   22.6722   11.1347   54.7312 C   0  0  0  0  0  0  0  0  0  0  0  0
   22.6988   11.4175   53.2544 C   0  0  0  0  0  0  0  0  0  0  0  0
   21.3442   12.0546   53.0284 C   0  0  0  0  0  0  0  0  0  0  0  0
   20.5239   11.2727   53.8492 O   0  0  0  0  0  0  0  0  0  0  0  0
   21.2072   11.1218   55.0480 C   0  0  0  0  0  0  0  0  0  0  0  0
 16 17  1  0  0  0
 17 10  1  0  0  0
 10 11  1  0  0  0
 11 12  2  0  0  0
 11 13  1  0  0  0
 13  1  1  0  0  0
  1  2  2  0  0  0
  2  3  1  0  0  0
  3  4  2  0  0  0
  4  5  1  0  0  0
  5 18  1  0  0  0
 18 19  2  0  0  0
 19 20  1  0  0  0
 20 21  2  0  0  0
 21 22  1  0  0  0
 22 23  2  0  0  0
  5  6  2  0  0  0
  6 24  1  0  0  0
 24 25  1  0  0  0
 25 26  1  0  0  0
 26 27  1  0  0  0
 27 28  1  0  0  0
 28 29  1  0  0  0
  6  7  1  0  0  0
  7  8  2  0  0  0
  8  9  1  0  0  0
  9  1  1  0  0  0
  8  3  1  0  0  0
 23 18  1  0  0  0
 29 25  1  0  0  0
 10 14  1  0  0  0
 13 15  1  0  0  0
M  END
> <minimizedAffinity>
22.72555

> <CNNscore>
0.5036302209

> <CNNaffinity>
6.0834441185

> <CNN_VS>
3.0638062954

> <CNNaffinity_variance>
0.3304847181

$$$$
[H]c1nc([H])c(-c2c(O[C@]3([H])C([H])([H])OC([H])([H])C3([H])[H])nc3sc(N([H])C(=O)N([H])C([H])([H])C([H])([H])[H])nc3c2[H])c([H])c1[H]


 29 32  0  0  0  0  0  0  0  0999 V2000
   20.2490    4.7200   53.2689 C   0  0  0  0  0  0  0  0  0  0  0  0
   21.5062    4.8758   53.6247 N   0  0  0  0  0  0  0  0  0  0  0  0
   22.0336    6.0607   53.6548 C   0  0  0  0  0  0  0  0  0  0  0  0
   23.3592    6.3774   54.0138 C   0  0  0  0  0  0  0  0  0  0  0  0
   23.7518    7.6910   53.9902 C   0  0  0  0  0  0  0  0  0  0  0  0
   22.9399    8.7488   53.6371 C   0  0  0  0  0  0  0  0  0  0  0  0
   21.6800    8.4218   53.2986 N   0  0  0  0  0  0  0  0  0  0  0  0
   21.2453    7.1228   53.3081 C   0  0  0  0  0  0  0  0  0  0  0  0
   19.7626    6.3374   52.9524 S   0  0  0  0  0  0  0  0  0  0  0  0
   17.2819    2.3653   53.3146 N   0  0  0  0  0  0  0  0  0  0  0  0
   18.0935    3.5080   53.3950 C   0  0  0  0  0  0  0  0  0  0  0  0
   17.5086    4.6044   53.6946 O   0  0  0  0  0  0  0  0  0  0  0  0
   19.4764    3.5078   53.1691 N   0  0  0  0  0  0  0  0  0  0  0  0
   17.7746    1.4571   53.0650 H   0  0  0  0  0  0  0  0  0  0  0  0
   19.9780    2.6392   52.9253 H   0  0  0  0  0  0  0  0  0  0  0  0
   15.3168    3.7078   53.8903 C   0  0  0  0  0  0  0  0  0  0  0  0
   15.8643    2.3559   53.5445 C   0  0  0  0  0  0  0  0  0  0  0  0
   25.1281    8.0233   54.3578 C   0  0  0  0  0  0  0  0  0  0  0  0
   26.1802    7.6956   53.5371 C   0  0  0  0  0  0  0  0  0  0  0  0
   27.4622    8.0321   53.9227 C   0  0  0  0  0  0  0  0  0  0  0  0
   27.6826    8.6907   55.1205 C   0  0  0  0  0  0  0  0  0  0  0  0
   26.6479    9.0076   55.9178 N   0  0  0  0  0  0  0  0  0  0  0  0
   25.3888    8.6773   55.5391 C   0  0  0  0  0  0  0  0  0  0  0  0
   23.3812   10.0471   53.6303 O   0  0  0  0  0  0  0  0  0  0  0  0
   22.7196   11.0959   54.2665 C   0  0  0  0  0  0  0  0  0  0  0  0
   21.4527   11.5047   53.5668 C   0  0  0  0  0  0  0  0  0  0  0  0
   20.5526   11.8713   54.7276 C   0  0  0  0  0  0  0  0  0  0  0  0
   20.8664   10.8714   55.6549 O   0  0  0  0  0  0  0  0  0  0  0  0
   22.2499   10.7591   55.6495 C   0  0  0  0  0  0  0  0  0  0  0  0
 16 17  1  0  0  0
 17 10  1  0  0  0
 10 11  1  0  0  0
 11 12  2  0  0  0
 11 13  1  0  0  0
 13  1  1  0  0  0
  1  2  2  0  0  0
  2  3  1  0  0  0
  3  4  2  0  0  0
  4  5  1  0  0  0
  5 18  1  0  0  0
 18 19  2  0  0  0
 19 20  1  0  0  0
 20 21  2  0  0  0
 21 22  1  0  0  0
 22 23  2  0  0  0
  5  6  2  0  0  0
  6 24  1  0  0  0
 24 25  1  0  0  0
 25 26  1  0  0  0
 26 27  1  0  0  0
 27 28  1  0  0  0
 28 29  1  0  0  0
  6  7  1  0  0  0
  7  8  2  0  0  0
  8  9  1  0  0  0
  9  1  1  0  0  0
  8  3  1  0  0  0
 23 18  1  0  0  0
 29 25  1  0  0  0
 10 14  1  0  0  0
 13 15  1  0  0  0
M  END
> <minimizedAffinity>
22.81857

> <CNNscore>
0.4899476767

> <CNNaffinity>
6.1913142204

> <CNN_VS>
3.0334200859

> <CNNaffinity_variance>
0.4271871448

$$$$
[H]c1nc([H])c(-c2c(O[C@]3([H])C([H])([H])OC([H])([H])C3([H])[H])nc3sc(N([H])C(=O)N([H])C([H])([H])C([H])([H])[H])nc3c2[H])c([H])c1[H]


 29 32  0  0  0  0  0  0  0  0999 V2000
   20.9724    7.4746   53.7804 C   0  0  0  0  0  0  0  0  0  0  0  0
   22.2254    7.1544   53.5379 N   0  0  0  0  0  0  0  0  0  0  0  0
   23.1887    7.8296   54.0848 C   0  0  0  0  0  0  0  0  0  0  0  0
   24.5696    7.6021   53.9175 C   0  0  0  0  0  0  0  0  0  0  0  0
   25.4554    8.4168   54.5746 C   0  0  0  0  0  0  0  0  0  0  0  0
   25.0991    9.4611   55.4024 C   0  0  0  0  0  0  0  0  0  0  0  0
   23.7765    9.6585   55.5463 N   0  0  0  0  0  0  0  0  0  0  0  0
   22.8565    8.8689   54.9087 C   0  0  0  0  0  0  0  0  0  0  0  0
   21.1434    8.8116   54.8460 S   0  0  0  0  0  0  0  0  0  0  0  0
   18.2304    4.9192   53.2301 N   0  0  0  0  0  0  0  0  0  0  0  0
   19.3904    5.5726   53.6759 C   0  0  0  0  0  0  0  0  0  0  0  0
   20.1328    4.9262   54.4912 O   0  0  0  0  0  0  0  0  0  0  0  0
   19.7658    6.8641   53.2825 N   0  0  0  0  0  0  0  0  0  0  0  0
   17.6176    5.4624   52.5524 H   0  0  0  0  0  0  0  0  0  0  0  0
   19.1879    7.4120   52.6257 H   0  0  0  0  0  0  0  0  0  0  0  0
   16.4737    3.5502   54.2474 C   0  0  0  0  0  0  0  0  0  0  0  0
   17.8377    3.5962   53.6276 C   0  0  0  0  0  0  0  0  0  0  0  0
   26.8895    8.1868   54.4000 C   0  0  0  0  0  0  0  0  0  0  0  0
   27.8001    9.1937   54.6116 C   0  0  0  0  0  0  0  0  0  0  0  0
   29.1440    8.9303   54.4384 C   0  0  0  0  0  0  0  0  0  0  0  0
   29.5663    7.6682   54.0565 C   0  0  0  0  0  0  0  0  0  0  0  0
   28.6690    6.6887   53.8512 N   0  0  0  0  0  0  0  0  0  0  0  0
   27.3491    6.9472   54.0215 C   0  0  0  0  0  0  0  0  0  0  0  0
   26.0254   10.2474   56.0382 O   0  0  0  0  0  0  0  0  0  0  0  0
   26.4880   10.0114   57.3315 C   0  0  0  0  0  0  0  0  0  0  0  0
   27.3828    8.8065   57.4269 C   0  0  0  0  0  0  0  0  0  0  0  0
   28.3860    9.2379   58.4755 C   0  0  0  0  0  0  0  0  0  0  0  0
   28.5994   10.5765   58.1283 O   0  0  0  0  0  0  0  0  0  0  0  0
   27.3456   11.1148   57.8736 C   0  0  0  0  0  0  0  0  0  0  0  0
 16 17  1  0  0  0
 17 10  1  0  0  0
 10 11  1  0  0  0
 11 12  2  0  0  0
 11 13  1  0  0  0
 13  1  1  0  0  0
  1  2  2  0  0  0
  2  3  1  0  0  0
  3  4  2  0  0  0
  4  5  1  0  0  0
  5 18  1  0  0  0
 18 19  2  0  0  0
 19 20  1  0  0  0
 20 21  2  0  0  0
 21 22  1  0  0  0
 22 23  2  0  0  0
  5  6  2  0  0  0
  6 24  1  0  0  0
 24 25  1  0  0  0
 25 26  1  0  0  0
 26 27  1  0  0  0
 27 28  1  0  0  0
 28 29  1  0  0  0
  6  7  1  0  0  0
  7  8  2  0  0  0
  8  9  1  0  0  0
  9  1  1  0  0  0
  8  3  1  0  0  0
 23 18  1  0  0  0
 29 25  1  0  0  0
 10 14  1  0  0  0
 13 15  1  0  0  0
M  END
> <minimizedAffinity>
23.13644

> <CNNscore>
0.4867419302

> <CNNaffinity>
5.9114661217

> <CNN_VS>
2.8773584366

> <CNNaffinity_variance>
0.4811450839

$$$$
[H]c1nc([H])c(-c2c(O[C@]3([H])C([H])([H])OC([H])([H])C3([H])[H])nc3sc(N([H])C(=O)N([H])C([H])([H])C([H])([H])[H])nc3c2[H])c([H])c1[H]


 29 32  0  0  0  0  0  0  0  0999 V2000
   27.6542    9.2176   52.0391 C   0  0  0  0  0  0  0  0  0  0  0  0
   26.4640    8.7915   51.6740 N   0  0  0  0  0  0  0  0  0  0  0  0
   25.6005    8.4222   52.5690 C   0  0  0  0  0  0  0  0  0  0  0  0
   24.2959    7.9470   52.3267 C   0  0  0  0  0  0  0  0  0  0  0  0
   23.5128    7.5985   53.3970 C   0  0  0  0  0  0  0  0  0  0  0  0
   23.9045    7.6765   54.7173 C   0  0  0  0  0  0  0  0  0  0  0  0
   25.1529    8.1326   54.9232 N   0  0  0  0  0  0  0  0  0  0  0  0
   25.9695    8.4918   53.8837 C   0  0  0  0  0  0  0  0  0  0  0  0
   27.5690    9.0967   53.7510 S   0  0  0  0  0  0  0  0  0  0  0  0
   29.5511   10.6024   49.0668 N   0  0  0  0  0  0  0  0  0  0  0  0
   28.5323   10.1477   49.9189 C   0  0  0  0  0  0  0  0  0  0  0  0
   27.3415   10.1830   49.4555 O   0  0  0  0  0  0  0  0  0  0  0  0
   28.7488    9.6695   51.2182 N   0  0  0  0  0  0  0  0  0  0  0  0
   30.5388   10.5703   49.4584 H   0  0  0  0  0  0  0  0  0  0  0  0
   29.6982    9.6284   51.6213 H   0  0  0  0  0  0  0  0  0  0  0  0
   28.7893   12.4882   47.7035 C   0  0  0  0  0  0  0  0  0  0  0  0
   29.3388   11.0939   47.7342 C   0  0  0  0  0  0  0  0  0  0  0  0
   22.1597    7.1006   53.1495 C   0  0  0  0  0  0  0  0  0  0  0  0
   21.7468    5.8901   53.6513 C   0  0  0  0  0  0  0  0  0  0  0  0
   20.4597    5.4616   53.3956 C   0  0  0  0  0  0  0  0  0  0  0  0
   19.5985    6.2425   52.6435 C   0  0  0  0  0  0  0  0  0  0  0  0
   20.0103    7.4255   52.1561 N   0  0  0  0  0  0  0  0  0  0  0  0
   21.2744    7.8465   52.4072 C   0  0  0  0  0  0  0  0  0  0  0  0
   23.0818    7.3158   55.7534 O   0  0  0  0  0  0  0  0  0  0  0  0
   22.0997    8.1460   56.2907 C   0  0  0  0  0  0  0  0  0  0  0  0
   22.3343    9.6025   55.9987 C   0  0  0  0  0  0  0  0  0  0  0  0
   20.9237   10.1213   55.8171 C   0  0  0  0  0  0  0  0  0  0  0  0
   20.3277    9.0752   55.1040 O   0  0  0  0  0  0  0  0  0  0  0  0
   20.7326    7.9026   55.7265 C   0  0  0  0  0  0  0  0  0  0  0  0
 16 17  1  0  0  0
 17 10  1  0  0  0
 10 11  1  0  0  0
 11 12  2  0  0  0
 11 13  1  0  0  0
 13  1  1  0  0  0
  1  2  2  0  0  0
  2  3  1  0  0  0
  3  4  2  0  0  0
  4  5  1  0  0  0
  5 18  1  0  0  0
 18 19  2  0  0  0
 19 20  1  0  0  0
 20 21  2  0  0  0
 21 22  1  0  0  0
 22 23  2  0  0  0
  5  6  2  0  0  0
  6 24  1  0  0  0
 24 25  1  0  0  0
 25 26  1  0  0  0
 26 27  1  0  0  0
 27 28  1  0  0  0
 28 29  1  0  0  0
  6  7  1  0  0  0
  7  8  2  0  0  0
  8  9  1  0  0  0
  9  1  1  0  0  0
  8  3  1  0  0  0
 23 18  1  0  0  0
 29 25  1  0  0  0
 10 14  1  0  0  0
 13 15  1  0  0  0
M  END
> <minimizedAffinity>
28.29632

> <CNNscore>
0.4695633650

> <CNNaffinity>
5.7668404579

> <CNN_VS>
2.7078969479

> <CNNaffinity_variance>
0.4764543474

$$$$
[H]c1nc([H])c(-c2c(O[C@]3([H])C([H])([H])OC([H])([H])C3([H])[H])nc3sc(N([H])C(=O)N([H])C([H])([H])C([H])([H])[H])nc3c2[H])c([H])c1[H]


 29 32  0  0  0  0  0  0  0  0999 V2000
   18.5204    4.7195   53.7773 C   0  0  0  0  0  0  0  0  0  0  0  0
   18.5752    6.0125   53.5395 N   0  0  0  0  0  0  0  0  0  0  0  0
   19.7190    6.5908   53.3384 C   0  0  0  0  0  0  0  0  0  0  0  0
   19.9294    7.9591   53.0738 C   0  0  0  0  0  0  0  0  0  0  0  0
   21.2128    8.4034   52.8852 C   0  0  0  0  0  0  0  0  0  0  0  0
   22.3370    7.6056   52.9339 C   0  0  0  0  0  0  0  0  0  0  0  0
   22.1110    6.3042   53.1877 N   0  0  0  0  0  0  0  0  0  0  0  0
   20.8455    5.8173   53.3826 C   0  0  0  0  0  0  0  0  0  0  0  0
   20.1786    4.2730   53.7177 S   0  0  0  0  0  0  0  0  0  0  0  0
   15.8654    2.7628   55.6411 N   0  0  0  0  0  0  0  0  0  0  0  0
   16.9745    3.5653   55.3295 C   0  0  0  0  0  0  0  0  0  0  0  0
   17.6493    4.0159   56.3171 O   0  0  0  0  0  0  0  0  0  0  0  0
   17.3690    3.8891   54.0244 N   0  0  0  0  0  0  0  0  0  0  0  0
   15.3087    2.3915   54.8151 H   0  0  0  0  0  0  0  0  0  0  0  0
   16.8452    3.5411   53.2059 H   0  0  0  0  0  0  0  0  0  0  0  0
   15.5819    3.5694   57.9355 C   0  0  0  0  0  0  0  0  0  0  0  0
   15.4537    2.4258   56.9750 C   0  0  0  0  0  0  0  0  0  0  0  0
   21.4357    9.8237   52.6149 C   0  0  0  0  0  0  0  0  0  0  0  0
   21.7380   10.6997   53.6292 C   0  0  0  0  0  0  0  0  0  0  0  0
   21.9439   12.0308   53.3271 C   0  0  0  0  0  0  0  0  0  0  0  0
   21.8465   12.4749   52.0193 C   0  0  0  0  0  0  0  0  0  0  0  0
   21.5502   11.6114   51.0327 N   0  0  0  0  0  0  0  0  0  0  0  0
   21.3480   10.3041   51.3293 C   0  0  0  0  0  0  0  0  0  0  0  0
   23.6011    8.0994   52.7372 O   0  0  0  0  0  0  0  0  0  0  0  0
   24.7315    7.6280   53.4023 C   0  0  0  0  0  0  0  0  0  0  0  0
   25.9922    8.3438   53.0023 C   0  0  0  0  0  0  0  0  0  0  0  0
   26.7622    8.3831   54.3052 C   0  0  0  0  0  0  0  0  0  0  0  0
   25.7449    8.6567   55.2263 O   0  0  0  0  0  0  0  0  0  0  0  0
   24.6830    7.8298   54.8868 C   0  0  0  0  0  0  0  0  0  0  0  0
 16 17  1  0  0  0
 17 10  1  0  0  0
 10 11  1  0  0  0
 11 12  2  0  0  0
 11 13  1  0  0  0
 13  1  1  0  0  0
  1  2  2  0  0  0
  2  3  1  0  0  0
  3  4  2  0  0  0
  4  5  1  0  0  0
  5 18  1  0  0  0
 18 19  2  0  0  0
 19 20  1  0  0  0
 20 21  2  0  0  0
 21 22  1  0  0  0
 22 23  2  0  0  0
  5  6  2  0  0  0
  6 24  1  0  0  0
 24 25  1  0  0  0
 25 26  1  0  0  0
 26 27  1  0  0  0
 27 28  1  0  0  0
 28 29  1  0  0  0
  6  7  1  0  0  0
  7  8  2  0  0  0
  8  9  1  0  0  0
  9  1  1  0  0  0
  8  3  1  0  0  0
 23 18  1  0  0  0
 29 25  1  0  0  0
 10 14  1  0  0  0
 13 15  1  0  0  0
M  END
> <minimizedAffinity>
25.45303

> <CNNscore>
0.4322688580

> <CNNaffinity>
6.1452798843

> <CNN_VS>
2.6564130783

> <CNNaffinity_variance>
0.1517893076

$$$$
[H]c1nc([H])c(-c2c(O[C@]3([H])C([H])([H])OC([H])([H])C3([H])[H])nc3sc(N([H])C(=O)N([H])C([H])([H])C([H])([H])[H])nc3c2[H])c([H])c1[H]


 29 32  0  0  0  0  0  0  0  0999 V2000
   27.5092    8.5710   55.6354 C   0  0  0  0  0  0  0  0  0  0  0  0
   26.3325    8.0196   55.8419 N   0  0  0  0  0  0  0  0  0  0  0  0
   25.4966    7.8792   54.8598 C   0  0  0  0  0  0  0  0  0  0  0  0
   24.2091    7.3101   54.9320 C   0  0  0  0  0  0  0  0  0  0  0  0
   23.4549    7.2407   53.7890 C   0  0  0  0  0  0  0  0  0  0  0  0
   23.8607    7.6907   52.5498 C   0  0  0  0  0  0  0  0  0  0  0  0
   25.0923    8.2295   52.5060 N   0  0  0  0  0  0  0  0  0  0  0  0
   25.8798    8.3191   53.6232 C   0  0  0  0  0  0  0  0  0  0  0  0
   27.4516    8.9207   53.9540 S   0  0  0  0  0  0  0  0  0  0  0  0
   29.3157    9.7227   58.7596 N   0  0  0  0  0  0  0  0  0  0  0  0
   28.3271    9.4505   57.8008 C   0  0  0  0  0  0  0  0  0  0  0  0
   27.1356    9.8118   58.0901 O   0  0  0  0  0  0  0  0  0  0  0  0
   28.5738    8.8192   56.5743 N   0  0  0  0  0  0  0  0  0  0  0  0
   30.3043    9.4197   58.5127 H   0  0  0  0  0  0  0  0  0  0  0  0
   29.5246    8.5155   56.3112 H   0  0  0  0  0  0  0  0  0  0  0  0
   29.4018   11.8313   60.0013 C   0  0  0  0  0  0  0  0  0  0  0  0
   29.0724   10.3691   60.0188 C   0  0  0  0  0  0  0  0  0  0  0  0
   22.1164    6.6549   53.8607 C   0  0  0  0  0  0  0  0  0  0  0  0
   21.0249    7.4192   54.1955 C   0  0  0  0  0  0  0  0  0  0  0  0
   19.7801    6.8248   54.2474 C   0  0  0  0  0  0  0  0  0  0  0  0
   19.6358    5.4769   53.9658 C   0  0  0  0  0  0  0  0  0  0  0  0
   20.7088    4.7361   53.6393 N   0  0  0  0  0  0  0  0  0  0  0  0
   21.9314    5.3197   53.5881 C   0  0  0  0  0  0  0  0  0  0  0  0
   23.0675    7.5974   51.4351 O   0  0  0  0  0  0  0  0  0  0  0  0
   22.0920    8.5329   51.0952 C   0  0  0  0  0  0  0  0  0  0  0  0
   20.6959    7.9769   51.1541 C   0  0  0  0  0  0  0  0  0  0  0  0
   19.9011    9.1657   51.6513 C   0  0  0  0  0  0  0  0  0  0  0  0
   20.7688    9.7055   52.6073 O   0  0  0  0  0  0  0  0  0  0  0  0
   22.0308    9.7035   52.0294 C   0  0  0  0  0  0  0  0  0  0  0  0
 16 17  1  0  0  0
 17 10  1  0  0  0
 10 11  1  0  0  0
 11 12  2  0  0  0
 11 13  1  0  0  0
 13  1  1  0  0  0
  1  2  2  0  0  0
  2  3  1  0  0  0
  3  4  2  0  0  0
  4  5  1  0  0  0
  5 18  1  0  0  0
 18 19  2  0  0  0
 19 20  1  0  0  0
 20 21  2  0  0  0
 21 22  1  0  0  0
 22 23  2  0  0  0
  5  6  2  0  0  0
  6 24  1  0  0  0
 24 25  1  0  0  0
 25 26  1  0  0  0
 26 27  1  0  0  0
 27 28  1  0  0  0
 28 29  1  0  0  0
  6  7  1  0  0  0
  7  8  2  0  0  0
  8  9  1  0  0  0
  9  1  1  0  0  0
  8  3  1  0  0  0
 23 18  1  0  0  0
 29 25  1  0  0  0
 10 14  1  0  0  0
 13 15  1  0  0  0
M  END
> <minimizedAffinity>
21.87207

> <CNNscore>
0.4257195592

> <CNNaffinity>
5.7922577858

> <CNN_VS>
2.4658775330

> <CNNaffinity_variance>
0.2760316730

$$$$
[H]c1nc([H])c(-c2c(O[C@]3([H])C([H])([H])OC([H])([H])C3([H])[H])nc3sc(N([H])C(=O)N([H])C([H])([H])C([H])([H])[H])nc3c2[H])c([H])c1[H]


 29 32  0  0  0  0  0  0  0  0999 V2000
   22.7759    7.7076   53.9794 C   0  0  0  0  0  0  0  0  0  0  0  0
   23.3045    8.3359   55.0075 N   0  0  0  0  0  0  0  0  0  0  0  0
   24.5934    8.4247   55.1253 C   0  0  0  0  0  0  0  0  0  0  0  0
   25.2962    9.0635   56.1668 C   0  0  0  0  0  0  0  0  0  0  0  0
   26.6669    9.0621   56.1337 C   0  0  0  0  0  0  0  0  0  0  0  0
   27.4297    8.4756   55.1453 C   0  0  0  0  0  0  0  0  0  0  0  0
   26.7370    7.8725   54.1627 N   0  0  0  0  0  0  0  0  0  0  0  0
   25.3674    7.8496   54.1560 C   0  0  0  0  0  0  0  0  0  0  0  0
   24.1704    7.2024   53.1118 S   0  0  0  0  0  0  0  0  0  0  0  0
   19.5247    5.9263   53.1999 N   0  0  0  0  0  0  0  0  0  0  0  0
   20.8655    6.2038   53.5100 C   0  0  0  0  0  0  0  0  0  0  0  0
   21.6378    5.1963   53.6595 O   0  0  0  0  0  0  0  0  0  0  0  0
   21.3868    7.4958   53.6601 N   0  0  0  0  0  0  0  0  0  0  0  0
   18.8881    6.7686   53.0770 H   0  0  0  0  0  0  0  0  0  0  0  0
   20.7893    8.3298   53.5459 H   0  0  0  0  0  0  0  0  0  0  0  0
   18.2181    4.1396   54.2467 C   0  0  0  0  0  0  0  0  0  0  0  0
   18.9817    4.6059   53.0441 C   0  0  0  0  0  0  0  0  0  0  0  0
   27.4000    9.7201   57.2151 C   0  0  0  0  0  0  0  0  0  0  0  0
   28.0257    8.9884   58.1954 C   0  0  0  0  0  0  0  0  0  0  0  0
   28.7091    9.6516   59.1947 C   0  0  0  0  0  0  0  0  0  0  0  0
   28.7619   11.0351   59.2071 C   0  0  0  0  0  0  0  0  0  0  0  0
   28.1470   11.7436   58.2446 N   0  0  0  0  0  0  0  0  0  0  0  0
   27.4759   11.0924   57.2630 C   0  0  0  0  0  0  0  0  0  0  0  0
   28.8007    8.5026   55.1578 O   0  0  0  0  0  0  0  0  0  0  0  0
   29.5657    9.4362   54.4609 C   0  0  0  0  0  0  0  0  0  0  0  0
   29.0540    9.6983   53.0712 C   0  0  0  0  0  0  0  0  0  0  0  0
   29.3425   11.1746   52.8996 C   0  0  0  0  0  0  0  0  0  0  0  0
   29.0110   11.6758   54.1634 O   0  0  0  0  0  0  0  0  0  0  0  0
   29.5659   10.7989   55.0852 C   0  0  0  0  0  0  0  0  0  0  0  0
 16 17  1  0  0  0
 17 10  1  0  0  0
 10 11  1  0  0  0
 11 12  2  0  0  0
 11 13  1  0  0  0
 13  1  1  0  0  0
  1  2  2  0  0  0
  2  3  1  0  0  0
  3  4  2  0  0  0
  4  5  1  0  0  0
  5 18  1  0  0  0
 18 19  2  0  0  0
 19 20  1  0  0  0
 20 21  2  0  0  0
 21 22  1  0  0  0
 22 23  2  0  0  0
  5  6  2  0  0  0
  6 24  1  0  0  0
 24 25  1  0  0  0
 25 26  1  0  0  0
 26 27  1  0  0  0
 27 28  1  0  0  0
 28 29  1  0  0  0
  6  7  1  0  0  0
  7  8  2  0  0  0
  8  9  1  0  0  0
  9  1  1  0  0  0
  8  3  1  0  0  0
 23 18  1  0  0  0
 29 25  1  0  0  0
 10 14  1  0  0  0
 13 15  1  0  0  0
M  END
> <minimizedAffinity>
24.88830

> <CNNscore>
0.4223853350

> <CNNaffinity>
5.6927723885

> <CNN_VS>
2.4045436382

> <CNNaffinity_variance>
0.2422430962

$$$$
[H]OC(=O)[C@]1([H])O[C@]([H])([C@@]([H])(O[C@@]2([H])OC(C(=O)N([H])C3([H])[C@]([H])(O[H])[C@]([H])(O[H])[C@@]([H])(O[H])[C@@]3([H])O[H])=C([H])[C@]([H])(O[H])[C@]2([H])O[H])n2c([H])c([H])c(=O)n([H])c2=O)[C@@]([H])(OC([H])([H])[H])[C@@]1([H])O[H]


 51 54  0  0  0  0  0  0  0  0999 V2000
   24.9110    7.4805   54.3471 C   0  0  0  0  0  0  0  0  0  0  0  0
   25.8690    7.5621   55.3510 O   0  0  0  0  0  0  0  0  0  0  0  0
   26.7197    8.6528   55.4356 C   0  0  0  0  0  0  0  0  0  0  0  0
   27.2960    8.9978   54.2980 C   0  0  0  0  0  0  0  0  0  0  0  0
   26.9702    8.1896   53.0937 C   0  0  0  0  0  0  0  0  0  0  0  0
   27.3123    8.9591   51.9748 O   0  0  0  0  0  0  0  0  0  0  0  0
   25.5767    7.6993   53.0116 C   0  0  0  0  0  0  0  0  0  0  0  0
   24.8224    8.6265   52.2869 O   0  0  0  0  0  0  0  0  0  0  0  0
   28.2840    9.1154   52.0489 H   0  0  0  0  0  0  0  0  0  0  0  0
   24.7853    8.3964   51.3290 H   0  0  0  0  0  0  0  0  0  0  0  0
   26.9627    9.3690   56.6992 C   0  0  0  0  0  0  0  0  0  0  0  0
   26.2275   10.3310   57.0477 O   0  0  0  0  0  0  0  0  0  0  0  0
   28.0368    8.9612   57.5199 N   0  0  0  0  0  0  0  0  0  0  0  0
   28.6815    8.1759   57.2893 H   0  0  0  0  0  0  0  0  0  0  0  0
   28.2349    9.7027   58.7641 C   0  0  0  0  0  0  0  0  0  0  0  0
   28.1656   11.2067   58.4608 C   0  0  0  0  0  0  0  0  0  0  0  0
   29.0929   11.4610   57.4759 O   0  0  0  0  0  0  0  0  0  0  0  0
   28.6525   11.7480   59.8117 C   0  0  0  0  0  0  0  0  0  0  0  0
   29.0074   13.0734   59.7440 O   0  0  0  0  0  0  0  0  0  0  0  0
   29.7709   10.8160   60.1682 C   0  0  0  0  0  0  0  0  0  0  0  0
   29.6422   10.4398   61.5190 O   0  0  0  0  0  0  0  0  0  0  0  0
   29.6127    9.5774   59.3154 C   0  0  0  0  0  0  0  0  0  0  0  0
   29.8048    8.4485   60.1071 O   0  0  0  0  0  0  0  0  0  0  0  0
   28.7128   11.8097   56.6413 H   0  0  0  0  0  0  0  0  0  0  0  0
   29.9675   13.1698   59.5814 H   0  0  0  0  0  0  0  0  0  0  0  0
   29.8851   11.1684   62.1337 H   0  0  0  0  0  0  0  0  0  0  0  0
   30.7612    8.4520   60.3781 H   0  0  0  0  0  0  0  0  0  0  0  0
   24.2117    6.2765   54.3554 O   0  0  0  0  0  0  0  0  0  0  0  0
   22.8709    6.3652   54.5877 C   0  0  0  0  0  0  0  0  0  0  0  0
   22.4795    7.7535   54.8829 N   0  0  0  0  0  0  0  0  0  0  0  0
   22.6888    8.7461   54.0068 C   0  0  0  0  0  0  0  0  0  0  0  0
   22.3325   10.0555   54.2513 C   0  0  0  0  0  0  0  0  0  0  0  0
   21.7318   10.3303   55.4670 C   0  0  0  0  0  0  0  0  0  0  0  0
   21.4023   11.5231   55.6992 O   0  0  0  0  0  0  0  0  0  0  0  0
   21.5280    9.3306   56.3340 N   0  0  0  0  0  0  0  0  0  0  0  0
   21.8925    8.0560   56.0570 C   0  0  0  0  0  0  0  0  0  0  0  0
   21.6632    7.1772   56.9313 O   0  0  0  0  0  0  0  0  0  0  0  0
   21.0748    9.5373   57.2502 H   0  0  0  0  0  0  0  0  0  0  0  0
   21.1845    6.9367   52.7943 C   0  0  0  0  0  0  0  0  0  0  0  0
   19.7850    6.3803   52.9753 C   0  0  0  0  0  0  0  0  0  0  0  0
   18.9536    6.6228   51.9131 O   0  0  0  0  0  0  0  0  0  0  0  0
   20.1011    4.8866   52.9944 C   0  0  0  0  0  0  0  0  0  0  0  0
   21.2560    4.8483   53.7210 O   0  0  0  0  0  0  0  0  0  0  0  0
   22.0867    5.8992   53.3601 C   0  0  0  0  0  0  0  0  0  0  0  0
   19.0885    5.9206   51.2348 H   0  0  0  0  0  0  0  0  0  0  0  0
   19.0405    4.1280   53.6952 C   0  0  0  0  0  0  0  0  0  0  0  0
   17.8381    4.7792   53.9914 O   0  0  0  0  0  0  0  0  0  0  0  0
   19.2350    2.9321   54.0070 O   0  0  0  0  0  0  0  0  0  0  0  0
   17.3862    5.2767   53.2557 H   0  0  0  0  0  0  0  0  0  0  0  0
   21.0220    8.3294   50.9827 C   0  0  0  0  0  0  0  0  0  0  0  0
   21.3921    7.0698   51.4073 O   0  0  0  0  0  0  0  0  0  0  0  0
 50 51  1  0  0  0
 51 39  1  0  0  0
 39 40  1  0  0  0
 40 41  1  0  0  0
 40 42  1  0  0  0
 42 43  1  0  0  0
 43 44  1  0  0  0
 44 29  1  0  0  0
 29 28  1  0  0  0
 28  1  1  0  0  0
  1  2  1  0  0  0
  2  3  1  0  0  0
  3  4  2  0  0  0
  4  5  1  0  0  0
  5  6  1  0  0  0
  5  7  1  0  0  0
  7  8  1  0  0  0
  3 11  1  0  0  0
 11 12  2  0  0  0
 11 13  1  0  0  0
 13 15  1  0  0  0
 15 16  1  0  0  0
 16 17  1  0  0  0
 16 18  1  0  0  0
 18 19  1  0  0  0
 18 20  1  0  0  0
 20 21  1  0  0  0
 20 22  1  0  0  0
 22 23  1  0  0  0
 29 30  1  0  0  0
 30 31  1  0  0  0
 31 32  2  0  0  0
 32 33  1  0  0  0
 33 34  2  0  0  0
 33 35  1  0  0  0
 35 36  1  0  0  0
 36 37  2  0  0  0
 42 46  1  0  0  0
 46 47  1  0  0  0
 46 48  2  0  0  0
 44 39  1  0  0  0
  7  1  1  0  0  0
 22 15  1  0  0  0
 36 30  1  0  0  0
 41 45  1  0  0  0
  6  9  1  0  0  0
  8 10  1  0  0  0
 13 14  1  0  0  0
 17 24  1  0  0  0
 19 25  1  0  0  0
 21 26  1  0  0  0
 23 27  1  0  0  0
 35 38  1  0  0  0
 47 49  1  0  0  0
M  END
> <minimizedAffinity>
17.48153

> <CNNscore>
0.4703770876

> <CNNaffinity>
6.1379408836

> <CNN_VS>
2.8871467113

> <CNNaffinity_variance>
0.5267169476

$$$$
[H]OC(=O)[C@]1([H])O[C@]([H])([C@@]([H])(O[C@@]2([H])OC(C(=O)N([H])C3([H])[C@]([H])(O[H])[C@]([H])(O[H])[C@@]([H])(O[H])[C@@]3([H])O[H])=C([H])[C@]([H])(O[H])[C@]2([H])O[H])n2c([H])c([H])c(=O)n([H])c2=O)[C@@]([H])(OC([H])([H])[H])[C@@]1([H])O[H]


 51 54  0  0  0  0  0  0  0  0999 V2000
   23.8495    9.3681   55.6936 C   0  0  0  0  0  0  0  0  0  0  0  0
   24.9860    9.1034   56.4489 O   0  0  0  0  0  0  0  0  0  0  0  0
   26.2485    9.1673   55.8810 C   0  0  0  0  0  0  0  0  0  0  0  0
   26.3724    8.5333   54.7286 C   0  0  0  0  0  0  0  0  0  0  0  0
   25.1692    7.8422   54.1955 C   0  0  0  0  0  0  0  0  0  0  0  0
   25.3849    7.6331   52.8278 O   0  0  0  0  0  0  0  0  0  0  0  0
   23.8791    8.5220   54.4455 C   0  0  0  0  0  0  0  0  0  0  0  0
   23.5887    9.3389   53.3490 O   0  0  0  0  0  0  0  0  0  0  0  0
   26.1835    7.0560   52.7715 H   0  0  0  0  0  0  0  0  0  0  0  0
   23.0264    8.8730   52.6867 H   0  0  0  0  0  0  0  0  0  0  0  0
   27.3654    9.8858   56.5173 C   0  0  0  0  0  0  0  0  0  0  0  0
   28.2545   10.4439   55.8205 O   0  0  0  0  0  0  0  0  0  0  0  0
   27.4275    9.9413   57.9268 N   0  0  0  0  0  0  0  0  0  0  0  0
   26.7266    9.5006   58.5592 H   0  0  0  0  0  0  0  0  0  0  0  0
   28.5543   10.6678   58.5095 C   0  0  0  0  0  0  0  0  0  0  0  0
   29.2647    9.7533   59.5186 C   0  0  0  0  0  0  0  0  0  0  0  0
   28.3125    9.3332   60.4195 O   0  0  0  0  0  0  0  0  0  0  0  0
   30.1985   10.7859   60.1642 C   0  0  0  0  0  0  0  0  0  0  0  0
   30.7428   10.3316   61.3409 O   0  0  0  0  0  0  0  0  0  0  0  0
   29.3241   11.9953   60.3026 C   0  0  0  0  0  0  0  0  0  0  0  0
   30.0376   13.1298   59.8702 O   0  0  0  0  0  0  0  0  0  0  0  0
   28.1407   11.8020   59.3815 C   0  0  0  0  0  0  0  0  0  0  0  0
   27.8985   12.9868   58.6917 O   0  0  0  0  0  0  0  0  0  0  0  0
   28.1707    8.3625   60.4364 H   0  0  0  0  0  0  0  0  0  0  0  0
   30.2101   10.6243   62.1078 H   0  0  0  0  0  0  0  0  0  0  0  0
   30.7307   13.4016   60.5133 H   0  0  0  0  0  0  0  0  0  0  0  0
   27.5921   13.6496   59.3662 H   0  0  0  0  0  0  0  0  0  0  0  0
   22.6656    9.1635   56.3971 O   0  0  0  0  0  0  0  0  0  0  0  0
   21.5596    8.9015   55.6436 C   0  0  0  0  0  0  0  0  0  0  0  0
   21.5807    9.6770   54.3923 N   0  0  0  0  0  0  0  0  0  0  0  0
   22.1199   10.9026   54.3318 C   0  0  0  0  0  0  0  0  0  0  0  0
   22.1577   11.6538   53.1761 C   0  0  0  0  0  0  0  0  0  0  0  0
   21.6057   11.0915   52.0388 C   0  0  0  0  0  0  0  0  0  0  0  0
   21.6359   11.7697   50.9784 O   0  0  0  0  0  0  0  0  0  0  0  0
   21.0700    9.8666   52.1116 N   0  0  0  0  0  0  0  0  0  0  0  0
   21.0519    9.1596   53.2666 C   0  0  0  0  0  0  0  0  0  0  0  0
   20.5268    8.0137   53.2446 O   0  0  0  0  0  0  0  0  0  0  0  0
   20.6543    9.4424   51.2544 H   0  0  0  0  0  0  0  0  0  0  0  0
   22.5042    6.5846   56.0001 C   0  0  0  0  0  0  0  0  0  0  0  0
   23.4172    6.0484   54.9139 C   0  0  0  0  0  0  0  0  0  0  0  0
   23.7975    4.7459   55.1068 O   0  0  0  0  0  0  0  0  0  0  0  0
   22.4576    6.0878   53.7269 C   0  0  0  0  0  0  0  0  0  0  0  0
   21.7927    7.2616   53.9359 O   0  0  0  0  0  0  0  0  0  0  0  0
   21.5015    7.4162   55.2835 C   0  0  0  0  0  0  0  0  0  0  0  0
   23.1009    4.1521   54.7415 H   0  0  0  0  0  0  0  0  0  0  0  0
   23.1984    6.1505   52.4467 C   0  0  0  0  0  0  0  0  0  0  0  0
   22.7229    6.9984   51.4406 O   0  0  0  0  0  0  0  0  0  0  0  0
   24.2247    5.4526   52.2882 O   0  0  0  0  0  0  0  0  0  0  0  0
   22.5128    7.9404   51.6882 H   0  0  0  0  0  0  0  0  0  0  0  0
   21.6297    5.7157   57.9309 C   0  0  0  0  0  0  0  0  0  0  0  0
   21.8854    5.4690   56.5977 O   0  0  0  0  0  0  0  0  0  0  0  0
 50 51  1  0  0  0
 51 39  1  0  0  0
 39 40  1  0  0  0
 40 41  1  0  0  0
 40 42  1  0  0  0
 42 43  1  0  0  0
 43 44  1  0  0  0
 44 29  1  0  0  0
 29 28  1  0  0  0
 28  1  1  0  0  0
  1  2  1  0  0  0
  2  3  1  0  0  0
  3  4  2  0  0  0
  4  5  1  0  0  0
  5  6  1  0  0  0
  5  7  1  0  0  0
  7  8  1  0  0  0
  3 11  1  0  0  0
 11 12  2  0  0  0
 11 13  1  0  0  0
 13 15  1  0  0  0
 15 16  1  0  0  0
 16 17  1  0  0  0
 16 18  1  0  0  0
 18 19  1  0  0  0
 18 20  1  0  0  0
 20 21  1  0  0  0
 20 22  1  0  0  0
 22 23  1  0  0  0
 29 30  1  0  0  0
 30 31  1  0  0  0
 31 32  2  0  0  0
 32 33  1  0  0  0
 33 34  2  0  0  0
 33 35  1  0  0  0
 35 36  1  0  0  0
 36 37  2  0  0  0
 42 46  1  0  0  0
 46 47  1  0  0  0
 46 48  2  0  0  0
 44 39  1  0  0  0
  7  1  1  0  0  0
 22 15  1  0  0  0
 36 30  1  0  0  0
 41 45  1  0  0  0
  6  9  1  0  0  0
  8 10  1  0  0  0
 13 14  1  0  0  0
 17 24  1  0  0  0
 19 25  1  0  0  0
 21 26  1  0  0  0
 23 27  1  0  0  0
 35 38  1  0  0  0
 47 49  1  0  0  0
M  END
> <minimizedAffinity>
13.47391

> <CNNscore>
0.4471974373

> <CNNaffinity>
6.1496310234

> <CNN_VS>
2.7500991821

> <CNNaffinity_variance>
0.5069214702

$$$$
[H]OC(=O)[C@]1([H])O[C@]([H])([C@@]([H])(O[C@@]2([H])OC(C(=O)N([H])C3([H])[C@]([H])(O[H])[C@]([H])(O[H])[C@@]([H])(O[H])[C@@]3([H])O[H])=C([H])[C@]([H])(O[H])[C@]2([H])O[H])n2c([H])c([H])c(=O)n([H])c2=O)[C@@]([H])(OC([H])([H])[H])[C@@]1([H])O[H]


 51 54  0  0  0  0  0  0  0  0999 V2000
   24.3667    9.5967   55.2469 C   0  0  0  0  0  0  0  0  0  0  0  0
   25.2777    9.4238   56.2824 O   0  0  0  0  0  0  0  0  0  0  0  0
   26.6204    9.2035   56.0194 C   0  0  0  0  0  0  0  0  0  0  0  0
   26.8639    8.2784   55.1082 C   0  0  0  0  0  0  0  0  0  0  0  0
   25.6932    7.6004   54.4923 C   0  0  0  0  0  0  0  0  0  0  0  0
   26.1349    7.0163   53.2987 O   0  0  0  0  0  0  0  0  0  0  0  0
   24.5038    8.4527   54.2737 C   0  0  0  0  0  0  0  0  0  0  0  0
   24.5658    8.9768   52.9793 O   0  0  0  0  0  0  0  0  0  0  0  0
   26.8272    6.3648   53.5638 H   0  0  0  0  0  0  0  0  0  0  0  0
   24.0763    8.4139   52.3348 H   0  0  0  0  0  0  0  0  0  0  0  0
   27.6919    9.9440   56.7066 C   0  0  0  0  0  0  0  0  0  0  0  0
   28.5674   10.5695   56.0511 O   0  0  0  0  0  0  0  0  0  0  0  0
   27.7256    9.9438   58.1182 N   0  0  0  0  0  0  0  0  0  0  0  0
   27.0339    9.4466   58.7180 H   0  0  0  0  0  0  0  0  0  0  0  0
   28.8076   10.6949   58.7524 C   0  0  0  0  0  0  0  0  0  0  0  0
   29.6003    9.7469   59.6646 C   0  0  0  0  0  0  0  0  0  0  0  0
   28.6974    9.1775   60.5337 O   0  0  0  0  0  0  0  0  0  0  0  0
   30.4688   10.7821   60.3918 C   0  0  0  0  0  0  0  0  0  0  0  0
   31.0658   10.2635   61.5153 O   0  0  0  0  0  0  0  0  0  0  0  0
   29.5122   11.9063   60.6514 C   0  0  0  0  0  0  0  0  0  0  0  0
   30.1341   13.1248   60.3174 O   0  0  0  0  0  0  0  0  0  0  0  0
   28.3292   11.7114   59.7301 C   0  0  0  0  0  0  0  0  0  0  0  0
   27.9897   12.9331   59.1554 O   0  0  0  0  0  0  0  0  0  0  0  0
   28.6263    8.2016   60.4626 H   0  0  0  0  0  0  0  0  0  0  0  0
   30.5275   10.4452   62.3120 H   0  0  0  0  0  0  0  0  0  0  0  0
   30.8174   13.3870   60.9747 H   0  0  0  0  0  0  0  0  0  0  0  0
   27.6486   13.5074   59.8917 H   0  0  0  0  0  0  0  0  0  0  0  0
   23.0514    9.7097   55.6892 O   0  0  0  0  0  0  0  0  0  0  0  0
   22.0965    9.1922   54.8646 C   0  0  0  0  0  0  0  0  0  0  0  0
   21.8648   10.0755   53.7097 N   0  0  0  0  0  0  0  0  0  0  0  0
   21.8461    9.6046   52.4550 C   0  0  0  0  0  0  0  0  0  0  0  0
   21.6298   10.4041   51.3524 C   0  0  0  0  0  0  0  0  0  0  0  0
   21.4249   11.7532   51.5809 C   0  0  0  0  0  0  0  0  0  0  0  0
   21.2260   12.4912   50.5804 O   0  0  0  0  0  0  0  0  0  0  0  0
   21.4458   12.2118   52.8386 N   0  0  0  0  0  0  0  0  0  0  0  0
   21.6618   11.3940   53.8963 C   0  0  0  0  0  0  0  0  0  0  0  0
   21.6652   11.9108   55.0461 O   0  0  0  0  0  0  0  0  0  0  0  0
   21.2909   13.2286   53.0111 H   0  0  0  0  0  0  0  0  0  0  0  0
   21.4383    7.0504   53.6955 C   0  0  0  0  0  0  0  0  0  0  0  0
   21.2559    5.8260   54.5723 C   0  0  0  0  0  0  0  0  0  0  0  0
   21.0194    4.6742   53.8683 O   0  0  0  0  0  0  0  0  0  0  0  0
   22.6549    5.7299   55.1762 C   0  0  0  0  0  0  0  0  0  0  0  0
   22.9595    7.0412   55.4018 O   0  0  0  0  0  0  0  0  0  0  0  0
   22.5331    7.8240   54.3387 C   0  0  0  0  0  0  0  0  0  0  0  0
   21.8821    4.2845   53.5938 H   0  0  0  0  0  0  0  0  0  0  0  0
   22.6302    4.9914   56.4591 C   0  0  0  0  0  0  0  0  0  0  0  0
   21.5087    5.1247   57.2849 O   0  0  0  0  0  0  0  0  0  0  0  0
   23.6007    4.2696   56.7791 O   0  0  0  0  0  0  0  0  0  0  0  0
   20.6106    4.9980   56.8722 H   0  0  0  0  0  0  0  0  0  0  0  0
   21.0804    7.1725   51.4361 C   0  0  0  0  0  0  0  0  0  0  0  0
   21.8396    6.5856   52.4277 O   0  0  0  0  0  0  0  0  0  0  0  0
 50 51  1  0  0  0
 51 39  1  0  0  0
 39 40  1  0  0  0
 40 41  1  0  0  0
 40 42  1  0  0  0
 42 43  1  0  0  0
 43 44  1  0  0  0
 44 29  1  0  0  0
 29 28  1  0  0  0
 28  1  1  0  0  0
  1  2  1  0  0  0
  2  3  1  0  0  0
  3  4  2  0  0  0
  4  5  1  0  0  0
  5  6  1  0  0  0
  5  7  1  0  0  0
  7  8  1  0  0  0
  3 11  1  0  0  0
 11 12  2  0  0  0
 11 13  1  0  0  0
 13 15  1  0  0  0
 15 16  1  0  0  0
 16 17  1  0  0  0
 16 18  1  0  0  0
 18 19  1  0  0  0
 18 20  1  0  0  0
 20 21  1  0  0  0
 20 22  1  0  0  0
 22 23  1  0  0  0
 29 30  1  0  0  0
 30 31  1  0  0  0
 31 32  2  0  0  0
 32 33  1  0  0  0
 33 34  2  0  0  0
 33 35  1  0  0  0
 35 36  1  0  0  0
 36 37  2  0  0  0
 42 46  1  0  0  0
 46 47  1  0  0  0
 46 48  2  0  0  0
 44 39  1  0  0  0
  7  1  1  0  0  0
 22 15  1  0  0  0
 36 30  1  0  0  0
 41 45  1  0  0  0
  6  9  1  0  0  0
  8 10  1  0  0  0
 13 14  1  0  0  0
 17 24  1  0  0  0
 19 25  1  0  0  0
 21 26  1  0  0  0
 23 27  1  0  0  0
 35 38  1  0  0  0
 47 49  1  0  0  0
M  END
> <minimizedAffinity>
14.76002

> <CNNscore>
0.4435410798

> <CNNaffinity>
6.0979156494

> <CNN_VS>
2.7046761513

> <CNNaffinity_variance>
0.8056144714

$$$$
[H]OC(=O)[C@]1([H])O[C@]([H])([C@@]([H])(O[C@@]2([H])OC(C(=O)N([H])C3([H])[C@]([H])(O[H])[C@]([H])(O[H])[C@@]([H])(O[H])[C@@]3([H])O[H])=C([H])[C@]([H])(O[H])[C@]2([H])O[H])n2c([H])c([H])c(=O)n([H])c2=O)[C@@]([H])(OC([H])([H])[H])[C@@]1([H])O[H]


 51 54  0  0  0  0  0  0  0  0999 V2000
   25.8130    9.1853   54.8071 C   0  0  0  0  0  0  0  0  0  0  0  0
   26.2332    9.1071   56.1298 O   0  0  0  0  0  0  0  0  0  0  0  0
   27.5772    9.1952   56.4557 C   0  0  0  0  0  0  0  0  0  0  0  0
   28.3760    8.4312   55.7321 C   0  0  0  0  0  0  0  0  0  0  0  0
   27.7481    7.5872   54.6817 C   0  0  0  0  0  0  0  0  0  0  0  0
   28.7600    7.2230   53.7849 O   0  0  0  0  0  0  0  0  0  0  0  0
   26.5929    8.1920   53.9827 C   0  0  0  0  0  0  0  0  0  0  0  0
   27.0584    8.8379   52.8338 O   0  0  0  0  0  0  0  0  0  0  0  0
   29.4114    6.7067   54.3170 H   0  0  0  0  0  0  0  0  0  0  0  0
   27.0180    8.2497   52.0438 H   0  0  0  0  0  0  0  0  0  0  0  0
   28.0740   10.0727   57.5290 C   0  0  0  0  0  0  0  0  0  0  0  0
   28.4057   11.2639   57.2874 O   0  0  0  0  0  0  0  0  0  0  0  0
   28.1744    9.5585   58.8402 N   0  0  0  0  0  0  0  0  0  0  0  0
   27.9183    8.5842   59.1057 H   0  0  0  0  0  0  0  0  0  0  0  0
   28.6711   10.4696   59.8699 C   0  0  0  0  0  0  0  0  0  0  0  0
   27.8283   11.7534   59.8437 C   0  0  0  0  0  0  0  0  0  0  0  0
   27.8801   12.2418   58.5578 O   0  0  0  0  0  0  0  0  0  0  0  0
   28.6782   12.6192   60.7834 C   0  0  0  0  0  0  0  0  0  0  0  0
   28.3476   13.9504   60.7058 O   0  0  0  0  0  0  0  0  0  0  0  0
   30.0813   12.2955   60.3677 C   0  0  0  0  0  0  0  0  0  0  0  0
   30.8629   12.0790   61.5190 O   0  0  0  0  0  0  0  0  0  0  0  0
   30.0306   11.0050   59.5814 C   0  0  0  0  0  0  0  0  0  0  0  0
   31.0663   10.1733   59.9983 O   0  0  0  0  0  0  0  0  0  0  0  0
   27.0104   12.2878   58.1062 H   0  0  0  0  0  0  0  0  0  0  0  0
   28.9272   14.4175   60.0706 H   0  0  0  0  0  0  0  0  0  0  0  0
   31.0631   12.9155   61.9963 H   0  0  0  0  0  0  0  0  0  0  0  0
   31.9126   10.6117   59.7161 H   0  0  0  0  0  0  0  0  0  0  0  0
   24.4441    8.9813   54.6555 O   0  0  0  0  0  0  0  0  0  0  0  0
   24.0736    7.7839   54.1184 C   0  0  0  0  0  0  0  0  0  0  0  0
   23.3792    6.9530   55.1159 N   0  0  0  0  0  0  0  0  0  0  0  0
   23.6661    5.6532   55.2730 C   0  0  0  0  0  0  0  0  0  0  0  0
   23.0363    4.8482   56.1987 C   0  0  0  0  0  0  0  0  0  0  0  0
   22.0658    5.4360   56.9905 C   0  0  0  0  0  0  0  0  0  0  0  0
   21.4855    4.7091   57.8391 O   0  0  0  0  0  0  0  0  0  0  0  0
   21.7879    6.7352   56.8243 N   0  0  0  0  0  0  0  0  0  0  0  0
   22.4290    7.4933   55.9031 C   0  0  0  0  0  0  0  0  0  0  0  0
   22.1038    8.7080   55.8142 O   0  0  0  0  0  0  0  0  0  0  0  0
   21.0567    7.1785   57.4213 H   0  0  0  0  0  0  0  0  0  0  0  0
   22.3236    9.2483   53.0322 C   0  0  0  0  0  0  0  0  0  0  0  0
   20.8846    8.7802   53.1383 C   0  0  0  0  0  0  0  0  0  0  0  0
   20.0007    9.5500   52.4281 O   0  0  0  0  0  0  0  0  0  0  0  0
   21.0003    7.4285   52.4376 C   0  0  0  0  0  0  0  0  0  0  0  0
   22.2005    6.9697   52.8983 O   0  0  0  0  0  0  0  0  0  0  0  0
   23.1274    8.0012   52.9366 C   0  0  0  0  0  0  0  0  0  0  0  0
   19.9798    9.2341   51.4948 H   0  0  0  0  0  0  0  0  0  0  0  0
   19.9158    6.5150   52.8630 C   0  0  0  0  0  0  0  0  0  0  0  0
   20.2146    5.1596   53.0390 O   0  0  0  0  0  0  0  0  0  0  0  0
   18.7644    6.9652   53.0556 O   0  0  0  0  0  0  0  0  0  0  0  0
   21.0090    4.9277   53.5940 H   0  0  0  0  0  0  0  0  0  0  0  0
   21.7957   11.2143   51.9814 C   0  0  0  0  0  0  0  0  0  0  0  0
   22.4215    9.9927   51.8402 O   0  0  0  0  0  0  0  0  0  0  0  0
 50 51  1  0  0  0
 51 39  1  0  0  0
 39 40  1  0  0  0
 40 41  1  0  0  0
 40 42  1  0  0  0
 42 43  1  0  0  0
 43 44  1  0  0  0
 44 29  1  0  0  0
 29 28  1  0  0  0
 28  1  1  0  0  0
  1  2  1  0  0  0
  2  3  1  0  0  0
  3  4  2  0  0  0
  4  5  1  0  0  0
  5  6  1  0  0  0
  5  7  1  0  0  0
  7  8  1  0  0  0
  3 11  1  0  0  0
 11 12  2  0  0  0
 11 13  1  0  0  0
 13 15  1  0  0  0
 15 16  1  0  0  0
 16 17  1  0  0  0
 16 18  1  0  0  0
 18 19  1  0  0  0
 18 20  1  0  0  0
 20 21  1  0  0  0
 20 22  1  0  0  0
 22 23  1  0  0  0
 29 30  1  0  0  0
 30 31  1  0  0  0
 31 32  2  0  0  0
 32 33  1  0  0  0
 33 34  2  0  0  0
 33 35  1  0  0  0
 35 36  1  0  0  0
 36 37  2  0  0  0
 42 46  1  0  0  0
 46 47  1  0  0  0
 46 48  2  0  0  0
 44 39  1  0  0  0
  7  1  1  0  0  0
 22 15  1  0  0  0
 36 30  1  0  0  0
 41 45  1  0  0  0
  6  9  1  0  0  0
  8 10  1  0  0  0
 13 14  1  0  0  0
 17 24  1  0  0  0
 19 25  1  0  0  0
 21 26  1  0  0  0
 23 27  1  0  0  0
 35 38  1  0  0  0
 47 49  1  0  0  0
M  END
> <minimizedAffinity>
15.11325

> <CNNscore>
0.4309978485

> <CNNaffinity>
5.7421875000

> <CNN_VS>
2.4748704433

> <CNNaffinity_variance>
0.3079896569

$$$$
[H]OC(=O)[C@]1([H])O[C@]([H])([C@@]([H])(O[C@@]2([H])OC(C(=O)N([H])C3([H])[C@]([H])(O[H])[C@]([H])(O[H])[C@@]([H])(O[H])[C@@]3([H])O[H])=C([H])[C@]([H])(O[H])[C@]2([H])O[H])n2c([H])c([H])c(=O)n([H])c2=O)[C@@]([H])(OC([H])([H])[H])[C@@]1([H])O[H]


 51 54  0  0  0  0  0  0  0  0999 V2000
   25.3004    9.3515   55.1151 C   0  0  0  0  0  0  0  0  0  0  0  0
   25.8729    9.1949   56.3720 O   0  0  0  0  0  0  0  0  0  0  0  0
   27.2495    9.1941   56.5316 C   0  0  0  0  0  0  0  0  0  0  0  0
   27.9065    8.4175   55.6887 C   0  0  0  0  0  0  0  0  0  0  0  0
   27.1056    7.6545   54.6957 C   0  0  0  0  0  0  0  0  0  0  0  0
   27.9769    7.2720   53.6684 O   0  0  0  0  0  0  0  0  0  0  0  0
   25.9126    8.3514   54.1665 C   0  0  0  0  0  0  0  0  0  0  0  0
   26.2732    9.0177   52.9918 O   0  0  0  0  0  0  0  0  0  0  0  0
   28.6557    6.6983   54.0975 H   0  0  0  0  0  0  0  0  0  0  0  0
   26.1014    8.4661   52.1930 H   0  0  0  0  0  0  0  0  0  0  0  0
   27.9254    9.9969   57.5648 C   0  0  0  0  0  0  0  0  0  0  0  0
   28.6431   10.9832   57.2491 O   0  0  0  0  0  0  0  0  0  0  0  0
   27.7578    9.6448   58.9218 N   0  0  0  0  0  0  0  0  0  0  0  0
   27.1802    8.8418   59.2489 H   0  0  0  0  0  0  0  0  0  0  0  0
   28.4477   10.4739   59.9086 C   0  0  0  0  0  0  0  0  0  0  0  0
   27.9399   11.9181   59.7841 C   0  0  0  0  0  0  0  0  0  0  0  0
   28.1229   12.2966   58.4734 O   0  0  0  0  0  0  0  0  0  0  0  0
   28.9627   12.6127   60.6932 C   0  0  0  0  0  0  0  0  0  0  0  0
   28.9641   13.9765   60.5281 O   0  0  0  0  0  0  0  0  0  0  0  0
   30.2510   11.9357   60.3349 C   0  0  0  0  0  0  0  0  0  0  0  0
   30.9439   11.6118   61.5172 O   0  0  0  0  0  0  0  0  0  0  0  0
   29.8994   10.6476   59.6252 C   0  0  0  0  0  0  0  0  0  0  0  0
   30.6990    9.6199   60.1180 O   0  0  0  0  0  0  0  0  0  0  0  0
   27.2952   12.5211   57.9968 H   0  0  0  0  0  0  0  0  0  0  0  0
   29.6465   14.2493   59.8820 H   0  0  0  0  0  0  0  0  0  0  0  0
   31.3345   12.4045   61.9494 H   0  0  0  0  0  0  0  0  0  0  0  0
   31.6292    9.8233   59.8330 H   0  0  0  0  0  0  0  0  0  0  0  0
   23.9134    9.2309   55.1272 O   0  0  0  0  0  0  0  0  0  0  0  0
   23.3946    8.2175   54.3765 C   0  0  0  0  0  0  0  0  0  0  0  0
   23.2717    6.9845   55.1716 N   0  0  0  0  0  0  0  0  0  0  0  0
   24.0878    5.9386   54.9804 C   0  0  0  0  0  0  0  0  0  0  0  0
   24.0009    4.7710   55.7088 C   0  0  0  0  0  0  0  0  0  0  0  0
   23.0151    4.7026   56.6773 C   0  0  0  0  0  0  0  0  0  0  0  0
   22.9282    3.6405   57.3480 O   0  0  0  0  0  0  0  0  0  0  0  0
   22.2059    5.7536   56.8590 N   0  0  0  0  0  0  0  0  0  0  0  0
   22.3229    6.8842   56.1225 C   0  0  0  0  0  0  0  0  0  0  0  0
   21.5183    7.8250   56.3604 O   0  0  0  0  0  0  0  0  0  0  0  0
   21.4631    5.7025   57.5891 H   0  0  0  0  0  0  0  0  0  0  0  0
   21.6298    7.9196   52.5922 C   0  0  0  0  0  0  0  0  0  0  0  0
   21.4919    9.0400   51.5790 C   0  0  0  0  0  0  0  0  0  0  0  0
   20.4410    8.8754   50.7148 O   0  0  0  0  0  0  0  0  0  0  0  0
   21.1536   10.1964   52.5168 C   0  0  0  0  0  0  0  0  0  0  0  0
   21.9750    9.9522   53.5793 O   0  0  0  0  0  0  0  0  0  0  0  0
   22.0041    8.5945   53.8630 C   0  0  0  0  0  0  0  0  0  0  0  0
   19.6223    9.2266   51.1365 H   0  0  0  0  0  0  0  0  0  0  0  0
   21.4999   11.4978   51.9019 C   0  0  0  0  0  0  0  0  0  0  0  0
   21.4835   11.6028   50.5069 O   0  0  0  0  0  0  0  0  0  0  0  0
   21.7977   12.4697   52.6313 O   0  0  0  0  0  0  0  0  0  0  0  0
   20.6756   11.2727   50.0260 H   0  0  0  0  0  0  0  0  0  0  0  0
   20.4520    6.1302   53.4040 C   0  0  0  0  0  0  0  0  0  0  0  0
   20.3613    7.3175   52.7069 O   0  0  0  0  0  0  0  0  0  0  0  0
 50 51  1  0  0  0
 51 39  1  0  0  0
 39 40  1  0  0  0
 40 41  1  0  0  0
 40 42  1  0  0  0
 42 43  1  0  0  0
 43 44  1  0  0  0
 44 29  1  0  0  0
 29 28  1  0  0  0
 28  1  1  0  0  0
  1  2  1  0  0  0
  2  3  1  0  0  0
  3  4  2  0  0  0
  4  5  1  0  0  0
  5  6  1  0  0  0
  5  7  1  0  0  0
  7  8  1  0  0  0
  3 11  1  0  0  0
 11 12  2  0  0  0
 11 13  1  0  0  0
 13 15  1  0  0  0
 15 16  1  0  0  0
 16 17  1  0  0  0
 16 18  1  0  0  0
 18 19  1  0  0  0
 18 20  1  0  0  0
 20 21  1  0  0  0
 20 22  1  0  0  0
 22 23  1  0  0  0
 29 30  1  0  0  0
 30 31  1  0  0  0
 31 32  2  0  0  0
 32 33  1  0  0  0
 33 34  2  0  0  0
 33 35  1  0  0  0
 35 36  1  0  0  0
 36 37  2  0  0  0
 42 46  1  0  0  0
 46 47  1  0  0  0
 46 48  2  0  0  0
 44 39  1  0  0  0
  7  1  1  0  0  0
 22 15  1  0  0  0
 36 30  1  0  0  0
 41 45  1  0  0  0
  6  9  1  0  0  0
  8 10  1  0  0  0
 13 14  1  0  0  0
 17 24  1  0  0  0
 19 25  1  0  0  0
 21 26  1  0  0  0
 23 27  1  0  0  0
 35 38  1  0  0  0
 47 49  1  0  0  0
M  END
> <minimizedAffinity>
15.20848

> <CNNscore>
0.4000180364

> <CNNaffinity>
5.7492151260

> <CNN_VS>
2.2997896671

> <CNNaffinity_variance>
0.6367539167

$$$$
[H]OC(=O)[C@]1([H])O[C@]([H])([C@@]([H])(O[C@@]2([H])OC(C(=O)N([H])C3([H])[C@]([H])(O[H])[C@]([H])(O[H])[C@@]([H])(O[H])[C@@]3([H])O[H])=C([H])[C@]([H])(O[H])[C@]2([H])O[H])n2c([H])c([H])c(=O)n([H])c2=O)[C@@]([H])(OC([H])([H])[H])[C@@]1([H])O[H]


 51 54  0  0  0  0  0  0  0  0999 V2000
   25.7234    9.3229   55.2074 C   0  0  0  0  0  0  0  0  0  0  0  0
   26.2544    9.2424   56.4894 O   0  0  0  0  0  0  0  0  0  0  0  0
   27.6219    9.3213   56.6992 C   0  0  0  0  0  0  0  0  0  0  0  0
   28.3507    8.5515   55.9109 C   0  0  0  0  0  0  0  0  0  0  0  0
   27.6297    7.7114   54.9188 C   0  0  0  0  0  0  0  0  0  0  0  0
   28.5588    7.3399   53.9392 O   0  0  0  0  0  0  0  0  0  0  0  0
   26.4232    8.3239   54.3203 C   0  0  0  0  0  0  0  0  0  0  0  0
   26.7934    8.9661   53.1353 O   0  0  0  0  0  0  0  0  0  0  0  0
   29.2496    6.8192   54.4143 H   0  0  0  0  0  0  0  0  0  0  0  0
   26.6816    8.3778   52.3521 H   0  0  0  0  0  0  0  0  0  0  0  0
   28.2145   10.1958   57.7253 C   0  0  0  0  0  0  0  0  0  0  0  0
   28.8388   11.2409   57.4007 O   0  0  0  0  0  0  0  0  0  0  0  0
   28.0733    9.8455   59.0859 N   0  0  0  0  0  0  0  0  0  0  0  0
   27.5714    8.9960   59.4203 H   0  0  0  0  0  0  0  0  0  0  0  0
   28.6777   10.7468   60.0653 C   0  0  0  0  0  0  0  0  0  0  0  0
   27.8709   12.0534   60.1001 C   0  0  0  0  0  0  0  0  0  0  0  0
   27.8301   12.5347   58.8112 O   0  0  0  0  0  0  0  0  0  0  0  0
   28.8186   12.8992   60.9612 C   0  0  0  0  0  0  0  0  0  0  0  0
   28.5192   14.2387   60.9024 O   0  0  0  0  0  0  0  0  0  0  0  0
   30.1734   12.5350   60.4339 C   0  0  0  0  0  0  0  0  0  0  0  0
   31.0408   12.3018   61.5184 O   0  0  0  0  0  0  0  0  0  0  0  0
   30.0230   11.2431   59.6627 C   0  0  0  0  0  0  0  0  0  0  0  0
   31.0663   10.3848   59.9986 O   0  0  0  0  0  0  0  0  0  0  0  0
   26.9277   12.6029   58.4322 H   0  0  0  0  0  0  0  0  0  0  0  0
   29.0570   14.6869   60.2187 H   0  0  0  0  0  0  0  0  0  0  0  0
   31.3023   13.1345   61.9722 H   0  0  0  0  0  0  0  0  0  0  0  0
   31.8982   10.7983   59.6450 H   0  0  0  0  0  0  0  0  0  0  0  0
   24.3451    9.1284   55.1733 O   0  0  0  0  0  0  0  0  0  0  0  0
   23.8250    8.7427   53.9732 C   0  0  0  0  0  0  0  0  0  0  0  0
   23.9106    7.2821   53.8086 N   0  0  0  0  0  0  0  0  0  0  0  0
   24.3286    6.7254   52.6633 C   0  0  0  0  0  0  0  0  0  0  0  0
   24.4224    5.3623   52.4773 C   0  0  0  0  0  0  0  0  0  0  0  0
   24.0615    4.5535   53.5403 C   0  0  0  0  0  0  0  0  0  0  0  0
   24.1443    3.3074   53.3803 O   0  0  0  0  0  0  0  0  0  0  0  0
   23.6455    5.1212   54.6793 N   0  0  0  0  0  0  0  0  0  0  0  0
   23.5669    6.4655   54.8232 C   0  0  0  0  0  0  0  0  0  0  0  0
   23.1642    6.9143   55.9303 O   0  0  0  0  0  0  0  0  0  0  0  0
   23.3738    4.5118   55.4808 H   0  0  0  0  0  0  0  0  0  0  0  0
   21.4262    8.2134   54.5673 C   0  0  0  0  0  0  0  0  0  0  0  0
   20.5662    7.6274   53.4636 C   0  0  0  0  0  0  0  0  0  0  0  0
   19.2493    7.4767   53.8122 O   0  0  0  0  0  0  0  0  0  0  0  0
   20.6558    8.7561   52.4392 C   0  0  0  0  0  0  0  0  0  0  0  0
   21.9629    9.1351   52.5454 O   0  0  0  0  0  0  0  0  0  0  0  0
   22.3534    9.1482   53.8766 C   0  0  0  0  0  0  0  0  0  0  0  0
   18.7778    8.3279   53.6559 H   0  0  0  0  0  0  0  0  0  0  0  0
   20.3868    8.2554   51.0723 C   0  0  0  0  0  0  0  0  0  0  0  0
   21.3427    7.4372   50.4604 O   0  0  0  0  0  0  0  0  0  0  0  0
   19.3223    8.5686   50.4944 O   0  0  0  0  0  0  0  0  0  0  0  0
   21.6894    6.6604   50.9793 H   0  0  0  0  0  0  0  0  0  0  0  0
   21.0635   10.1764   55.6911 C   0  0  0  0  0  0  0  0  0  0  0  0
   20.5601    8.9195   55.4252 O   0  0  0  0  0  0  0  0  0  0  0  0
 50 51  1  0  0  0
 51 39  1  0  0  0
 39 40  1  0  0  0
 40 41  1  0  0  0
 40 42  1  0  0  0
 42 43  1  0  0  0
 43 44  1  0  0  0
 44 29  1  0  0  0
 29 28  1  0  0  0
 28  1  1  0  0  0
  1  2  1  0  0  0
  2  3  1  0  0  0
  3  4  2  0  0  0
  4  5  1  0  0  0
  5  6  1  0  0  0
  5  7  1  0  0  0
  7  8  1  0  0  0
  3 11  1  0  0  0
 11 12  2  0  0  0
 11 13  1  0  0  0
 13 15  1  0  0  0
 15 16  1  0  0  0
 16 17  1  0  0  0
 16 18  1  0  0  0
 18 19  1  0  0  0
 18 20  1  0  0  0
 20 21  1  0  0  0
 20 22  1  0  0  0
 22 23  1  0  0  0
 29 30  1  0  0  0
 30 31  1  0  0  0
 31 32  2  0  0  0
 32 33  1  0  0  0
 33 34  2  0  0  0
 33 35  1  0  0  0
 35 36  1  0  0  0
 36 37  2  0  0  0
 42 46  1  0  0  0
 46 47  1  0  0  0
 46 48  2  0  0  0
 44 39  1  0  0  0
  7  1  1  0  0  0
 22 15  1  0  0  0
 36 30  1  0  0  0
 41 45  1  0  0  0
  6  9  1  0  0  0
  8 10  1  0  0  0
 13 14  1  0  0  0
 17 24  1  0  0  0
 19 25  1  0  0  0
 21 26  1  0  0  0
 23 27  1  0  0  0
 35 38  1  0  0  0
 47 49  1  0  0  0
M  END
> <minimizedAffinity>
13.20530

> <CNNscore>
0.3974055052

> <CNNaffinity>
5.9061393738

> <CNN_VS>
2.3471322060

> <CNNaffinity_variance>
0.4689420164

$$$$
[H]OC(=O)[C@]1([H])O[C@]([H])([C@@]([H])(O[C@@]2([H])OC(C(=O)N([H])C3([H])[C@]([H])(O[H])[C@]([H])(O[H])[C@@]([H])(O[H])[C@@]3([H])O[H])=C([H])[C@]([H])(O[H])[C@]2([H])O[H])n2c([H])c([H])c(=O)n([H])c2=O)[C@@]([H])(OC([H])([H])[H])[C@@]1([H])O[H]


 51 54  0  0  0  0  0  0  0  0999 V2000
   25.8700    8.8961   54.9167 C   0  0  0  0  0  0  0  0  0  0  0  0
   26.3883    8.8507   56.2056 O   0  0  0  0  0  0  0  0  0  0  0  0
   27.7257    9.1242   56.4447 C   0  0  0  0  0  0  0  0  0  0  0  0
   28.5724    8.4988   55.6464 C   0  0  0  0  0  0  0  0  0  0  0  0
   27.9990    7.5961   54.6139 C   0  0  0  0  0  0  0  0  0  0  0  0
   28.9873    7.4006   53.6412 O   0  0  0  0  0  0  0  0  0  0  0  0
   26.7236    8.0432   54.0119 C   0  0  0  0  0  0  0  0  0  0  0  0
   27.0114    8.7740   52.8556 O   0  0  0  0  0  0  0  0  0  0  0  0
   29.7409    6.9720   54.1128 H   0  0  0  0  0  0  0  0  0  0  0  0
   26.9999    8.2032   52.0519 H   0  0  0  0  0  0  0  0  0  0  0  0
   28.1664   10.0407   57.5098 C   0  0  0  0  0  0  0  0  0  0  0  0
   28.4890   11.2297   57.2458 O   0  0  0  0  0  0  0  0  0  0  0  0
   28.2234    9.5667   58.8386 N   0  0  0  0  0  0  0  0  0  0  0  0
   27.9721    8.5964   59.1230 H   0  0  0  0  0  0  0  0  0  0  0  0
   28.6653   10.5156   59.8591 C   0  0  0  0  0  0  0  0  0  0  0  0
   27.7772   11.7669   59.7898 C   0  0  0  0  0  0  0  0  0  0  0  0
   27.8381   12.2313   58.4954 O   0  0  0  0  0  0  0  0  0  0  0  0
   28.5756   12.6816   60.7284 C   0  0  0  0  0  0  0  0  0  0  0  0
   28.1987   13.9980   60.6169 O   0  0  0  0  0  0  0  0  0  0  0  0
   29.9978   12.4013   60.3476 C   0  0  0  0  0  0  0  0  0  0  0  0
   30.7626   12.2363   61.5185 O   0  0  0  0  0  0  0  0  0  0  0  0
   30.0102   11.0945   59.5870 C   0  0  0  0  0  0  0  0  0  0  0  0
   31.0664   10.3097   60.0416 O   0  0  0  0  0  0  0  0  0  0  0  0
   26.9768   12.2365   58.0256 H   0  0  0  0  0  0  0  0  0  0  0  0
   28.7740   14.4734   59.9840 H   0  0  0  0  0  0  0  0  0  0  0  0
   30.9225   13.0889   61.9825 H   0  0  0  0  0  0  0  0  0  0  0  0
   31.9020   10.7731   59.7675 H   0  0  0  0  0  0  0  0  0  0  0  0
   24.5367    8.5006   54.8494 O   0  0  0  0  0  0  0  0  0  0  0  0
   24.0970    8.0851   53.6272 C   0  0  0  0  0  0  0  0  0  0  0  0
   24.2288    6.6251   53.4901 N   0  0  0  0  0  0  0  0  0  0  0  0
   24.8947    6.0707   52.4675 C   0  0  0  0  0  0  0  0  0  0  0  0
   25.0384    4.7082   52.3110 C   0  0  0  0  0  0  0  0  0  0  0  0
   24.4575    3.8976   53.2701 C   0  0  0  0  0  0  0  0  0  0  0  0
   24.5837    2.6520   53.1361 O   0  0  0  0  0  0  0  0  0  0  0  0
   23.7948    4.4630   54.2868 N   0  0  0  0  0  0  0  0  0  0  0  0
   23.6754    5.8067   54.4058 C   0  0  0  0  0  0  0  0  0  0  0  0
   23.0338    6.2533   55.3948 O   0  0  0  0  0  0  0  0  0  0  0  0
   23.3572    3.8522   55.0100 H   0  0  0  0  0  0  0  0  0  0  0  0
   22.4007    9.5831   52.5023 C   0  0  0  0  0  0  0  0  0  0  0  0
   21.7954   10.6832   53.3533 C   0  0  0  0  0  0  0  0  0  0  0  0
   20.7978   11.3811   52.7241 O   0  0  0  0  0  0  0  0  0  0  0  0
   21.1572    9.8378   54.4530 C   0  0  0  0  0  0  0  0  0  0  0  0
   22.0999    8.8711   54.6535 O   0  0  0  0  0  0  0  0  0  0  0  0
   22.6239    8.4508   53.4397 C   0  0  0  0  0  0  0  0  0  0  0  0
   19.9473   10.8964   52.8387 H   0  0  0  0  0  0  0  0  0  0  0  0
   20.9750   10.6274   55.6919 C   0  0  0  0  0  0  0  0  0  0  0  0
   21.8664   10.4239   56.7508 O   0  0  0  0  0  0  0  0  0  0  0  0
   20.0383   11.4531   55.7700 O   0  0  0  0  0  0  0  0  0  0  0  0
   22.8416   10.4446   56.5472 H   0  0  0  0  0  0  0  0  0  0  0  0
   21.1285    7.8984   51.6129 C   0  0  0  0  0  0  0  0  0  0  0  0
   21.4359    9.2412   51.5344 O   0  0  0  0  0  0  0  0  0  0  0  0
 50 51  1  0  0  0
 51 39  1  0  0  0
 39 40  1  0  0  0
 40 41  1  0  0  0
 40 42  1  0  0  0
 42 43  1  0  0  0
 43 44  1  0  0  0
 44 29  1  0  0  0
 29 28  1  0  0  0
 28  1  1  0  0  0
  1  2  1  0  0  0
  2  3  1  0  0  0
  3  4  2  0  0  0
  4  5  1  0  0  0
  5  6  1  0  0  0
  5  7  1  0  0  0
  7  8  1  0  0  0
  3 11  1  0  0  0
 11 12  2  0  0  0
 11 13  1  0  0  0
 13 15  1  0  0  0
 15 16  1  0  0  0
 16 17  1  0  0  0
 16 18  1  0  0  0
 18 19  1  0  0  0
 18 20  1  0  0  0
 20 21  1  0  0  0
 20 22  1  0  0  0
 22 23  1  0  0  0
 29 30  1  0  0  0
 30 31  1  0  0  0
 31 32  2  0  0  0
 32 33  1  0  0  0
 33 34  2  0  0  0
 33 35  1  0  0  0
 35 36  1  0  0  0
 36 37  2  0  0  0
 42 46  1  0  0  0
 46 47  1  0  0  0
 46 48  2  0  0  0
 44 39  1  0  0  0
  7  1  1  0  0  0
 22 15  1  0  0  0
 36 30  1  0  0  0
 41 45  1  0  0  0
  6  9  1  0  0  0
  8 10  1  0  0  0
 13 14  1  0  0  0
 17 24  1  0  0  0
 19 25  1  0  0  0
 21 26  1  0  0  0
 23 27  1  0  0  0
 35 38  1  0  0  0
 47 49  1  0  0  0
M  END
> <minimizedAffinity>
20.61767

> <CNNscore>
0.3832803965

> <CNNaffinity>
5.8336715698

> <CNN_VS>
2.2359318733

> <CNNaffinity_variance>
0.2791683078

$$$$
[H]OC(=O)[C@]1([H])O[C@]([H])([C@@]([H])(O[C@@]2([H])OC(C(=O)N([H])C3([H])[C@]([H])(O[H])[C@]([H])(O[H])[C@@]([H])(O[H])[C@@]3([H])O[H])=C([H])[C@]([H])(O[H])[C@]2([H])O[H])n2c([H])c([H])c(=O)n([H])c2=O)[C@@]([H])(OC([H])([H])[H])[C@@]1([H])O[H]


 51 54  0  0  0  0  0  0  0  0999 V2000
   26.0196    9.2224   54.6101 C   0  0  0  0  0  0  0  0  0  0  0  0
   26.1935    8.8650   55.9420 O   0  0  0  0  0  0  0  0  0  0  0  0
   27.4623    8.7170   56.4792 C   0  0  0  0  0  0  0  0  0  0  0  0
   28.2916    7.9881   55.7536 C   0  0  0  0  0  0  0  0  0  0  0  0
   27.7721    7.4264   54.4791 C   0  0  0  0  0  0  0  0  0  0  0  0
   28.8814    7.0891   53.6938 O   0  0  0  0  0  0  0  0  0  0  0  0
   26.8243    8.2894   53.7403 C   0  0  0  0  0  0  0  0  0  0  0  0
   27.5463    9.0539   52.8194 O   0  0  0  0  0  0  0  0  0  0  0  0
   29.3738    6.4077   54.2109 H   0  0  0  0  0  0  0  0  0  0  0  0
   27.5833    8.6195   51.9352 H   0  0  0  0  0  0  0  0  0  0  0  0
   27.8528    9.3249   57.7623 C   0  0  0  0  0  0  0  0  0  0  0  0
   28.0573    8.6103   58.7797 O   0  0  0  0  0  0  0  0  0  0  0  0
   27.9958   10.7276   57.8382 N   0  0  0  0  0  0  0  0  0  0  0  0
   27.8404   11.3739   57.0360 H   0  0  0  0  0  0  0  0  0  0  0  0
   28.3867   11.2818   59.1333 C   0  0  0  0  0  0  0  0  0  0  0  0
   27.8305   12.7087   59.2497 C   0  0  0  0  0  0  0  0  0  0  0  0
   28.2852   13.4076   58.1545 O   0  0  0  0  0  0  0  0  0  0  0  0
   28.5710   13.1536   60.5181 C   0  0  0  0  0  0  0  0  0  0  0  0
   28.5237   14.5147   60.6980 O   0  0  0  0  0  0  0  0  0  0  0  0
   29.9474   12.5937   60.3221 C   0  0  0  0  0  0  0  0  0  0  0  0
   30.3694   11.9830   61.5188 O   0  0  0  0  0  0  0  0  0  0  0  0
   29.8507   11.5264   59.2555 C   0  0  0  0  0  0  0  0  0  0  0  0
   30.5792   10.4100   59.6568 O   0  0  0  0  0  0  0  0  0  0  0  0
   27.5766   13.7430   57.5647 H   0  0  0  0  0  0  0  0  0  0  0  0
   29.3176   14.9445   60.3203 H   0  0  0  0  0  0  0  0  0  0  0  0
   30.5992   12.6416   62.2125 H   0  0  0  0  0  0  0  0  0  0  0  0
   31.5353   10.6820   59.6605 H   0  0  0  0  0  0  0  0  0  0  0  0
   24.6842    9.2310   54.2162 O   0  0  0  0  0  0  0  0  0  0  0  0
   23.8255    8.5159   54.9977 C   0  0  0  0  0  0  0  0  0  0  0  0
   22.6137    9.2966   55.2973 N   0  0  0  0  0  0  0  0  0  0  0  0
   22.4342   10.5330   54.8120 C   0  0  0  0  0  0  0  0  0  0  0  0
   21.3108   11.2894   55.0716 C   0  0  0  0  0  0  0  0  0  0  0  0
   20.3379   10.7206   55.8742 C   0  0  0  0  0  0  0  0  0  0  0  0
   19.3081   11.4035   56.1164 O   0  0  0  0  0  0  0  0  0  0  0  0
   20.5285    9.4849   56.3531 N   0  0  0  0  0  0  0  0  0  0  0  0
   21.6467    8.7731   56.0755 C   0  0  0  0  0  0  0  0  0  0  0  0
   21.7436    7.6171   56.5687 O   0  0  0  0  0  0  0  0  0  0  0  0
   19.7951    9.0559   56.9577 H   0  0  0  0  0  0  0  0  0  0  0  0
   23.9398    7.1053   52.9039 C   0  0  0  0  0  0  0  0  0  0  0  0
   22.7193    7.1257   52.0033 C   0  0  0  0  0  0  0  0  0  0  0  0
   22.7955    6.2500   50.9518 O   0  0  0  0  0  0  0  0  0  0  0  0
   21.6693    6.5996   52.9790 C   0  0  0  0  0  0  0  0  0  0  0  0
   22.0213    7.2233   54.1411 O   0  0  0  0  0  0  0  0  0  0  0  0
   23.4012    7.2315   54.2839 C   0  0  0  0  0  0  0  0  0  0  0  0
   22.4935    5.3616   51.2531 H   0  0  0  0  0  0  0  0  0  0  0  0
   20.3092    7.0211   52.5739 C   0  0  0  0  0  0  0  0  0  0  0  0
   19.2702    6.9084   53.5041 O   0  0  0  0  0  0  0  0  0  0  0  0
   20.1144    7.4654   51.4207 O   0  0  0  0  0  0  0  0  0  0  0  0
   19.4196    7.2843   54.4147 H   0  0  0  0  0  0  0  0  0  0  0  0
   24.3770    5.0628   53.8444 C   0  0  0  0  0  0  0  0  0  0  0  0
   24.5549    5.8505   52.7256 O   0  0  0  0  0  0  0  0  0  0  0  0
 50 51  1  0  0  0
 51 39  1  0  0  0
 39 40  1  0  0  0
 40 41  1  0  0  0
 40 42  1  0  0  0
 42 43  1  0  0  0
 43 44  1  0  0  0
 44 29  1  0  0  0
 29 28  1  0  0  0
 28  1  1  0  0  0
  1  2  1  0  0  0
  2  3  1  0  0  0
  3  4  2  0  0  0
  4  5  1  0  0  0
  5  6  1  0  0  0
  5  7  1  0  0  0
  7  8  1  0  0  0
  3 11  1  0  0  0
 11 12  2  0  0  0
 11 13  1  0  0  0
 13 15  1  0  0  0
 15 16  1  0  0  0
 16 17  1  0  0  0
 16 18  1  0  0  0
 18 19  1  0  0  0
 18 20  1  0  0  0
 20 21  1  0  0  0
 20 22  1  0  0  0
 22 23  1  0  0  0
 29 30  1  0  0  0
 30 31  1  0  0  0
 31 32  2  0  0  0
 32 33  1  0  0  0
 33 34  2  0  0  0
 33 35  1  0  0  0
 35 36  1  0  0  0
 36 37  2  0  0  0
 42 46  1  0  0  0
 46 47  1  0  0  0
 46 48  2  0  0  0
 44 39  1  0  0  0
  7  1  1  0  0  0
 22 15  1  0  0  0
 36 30  1  0  0  0
 41 45  1  0  0  0
  6  9  1  0  0  0
  8 10  1  0  0  0
 13 14  1  0  0  0
 17 24  1  0  0  0
 19 25  1  0  0  0
 21 26  1  0  0  0
 23 27  1  0  0  0
 35 38  1  0  0  0
 47 49  1  0  0  0
M  END
> <minimizedAffinity>
23.73785

> <CNNscore>
0.3501747251

> <CNNaffinity>
5.5777420998

> <CNN_VS>
1.9531842470

> <CNNaffinity_variance>
0.2993324995

$$$$
[H]OC(=O)[C@]1([H])O[C@]([H])([C@@]([H])(O[C@@]2([H])OC(C(=O)N([H])C3([H])[C@]([H])(O[H])[C@]([H])(O[H])[C@@]([H])(O[H])[C@@]3([H])O[H])=C([H])[C@]([H])(O[H])[C@]2([H])O[H])n2c([H])c([H])c(=O)n([H])c2=O)[C@@]([H])(OC([H])([H])[H])[C@@]1([H])O[H]


 51 54  0  0  0  0  0  0  0  0999 V2000
   24.5981    8.0881   54.3812 C   0  0  0  0  0  0  0  0  0  0  0  0
   25.6414    7.7431   55.2323 O   0  0  0  0  0  0  0  0  0  0  0  0
   26.8486    8.4224   55.1897 C   0  0  0  0  0  0  0  0  0  0  0  0
   27.3518    8.5864   53.9792 C   0  0  0  0  0  0  0  0  0  0  0  0
   26.5794    8.0317   52.8367 C   0  0  0  0  0  0  0  0  0  0  0  0
   27.0343    8.6754   51.6792 O   0  0  0  0  0  0  0  0  0  0  0  0
   25.1074    8.1127   52.9618 C   0  0  0  0  0  0  0  0  0  0  0  0
   24.6755    9.2962   52.3562 O   0  0  0  0  0  0  0  0  0  0  0  0
   27.9918    8.4466   51.6087 H   0  0  0  0  0  0  0  0  0  0  0  0
   24.4223    9.1518   51.4144 H   0  0  0  0  0  0  0  0  0  0  0  0
   27.5181    8.9203   56.4032 C   0  0  0  0  0  0  0  0  0  0  0  0
   28.7473    9.1969   56.3950 O   0  0  0  0  0  0  0  0  0  0  0  0
   26.7602    9.0842   57.5832 N   0  0  0  0  0  0  0  0  0  0  0  0
   25.7427    8.8728   57.6568 H   0  0  0  0  0  0  0  0  0  0  0  0
   27.4705    9.5827   58.7596 C   0  0  0  0  0  0  0  0  0  0  0  0
   27.6638   11.0997   58.6157 C   0  0  0  0  0  0  0  0  0  0  0  0
   28.3028   11.3110   57.4149 O   0  0  0  0  0  0  0  0  0  0  0  0
   28.6275   11.3323   59.7870 C   0  0  0  0  0  0  0  0  0  0  0  0
   29.2419   12.5592   59.7197 O   0  0  0  0  0  0  0  0  0  0  0  0
   29.5566   10.1594   59.7009 C   0  0  0  0  0  0  0  0  0  0  0  0
   29.7374    9.6212   60.9896 O   0  0  0  0  0  0  0  0  0  0  0  0
   28.8815    9.1135   58.8425 C   0  0  0  0  0  0  0  0  0  0  0  0
   29.0283    7.8651   59.4410 O   0  0  0  0  0  0  0  0  0  0  0  0
   27.7901   11.8453   56.7713 H   0  0  0  0  0  0  0  0  0  0  0  0
   30.1107   12.4906   59.2747 H   0  0  0  0  0  0  0  0  0  0  0  0
   30.3063   10.1909   61.5549 H   0  0  0  0  0  0  0  0  0  0  0  0
   29.9964    7.6435   59.4001 H   0  0  0  0  0  0  0  0  0  0  0  0
   23.4984    7.2415   54.4932 O   0  0  0  0  0  0  0  0  0  0  0  0
   22.5991    7.2903   53.4692 C   0  0  0  0  0  0  0  0  0  0  0  0
   21.8272    6.0393   53.3879 N   0  0  0  0  0  0  0  0  0  0  0  0
   22.4114    4.8407   53.5241 C   0  0  0  0  0  0  0  0  0  0  0  0
   21.7174    3.6511   53.4554 C   0  0  0  0  0  0  0  0  0  0  0  0
   20.3536    3.7273   53.2345 C   0  0  0  0  0  0  0  0  0  0  0  0
   19.7112    2.6464   53.1708 O   0  0  0  0  0  0  0  0  0  0  0  0
   19.7814    4.9303   53.1000 N   0  0  0  0  0  0  0  0  0  0  0  0
   20.4978    6.0772   53.1737 C   0  0  0  0  0  0  0  0  0  0  0  0
   19.8777    7.1660   53.0352 O   0  0  0  0  0  0  0  0  0  0  0  0
   18.7535    4.9879   52.9339 H   0  0  0  0  0  0  0  0  0  0  0  0
   22.0047    9.6972   52.9787 C   0  0  0  0  0  0  0  0  0  0  0  0
   22.2646   10.7007   54.0862 C   0  0  0  0  0  0  0  0  0  0  0  0
   21.8103   11.9626   53.8043 O   0  0  0  0  0  0  0  0  0  0  0  0
   21.3759   10.1139   55.1804 C   0  0  0  0  0  0  0  0  0  0  0  0
   21.5802    8.7731   55.0259 O   0  0  0  0  0  0  0  0  0  0  0  0
   21.6172    8.4441   53.6787 C   0  0  0  0  0  0  0  0  0  0  0  0
   20.8568   12.0207   54.0468 H   0  0  0  0  0  0  0  0  0  0  0  0
   21.8331   10.5411   56.5220 C   0  0  0  0  0  0  0  0  0  0  0  0
   20.9311   11.2162   57.3515 O   0  0  0  0  0  0  0  0  0  0  0  0
   23.0041   10.2941   56.8870 O   0  0  0  0  0  0  0  0  0  0  0  0
   20.0278   10.8152   57.4786 H   0  0  0  0  0  0  0  0  0  0  0  0
   21.3795   10.7762   51.0570 C   0  0  0  0  0  0  0  0  0  0  0  0
   20.9251   10.1963   52.2237 O   0  0  0  0  0  0  0  0  0  0  0  0
 50 51  1  0  0  0
 51 39  1  0  0  0
 39 40  1  0  0  0
 40 41  1  0  0  0
 40 42  1  0  0  0
 42 43  1  0  0  0
 43 44  1  0  0  0
 44 29  1  0  0  0
 29 28  1  0  0  0
 28  1  1  0  0  0
  1  2  1  0  0  0
  2  3  1  0  0  0
  3  4  2  0  0  0
  4  5  1  0  0  0
  5  6  1  0  0  0
  5  7  1  0  0  0
  7  8  1  0  0  0
  3 11  1  0  0  0
 11 12  2  0  0  0
 11 13  1  0  0  0
 13 15  1  0  0  0
 15 16  1  0  0  0
 16 17  1  0  0  0
 16 18  1  0  0  0
 18 19  1  0  0  0
 18 20  1  0  0  0
 20 21  1  0  0  0
 20 22  1  0  0  0
 22 23  1  0  0  0
 29 30  1  0  0  0
 30 31  1  0  0  0
 31 32  2  0  0  0
 32 33  1  0  0  0
 33 34  2  0  0  0
 33 35  1  0  0  0
 35 36  1  0  0  0
 36 37  2  0  0  0
 42 46  1  0  0  0
 46 47  1  0  0  0
 46 48  2  0  0  0
 44 39  1  0  0  0
  7  1  1  0  0  0
 22 15  1  0  0  0
 36 30  1  0  0  0
 41 45  1  0  0  0
  6  9  1  0  0  0
  8 10  1  0  0  0
 13 14  1  0  0  0
 17 24  1  0  0  0
 19 25  1  0  0  0
 21 26  1  0  0  0
 23 27  1  0  0  0
 35 38  1  0  0  0
 47 49  1  0  0  0
M  END
> <minimizedAffinity>
30.06002

> <CNNscore>
0.3234048188

> <CNNaffinity>
5.7548737526

> <CNN_VS>
1.8611539602

> <CNNaffinity_variance>
0.4226318002

$$$$
[H]c1sc(C([H])([H])[H])nc1C#Cc1c([H])c([H])c([H])c(C#N)c1[H]


 16 17  0  0  0  0  0  0  0  0999 V2000
   25.4693    9.0821   55.5581 C   0  0  0  0  0  0  0  0  0  0  0  0
   24.3383    9.1488   55.1476 C   0  0  0  0  0  0  0  0  0  0  0  0
   28.9967    9.3266   59.0636 C   0  0  0  0  0  0  0  0  0  0  0  0
   28.4347    9.1367   57.6725 C   0  0  0  0  0  0  0  0  0  0  0  0
   27.1713    9.2061   57.2828 N   0  0  0  0  0  0  0  0  0  0  0  0
   26.8601    9.0153   56.0403 C   0  0  0  0  0  0  0  0  0  0  0  0
   27.8923    8.7431   55.1701 C   0  0  0  0  0  0  0  0  0  0  0  0
   29.2451    8.7821   56.2127 S   0  0  0  0  0  0  0  0  0  0  0  0
   22.9945    9.2526   54.6538 C   0  0  0  0  0  0  0  0  0  0  0  0
   22.0469   10.0475   55.3043 C   0  0  0  0  0  0  0  0  0  0  0  0
   20.7539   10.1636   54.8515 C   0  0  0  0  0  0  0  0  0  0  0  0
   20.3889    9.4704   53.7190 C   0  0  0  0  0  0  0  0  0  0  0  0
   21.3291    8.6851   53.0782 C   0  0  0  0  0  0  0  0  0  0  0  0
   22.6316    8.5667   53.5322 C   0  0  0  0  0  0  0  0  0  0  0  0
   20.9401    7.9647   51.8965 C   0  0  0  0  0  0  0  0  0  0  0  0
   20.6079    7.3728   50.9441 N   0  0  0  0  0  0  0  0  0  0  0  0
  3  4  1  0  0  0
  4  5  2  0  0  0
  5  6  1  0  0  0
  6  7  2  0  0  0
  7  8  1  0  0  0
  6  1  1  0  0  0
  1  2  3  0  0  0
  2  9  1  0  0  0
  9 10  2  0  0  0
 10 11  1  0  0  0
 11 12  2  0  0  0
 12 13  1  0  0  0
 13 14  2  0  0  0
 13 15  1  0  0  0
 15 16  3  0  0  0
  8  4  1  0  0  0
 14  9  1  0  0  0
M  END
> <minimizedAffinity>
7.87483

> <CNNscore>
0.8070020080

> <CNNaffinity>
5.4249234200

> <CNN_VS>
4.3779239655

> <CNNaffinity_variance>
0.0752753466

$$$$
[H]c1sc(C([H])([H])[H])nc1C#Cc1c([H])c([H])c([H])c(C#N)c1[H]


 16 17  0  0  0  0  0  0  0  0999 V2000
   23.9689    7.8262   53.9121 C   0  0  0  0  0  0  0  0  0  0  0  0
   25.0857    8.0991   54.2735 C   0  0  0  0  0  0  0  0  0  0  0  0
   19.9850    8.4181   50.9849 C   0  0  0  0  0  0  0  0  0  0  0  0
   20.8052    7.8225   52.1072 C   0  0  0  0  0  0  0  0  0  0  0  0
   22.0392    8.1319   52.4735 N   0  0  0  0  0  0  0  0  0  0  0  0
   22.5986    7.5177   53.4670 C   0  0  0  0  0  0  0  0  0  0  0  0
   21.8550    6.5491   54.1041 C   0  0  0  0  0  0  0  0  0  0  0  0
   20.3944    6.5944   53.2192 S   0  0  0  0  0  0  0  0  0  0  0  0
   26.4173    8.4415   54.6858 C   0  0  0  0  0  0  0  0  0  0  0  0
   27.4897    8.3675   53.7929 C   0  0  0  0  0  0  0  0  0  0  0  0
   28.7741    8.6899   54.1631 C   0  0  0  0  0  0  0  0  0  0  0  0
   29.0023    9.0981   55.4583 C   0  0  0  0  0  0  0  0  0  0  0  0
   27.9389    9.1700   56.3387 C   0  0  0  0  0  0  0  0  0  0  0  0
   26.6449    8.8459   55.9683 C   0  0  0  0  0  0  0  0  0  0  0  0
   28.1856    9.5970   57.6891 C   0  0  0  0  0  0  0  0  0  0  0  0
   28.4037    9.9371   58.7866 N   0  0  0  0  0  0  0  0  0  0  0  0
  3  4  1  0  0  0
  4  5  2  0  0  0
  5  6  1  0  0  0
  6  7  2  0  0  0
  7  8  1  0  0  0
  6  1  1  0  0  0
  1  2  3  0  0  0
  2  9  1  0  0  0
  9 10  2  0  0  0
 10 11  1  0  0  0
 11 12  2  0  0  0
 12 13  1  0  0  0
 13 14  2  0  0  0
 13 15  1  0  0  0
 15 16  3  0  0  0
  8  4  1  0  0  0
 14  9  1  0  0  0
M  END
> <minimizedAffinity>
1.75112

> <CNNscore>
0.5624647141

> <CNNaffinity>
4.9164061546

> <CNN_VS>
2.7653050423

> <CNNaffinity_variance>
0.1842775494

$$$$
[H]c1sc(C([H])([H])[H])nc1C#Cc1c([H])c([H])c([H])c(C#N)c1[H]


 16 17  0  0  0  0  0  0  0  0999 V2000
   24.4482    9.1036   55.6758 C   0  0  0  0  0  0  0  0  0  0  0  0
   23.4577    8.8112   55.0548 C   0  0  0  0  0  0  0  0  0  0  0  0
   29.0819   10.8494   56.1965 C   0  0  0  0  0  0  0  0  0  0  0  0
   27.7674   10.2498   56.6433 C   0  0  0  0  0  0  0  0  0  0  0  0
   26.7070    9.9588   55.9059 N   0  0  0  0  0  0  0  0  0  0  0  0
   25.6523    9.4445   56.4537 C   0  0  0  0  0  0  0  0  0  0  0  0
   25.6960    9.2234   57.8124 C   0  0  0  0  0  0  0  0  0  0  0  0
   27.2642    9.7764   58.2041 S   0  0  0  0  0  0  0  0  0  0  0  0
   22.2817    8.4388   54.3208 C   0  0  0  0  0  0  0  0  0  0  0  0
   21.0842    8.1453   54.9788 C   0  0  0  0  0  0  0  0  0  0  0  0
   19.9443    7.7862   54.2988 C   0  0  0  0  0  0  0  0  0  0  0  0
   19.9930    7.7158   52.9244 C   0  0  0  0  0  0  0  0  0  0  0  0
   21.1795    8.0069   52.2771 C   0  0  0  0  0  0  0  0  0  0  0  0
   22.3284    8.3687   52.9595 C   0  0  0  0  0  0  0  0  0  0  0  0
   21.2220    7.9311   50.8421 C   0  0  0  0  0  0  0  0  0  0  0  0
   21.2458    7.8539   49.6754 N   0  0  0  0  0  0  0  0  0  0  0  0
  3  4  1  0  0  0
  4  5  2  0  0  0
  5  6  1  0  0  0
  6  7  2  0  0  0
  7  8  1  0  0  0
  6  1  1  0  0  0
  1  2  3  0  0  0
  2  9  1  0  0  0
  9 10  2  0  0  0
 10 11  1  0  0  0
 11 12  2  0  0  0
 12 13  1  0  0  0
 13 14  2  0  0  0
 13 15  1  0  0  0
 15 16  3  0  0  0
  8  4  1  0  0  0
 14  9  1  0  0  0
M  END
> <minimizedAffinity>
22.83364

> <CNNscore>
0.5484223366

> <CNNaffinity>
4.7246804237

> <CNN_VS>
2.5911202431

> <CNNaffinity_variance>
0.0924687535

$$$$
[H]c1sc(C([H])([H])[H])nc1C#Cc1c([H])c([H])c([H])c(C#N)c1[H]


 16 17  0  0  0  0  0  0  0  0999 V2000
   25.5084    8.1445   54.6204 C   0  0  0  0  0  0  0  0  0  0  0  0
   24.4435    7.7346   54.2330 C   0  0  0  0  0  0  0  0  0  0  0  0
   28.4571   10.2945   58.0076 C   0  0  0  0  0  0  0  0  0  0  0  0
   28.1057    9.6398   56.6904 C   0  0  0  0  0  0  0  0  0  0  0  0
   26.9264    9.1944   56.2859 N   0  0  0  0  0  0  0  0  0  0  0  0
   26.7990    8.6549   55.1154 C   0  0  0  0  0  0  0  0  0  0  0  0
   27.9315    8.5733   54.3360 C   0  0  0  0  0  0  0  0  0  0  0  0
   29.1053    9.2848   55.3532 S   0  0  0  0  0  0  0  0  0  0  0  0
   23.1698    7.2384   53.7948 C   0  0  0  0  0  0  0  0  0  0  0  0
   22.6369    6.0578   54.3194 C   0  0  0  0  0  0  0  0  0  0  0  0
   21.4195    5.5618   53.9165 C   0  0  0  0  0  0  0  0  0  0  0  0
   20.7085    6.2574   52.9642 C   0  0  0  0  0  0  0  0  0  0  0  0
   21.2390    7.4249   52.4476 C   0  0  0  0  0  0  0  0  0  0  0  0
   22.4645    7.9263   52.8517 C   0  0  0  0  0  0  0  0  0  0  0  0
   20.4904    8.1452   51.4538 C   0  0  0  0  0  0  0  0  0  0  0  0
   19.8763    8.7147   50.6376 N   0  0  0  0  0  0  0  0  0  0  0  0
  3  4  1  0  0  0
  4  5  2  0  0  0
  5  6  1  0  0  0
  6  7  2  0  0  0
  7  8  1  0  0  0
  6  1  1  0  0  0
  1  2  3  0  0  0
  2  9  1  0  0  0
  9 10  2  0  0  0
 10 11  1  0  0  0
 11 12  2  0  0  0
 12 13  1  0  0  0
 13 14  2  0  0  0
 13 15  1  0  0  0
 15 16  3  0  0  0
  8  4  1  0  0  0
 14  9  1  0  0  0
M  END
> <minimizedAffinity>
2.71023

> <CNNscore>
0.5452315807

> <CNNaffinity>
5.1417422295

> <CNN_VS>
2.8034403324

> <CNNaffinity_variance>
0.1124389768

$$$$
[H]c1sc(C([H])([H])[H])nc1C#Cc1c([H])c([H])c([H])c(C#N)c1[H]


 16 17  0  0  0  0  0  0  0  0999 V2000
   22.0452    6.3649   54.0619 C   0  0  0  0  0  0  0  0  0  0  0  0
   21.2164    5.5206   53.8330 C   0  0  0  0  0  0  0  0  0  0  0  0
   26.7079    8.1093   54.1427 C   0  0  0  0  0  0  0  0  0  0  0  0
   25.2086    8.1494   54.3364 C   0  0  0  0  0  0  0  0  0  0  0  0
   24.3253    7.1939   54.0927 N   0  0  0  0  0  0  0  0  0  0  0  0
   23.0660    7.3965   54.3170 C   0  0  0  0  0  0  0  0  0  0  0  0
   22.7078    8.6312   54.8110 C   0  0  0  0  0  0  0  0  0  0  0  0
   24.2219    9.4155   54.9169 S   0  0  0  0  0  0  0  0  0  0  0  0
   20.2235    4.5267   53.5387 C   0  0  0  0  0  0  0  0  0  0  0  0
   20.5583    3.3525   52.8589 C   0  0  0  0  0  0  0  0  0  0  0  0
   19.6261    2.3854   52.5652 C   0  0  0  0  0  0  0  0  0  0  0  0
   18.3218    2.5886   52.9574 C   0  0  0  0  0  0  0  0  0  0  0  0
   17.9944    3.7514   53.6298 C   0  0  0  0  0  0  0  0  0  0  0  0
   18.9313    4.7265   53.9266 C   0  0  0  0  0  0  0  0  0  0  0  0
   16.6306    3.9558   54.0358 C   0  0  0  0  0  0  0  0  0  0  0  0
   15.5158    4.1221   54.3480 N   0  0  0  0  0  0  0  0  0  0  0  0
  3  4  1  0  0  0
  4  5  2  0  0  0
  5  6  1  0  0  0
  6  7  2  0  0  0
  7  8  1  0  0  0
  6  1  1  0  0  0
  1  2  3  0  0  0
  2  9  1  0  0  0
  9 10  2  0  0  0
 10 11  1  0  0  0
 11 12  2  0  0  0
 12 13  1  0  0  0
 13 14  2  0  0  0
 13 15  1  0  0  0
 15 16  3  0  0  0
  8  4  1  0  0  0
 14  9  1  0  0  0
M  END
> <minimizedAffinity>
15.83938

> <CNNscore>
0.5428606272

> <CNNaffinity>
5.2438049316

> <CNN_VS>
2.8466551304

> <CNNaffinity_variance>
0.0740375966

$$$$
[H]c1sc(C([H])([H])[H])nc1C#Cc1c([H])c([H])c([H])c(C#N)c1[H]


 16 17  0  0  0  0  0  0  0  0999 V2000
   25.1129    8.2801   54.2862 C   0  0  0  0  0  0  0  0  0  0  0  0
   24.0230    8.0770   53.8139 C   0  0  0  0  0  0  0  0  0  0  0  0
   28.2201    9.7642   57.8824 C   0  0  0  0  0  0  0  0  0  0  0  0
   27.8251    9.2373   56.5210 C   0  0  0  0  0  0  0  0  0  0  0  0
   26.6081    9.0078   56.0529 N   0  0  0  0  0  0  0  0  0  0  0  0
   26.4462    8.5513   54.8519 C   0  0  0  0  0  0  0  0  0  0  0  0
   27.5833    8.3242   54.1087 C   0  0  0  0  0  0  0  0  0  0  0  0
   28.8112    8.7882   55.2022 S   0  0  0  0  0  0  0  0  0  0  0  0
   22.7183    7.8590   53.2566 C   0  0  0  0  0  0  0  0  0  0  0  0
   22.1296    8.8019   52.4095 C   0  0  0  0  0  0  0  0  0  0  0  0
   20.8815    8.6166   51.8630 C   0  0  0  0  0  0  0  0  0  0  0  0
   20.1961    7.4612   52.1654 C   0  0  0  0  0  0  0  0  0  0  0  0
   20.7818    6.5308   53.0037 C   0  0  0  0  0  0  0  0  0  0  0  0
   22.0382    6.7151   53.5551 C   0  0  0  0  0  0  0  0  0  0  0  0
   20.0596    5.3272   53.3144 C   0  0  0  0  0  0  0  0  0  0  0  0
   19.4683    4.3458   53.5488 N   0  0  0  0  0  0  0  0  0  0  0  0
  3  4  1  0  0  0
  4  5  2  0  0  0
  5  6  1  0  0  0
  6  7  2  0  0  0
  7  8  1  0  0  0
  6  1  1  0  0  0
  1  2  3  0  0  0
  2  9  1  0  0  0
  9 10  2  0  0  0
 10 11  1  0  0  0
 11 12  2  0  0  0
 12 13  1  0  0  0
 13 14  2  0  0  0
 13 15  1  0  0  0
 15 16  3  0  0  0
  8  4  1  0  0  0
 14  9  1  0  0  0
M  END
> <minimizedAffinity>
0.66662

> <CNNscore>
0.5031024814

> <CNNaffinity>
5.0167479515

> <CNN_VS>
2.5239384174

> <CNNaffinity_variance>
0.2449083775

$$$$
[H]c1sc(C([H])([H])[H])nc1C#Cc1c([H])c([H])c([H])c(C#N)c1[H]


 16 17  0  0  0  0  0  0  0  0999 V2000
   25.8984    9.0949   55.7861 C   0  0  0  0  0  0  0  0  0  0  0  0
   24.9950    8.6332   55.1357 C   0  0  0  0  0  0  0  0  0  0  0  0
   28.1999   12.7771   58.2221 C   0  0  0  0  0  0  0  0  0  0  0  0
   28.0007   11.3720   57.6996 C   0  0  0  0  0  0  0  0  0  0  0  0
   27.0022   10.9043   56.9668 N   0  0  0  0  0  0  0  0  0  0  0  0
   26.9869    9.6620   56.6013 C   0  0  0  0  0  0  0  0  0  0  0  0
   28.0419    8.8757   57.0082 C   0  0  0  0  0  0  0  0  0  0  0  0
   28.9853    9.9912   57.8937 S   0  0  0  0  0  0  0  0  0  0  0  0
   23.9116    8.0700   54.3812 C   0  0  0  0  0  0  0  0  0  0  0  0
   23.5746    6.7191   54.5022 C   0  0  0  0  0  0  0  0  0  0  0  0
   22.5416    6.1558   53.7907 C   0  0  0  0  0  0  0  0  0  0  0  0
   21.8206    6.9561   52.9329 C   0  0  0  0  0  0  0  0  0  0  0  0
   22.1569    8.2919   52.8159 C   0  0  0  0  0  0  0  0  0  0  0  0
   23.1965    8.8614   53.5312 C   0  0  0  0  0  0  0  0  0  0  0  0
   21.3992    9.1207   51.9182 C   0  0  0  0  0  0  0  0  0  0  0  0
   20.7941    9.8094   51.1922 N   0  0  0  0  0  0  0  0  0  0  0  0
  3  4  1  0  0  0
  4  5  2  0  0  0
  5  6  1  0  0  0
  6  7  2  0  0  0
  7  8  1  0  0  0
  6  1  1  0  0  0
  1  2  3  0  0  0
  2  9  1  0  0  0
  9 10  2  0  0  0
 10 11  1  0  0  0
 11 12  2  0  0  0
 12 13  1  0  0  0
 13 14  2  0  0  0
 13 15  1  0  0  0
 15 16  3  0  0  0
  8  4  1  0  0  0
 14  9  1  0  0  0
M  END
> <minimizedAffinity>
7.65470

> <CNNscore>
0.5000820756

> <CNNaffinity>
4.9194040298

> <CNN_VS>
2.4601058960

> <CNNaffinity_variance>
0.1023414135

$$$$
[H]c1sc(C([H])([H])[H])nc1C#Cc1c([H])c([H])c([H])c(C#N)c1[H]


 16 17  0  0  0  0  0  0  0  0999 V2000
   22.9514    7.3187   53.4421 C   0  0  0  0  0  0  0  0  0  0  0  0
   24.0968    7.6919   53.4725 C   0  0  0  0  0  0  0  0  0  0  0  0
   19.4432    3.7867   53.5308 C   0  0  0  0  0  0  0  0  0  0  0  0
   19.9936    5.1932   53.4528 C   0  0  0  0  0  0  0  0  0  0  0  0
   21.2590    5.5808   53.4874 N   0  0  0  0  0  0  0  0  0  0  0  0
   21.5589    6.8381   53.4079 C   0  0  0  0  0  0  0  0  0  0  0  0
   20.5127    7.7259   53.2883 C   0  0  0  0  0  0  0  0  0  0  0  0
   19.1642    6.6771   53.2992 S   0  0  0  0  0  0  0  0  0  0  0  0
   25.4657    8.1203   53.5276 C   0  0  0  0  0  0  0  0  0  0  0  0
   26.1960    8.0490   54.7169 C   0  0  0  0  0  0  0  0  0  0  0  0
   27.5080    8.4529   54.7956 C   0  0  0  0  0  0  0  0  0  0  0  0
   28.1146    8.9426   53.6605 C   0  0  0  0  0  0  0  0  0  0  0  0
   27.3889    9.0116   52.4859 C   0  0  0  0  0  0  0  0  0  0  0  0
   26.0679    8.6055   52.4041 C   0  0  0  0  0  0  0  0  0  0  0  0
   28.0295    9.5240   51.3053 C   0  0  0  0  0  0  0  0  0  0  0  0
   28.5535    9.9572   50.3537 N   0  0  0  0  0  0  0  0  0  0  0  0
  3  4  1  0  0  0
  4  5  2  0  0  0
  5  6  1  0  0  0
  6  7  2  0  0  0
  7  8  1  0  0  0
  6  1  1  0  0  0
  1  2  3  0  0  0
  2  9  1  0  0  0
  9 10  2  0  0  0
 10 11  1  0  0  0
 11 12  2  0  0  0
 12 13  1  0  0  0
 13 14  2  0  0  0
 13 15  1  0  0  0
 15 16  3  0  0  0
  8  4  1  0  0  0
 14  9  1  0  0  0
M  END
> <minimizedAffinity>
13.71111

> <CNNscore>
0.4851976335

> <CNNaffinity>
5.0865039825

> <CNN_VS>
2.4679596424

> <CNNaffinity_variance>
0.1152793393

$$$$
[H]c1sc(C([H])([H])[H])nc1C#Cc1c([H])c([H])c([H])c(C#N)c1[H]


 16 17  0  0  0  0  0  0  0  0999 V2000
   22.5323    8.1425   53.5834 C   0  0  0  0  0  0  0  0  0  0  0  0
   23.6085    8.3477   54.0852 C   0  0  0  0  0  0  0  0  0  0  0  0
   17.9761    6.1351   53.5464 C   0  0  0  0  0  0  0  0  0  0  0  0
   19.1414    6.9396   53.0157 C   0  0  0  0  0  0  0  0  0  0  0  0
   20.3163    7.1545   53.5870 N   0  0  0  0  0  0  0  0  0  0  0  0
   21.2109    7.8750   52.9888 C   0  0  0  0  0  0  0  0  0  0  0  0
   20.8783    8.3915   51.7561 C   0  0  0  0  0  0  0  0  0  0  0  0
   19.2902    7.7973   51.5475 S   0  0  0  0  0  0  0  0  0  0  0  0
   24.8796    8.5924   54.7056 C   0  0  0  0  0  0  0  0  0  0  0  0
   24.9856    9.4112   55.8330 C   0  0  0  0  0  0  0  0  0  0  0  0
   26.1911    9.6611   56.4455 C   0  0  0  0  0  0  0  0  0  0  0  0
   27.3262    9.0816   55.9242 C   0  0  0  0  0  0  0  0  0  0  0  0
   27.2173    8.2721   54.8087 C   0  0  0  0  0  0  0  0  0  0  0  0
   26.0048    8.0190   54.1904 C   0  0  0  0  0  0  0  0  0  0  0  0
   28.4071    7.6708   54.2707 C   0  0  0  0  0  0  0  0  0  0  0  0
   29.3790    7.1746   53.8502 N   0  0  0  0  0  0  0  0  0  0  0  0
  3  4  1  0  0  0
  4  5  2  0  0  0
  5  6  1  0  0  0
  6  7  2  0  0  0
  7  8  1  0  0  0
  6  1  1  0  0  0
  1  2  3  0  0  0
  2  9  1  0  0  0
  9 10  2  0  0  0
 10 11  1  0  0  0
 11 12  2  0  0  0
 12 13  1  0  0  0
 13 14  2  0  0  0
 13 15  1  0  0  0
 15 16  3  0  0  0
  8  4  1  0  0  0
 14  9  1  0  0  0
M  END
> <minimizedAffinity>
14.33285

> <CNNscore>
0.4681277275

> <CNNaffinity>
4.8803057671

> <CNN_VS>
2.2846064568

> <CNNaffinity_variance>
0.0869741812

$$$$
[H]OC(=O)c1[se]c(-c2c([H])c([H])c([H])c(C#N)c2[H])nc1C([H])([H])[H]


 18 19  0  0  0  0  0  0  0  0999 V2000
   21.4475    7.6736   54.2268 C   0  0  0  0  0  0  0  0  0  0  0  0
   22.5314    8.6427   54.7106 C   0  0  0  0  0  0  0  0  0  0  0  0
   23.7348    8.3094   54.8313 N   0  0  0  0  0  0  0  0  0  0  0  0
   24.8081    8.7855   55.1663 C   0  0  0  0  0  0  0  0  0  0  0  0
   23.8195   10.7859   55.5748 Se  0  0  0  0  0  0  0  0  0  0  0  0
   22.0727    9.8979   54.9964 C   0  0  0  0  0  0  0  0  0  0  0  0
   26.2099    8.7549   55.4121 C   0  0  0  0  0  0  0  0  0  0  0  0
   27.0542    8.2898   54.3921 C   0  0  0  0  0  0  0  0  0  0  0  0
   28.3911    8.2492   54.5965 C   0  0  0  0  0  0  0  0  0  0  0  0
   28.9643    8.6560   55.7933 C   0  0  0  0  0  0  0  0  0  0  0  0
   28.1614    9.1084   56.7897 C   0  0  0  0  0  0  0  0  0  0  0  0
   26.8085    9.1501   56.5845 C   0  0  0  0  0  0  0  0  0  0  0  0
   28.7153    9.5419   58.0516 C   0  0  0  0  0  0  0  0  0  0  0  0
   29.1437    9.8956   59.0765 N   0  0  0  0  0  0  0  0  0  0  0  0
   20.7872   10.5505   54.9566 C   0  0  0  0  0  0  0  0  0  0  0  0
   20.6257   11.6632   54.1486 O   0  0  0  0  0  0  0  0  0  0  0  0
   19.8489   10.1138   55.6391 O   0  0  0  0  0  0  0  0  0  0  0  0
   20.1844   12.4969   54.4578 H   0  0  0  0  0  0  0  0  0  0  0  0
  1  2  1  0  0  0
  2  3  1  0  0  0
  3  4  2  0  0  0
  4  5  1  0  0  0
  5  6  1  0  0  0
  6 15  1  0  0  0
 15 16  1  0  0  0
 15 17  2  0  0  0
  4  7  1  0  0  0
  7  8  2  0  0  0
  8  9  1  0  0  0
  9 10  2  0  0  0
 10 11  1  0  0  0
 11 12  2  0  0  0
 11 13  1  0  0  0
 13 14  3  0  0  0
  6  2  2  0  0  0
 12  7  1  0  0  0
 16 18  1  0  0  0
M  END
> <minimizedAffinity>
11.16584

> <CNNscore>
0.7127835155

> <CNNaffinity>
4.9708271027

> <CNN_VS>
3.5431237221

> <CNNaffinity_variance>
0.2129072398

$$$$
[H]OC(=O)c1[se]c(-c2c([H])c([H])c([H])c(C#N)c2[H])nc1C([H])([H])[H]


 18 19  0  0  0  0  0  0  0  0999 V2000
   21.1713   12.4640   54.1123 C   0  0  0  0  0  0  0  0  0  0  0  0
   21.5332   11.1453   53.4210 C   0  0  0  0  0  0  0  0  0  0  0  0
   21.8638   10.1148   54.0557 N   0  0  0  0  0  0  0  0  0  0  0  0
   22.1965    8.9577   53.8526 C   0  0  0  0  0  0  0  0  0  0  0  0
   22.0101    9.2728   51.6138 Se  0  0  0  0  0  0  0  0  0  0  0  0
   21.4629   11.1907   52.0570 C   0  0  0  0  0  0  0  0  0  0  0  0
   22.5991    7.6473   54.2361 C   0  0  0  0  0  0  0  0  0  0  0  0
   23.4517    6.9355   53.3782 C   0  0  0  0  0  0  0  0  0  0  0  0
   23.8514    5.6878   53.7160 C   0  0  0  0  0  0  0  0  0  0  0  0
   23.4433    5.0792   54.8948 C   0  0  0  0  0  0  0  0  0  0  0  0
   22.6188    5.7544   55.7352 C   0  0  0  0  0  0  0  0  0  0  0  0
   22.2135    7.0169   55.3949 C   0  0  0  0  0  0  0  0  0  0  0  0
   22.1695    5.1594   56.9726 C   0  0  0  0  0  0  0  0  0  0  0  0
   21.7999    4.6635   57.9608 N   0  0  0  0  0  0  0  0  0  0  0  0
   21.1264   12.2003   51.0835 C   0  0  0  0  0  0  0  0  0  0  0  0
   20.4665   11.8216   49.9268 O   0  0  0  0  0  0  0  0  0  0  0  0
   21.4281   13.3850   51.2894 O   0  0  0  0  0  0  0  0  0  0  0  0
   20.7385   12.1297   49.0232 H   0  0  0  0  0  0  0  0  0  0  0  0
  1  2  1  0  0  0
  2  3  1  0  0  0
  3  4  2  0  0  0
  4  5  1  0  0  0
  5  6  1  0  0  0
  6 15  1  0  0  0
 15 16  1  0  0  0
 15 17  2  0  0  0
  4  7  1  0  0  0
  7  8  2  0  0  0
  8  9  1  0  0  0
  9 10  2  0  0  0
 10 11  1  0  0  0
 11 12  2  0  0  0
 11 13  1  0  0  0
 13 14  3  0  0  0
  6  2  2  0  0  0
 12  7  1  0  0  0
 16 18  1  0  0  0
M  END
> <minimizedAffinity>
16.16337

> <CNNscore>
0.6134212613

> <CNNaffinity>
4.9793090820

> <CNN_VS>
3.0544140339

> <CNNaffinity_variance>
0.2396604568

$$$$
[H]OC(=O)c1[se]c(-c2c([H])c([H])c([H])c(C#N)c2[H])nc1C([H])([H])[H]


 18 19  0  0  0  0  0  0  0  0999 V2000
   20.7091    9.1668   54.9233 C   0  0  0  0  0  0  0  0  0  0  0  0
   22.0029    8.5681   54.3616 C   0  0  0  0  0  0  0  0  0  0  0  0
   23.1355    8.8439   54.8254 N   0  0  0  0  0  0  0  0  0  0  0  0
   24.3121    8.5731   54.6433 C   0  0  0  0  0  0  0  0  0  0  0  0
   23.7534    7.1929   52.9318 Se  0  0  0  0  0  0  0  0  0  0  0  0
   21.8142    7.7093   53.3155 C   0  0  0  0  0  0  0  0  0  0  0  0
   25.7084    8.6554   54.9079 C   0  0  0  0  0  0  0  0  0  0  0  0
   26.6010    8.2615   53.8991 C   0  0  0  0  0  0  0  0  0  0  0  0
   27.9340    8.3286   54.1215 C   0  0  0  0  0  0  0  0  0  0  0  0
   28.4564    8.7784   55.3261 C   0  0  0  0  0  0  0  0  0  0  0  0
   27.6064    9.1630   56.3117 C   0  0  0  0  0  0  0  0  0  0  0  0
   26.2574    9.0957   56.0885 C   0  0  0  0  0  0  0  0  0  0  0  0
   28.1066    9.6377   57.5812 C   0  0  0  0  0  0  0  0  0  0  0  0
   28.5285   10.0228   58.5975 N   0  0  0  0  0  0  0  0  0  0  0  0
   20.6688    7.2176   52.5900 C   0  0  0  0  0  0  0  0  0  0  0  0
   19.9554    6.1502   53.1082 O   0  0  0  0  0  0  0  0  0  0  0  0
   20.3374    7.7497   51.5204 O   0  0  0  0  0  0  0  0  0  0  0  0
   19.6769    5.3695   52.5622 H   0  0  0  0  0  0  0  0  0  0  0  0
  1  2  1  0  0  0
  2  3  1  0  0  0
  3  4  2  0  0  0
  4  5  1  0  0  0
  5  6  1  0  0  0
  6 15  1  0  0  0
 15 16  1  0  0  0
 15 17  2  0  0  0
  4  7  1  0  0  0
  7  8  2  0  0  0
  8  9  1  0  0  0
  9 10  2  0  0  0
 10 11  1  0  0  0
 11 12  2  0  0  0
 11 13  1  0  0  0
 13 14  3  0  0  0
  6  2  2  0  0  0
 12  7  1  0  0  0
 16 18  1  0  0  0
M  END
> <minimizedAffinity>
-3.38401

> <CNNscore>
0.6022024155

> <CNNaffinity>
5.2694063187

> <CNN_VS>
3.1732492447

> <CNNaffinity_variance>
0.4146277308

$$$$
[H]OC(=O)c1[se]c(-c2c([H])c([H])c([H])c(C#N)c2[H])nc1C([H])([H])[H]


 18 19  0  0  0  0  0  0  0  0999 V2000
   21.8217   10.4601   54.9508 C   0  0  0  0  0  0  0  0  0  0  0  0
   21.2983    9.4854   53.8906 C   0  0  0  0  0  0  0  0  0  0  0  0
   20.9474    8.3118   54.1620 N   0  0  0  0  0  0  0  0  0  0  0  0
   20.5071    7.3158   53.6097 C   0  0  0  0  0  0  0  0  0  0  0  0
   20.5115    8.3928   51.6131 Se  0  0  0  0  0  0  0  0  0  0  0  0
   21.2466   10.0063   52.6283 C   0  0  0  0  0  0  0  0  0  0  0  0
   20.0396    5.9723   53.5584 C   0  0  0  0  0  0  0  0  0  0  0  0
   20.9543    4.9619   53.2239 C   0  0  0  0  0  0  0  0  0  0  0  0
   20.5391    3.6754   53.1673 C   0  0  0  0  0  0  0  0  0  0  0  0
   19.2250    3.3149   53.4311 C   0  0  0  0  0  0  0  0  0  0  0  0
   18.3282    4.2803   53.7560 C   0  0  0  0  0  0  0  0  0  0  0  0
   18.7466    5.5825   53.8138 C   0  0  0  0  0  0  0  0  0  0  0  0
   16.9504    3.9501   54.0385 C   0  0  0  0  0  0  0  0  0  0  0  0
   15.8339    3.7032   54.2657 N   0  0  0  0  0  0  0  0  0  0  0  0
   21.5742   11.2784   52.0329 C   0  0  0  0  0  0  0  0  0  0  0  0
   21.4837   11.4176   50.6583 O   0  0  0  0  0  0  0  0  0  0  0  0
   21.9301   12.2252   52.7498 O   0  0  0  0  0  0  0  0  0  0  0  0
   22.1938   11.8419   50.1096 H   0  0  0  0  0  0  0  0  0  0  0  0
  1  2  1  0  0  0
  2  3  1  0  0  0
  3  4  2  0  0  0
  4  5  1  0  0  0
  5  6  1  0  0  0
  6 15  1  0  0  0
 15 16  1  0  0  0
 15 17  2  0  0  0
  4  7  1  0  0  0
  7  8  2  0  0  0
  8  9  1  0  0  0
  9 10  2  0  0  0
 10 11  1  0  0  0
 11 12  2  0  0  0
 11 13  1  0  0  0
 13 14  3  0  0  0
  6  2  2  0  0  0
 12  7  1  0  0  0
 16 18  1  0  0  0
M  END
> <minimizedAffinity>
13.36080

> <CNNscore>
0.5932402611

> <CNNaffinity>
5.2819800377

> <CNN_VS>
3.1334831715

> <CNNaffinity_variance>
0.1149918288

$$$$
[H]OC(=O)c1[se]c(-c2c([H])c([H])c([H])c(C#N)c2[H])nc1C([H])([H])[H]


 18 19  0  0  0  0  0  0  0  0999 V2000
   27.2652    9.5749   56.9219 C   0  0  0  0  0  0  0  0  0  0  0  0
   26.4734    9.0637   55.7137 C   0  0  0  0  0  0  0  0  0  0  0  0
   25.2193    9.0410   55.6846 N   0  0  0  0  0  0  0  0  0  0  0  0
   24.3067    8.7229   54.9384 C   0  0  0  0  0  0  0  0  0  0  0  0
   25.7964    8.0763   53.3544 Se  0  0  0  0  0  0  0  0  0  0  0  0
   27.2515    8.6376   54.6743 C   0  0  0  0  0  0  0  0  0  0  0  0
   22.9412    8.5586   54.5713 C   0  0  0  0  0  0  0  0  0  0  0  0
   21.9761    8.5403   55.5900 C   0  0  0  0  0  0  0  0  0  0  0  0
   20.6701    8.3858   55.2718 C   0  0  0  0  0  0  0  0  0  0  0  0
   20.2457    8.2429   53.9581 C   0  0  0  0  0  0  0  0  0  0  0  0
   21.1667    8.2585   52.9614 C   0  0  0  0  0  0  0  0  0  0  0  0
   22.4885    8.4148   53.2816 C   0  0  0  0  0  0  0  0  0  0  0  0
   20.7695    8.1133   51.5800 C   0  0  0  0  0  0  0  0  0  0  0  0
   20.4296    7.9961   50.4710 N   0  0  0  0  0  0  0  0  0  0  0  0
   28.6698    8.5456   54.4294 C   0  0  0  0  0  0  0  0  0  0  0  0
   29.2233    7.3062   54.1564 O   0  0  0  0  0  0  0  0  0  0  0  0
   29.3726    9.5662   54.4652 O   0  0  0  0  0  0  0  0  0  0  0  0
   30.0520    6.9760   54.5919 H   0  0  0  0  0  0  0  0  0  0  0  0
  1  2  1  0  0  0
  2  3  1  0  0  0
  3  4  2  0  0  0
  4  5  1  0  0  0
  5  6  1  0  0  0
  6 15  1  0  0  0
 15 16  1  0  0  0
 15 17  2  0  0  0
  4  7  1  0  0  0
  7  8  2  0  0  0
  8  9  1  0  0  0
  9 10  2  0  0  0
 10 11  1  0  0  0
 11 12  2  0  0  0
 11 13  1  0  0  0
 13 14  3  0  0  0
  6  2  2  0  0  0
 12  7  1  0  0  0
 16 18  1  0  0  0
M  END
> <minimizedAffinity>
2.76717

> <CNNscore>
0.5835230947

> <CNNaffinity>
5.0642681122

> <CNN_VS>
2.9551174641

> <CNNaffinity_variance>
0.0717331842

$$$$
[H]OC(=O)c1[se]c(-c2c([H])c([H])c([H])c(C#N)c2[H])nc1C([H])([H])[H]


 18 19  0  0  0  0  0  0  0  0999 V2000
   28.2046    7.9259   54.3605 C   0  0  0  0  0  0  0  0  0  0  0  0
   26.7732    8.3243   54.7351 C   0  0  0  0  0  0  0  0  0  0  0  0
   25.7793    8.0264   54.0298 N   0  0  0  0  0  0  0  0  0  0  0  0
   24.5663    8.1659   54.0164 C   0  0  0  0  0  0  0  0  0  0  0  0
   24.6537    9.3152   55.9703 Se  0  0  0  0  0  0  0  0  0  0  0  0
   26.6755    9.0289   55.9019 C   0  0  0  0  0  0  0  0  0  0  0  0
   23.2576    8.0064   53.4796 C   0  0  0  0  0  0  0  0  0  0  0  0
   22.7146    9.0588   52.7266 C   0  0  0  0  0  0  0  0  0  0  0  0
   21.4728    8.9362   52.2036 C   0  0  0  0  0  0  0  0  0  0  0  0
   20.7075    7.7930   52.3874 C   0  0  0  0  0  0  0  0  0  0  0  0
   21.2183    6.7662   53.1132 C   0  0  0  0  0  0  0  0  0  0  0  0
   22.4747    6.8887   53.6431 C   0  0  0  0  0  0  0  0  0  0  0  0
   20.4567    5.5578   53.3295 C   0  0  0  0  0  0  0  0  0  0  0  0
   19.8516    4.5742   53.4886 N   0  0  0  0  0  0  0  0  0  0  0  0
   27.6116    9.5043   56.8908 C   0  0  0  0  0  0  0  0  0  0  0  0
   27.7498    8.8006   58.0751 O   0  0  0  0  0  0  0  0  0  0  0  0
   28.2766   10.5278   56.6733 O   0  0  0  0  0  0  0  0  0  0  0  0
   27.7606    9.2379   58.9662 H   0  0  0  0  0  0  0  0  0  0  0  0
  1  2  1  0  0  0
  2  3  1  0  0  0
  3  4  2  0  0  0
  4  5  1  0  0  0
  5  6  1  0  0  0
  6 15  1  0  0  0
 15 16  1  0  0  0
 15 17  2  0  0  0
  4  7  1  0  0  0
  7  8  2  0  0  0
  8  9  1  0  0  0
  9 10  2  0  0  0
 10 11  1  0  0  0
 11 12  2  0  0  0
 11 13  1  0  0  0
 13 14  3  0  0  0
  6  2  2  0  0  0
 12  7  1  0  0  0
 16 18  1  0  0  0
M  END
> <minimizedAffinity>
1.14642

> <CNNscore>
0.5471062064

> <CNNaffinity>
4.9142041206

> <CNN_VS>
2.6885914803

> <CNNaffinity_variance>
0.3656882048

$$$$
[H]OC(=O)c1[se]c(-c2c([H])c([H])c([H])c(C#N)c2[H])nc1C([H])([H])[H]


 18 19  0  0  0  0  0  0  0  0999 V2000
   20.4220    7.5012   54.8574 C   0  0  0  0  0  0  0  0  0  0  0  0
   21.6841    8.3660   54.9416 C   0  0  0  0  0  0  0  0  0  0  0  0
   22.8306    7.9188   54.6973 N   0  0  0  0  0  0  0  0  0  0  0  0
   23.9926    8.2923   54.6637 C   0  0  0  0  0  0  0  0  0  0  0  0
   23.3624   10.3838   55.2760 Se  0  0  0  0  0  0  0  0  0  0  0  0
   21.4508    9.6629   55.3037 C   0  0  0  0  0  0  0  0  0  0  0  0
   25.3925    8.1287   54.4644 C   0  0  0  0  0  0  0  0  0  0  0  0
   25.8532    6.9059   53.9523 C   0  0  0  0  0  0  0  0  0  0  0  0
   27.1785    6.7210   53.7521 C   0  0  0  0  0  0  0  0  0  0  0  0
   28.1100    7.7092   54.0386 C   0  0  0  0  0  0  0  0  0  0  0  0
   27.6806    8.8974   54.5344 C   0  0  0  0  0  0  0  0  0  0  0  0
   26.3400    9.0862   54.7376 C   0  0  0  0  0  0  0  0  0  0  0  0
   28.6152    9.9539   54.8465 C   0  0  0  0  0  0  0  0  0  0  0  0
   29.3774   10.8046   55.0800 N   0  0  0  0  0  0  0  0  0  0  0  0
   20.2803   10.4367   55.6373 C   0  0  0  0  0  0  0  0  0  0  0  0
   20.1021   11.6730   55.0399 O   0  0  0  0  0  0  0  0  0  0  0  0
   19.4536    9.9924   56.4472 O   0  0  0  0  0  0  0  0  0  0  0  0
   19.8458   12.4869   55.5469 H   0  0  0  0  0  0  0  0  0  0  0  0
  1  2  1  0  0  0
  2  3  1  0  0  0
  3  4  2  0  0  0
  4  5  1  0  0  0
  5  6  1  0  0  0
  6 15  1  0  0  0
 15 16  1  0  0  0
 15 17  2  0  0  0
  4  7  1  0  0  0
  7  8  2  0  0  0
  8  9  1  0  0  0
  9 10  2  0  0  0
 10 11  1  0  0  0
 11 12  2  0  0  0
 11 13  1  0  0  0
 13 14  3  0  0  0
  6  2  2  0  0  0
 12  7  1  0  0  0
 16 18  1  0  0  0
M  END
> <minimizedAffinity>
19.94757

> <CNNscore>
0.5403460860

> <CNNaffinity>
4.8976082802

> <CNN_VS>
2.6464035511

> <CNNaffinity_variance>
0.2267106026

$$$$
[H]OC(=O)c1[se]c(-c2c([H])c([H])c([H])c(C#N)c2[H])nc1C([H])([H])[H]


 18 19  0  0  0  0  0  0  0  0999 V2000
   21.7964    9.1950   52.7102 C   0  0  0  0  0  0  0  0  0  0  0  0
   22.9041    9.3573   53.7565 C   0  0  0  0  0  0  0  0  0  0  0  0
   24.0395    8.8391   53.6287 N   0  0  0  0  0  0  0  0  0  0  0  0
   25.1041    8.7610   54.2215 C   0  0  0  0  0  0  0  0  0  0  0  0
   24.2874   10.0441   55.9047 Se  0  0  0  0  0  0  0  0  0  0  0  0
   22.5472   10.1150   54.8364 C   0  0  0  0  0  0  0  0  0  0  0  0
   26.4506    8.3350   54.3996 C   0  0  0  0  0  0  0  0  0  0  0  0
   27.2367    8.9966   55.3555 C   0  0  0  0  0  0  0  0  0  0  0  0
   28.5203    8.6138   55.5472 C   0  0  0  0  0  0  0  0  0  0  0  0
   29.0942    7.5779   54.8235 C   0  0  0  0  0  0  0  0  0  0  0  0
   28.3471    6.9280   53.8953 C   0  0  0  0  0  0  0  0  0  0  0  0
   27.0483    7.3140   53.7001 C   0  0  0  0  0  0  0  0  0  0  0  0
   28.9040    5.8440   53.1194 C   0  0  0  0  0  0  0  0  0  0  0  0
   29.3715    4.9735   52.5007 N   0  0  0  0  0  0  0  0  0  0  0  0
   21.3541   10.8144   55.2454 C   0  0  0  0  0  0  0  0  0  0  0  0
   20.9206   10.6905   56.5545 O   0  0  0  0  0  0  0  0  0  0  0  0
   20.7344   11.5126   54.4296 O   0  0  0  0  0  0  0  0  0  0  0  0
   19.9753   10.5079   56.7964 H   0  0  0  0  0  0  0  0  0  0  0  0
  1  2  1  0  0  0
  2  3  1  0  0  0
  3  4  2  0  0  0
  4  5  1  0  0  0
  5  6  1  0  0  0
  6 15  1  0  0  0
 15 16  1  0  0  0
 15 17  2  0  0  0
  4  7  1  0  0  0
  7  8  2  0  0  0
  8  9  1  0  0  0
  9 10  2  0  0  0
 10 11  1  0  0  0
 11 12  2  0  0  0
 11 13  1  0  0  0
 13 14  3  0  0  0
  6  2  2  0  0  0
 12  7  1  0  0  0
 16 18  1  0  0  0
M  END
> <minimizedAffinity>
19.25553

> <CNNscore>
0.5341752768

> <CNNaffinity>
4.5869956017

> <CNN_VS>
2.4502596855

> <CNNaffinity_variance>
0.1132273078

$$$$
[H]OC(=O)c1[se]c(-c2c([H])c([H])c([H])c(C#N)c2[H])nc1C([H])([H])[H]


 18 19  0  0  0  0  0  0  0  0999 V2000
   21.1797   11.6778   50.3713 C   0  0  0  0  0  0  0  0  0  0  0  0
   21.5270   11.1536   51.7686 C   0  0  0  0  0  0  0  0  0  0  0  0
   22.1983   10.1101   51.9545 N   0  0  0  0  0  0  0  0  0  0  0  0
   22.6412    9.4334   52.8692 C   0  0  0  0  0  0  0  0  0  0  0  0
   21.7415   10.8573   54.3889 Se  0  0  0  0  0  0  0  0  0  0  0  0
   21.0436   11.9215   52.7905 C   0  0  0  0  0  0  0  0  0  0  0  0
   23.3510    8.3354   53.4321 C   0  0  0  0  0  0  0  0  0  0  0  0
   22.6240    7.1948   53.8063 C   0  0  0  0  0  0  0  0  0  0  0  0
   23.2713    6.1352   54.3439 C   0  0  0  0  0  0  0  0  0  0  0  0
   24.6451    6.1362   54.5412 C   0  0  0  0  0  0  0  0  0  0  0  0
   25.3625    7.2317   54.1846 C   0  0  0  0  0  0  0  0  0  0  0  0
   24.7092    8.3046   53.6405 C   0  0  0  0  0  0  0  0  0  0  0  0
   26.7943    7.2758   54.3720 C   0  0  0  0  0  0  0  0  0  0  0  0
   27.9522    7.3114   54.5033 N   0  0  0  0  0  0  0  0  0  0  0  0
   20.2652   13.1323   52.8800 C   0  0  0  0  0  0  0  0  0  0  0  0
   19.9824   13.6559   54.1301 O   0  0  0  0  0  0  0  0  0  0  0  0
   19.8609   13.6870   51.8476 O   0  0  0  0  0  0  0  0  0  0  0  0
   19.0763   13.9614   54.3964 H   0  0  0  0  0  0  0  0  0  0  0  0
  1  2  1  0  0  0
  2  3  1  0  0  0
  3  4  2  0  0  0
  4  5  1  0  0  0
  5  6  1  0  0  0
  6 15  1  0  0  0
 15 16  1  0  0  0
 15 17  2  0  0  0
  4  7  1  0  0  0
  7  8  2  0  0  0
  8  9  1  0  0  0
  9 10  2  0  0  0
 10 11  1  0  0  0
 11 12  2  0  0  0
 11 13  1  0  0  0
 13 14  3  0  0  0
  6  2  2  0  0  0
 12  7  1  0  0  0
 16 18  1  0  0  0
M  END
> <minimizedAffinity>
19.05005

> <CNNscore>
0.5330063701

> <CNNaffinity>
4.7095537186

> <CNN_VS>
2.5102221966

> <CNNaffinity_variance>
0.2436579764

$$$$
