[H]c1c([H])c(-c2nc(-c3c([H])c(C([H])([H])[H])nc(C([H])([H])[H])c3[H])c3n2C([H])([H])[C@@]([H])(C([H])([H])[H])OC([H])([H])C3([H])[H])c([H])c(Cl)c1Cl


 27 30  0  0  0  0  0  0  0  0999 V2000
   21.6069   11.7495   51.7646 C   0  0  0  0  0  0  0  0  0  0  0  0
   21.5124   10.4441   52.5088 C   0  0  0  0  0  0  0  0  0  0  0  0
   22.7243    9.5696   52.0982 C   0  0  0  0  0  0  0  0  0  0  0  0
   22.5275    8.3299   52.7782 N   0  0  0  0  0  0  0  0  0  0  0  0
   21.4904    7.4915   52.4423 C   0  0  0  0  0  0  0  0  0  0  0  0
   20.4539    7.6004   51.3841 C   0  0  0  0  0  0  0  0  0  0  0  0
   20.1453    9.0957   51.1990 C   0  0  0  0  0  0  0  0  0  0  0  0
   20.3239    9.7927   52.3656 O   0  0  0  0  0  0  0  0  0  0  0  0
   21.5436    6.4502   53.2909 C   0  0  0  0  0  0  0  0  0  0  0  0
   22.5809    6.6681   54.1020 N   0  0  0  0  0  0  0  0  0  0  0  0
   23.2167    7.8407   53.8005 C   0  0  0  0  0  0  0  0  0  0  0  0
   24.3448    8.3243   54.5802 C   0  0  0  0  0  0  0  0  0  0  0  0
   24.3135    9.0144   55.7404 C   0  0  0  0  0  0  0  0  0  0  0  0
   25.4926    9.3431   56.4330 C   0  0  0  0  0  0  0  0  0  0  0  0
   26.7049    8.9751   55.9507 C   0  0  0  0  0  0  0  0  0  0  0  0
   28.2190    9.3551   56.7692 Cl  0  0  0  0  0  0  0  0  0  0  0  0
   26.7885    8.2731   54.7725 C   0  0  0  0  0  0  0  0  0  0  0  0
   28.3537    7.7775   54.1207 Cl  0  0  0  0  0  0  0  0  0  0  0  0
   25.6331    7.9643   54.1178 C   0  0  0  0  0  0  0  0  0  0  0  0
   20.6592    5.2650   53.3661 C   0  0  0  0  0  0  0  0  0  0  0  0
   21.1073    4.0056   53.0507 C   0  0  0  0  0  0  0  0  0  0  0  0
   20.2049    2.9674   53.1529 C   0  0  0  0  0  0  0  0  0  0  0  0
   20.6659    1.6073   52.8188 C   0  0  0  0  0  0  0  0  0  0  0  0
   18.9310    3.1536   53.5434 N   0  0  0  0  0  0  0  0  0  0  0  0
   18.4579    4.3729   53.8599 C   0  0  0  0  0  0  0  0  0  0  0  0
   17.0461    4.5780   54.2924 C   0  0  0  0  0  0  0  0  0  0  0  0
   19.3505    5.4286   53.7630 C   0  0  0  0  0  0  0  0  0  0  0  0
  1  2  1  0  0  0
  2  3  1  0  0  0
  3  4  1  0  0  0
  4  5  1  0  0  0
  5  6  1  0  0  0
  6  7  1  0  0  0
  7  8  1  0  0  0
  5  9  2  0  0  0
  9 10  1  0  0  0
 10 11  2  0  0  0
 11 12  1  0  0  0
 12 13  2  0  0  0
 13 14  1  0  0  0
 14 15  2  0  0  0
 15 16  1  0  0  0
 15 17  1  0  0  0
 17 18  1  0  0  0
 17 19  2  0  0  0
  9 20  1  0  0  0
 20 21  2  0  0  0
 21 22  1  0  0  0
 22 23  1  0  0  0
 22 24  2  0  0  0
 24 25  1  0  0  0
 25 26  1  0  0  0
 25 27  2  0  0  0
  8  2  1  0  0  0
 19 12  1  0  0  0
 27 20  1  0  0  0
 11  4  1  0  0  0
M  END
> <minimizedAffinity>
28.66389

> <CNNscore>
0.4627014399

> <CNNaffinity>
6.4928946495

> <CNN_VS>
3.0042717457

> <CNNaffinity_variance>
0.4935649037

$$$$
[H]c1c([H])c(-c2nc(-c3c([H])c(C([H])([H])[H])nc(C([H])([H])[H])c3[H])c3n2C([H])([H])[C@@]([H])(C([H])([H])[H])OC([H])([H])C3([H])[H])c([H])c(Cl)c1Cl


 27 30  0  0  0  0  0  0  0  0999 V2000
   21.6331   11.7375   51.6934 C   0  0  0  0  0  0  0  0  0  0  0  0
   21.5147   10.4469   52.4596 C   0  0  0  0  0  0  0  0  0  0  0  0
   22.7104    9.5435   52.0642 C   0  0  0  0  0  0  0  0  0  0  0  0
   22.4910    8.3194   52.7651 N   0  0  0  0  0  0  0  0  0  0  0  0
   21.4387    7.4944   52.4431 C   0  0  0  0  0  0  0  0  0  0  0  0
   20.4044    7.6044   51.3829 C   0  0  0  0  0  0  0  0  0  0  0  0
   20.1232    9.1017   51.1724 C   0  0  0  0  0  0  0  0  0  0  0  0
   20.3145    9.8150   52.3271 O   0  0  0  0  0  0  0  0  0  0  0  0
   21.4728    6.4669   53.3093 C   0  0  0  0  0  0  0  0  0  0  0  0
   22.5140    6.6795   54.1169 N   0  0  0  0  0  0  0  0  0  0  0  0
   23.1711    7.8350   53.7957 C   0  0  0  0  0  0  0  0  0  0  0  0
   24.3079    8.3110   54.5675 C   0  0  0  0  0  0  0  0  0  0  0  0
   24.2894    9.0405   55.7037 C   0  0  0  0  0  0  0  0  0  0  0  0
   25.4731    9.3574   56.3939 C   0  0  0  0  0  0  0  0  0  0  0  0
   26.6771    8.9375   55.9336 C   0  0  0  0  0  0  0  0  0  0  0  0
   28.1963    9.3000   56.7505 Cl  0  0  0  0  0  0  0  0  0  0  0  0
   26.7477    8.1941   54.7802 C   0  0  0  0  0  0  0  0  0  0  0  0
   28.3017    7.6307   54.1575 Cl  0  0  0  0  0  0  0  0  0  0  0  0
   25.5879    7.8977   54.1273 C   0  0  0  0  0  0  0  0  0  0  0  0
   20.5669    5.2995   53.4042 C   0  0  0  0  0  0  0  0  0  0  0  0
   19.2678    5.4238   53.8324 C   0  0  0  0  0  0  0  0  0  0  0  0
   18.5051    4.2757   53.8854 C   0  0  0  0  0  0  0  0  0  0  0  0
   17.1077    4.3873   54.3424 C   0  0  0  0  0  0  0  0  0  0  0  0
   18.9898    3.0699   53.5375 N   0  0  0  0  0  0  0  0  0  0  0  0
   20.2571    2.9110   53.1138 C   0  0  0  0  0  0  0  0  0  0  0  0
   20.7931    1.5744   52.7285 C   0  0  0  0  0  0  0  0  0  0  0  0
   21.0387    4.0539   53.0539 C   0  0  0  0  0  0  0  0  0  0  0  0
  1  2  1  0  0  0
  2  3  1  0  0  0
  3  4  1  0  0  0
  4  5  1  0  0  0
  5  6  1  0  0  0
  6  7  1  0  0  0
  7  8  1  0  0  0
  5  9  2  0  0  0
  9 10  1  0  0  0
 10 11  2  0  0  0
 11 12  1  0  0  0
 12 13  2  0  0  0
 13 14  1  0  0  0
 14 15  2  0  0  0
 15 16  1  0  0  0
 15 17  1  0  0  0
 17 18  1  0  0  0
 17 19  2  0  0  0
  9 20  1  0  0  0
 20 21  2  0  0  0
 21 22  1  0  0  0
 22 23  1  0  0  0
 22 24  2  0  0  0
 24 25  1  0  0  0
 25 26  1  0  0  0
 25 27  2  0  0  0
  8  2  1  0  0  0
 19 12  1  0  0  0
 27 20  1  0  0  0
 11  4  1  0  0  0
M  END
> <minimizedAffinity>
28.59347

> <CNNscore>
0.4625195563

> <CNNaffinity>
6.4925889969

> <CNN_VS>
3.0029494762

> <CNNaffinity_variance>
0.4993034899

$$$$
[H]c1c([H])c(-c2nc(-c3c([H])c(C([H])([H])[H])nc(C([H])([H])[H])c3[H])c3n2C([H])([H])[C@@]([H])(C([H])([H])[H])OC([H])([H])C3([H])[H])c([H])c(Cl)c1Cl


 27 30  0  0  0  0  0  0  0  0999 V2000
   19.2259    9.4978   50.7801 C   0  0  0  0  0  0  0  0  0  0  0  0
   20.4257    8.8040   51.3684 C   0  0  0  0  0  0  0  0  0  0  0  0
   20.0499    8.3221   52.7927 C   0  0  0  0  0  0  0  0  0  0  0  0
   21.2489    7.7473   53.3122 N   0  0  0  0  0  0  0  0  0  0  0  0
   22.3466    8.5263   53.5946 C   0  0  0  0  0  0  0  0  0  0  0  0
   22.5484    9.9948   53.5010 C   0  0  0  0  0  0  0  0  0  0  0  0
   21.7009   10.4981   52.3204 C   0  0  0  0  0  0  0  0  0  0  0  0
   21.5733    9.5388   51.3498 O   0  0  0  0  0  0  0  0  0  0  0  0
   23.3169    7.6930   54.0086 C   0  0  0  0  0  0  0  0  0  0  0  0
   22.8064    6.4604   53.9718 N   0  0  0  0  0  0  0  0  0  0  0  0
   21.5089    6.4667   53.5395 C   0  0  0  0  0  0  0  0  0  0  0  0
   20.7534    5.2370   53.3624 C   0  0  0  0  0  0  0  0  0  0  0  0
   21.2166    4.0304   52.9711 C   0  0  0  0  0  0  0  0  0  0  0  0
   20.3806    2.9002   52.9272 C   0  0  0  0  0  0  0  0  0  0  0  0
   19.0743    2.9908   53.2776 C   0  0  0  0  0  0  0  0  0  0  0  0
   17.9742    1.6140   53.2449 Cl  0  0  0  0  0  0  0  0  0  0  0  0
   18.5556    4.1977   53.6807 C   0  0  0  0  0  0  0  0  0  0  0  0
   16.8581    4.3460   54.1459 Cl  0  0  0  0  0  0  0  0  0  0  0  0
   19.3838    5.2803   53.7167 C   0  0  0  0  0  0  0  0  0  0  0  0
   24.6985    8.0124   54.4347 C   0  0  0  0  0  0  0  0  0  0  0  0
   25.7940    7.4972   53.7859 C   0  0  0  0  0  0  0  0  0  0  0  0
   27.0385    7.8557   54.2605 C   0  0  0  0  0  0  0  0  0  0  0  0
   28.2278    7.3133   53.5781 C   0  0  0  0  0  0  0  0  0  0  0  0
   27.2009    8.6754   55.3147 N   0  0  0  0  0  0  0  0  0  0  0  0
   26.1509    9.1984   55.9740 C   0  0  0  0  0  0  0  0  0  0  0  0
   26.3320   10.1066   57.1422 C   0  0  0  0  0  0  0  0  0  0  0  0
   24.8920    8.8492   55.5113 C   0  0  0  0  0  0  0  0  0  0  0  0
  1  2  1  0  0  0
  2  3  1  0  0  0
  3  4  1  0  0  0
  4  5  1  0  0  0
  5  6  1  0  0  0
  6  7  1  0  0  0
  7  8  1  0  0  0
  5  9  2  0  0  0
  9 10  1  0  0  0
 10 11  2  0  0  0
 11 12  1  0  0  0
 12 13  2  0  0  0
 13 14  1  0  0  0
 14 15  2  0  0  0
 15 16  1  0  0  0
 15 17  1  0  0  0
 17 18  1  0  0  0
 17 19  2  0  0  0
  9 20  1  0  0  0
 20 21  2  0  0  0
 21 22  1  0  0  0
 22 23  1  0  0  0
 22 24  2  0  0  0
 24 25  1  0  0  0
 25 26  1  0  0  0
 25 27  2  0  0  0
  8  2  1  0  0  0
 19 12  1  0  0  0
 27 20  1  0  0  0
 11  4  1  0  0  0
M  END
> <minimizedAffinity>
36.72680

> <CNNscore>
0.4258599281

> <CNNaffinity>
6.2991857529

> <CNN_VS>
2.6825706959

> <CNNaffinity_variance>
0.6490230560

$$$$
[H]c1c([H])c(-c2nc(-c3c([H])c(C([H])([H])[H])nc(C([H])([H])[H])c3[H])c3n2C([H])([H])[C@@]([H])(C([H])([H])[H])OC([H])([H])C3([H])[H])c([H])c(Cl)c1Cl


 27 30  0  0  0  0  0  0  0  0999 V2000
   19.4044    9.7292   50.9332 C   0  0  0  0  0  0  0  0  0  0  0  0
   20.6022    9.0307   51.5200 C   0  0  0  0  0  0  0  0  0  0  0  0
   20.2114    8.5093   52.9262 C   0  0  0  0  0  0  0  0  0  0  0  0
   21.4083    7.9315   53.4473 N   0  0  0  0  0  0  0  0  0  0  0  0
   22.4952    8.7122   53.7645 C   0  0  0  0  0  0  0  0  0  0  0  0
   22.6854   10.1842   53.7112 C   0  0  0  0  0  0  0  0  0  0  0  0
   21.8496   10.7105   52.5323 C   0  0  0  0  0  0  0  0  0  0  0  0
   21.7435    9.7753   51.5359 O   0  0  0  0  0  0  0  0  0  0  0  0
   23.4670    7.8767   54.1704 C   0  0  0  0  0  0  0  0  0  0  0  0
   22.9678    6.6412   54.0952 N   0  0  0  0  0  0  0  0  0  0  0  0
   21.6764    6.6477   53.6455 C   0  0  0  0  0  0  0  0  0  0  0  0
   20.9341    5.4166   53.4266 C   0  0  0  0  0  0  0  0  0  0  0  0
   21.4167    4.2183   53.0335 C   0  0  0  0  0  0  0  0  0  0  0  0
   20.5891    3.0844   52.9467 C   0  0  0  0  0  0  0  0  0  0  0  0
   19.2716    3.1630   53.2560 C   0  0  0  0  0  0  0  0  0  0  0  0
   18.1812    1.7808   53.1683 Cl  0  0  0  0  0  0  0  0  0  0  0  0
   18.7333    4.3612   53.6592 C   0  0  0  0  0  0  0  0  0  0  0  0
   17.0208    4.4937   54.0713 Cl  0  0  0  0  0  0  0  0  0  0  0  0
   19.5536    5.4475   53.7371 C   0  0  0  0  0  0  0  0  0  0  0  0
   24.8399    8.1967   54.6235 C   0  0  0  0  0  0  0  0  0  0  0  0
   25.0747    9.0093   55.7056 C   0  0  0  0  0  0  0  0  0  0  0  0
   26.3899    9.2461   56.0472 C   0  0  0  0  0  0  0  0  0  0  0  0
   26.6637   10.1159   57.2059 C   0  0  0  0  0  0  0  0  0  0  0  0
   27.4203    8.7149   55.3645 N   0  0  0  0  0  0  0  0  0  0  0  0
   27.2277    7.9149   54.2999 C   0  0  0  0  0  0  0  0  0  0  0  0
   28.3702    7.3268   53.5441 C   0  0  0  0  0  0  0  0  0  0  0  0
   25.9123    7.6656   53.9417 C   0  0  0  0  0  0  0  0  0  0  0  0
  1  2  1  0  0  0
  2  3  1  0  0  0
  3  4  1  0  0  0
  4  5  1  0  0  0
  5  6  1  0  0  0
  6  7  1  0  0  0
  7  8  1  0  0  0
  5  9  2  0  0  0
  9 10  1  0  0  0
 10 11  2  0  0  0
 11 12  1  0  0  0
 12 13  2  0  0  0
 13 14  1  0  0  0
 14 15  2  0  0  0
 15 16  1  0  0  0
 15 17  1  0  0  0
 17 18  1  0  0  0
 17 19  2  0  0  0
  9 20  1  0  0  0
 20 21  2  0  0  0
 21 22  1  0  0  0
 22 23  1  0  0  0
 22 24  2  0  0  0
 24 25  1  0  0  0
 25 26  1  0  0  0
 25 27  2  0  0  0
  8  2  1  0  0  0
 19 12  1  0  0  0
 27 20  1  0  0  0
 11  4  1  0  0  0
M  END
> <minimizedAffinity>
36.50862

> <CNNscore>
0.4222170413

> <CNNaffinity>
6.2993278503

> <CNN_VS>
2.6596834660

> <CNNaffinity_variance>
0.7015951872

$$$$
[H]c1c([H])c(-c2nc(-c3c([H])c(C([H])([H])[H])nc(C([H])([H])[H])c3[H])c3n2C([H])([H])[C@@]([H])(C([H])([H])[H])OC([H])([H])C3([H])[H])c([H])c(Cl)c1Cl


 27 30  0  0  0  0  0  0  0  0999 V2000
   20.2307    5.5669   53.2295 C   0  0  0  0  0  0  0  0  0  0  0  0
   21.3149    6.4140   53.8410 C   0  0  0  0  0  0  0  0  0  0  0  0
   21.6861    7.5238   52.8249 C   0  0  0  0  0  0  0  0  0  0  0  0
   22.7632    8.2337   53.4363 N   0  0  0  0  0  0  0  0  0  0  0  0
   23.9915    7.6426   53.6189 C   0  0  0  0  0  0  0  0  0  0  0  0
   24.4916    6.2977   53.2349 C   0  0  0  0  0  0  0  0  0  0  0  0
   23.3021    5.3266   53.3197 C   0  0  0  0  0  0  0  0  0  0  0  0
   22.4025    5.7180   54.2770 O   0  0  0  0  0  0  0  0  0  0  0  0
   24.7608    8.5383   54.2616 C   0  0  0  0  0  0  0  0  0  0  0  0
   24.0089    9.6245   54.4516 N   0  0  0  0  0  0  0  0  0  0  0  0
   22.7508    9.4600   53.9414 C   0  0  0  0  0  0  0  0  0  0  0  0
   21.7289   10.4859   54.0745 C   0  0  0  0  0  0  0  0  0  0  0  0
   20.8791   10.6784   55.1062 C   0  0  0  0  0  0  0  0  0  0  0  0
   19.9957   11.7724   55.1375 C   0  0  0  0  0  0  0  0  0  0  0  0
   19.9704   12.6716   54.1234 C   0  0  0  0  0  0  0  0  0  0  0  0
   18.8885   14.0630   54.1015 Cl  0  0  0  0  0  0  0  0  0  0  0  0
   20.8147   12.5174   53.0504 C   0  0  0  0  0  0  0  0  0  0  0  0
   20.8063   13.6744   51.7156 Cl  0  0  0  0  0  0  0  0  0  0  0  0
   21.6634   11.4504   53.0407 C   0  0  0  0  0  0  0  0  0  0  0  0
   26.1690    8.4099   54.7010 C   0  0  0  0  0  0  0  0  0  0  0  0
   27.0888    7.6856   53.9829 C   0  0  0  0  0  0  0  0  0  0  0  0
   28.3753    7.6273   54.4768 C   0  0  0  0  0  0  0  0  0  0  0  0
   29.3782    6.8548   53.7208 C   0  0  0  0  0  0  0  0  0  0  0  0
   28.7410    8.2459   55.6141 N   0  0  0  0  0  0  0  0  0  0  0  0
   27.8669    8.9637   56.3430 C   0  0  0  0  0  0  0  0  0  0  0  0
   28.2732    9.6487   57.6031 C   0  0  0  0  0  0  0  0  0  0  0  0
   26.5690    9.0336   55.8621 C   0  0  0  0  0  0  0  0  0  0  0  0
  1  2  1  0  0  0
  2  3  1  0  0  0
  3  4  1  0  0  0
  4  5  1  0  0  0
  5  6  1  0  0  0
  6  7  1  0  0  0
  7  8  1  0  0  0
  5  9  2  0  0  0
  9 10  1  0  0  0
 10 11  2  0  0  0
 11 12  1  0  0  0
 12 13  2  0  0  0
 13 14  1  0  0  0
 14 15  2  0  0  0
 15 16  1  0  0  0
 15 17  1  0  0  0
 17 18  1  0  0  0
 17 19  2  0  0  0
  9 20  1  0  0  0
 20 21  2  0  0  0
 21 22  1  0  0  0
 22 23  1  0  0  0
 22 24  2  0  0  0
 24 25  1  0  0  0
 25 26  1  0  0  0
 25 27  2  0  0  0
  8  2  1  0  0  0
 19 12  1  0  0  0
 27 20  1  0  0  0
 11  4  1  0  0  0
M  END
> <minimizedAffinity>
32.38087

> <CNNscore>
0.3994190991

> <CNNaffinity>
5.8940935135

> <CNN_VS>
2.3542134762

> <CNNaffinity_variance>
0.3195787966

$$$$
[H]c1c([H])c(-c2nc(-c3c([H])c(C([H])([H])[H])nc(C([H])([H])[H])c3[H])c3n2C([H])([H])[C@@]([H])(C([H])([H])[H])OC([H])([H])C3([H])[H])c([H])c(Cl)c1Cl


 27 30  0  0  0  0  0  0  0  0999 V2000
   20.1369   11.2203   53.4463 C   0  0  0  0  0  0  0  0  0  0  0  0
   21.3812   10.3752   53.5142 C   0  0  0  0  0  0  0  0  0  0  0  0
   21.2290    9.3933   54.7037 C   0  0  0  0  0  0  0  0  0  0  0  0
   22.4670    8.6842   54.7528 N   0  0  0  0  0  0  0  0  0  0  0  0
   23.6364    9.3185   55.1018 C   0  0  0  0  0  0  0  0  0  0  0  0
   23.8966   10.7195   55.5208 C   0  0  0  0  0  0  0  0  0  0  0  0
   22.8879   11.6129   54.7795 C   0  0  0  0  0  0  0  0  0  0  0  0
   22.5460   11.0810   53.5633 O   0  0  0  0  0  0  0  0  0  0  0  0
   24.6177    8.4053   55.0002 C   0  0  0  0  0  0  0  0  0  0  0  0
   24.0440    7.2672   54.6040 N   0  0  0  0  0  0  0  0  0  0  0  0
   22.6940    7.4147   54.4428 C   0  0  0  0  0  0  0  0  0  0  0  0
   21.8554    6.3279   53.9631 C   0  0  0  0  0  0  0  0  0  0  0  0
   22.2376    5.0815   53.6108 C   0  0  0  0  0  0  0  0  0  0  0  0
   21.2989    4.0999   53.2456 C   0  0  0  0  0  0  0  0  0  0  0  0
   19.9726    4.3795   53.2348 C   0  0  0  0  0  0  0  0  0  0  0  0
   18.7458    3.1955   52.7876 Cl  0  0  0  0  0  0  0  0  0  0  0  0
   19.5346    5.6344   53.5834 C   0  0  0  0  0  0  0  0  0  0  0  0
   17.8125    6.0275   53.5814 Cl  0  0  0  0  0  0  0  0  0  0  0  0
   20.4614    6.5707   53.9348 C   0  0  0  0  0  0  0  0  0  0  0  0
   26.0667    8.5637   55.2606 C   0  0  0  0  0  0  0  0  0  0  0  0
   27.0156    8.0918   54.3869 C   0  0  0  0  0  0  0  0  0  0  0  0
   28.3392    8.2895   54.7208 C   0  0  0  0  0  0  0  0  0  0  0  0
   29.3737    7.7905   53.7962 C   0  0  0  0  0  0  0  0  0  0  0  0
   28.7131    8.9162   55.8510 N   0  0  0  0  0  0  0  0  0  0  0  0
   27.8112    9.3911   56.7295 C   0  0  0  0  0  0  0  0  0  0  0  0
   28.2267   10.0853   57.9816 C   0  0  0  0  0  0  0  0  0  0  0  0
   26.4759    9.2016   56.4107 C   0  0  0  0  0  0  0  0  0  0  0  0
  1  2  1  0  0  0
  2  3  1  0  0  0
  3  4  1  0  0  0
  4  5  1  0  0  0
  5  6  1  0  0  0
  6  7  1  0  0  0
  7  8  1  0  0  0
  5  9  2  0  0  0
  9 10  1  0  0  0
 10 11  2  0  0  0
 11 12  1  0  0  0
 12 13  2  0  0  0
 13 14  1  0  0  0
 14 15  2  0  0  0
 15 16  1  0  0  0
 15 17  1  0  0  0
 17 18  1  0  0  0
 17 19  2  0  0  0
  9 20  1  0  0  0
 20 21  2  0  0  0
 21 22  1  0  0  0
 22 23  1  0  0  0
 22 24  2  0  0  0
 24 25  1  0  0  0
 25 26  1  0  0  0
 25 27  2  0  0  0
  8  2  1  0  0  0
 19 12  1  0  0  0
 27 20  1  0  0  0
 11  4  1  0  0  0
M  END
> <minimizedAffinity>
38.48561

> <CNNscore>
0.3964618742

> <CNNaffinity>
6.0262913704

> <CNN_VS>
2.3891947269

> <CNNaffinity_variance>
0.3746718764

$$$$
[H]c1c([H])c(-c2nc(-c3c([H])c(C([H])([H])[H])nc(C([H])([H])[H])c3[H])c3n2C([H])([H])[C@@]([H])(C([H])([H])[H])OC([H])([H])C3([H])[H])c([H])c(Cl)c1Cl


 27 30  0  0  0  0  0  0  0  0999 V2000
   21.8021   11.6559   52.4378 C   0  0  0  0  0  0  0  0  0  0  0  0
   21.7669   10.2559   52.9907 C   0  0  0  0  0  0  0  0  0  0  0  0
   22.7321    9.3836   52.1482 C   0  0  0  0  0  0  0  0  0  0  0  0
   22.5891    8.0653   52.6769 N   0  0  0  0  0  0  0  0  0  0  0  0
   21.4181    7.3606   52.5227 C   0  0  0  0  0  0  0  0  0  0  0  0
   20.1602    7.7059   51.8125 C   0  0  0  0  0  0  0  0  0  0  0  0
   19.9732    9.2280   51.9281 C   0  0  0  0  0  0  0  0  0  0  0  0
   20.5203    9.7138   53.0873 O   0  0  0  0  0  0  0  0  0  0  0  0
   21.5796    6.1943   53.1715 C   0  0  0  0  0  0  0  0  0  0  0  0
   22.8087    6.2109   53.6916 N   0  0  0  0  0  0  0  0  0  0  0  0
   23.4642    7.3737   53.3945 C   0  0  0  0  0  0  0  0  0  0  0  0
   24.8002    7.6511   53.8971 C   0  0  0  0  0  0  0  0  0  0  0  0
   25.9801    7.2550   53.3731 C   0  0  0  0  0  0  0  0  0  0  0  0
   27.2060    7.6738   53.9207 C   0  0  0  0  0  0  0  0  0  0  0  0
   27.2387    8.4927   55.0005 C   0  0  0  0  0  0  0  0  0  0  0  0
   28.7399    9.0536   55.7343 Cl  0  0  0  0  0  0  0  0  0  0  0  0
   26.0642    8.9212   55.5706 C   0  0  0  0  0  0  0  0  0  0  0  0
   26.0752    9.9906   56.9765 Cl  0  0  0  0  0  0  0  0  0  0  0  0
   24.8872    8.5037   55.0234 C   0  0  0  0  0  0  0  0  0  0  0  0
   20.6253    5.0718   53.3190 C   0  0  0  0  0  0  0  0  0  0  0  0
   19.3373    5.2683   53.7535 C   0  0  0  0  0  0  0  0  0  0  0  0
   18.5266    4.1572   53.8571 C   0  0  0  0  0  0  0  0  0  0  0  0
   17.1401    4.3465   54.3217 C   0  0  0  0  0  0  0  0  0  0  0  0
   18.9553    2.9193   53.5513 N   0  0  0  0  0  0  0  0  0  0  0  0
   20.2101    2.6896   53.1229 C   0  0  0  0  0  0  0  0  0  0  0  0
   20.6841    1.3174   52.7843 C   0  0  0  0  0  0  0  0  0  0  0  0
   21.0394    3.7945   53.0125 C   0  0  0  0  0  0  0  0  0  0  0  0
  1  2  1  0  0  0
  2  3  1  0  0  0
  3  4  1  0  0  0
  4  5  1  0  0  0
  5  6  1  0  0  0
  6  7  1  0  0  0
  7  8  1  0  0  0
  5  9  2  0  0  0
  9 10  1  0  0  0
 10 11  2  0  0  0
 11 12  1  0  0  0
 12 13  2  0  0  0
 13 14  1  0  0  0
 14 15  2  0  0  0
 15 16  1  0  0  0
 15 17  1  0  0  0
 17 18  1  0  0  0
 17 19  2  0  0  0
  9 20  1  0  0  0
 20 21  2  0  0  0
 21 22  1  0  0  0
 22 23  1  0  0  0
 22 24  2  0  0  0
 24 25  1  0  0  0
 25 26  1  0  0  0
 25 27  2  0  0  0
  8  2  1  0  0  0
 19 12  1  0  0  0
 27 20  1  0  0  0
 11  4  1  0  0  0
M  END
> <minimizedAffinity>
31.07052

> <CNNscore>
0.3390051126

> <CNNaffinity>
6.3391885757

> <CNN_VS>
2.1490173340

> <CNNaffinity_variance>
0.4566270411

$$$$
[H]c1c([H])c(-c2nc(-c3c([H])c(C([H])([H])[H])nc(C([H])([H])[H])c3[H])c3n2C([H])([H])[C@@]([H])(C([H])([H])[H])OC([H])([H])C3([H])[H])c([H])c(Cl)c1Cl


 27 30  0  0  0  0  0  0  0  0999 V2000
   19.5510   10.2909   55.6395 C   0  0  0  0  0  0  0  0  0  0  0  0
   20.7053    9.6784   54.8916 C   0  0  0  0  0  0  0  0  0  0  0  0
   21.1374    8.3948   55.6451 C   0  0  0  0  0  0  0  0  0  0  0  0
   22.2746    7.9152   54.9277 N   0  0  0  0  0  0  0  0  0  0  0  0
   23.4598    8.6130   54.9250 C   0  0  0  0  0  0  0  0  0  0  0  0
   23.8532    9.8665   55.6178 C   0  0  0  0  0  0  0  0  0  0  0  0
   22.5978   10.7499   55.7119 C   0  0  0  0  0  0  0  0  0  0  0  0
   21.7472   10.5260   54.6606 O   0  0  0  0  0  0  0  0  0  0  0  0
   24.3042    7.9393   54.1248 C   0  0  0  0  0  0  0  0  0  0  0  0
   23.6371    6.8764   53.6701 N   0  0  0  0  0  0  0  0  0  0  0  0
   22.3610    6.8369   54.1603 C   0  0  0  0  0  0  0  0  0  0  0  0
   21.4193    5.8017   53.7653 C   0  0  0  0  0  0  0  0  0  0  0  0
   21.6933    4.5352   53.3854 C   0  0  0  0  0  0  0  0  0  0  0  0
   20.6689    3.6108   53.1131 C   0  0  0  0  0  0  0  0  0  0  0  0
   19.3660    3.9682   53.2232 C   0  0  0  0  0  0  0  0  0  0  0  0
   18.0357    2.8588   52.8967 Cl  0  0  0  0  0  0  0  0  0  0  0  0
   19.0366    5.2466   53.6045 C   0  0  0  0  0  0  0  0  0  0  0  0
   17.3478    5.7406   53.7592 Cl  0  0  0  0  0  0  0  0  0  0  0  0
   20.0453    6.1263   53.8644 C   0  0  0  0  0  0  0  0  0  0  0  0
   25.7072    8.2575   53.7744 C   0  0  0  0  0  0  0  0  0  0  0  0
   26.0730    8.6102   52.4983 C   0  0  0  0  0  0  0  0  0  0  0  0
   27.4055    8.8876   52.2745 C   0  0  0  0  0  0  0  0  0  0  0  0
   27.8191    9.2683   50.9114 C   0  0  0  0  0  0  0  0  0  0  0  0
   28.3303    8.8227   53.2493 N   0  0  0  0  0  0  0  0  0  0  0  0
   28.0081    8.4808   54.5103 C   0  0  0  0  0  0  0  0  0  0  0  0
   29.0338    8.4092   55.5896 C   0  0  0  0  0  0  0  0  0  0  0  0
   26.6734    8.1985   54.7541 C   0  0  0  0  0  0  0  0  0  0  0  0
  1  2  1  0  0  0
  2  3  1  0  0  0
  3  4  1  0  0  0
  4  5  1  0  0  0
  5  6  1  0  0  0
  6  7  1  0  0  0
  7  8  1  0  0  0
  5  9  2  0  0  0
  9 10  1  0  0  0
 10 11  2  0  0  0
 11 12  1  0  0  0
 12 13  2  0  0  0
 13 14  1  0  0  0
 14 15  2  0  0  0
 15 16  1  0  0  0
 15 17  1  0  0  0
 17 18  1  0  0  0
 17 19  2  0  0  0
  9 20  1  0  0  0
 20 21  2  0  0  0
 21 22  1  0  0  0
 22 23  1  0  0  0
 22 24  2  0  0  0
 24 25  1  0  0  0
 25 26  1  0  0  0
 25 27  2  0  0  0
  8  2  1  0  0  0
 19 12  1  0  0  0
 27 20  1  0  0  0
 11  4  1  0  0  0
M  END
> <minimizedAffinity>
39.12067

> <CNNscore>
0.2998572290

> <CNNaffinity>
5.9984064102

> <CNN_VS>
1.7986655235

> <CNNaffinity_variance>
0.4786805212

$$$$
[H]c1c([H])c(-c2nc(-c3c([H])c(C([H])([H])[H])nc(C([H])([H])[H])c3[H])c3n2C([H])([H])[C@@]([H])(C([H])([H])[H])OC([H])([H])C3([H])[H])c([H])c(Cl)c1Cl


 27 30  0  0  0  0  0  0  0  0999 V2000
   20.0873    5.6135   53.4761 C   0  0  0  0  0  0  0  0  0  0  0  0
   21.2115    6.5046   53.9333 C   0  0  0  0  0  0  0  0  0  0  0  0
   21.7257    7.2962   52.7041 C   0  0  0  0  0  0  0  0  0  0  0  0
   22.8308    8.0552   53.1944 N   0  0  0  0  0  0  0  0  0  0  0  0
   23.9928    7.4400   53.5979 C   0  0  0  0  0  0  0  0  0  0  0  0
   24.3908    6.0091   53.5887 C   0  0  0  0  0  0  0  0  0  0  0  0
   23.1183    5.1793   53.8282 C   0  0  0  0  0  0  0  0  0  0  0  0
   22.2124    5.8615   54.5982 O   0  0  0  0  0  0  0  0  0  0  0  0
   24.8065    8.4088   54.0524 C   0  0  0  0  0  0  0  0  0  0  0  0
   24.1444    9.5601   53.9203 N   0  0  0  0  0  0  0  0  0  0  0  0
   22.9020    9.3663   53.3825 C   0  0  0  0  0  0  0  0  0  0  0  0
   21.9687   10.4649   53.1919 C   0  0  0  0  0  0  0  0  0  0  0  0
   21.2447   11.1082   54.1330 C   0  0  0  0  0  0  0  0  0  0  0  0
   20.4427   12.2183   53.8129 C   0  0  0  0  0  0  0  0  0  0  0  0
   20.3713   12.6772   52.5393 C   0  0  0  0  0  0  0  0  0  0  0  0
   19.3863   14.0623   52.0722 Cl  0  0  0  0  0  0  0  0  0  0  0  0
   21.0881   12.0546   51.5461 C   0  0  0  0  0  0  0  0  0  0  0  0
   21.0173   12.6315   49.8780 Cl  0  0  0  0  0  0  0  0  0  0  0  0
   21.8597   10.9808   51.8785 C   0  0  0  0  0  0  0  0  0  0  0  0
   26.1758    8.2913   54.6034 C   0  0  0  0  0  0  0  0  0  0  0  0
   26.5524    8.9419   55.7529 C   0  0  0  0  0  0  0  0  0  0  0  0
   27.8511    8.7676   56.1837 C   0  0  0  0  0  0  0  0  0  0  0  0
   28.2757    9.4574   57.4158 C   0  0  0  0  0  0  0  0  0  0  0  0
   28.7339    7.9968   55.5230 N   0  0  0  0  0  0  0  0  0  0  0  0
   28.3999    7.3451   54.3941 C   0  0  0  0  0  0  0  0  0  0  0  0
   29.3789    6.4913   53.6628 C   0  0  0  0  0  0  0  0  0  0  0  0
   27.0987    7.5084   53.9459 C   0  0  0  0  0  0  0  0  0  0  0  0
  1  2  1  0  0  0
  2  3  1  0  0  0
  3  4  1  0  0  0
  4  5  1  0  0  0
  5  6  1  0  0  0
  6  7  1  0  0  0
  7  8  1  0  0  0
  5  9  2  0  0  0
  9 10  1  0  0  0
 10 11  2  0  0  0
 11 12  1  0  0  0
 12 13  2  0  0  0
 13 14  1  0  0  0
 14 15  2  0  0  0
 15 16  1  0  0  0
 15 17  1  0  0  0
 17 18  1  0  0  0
 17 19  2  0  0  0
  9 20  1  0  0  0
 20 21  2  0  0  0
 21 22  1  0  0  0
 22 23  1  0  0  0
 22 24  2  0  0  0
 24 25  1  0  0  0
 25 26  1  0  0  0
 25 27  2  0  0  0
  8  2  1  0  0  0
 19 12  1  0  0  0
 27 20  1  0  0  0
 11  4  1  0  0  0
M  END
> <minimizedAffinity>
35.70103

> <CNNscore>
0.2913445532

> <CNNaffinity>
5.6294145584

> <CNN_VS>
1.6400992870

> <CNNaffinity_variance>
0.2135492563

$$$$
[H]c1c([H])c(-c2nc(-c3c([H])c(C([H])([H])[H])nc(C([H])([H])[H])c3[H])c3n2C([H])([H])[C@@]([H])(C([H])([H])[H])OC([H])([H])C3([H])[H])c([H])c(Cl)c1F


 27 30  0  0  0  0  0  0  0  0999 V2000
   20.4374   10.6216   55.9708 C   0  0  0  0  0  0  0  0  0  0  0  0
   20.5933   10.1475   54.5704 C   0  0  0  0  0  0  0  0  0  0  0  0
   20.6696    8.6391   54.5573 C   0  0  0  0  0  0  0  0  0  0  0  0
   22.0352    8.1959   54.5794 N   0  0  0  0  0  0  0  0  0  0  0  0
   23.1304    8.9166   54.8993 C   0  0  0  0  0  0  0  0  0  0  0  0
   23.3626   10.3134   55.3421 C   0  0  0  0  0  0  0  0  0  0  0  0
   22.6021   11.2803   54.4626 C   0  0  0  0  0  0  0  0  0  0  0  0
   21.5516   10.7338   53.8013 O   0  0  0  0  0  0  0  0  0  0  0  0
   24.2020    8.0729   54.7417 C   0  0  0  0  0  0  0  0  0  0  0  0
   23.6986    6.9043   54.3393 N   0  0  0  0  0  0  0  0  0  0  0  0
   22.3497    6.9405   54.2281 C   0  0  0  0  0  0  0  0  0  0  0  0
   21.6205    5.7682   53.7770 C   0  0  0  0  0  0  0  0  0  0  0  0
   22.1459    4.6376   53.2274 C   0  0  0  0  0  0  0  0  0  0  0  0
   21.3400    3.5430   52.8879 C   0  0  0  0  0  0  0  0  0  0  0  0
   19.9928    3.5688   53.0942 C   0  0  0  0  0  0  0  0  0  0  0  0
   19.1871    2.5318   52.7789 F   0  0  0  0  0  0  0  0  0  0  0  0
   19.4252    4.6877   53.6432 C   0  0  0  0  0  0  0  0  0  0  0  0
   17.6914    4.7501   53.9196 Cl  0  0  0  0  0  0  0  0  0  0  0  0
   20.2145    5.7336   53.9656 C   0  0  0  0  0  0  0  0  0  0  0  0
   25.6427    8.3110   54.9418 C   0  0  0  0  0  0  0  0  0  0  0  0
   26.5965    7.8383   54.0759 C   0  0  0  0  0  0  0  0  0  0  0  0
   27.9163    8.1185   54.3620 C   0  0  0  0  0  0  0  0  0  0  0  0
   28.9578    7.6155   53.4376 C   0  0  0  0  0  0  0  0  0  0  0  0
   28.2909    8.8324   55.4505 N   0  0  0  0  0  0  0  0  0  0  0  0
   27.3756    9.3094   56.3187 C   0  0  0  0  0  0  0  0  0  0  0  0
   27.7959   10.0993   57.5224 C   0  0  0  0  0  0  0  0  0  0  0  0
   26.0570    9.0355   56.0426 C   0  0  0  0  0  0  0  0  0  0  0  0
  1  2  1  0  0  0
  2  3  1  0  0  0
  3  4  1  0  0  0
  4  5  1  0  0  0
  5  6  1  0  0  0
  6  7  1  0  0  0
  7  8  1  0  0  0
  5  9  2  0  0  0
  9 10  1  0  0  0
 10 11  2  0  0  0
 11 12  1  0  0  0
 12 13  2  0  0  0
 13 14  1  0  0  0
 14 15  2  0  0  0
 15 16  1  0  0  0
 15 17  1  0  0  0
 17 18  1  0  0  0
 17 19  2  0  0  0
  9 20  1  0  0  0
 20 21  2  0  0  0
 21 22  1  0  0  0
 22 23  1  0  0  0
 22 24  2  0  0  0
 24 25  1  0  0  0
 25 26  1  0  0  0
 25 27  2  0  0  0
  8  2  1  0  0  0
 19 12  1  0  0  0
 27 20  1  0  0  0
 11  4  1  0  0  0
M  END
> <minimizedAffinity>
30.41409

> <CNNscore>
0.5332150459

> <CNNaffinity>
6.3323731422

> <CNN_VS>
3.3765165806

> <CNNaffinity_variance>
0.4315702021

$$$$
[H]c1c([H])c(-c2nc(-c3c([H])c(C([H])([H])[H])nc(C([H])([H])[H])c3[H])c3n2C([H])([H])[C@@]([H])(C([H])([H])[H])OC([H])([H])C3([H])[H])c([H])c(Cl)c1F


 27 30  0  0  0  0  0  0  0  0999 V2000
   20.4103   10.7286   55.8571 C   0  0  0  0  0  0  0  0  0  0  0  0
   20.6224   10.2298   54.4727 C   0  0  0  0  0  0  0  0  0  0  0  0
   20.6990    8.7215   54.4896 C   0  0  0  0  0  0  0  0  0  0  0  0
   22.0627    8.2796   54.5745 N   0  0  0  0  0  0  0  0  0  0  0  0
   23.1441    9.0066   54.9254 C   0  0  0  0  0  0  0  0  0  0  0  0
   23.3584   10.4111   55.3522 C   0  0  0  0  0  0  0  0  0  0  0  0
   22.6340   11.3617   54.4258 C   0  0  0  0  0  0  0  0  0  0  0  0
   21.6110   10.8029   53.7325 O   0  0  0  0  0  0  0  0  0  0  0  0
   24.2212    8.1609   54.8260 C   0  0  0  0  0  0  0  0  0  0  0  0
   23.7342    6.9850   54.4246 N   0  0  0  0  0  0  0  0  0  0  0  0
   22.3910    7.0183   54.2585 C   0  0  0  0  0  0  0  0  0  0  0  0
   21.6804    5.8377   53.7994 C   0  0  0  0  0  0  0  0  0  0  0  0
   22.2256    4.7092   53.2652 C   0  0  0  0  0  0  0  0  0  0  0  0
   21.4356    3.6061   52.9158 C   0  0  0  0  0  0  0  0  0  0  0  0
   20.0846    3.6212   53.0966 C   0  0  0  0  0  0  0  0  0  0  0  0
   19.2939    2.5760   52.7711 F   0  0  0  0  0  0  0  0  0  0  0  0
   19.4973    4.7378   53.6295 C   0  0  0  0  0  0  0  0  0  0  0  0
   17.7581    4.7865   53.8730 Cl  0  0  0  0  0  0  0  0  0  0  0  0
   20.2714    5.7919   53.9618 C   0  0  0  0  0  0  0  0  0  0  0  0
   25.6526    8.4034   55.0797 C   0  0  0  0  0  0  0  0  0  0  0  0
   26.0987    9.1418   56.1467 C   0  0  0  0  0  0  0  0  0  0  0  0
   27.4608    9.3072   56.2864 C   0  0  0  0  0  0  0  0  0  0  0  0
   27.9584   10.1015   57.4325 C   0  0  0  0  0  0  0  0  0  0  0  0
   28.3531    8.7727   55.4187 N   0  0  0  0  0  0  0  0  0  0  0  0
   27.9437    8.0425   54.3611 C   0  0  0  0  0  0  0  0  0  0  0  0
   28.9359    7.4529   53.4034 C   0  0  0  0  0  0  0  0  0  0  0  0
   26.5877    7.8718   54.2128 C   0  0  0  0  0  0  0  0  0  0  0  0
  1  2  1  0  0  0
  2  3  1  0  0  0
  3  4  1  0  0  0
  4  5  1  0  0  0
  5  6  1  0  0  0
  6  7  1  0  0  0
  7  8  1  0  0  0
  5  9  2  0  0  0
  9 10  1  0  0  0
 10 11  2  0  0  0
 11 12  1  0  0  0
 12 13  2  0  0  0
 13 14  1  0  0  0
 14 15  2  0  0  0
 15 16  1  0  0  0
 15 17  1  0  0  0
 17 18  1  0  0  0
 17 19  2  0  0  0
  9 20  1  0  0  0
 20 21  2  0  0  0
 21 22  1  0  0  0
 22 23  1  0  0  0
 22 24  2  0  0  0
 24 25  1  0  0  0
 25 26  1  0  0  0
 25 27  2  0  0  0
  8  2  1  0  0  0
 19 12  1  0  0  0
 27 20  1  0  0  0
 11  4  1  0  0  0
M  END
> <minimizedAffinity>
31.16988

> <CNNscore>
0.5279184580

> <CNNaffinity>
6.3057274818

> <CNN_VS>
3.3289098740

> <CNNaffinity_variance>
0.4495741725

$$$$
[H]c1c([H])c(-c2nc(-c3c([H])c(C([H])([H])[H])nc(C([H])([H])[H])c3[H])c3n2C([H])([H])[C@@]([H])(C([H])([H])[H])OC([H])([H])C3([H])[H])c([H])c(Cl)c1F


 27 30  0  0  0  0  0  0  0  0999 V2000
   21.1062   11.3216   53.5661 C   0  0  0  0  0  0  0  0  0  0  0  0
   21.7883   10.7586   54.7611 C   0  0  0  0  0  0  0  0  0  0  0  0
   23.0526   10.0530   54.3307 C   0  0  0  0  0  0  0  0  0  0  0  0
   22.8141    8.6507   54.1342 N   0  0  0  0  0  0  0  0  0  0  0  0
   21.6243    8.0278   54.0019 C   0  0  0  0  0  0  0  0  0  0  0  0
   20.2114    8.4797   53.9785 C   0  0  0  0  0  0  0  0  0  0  0  0
   19.9396    9.4251   55.1270 C   0  0  0  0  0  0  0  0  0  0  0  0
   21.0438   10.0268   55.6351 O   0  0  0  0  0  0  0  0  0  0  0  0
   21.9061    6.6905   53.8702 C   0  0  0  0  0  0  0  0  0  0  0  0
   23.2349    6.5833   53.9307 N   0  0  0  0  0  0  0  0  0  0  0  0
   23.8374    7.7849   54.0930 C   0  0  0  0  0  0  0  0  0  0  0  0
   25.2828    7.8700   54.2065 C   0  0  0  0  0  0  0  0  0  0  0  0
   26.2023    7.4661   53.2857 C   0  0  0  0  0  0  0  0  0  0  0  0
   27.5755    7.6595   53.4853 C   0  0  0  0  0  0  0  0  0  0  0  0
   28.0458    8.2605   54.6149 C   0  0  0  0  0  0  0  0  0  0  0  0
   29.3621    8.4626   54.8389 F   0  0  0  0  0  0  0  0  0  0  0  0
   27.1539    8.6796   55.5659 C   0  0  0  0  0  0  0  0  0  0  0  0
   27.7309    9.4563   57.0323 Cl  0  0  0  0  0  0  0  0  0  0  0  0
   25.8345    8.4871   55.3591 C   0  0  0  0  0  0  0  0  0  0  0  0
   21.0050    5.5367   53.6999 C   0  0  0  0  0  0  0  0  0  0  0  0
   19.6594    5.6060   53.9597 C   0  0  0  0  0  0  0  0  0  0  0  0
   18.9105    4.4638   53.7681 C   0  0  0  0  0  0  0  0  0  0  0  0
   17.4570    4.5220   54.0441 C   0  0  0  0  0  0  0  0  0  0  0  0
   19.4534    3.2992   53.3394 N   0  0  0  0  0  0  0  0  0  0  0  0
   20.7727    3.2016   53.0763 C   0  0  0  0  0  0  0  0  0  0  0  0
   21.3686    1.9097   52.6019 C   0  0  0  0  0  0  0  0  0  0  0  0
   21.5281    4.3347   53.2642 C   0  0  0  0  0  0  0  0  0  0  0  0
  1  2  1  0  0  0
  2  3  1  0  0  0
  3  4  1  0  0  0
  4  5  1  0  0  0
  5  6  1  0  0  0
  6  7  1  0  0  0
  7  8  1  0  0  0
  5  9  2  0  0  0
  9 10  1  0  0  0
 10 11  2  0  0  0
 11 12  1  0  0  0
 12 13  2  0  0  0
 13 14  1  0  0  0
 14 15  2  0  0  0
 15 16  1  0  0  0
 15 17  1  0  0  0
 17 18  1  0  0  0
 17 19  2  0  0  0
  9 20  1  0  0  0
 20 21  2  0  0  0
 21 22  1  0  0  0
 22 23  1  0  0  0
 22 24  2  0  0  0
 24 25  1  0  0  0
 25 26  1  0  0  0
 25 27  2  0  0  0
  8  2  1  0  0  0
 19 12  1  0  0  0
 27 20  1  0  0  0
 11  4  1  0  0  0
M  END
> <minimizedAffinity>
30.72447

> <CNNscore>
0.4866077602

> <CNNaffinity>
6.4507050514

> <CNN_VS>
3.1389632225

> <CNNaffinity_variance>
0.4591313899

$$$$
[H]c1c([H])c(-c2nc(-c3c([H])c(C([H])([H])[H])nc(C([H])([H])[H])c3[H])c3n2C([H])([H])[C@@]([H])(C([H])([H])[H])OC([H])([H])C3([H])[H])c([H])c(Cl)c1F


 27 30  0  0  0  0  0  0  0  0999 V2000
   21.0990   11.2359   53.3918 C   0  0  0  0  0  0  0  0  0  0  0  0
   21.7638   10.7068   54.6118 C   0  0  0  0  0  0  0  0  0  0  0  0
   23.0522   10.0209   54.2232 C   0  0  0  0  0  0  0  0  0  0  0  0
   22.8472    8.6109   54.0448 N   0  0  0  0  0  0  0  0  0  0  0  0
   21.6740    7.9612   53.8950 C   0  0  0  0  0  0  0  0  0  0  0  0
   20.2531    8.3830   53.8309 C   0  0  0  0  0  0  0  0  0  0  0  0
   19.9346    9.3411   54.9566 C   0  0  0  0  0  0  0  0  0  0  0  0
   21.0138    9.9740   55.4803 O   0  0  0  0  0  0  0  0  0  0  0  0
   21.9862    6.6281   53.7925 C   0  0  0  0  0  0  0  0  0  0  0  0
   23.3152    6.5497   53.8860 N   0  0  0  0  0  0  0  0  0  0  0  0
   23.8888    7.7661   54.0422 C   0  0  0  0  0  0  0  0  0  0  0  0
   25.3291    7.8832   54.1882 C   0  0  0  0  0  0  0  0  0  0  0  0
   26.2767    7.5291   53.2756 C   0  0  0  0  0  0  0  0  0  0  0  0
   27.6404    7.7502   53.5092 C   0  0  0  0  0  0  0  0  0  0  0  0
   28.0726    8.3293   54.6651 C   0  0  0  0  0  0  0  0  0  0  0  0
   29.3786    8.5569   54.9223 F   0  0  0  0  0  0  0  0  0  0  0  0
   27.1515    8.6984   55.6090 C   0  0  0  0  0  0  0  0  0  0  0  0
   27.6792    9.4459   57.1088 Cl  0  0  0  0  0  0  0  0  0  0  0  0
   25.8418    8.4798   55.3693 C   0  0  0  0  0  0  0  0  0  0  0  0
   21.1133    5.4531   53.6205 C   0  0  0  0  0  0  0  0  0  0  0  0
   21.5854    4.2397   53.1874 C   0  0  0  0  0  0  0  0  0  0  0  0
   20.6786    3.2082   53.0600 C   0  0  0  0  0  0  0  0  0  0  0  0
   21.1719    1.8924   52.5937 C   0  0  0  0  0  0  0  0  0  0  0  0
   19.3624    3.3550   53.3445 N   0  0  0  0  0  0  0  0  0  0  0  0
   18.8703    4.5358   53.7721 C   0  0  0  0  0  0  0  0  0  0  0  0
   17.4121    4.6928   54.0856 C   0  0  0  0  0  0  0  0  0  0  0  0
   19.7660    5.5705   53.9023 C   0  0  0  0  0  0  0  0  0  0  0  0
  1  2  1  0  0  0
  2  3  1  0  0  0
  3  4  1  0  0  0
  4  5  1  0  0  0
  5  6  1  0  0  0
  6  7  1  0  0  0
  7  8  1  0  0  0
  5  9  2  0  0  0
  9 10  1  0  0  0
 10 11  2  0  0  0
 11 12  1  0  0  0
 12 13  2  0  0  0
 13 14  1  0  0  0
 14 15  2  0  0  0
 15 16  1  0  0  0
 15 17  1  0  0  0
 17 18  1  0  0  0
 17 19  2  0  0  0
  9 20  1  0  0  0
 20 21  2  0  0  0
 21 22  1  0  0  0
 22 23  1  0  0  0
 22 24  2  0  0  0
 24 25  1  0  0  0
 25 26  1  0  0  0
 25 27  2  0  0  0
  8  2  1  0  0  0
 19 12  1  0  0  0
 27 20  1  0  0  0
 11  4  1  0  0  0
M  END
> <minimizedAffinity>
29.68637

> <CNNscore>
0.4789863825

> <CNNaffinity>
6.4364295006

> <CNN_VS>
3.0829620361

> <CNNaffinity_variance>
0.4560293257

$$$$
[H]c1c([H])c(-c2nc(-c3c([H])c(C([H])([H])[H])nc(C([H])([H])[H])c3[H])c3n2C([H])([H])[C@@]([H])(C([H])([H])[H])OC([H])([H])C3([H])[H])c([H])c(Cl)c1F


 27 30  0  0  0  0  0  0  0  0999 V2000
   20.8386    5.7283   54.1438 C   0  0  0  0  0  0  0  0  0  0  0  0
   21.9204    6.0193   53.1664 C   0  0  0  0  0  0  0  0  0  0  0  0
   23.0802    6.6709   53.8815 C   0  0  0  0  0  0  0  0  0  0  0  0
   22.9890    8.1019   53.8055 N   0  0  0  0  0  0  0  0  0  0  0  0
   21.9125    8.8423   53.4677 C   0  0  0  0  0  0  0  0  0  0  0  0
   20.5104    8.5291   53.0975 C   0  0  0  0  0  0  0  0  0  0  0  0
   20.4705    7.4326   52.0570 C   0  0  0  0  0  0  0  0  0  0  0  0
   21.5827    6.6576   52.0121 O   0  0  0  0  0  0  0  0  0  0  0  0
   22.3228   10.1520   53.5057 C   0  0  0  0  0  0  0  0  0  0  0  0
   23.6093   10.1280   53.8594 N   0  0  0  0  0  0  0  0  0  0  0  0
   24.0611    8.8672   54.0575 C   0  0  0  0  0  0  0  0  0  0  0  0
   25.4473    8.6351   54.4239 C   0  0  0  0  0  0  0  0  0  0  0  0
   26.4117    8.0548   53.6562 C   0  0  0  0  0  0  0  0  0  0  0  0
   27.7358    7.9429   54.1005 C   0  0  0  0  0  0  0  0  0  0  0  0
   28.1104    8.4113   55.3247 C   0  0  0  0  0  0  0  0  0  0  0  0
   29.3771    8.3199   55.7837 F   0  0  0  0  0  0  0  0  0  0  0  0
   27.1701    9.0001   56.1278 C   0  0  0  0  0  0  0  0  0  0  0  0
   27.6235    9.6120   57.7110 Cl  0  0  0  0  0  0  0  0  0  0  0  0
   25.8993    9.1013   55.6857 C   0  0  0  0  0  0  0  0  0  0  0  0
   21.5803   11.3940   53.2260 C   0  0  0  0  0  0  0  0  0  0  0  0
   20.6935   11.9411   54.1189 C   0  0  0  0  0  0  0  0  0  0  0  0
   20.0517   13.1056   53.7521 C   0  0  0  0  0  0  0  0  0  0  0  0
   19.0917   13.7087   54.7044 C   0  0  0  0  0  0  0  0  0  0  0  0
   20.2670   13.7128   52.5606 N   0  0  0  0  0  0  0  0  0  0  0  0
   21.1327   13.1979   51.6635 C   0  0  0  0  0  0  0  0  0  0  0  0
   21.3673   13.8742   50.3456 C   0  0  0  0  0  0  0  0  0  0  0  0
   21.7776   12.0372   52.0194 C   0  0  0  0  0  0  0  0  0  0  0  0
  1  2  1  0  0  0
  2  3  1  0  0  0
  3  4  1  0  0  0
  4  5  1  0  0  0
  5  6  1  0  0  0
  6  7  1  0  0  0
  7  8  1  0  0  0
  5  9  2  0  0  0
  9 10  1  0  0  0
 10 11  2  0  0  0
 11 12  1  0  0  0
 12 13  2  0  0  0
 13 14  1  0  0  0
 14 15  2  0  0  0
 15 16  1  0  0  0
 15 17  1  0  0  0
 17 18  1  0  0  0
 17 19  2  0  0  0
  9 20  1  0  0  0
 20 21  2  0  0  0
 21 22  1  0  0  0
 22 23  1  0  0  0
 22 24  2  0  0  0
 24 25  1  0  0  0
 25 26  1  0  0  0
 25 27  2  0  0  0
  8  2  1  0  0  0
 19 12  1  0  0  0
 27 20  1  0  0  0
 11  4  1  0  0  0
M  END
> <minimizedAffinity>
35.30485

> <CNNscore>
0.4545039237

> <CNNaffinity>
5.9994611740

> <CNN_VS>
2.7267787457

> <CNNaffinity_variance>
0.2294051349

$$$$
[H]c1c([H])c(-c2nc(-c3c([H])c(C([H])([H])[H])nc(C([H])([H])[H])c3[H])c3n2C([H])([H])[C@@]([H])(C([H])([H])[H])OC([H])([H])C3([H])[H])c([H])c(Cl)c1F


 27 30  0  0  0  0  0  0  0  0999 V2000
   21.7268    5.1882   53.1921 C   0  0  0  0  0  0  0  0  0  0  0  0
   21.3055    6.1826   54.2139 C   0  0  0  0  0  0  0  0  0  0  0  0
   21.3857    7.5712   53.6251 C   0  0  0  0  0  0  0  0  0  0  0  0
   22.6472    8.1847   53.9319 N   0  0  0  0  0  0  0  0  0  0  0  0
   23.7703    7.5822   54.3755 C   0  0  0  0  0  0  0  0  0  0  0  0
   24.1477    6.1794   54.6768 C   0  0  0  0  0  0  0  0  0  0  0  0
   23.0854    5.5165   55.5247 C   0  0  0  0  0  0  0  0  0  0  0  0
   21.8627    6.0990   55.4533 O   0  0  0  0  0  0  0  0  0  0  0  0
   24.6944    8.5817   54.5549 C   0  0  0  0  0  0  0  0  0  0  0  0
   24.0832    9.7180   54.2140 N   0  0  0  0  0  0  0  0  0  0  0  0
   22.8051    9.5115   53.8178 C   0  0  0  0  0  0  0  0  0  0  0  0
   21.9679   10.6337   53.4314 C   0  0  0  0  0  0  0  0  0  0  0  0
   21.2696   11.4589   54.2608 C   0  0  0  0  0  0  0  0  0  0  0  0
   20.5436   12.5516   53.7690 C   0  0  0  0  0  0  0  0  0  0  0  0
   20.5070   12.8307   52.4352 C   0  0  0  0  0  0  0  0  0  0  0  0
   19.8178   13.8753   51.9277 F   0  0  0  0  0  0  0  0  0  0  0  0
   21.1945   12.0241   51.5677 C   0  0  0  0  0  0  0  0  0  0  0  0
   21.1647   12.3586   49.8433 Cl  0  0  0  0  0  0  0  0  0  0  0  0
   21.8897   10.9760   52.0564 C   0  0  0  0  0  0  0  0  0  0  0  0
   26.0896    8.5195   55.0258 C   0  0  0  0  0  0  0  0  0  0  0  0
   26.4862    9.0425   56.2308 C   0  0  0  0  0  0  0  0  0  0  0  0
   27.8182    8.9302   56.5703 C   0  0  0  0  0  0  0  0  0  0  0  0
   28.2624    9.4896   57.8672 C   0  0  0  0  0  0  0  0  0  0  0  0
   28.7279    8.3306   55.7655 N   0  0  0  0  0  0  0  0  0  0  0  0
   28.3669    7.8076   54.5758 C   0  0  0  0  0  0  0  0  0  0  0  0
   29.3783    7.1448   53.6886 C   0  0  0  0  0  0  0  0  0  0  0  0
   27.0413    7.9145   54.2279 C   0  0  0  0  0  0  0  0  0  0  0  0
  1  2  1  0  0  0
  2  3  1  0  0  0
  3  4  1  0  0  0
  4  5  1  0  0  0
  5  6  1  0  0  0
  6  7  1  0  0  0
  7  8  1  0  0  0
  5  9  2  0  0  0
  9 10  1  0  0  0
 10 11  2  0  0  0
 11 12  1  0  0  0
 12 13  2  0  0  0
 13 14  1  0  0  0
 14 15  2  0  0  0
 15 16  1  0  0  0
 15 17  1  0  0  0
 17 18  1  0  0  0
 17 19  2  0  0  0
  9 20  1  0  0  0
 20 21  2  0  0  0
 21 22  1  0  0  0
 22 23  1  0  0  0
 22 24  2  0  0  0
 24 25  1  0  0  0
 25 26  1  0  0  0
 25 27  2  0  0  0
  8  2  1  0  0  0
 19 12  1  0  0  0
 27 20  1  0  0  0
 11  4  1  0  0  0
M  END
> <minimizedAffinity>
31.62612

> <CNNscore>
0.3330150545

> <CNNaffinity>
5.7105674744

> <CNN_VS>
1.9017049074

> <CNNaffinity_variance>
0.1458443701

$$$$
[H]c1c([H])c(-c2nc(-c3c([H])c(C([H])([H])[H])nc(C([H])([H])[H])c3[H])c3n2C([H])([H])[C@@]([H])(C([H])([H])[H])OC([H])([H])C3([H])[H])c([H])c(Cl)c1F


 27 30  0  0  0  0  0  0  0  0999 V2000
   18.1637    4.7135   53.6045 C   0  0  0  0  0  0  0  0  0  0  0  0
   19.5215    4.4598   53.0547 C   0  0  0  0  0  0  0  0  0  0  0  0
   20.5475    4.6450   54.1475 C   0  0  0  0  0  0  0  0  0  0  0  0
   21.0784    5.9790   54.1299 N   0  0  0  0  0  0  0  0  0  0  0  0
   20.5702    7.0599   53.5018 C   0  0  0  0  0  0  0  0  0  0  0  0
   19.3643    7.3099   52.6746 C   0  0  0  0  0  0  0  0  0  0  0  0
   19.2180    6.2398   51.6161 C   0  0  0  0  0  0  0  0  0  0  0  0
   19.8658    5.0810   51.8931 O   0  0  0  0  0  0  0  0  0  0  0  0
   21.4430    8.0906   53.7489 C   0  0  0  0  0  0  0  0  0  0  0  0
   22.4179    7.5787   54.5030 N   0  0  0  0  0  0  0  0  0  0  0  0
   22.2252    6.2643   54.7639 C   0  0  0  0  0  0  0  0  0  0  0  0
   23.1961    5.5238   55.5504 C   0  0  0  0  0  0  0  0  0  0  0  0
   24.5529    5.5781   55.4398 C   0  0  0  0  0  0  0  0  0  0  0  0
   25.3897    4.8588   56.3032 C   0  0  0  0  0  0  0  0  0  0  0  0
   24.8750    4.0721   57.2903 C   0  0  0  0  0  0  0  0  0  0  0  0
   25.6522    3.3660   58.1394 F   0  0  0  0  0  0  0  0  0  0  0  0
   23.5155    3.9891   57.4338 C   0  0  0  0  0  0  0  0  0  0  0  0
   22.8235    2.9824   58.6964 Cl  0  0  0  0  0  0  0  0  0  0  0  0
   22.7227    4.6883   56.5952 C   0  0  0  0  0  0  0  0  0  0  0  0
   21.4061    9.4984   53.3146 C   0  0  0  0  0  0  0  0  0  0  0  0
   21.5771    9.8720   52.0054 C   0  0  0  0  0  0  0  0  0  0  0  0
   21.5258   11.2186   51.7117 C   0  0  0  0  0  0  0  0  0  0  0  0
   21.7085   11.6382   50.3036 C   0  0  0  0  0  0  0  0  0  0  0  0
   21.3156   12.1641   52.6587 N   0  0  0  0  0  0  0  0  0  0  0  0
   21.1443   11.8264   53.9532 C   0  0  0  0  0  0  0  0  0  0  0  0
   20.9119   12.8772   54.9977 C   0  0  0  0  0  0  0  0  0  0  0  0
   21.1938   10.4864   54.2565 C   0  0  0  0  0  0  0  0  0  0  0  0
  1  2  1  0  0  0
  2  3  1  0  0  0
  3  4  1  0  0  0
  4  5  1  0  0  0
  5  6  1  0  0  0
  6  7  1  0  0  0
  7  8  1  0  0  0
  5  9  2  0  0  0
  9 10  1  0  0  0
 10 11  2  0  0  0
 11 12  1  0  0  0
 12 13  2  0  0  0
 13 14  1  0  0  0
 14 15  2  0  0  0
 15 16  1  0  0  0
 15 17  1  0  0  0
 17 18  1  0  0  0
 17 19  2  0  0  0
  9 20  1  0  0  0
 20 21  2  0  0  0
 21 22  1  0  0  0
 22 23  1  0  0  0
 22 24  2  0  0  0
 24 25  1  0  0  0
 25 26  1  0  0  0
 25 27  2  0  0  0
  8  2  1  0  0  0
 19 12  1  0  0  0
 27 20  1  0  0  0
 11  4  1  0  0  0
M  END
> <minimizedAffinity>
77.15215

> <CNNscore>
0.1194772050

> <CNNaffinity>
5.2010788918

> <CNN_VS>
0.6214103699

> <CNNaffinity_variance>
0.6298717260

$$$$
[H]c1c([H])c(-c2nc(-c3c([H])c(C([H])([H])[H])nc(C([H])([H])[H])c3[H])c3n2C([H])([H])[C@@]([H])(C([H])([H])[H])OC([H])([H])C3([H])[H])c([H])c(Cl)c1OC([H])(F)F


 30 33  0  0  0  0  0  0  0  0999 V2000
   22.5331    7.5984   52.6599 C   0  0  0  0  0  0  0  0  0  0  0  0
   23.7043    8.4432   53.0216 C   0  0  0  0  0  0  0  0  0  0  0  0
   25.0298    7.6740   52.8960 C   0  0  0  0  0  0  0  0  0  0  0  0
   26.0533    8.3719   53.6102 N   0  0  0  0  0  0  0  0  0  0  0  0
   26.0513    8.4827   54.9776 C   0  0  0  0  0  0  0  0  0  0  0  0
   25.0461    7.9653   55.9301 C   0  0  0  0  0  0  0  0  0  0  0  0
   23.6941    8.0034   55.2913 C   0  0  0  0  0  0  0  0  0  0  0  0
   23.6431    8.9697   54.3243 O   0  0  0  0  0  0  0  0  0  0  0  0
   27.1740    9.1551   55.3041 C   0  0  0  0  0  0  0  0  0  0  0  0
   27.8153    9.4318   54.1774 N   0  0  0  0  0  0  0  0  0  0  0  0
   27.1133    8.9431   53.1004 C   0  0  0  0  0  0  0  0  0  0  0  0
   27.6919    9.5291   56.6151 C   0  0  0  0  0  0  0  0  0  0  0  0
   28.1662    8.5247   57.4786 C   0  0  0  0  0  0  0  0  0  0  0  0
   28.6978    8.7726   58.7159 C   0  0  0  0  0  0  0  0  0  0  0  0
   29.1924    7.6722   59.6059 C   0  0  0  0  0  0  0  0  0  0  0  0
   28.7654   10.0629   59.1204 N   0  0  0  0  0  0  0  0  0  0  0  0
   28.3247   11.0561   58.3288 C   0  0  0  0  0  0  0  0  0  0  0  0
   28.4046   12.4637   58.7839 C   0  0  0  0  0  0  0  0  0  0  0  0
   27.7838   10.8131   57.0705 C   0  0  0  0  0  0  0  0  0  0  0  0
   27.6015    9.0870   51.7282 C   0  0  0  0  0  0  0  0  0  0  0  0
   28.0981    7.9386   51.1014 C   0  0  0  0  0  0  0  0  0  0  0  0
   28.6380    7.9481   49.8285 C   0  0  0  0  0  0  0  0  0  0  0  0
   28.7020    9.1270   49.1238 C   0  0  0  0  0  0  0  0  0  0  0  0
   28.2165   10.2708   49.7296 C   0  0  0  0  0  0  0  0  0  0  0  0
   28.2758   11.7821   48.8797 Cl  0  0  0  0  0  0  0  0  0  0  0  0
   27.6747   10.2485   51.0150 C   0  0  0  0  0  0  0  0  0  0  0  0
   29.2202    9.2062   47.8669 O   0  0  0  0  0  0  0  0  0  0  0  0
   29.0038    8.4264   46.7535 C   0  0  0  0  0  0  0  0  0  0  0  0
   29.2690    7.0993   47.0560 F   0  0  0  0  0  0  0  0  0  0  0  0
   27.7257    8.5597   46.2269 F   0  0  0  0  0  0  0  0  0  0  0  0
  1  2  1  0  0  0
  2  3  1  0  0  0
  3  4  1  0  0  0
  4  5  1  0  0  0
  5  6  1  0  0  0
  6  7  1  0  0  0
  7  8  1  0  0  0
  5  9  2  0  0  0
  9 10  1  0  0  0
 10 11  2  0  0  0
 11 20  1  0  0  0
 20 21  2  0  0  0
 21 22  1  0  0  0
 22 23  2  0  0  0
 23 27  1  0  0  0
 27 28  1  0  0  0
 28 29  1  0  0  0
 28 30  1  0  0  0
 23 24  1  0  0  0
 24 25  1  0  0  0
 24 26  2  0  0  0
  9 12  1  0  0  0
 12 13  2  0  0  0
 13 14  1  0  0  0
 14 15  1  0  0  0
 14 16  2  0  0  0
 16 17  1  0  0  0
 17 18  1  0  0  0
 17 19  2  0  0  0
  8  2  1  0  0  0
 26 20  1  0  0  0
 19 12  1  0  0  0
 11  4  1  0  0  0
M  END
> <minimizedAffinity>
35.24278

> <CNNscore>
0.5806414485

> <CNNaffinity>
5.9295072556

> <CNN_VS>
3.4429175854

> <CNNaffinity_variance>
0.2667912841

$$$$
[H]c1c([H])c(-c2nc(-c3c([H])c(C([H])([H])[H])nc(C([H])([H])[H])c3[H])c3n2C([H])([H])[C@@]([H])(C([H])([H])[H])OC([H])([H])C3([H])[H])c([H])c(Cl)c1OC([H])(F)F


 30 33  0  0  0  0  0  0  0  0999 V2000
   22.5924    7.7732   52.6253 C   0  0  0  0  0  0  0  0  0  0  0  0
   23.8042    8.5523   53.0005 C   0  0  0  0  0  0  0  0  0  0  0  0
   25.0877    7.7140   52.8804 C   0  0  0  0  0  0  0  0  0  0  0  0
   26.1414    8.3524   53.6062 N   0  0  0  0  0  0  0  0  0  0  0  0
   26.1348    8.4559   54.9742 C   0  0  0  0  0  0  0  0  0  0  0  0
   25.0960    7.9880   55.9162 C   0  0  0  0  0  0  0  0  0  0  0  0
   23.7529    8.1017   55.2675 C   0  0  0  0  0  0  0  0  0  0  0  0
   23.7611    9.0744   54.3056 O   0  0  0  0  0  0  0  0  0  0  0  0
   27.2891    9.0656   55.3128 C   0  0  0  0  0  0  0  0  0  0  0  0
   27.9530    9.3136   54.1926 N   0  0  0  0  0  0  0  0  0  0  0  0
   27.2343    8.8688   53.1076 C   0  0  0  0  0  0  0  0  0  0  0  0
   27.8162    9.4045   56.6298 C   0  0  0  0  0  0  0  0  0  0  0  0
   27.8357   10.7511   57.0364 C   0  0  0  0  0  0  0  0  0  0  0  0
   28.2821   11.1706   58.2611 C   0  0  0  0  0  0  0  0  0  0  0  0
   28.2860   12.6170   58.6555 C   0  0  0  0  0  0  0  0  0  0  0  0
   28.7280   10.2252   59.1215 N   0  0  0  0  0  0  0  0  0  0  0  0
   28.7277    8.9258   58.7766 C   0  0  0  0  0  0  0  0  0  0  0  0
   29.2185    7.9016   59.7279 C   0  0  0  0  0  0  0  0  0  0  0  0
   28.2756    8.4912   57.5350 C   0  0  0  0  0  0  0  0  0  0  0  0
   27.7401    8.9936   51.7399 C   0  0  0  0  0  0  0  0  0  0  0  0
   27.7115   10.2670   51.1602 C   0  0  0  0  0  0  0  0  0  0  0  0
   28.1088   10.5120   49.8586 C   0  0  0  0  0  0  0  0  0  0  0  0
   28.5570    9.4743   49.0757 C   0  0  0  0  0  0  0  0  0  0  0  0
   28.5905    8.2099   49.6335 C   0  0  0  0  0  0  0  0  0  0  0  0
   29.1485    6.8690   48.6846 Cl  0  0  0  0  0  0  0  0  0  0  0  0
   28.1860    7.9753   50.9480 C   0  0  0  0  0  0  0  0  0  0  0  0
   28.9636    9.6463   47.7875 O   0  0  0  0  0  0  0  0  0  0  0  0
   28.4495    9.1563   46.6085 C   0  0  0  0  0  0  0  0  0  0  0  0
   29.1961    8.0640   46.1935 F   0  0  0  0  0  0  0  0  0  0  0  0
   27.1037    8.8236   46.6899 F   0  0  0  0  0  0  0  0  0  0  0  0
  1  2  1  0  0  0
  2  3  1  0  0  0
  3  4  1  0  0  0
  4  5  1  0  0  0
  5  6  1  0  0  0
  6  7  1  0  0  0
  7  8  1  0  0  0
  5  9  2  0  0  0
  9 10  1  0  0  0
 10 11  2  0  0  0
 11 20  1  0  0  0
 20 21  2  0  0  0
 21 22  1  0  0  0
 22 23  2  0  0  0
 23 27  1  0  0  0
 27 28  1  0  0  0
 28 29  1  0  0  0
 28 30  1  0  0  0
 23 24  1  0  0  0
 24 25  1  0  0  0
 24 26  2  0  0  0
  9 12  1  0  0  0
 12 13  2  0  0  0
 13 14  1  0  0  0
 14 15  1  0  0  0
 14 16  2  0  0  0
 16 17  1  0  0  0
 17 18  1  0  0  0
 17 19  2  0  0  0
  8  2  1  0  0  0
 26 20  1  0  0  0
 19 12  1  0  0  0
 11  4  1  0  0  0
M  END
> <minimizedAffinity>
36.77052

> <CNNscore>
0.5305559635

> <CNNaffinity>
5.7752561569

> <CNN_VS>
3.0640966892

> <CNNaffinity_variance>
0.2366907895

$$$$
[H]c1c([H])c(-c2nc(-c3c([H])c(C([H])([H])[H])nc(C([H])([H])[H])c3[H])c3n2C([H])([H])[C@@]([H])(C([H])([H])[H])OC([H])([H])C3([H])[H])c([H])c(Cl)c1OC([H])(F)F


 30 33  0  0  0  0  0  0  0  0999 V2000
   21.6506   11.6314   51.6307 C   0  0  0  0  0  0  0  0  0  0  0  0
   21.6744   10.4764   52.5695 C   0  0  0  0  0  0  0  0  0  0  0  0
   22.7789    9.4676   52.2134 C   0  0  0  0  0  0  0  0  0  0  0  0
   22.5176    8.2253   52.8716 N   0  0  0  0  0  0  0  0  0  0  0  0
   21.4496    7.4293   52.5434 C   0  0  0  0  0  0  0  0  0  0  0  0
   20.4023    7.6847   51.5318 C   0  0  0  0  0  0  0  0  0  0  0  0
   20.1428    9.1556   51.4495 C   0  0  0  0  0  0  0  0  0  0  0  0
   20.4601    9.7696   52.6301 O   0  0  0  0  0  0  0  0  0  0  0  0
   21.5415    6.3328   53.3234 C   0  0  0  0  0  0  0  0  0  0  0  0
   22.6190    6.4724   54.0827 N   0  0  0  0  0  0  0  0  0  0  0  0
   23.2416    7.6673   53.8065 C   0  0  0  0  0  0  0  0  0  0  0  0
   20.6903    5.1497   53.3772 C   0  0  0  0  0  0  0  0  0  0  0  0
   19.3528    5.2838   53.7925 C   0  0  0  0  0  0  0  0  0  0  0  0
   18.4652    4.2428   53.8502 C   0  0  0  0  0  0  0  0  0  0  0  0
   17.0468    4.4287   54.2989 C   0  0  0  0  0  0  0  0  0  0  0  0
   18.9125    3.0186   53.4838 N   0  0  0  0  0  0  0  0  0  0  0  0
   20.1825    2.8427   53.0797 C   0  0  0  0  0  0  0  0  0  0  0  0
   20.6589    1.4975   52.6817 C   0  0  0  0  0  0  0  0  0  0  0  0
   21.0905    3.8947   53.0178 C   0  0  0  0  0  0  0  0  0  0  0  0
   24.4732    8.0735   54.4849 C   0  0  0  0  0  0  0  0  0  0  0  0
   24.3457    8.9250   55.5881 C   0  0  0  0  0  0  0  0  0  0  0  0
   25.4310    9.4254   56.2836 C   0  0  0  0  0  0  0  0  0  0  0  0
   26.7055    9.0867   55.8943 C   0  0  0  0  0  0  0  0  0  0  0  0
   26.8483    8.2471   54.8055 C   0  0  0  0  0  0  0  0  0  0  0  0
   28.4367    7.7916   54.2769 Cl  0  0  0  0  0  0  0  0  0  0  0  0
   25.7453    7.7492   54.1113 C   0  0  0  0  0  0  0  0  0  0  0  0
   27.8168    9.5433   56.5352 O   0  0  0  0  0  0  0  0  0  0  0  0
   28.0458    9.7988   57.8682 C   0  0  0  0  0  0  0  0  0  0  0  0
   28.6585    8.7014   58.4540 F   0  0  0  0  0  0  0  0  0  0  0  0
   28.7924   10.9488   58.0890 F   0  0  0  0  0  0  0  0  0  0  0  0
  1  2  1  0  0  0
  2  3  1  0  0  0
  3  4  1  0  0  0
  4  5  1  0  0  0
  5  6  1  0  0  0
  6  7  1  0  0  0
  7  8  1  0  0  0
  5  9  2  0  0  0
  9 10  1  0  0  0
 10 11  2  0  0  0
 11 20  1  0  0  0
 20 21  2  0  0  0
 21 22  1  0  0  0
 22 23  2  0  0  0
 23 27  1  0  0  0
 27 28  1  0  0  0
 28 29  1  0  0  0
 28 30  1  0  0  0
 23 24  1  0  0  0
 24 25  1  0  0  0
 24 26  2  0  0  0
  9 12  1  0  0  0
 12 13  2  0  0  0
 13 14  1  0  0  0
 14 15  1  0  0  0
 14 16  2  0  0  0
 16 17  1  0  0  0
 17 18  1  0  0  0
 17 19  2  0  0  0
  8  2  1  0  0  0
 26 20  1  0  0  0
 19 12  1  0  0  0
 11  4  1  0  0  0
M  END
> <minimizedAffinity>
23.24853

> <CNNscore>
0.5141804814

> <CNNaffinity>
6.6082038879

> <CNN_VS>
3.3978095055

> <CNNaffinity_variance>
0.3954219222

$$$$
[H]c1c([H])c(-c2nc(-c3c([H])c(C([H])([H])[H])nc(C([H])([H])[H])c3[H])c3n2C([H])([H])[C@@]([H])(C([H])([H])[H])OC([H])([H])C3([H])[H])c([H])c(Cl)c1OC([H])(F)F


 30 33  0  0  0  0  0  0  0  0999 V2000
   21.6958   11.6759   51.5512 C   0  0  0  0  0  0  0  0  0  0  0  0
   21.6802   10.5340   52.5062 C   0  0  0  0  0  0  0  0  0  0  0  0
   22.7486    9.4824   52.1639 C   0  0  0  0  0  0  0  0  0  0  0  0
   22.4447    8.2594   52.8396 N   0  0  0  0  0  0  0  0  0  0  0  0
   21.3494    7.4965   52.5230 C   0  0  0  0  0  0  0  0  0  0  0  0
   20.3107    7.7741   51.5083 C   0  0  0  0  0  0  0  0  0  0  0  0
   20.1025    9.2518   51.4054 C   0  0  0  0  0  0  0  0  0  0  0  0
   20.4421    9.8709   52.5772 O   0  0  0  0  0  0  0  0  0  0  0  0
   21.4037    6.4086   53.3182 C   0  0  0  0  0  0  0  0  0  0  0  0
   22.4861    6.5212   54.0751 N   0  0  0  0  0  0  0  0  0  0  0  0
   23.1497    7.6897   53.7819 C   0  0  0  0  0  0  0  0  0  0  0  0
   20.5119    5.2567   53.3891 C   0  0  0  0  0  0  0  0  0  0  0  0
   21.0004    3.9866   53.0322 C   0  0  0  0  0  0  0  0  0  0  0  0
   20.2548    2.8396   53.0912 C   0  0  0  0  0  0  0  0  0  0  0  0
   20.8141    1.5044   52.7014 C   0  0  0  0  0  0  0  0  0  0  0  0
   18.9748    2.9472   53.5192 N   0  0  0  0  0  0  0  0  0  0  0  0
   18.4650    4.1403   53.8712 C   0  0  0  0  0  0  0  0  0  0  0  0
   17.0627    4.2437   54.3378 C   0  0  0  0  0  0  0  0  0  0  0  0
   19.2156    5.3100   53.8147 C   0  0  0  0  0  0  0  0  0  0  0  0
   24.3953    8.0622   54.4540 C   0  0  0  0  0  0  0  0  0  0  0  0
   24.2954    8.9051   55.5666 C   0  0  0  0  0  0  0  0  0  0  0  0
   25.3969    9.3748   56.2580 C   0  0  0  0  0  0  0  0  0  0  0  0
   26.6605    9.0124   55.8548 C   0  0  0  0  0  0  0  0  0  0  0  0
   26.7762    8.1810   54.7566 C   0  0  0  0  0  0  0  0  0  0  0  0
   28.3500    7.6965   54.2104 Cl  0  0  0  0  0  0  0  0  0  0  0  0
   25.6570    7.7142   54.0667 C   0  0  0  0  0  0  0  0  0  0  0  0
   27.7866    9.4384   56.4910 O   0  0  0  0  0  0  0  0  0  0  0  0
   27.9997    9.7906   57.8044 C   0  0  0  0  0  0  0  0  0  0  0  0
   28.5661    8.7242   58.4863 F   0  0  0  0  0  0  0  0  0  0  0  0
   28.7788   10.9308   57.9502 F   0  0  0  0  0  0  0  0  0  0  0  0
  1  2  1  0  0  0
  2  3  1  0  0  0
  3  4  1  0  0  0
  4  5  1  0  0  0
  5  6  1  0  0  0
  6  7  1  0  0  0
  7  8  1  0  0  0
  5  9  2  0  0  0
  9 10  1  0  0  0
 10 11  2  0  0  0
 11 20  1  0  0  0
 20 21  2  0  0  0
 21 22  1  0  0  0
 22 23  2  0  0  0
 23 27  1  0  0  0
 27 28  1  0  0  0
 28 29  1  0  0  0
 28 30  1  0  0  0
 23 24  1  0  0  0
 24 25  1  0  0  0
 24 26  2  0  0  0
  9 12  1  0  0  0
 12 13  2  0  0  0
 13 14  1  0  0  0
 14 15  1  0  0  0
 14 16  2  0  0  0
 16 17  1  0  0  0
 17 18  1  0  0  0
 17 19  2  0  0  0
  8  2  1  0  0  0
 26 20  1  0  0  0
 19 12  1  0  0  0
 11  4  1  0  0  0
M  END
> <minimizedAffinity>
23.51452

> <CNNscore>
0.5106213689

> <CNNaffinity>
6.6030235291

> <CNN_VS>
3.3716449738

> <CNNaffinity_variance>
0.3934875131

$$$$
[H]c1c([H])c(-c2nc(-c3c([H])c(C([H])([H])[H])nc(C([H])([H])[H])c3[H])c3n2C([H])([H])[C@@]([H])(C([H])([H])[H])OC([H])([H])C3([H])[H])c([H])c(Cl)c1OC([H])(F)F


 30 33  0  0  0  0  0  0  0  0999 V2000
   19.9918    5.4371   53.8951 C   0  0  0  0  0  0  0  0  0  0  0  0
   20.8819    6.6082   54.1238 C   0  0  0  0  0  0  0  0  0  0  0  0
   21.6547    7.0009   52.8538 C   0  0  0  0  0  0  0  0  0  0  0  0
   22.7543    7.8434   53.2084 N   0  0  0  0  0  0  0  0  0  0  0  0
   23.8303    7.3857   53.9260 C   0  0  0  0  0  0  0  0  0  0  0  0
   24.0494    6.0286   54.4697 C   0  0  0  0  0  0  0  0  0  0  0  0
   22.7329    5.4319   54.8552 C   0  0  0  0  0  0  0  0  0  0  0  0
   21.8250    6.4122   55.1486 O   0  0  0  0  0  0  0  0  0  0  0  0
   24.6827    8.4253   54.0339 C   0  0  0  0  0  0  0  0  0  0  0  0
   24.1353    9.4568   53.4066 N   0  0  0  0  0  0  0  0  0  0  0  0
   22.9145    9.0998   52.8835 C   0  0  0  0  0  0  0  0  0  0  0  0
   25.9934    8.4976   54.6694 C   0  0  0  0  0  0  0  0  0  0  0  0
   26.1039    9.0595   55.9544 C   0  0  0  0  0  0  0  0  0  0  0  0
   27.2811    9.1480   56.6483 C   0  0  0  0  0  0  0  0  0  0  0  0
   27.3557    9.7549   58.0171 C   0  0  0  0  0  0  0  0  0  0  0  0
   28.3961    8.6632   56.0527 N   0  0  0  0  0  0  0  0  0  0  0  0
   28.3385    8.1169   54.8256 C   0  0  0  0  0  0  0  0  0  0  0  0
   29.5663    7.5902   54.1855 C   0  0  0  0  0  0  0  0  0  0  0  0
   27.1469    8.0227   54.1141 C   0  0  0  0  0  0  0  0  0  0  0  0
   22.0953   10.0403   52.1178 C   0  0  0  0  0  0  0  0  0  0  0  0
   21.1932    9.4996   51.1947 C   0  0  0  0  0  0  0  0  0  0  0  0
   20.4005   10.2773   50.3707 C   0  0  0  0  0  0  0  0  0  0  0  0
   20.4827   11.6480   50.4412 C   0  0  0  0  0  0  0  0  0  0  0  0
   21.3700   12.1978   51.3475 C   0  0  0  0  0  0  0  0  0  0  0  0
   21.5087   13.9226   51.4727 Cl  0  0  0  0  0  0  0  0  0  0  0  0
   22.1651   11.4023   52.1730 C   0  0  0  0  0  0  0  0  0  0  0  0
   19.7307   12.4717   49.6600 O   0  0  0  0  0  0  0  0  0  0  0  0
   19.7676   12.7073   48.3043 C   0  0  0  0  0  0  0  0  0  0  0  0
   18.7057   12.0605   47.6904 F   0  0  0  0  0  0  0  0  0  0  0  0
   19.7691   14.0574   47.9792 F   0  0  0  0  0  0  0  0  0  0  0  0
  1  2  1  0  0  0
  2  3  1  0  0  0
  3  4  1  0  0  0
  4  5  1  0  0  0
  5  6  1  0  0  0
  6  7  1  0  0  0
  7  8  1  0  0  0
  5  9  2  0  0  0
  9 10  1  0  0  0
 10 11  2  0  0  0
 11 20  1  0  0  0
 20 21  2  0  0  0
 21 22  1  0  0  0
 22 23  2  0  0  0
 23 27  1  0  0  0
 27 28  1  0  0  0
 28 29  1  0  0  0
 28 30  1  0  0  0
 23 24  1  0  0  0
 24 25  1  0  0  0
 24 26  2  0  0  0
  9 12  1  0  0  0
 12 13  2  0  0  0
 13 14  1  0  0  0
 14 15  1  0  0  0
 14 16  2  0  0  0
 16 17  1  0  0  0
 17 18  1  0  0  0
 17 19  2  0  0  0
  8  2  1  0  0  0
 26 20  1  0  0  0
 19 12  1  0  0  0
 11  4  1  0  0  0
M  END
> <minimizedAffinity>
38.20024

> <CNNscore>
0.4990333021

> <CNNaffinity>
6.0818133354

> <CNN_VS>
3.0350275040

> <CNNaffinity_variance>
0.5338125229

$$$$
[H]c1c([H])c(-c2nc(-c3c([H])c(C([H])([H])[H])nc(C([H])([H])[H])c3[H])c3n2C([H])([H])[C@@]([H])(C([H])([H])[H])OC([H])([H])C3([H])[H])c([H])c(Cl)c1OC([H])(F)F


 30 33  0  0  0  0  0  0  0  0999 V2000
   19.7263   10.8874   55.9437 C   0  0  0  0  0  0  0  0  0  0  0  0
   20.5893   10.1132   55.0100 C   0  0  0  0  0  0  0  0  0  0  0  0
   21.0233    8.7657   55.6103 C   0  0  0  0  0  0  0  0  0  0  0  0
   22.1347    8.2525   54.8713 N   0  0  0  0  0  0  0  0  0  0  0  0
   23.3692    8.8506   54.8889 C   0  0  0  0  0  0  0  0  0  0  0  0
   23.7731   10.0808   55.6022 C   0  0  0  0  0  0  0  0  0  0  0  0
   22.6133   11.0240   55.6571 C   0  0  0  0  0  0  0  0  0  0  0  0
   21.7546   10.7955   54.6170 O   0  0  0  0  0  0  0  0  0  0  0  0
   24.1734    8.0805   54.1279 C   0  0  0  0  0  0  0  0  0  0  0  0
   23.4464    7.0677   53.6775 N   0  0  0  0  0  0  0  0  0  0  0  0
   22.1550    7.1689   54.1397 C   0  0  0  0  0  0  0  0  0  0  0  0
   25.5917    8.2269   53.8216 C   0  0  0  0  0  0  0  0  0  0  0  0
   25.9780    8.6220   52.5277 C   0  0  0  0  0  0  0  0  0  0  0  0
   27.2789    8.8157   52.1471 C   0  0  0  0  0  0  0  0  0  0  0  0
   27.6482    9.2374   50.7566 C   0  0  0  0  0  0  0  0  0  0  0  0
   28.2400    8.6121   53.0787 N   0  0  0  0  0  0  0  0  0  0  0  0
   27.9181    8.2343   54.3281 C   0  0  0  0  0  0  0  0  0  0  0  0
   28.9799    8.0149   55.3377 C   0  0  0  0  0  0  0  0  0  0  0  0
   26.5992    8.0358   54.7231 C   0  0  0  0  0  0  0  0  0  0  0  0
   21.1359    6.1700   53.8150 C   0  0  0  0  0  0  0  0  0  0  0  0
   19.8014    6.5914   53.8202 C   0  0  0  0  0  0  0  0  0  0  0  0
   18.7401    5.7371   53.5842 C   0  0  0  0  0  0  0  0  0  0  0  0
   18.9788    4.4071   53.3300 C   0  0  0  0  0  0  0  0  0  0  0  0
   20.2918    3.9747   53.3223 C   0  0  0  0  0  0  0  0  0  0  0  0
   20.6427    2.3054   53.0063 Cl  0  0  0  0  0  0  0  0  0  0  0  0
   21.3542    4.8464   53.5628 C   0  0  0  0  0  0  0  0  0  0  0  0
   17.9804    3.5129   53.0888 O   0  0  0  0  0  0  0  0  0  0  0  0
   16.6644    3.5030   53.4921 C   0  0  0  0  0  0  0  0  0  0  0  0
   16.0739    2.3034   53.1243 F   0  0  0  0  0  0  0  0  0  0  0  0
   16.5030    3.7282   54.8528 F   0  0  0  0  0  0  0  0  0  0  0  0
  1  2  1  0  0  0
  2  3  1  0  0  0
  3  4  1  0  0  0
  4  5  1  0  0  0
  5  6  1  0  0  0
  6  7  1  0  0  0
  7  8  1  0  0  0
  5  9  2  0  0  0
  9 10  1  0  0  0
 10 11  2  0  0  0
 11 20  1  0  0  0
 20 21  2  0  0  0
 21 22  1  0  0  0
 22 23  2  0  0  0
 23 27  1  0  0  0
 27 28  1  0  0  0
 28 29  1  0  0  0
 28 30  1  0  0  0
 23 24  1  0  0  0
 24 25  1  0  0  0
 24 26  2  0  0  0
  9 12  1  0  0  0
 12 13  2  0  0  0
 13 14  1  0  0  0
 14 15  1  0  0  0
 14 16  2  0  0  0
 16 17  1  0  0  0
 17 18  1  0  0  0
 17 19  2  0  0  0
  8  2  1  0  0  0
 26 20  1  0  0  0
 19 12  1  0  0  0
 11  4  1  0  0  0
M  END
> <minimizedAffinity>
35.81759

> <CNNscore>
0.4783408642

> <CNNaffinity>
6.4365549088

> <CNN_VS>
3.0788671970

> <CNNaffinity_variance>
0.8055881262

$$$$
[H]c1c([H])c(-c2nc(-c3c([H])c(C([H])([H])[H])nc(C([H])([H])[H])c3[H])c3n2C([H])([H])[C@@]([H])(C([H])([H])[H])OC([H])([H])C3([H])[H])c([H])c(Cl)c1OC([H])(F)F


 30 33  0  0  0  0  0  0  0  0999 V2000
   19.7214   10.8235   56.1497 C   0  0  0  0  0  0  0  0  0  0  0  0
   20.5543   10.1009   55.1496 C   0  0  0  0  0  0  0  0  0  0  0  0
   21.0301    8.7362   55.6747 C   0  0  0  0  0  0  0  0  0  0  0  0
   22.1159    8.2699   54.8696 N   0  0  0  0  0  0  0  0  0  0  0  0
   23.3424    8.8845   54.8613 C   0  0  0  0  0  0  0  0  0  0  0  0
   23.7603   10.0899   55.6081 C   0  0  0  0  0  0  0  0  0  0  0  0
   22.5920   11.0132   55.7501 C   0  0  0  0  0  0  0  0  0  0  0  0
   21.6934   10.8156   54.7377 O   0  0  0  0  0  0  0  0  0  0  0  0
   24.1238    8.1580   54.0362 C   0  0  0  0  0  0  0  0  0  0  0  0
   23.3914    7.1543   53.5741 N   0  0  0  0  0  0  0  0  0  0  0  0
   22.1194    7.2178   54.0931 C   0  0  0  0  0  0  0  0  0  0  0  0
   25.5261    8.3373   53.6779 C   0  0  0  0  0  0  0  0  0  0  0  0
   26.5150    8.1589   54.6625 C   0  0  0  0  0  0  0  0  0  0  0  0
   27.8581    8.2754   54.4229 C   0  0  0  0  0  0  0  0  0  0  0  0
   28.8804    8.0771   55.5015 C   0  0  0  0  0  0  0  0  0  0  0  0
   28.2442    8.5802   53.1615 N   0  0  0  0  0  0  0  0  0  0  0  0
   27.3346    8.7593   52.1880 C   0  0  0  0  0  0  0  0  0  0  0  0
   27.7709    9.0926   50.8119 C   0  0  0  0  0  0  0  0  0  0  0  0
   25.9685    8.6424   52.4227 C   0  0  0  0  0  0  0  0  0  0  0  0
   21.1003    6.2186   53.7693 C   0  0  0  0  0  0  0  0  0  0  0  0
   19.7695    6.6499   53.7317 C   0  0  0  0  0  0  0  0  0  0  0  0
   18.7072    5.7979   53.4919 C   0  0  0  0  0  0  0  0  0  0  0  0
   18.9412    4.4601   53.2771 C   0  0  0  0  0  0  0  0  0  0  0  0
   20.2505    4.0179   53.3119 C   0  0  0  0  0  0  0  0  0  0  0  0
   20.5954    2.3385   53.0466 Cl  0  0  0  0  0  0  0  0  0  0  0  0
   21.3139    4.8875   53.5558 C   0  0  0  0  0  0  0  0  0  0  0  0
   17.9417    3.5676   53.0345 O   0  0  0  0  0  0  0  0  0  0  0  0
   16.6504    3.5121   53.5078 C   0  0  0  0  0  0  0  0  0  0  0  0
   16.1131    2.2602   53.2486 F   0  0  0  0  0  0  0  0  0  0  0  0
   16.5444    3.8174   54.8583 F   0  0  0  0  0  0  0  0  0  0  0  0
  1  2  1  0  0  0
  2  3  1  0  0  0
  3  4  1  0  0  0
  4  5  1  0  0  0
  5  6  1  0  0  0
  6  7  1  0  0  0
  7  8  1  0  0  0
  5  9  2  0  0  0
  9 10  1  0  0  0
 10 11  2  0  0  0
 11 20  1  0  0  0
 20 21  2  0  0  0
 21 22  1  0  0  0
 22 23  2  0  0  0
 23 27  1  0  0  0
 27 28  1  0  0  0
 28 29  1  0  0  0
 28 30  1  0  0  0
 23 24  1  0  0  0
 24 25  1  0  0  0
 24 26  2  0  0  0
  9 12  1  0  0  0
 12 13  2  0  0  0
 13 14  1  0  0  0
 14 15  1  0  0  0
 14 16  2  0  0  0
 16 17  1  0  0  0
 17 18  1  0  0  0
 17 19  2  0  0  0
  8  2  1  0  0  0
 26 20  1  0  0  0
 19 12  1  0  0  0
 11  4  1  0  0  0
M  END
> <minimizedAffinity>
36.47161

> <CNNscore>
0.4715363979

> <CNNaffinity>
6.4168953896

> <CNN_VS>
3.0257997513

> <CNNaffinity_variance>
0.8032734990

$$$$
[H]c1c([H])c(-c2nc(-c3c([H])c(C([H])([H])[H])nc(C([H])([H])[H])c3[H])c3n2C([H])([H])[C@@]([H])(C([H])([H])[H])OC([H])([H])C3([H])[H])c([H])c(Cl)c1OC([H])(F)F


 30 33  0  0  0  0  0  0  0  0999 V2000
   20.1052    5.5881   53.6760 C   0  0  0  0  0  0  0  0  0  0  0  0
   21.0056    6.6818   54.1334 C   0  0  0  0  0  0  0  0  0  0  0  0
   21.7348    7.3563   52.9597 C   0  0  0  0  0  0  0  0  0  0  0  0
   22.8481    8.1026   53.4581 N   0  0  0  0  0  0  0  0  0  0  0  0
   23.9472    7.5002   54.0158 C   0  0  0  0  0  0  0  0  0  0  0  0
   24.1818    6.0564   54.2300 C   0  0  0  0  0  0  0  0  0  0  0  0
   22.8780    5.3807   54.5153 C   0  0  0  0  0  0  0  0  0  0  0  0
   21.9831    6.2640   55.0541 O   0  0  0  0  0  0  0  0  0  0  0  0
   24.8053    8.4930   54.3272 C   0  0  0  0  0  0  0  0  0  0  0  0
   24.2390    9.6368   53.9692 N   0  0  0  0  0  0  0  0  0  0  0  0
   22.9999    9.4008   53.4211 C   0  0  0  0  0  0  0  0  0  0  0  0
   26.1374    8.4266   54.9171 C   0  0  0  0  0  0  0  0  0  0  0  0
   27.1794    7.8174   54.1944 C   0  0  0  0  0  0  0  0  0  0  0  0
   28.4692    7.7294   54.6455 C   0  0  0  0  0  0  0  0  0  0  0  0
   29.5511    7.0711   53.8431 C   0  0  0  0  0  0  0  0  0  0  0  0
   28.7452    8.2633   55.8586 N   0  0  0  0  0  0  0  0  0  0  0  0
   27.7815    8.8560   56.5849 C   0  0  0  0  0  0  0  0  0  0  0  0
   28.0974    9.4361   57.9109 C   0  0  0  0  0  0  0  0  0  0  0  0
   26.4690    8.9500   56.1339 C   0  0  0  0  0  0  0  0  0  0  0  0
   22.1569   10.4858   52.9169 C   0  0  0  0  0  0  0  0  0  0  0  0
   22.0045   10.5866   51.5295 C   0  0  0  0  0  0  0  0  0  0  0  0
   21.2804   11.5959   50.9219 C   0  0  0  0  0  0  0  0  0  0  0  0
   20.6718   12.5578   51.6932 C   0  0  0  0  0  0  0  0  0  0  0  0
   20.8137   12.4728   53.0657 C   0  0  0  0  0  0  0  0  0  0  0  0
   20.0639   13.6636   54.0803 Cl  0  0  0  0  0  0  0  0  0  0  0  0
   21.5477   11.4499   53.6669 C   0  0  0  0  0  0  0  0  0  0  0  0
   19.9440   13.5775   51.1595 O   0  0  0  0  0  0  0  0  0  0  0  0
   20.3418   14.7162   50.4965 C   0  0  0  0  0  0  0  0  0  0  0  0
   21.7248   14.8124   50.5254 F   0  0  0  0  0  0  0  0  0  0  0  0
   19.8761   14.7847   49.1900 F   0  0  0  0  0  0  0  0  0  0  0  0
  1  2  1  0  0  0
  2  3  1  0  0  0
  3  4  1  0  0  0
  4  5  1  0  0  0
  5  6  1  0  0  0
  6  7  1  0  0  0
  7  8  1  0  0  0
  5  9  2  0  0  0
  9 10  1  0  0  0
 10 11  2  0  0  0
 11 20  1  0  0  0
 20 21  2  0  0  0
 21 22  1  0  0  0
 22 23  2  0  0  0
 23 27  1  0  0  0
 27 28  1  0  0  0
 28 29  1  0  0  0
 28 30  1  0  0  0
 23 24  1  0  0  0
 24 25  1  0  0  0
 24 26  2  0  0  0
  9 12  1  0  0  0
 12 13  2  0  0  0
 13 14  1  0  0  0
 14 15  1  0  0  0
 14 16  2  0  0  0
 16 17  1  0  0  0
 17 18  1  0  0  0
 17 19  2  0  0  0
  8  2  1  0  0  0
 26 20  1  0  0  0
 19 12  1  0  0  0
 11  4  1  0  0  0
M  END
> <minimizedAffinity>
35.54268

> <CNNscore>
0.4714424908

> <CNNaffinity>
5.8891477585

> <CNN_VS>
2.7763946056

> <CNNaffinity_variance>
0.2964811325

$$$$
[H]c1c([H])c(-c2nc(-c3c([H])c(C([H])([H])[H])nc(C([H])([H])[H])c3[H])c3n2C([H])([H])[C@@]([H])(C([H])([H])[H])OC([H])([H])C3([H])[H])c([H])c(Cl)c1OC([H])(F)F


 30 33  0  0  0  0  0  0  0  0999 V2000
   20.1170   11.7762   54.3064 C   0  0  0  0  0  0  0  0  0  0  0  0
   21.1040   10.7316   53.9180 C   0  0  0  0  0  0  0  0  0  0  0  0
   21.1455    9.5741   54.9294 C   0  0  0  0  0  0  0  0  0  0  0  0
   22.3448    8.8192   54.7381 N   0  0  0  0  0  0  0  0  0  0  0  0
   23.5876    9.3299   55.0149 C   0  0  0  0  0  0  0  0  0  0  0  0
   23.9258   10.6824   55.5066 C   0  0  0  0  0  0  0  0  0  0  0  0
   22.9463   11.6686   54.9539 C   0  0  0  0  0  0  0  0  0  0  0  0
   22.4166   11.2163   53.7765 O   0  0  0  0  0  0  0  0  0  0  0  0
   24.4678    8.3392   54.7643 C   0  0  0  0  0  0  0  0  0  0  0  0
   23.7762    7.2847   54.3559 N   0  0  0  0  0  0  0  0  0  0  0  0
   22.4329    7.5790   54.3332 C   0  0  0  0  0  0  0  0  0  0  0  0
   25.9186    8.3180   54.9121 C   0  0  0  0  0  0  0  0  0  0  0  0
   26.5102    9.0105   55.9844 C   0  0  0  0  0  0  0  0  0  0  0  0
   27.8575    9.0294   56.2281 C   0  0  0  0  0  0  0  0  0  0  0  0
   28.4480    9.7807   57.3833 C   0  0  0  0  0  0  0  0  0  0  0  0
   28.6560    8.3379   55.3813 N   0  0  0  0  0  0  0  0  0  0  0  0
   28.1352    7.6609   54.3431 C   0  0  0  0  0  0  0  0  0  0  0  0
   29.0205    6.9083   53.4240 C   0  0  0  0  0  0  0  0  0  0  0  0
   26.7679    7.6361   54.0886 C   0  0  0  0  0  0  0  0  0  0  0  0
   21.4297    6.5881   53.9411 C   0  0  0  0  0  0  0  0  0  0  0  0
   20.1049    7.0259   53.8336 C   0  0  0  0  0  0  0  0  0  0  0  0
   19.0545    6.1815   53.5246 C   0  0  0  0  0  0  0  0  0  0  0  0
   19.2949    4.8451   53.3082 C   0  0  0  0  0  0  0  0  0  0  0  0
   20.5984    4.3966   53.4117 C   0  0  0  0  0  0  0  0  0  0  0  0
   20.9510    2.7186   53.1472 Cl  0  0  0  0  0  0  0  0  0  0  0  0
   21.6498    5.2585   53.7250 C   0  0  0  0  0  0  0  0  0  0  0  0
   18.3071    3.9599   52.9996 O   0  0  0  0  0  0  0  0  0  0  0  0
   17.3164    3.4089   53.7803 C   0  0  0  0  0  0  0  0  0  0  0  0
   16.7010    4.4051   54.5231 F   0  0  0  0  0  0  0  0  0  0  0  0
   16.3754    2.6924   53.0526 F   0  0  0  0  0  0  0  0  0  0  0  0
  1  2  1  0  0  0
  2  3  1  0  0  0
  3  4  1  0  0  0
  4  5  1  0  0  0
  5  6  1  0  0  0
  6  7  1  0  0  0
  7  8  1  0  0  0
  5  9  2  0  0  0
  9 10  1  0  0  0
 10 11  2  0  0  0
 11 20  1  0  0  0
 20 21  2  0  0  0
 21 22  1  0  0  0
 22 23  2  0  0  0
 23 27  1  0  0  0
 27 28  1  0  0  0
 28 29  1  0  0  0
 28 30  1  0  0  0
 23 24  1  0  0  0
 24 25  1  0  0  0
 24 26  2  0  0  0
  9 12  1  0  0  0
 12 13  2  0  0  0
 13 14  1  0  0  0
 14 15  1  0  0  0
 14 16  2  0  0  0
 16 17  1  0  0  0
 17 18  1  0  0  0
 17 19  2  0  0  0
  8  2  1  0  0  0
 26 20  1  0  0  0
 19 12  1  0  0  0
 11  4  1  0  0  0
M  END
> <minimizedAffinity>
35.95546

> <CNNscore>
0.4712338150

> <CNNaffinity>
6.3533868790

> <CNN_VS>
2.9939308167

> <CNNaffinity_variance>
0.6135567427

$$$$
[H]c1c([H])c(-c2nc(-c3c([H])c(C([H])([H])[H])nc(C([H])([H])[H])c3[H])c3n2C([H])([H])[C@@]([H])(C([H])([H])[H])OC([H])([H])C3([H])[H])c([H])c(C([H])([H])[H])c1F


 27 30  0  0  0  0  0  0  0  0999 V2000
   22.0111   11.9655   53.0927 C   0  0  0  0  0  0  0  0  0  0  0  0
   21.7127   10.5015   53.1319 C   0  0  0  0  0  0  0  0  0  0  0  0
   22.7832    9.6729   52.4403 C   0  0  0  0  0  0  0  0  0  0  0  0
   22.7118    8.3301   52.9741 N   0  0  0  0  0  0  0  0  0  0  0  0
   21.6067    7.5010   52.7832 C   0  0  0  0  0  0  0  0  0  0  0  0
   20.3710    7.9511   52.0873 C   0  0  0  0  0  0  0  0  0  0  0  0
   19.8569    9.1199   52.9285 C   0  0  0  0  0  0  0  0  0  0  0  0
   20.4764   10.2699   52.5170 O   0  0  0  0  0  0  0  0  0  0  0  0
   21.9024    6.2994   53.3521 C   0  0  0  0  0  0  0  0  0  0  0  0
   23.1297    6.4077   53.8617 N   0  0  0  0  0  0  0  0  0  0  0  0
   23.6444    7.6748   53.6338 C   0  0  0  0  0  0  0  0  0  0  0  0
   24.9819    8.0656   54.0581 C   0  0  0  0  0  0  0  0  0  0  0  0
   26.0553    7.8911   53.1634 C   0  0  0  0  0  0  0  0  0  0  0  0
   27.3569    8.1634   53.4857 C   0  0  0  0  0  0  0  0  0  0  0  0
   27.6708    8.6332   54.7393 C   0  0  0  0  0  0  0  0  0  0  0  0
   28.9510    8.9196   55.1076 F   0  0  0  0  0  0  0  0  0  0  0  0
   26.6594    8.8192   55.6487 C   0  0  0  0  0  0  0  0  0  0  0  0
   26.9764    9.3267   57.0131 C   0  0  0  0  0  0  0  0  0  0  0  0
   25.3397    8.5297   55.2856 C   0  0  0  0  0  0  0  0  0  0  0  0
   21.0085    5.1446   53.3613 C   0  0  0  0  0  0  0  0  0  0  0  0
   19.7008    5.3302   53.7801 C   0  0  0  0  0  0  0  0  0  0  0  0
   18.7970    4.3160   53.8062 C   0  0  0  0  0  0  0  0  0  0  0  0
   17.4050    4.5758   54.2663 C   0  0  0  0  0  0  0  0  0  0  0  0
   19.1948    3.0973   53.4112 N   0  0  0  0  0  0  0  0  0  0  0  0
   20.4333    2.8446   52.9967 C   0  0  0  0  0  0  0  0  0  0  0  0
   20.8868    1.5004   52.5567 C   0  0  0  0  0  0  0  0  0  0  0  0
   21.3575    3.8752   52.9683 C   0  0  0  0  0  0  0  0  0  0  0  0
  1  2  1  0  0  0
  2  3  1  0  0  0
  3  4  1  0  0  0
  4  5  1  0  0  0
  5  6  1  0  0  0
  6  7  1  0  0  0
  7  8  1  0  0  0
  5  9  2  0  0  0
  9 10  1  0  0  0
 10 11  2  0  0  0
 11 12  1  0  0  0
 12 13  2  0  0  0
 13 14  1  0  0  0
 14 15  2  0  0  0
 15 16  1  0  0  0
 15 17  1  0  0  0
 17 18  1  0  0  0
 17 19  2  0  0  0
  9 20  1  0  0  0
 20 21  2  0  0  0
 21 22  1  0  0  0
 22 23  1  0  0  0
 22 24  2  0  0  0
 24 25  1  0  0  0
 25 26  1  0  0  0
 25 27  2  0  0  0
  8  2  1  0  0  0
 19 12  1  0  0  0
 27 20  1  0  0  0
 11  4  1  0  0  0
M  END
> <minimizedAffinity>
31.42109

> <CNNscore>
0.5321960449

> <CNNaffinity>
6.4567155838

> <CNN_VS>
3.4362385273

> <CNNaffinity_variance>
0.5728781223

$$$$
[H]c1c([H])c(-c2nc(-c3c([H])c(C([H])([H])[H])nc(C([H])([H])[H])c3[H])c3n2C([H])([H])[C@@]([H])(C([H])([H])[H])OC([H])([H])C3([H])[H])c([H])c(C([H])([H])[H])c1F


 27 30  0  0  0  0  0  0  0  0999 V2000
   21.9569   11.7130   51.9616 C   0  0  0  0  0  0  0  0  0  0  0  0
   21.5521   10.3014   52.2398 C   0  0  0  0  0  0  0  0  0  0  0  0
   22.7001    9.3221   52.0559 C   0  0  0  0  0  0  0  0  0  0  0  0
   22.3968    8.1396   52.8322 N   0  0  0  0  0  0  0  0  0  0  0  0
   21.3195    7.3030   52.5415 C   0  0  0  0  0  0  0  0  0  0  0  0
   20.3387    7.5963   51.4617 C   0  0  0  0  0  0  0  0  0  0  0  0
   19.7138    8.9340   51.8592 C   0  0  0  0  0  0  0  0  0  0  0  0
   20.5002    9.9501   51.3852 O   0  0  0  0  0  0  0  0  0  0  0  0
   21.3713    6.2612   53.4173 C   0  0  0  0  0  0  0  0  0  0  0  0
   22.4324    6.4684   54.1975 N   0  0  0  0  0  0  0  0  0  0  0  0
   23.0796    7.6422   53.8426 C   0  0  0  0  0  0  0  0  0  0  0  0
   24.2893    8.1032   54.5102 C   0  0  0  0  0  0  0  0  0  0  0  0
   24.1668    8.9715   55.6121 C   0  0  0  0  0  0  0  0  0  0  0  0
   25.2389    9.5138   56.2670 C   0  0  0  0  0  0  0  0  0  0  0  0
   26.5171    9.2182   55.8554 C   0  0  0  0  0  0  0  0  0  0  0  0
   27.6164    9.7323   56.4752 F   0  0  0  0  0  0  0  0  0  0  0  0
   26.6896    8.3771   54.7843 C   0  0  0  0  0  0  0  0  0  0  0  0
   28.0656    8.0435   54.3207 C   0  0  0  0  0  0  0  0  0  0  0  0
   25.5709    7.8411   54.1375 C   0  0  0  0  0  0  0  0  0  0  0  0
   20.4227    5.1512   53.4417 C   0  0  0  0  0  0  0  0  0  0  0  0
   20.8588    3.9058   53.0188 C   0  0  0  0  0  0  0  0  0  0  0  0
   20.0493    2.8146   53.0222 C   0  0  0  0  0  0  0  0  0  0  0  0
   20.5739    1.5015   52.5559 C   0  0  0  0  0  0  0  0  0  0  0  0
   18.7867    2.9588   53.4516 N   0  0  0  0  0  0  0  0  0  0  0  0
   18.2989    4.1227   53.8723 C   0  0  0  0  0  0  0  0  0  0  0  0
   16.9034    4.2963   54.3502 C   0  0  0  0  0  0  0  0  0  0  0  0
   19.1204    5.2374   53.8707 C   0  0  0  0  0  0  0  0  0  0  0  0
  1  2  1  0  0  0
  2  3  1  0  0  0
  3  4  1  0  0  0
  4  5  1  0  0  0
  5  6  1  0  0  0
  6  7  1  0  0  0
  7  8  1  0  0  0
  5  9  2  0  0  0
  9 10  1  0  0  0
 10 11  2  0  0  0
 11 12  1  0  0  0
 12 13  2  0  0  0
 13 14  1  0  0  0
 14 15  2  0  0  0
 15 16  1  0  0  0
 15 17  1  0  0  0
 17 18  1  0  0  0
 17 19  2  0  0  0
  9 20  1  0  0  0
 20 21  2  0  0  0
 21 22  1  0  0  0
 22 23  1  0  0  0
 22 24  2  0  0  0
 24 25  1  0  0  0
 25 26  1  0  0  0
 25 27  2  0  0  0
  8  2  1  0  0  0
 19 12  1  0  0  0
 27 20  1  0  0  0
 11  4  1  0  0  0
M  END
> <minimizedAffinity>
26.50141

> <CNNscore>
0.5224993825

> <CNNaffinity>
6.5144834518

> <CNN_VS>
3.4038136005

> <CNNaffinity_variance>
0.5155700445

$$$$
[H]c1c([H])c(-c2nc(-c3c([H])c(C([H])([H])[H])nc(C([H])([H])[H])c3[H])c3n2C([H])([H])[C@@]([H])(C([H])([H])[H])OC([H])([H])C3([H])[H])c([H])c(C([H])([H])[H])c1F


 27 30  0  0  0  0  0  0  0  0999 V2000
   21.9510   11.7566   52.0695 C   0  0  0  0  0  0  0  0  0  0  0  0
   21.5762   10.3309   52.3164 C   0  0  0  0  0  0  0  0  0  0  0  0
   22.7432    9.3799   52.1053 C   0  0  0  0  0  0  0  0  0  0  0  0
   22.4674    8.1737   52.8550 N   0  0  0  0  0  0  0  0  0  0  0  0
   21.4061    7.3222   52.5490 C   0  0  0  0  0  0  0  0  0  0  0  0
   20.4149    7.6203   51.4802 C   0  0  0  0  0  0  0  0  0  0  0  0
   19.7646    8.9354   51.9111 C   0  0  0  0  0  0  0  0  0  0  0  0
   20.5281    9.9781   51.4579 O   0  0  0  0  0  0  0  0  0  0  0  0
   21.4830    6.2617   53.4002 C   0  0  0  0  0  0  0  0  0  0  0  0
   22.5430    6.4724   54.1809 N   0  0  0  0  0  0  0  0  0  0  0  0
   23.1646    7.6671   53.8509 C   0  0  0  0  0  0  0  0  0  0  0  0
   24.3675    8.1372   54.5244 C   0  0  0  0  0  0  0  0  0  0  0  0
   24.2333    9.0080   55.6229 C   0  0  0  0  0  0  0  0  0  0  0  0
   25.2982    9.5586   56.2825 C   0  0  0  0  0  0  0  0  0  0  0  0
   26.5807    9.2693   55.8796 C   0  0  0  0  0  0  0  0  0  0  0  0
   27.6731    9.7916   56.5044 F   0  0  0  0  0  0  0  0  0  0  0  0
   26.7645    8.4259   54.8121 C   0  0  0  0  0  0  0  0  0  0  0  0
   28.1452    8.0990   54.3578 C   0  0  0  0  0  0  0  0  0  0  0  0
   25.6528    7.8814   54.1602 C   0  0  0  0  0  0  0  0  0  0  0  0
   20.5573    5.1322   53.4024 C   0  0  0  0  0  0  0  0  0  0  0  0
   19.2576    5.3497   53.8304 C   0  0  0  0  0  0  0  0  0  0  0  0
   18.3261    4.3608   53.8512 C   0  0  0  0  0  0  0  0  0  0  0  0
   16.9443    4.6543   54.3218 C   0  0  0  0  0  0  0  0  0  0  0  0
   18.6876    3.1358   53.4413 N   0  0  0  0  0  0  0  0  0  0  0  0
   19.9163    2.8531   53.0171 C   0  0  0  0  0  0  0  0  0  0  0  0
   20.3298    1.5016   52.5607 C   0  0  0  0  0  0  0  0  0  0  0  0
   20.8687    3.8579   52.9942 C   0  0  0  0  0  0  0  0  0  0  0  0
  1  2  1  0  0  0
  2  3  1  0  0  0
  3  4  1  0  0  0
  4  5  1  0  0  0
  5  6  1  0  0  0
  6  7  1  0  0  0
  7  8  1  0  0  0
  5  9  2  0  0  0
  9 10  1  0  0  0
 10 11  2  0  0  0
 11 12  1  0  0  0
 12 13  2  0  0  0
 13 14  1  0  0  0
 14 15  2  0  0  0
 15 16  1  0  0  0
 15 17  1  0  0  0
 17 18  1  0  0  0
 17 19  2  0  0  0
  9 20  1  0  0  0
 20 21  2  0  0  0
 21 22  1  0  0  0
 22 23  1  0  0  0
 22 24  2  0  0  0
 24 25  1  0  0  0
 25 26  1  0  0  0
 25 27  2  0  0  0
  8  2  1  0  0  0
 19 12  1  0  0  0
 27 20  1  0  0  0
 11  4  1  0  0  0
M  END
> <minimizedAffinity>
27.24113

> <CNNscore>
0.5085336566

> <CNNaffinity>
6.4833879471

> <CNN_VS>
3.2970209122

> <CNNaffinity_variance>
0.5249041319

$$$$
[H]c1c([H])c(-c2nc(-c3c([H])c(C([H])([H])[H])nc(C([H])([H])[H])c3[H])c3n2C([H])([H])[C@@]([H])(C([H])([H])[H])OC([H])([H])C3([H])[H])c([H])c(C([H])([H])[H])c1F


 27 30  0  0  0  0  0  0  0  0999 V2000
   25.9608    8.6133   54.1203 C   0  0  0  0  0  0  0  0  0  0  0  0
   24.7131    7.7980   54.0090 C   0  0  0  0  0  0  0  0  0  0  0  0
   23.4978    8.5186   54.5697 C   0  0  0  0  0  0  0  0  0  0  0  0
   22.3224    7.9379   53.9579 N   0  0  0  0  0  0  0  0  0  0  0  0
   21.9366    6.6149   54.1725 C   0  0  0  0  0  0  0  0  0  0  0  0
   22.7428    5.6604   54.9805 C   0  0  0  0  0  0  0  0  0  0  0  0
   24.0852    5.5754   54.2535 C   0  0  0  0  0  0  0  0  0  0  0  0
   24.8936    6.5898   54.6930 O   0  0  0  0  0  0  0  0  0  0  0  0
   20.7623    6.4256   53.5089 C   0  0  0  0  0  0  0  0  0  0  0  0
   20.4618    7.5848   52.9226 N   0  0  0  0  0  0  0  0  0  0  0  0
   21.4324    8.5370   53.1941 C   0  0  0  0  0  0  0  0  0  0  0  0
   21.3470    9.9056   52.7029 C   0  0  0  0  0  0  0  0  0  0  0  0
   21.6056   10.1548   51.3412 C   0  0  0  0  0  0  0  0  0  0  0  0
   21.6169   11.4086   50.7934 C   0  0  0  0  0  0  0  0  0  0  0  0
   21.3674   12.5061   51.5833 C   0  0  0  0  0  0  0  0  0  0  0  0
   21.3666   13.7742   51.0847 F   0  0  0  0  0  0  0  0  0  0  0  0
   21.1108   12.3159   52.9184 C   0  0  0  0  0  0  0  0  0  0  0  0
   20.8384   13.4906   53.7933 C   0  0  0  0  0  0  0  0  0  0  0  0
   21.1079   11.0199   53.4453 C   0  0  0  0  0  0  0  0  0  0  0  0
   20.0147    5.1713   53.4888 C   0  0  0  0  0  0  0  0  0  0  0  0
   18.6934    5.1881   53.9056 C   0  0  0  0  0  0  0  0  0  0  0  0
   17.9190    4.0717   53.9055 C   0  0  0  0  0  0  0  0  0  0  0  0
   16.5048    4.1510   54.3649 C   0  0  0  0  0  0  0  0  0  0  0  0
   18.4620    2.9192   53.4858 N   0  0  0  0  0  0  0  0  0  0  0  0
   19.7227    2.8273   53.0715 C   0  0  0  0  0  0  0  0  0  0  0  0
   20.3363    1.5580   52.6043 C   0  0  0  0  0  0  0  0  0  0  0  0
   20.5155    3.9626   53.0697 C   0  0  0  0  0  0  0  0  0  0  0  0
  1  2  1  0  0  0
  2  3  1  0  0  0
  3  4  1  0  0  0
  4  5  1  0  0  0
  5  6  1  0  0  0
  6  7  1  0  0  0
  7  8  1  0  0  0
  5  9  2  0  0  0
  9 10  1  0  0  0
 10 11  2  0  0  0
 11 12  1  0  0  0
 12 13  2  0  0  0
 13 14  1  0  0  0
 14 15  2  0  0  0
 15 16  1  0  0  0
 15 17  1  0  0  0
 17 18  1  0  0  0
 17 19  2  0  0  0
  9 20  1  0  0  0
 20 21  2  0  0  0
 21 22  1  0  0  0
 22 23  1  0  0  0
 22 24  2  0  0  0
 24 25  1  0  0  0
 25 26  1  0  0  0
 25 27  2  0  0  0
  8  2  1  0  0  0
 19 12  1  0  0  0
 27 20  1  0  0  0
 11  4  1  0  0  0
M  END
> <minimizedAffinity>
30.07883

> <CNNscore>
0.4731819630

> <CNNaffinity>
6.3646707535

> <CNN_VS>
3.0116474628

> <CNNaffinity_variance>
0.4538050294

$$$$
[H]c1c([H])c(-c2nc(-c3c([H])c(C([H])([H])[H])nc(C([H])([H])[H])c3[H])c3n2C([H])([H])[C@@]([H])(C([H])([H])[H])OC([H])([H])C3([H])[H])c([H])c(C([H])([H])[H])c1F


 27 30  0  0  0  0  0  0  0  0999 V2000
   19.1636    8.9833   50.6267 C   0  0  0  0  0  0  0  0  0  0  0  0
   20.3964    8.8494   51.4610 C   0  0  0  0  0  0  0  0  0  0  0  0
   20.1052    8.2733   52.8373 C   0  0  0  0  0  0  0  0  0  0  0  0
   21.3319    7.6925   53.3383 N   0  0  0  0  0  0  0  0  0  0  0  0
   22.4619    8.4553   53.6321 C   0  0  0  0  0  0  0  0  0  0  0  0
   22.5354    9.9195   53.3781 C   0  0  0  0  0  0  0  0  0  0  0  0
   22.3354   10.0611   51.8688 C   0  0  0  0  0  0  0  0  0  0  0  0
   20.9931   10.1082   51.6009 O   0  0  0  0  0  0  0  0  0  0  0  0
   23.3978    7.6077   54.1428 C   0  0  0  0  0  0  0  0  0  0  0  0
   22.8504    6.3920   54.1515 N   0  0  0  0  0  0  0  0  0  0  0  0
   21.5593    6.4327   53.6475 C   0  0  0  0  0  0  0  0  0  0  0  0
   20.7122    5.2506   53.5653 C   0  0  0  0  0  0  0  0  0  0  0  0
   21.2281    4.0871   52.9626 C   0  0  0  0  0  0  0  0  0  0  0  0
   20.4953    2.9468   52.7759 C   0  0  0  0  0  0  0  0  0  0  0  0
   19.1835    2.8979   53.1852 C   0  0  0  0  0  0  0  0  0  0  0  0
   18.4132    1.7858   53.0223 F   0  0  0  0  0  0  0  0  0  0  0  0
   18.6334    4.0075   53.7775 C   0  0  0  0  0  0  0  0  0  0  0  0
   17.2137    3.9773   54.2282 C   0  0  0  0  0  0  0  0  0  0  0  0
   19.4115    5.1570   53.9520 C   0  0  0  0  0  0  0  0  0  0  0  0
   24.7277    8.0135   54.5893 C   0  0  0  0  0  0  0  0  0  0  0  0
   25.8273    7.5363   53.8943 C   0  0  0  0  0  0  0  0  0  0  0  0
   27.0997    7.8742   54.2303 C   0  0  0  0  0  0  0  0  0  0  0  0
   28.2424    7.3299   53.4460 C   0  0  0  0  0  0  0  0  0  0  0  0
   27.2866    8.6983   55.2720 N   0  0  0  0  0  0  0  0  0  0  0  0
   26.2796    9.1954   55.9851 C   0  0  0  0  0  0  0  0  0  0  0  0
   26.4724   10.1086   57.1405 C   0  0  0  0  0  0  0  0  0  0  0  0
   24.9813    8.8539   55.6462 C   0  0  0  0  0  0  0  0  0  0  0  0
  1  2  1  0  0  0
  2  3  1  0  0  0
  3  4  1  0  0  0
  4  5  1  0  0  0
  5  6  1  0  0  0
  6  7  1  0  0  0
  7  8  1  0  0  0
  5  9  2  0  0  0
  9 10  1  0  0  0
 10 11  2  0  0  0
 11 12  1  0  0  0
 12 13  2  0  0  0
 13 14  1  0  0  0
 14 15  2  0  0  0
 15 16  1  0  0  0
 15 17  1  0  0  0
 17 18  1  0  0  0
 17 19  2  0  0  0
  9 20  1  0  0  0
 20 21  2  0  0  0
 21 22  1  0  0  0
 22 23  1  0  0  0
 22 24  2  0  0  0
 24 25  1  0  0  0
 25 26  1  0  0  0
 25 27  2  0  0  0
  8  2  1  0  0  0
 19 12  1  0  0  0
 27 20  1  0  0  0
 11  4  1  0  0  0
M  END
> <minimizedAffinity>
34.88199

> <CNNscore>
0.4610313177

> <CNNaffinity>
6.1471085548

> <CNN_VS>
2.8340096474

> <CNNaffinity_variance>
0.5839805603

$$$$
[H]c1c([H])c(-c2nc(-c3c([H])c(C([H])([H])[H])nc(C([H])([H])[H])c3[H])c3n2C([H])([H])[C@@]([H])(C([H])([H])[H])OC([H])([H])C3([H])[H])c([H])c(C([H])([H])[H])c1F


 27 30  0  0  0  0  0  0  0  0999 V2000
   22.4833   11.7012   55.7869 C   0  0  0  0  0  0  0  0  0  0  0  0
   22.0282   10.3514   55.3342 C   0  0  0  0  0  0  0  0  0  0  0  0
   22.7967    9.8581   54.1189 C   0  0  0  0  0  0  0  0  0  0  0  0
   22.6921    8.4154   54.0897 N   0  0  0  0  0  0  0  0  0  0  0  0
   21.4815    7.7513   53.8934 C   0  0  0  0  0  0  0  0  0  0  0  0
   20.1798    8.4632   53.7807 C   0  0  0  0  0  0  0  0  0  0  0  0
   20.0243    9.1987   55.1122 C   0  0  0  0  0  0  0  0  0  0  0  0
   20.6629   10.4074   55.0294 O   0  0  0  0  0  0  0  0  0  0  0  0
   21.7562    6.4179   53.8525 C   0  0  0  0  0  0  0  0  0  0  0  0
   23.0730    6.2921   54.0189 N   0  0  0  0  0  0  0  0  0  0  0  0
   23.6683    7.5351   54.1714 C   0  0  0  0  0  0  0  0  0  0  0  0
   25.1053    7.7005   54.3427 C   0  0  0  0  0  0  0  0  0  0  0  0
   25.9635    6.6761   53.8986 C   0  0  0  0  0  0  0  0  0  0  0  0
   27.3206    6.7023   54.0710 C   0  0  0  0  0  0  0  0  0  0  0  0
   27.9122    7.7683   54.7069 C   0  0  0  0  0  0  0  0  0  0  0  0
   29.2589    7.8410   54.9018 F   0  0  0  0  0  0  0  0  0  0  0  0
   27.1182    8.7924   55.1598 C   0  0  0  0  0  0  0  0  0  0  0  0
   27.7375    9.9571   55.8522 C   0  0  0  0  0  0  0  0  0  0  0  0
   25.7337    8.7325   54.9672 C   0  0  0  0  0  0  0  0  0  0  0  0
   20.7572    5.3719   53.6508 C   0  0  0  0  0  0  0  0  0  0  0  0
   21.1935    4.1112   53.2764 C   0  0  0  0  0  0  0  0  0  0  0  0
   20.3359    3.0754   53.0820 C   0  0  0  0  0  0  0  0  0  0  0  0
   20.8634    1.7423   52.6800 C   0  0  0  0  0  0  0  0  0  0  0  0
   19.0242    3.2915   53.2614 N   0  0  0  0  0  0  0  0  0  0  0  0
   18.5330    4.4744   53.6205 C   0  0  0  0  0  0  0  0  0  0  0  0
   17.0834    4.7273   53.8224 C   0  0  0  0  0  0  0  0  0  0  0  0
   19.4033    5.5328   53.8198 C   0  0  0  0  0  0  0  0  0  0  0  0
  1  2  1  0  0  0
  2  3  1  0  0  0
  3  4  1  0  0  0
  4  5  1  0  0  0
  5  6  1  0  0  0
  6  7  1  0  0  0
  7  8  1  0  0  0
  5  9  2  0  0  0
  9 10  1  0  0  0
 10 11  2  0  0  0
 11 12  1  0  0  0
 12 13  2  0  0  0
 13 14  1  0  0  0
 14 15  2  0  0  0
 15 16  1  0  0  0
 15 17  1  0  0  0
 17 18  1  0  0  0
 17 19  2  0  0  0
  9 20  1  0  0  0
 20 21  2  0  0  0
 21 22  1  0  0  0
 22 23  1  0  0  0
 22 24  2  0  0  0
 24 25  1  0  0  0
 25 26  1  0  0  0
 25 27  2  0  0  0
  8  2  1  0  0  0
 19 12  1  0  0  0
 27 20  1  0  0  0
 11  4  1  0  0  0
M  END
> <minimizedAffinity>
39.05731

> <CNNscore>
0.4536330402

> <CNNaffinity>
6.1601247787

> <CNN_VS>
2.7944362164

> <CNNaffinity_variance>
0.8906098604

$$$$
[H]c1c([H])c(-c2nc(-c3c([H])c(C([H])([H])[H])nc(C([H])([H])[H])c3[H])c3n2C([H])([H])[C@@]([H])(C([H])([H])[H])OC([H])([H])C3([H])[H])c([H])c(C([H])([H])[H])c1F


 27 30  0  0  0  0  0  0  0  0999 V2000
   19.6394    5.9934   53.5333 C   0  0  0  0  0  0  0  0  0  0  0  0
   21.0134    6.4896   53.8494 C   0  0  0  0  0  0  0  0  0  0  0  0
   21.7282    7.0366   52.6244 C   0  0  0  0  0  0  0  0  0  0  0  0
   22.7557    7.9450   53.0852 N   0  0  0  0  0  0  0  0  0  0  0  0
   23.8536    7.5233   53.8348 C   0  0  0  0  0  0  0  0  0  0  0  0
   24.0229    6.1196   54.2983 C   0  0  0  0  0  0  0  0  0  0  0  0
   22.8050    5.8548   55.1840 C   0  0  0  0  0  0  0  0  0  0  0  0
   21.7638    5.4416   54.3960 O   0  0  0  0  0  0  0  0  0  0  0  0
   24.6468    8.6124   54.0341 C   0  0  0  0  0  0  0  0  0  0  0  0
   24.0473    9.6392   53.4311 N   0  0  0  0  0  0  0  0  0  0  0  0
   22.8618    9.2340   52.8369 C   0  0  0  0  0  0  0  0  0  0  0  0
   22.0116   10.1448   52.0825 C   0  0  0  0  0  0  0  0  0  0  0  0
   21.0854    9.6073   51.1680 C   0  0  0  0  0  0  0  0  0  0  0  0
   20.2882   10.3752   50.3637 C   0  0  0  0  0  0  0  0  0  0  0  0
   20.3684   11.7466   50.4241 C   0  0  0  0  0  0  0  0  0  0  0  0
   19.5955   12.5539   49.6447 F   0  0  0  0  0  0  0  0  0  0  0  0
   21.2574   12.3196   51.2992 C   0  0  0  0  0  0  0  0  0  0  0  0
   21.3617   13.8035   51.3811 C   0  0  0  0  0  0  0  0  0  0  0  0
   22.0578   11.5040   52.1063 C   0  0  0  0  0  0  0  0  0  0  0  0
   25.9091    8.5949   54.7683 C   0  0  0  0  0  0  0  0  0  0  0  0
   27.0123    8.0146   54.1632 C   0  0  0  0  0  0  0  0  0  0  0  0
   28.2289    7.9677   54.7663 C   0  0  0  0  0  0  0  0  0  0  0  0
   29.3785    7.3306   54.0666 C   0  0  0  0  0  0  0  0  0  0  0  0
   28.3555    8.5044   55.9890 N   0  0  0  0  0  0  0  0  0  0  0  0
   27.3413    9.0781   56.6309 C   0  0  0  0  0  0  0  0  0  0  0  0
   27.4676    9.6759   57.9846 C   0  0  0  0  0  0  0  0  0  0  0  0
   26.0997    9.1282   56.0200 C   0  0  0  0  0  0  0  0  0  0  0  0
  1  2  1  0  0  0
  2  3  1  0  0  0
  3  4  1  0  0  0
  4  5  1  0  0  0
  5  6  1  0  0  0
  6  7  1  0  0  0
  7  8  1  0  0  0
  5  9  2  0  0  0
  9 10  1  0  0  0
 10 11  2  0  0  0
 11 12  1  0  0  0
 12 13  2  0  0  0
 13 14  1  0  0  0
 14 15  2  0  0  0
 15 16  1  0  0  0
 15 17  1  0  0  0
 17 18  1  0  0  0
 17 19  2  0  0  0
  9 20  1  0  0  0
 20 21  2  0  0  0
 21 22  1  0  0  0
 22 23  1  0  0  0
 22 24  2  0  0  0
 24 25  1  0  0  0
 25 26  1  0  0  0
 25 27  2  0  0  0
  8  2  1  0  0  0
 19 12  1  0  0  0
 27 20  1  0  0  0
 11  4  1  0  0  0
M  END
> <minimizedAffinity>
32.54651

> <CNNscore>
0.4532082081

> <CNNaffinity>
5.9292554855

> <CNN_VS>
2.6871871948

> <CNNaffinity_variance>
0.3046705127

$$$$
[H]c1c([H])c(-c2nc(-c3c([H])c(C([H])([H])[H])nc(C([H])([H])[H])c3[H])c3n2C([H])([H])[C@@]([H])(C([H])([H])[H])OC([H])([H])C3([H])[H])c([H])c(C([H])([H])[H])c1F


 27 30  0  0  0  0  0  0  0  0999 V2000
   19.0705    8.9654   50.6637 C   0  0  0  0  0  0  0  0  0  0  0  0
   20.3303    8.8059   51.4520 C   0  0  0  0  0  0  0  0  0  0  0  0
   20.0795    8.2254   52.8344 C   0  0  0  0  0  0  0  0  0  0  0  0
   21.3137    7.6214   53.2871 N   0  0  0  0  0  0  0  0  0  0  0  0
   22.4660    8.3636   53.5444 C   0  0  0  0  0  0  0  0  0  0  0  0
   22.5545    9.8282   53.2967 C   0  0  0  0  0  0  0  0  0  0  0  0
   22.3025    9.9830   51.7966 C   0  0  0  0  0  0  0  0  0  0  0  0
   20.9524   10.0538   51.5778 O   0  0  0  0  0  0  0  0  0  0  0  0
   23.4056    7.4975   54.0157 C   0  0  0  0  0  0  0  0  0  0  0  0
   22.8388    6.2909   54.0369 N   0  0  0  0  0  0  0  0  0  0  0  0
   21.5312    6.3560   53.5802 C   0  0  0  0  0  0  0  0  0  0  0  0
   20.6622    5.1885   53.5216 C   0  0  0  0  0  0  0  0  0  0  0  0
   21.1497    4.0095   52.9254 C   0  0  0  0  0  0  0  0  0  0  0  0
   20.3944    2.8805   52.7604 C   0  0  0  0  0  0  0  0  0  0  0  0
   19.0873    2.8596   53.1865 C   0  0  0  0  0  0  0  0  0  0  0  0
   18.2953    1.7598   53.0455 F   0  0  0  0  0  0  0  0  0  0  0  0
   18.5645    3.9852   53.7734 C   0  0  0  0  0  0  0  0  0  0  0  0
   17.1503    3.9854   54.2420 C   0  0  0  0  0  0  0  0  0  0  0  0
   19.3650    5.1224   53.9255 C   0  0  0  0  0  0  0  0  0  0  0  0
   24.7572    7.8786   54.4162 C   0  0  0  0  0  0  0  0  0  0  0  0
   24.9035    8.7768   55.4611 C   0  0  0  0  0  0  0  0  0  0  0  0
   26.1227    9.1750   55.9095 C   0  0  0  0  0  0  0  0  0  0  0  0
   26.2175   10.1432   57.0367 C   0  0  0  0  0  0  0  0  0  0  0  0
   27.2155    8.6755   55.3133 N   0  0  0  0  0  0  0  0  0  0  0  0
   27.1524    7.8096   54.3054 C   0  0  0  0  0  0  0  0  0  0  0  0
   28.3541    7.2489   53.6365 C   0  0  0  0  0  0  0  0  0  0  0  0
   25.9120    7.4010   53.8453 C   0  0  0  0  0  0  0  0  0  0  0  0
  1  2  1  0  0  0
  2  3  1  0  0  0
  3  4  1  0  0  0
  4  5  1  0  0  0
  5  6  1  0  0  0
  6  7  1  0  0  0
  7  8  1  0  0  0
  5  9  2  0  0  0
  9 10  1  0  0  0
 10 11  2  0  0  0
 11 12  1  0  0  0
 12 13  2  0  0  0
 13 14  1  0  0  0
 14 15  2  0  0  0
 15 16  1  0  0  0
 15 17  1  0  0  0
 17 18  1  0  0  0
 17 19  2  0  0  0
  9 20  1  0  0  0
 20 21  2  0  0  0
 21 22  1  0  0  0
 22 23  1  0  0  0
 22 24  2  0  0  0
 24 25  1  0  0  0
 25 26  1  0  0  0
 25 27  2  0  0  0
  8  2  1  0  0  0
 19 12  1  0  0  0
 27 20  1  0  0  0
 11  4  1  0  0  0
M  END
> <minimizedAffinity>
35.12906

> <CNNscore>
0.4528480172

> <CNNaffinity>
6.0942945480

> <CNN_VS>
2.7597892284

> <CNNaffinity_variance>
0.5490527153

$$$$
[H]c1c([H])c(-c2nc(-c3c([H])c(C([H])([H])[H])nc(C([H])([H])[H])c3[H])c3n2C([H])([H])[C@@]([H])(C([H])([H])[H])OC([H])([H])C3([H])[H])c([H])c(C([H])([H])[H])c1F


 27 30  0  0  0  0  0  0  0  0999 V2000
   21.8613   11.7962   54.6592 C   0  0  0  0  0  0  0  0  0  0  0  0
   21.5762   10.3497   54.4135 C   0  0  0  0  0  0  0  0  0  0  0  0
   22.5971    9.7066   53.4888 C   0  0  0  0  0  0  0  0  0  0  0  0
   22.5749    8.2811   53.7343 N   0  0  0  0  0  0  0  0  0  0  0  0
   21.4640    7.4854   53.4550 C   0  0  0  0  0  0  0  0  0  0  0  0
   20.1765    8.0428   52.9594 C   0  0  0  0  0  0  0  0  0  0  0  0
   19.7195    8.9998   54.0608 C   0  0  0  0  0  0  0  0  0  0  0  0
   20.2987   10.2236   53.8547 O   0  0  0  0  0  0  0  0  0  0  0  0
   21.8095    6.1987   53.7378 C   0  0  0  0  0  0  0  0  0  0  0  0
   23.0709    6.2259   54.1687 N   0  0  0  0  0  0  0  0  0  0  0  0
   23.5587    7.5238   54.1737 C   0  0  0  0  0  0  0  0  0  0  0  0
   24.9218    7.8475   54.5725 C   0  0  0  0  0  0  0  0  0  0  0  0
   25.1223    8.7956   55.5942 C   0  0  0  0  0  0  0  0  0  0  0  0
   26.3596    9.2187   55.9973 C   0  0  0  0  0  0  0  0  0  0  0  0
   27.4884    8.7138   55.3960 C   0  0  0  0  0  0  0  0  0  0  0  0
   28.7418    9.1028   55.7625 F   0  0  0  0  0  0  0  0  0  0  0  0
   27.3458    7.7872   54.3932 C   0  0  0  0  0  0  0  0  0  0  0  0
   28.5550    7.2271   53.7271 C   0  0  0  0  0  0  0  0  0  0  0  0
   26.0654    7.3777   54.0056 C   0  0  0  0  0  0  0  0  0  0  0  0
   20.9264    5.0477   53.5703 C   0  0  0  0  0  0  0  0  0  0  0  0
   21.4711    3.8666   53.0926 C   0  0  0  0  0  0  0  0  0  0  0  0
   20.7272    2.7427   52.9204 C   0  0  0  0  0  0  0  0  0  0  0  0
   21.3680    1.5022   52.4032 C   0  0  0  0  0  0  0  0  0  0  0  0
   19.4220    2.7890   53.2264 N   0  0  0  0  0  0  0  0  0  0  0  0
   18.8307    3.8868   53.6897 C   0  0  0  0  0  0  0  0  0  0  0  0
   17.3870    3.9517   54.0323 C   0  0  0  0  0  0  0  0  0  0  0  0
   19.5850    5.0344   53.8668 C   0  0  0  0  0  0  0  0  0  0  0  0
  1  2  1  0  0  0
  2  3  1  0  0  0
  3  4  1  0  0  0
  4  5  1  0  0  0
  5  6  1  0  0  0
  6  7  1  0  0  0
  7  8  1  0  0  0
  5  9  2  0  0  0
  9 10  1  0  0  0
 10 11  2  0  0  0
 11 12  1  0  0  0
 12 13  2  0  0  0
 13 14  1  0  0  0
 14 15  2  0  0  0
 15 16  1  0  0  0
 15 17  1  0  0  0
 17 18  1  0  0  0
 17 19  2  0  0  0
  9 20  1  0  0  0
 20 21  2  0  0  0
 21 22  1  0  0  0
 22 23  1  0  0  0
 22 24  2  0  0  0
 24 25  1  0  0  0
 25 26  1  0  0  0
 25 27  2  0  0  0
  8  2  1  0  0  0
 19 12  1  0  0  0
 27 20  1  0  0  0
 11  4  1  0  0  0
M  END
> <minimizedAffinity>
36.88226

> <CNNscore>
0.4467686415

> <CNNaffinity>
6.2059030533

> <CNN_VS>
2.7726027966

> <CNNaffinity_variance>
0.7218160033

$$$$
[H]c1c([H])c(-c2nc(-c3c([H])c(C([H])([H])[H])nc(C([H])([H])[H])c3[H])c3n2C([H])([H])[C@@]([H])(C([H])([H])[H])OC([H])([H])C3([H])[H])c([H])c(C([H])([H])[H])c1Cl


 27 30  0  0  0  0  0  0  0  0999 V2000
   21.2541   11.6089   53.0913 C   0  0  0  0  0  0  0  0  0  0  0  0
   20.9061   10.1497   53.4797 C   0  0  0  0  0  0  0  0  0  0  0  0
   22.1374    9.6511   54.2015 C   0  0  0  0  0  0  0  0  0  0  0  0
   22.1763    8.2044   54.1592 N   0  0  0  0  0  0  0  0  0  0  0  0
   21.1044    7.3849   53.8819 C   0  0  0  0  0  0  0  0  0  0  0  0
   19.7076    7.8038   53.6572 C   0  0  0  0  0  0  0  0  0  0  0  0
   19.5779    8.6846   52.4307 C   0  0  0  0  0  0  0  0  0  0  0  0
   20.7558    9.4662   52.2962 O   0  0  0  0  0  0  0  0  0  0  0  0
   21.4821    6.0700   53.8635 C   0  0  0  0  0  0  0  0  0  0  0  0
   22.7956    6.0884   54.1354 N   0  0  0  0  0  0  0  0  0  0  0  0
   23.2104    7.3903   54.3156 C   0  0  0  0  0  0  0  0  0  0  0  0
   24.6118    7.7239   54.5891 C   0  0  0  0  0  0  0  0  0  0  0  0
   25.0141    8.5846   55.5625 C   0  0  0  0  0  0  0  0  0  0  0  0
   26.3821    8.8744   55.6816 C   0  0  0  0  0  0  0  0  0  0  0  0
   27.2812    8.3003   54.8375 C   0  0  0  0  0  0  0  0  0  0  0  0
   29.0077    8.6512   54.9697 Cl  0  0  0  0  0  0  0  0  0  0  0  0
   26.8764    7.4377   53.8650 C   0  0  0  0  0  0  0  0  0  0  0  0
   27.8894    6.8196   52.9502 C   0  0  0  0  0  0  0  0  0  0  0  0
   25.5561    7.1481   53.7367 C   0  0  0  0  0  0  0  0  0  0  0  0
   20.6924    4.8618   53.6215 C   0  0  0  0  0  0  0  0  0  0  0  0
   19.3440    4.8337   53.8359 C   0  0  0  0  0  0  0  0  0  0  0  0
   18.6078    3.6671   53.6049 C   0  0  0  0  0  0  0  0  0  0  0  0
   17.1516    3.7063   53.8577 C   0  0  0  0  0  0  0  0  0  0  0  0
   19.2626    2.5758   53.1666 N   0  0  0  0  0  0  0  0  0  0  0  0
   20.5741    2.5508   52.9421 C   0  0  0  0  0  0  0  0  0  0  0  0
   21.3076    1.3522   52.4581 C   0  0  0  0  0  0  0  0  0  0  0  0
   21.2943    3.6947   53.1690 C   0  0  0  0  0  0  0  0  0  0  0  0
  1  2  1  0  0  0
  2  3  1  0  0  0
  3  4  1  0  0  0
  4  5  1  0  0  0
  5  6  1  0  0  0
  6  7  1  0  0  0
  7  8  1  0  0  0
  5  9  2  0  0  0
  9 10  1  0  0  0
 10 11  2  0  0  0
 11 12  1  0  0  0
 12 13  2  0  0  0
 13 14  1  0  0  0
 14 15  2  0  0  0
 15 16  1  0  0  0
 15 17  1  0  0  0
 17 18  1  0  0  0
 17 19  2  0  0  0
  9 20  1  0  0  0
 20 21  2  0  0  0
 21 22  1  0  0  0
 22 23  1  0  0  0
 22 24  2  0  0  0
 24 25  1  0  0  0
 25 26  1  0  0  0
 25 27  2  0  0  0
  8  2  1  0  0  0
 19 12  1  0  0  0
 27 20  1  0  0  0
 11  4  1  0  0  0
M  END
> <minimizedAffinity>
37.40957

> <CNNscore>
0.4823997319

> <CNNaffinity>
6.3703889847

> <CNN_VS>
3.0730738640

> <CNNaffinity_variance>
0.7928401232

$$$$
[H]c1c([H])c(-c2nc(-c3c([H])c(C([H])([H])[H])nc(C([H])([H])[H])c3[H])c3n2C([H])([H])[C@@]([H])(C([H])([H])[H])OC([H])([H])C3([H])[H])c([H])c(C([H])([H])[H])c1Cl


 27 30  0  0  0  0  0  0  0  0999 V2000
   21.5784   11.4095   51.2442 C   0  0  0  0  0  0  0  0  0  0  0  0
   21.0245   10.1347   51.9292 C   0  0  0  0  0  0  0  0  0  0  0  0
   21.9639    9.8953   53.0894 C   0  0  0  0  0  0  0  0  0  0  0  0
   21.9013    8.5054   53.4902 N   0  0  0  0  0  0  0  0  0  0  0  0
   20.8890    7.6275   53.1707 C   0  0  0  0  0  0  0  0  0  0  0  0
   19.6466    7.9409   52.4390 C   0  0  0  0  0  0  0  0  0  0  0  0
   19.9319    8.4032   51.0242 C   0  0  0  0  0  0  0  0  0  0  0  0
   21.1573    9.1205   51.0104 O   0  0  0  0  0  0  0  0  0  0  0  0
   21.1542    6.3746   53.6520 C   0  0  0  0  0  0  0  0  0  0  0  0
   22.3374    6.4910   54.2733 N   0  0  0  0  0  0  0  0  0  0  0  0
   22.7849    7.7906   54.1718 C   0  0  0  0  0  0  0  0  0  0  0  0
   24.0762    8.2087   54.7267 C   0  0  0  0  0  0  0  0  0  0  0  0
   24.2133    9.0352   55.7982 C   0  0  0  0  0  0  0  0  0  0  0  0
   25.5048    9.4168   56.1932 C   0  0  0  0  0  0  0  0  0  0  0  0
   26.5924    8.9630   55.5136 C   0  0  0  0  0  0  0  0  0  0  0  0
   28.2270    9.4308   55.9938 Cl  0  0  0  0  0  0  0  0  0  0  0  0
   26.4528    8.1343   54.4424 C   0  0  0  0  0  0  0  0  0  0  0  0
   27.6689    7.6495   53.7137 C   0  0  0  0  0  0  0  0  0  0  0  0
   25.2097    7.7571   54.0477 C   0  0  0  0  0  0  0  0  0  0  0  0
   20.3723    5.1408   53.5613 C   0  0  0  0  0  0  0  0  0  0  0  0
   20.9255    3.9744   53.1156 C   0  0  0  0  0  0  0  0  0  0  0  0
   20.1599    2.8071   53.0300 C   0  0  0  0  0  0  0  0  0  0  0  0
   20.8219    1.5797   52.5388 C   0  0  0  0  0  0  0  0  0  0  0  0
   18.8664    2.8642   53.3980 N   0  0  0  0  0  0  0  0  0  0  0  0
   18.2797    3.9744   53.8389 C   0  0  0  0  0  0  0  0  0  0  0  0
   16.8529    4.0493   54.2481 C   0  0  0  0  0  0  0  0  0  0  0  0
   19.0312    5.1176   53.9222 C   0  0  0  0  0  0  0  0  0  0  0  0
  1  2  1  0  0  0
  2  3  1  0  0  0
  3  4  1  0  0  0
  4  5  1  0  0  0
  5  6  1  0  0  0
  6  7  1  0  0  0
  7  8  1  0  0  0
  5  9  2  0  0  0
  9 10  1  0  0  0
 10 11  2  0  0  0
 11 12  1  0  0  0
 12 13  2  0  0  0
 13 14  1  0  0  0
 14 15  2  0  0  0
 15 16  1  0  0  0
 15 17  1  0  0  0
 17 18  1  0  0  0
 17 19  2  0  0  0
  9 20  1  0  0  0
 20 21  2  0  0  0
 21 22  1  0  0  0
 22 23  1  0  0  0
 22 24  2  0  0  0
 24 25  1  0  0  0
 25 26  1  0  0  0
 25 27  2  0  0  0
  8  2  1  0  0  0
 19 12  1  0  0  0
 27 20  1  0  0  0
 11  4  1  0  0  0
M  END
> <minimizedAffinity>
25.74703

> <CNNscore>
0.4759047329

> <CNNaffinity>
6.5673131943

> <CNN_VS>
3.1254153252

> <CNNaffinity_variance>
0.5082916617

$$$$
[H]c1c([H])c(-c2nc(-c3c([H])c(C([H])([H])[H])nc(C([H])([H])[H])c3[H])c3n2C([H])([H])[C@@]([H])(C([H])([H])[H])OC([H])([H])C3([H])[H])c([H])c(C([H])([H])[H])c1Cl


 27 30  0  0  0  0  0  0  0  0999 V2000
   19.7922   10.6829   55.4741 C   0  0  0  0  0  0  0  0  0  0  0  0
   21.2574   10.3691   55.0796 C   0  0  0  0  0  0  0  0  0  0  0  0
   21.1690    9.0651   54.3197 C   0  0  0  0  0  0  0  0  0  0  0  0
   22.4530    8.3964   54.3455 N   0  0  0  0  0  0  0  0  0  0  0  0
   23.6581    8.9937   54.6427 C   0  0  0  0  0  0  0  0  0  0  0  0
   23.8917   10.4260   54.9094 C   0  0  0  0  0  0  0  0  0  0  0  0
   23.1536   10.8922   56.1482 C   0  0  0  0  0  0  0  0  0  0  0  0
   21.9353   10.1712   56.2594 O   0  0  0  0  0  0  0  0  0  0  0  0
   24.6754    8.0789   54.6369 C   0  0  0  0  0  0  0  0  0  0  0  0
   24.0851    6.9141   54.3299 N   0  0  0  0  0  0  0  0  0  0  0  0
   22.7332    7.1155   54.1526 C   0  0  0  0  0  0  0  0  0  0  0  0
   21.8211    6.0094   53.8451 C   0  0  0  0  0  0  0  0  0  0  0  0
   22.2294    4.7589   53.4992 C   0  0  0  0  0  0  0  0  0  0  0  0
   21.2588    3.8030   53.1618 C   0  0  0  0  0  0  0  0  0  0  0  0
   19.9382    4.1285   53.1846 C   0  0  0  0  0  0  0  0  0  0  0  0
   18.6999    2.9407   52.7636 Cl  0  0  0  0  0  0  0  0  0  0  0  0
   19.5317    5.3804   53.5329 C   0  0  0  0  0  0  0  0  0  0  0  0
   18.0701    5.7099   53.5501 C   0  0  0  0  0  0  0  0  0  0  0  0
   20.4589    6.3163   53.8610 C   0  0  0  0  0  0  0  0  0  0  0  0
   26.1068    8.2536   54.8870 C   0  0  0  0  0  0  0  0  0  0  0  0
   27.0487    7.6521   54.1021 C   0  0  0  0  0  0  0  0  0  0  0  0
   28.4121    7.8261   54.3614 C   0  0  0  0  0  0  0  0  0  0  0  0
   29.3779    7.1460   53.4723 C   0  0  0  0  0  0  0  0  0  0  0  0
   28.7696    8.6006   55.4027 N   0  0  0  0  0  0  0  0  0  0  0  0
   27.8921    9.2086   56.1972 C   0  0  0  0  0  0  0  0  0  0  0  0
   28.2751   10.0659   57.3493 C   0  0  0  0  0  0  0  0  0  0  0  0
   26.5565    9.0371   55.9420 C   0  0  0  0  0  0  0  0  0  0  0  0
  1  2  1  0  0  0
  2  3  1  0  0  0
  3  4  1  0  0  0
  4  5  1  0  0  0
  5  6  1  0  0  0
  6  7  1  0  0  0
  7  8  1  0  0  0
  5  9  2  0  0  0
  9 10  1  0  0  0
 10 11  2  0  0  0
 11 12  1  0  0  0
 12 13  2  0  0  0
 13 14  1  0  0  0
 14 15  2  0  0  0
 15 16  1  0  0  0
 15 17  1  0  0  0
 17 18  1  0  0  0
 17 19  2  0  0  0
  9 20  1  0  0  0
 20 21  2  0  0  0
 21 22  1  0  0  0
 22 23  1  0  0  0
 22 24  2  0  0  0
 24 25  1  0  0  0
 25 26  1  0  0  0
 25 27  2  0  0  0
  8  2  1  0  0  0
 19 12  1  0  0  0
 27 20  1  0  0  0
 11  4  1  0  0  0
M  END
> <minimizedAffinity>
37.86312

> <CNNscore>
0.4568549693

> <CNNaffinity>
6.0772066116

> <CNN_VS>
2.7764019966

> <CNNaffinity_variance>
0.3859772086

$$$$
[H]c1c([H])c(-c2nc(-c3c([H])c(C([H])([H])[H])nc(C([H])([H])[H])c3[H])c3n2C([H])([H])[C@@]([H])(C([H])([H])[H])OC([H])([H])C3([H])[H])c([H])c(C([H])([H])[H])c1Cl


 27 30  0  0  0  0  0  0  0  0999 V2000
   19.7136   10.7125   55.4726 C   0  0  0  0  0  0  0  0  0  0  0  0
   21.1862   10.4067   55.0996 C   0  0  0  0  0  0  0  0  0  0  0  0
   21.1155    9.1045   54.3347 C   0  0  0  0  0  0  0  0  0  0  0  0
   22.4021    8.4418   54.3781 N   0  0  0  0  0  0  0  0  0  0  0  0
   23.5998    9.0439   54.6954 C   0  0  0  0  0  0  0  0  0  0  0  0
   23.8224   10.4765   54.9697 C   0  0  0  0  0  0  0  0  0  0  0  0
   23.0633   10.9356   56.1984 C   0  0  0  0  0  0  0  0  0  0  0  0
   21.8470   10.2085   56.2890 O   0  0  0  0  0  0  0  0  0  0  0  0
   24.6214    8.1339   54.7025 C   0  0  0  0  0  0  0  0  0  0  0  0
   24.0413    6.9672   54.3832 N   0  0  0  0  0  0  0  0  0  0  0  0
   22.6914    7.1628   54.1859 C   0  0  0  0  0  0  0  0  0  0  0  0
   21.7892    6.0533   53.8614 C   0  0  0  0  0  0  0  0  0  0  0  0
   22.2089    4.8098   53.5041 C   0  0  0  0  0  0  0  0  0  0  0  0
   21.2474    3.8504   53.1510 C   0  0  0  0  0  0  0  0  0  0  0  0
   19.9242    4.1657   53.1701 C   0  0  0  0  0  0  0  0  0  0  0  0
   18.6972    2.9734   52.7294 Cl  0  0  0  0  0  0  0  0  0  0  0  0
   19.5064    5.4106   53.5298 C   0  0  0  0  0  0  0  0  0  0  0  0
   18.0423    5.7290   53.5426 C   0  0  0  0  0  0  0  0  0  0  0  0
   20.4247    6.3498   53.8731 C   0  0  0  0  0  0  0  0  0  0  0  0
   26.0479    8.3145   54.9749 C   0  0  0  0  0  0  0  0  0  0  0  0
   26.4855    9.0682   56.0264 C   0  0  0  0  0  0  0  0  0  0  0  0
   27.8533    9.2342   56.2664 C   0  0  0  0  0  0  0  0  0  0  0  0
   28.2576   10.0632   57.4220 C   0  0  0  0  0  0  0  0  0  0  0  0
   28.7245    8.6324   55.4352 N   0  0  0  0  0  0  0  0  0  0  0  0
   28.3502    7.8880   54.3975 C   0  0  0  0  0  0  0  0  0  0  0  0
   29.3027    7.2188   53.4734 C   0  0  0  0  0  0  0  0  0  0  0  0
   27.0095    7.7263   54.1635 C   0  0  0  0  0  0  0  0  0  0  0  0
  1  2  1  0  0  0
  2  3  1  0  0  0
  3  4  1  0  0  0
  4  5  1  0  0  0
  5  6  1  0  0  0
  6  7  1  0  0  0
  7  8  1  0  0  0
  5  9  2  0  0  0
  9 10  1  0  0  0
 10 11  2  0  0  0
 11 12  1  0  0  0
 12 13  2  0  0  0
 13 14  1  0  0  0
 14 15  2  0  0  0
 15 16  1  0  0  0
 15 17  1  0  0  0
 17 18  1  0  0  0
 17 19  2  0  0  0
  9 20  1  0  0  0
 20 21  2  0  0  0
 21 22  1  0  0  0
 22 23  1  0  0  0
 22 24  2  0  0  0
 24 25  1  0  0  0
 25 26  1  0  0  0
 25 27  2  0  0  0
  8  2  1  0  0  0
 19 12  1  0  0  0
 27 20  1  0  0  0
 11  4  1  0  0  0
M  END
> <minimizedAffinity>
38.26725

> <CNNscore>
0.4561443329

> <CNNaffinity>
6.0997042656

> <CNN_VS>
2.7823455334

> <CNNaffinity_variance>
0.3822744489

$$$$
[H]c1c([H])c(-c2nc(-c3c([H])c(C([H])([H])[H])nc(C([H])([H])[H])c3[H])c3n2C([H])([H])[C@@]([H])(C([H])([H])[H])OC([H])([H])C3([H])[H])c([H])c(C([H])([H])[H])c1Cl


 27 30  0  0  0  0  0  0  0  0999 V2000
   21.1410   11.0411   54.7016 C   0  0  0  0  0  0  0  0  0  0  0  0
   21.7216    9.6187   54.4996 C   0  0  0  0  0  0  0  0  0  0  0  0
   22.9054    9.5612   55.4383 C   0  0  0  0  0  0  0  0  0  0  0  0
   23.8300    8.5383   54.9966 N   0  0  0  0  0  0  0  0  0  0  0  0
   23.5295    7.5117   54.1287 C   0  0  0  0  0  0  0  0  0  0  0  0
   22.2081    7.2040   53.5487 C   0  0  0  0  0  0  0  0  0  0  0  0
   21.7072    8.3313   52.6684 C   0  0  0  0  0  0  0  0  0  0  0  0
   22.1612    9.5682   53.1979 O   0  0  0  0  0  0  0  0  0  0  0  0
   24.6346    6.7483   53.8680 C   0  0  0  0  0  0  0  0  0  0  0  0
   25.6167    7.3132   54.5864 N   0  0  0  0  0  0  0  0  0  0  0  0
   25.1192    8.4007   55.2715 C   0  0  0  0  0  0  0  0  0  0  0  0
   25.9760    9.2411   56.1138 C   0  0  0  0  0  0  0  0  0  0  0  0
   25.9697   10.6011   56.0895 C   0  0  0  0  0  0  0  0  0  0  0  0
   26.8862   11.2931   56.8962 C   0  0  0  0  0  0  0  0  0  0  0  0
   27.7587   10.6097   57.6850 C   0  0  0  0  0  0  0  0  0  0  0  0
   28.9207   11.4608   58.7081 Cl  0  0  0  0  0  0  0  0  0  0  0  0
   27.7620    9.2484   57.7091 C   0  0  0  0  0  0  0  0  0  0  0  0
   28.7338    8.5224   58.5885 C   0  0  0  0  0  0  0  0  0  0  0  0
   26.8819    8.5648   56.9335 C   0  0  0  0  0  0  0  0  0  0  0  0
   24.7892    5.5652   53.0206 C   0  0  0  0  0  0  0  0  0  0  0  0
   24.7354    5.6489   51.6585 C   0  0  0  0  0  0  0  0  0  0  0  0
   24.8790    4.5055   50.8660 C   0  0  0  0  0  0  0  0  0  0  0  0
   24.8102    4.6679   49.3980 C   0  0  0  0  0  0  0  0  0  0  0  0
   25.0713    3.3234   51.4804 N   0  0  0  0  0  0  0  0  0  0  0  0
   25.1317    3.1879   52.8029 C   0  0  0  0  0  0  0  0  0  0  0  0
   25.3438    1.8884   53.4923 C   0  0  0  0  0  0  0  0  0  0  0  0
   24.9907    4.3093   53.5784 C   0  0  0  0  0  0  0  0  0  0  0  0
  1  2  1  0  0  0
  2  3  1  0  0  0
  3  4  1  0  0  0
  4  5  1  0  0  0
  5  6  1  0  0  0
  6  7  1  0  0  0
  7  8  1  0  0  0
  5  9  2  0  0  0
  9 10  1  0  0  0
 10 11  2  0  0  0
 11 12  1  0  0  0
 12 13  2  0  0  0
 13 14  1  0  0  0
 14 15  2  0  0  0
 15 16  1  0  0  0
 15 17  1  0  0  0
 17 18  1  0  0  0
 17 19  2  0  0  0
  9 20  1  0  0  0
 20 21  2  0  0  0
 21 22  1  0  0  0
 22 23  1  0  0  0
 22 24  2  0  0  0
 24 25  1  0  0  0
 25 26  1  0  0  0
 25 27  2  0  0  0
  8  2  1  0  0  0
 19 12  1  0  0  0
 27 20  1  0  0  0
 11  4  1  0  0  0
M  END
> <minimizedAffinity>
59.43666

> <CNNscore>
0.4559633732

> <CNNaffinity>
5.5037288666

> <CNN_VS>
2.5094988346

> <CNNaffinity_variance>
0.5106126070

$$$$
[H]c1c([H])c(-c2nc(-c3c([H])c(C([H])([H])[H])nc(C([H])([H])[H])c3[H])c3n2C([H])([H])[C@@]([H])(C([H])([H])[H])OC([H])([H])C3([H])[H])c([H])c(C([H])([H])[H])c1Cl


 27 30  0  0  0  0  0  0  0  0999 V2000
   20.4460    5.7564   52.9348 C   0  0  0  0  0  0  0  0  0  0  0  0
   21.6916    6.2076   53.7385 C   0  0  0  0  0  0  0  0  0  0  0  0
   21.3875    7.6362   54.1288 C   0  0  0  0  0  0  0  0  0  0  0  0
   22.6215    8.3390   54.4110 N   0  0  0  0  0  0  0  0  0  0  0  0
   23.8340    7.7448   54.6834 C   0  0  0  0  0  0  0  0  0  0  0  0
   24.0980    6.2997   54.8213 C   0  0  0  0  0  0  0  0  0  0  0  0
   23.8227    5.5548   53.5305 C   0  0  0  0  0  0  0  0  0  0  0  0
   22.7443    6.1843   52.8543 O   0  0  0  0  0  0  0  0  0  0  0  0
   24.8155    8.6833   54.8502 C   0  0  0  0  0  0  0  0  0  0  0  0
   24.1944    9.8603   54.6812 N   0  0  0  0  0  0  0  0  0  0  0  0
   22.8596    9.6427   54.4159 C   0  0  0  0  0  0  0  0  0  0  0  0
   21.9349   10.7487   54.1479 C   0  0  0  0  0  0  0  0  0  0  0  0
   20.9409   11.1325   54.9934 C   0  0  0  0  0  0  0  0  0  0  0  0
   20.0772   12.1636   54.5930 C   0  0  0  0  0  0  0  0  0  0  0  0
   20.2390   12.7631   53.3826 C   0  0  0  0  0  0  0  0  0  0  0  0
   19.1632   14.0630   52.8587 Cl  0  0  0  0  0  0  0  0  0  0  0  0
   21.2358   12.3785   52.5387 C   0  0  0  0  0  0  0  0  0  0  0  0
   21.3906   13.0576   51.2121 C   0  0  0  0  0  0  0  0  0  0  0  0
   22.0789   11.3817   52.9116 C   0  0  0  0  0  0  0  0  0  0  0  0
   26.2376    8.5216   55.1556 C   0  0  0  0  0  0  0  0  0  0  0  0
   27.0810    7.8628   54.3071 C   0  0  0  0  0  0  0  0  0  0  0  0
   28.4359    7.7131   54.6199 C   0  0  0  0  0  0  0  0  0  0  0  0
   29.2926    6.9887   53.6568 C   0  0  0  0  0  0  0  0  0  0  0  0
   28.8851    8.2346   55.7767 N   0  0  0  0  0  0  0  0  0  0  0  0
   28.1056    8.8851   56.6371 C   0  0  0  0  0  0  0  0  0  0  0  0
   28.5902    9.4651   57.9168 C   0  0  0  0  0  0  0  0  0  0  0  0
   26.7779    9.0309   56.3293 C   0  0  0  0  0  0  0  0  0  0  0  0
  1  2  1  0  0  0
  2  3  1  0  0  0
  3  4  1  0  0  0
  4  5  1  0  0  0
  5  6  1  0  0  0
  6  7  1  0  0  0
  7  8  1  0  0  0
  5  9  2  0  0  0
  9 10  1  0  0  0
 10 11  2  0  0  0
 11 12  1  0  0  0
 12 13  2  0  0  0
 13 14  1  0  0  0
 14 15  2  0  0  0
 15 16  1  0  0  0
 15 17  1  0  0  0
 17 18  1  0  0  0
 17 19  2  0  0  0
  9 20  1  0  0  0
 20 21  2  0  0  0
 21 22  1  0  0  0
 22 23  1  0  0  0
 22 24  2  0  0  0
 24 25  1  0  0  0
 25 26  1  0  0  0
 25 27  2  0  0  0
  8  2  1  0  0  0
 19 12  1  0  0  0
 27 20  1  0  0  0
 11  4  1  0  0  0
M  END
> <minimizedAffinity>
34.83230

> <CNNscore>
0.4291645288

> <CNNaffinity>
5.6985502243

> <CNN_VS>
2.4456155300

> <CNNaffinity_variance>
0.1894558668

$$$$
[H]c1c([H])c(-c2nc(-c3c([H])c(C([H])([H])[H])nc(C([H])([H])[H])c3[H])c3n2C([H])([H])[C@@]([H])(C([H])([H])[H])OC([H])([H])C3([H])[H])c([H])c(C([H])([H])[H])c1Cl


 27 30  0  0  0  0  0  0  0  0999 V2000
   20.2329    5.0579   53.3933 C   0  0  0  0  0  0  0  0  0  0  0  0
   21.3980    5.8440   54.0458 C   0  0  0  0  0  0  0  0  0  0  0  0
   21.1502    7.2807   53.6454 C   0  0  0  0  0  0  0  0  0  0  0  0
   22.3865    8.0302   53.7243 N   0  0  0  0  0  0  0  0  0  0  0  0
   23.5105    7.6447   54.4211 C   0  0  0  0  0  0  0  0  0  0  0  0
   23.6517    6.4528   55.2794 C   0  0  0  0  0  0  0  0  0  0  0  0
   23.4865    5.1708   54.4882 C   0  0  0  0  0  0  0  0  0  0  0  0
   22.5480    5.3888   53.4452 O   0  0  0  0  0  0  0  0  0  0  0  0
   24.5279    8.5432   54.2499 C   0  0  0  0  0  0  0  0  0  0  0  0
   24.0180    9.4866   53.4440 N   0  0  0  0  0  0  0  0  0  0  0  0
   22.7143    9.1683   53.1297 C   0  0  0  0  0  0  0  0  0  0  0  0
   21.9111   10.0016   52.2294 C   0  0  0  0  0  0  0  0  0  0  0  0
   21.0114    9.5095   51.3358 C   0  0  0  0  0  0  0  0  0  0  0  0
   20.3524   10.4062   50.4807 C   0  0  0  0  0  0  0  0  0  0  0  0
   20.6129   11.7395   50.5519 C   0  0  0  0  0  0  0  0  0  0  0  0
   19.7947   12.8858   49.4851 Cl  0  0  0  0  0  0  0  0  0  0  0  0
   21.5126   12.2300   51.4484 C   0  0  0  0  0  0  0  0  0  0  0  0
   21.7785   13.7035   51.5049 C   0  0  0  0  0  0  0  0  0  0  0  0
   22.1588   11.3749   52.2818 C   0  0  0  0  0  0  0  0  0  0  0  0
   25.8860    8.5505   54.7953 C   0  0  0  0  0  0  0  0  0  0  0  0
   26.9325    7.9946   54.1164 C   0  0  0  0  0  0  0  0  0  0  0  0
   28.2221    8.0058   54.6574 C   0  0  0  0  0  0  0  0  0  0  0  0
   29.3087    7.3862   53.8692 C   0  0  0  0  0  0  0  0  0  0  0  0
   28.4035    8.5781   55.8622 N   0  0  0  0  0  0  0  0  0  0  0  0
   27.4185    9.1334   56.5639 C   0  0  0  0  0  0  0  0  0  0  0  0
   27.6068    9.7682   57.8945 C   0  0  0  0  0  0  0  0  0  0  0  0
   26.1551    9.1215   56.0325 C   0  0  0  0  0  0  0  0  0  0  0  0
  1  2  1  0  0  0
  2  3  1  0  0  0
  3  4  1  0  0  0
  4  5  1  0  0  0
  5  6  1  0  0  0
  6  7  1  0  0  0
  7  8  1  0  0  0
  5  9  2  0  0  0
  9 10  1  0  0  0
 10 11  2  0  0  0
 11 12  1  0  0  0
 12 13  2  0  0  0
 13 14  1  0  0  0
 14 15  2  0  0  0
 15 16  1  0  0  0
 15 17  1  0  0  0
 17 18  1  0  0  0
 17 19  2  0  0  0
  9 20  1  0  0  0
 20 21  2  0  0  0
 21 22  1  0  0  0
 22 23  1  0  0  0
 22 24  2  0  0  0
 24 25  1  0  0  0
 25 26  1  0  0  0
 25 27  2  0  0  0
  8  2  1  0  0  0
 19 12  1  0  0  0
 27 20  1  0  0  0
 11  4  1  0  0  0
M  END
> <minimizedAffinity>
31.36043

> <CNNscore>
0.4154196382

> <CNNaffinity>
5.8958854675

> <CNN_VS>
2.4492666721

> <CNNaffinity_variance>
0.3033902347

$$$$
[H]c1c([H])c(-c2nc(-c3c([H])c(C([H])([H])[H])nc(C([H])([H])[H])c3[H])c3n2C([H])([H])[C@@]([H])(C([H])([H])[H])OC([H])([H])C3([H])[H])c([H])c(C([H])([H])[H])c1Cl


 27 30  0  0  0  0  0  0  0  0999 V2000
   21.8473   11.9465   52.4519 C   0  0  0  0  0  0  0  0  0  0  0  0
   21.4288   10.5325   52.9283 C   0  0  0  0  0  0  0  0  0  0  0  0
   22.6463   10.0070   53.6544 C   0  0  0  0  0  0  0  0  0  0  0  0
   22.6056    8.5602   53.6930 N   0  0  0  0  0  0  0  0  0  0  0  0
   21.4850    7.7874   53.4820 C   0  0  0  0  0  0  0  0  0  0  0  0
   20.1085    8.2701   53.2596 C   0  0  0  0  0  0  0  0  0  0  0  0
   20.0008    9.0877   51.9881 C   0  0  0  0  0  0  0  0  0  0  0  0
   21.2163    9.7941   51.7881 O   0  0  0  0  0  0  0  0  0  0  0  0
   21.7901    6.4546   53.5308 C   0  0  0  0  0  0  0  0  0  0  0  0
   23.1082    6.4151   53.7772 N   0  0  0  0  0  0  0  0  0  0  0  0
   23.5970    7.6999   53.8760 C   0  0  0  0  0  0  0  0  0  0  0  0
   25.0200    7.9698   54.1046 C   0  0  0  0  0  0  0  0  0  0  0  0
   25.9828    7.8384   53.1528 C   0  0  0  0  0  0  0  0  0  0  0  0
   27.3207    8.0612   53.5133 C   0  0  0  0  0  0  0  0  0  0  0  0
   27.6393    8.4030   54.7908 C   0  0  0  0  0  0  0  0  0  0  0  0
   29.3169    8.6880   55.2662 Cl  0  0  0  0  0  0  0  0  0  0  0  0
   26.6737    8.5357   55.7415 C   0  0  0  0  0  0  0  0  0  0  0  0
   27.0542    8.9142   57.1404 C   0  0  0  0  0  0  0  0  0  0  0  0
   25.3749    8.3225   55.4082 C   0  0  0  0  0  0  0  0  0  0  0  0
   20.9309    5.2805   53.3719 C   0  0  0  0  0  0  0  0  0  0  0  0
   21.2101    4.3089   52.4537 C   0  0  0  0  0  0  0  0  0  0  0  0
   20.3730    3.1974   52.3124 C   0  0  0  0  0  0  0  0  0  0  0  0
   20.7342    2.1833   51.2988 C   0  0  0  0  0  0  0  0  0  0  0  0
   19.2877    3.1114   53.1040 N   0  0  0  0  0  0  0  0  0  0  0  0
   18.9713    4.0298   54.0136 C   0  0  0  0  0  0  0  0  0  0  0  0
   17.7761    3.9455   54.8931 C   0  0  0  0  0  0  0  0  0  0  0  0
   19.7925    5.1186   54.1508 C   0  0  0  0  0  0  0  0  0  0  0  0
  1  2  1  0  0  0
  2  3  1  0  0  0
  3  4  1  0  0  0
  4  5  1  0  0  0
  5  6  1  0  0  0
  6  7  1  0  0  0
  7  8  1  0  0  0
  5  9  2  0  0  0
  9 10  1  0  0  0
 10 11  2  0  0  0
 11 12  1  0  0  0
 12 13  2  0  0  0
 13 14  1  0  0  0
 14 15  2  0  0  0
 15 16  1  0  0  0
 15 17  1  0  0  0
 17 18  1  0  0  0
 17 19  2  0  0  0
  9 20  1  0  0  0
 20 21  2  0  0  0
 21 22  1  0  0  0
 22 23  1  0  0  0
 22 24  2  0  0  0
 24 25  1  0  0  0
 25 26  1  0  0  0
 25 27  2  0  0  0
  8  2  1  0  0  0
 19 12  1  0  0  0
 27 20  1  0  0  0
 11  4  1  0  0  0
M  END
> <minimizedAffinity>
35.88425

> <CNNscore>
0.4126489758

> <CNNaffinity>
6.1355643272

> <CNN_VS>
2.5318343639

> <CNNaffinity_variance>
0.4676883817

$$$$
[H]c1c([H])c(-c2nc(-c3c([H])c(C([H])([H])[H])nc(C([H])([H])[H])c3[H])c3n2C([H])([H])[C@@]([H])(C([H])([H])[H])OC([H])([H])C3([H])[H])c([H])c(C([H])([H])[H])c1Cl


 27 30  0  0  0  0  0  0  0  0999 V2000
   20.2087    5.0749   53.3613 C   0  0  0  0  0  0  0  0  0  0  0  0
   21.3669    5.8598   54.0274 C   0  0  0  0  0  0  0  0  0  0  0  0
   21.1231    7.2972   53.6275 C   0  0  0  0  0  0  0  0  0  0  0  0
   22.3584    8.0467   53.7207 N   0  0  0  0  0  0  0  0  0  0  0  0
   23.4752    7.6598   54.4283 C   0  0  0  0  0  0  0  0  0  0  0  0
   23.6077    6.4662   55.2855 C   0  0  0  0  0  0  0  0  0  0  0  0
   23.4508    5.1858   54.4900 C   0  0  0  0  0  0  0  0  0  0  0  0
   22.5231    5.4059   53.4378 O   0  0  0  0  0  0  0  0  0  0  0  0
   24.4942    8.5588   54.2696 C   0  0  0  0  0  0  0  0  0  0  0  0
   23.9925    9.5038   53.4604 N   0  0  0  0  0  0  0  0  0  0  0  0
   22.6922    9.1861   53.1319 C   0  0  0  0  0  0  0  0  0  0  0  0
   21.8983   10.0212   52.2251 C   0  0  0  0  0  0  0  0  0  0  0  0
   21.0129    9.5305   51.3166 C   0  0  0  0  0  0  0  0  0  0  0  0
   20.3623   10.4294   50.4573 C   0  0  0  0  0  0  0  0  0  0  0  0
   20.6165   11.7632   50.5393 C   0  0  0  0  0  0  0  0  0  0  0  0
   19.8088   12.9122   49.4674 Cl  0  0  0  0  0  0  0  0  0  0  0  0
   21.5019   12.2523   51.4508 C   0  0  0  0  0  0  0  0  0  0  0  0
   21.7612   13.7264   51.5189 C   0  0  0  0  0  0  0  0  0  0  0  0
   22.1398   11.3951   52.2883 C   0  0  0  0  0  0  0  0  0  0  0  0
   25.8466    8.5651   54.8290 C   0  0  0  0  0  0  0  0  0  0  0  0
   26.1156    9.1283   56.0437 C   0  0  0  0  0  0  0  0  0  0  0  0
   27.4161    9.1299   56.5584 C   0  0  0  0  0  0  0  0  0  0  0  0
   27.6369    9.7569   57.8791 C   0  0  0  0  0  0  0  0  0  0  0  0
   28.3927    8.5628   55.8261 N   0  0  0  0  0  0  0  0  0  0  0  0
   28.1835    8.0009   54.6380 C   0  0  0  0  0  0  0  0  0  0  0  0
   29.2536    7.3717   53.8207 C   0  0  0  0  0  0  0  0  0  0  0  0
   26.9086    8.0001   54.1348 C   0  0  0  0  0  0  0  0  0  0  0  0
  1  2  1  0  0  0
  2  3  1  0  0  0
  3  4  1  0  0  0
  4  5  1  0  0  0
  5  6  1  0  0  0
  6  7  1  0  0  0
  7  8  1  0  0  0
  5  9  2  0  0  0
  9 10  1  0  0  0
 10 11  2  0  0  0
 11 12  1  0  0  0
 12 13  2  0  0  0
 13 14  1  0  0  0
 14 15  2  0  0  0
 15 16  1  0  0  0
 15 17  1  0  0  0
 17 18  1  0  0  0
 17 19  2  0  0  0
  9 20  1  0  0  0
 20 21  2  0  0  0
 21 22  1  0  0  0
 22 23  1  0  0  0
 22 24  2  0  0  0
 24 25  1  0  0  0
 25 26  1  0  0  0
 25 27  2  0  0  0
  8  2  1  0  0  0
 19 12  1  0  0  0
 27 20  1  0  0  0
 11  4  1  0  0  0
M  END
> <minimizedAffinity>
31.19234

> <CNNscore>
0.4115210474

> <CNNaffinity>
5.8859643936

> <CNN_VS>
2.4221982956

> <CNNaffinity_variance>
0.2973329127

$$$$
[H]c1c([H])c(-c2nc(-c3c([H])c(C([H])([H])[H])nc(C([H])([H])[H])c3[H])c3n2C([H])([H])[C@@]([H])(C([H])([H])[H])OC([H])([H])C3([H])[H])c([H])c([H])c1F


 26 29  0  0  0  0  0  0  0  0999 V2000
   21.0656   10.5656   53.0725 C   0  0  0  0  0  0  0  0  0  0  0  0
   22.0857   10.2599   54.1481 C   0  0  0  0  0  0  0  0  0  0  0  0
   22.4826    8.7821   54.1082 C   0  0  0  0  0  0  0  0  0  0  0  0
   23.7592    8.6470   54.7777 N   0  0  0  0  0  0  0  0  0  0  0  0
   24.3902    9.6012   55.5265 C   0  0  0  0  0  0  0  0  0  0  0  0
   23.9666   10.9496   55.9277 C   0  0  0  0  0  0  0  0  0  0  0  0
   22.5171   11.1209   56.2309 C   0  0  0  0  0  0  0  0  0  0  0  0
   21.6303   10.4917   55.4108 O   0  0  0  0  0  0  0  0  0  0  0  0
   25.5880    9.0774   55.9179 C   0  0  0  0  0  0  0  0  0  0  0  0
   25.6465    7.8526   55.4118 N   0  0  0  0  0  0  0  0  0  0  0  0
   24.5111    7.5451   54.6880 C   0  0  0  0  0  0  0  0  0  0  0  0
   26.6275    9.7310   56.7452 C   0  0  0  0  0  0  0  0  0  0  0  0
   26.6994   11.1112   56.7822 C   0  0  0  0  0  0  0  0  0  0  0  0
   27.6351   11.7263   57.5596 C   0  0  0  0  0  0  0  0  0  0  0  0
   27.7479   13.2056   57.6293 C   0  0  0  0  0  0  0  0  0  0  0  0
   28.4934   10.9924   58.2950 N   0  0  0  0  0  0  0  0  0  0  0  0
   28.4310    9.6501   58.2655 C   0  0  0  0  0  0  0  0  0  0  0  0
   29.3723    8.8005   59.0727 C   0  0  0  0  0  0  0  0  0  0  0  0
   27.4910    8.9935   57.4850 C   0  0  0  0  0  0  0  0  0  0  0  0
   24.3425    6.2727   54.0117 C   0  0  0  0  0  0  0  0  0  0  0  0
   23.7273    5.2335   54.7383 C   0  0  0  0  0  0  0  0  0  0  0  0
   23.4828    3.9982   54.1776 C   0  0  0  0  0  0  0  0  0  0  0  0
   23.8406    3.7440   52.8670 C   0  0  0  0  0  0  0  0  0  0  0  0
   23.5984    2.5245   52.3178 F   0  0  0  0  0  0  0  0  0  0  0  0
   24.4367    4.7379   52.1471 C   0  0  0  0  0  0  0  0  0  0  0  0
   24.6760    5.9853   52.7339 C   0  0  0  0  0  0  0  0  0  0  0  0
  1  2  1  0  0  0
  2  3  1  0  0  0
  3  4  1  0  0  0
  4  5  1  0  0  0
  5  6  1  0  0  0
  6  7  1  0  0  0
  7  8  1  0  0  0
  5  9  2  0  0  0
  9 10  1  0  0  0
 10 11  2  0  0  0
 11 20  1  0  0  0
 20 21  2  0  0  0
 21 22  1  0  0  0
 22 23  2  0  0  0
 23 24  1  0  0  0
 23 25  1  0  0  0
 25 26  2  0  0  0
  9 12  1  0  0  0
 12 13  2  0  0  0
 13 14  1  0  0  0
 14 15  1  0  0  0
 14 16  2  0  0  0
 16 17  1  0  0  0
 17 18  1  0  0  0
 17 19  2  0  0  0
  8  2  1  0  0  0
 26 20  1  0  0  0
 19 12  1  0  0  0
 11  4  1  0  0  0
M  END
> <minimizedAffinity>
50.63666

> <CNNscore>
0.5597774982

> <CNNaffinity>
5.6742639542

> <CNN_VS>
3.1763253212

> <CNNaffinity_variance>
0.4815726280

$$$$
[H]c1c([H])c(-c2nc(-c3c([H])c(C([H])([H])[H])nc(C([H])([H])[H])c3[H])c3n2C([H])([H])[C@@]([H])(C([H])([H])[H])OC([H])([H])C3([H])[H])c([H])c([H])c1F


 26 29  0  0  0  0  0  0  0  0999 V2000
   21.1947   11.7414   52.3592 C   0  0  0  0  0  0  0  0  0  0  0  0
   21.2282   10.2299   52.2868 C   0  0  0  0  0  0  0  0  0  0  0  0
   22.5906    9.7000   52.7406 C   0  0  0  0  0  0  0  0  0  0  0  0
   22.4235    8.3128   53.1201 N   0  0  0  0  0  0  0  0  0  0  0  0
   21.3235    7.5336   52.8917 C   0  0  0  0  0  0  0  0  0  0  0  0
   20.0756    7.8136   52.1686 C   0  0  0  0  0  0  0  0  0  0  0  0
   20.1963    8.6715   50.9554 C   0  0  0  0  0  0  0  0  0  0  0  0
   21.0358    9.7414   51.0298 O   0  0  0  0  0  0  0  0  0  0  0  0
   21.5660    6.3188   53.4640 C   0  0  0  0  0  0  0  0  0  0  0  0
   22.7746    6.3926   54.0058 N   0  0  0  0  0  0  0  0  0  0  0  0
   23.3471    7.6339   53.8084 C   0  0  0  0  0  0  0  0  0  0  0  0
   20.6705    5.1399   53.4841 C   0  0  0  0  0  0  0  0  0  0  0  0
   19.3591    5.2886   53.8960 C   0  0  0  0  0  0  0  0  0  0  0  0
   18.5167    4.2168   53.8951 C   0  0  0  0  0  0  0  0  0  0  0  0
   17.1010    4.3311   54.3292 C   0  0  0  0  0  0  0  0  0  0  0  0
   18.9581    3.0086   53.4930 N   0  0  0  0  0  0  0  0  0  0  0  0
   20.2312    2.8545   53.0909 C   0  0  0  0  0  0  0  0  0  0  0  0
   20.7572    1.5218   52.6362 C   0  0  0  0  0  0  0  0  0  0  0  0
   21.1138    3.9246   53.0800 C   0  0  0  0  0  0  0  0  0  0  0  0
   24.6578    7.9758   54.3279 C   0  0  0  0  0  0  0  0  0  0  0  0
   25.7714    7.6647   53.5221 C   0  0  0  0  0  0  0  0  0  0  0  0
   27.0576    7.9827   53.9025 C   0  0  0  0  0  0  0  0  0  0  0  0
   27.2908    8.6254   55.1037 C   0  0  0  0  0  0  0  0  0  0  0  0
   28.5604    8.9368   55.4758 F   0  0  0  0  0  0  0  0  0  0  0  0
   26.2252    8.9355   55.8974 C   0  0  0  0  0  0  0  0  0  0  0  0
   24.9271    8.6049   55.4934 C   0  0  0  0  0  0  0  0  0  0  0  0
  1  2  1  0  0  0
  2  3  1  0  0  0
  3  4  1  0  0  0
  4  5  1  0  0  0
  5  6  1  0  0  0
  6  7  1  0  0  0
  7  8  1  0  0  0
  5  9  2  0  0  0
  9 10  1  0  0  0
 10 11  2  0  0  0
 11 20  1  0  0  0
 20 21  2  0  0  0
 21 22  1  0  0  0
 22 23  2  0  0  0
 23 24  1  0  0  0
 23 25  1  0  0  0
 25 26  2  0  0  0
  9 12  1  0  0  0
 12 13  2  0  0  0
 13 14  1  0  0  0
 14 15  1  0  0  0
 14 16  2  0  0  0
 16 17  1  0  0  0
 17 18  1  0  0  0
 17 19  2  0  0  0
  8  2  1  0  0  0
 26 20  1  0  0  0
 19 12  1  0  0  0
 11  4  1  0  0  0
M  END
> <minimizedAffinity>
23.39831

> <CNNscore>
0.5413468480

> <CNNaffinity>
6.4712843895

> <CNN_VS>
3.5032093525

> <CNNaffinity_variance>
0.4395285249

$$$$
[H]c1c([H])c(-c2nc(-c3c([H])c(C([H])([H])[H])nc(C([H])([H])[H])c3[H])c3n2C([H])([H])[C@@]([H])(C([H])([H])[H])OC([H])([H])C3([H])[H])c([H])c([H])c1F


 26 29  0  0  0  0  0  0  0  0999 V2000
   21.2157   11.7817   52.3406 C   0  0  0  0  0  0  0  0  0  0  0  0
   21.2326   10.2700   52.2670 C   0  0  0  0  0  0  0  0  0  0  0  0
   22.5862    9.7244   52.7287 C   0  0  0  0  0  0  0  0  0  0  0  0
   22.4011    8.3388   53.1058 N   0  0  0  0  0  0  0  0  0  0  0  0
   21.2938    7.5724   52.8700 C   0  0  0  0  0  0  0  0  0  0  0  0
   20.0536    7.8670   52.1396 C   0  0  0  0  0  0  0  0  0  0  0  0
   20.1914    8.7246   50.9279 C   0  0  0  0  0  0  0  0  0  0  0  0
   21.0425    9.7848   51.0084 O   0  0  0  0  0  0  0  0  0  0  0  0
   21.5191    6.3543   53.4426 C   0  0  0  0  0  0  0  0  0  0  0  0
   22.7251    6.4141   53.9919 N   0  0  0  0  0  0  0  0  0  0  0  0
   23.3128    7.6490   53.7991 C   0  0  0  0  0  0  0  0  0  0  0  0
   20.6103    5.1856   53.4562 C   0  0  0  0  0  0  0  0  0  0  0  0
   21.0870    3.9484   53.0643 C   0  0  0  0  0  0  0  0  0  0  0  0
   20.2683    2.8590   53.0963 C   0  0  0  0  0  0  0  0  0  0  0  0
   20.7384    1.5117   52.6844 C   0  0  0  0  0  0  0  0  0  0  0  0
   18.9916    2.9830   53.5099 N   0  0  0  0  0  0  0  0  0  0  0  0
   18.5194    4.1816   53.8928 C   0  0  0  0  0  0  0  0  0  0  0  0
   17.1013    4.3563   54.3595 C   0  0  0  0  0  0  0  0  0  0  0  0
   19.3264    5.3097   53.8720 C   0  0  0  0  0  0  0  0  0  0  0  0
   24.6240    7.9757   54.3270 C   0  0  0  0  0  0  0  0  0  0  0  0
   25.7386    7.6611   53.5236 C   0  0  0  0  0  0  0  0  0  0  0  0
   27.0257    7.9651   53.9121 C   0  0  0  0  0  0  0  0  0  0  0  0
   27.2591    8.5967   55.1191 C   0  0  0  0  0  0  0  0  0  0  0  0
   28.5297    8.8943   55.4991 F   0  0  0  0  0  0  0  0  0  0  0  0
   26.1928    8.9099   55.9105 C   0  0  0  0  0  0  0  0  0  0  0  0
   24.8937    8.5935   55.4983 C   0  0  0  0  0  0  0  0  0  0  0  0
  1  2  1  0  0  0
  2  3  1  0  0  0
  3  4  1  0  0  0
  4  5  1  0  0  0
  5  6  1  0  0  0
  6  7  1  0  0  0
  7  8  1  0  0  0
  5  9  2  0  0  0
  9 10  1  0  0  0
 10 11  2  0  0  0
 11 20  1  0  0  0
 20 21  2  0  0  0
 21 22  1  0  0  0
 22 23  2  0  0  0
 23 24  1  0  0  0
 23 25  1  0  0  0
 25 26  2  0  0  0
  9 12  1  0  0  0
 12 13  2  0  0  0
 13 14  1  0  0  0
 14 15  1  0  0  0
 14 16  2  0  0  0
 16 17  1  0  0  0
 17 18  1  0  0  0
 17 19  2  0  0  0
  8  2  1  0  0  0
 26 20  1  0  0  0
 19 12  1  0  0  0
 11  4  1  0  0  0
M  END
> <minimizedAffinity>
23.74246

> <CNNscore>
0.5358546376

> <CNNaffinity>
6.4559659958

> <CNN_VS>
3.4594593048

> <CNNaffinity_variance>
0.4468699098

$$$$
[H]c1c([H])c(-c2nc(-c3c([H])c(C([H])([H])[H])nc(C([H])([H])[H])c3[H])c3n2C([H])([H])[C@@]([H])(C([H])([H])[H])OC([H])([H])C3([H])[H])c([H])c([H])c1F


 26 29  0  0  0  0  0  0  0  0999 V2000
   20.4206    5.4994   53.5877 C   0  0  0  0  0  0  0  0  0  0  0  0
   21.7512    6.2198   53.5525 C   0  0  0  0  0  0  0  0  0  0  0  0
   21.5430    7.7248   53.3669 C   0  0  0  0  0  0  0  0  0  0  0  0
   22.7413    8.3983   53.8217 N   0  0  0  0  0  0  0  0  0  0  0  0
   23.9370    7.8114   54.1305 C   0  0  0  0  0  0  0  0  0  0  0  0
   24.3806    6.4143   54.0315 C   0  0  0  0  0  0  0  0  0  0  0  0
   23.8632    5.6406   52.8670 C   0  0  0  0  0  0  0  0  0  0  0  0
   22.5569    5.8238   52.5279 O   0  0  0  0  0  0  0  0  0  0  0  0
   24.7681    8.8005   54.5702 C   0  0  0  0  0  0  0  0  0  0  0  0
   24.0728    9.9288   54.5142 N   0  0  0  0  0  0  0  0  0  0  0  0
   22.7911    9.7154   54.0459 C   0  0  0  0  0  0  0  0  0  0  0  0
   26.1711    8.6608   55.0220 C   0  0  0  0  0  0  0  0  0  0  0  0
   26.5440    9.1713   56.2516 C   0  0  0  0  0  0  0  0  0  0  0  0
   27.8263    9.0272   56.6911 C   0  0  0  0  0  0  0  0  0  0  0  0
   28.2701    9.5597   58.0046 C   0  0  0  0  0  0  0  0  0  0  0  0
   28.7354    8.3869   55.9296 N   0  0  0  0  0  0  0  0  0  0  0  0
   28.3821    7.8873   54.7330 C   0  0  0  0  0  0  0  0  0  0  0  0
   29.3699    7.1677   53.8578 C   0  0  0  0  0  0  0  0  0  0  0  0
   27.0858    8.0170   54.2567 C   0  0  0  0  0  0  0  0  0  0  0  0
   21.8232   10.7883   53.9166 C   0  0  0  0  0  0  0  0  0  0  0  0
   20.9495   11.0021   55.0018 C   0  0  0  0  0  0  0  0  0  0  0  0
   20.0197   12.0197   54.9989 C   0  0  0  0  0  0  0  0  0  0  0  0
   19.9195   12.8698   53.9138 C   0  0  0  0  0  0  0  0  0  0  0  0
   19.0010   13.8718   53.9144 F   0  0  0  0  0  0  0  0  0  0  0  0
   20.7571   12.6792   52.8539 C   0  0  0  0  0  0  0  0  0  0  0  0
   21.6948   11.6410   52.8759 C   0  0  0  0  0  0  0  0  0  0  0  0
  1  2  1  0  0  0
  2  3  1  0  0  0
  3  4  1  0  0  0
  4  5  1  0  0  0
  5  6  1  0  0  0
  6  7  1  0  0  0
  7  8  1  0  0  0
  5  9  2  0  0  0
  9 10  1  0  0  0
 10 11  2  0  0  0
 11 20  1  0  0  0
 20 21  2  0  0  0
 21 22  1  0  0  0
 22 23  2  0  0  0
 23 24  1  0  0  0
 23 25  1  0  0  0
 25 26  2  0  0  0
  9 12  1  0  0  0
 12 13  2  0  0  0
 13 14  1  0  0  0
 14 15  1  0  0  0
 14 16  2  0  0  0
 16 17  1  0  0  0
 17 18  1  0  0  0
 17 19  2  0  0  0
  8  2  1  0  0  0
 26 20  1  0  0  0
 19 12  1  0  0  0
 11  4  1  0  0  0
M  END
> <minimizedAffinity>
32.25018

> <CNNscore>
0.5057421923

> <CNNaffinity>
5.7065467834

> <CNN_VS>
2.8860414028

> <CNNaffinity_variance>
0.1910822541

$$$$
[H]c1c([H])c(-c2nc(-c3c([H])c(C([H])([H])[H])nc(C([H])([H])[H])c3[H])c3n2C([H])([H])[C@@]([H])(C([H])([H])[H])OC([H])([H])C3([H])[H])c([H])c([H])c1F


 26 29  0  0  0  0  0  0  0  0999 V2000
   19.7454   10.7991   55.3753 C   0  0  0  0  0  0  0  0  0  0  0  0
   21.0924   10.1098   55.3388 C   0  0  0  0  0  0  0  0  0  0  0  0
   20.9226    8.6115   55.0757 C   0  0  0  0  0  0  0  0  0  0  0  0
   22.1813    8.1039   54.5712 N   0  0  0  0  0  0  0  0  0  0  0  0
   23.3781    8.7646   54.5575 C   0  0  0  0  0  0  0  0  0  0  0  0
   23.7600   10.0814   55.0854 C   0  0  0  0  0  0  0  0  0  0  0  0
   23.1101   10.4918   56.3628 C   0  0  0  0  0  0  0  0  0  0  0  0
   21.7857   10.2090   56.5071 O   0  0  0  0  0  0  0  0  0  0  0  0
   24.2814    7.9465   53.9433 C   0  0  0  0  0  0  0  0  0  0  0  0
   23.6252    6.8418   53.6137 N   0  0  0  0  0  0  0  0  0  0  0  0
   22.2990    6.9034   53.9946 C   0  0  0  0  0  0  0  0  0  0  0  0
   25.7140    8.2202   53.6886 C   0  0  0  0  0  0  0  0  0  0  0  0
   26.1198    8.5981   52.4221 C   0  0  0  0  0  0  0  0  0  0  0  0
   27.4318    8.8778   52.1799 C   0  0  0  0  0  0  0  0  0  0  0  0
   27.9115    9.2873   50.8353 C   0  0  0  0  0  0  0  0  0  0  0  0
   28.3383    8.7874   53.1731 N   0  0  0  0  0  0  0  0  0  0  0  0
   27.9531    8.4209   54.4074 C   0  0  0  0  0  0  0  0  0  0  0  0
   28.9369    8.3097   55.5384 C   0  0  0  0  0  0  0  0  0  0  0  0
   26.6260    8.1294   54.6869 C   0  0  0  0  0  0  0  0  0  0  0  0
   21.3628    5.8288   53.7237 C   0  0  0  0  0  0  0  0  0  0  0  0
   20.0066    6.1797   53.5685 C   0  0  0  0  0  0  0  0  0  0  0  0
   19.0412    5.2424   53.2693 C   0  0  0  0  0  0  0  0  0  0  0  0
   19.3850    3.9131   53.1112 C   0  0  0  0  0  0  0  0  0  0  0  0
   18.4302    2.9916   52.8168 F   0  0  0  0  0  0  0  0  0  0  0  0
   20.6931    3.5539   53.2570 C   0  0  0  0  0  0  0  0  0  0  0  0
   21.6585    4.5202   53.5602 C   0  0  0  0  0  0  0  0  0  0  0  0
  1  2  1  0  0  0
  2  3  1  0  0  0
  3  4  1  0  0  0
  4  5  1  0  0  0
  5  6  1  0  0  0
  6  7  1  0  0  0
  7  8  1  0  0  0
  5  9  2  0  0  0
  9 10  1  0  0  0
 10 11  2  0  0  0
 11 20  1  0  0  0
 20 21  2  0  0  0
 21 22  1  0  0  0
 22 23  2  0  0  0
 23 24  1  0  0  0
 23 25  1  0  0  0
 25 26  2  0  0  0
  9 12  1  0  0  0
 12 13  2  0  0  0
 13 14  1  0  0  0
 14 15  1  0  0  0
 14 16  2  0  0  0
 16 17  1  0  0  0
 17 18  1  0  0  0
 17 19  2  0  0  0
  8  2  1  0  0  0
 26 20  1  0  0  0
 19 12  1  0  0  0
 11  4  1  0  0  0
M  END
> <minimizedAffinity>
36.19474

> <CNNscore>
0.4798341990

> <CNNaffinity>
6.0172772408

> <CNN_VS>
2.8872954845

> <CNNaffinity_variance>
0.4887209833

$$$$
[H]c1c([H])c(-c2nc(-c3c([H])c(C([H])([H])[H])nc(C([H])([H])[H])c3[H])c3n2C([H])([H])[C@@]([H])(C([H])([H])[H])OC([H])([H])C3([H])[H])c([H])c([H])c1F


 26 29  0  0  0  0  0  0  0  0999 V2000
   20.4065   10.6675   51.2337 C   0  0  0  0  0  0  0  0  0  0  0  0
   21.3650   10.2360   52.3228 C   0  0  0  0  0  0  0  0  0  0  0  0
   21.0052    8.8385   52.8328 C   0  0  0  0  0  0  0  0  0  0  0  0
   22.1783    8.2848   53.4759 N   0  0  0  0  0  0  0  0  0  0  0  0
   23.3242    8.9580   53.7969 C   0  0  0  0  0  0  0  0  0  0  0  0
   23.6766   10.3788   53.6708 C   0  0  0  0  0  0  0  0  0  0  0  0
   22.5767   11.3540   53.9189 C   0  0  0  0  0  0  0  0  0  0  0  0
   21.3485   11.0495   53.4153 O   0  0  0  0  0  0  0  0  0  0  0  0
   24.1891    8.0472   54.3303 C   0  0  0  0  0  0  0  0  0  0  0  0
   23.5592    6.8797   54.3208 N   0  0  0  0  0  0  0  0  0  0  0  0
   22.2886    6.9901   53.7907 C   0  0  0  0  0  0  0  0  0  0  0  0
   25.5613    8.2950   54.8281 C   0  0  0  0  0  0  0  0  0  0  0  0
   26.6430    7.8420   54.0958 C   0  0  0  0  0  0  0  0  0  0  0  0
   27.9122    8.0856   54.5295 C   0  0  0  0  0  0  0  0  0  0  0  0
   29.1026    7.6176   53.7747 C   0  0  0  0  0  0  0  0  0  0  0  0
   28.1180    8.7686   55.6729 N   0  0  0  0  0  0  0  0  0  0  0  0
   27.0727    9.2130   56.3913 C   0  0  0  0  0  0  0  0  0  0  0  0
   27.2654    9.9778   57.6709 C   0  0  0  0  0  0  0  0  0  0  0  0
   25.7689    8.9818   55.9779 C   0  0  0  0  0  0  0  0  0  0  0  0
   21.4058    5.8479   53.6464 C   0  0  0  0  0  0  0  0  0  0  0  0
   20.0194    6.1017   53.6425 C   0  0  0  0  0  0  0  0  0  0  0  0
   19.0948    5.0938   53.4712 C   0  0  0  0  0  0  0  0  0  0  0  0
   19.5113    3.7877   53.2960 C   0  0  0  0  0  0  0  0  0  0  0  0
   18.5966    2.7964   53.1279 F   0  0  0  0  0  0  0  0  0  0  0  0
   20.8496    3.5222   53.2962 C   0  0  0  0  0  0  0  0  0  0  0  0
   21.7726    4.5590   53.4709 C   0  0  0  0  0  0  0  0  0  0  0  0
  1  2  1  0  0  0
  2  3  1  0  0  0
  3  4  1  0  0  0
  4  5  1  0  0  0
  5  6  1  0  0  0
  6  7  1  0  0  0
  7  8  1  0  0  0
  5  9  2  0  0  0
  9 10  1  0  0  0
 10 11  2  0  0  0
 11 20  1  0  0  0
 20 21  2  0  0  0
 21 22  1  0  0  0
 22 23  2  0  0  0
 23 24  1  0  0  0
 23 25  1  0  0  0
 25 26  2  0  0  0
  9 12  1  0  0  0
 12 13  2  0  0  0
 13 14  1  0  0  0
 14 15  1  0  0  0
 14 16  2  0  0  0
 16 17  1  0  0  0
 17 18  1  0  0  0
 17 19  2  0  0  0
  8  2  1  0  0  0
 26 20  1  0  0  0
 19 12  1  0  0  0
 11  4  1  0  0  0
M  END
> <minimizedAffinity>
31.98422

> <CNNscore>
0.4619399309

> <CNNaffinity>
5.9715795517

> <CNN_VS>
2.7585110664

> <CNNaffinity_variance>
0.5342949629

$$$$
[H]c1c([H])c(-c2nc(-c3c([H])c(C([H])([H])[H])nc(C([H])([H])[H])c3[H])c3n2C([H])([H])[C@@]([H])(C([H])([H])[H])OC([H])([H])C3([H])[H])c([H])c([H])c1F


 26 29  0  0  0  0  0  0  0  0999 V2000
   20.3650   10.6346   51.2251 C   0  0  0  0  0  0  0  0  0  0  0  0
   21.3393   10.2107   52.3031 C   0  0  0  0  0  0  0  0  0  0  0  0
   20.9958    8.8108   52.8179 C   0  0  0  0  0  0  0  0  0  0  0  0
   22.1804    8.2662   53.4475 N   0  0  0  0  0  0  0  0  0  0  0  0
   23.3249    8.9481   53.7549 C   0  0  0  0  0  0  0  0  0  0  0  0
   23.6652   10.3713   53.6242 C   0  0  0  0  0  0  0  0  0  0  0  0
   22.5610   11.3385   53.8847 C   0  0  0  0  0  0  0  0  0  0  0  0
   21.3293   11.0246   53.3954 O   0  0  0  0  0  0  0  0  0  0  0  0
   24.2027    8.0439   54.2786 C   0  0  0  0  0  0  0  0  0  0  0  0
   23.5815    6.8719   54.2769 N   0  0  0  0  0  0  0  0  0  0  0  0
   22.3040    6.9725   53.7615 C   0  0  0  0  0  0  0  0  0  0  0  0
   25.5787    8.3023   54.7604 C   0  0  0  0  0  0  0  0  0  0  0  0
   25.7669    8.9902   55.9449 C   0  0  0  0  0  0  0  0  0  0  0  0
   27.0276    9.2126   56.4131 C   0  0  0  0  0  0  0  0  0  0  0  0
   27.2759    9.9465   57.6802 C   0  0  0  0  0  0  0  0  0  0  0  0
   28.0952    8.7632   55.7242 N   0  0  0  0  0  0  0  0  0  0  0  0
   27.9220    8.0935   54.5719 C   0  0  0  0  0  0  0  0  0  0  0  0
   29.0897    7.5783   53.7779 C   0  0  0  0  0  0  0  0  0  0  0  0
   26.6526    7.8507   54.0681 C   0  0  0  0  0  0  0  0  0  0  0  0
   21.4281    5.8237   53.6279 C   0  0  0  0  0  0  0  0  0  0  0  0
   20.0400    6.0681   53.6307 C   0  0  0  0  0  0  0  0  0  0  0  0
   19.1213    5.0532   53.4697 C   0  0  0  0  0  0  0  0  0  0  0  0
   19.5456    3.7490   53.2985 C   0  0  0  0  0  0  0  0  0  0  0  0
   18.6367    2.7508   53.1406 F   0  0  0  0  0  0  0  0  0  0  0  0
   20.8856    3.4925   53.2923 C   0  0  0  0  0  0  0  0  0  0  0  0
   21.8026    4.5364   53.4566 C   0  0  0  0  0  0  0  0  0  0  0  0
  1  2  1  0  0  0
  2  3  1  0  0  0
  3  4  1  0  0  0
  4  5  1  0  0  0
  5  6  1  0  0  0
  6  7  1  0  0  0
  7  8  1  0  0  0
  5  9  2  0  0  0
  9 10  1  0  0  0
 10 11  2  0  0  0
 11 20  1  0  0  0
 20 21  2  0  0  0
 21 22  1  0  0  0
 22 23  2  0  0  0
 23 24  1  0  0  0
 23 25  1  0  0  0
 25 26  2  0  0  0
  9 12  1  0  0  0
 12 13  2  0  0  0
 13 14  1  0  0  0
 14 15  1  0  0  0
 14 16  2  0  0  0
 16 17  1  0  0  0
 17 18  1  0  0  0
 17 19  2  0  0  0
  8  2  1  0  0  0
 26 20  1  0  0  0
 19 12  1  0  0  0
 11  4  1  0  0  0
M  END
> <minimizedAffinity>
32.18458

> <CNNscore>
0.4608087540

> <CNNaffinity>
5.9675850868

> <CNN_VS>
2.7499153614

> <CNNaffinity_variance>
0.5413268805

$$$$
[H]c1c([H])c(-c2nc(-c3c([H])c(C([H])([H])[H])nc(C([H])([H])[H])c3[H])c3n2C([H])([H])[C@@]([H])(C([H])([H])[H])OC([H])([H])C3([H])[H])c([H])c([H])c1F


 26 29  0  0  0  0  0  0  0  0999 V2000
   19.8480    5.9031   54.0033 C   0  0  0  0  0  0  0  0  0  0  0  0
   21.2796    6.3697   53.8488 C   0  0  0  0  0  0  0  0  0  0  0  0
   21.3358    7.6790   53.0581 C   0  0  0  0  0  0  0  0  0  0  0  0
   22.5999    8.3211   53.3518 N   0  0  0  0  0  0  0  0  0  0  0  0
   23.6606    7.7656   54.0118 C   0  0  0  0  0  0  0  0  0  0  0  0
   23.8711    6.4070   54.5296 C   0  0  0  0  0  0  0  0  0  0  0  0
   23.3032    5.2963   53.7133 C   0  0  0  0  0  0  0  0  0  0  0  0
   22.0683    5.4890   53.1722 O   0  0  0  0  0  0  0  0  0  0  0  0
   24.6165    8.7333   54.1217 C   0  0  0  0  0  0  0  0  0  0  0  0
   24.1231    9.8177   53.5385 N   0  0  0  0  0  0  0  0  0  0  0  0
   22.8543    9.5961   53.0399 C   0  0  0  0  0  0  0  0  0  0  0  0
   25.9471    8.6139   54.7600 C   0  0  0  0  0  0  0  0  0  0  0  0
   26.9844    8.0203   54.0649 C   0  0  0  0  0  0  0  0  0  0  0  0
   28.2211    7.9268   54.6307 C   0  0  0  0  0  0  0  0  0  0  0  0
   29.3635    7.2974   53.9202 C   0  0  0  0  0  0  0  0  0  0  0  0
   28.4379    8.4121   55.8691 N   0  0  0  0  0  0  0  0  0  0  0  0
   27.4356    8.9908   56.5525 C   0  0  0  0  0  0  0  0  0  0  0  0
   27.6417    9.5426   57.9354 C   0  0  0  0  0  0  0  0  0  0  0  0
   26.1657    9.1017   56.0054 C   0  0  0  0  0  0  0  0  0  0  0  0
   22.0877   10.6351   52.3785 C   0  0  0  0  0  0  0  0  0  0  0  0
   22.0375   11.8966   53.0052 C   0  0  0  0  0  0  0  0  0  0  0  0
   21.3711   12.9638   52.4421 C   0  0  0  0  0  0  0  0  0  0  0  0
   20.7251   12.8210   51.2287 C   0  0  0  0  0  0  0  0  0  0  0  0
   20.0686   13.8755   50.6768 F   0  0  0  0  0  0  0  0  0  0  0  0
   20.7629   11.6075   50.6063 C   0  0  0  0  0  0  0  0  0  0  0  0
   21.4451   10.5364   51.1936 C   0  0  0  0  0  0  0  0  0  0  0  0
  1  2  1  0  0  0
  2  3  1  0  0  0
  3  4  1  0  0  0
  4  5  1  0  0  0
  5  6  1  0  0  0
  6  7  1  0  0  0
  7  8  1  0  0  0
  5  9  2  0  0  0
  9 10  1  0  0  0
 10 11  2  0  0  0
 11 20  1  0  0  0
 20 21  2  0  0  0
 21 22  1  0  0  0
 22 23  2  0  0  0
 23 24  1  0  0  0
 23 25  1  0  0  0
 25 26  2  0  0  0
  9 12  1  0  0  0
 12 13  2  0  0  0
 13 14  1  0  0  0
 14 15  1  0  0  0
 14 16  2  0  0  0
 16 17  1  0  0  0
 17 18  1  0  0  0
 17 19  2  0  0  0
  8  2  1  0  0  0
 26 20  1  0  0  0
 19 12  1  0  0  0
 11  4  1  0  0  0
M  END
> <minimizedAffinity>
29.05322

> <CNNscore>
0.4597104788

> <CNNaffinity>
5.5643854141

> <CNN_VS>
2.5580062866

> <CNNaffinity_variance>
0.1374734640

$$$$
[H]c1c([H])c(-c2nc(-c3c([H])c(C([H])([H])[H])nc(C([H])([H])[H])c3[H])c3n2C([H])([H])[C@@]([H])(C([H])([H])[H])OC([H])([H])C3([H])[H])c([H])c([H])c1F


 26 29  0  0  0  0  0  0  0  0999 V2000
   19.9687    5.5325   54.0370 C   0  0  0  0  0  0  0  0  0  0  0  0
   21.3843    6.0456   53.8831 C   0  0  0  0  0  0  0  0  0  0  0  0
   21.4135    7.2794   52.9777 C   0  0  0  0  0  0  0  0  0  0  0  0
   22.6395    8.0003   53.2489 N   0  0  0  0  0  0  0  0  0  0  0  0
   23.6993    7.5537   53.9883 C   0  0  0  0  0  0  0  0  0  0  0  0
   23.9477    6.2578   54.6345 C   0  0  0  0  0  0  0  0  0  0  0  0
   23.4537    5.0542   53.9067 C   0  0  0  0  0  0  0  0  0  0  0  0
   22.2308    5.1429   53.3137 O   0  0  0  0  0  0  0  0  0  0  0  0
   24.6106    8.5683   54.0376 C   0  0  0  0  0  0  0  0  0  0  0  0
   24.0930    9.5730   53.3430 N   0  0  0  0  0  0  0  0  0  0  0  0
   22.8518    9.2518   52.8293 C   0  0  0  0  0  0  0  0  0  0  0  0
   25.9227    8.5654   54.7235 C   0  0  0  0  0  0  0  0  0  0  0  0
   26.0400    9.1515   55.9702 C   0  0  0  0  0  0  0  0  0  0  0  0
   27.2360    9.1335   56.6241 C   0  0  0  0  0  0  0  0  0  0  0  0
   27.4070    9.7506   57.9641 C   0  0  0  0  0  0  0  0  0  0  0  0
   28.3084    8.5448   56.0587 N   0  0  0  0  0  0  0  0  0  0  0  0
   28.2038    7.9724   54.8471 C   0  0  0  0  0  0  0  0  0  0  0  0
   29.3790    7.3072   54.1869 C   0  0  0  0  0  0  0  0  0  0  0  0
   27.0015    7.9736   54.1554 C   0  0  0  0  0  0  0  0  0  0  0  0
   22.0660   10.1923   52.0529 C   0  0  0  0  0  0  0  0  0  0  0  0
   21.1716    9.6560   51.1047 C   0  0  0  0  0  0  0  0  0  0  0  0
   20.3495   10.4588   50.3433 C   0  0  0  0  0  0  0  0  0  0  0  0
   20.3821   11.8323   50.4935 C   0  0  0  0  0  0  0  0  0  0  0  0
   19.5703   12.6206   49.7405 F   0  0  0  0  0  0  0  0  0  0  0  0
   21.2410   12.3702   51.4070 C   0  0  0  0  0  0  0  0  0  0  0  0
   22.0672   11.5386   52.1709 C   0  0  0  0  0  0  0  0  0  0  0  0
  1  2  1  0  0  0
  2  3  1  0  0  0
  3  4  1  0  0  0
  4  5  1  0  0  0
  5  6  1  0  0  0
  6  7  1  0  0  0
  7  8  1  0  0  0
  5  9  2  0  0  0
  9 10  1  0  0  0
 10 11  2  0  0  0
 11 20  1  0  0  0
 20 21  2  0  0  0
 21 22  1  0  0  0
 22 23  2  0  0  0
 23 24  1  0  0  0
 23 25  1  0  0  0
 25 26  2  0  0  0
  9 12  1  0  0  0
 12 13  2  0  0  0
 13 14  1  0  0  0
 14 15  1  0  0  0
 14 16  2  0  0  0
 16 17  1  0  0  0
 17 18  1  0  0  0
 17 19  2  0  0  0
  8  2  1  0  0  0
 26 20  1  0  0  0
 19 12  1  0  0  0
 11  4  1  0  0  0
M  END
> <minimizedAffinity>
33.73291

> <CNNscore>
0.4548009932

> <CNNaffinity>
5.7616982460

> <CNN_VS>
2.6204261780

> <CNNaffinity_variance>
0.3105692267

$$$$
[H]c1c([H])c(-c2nc(-c3c([H])c(C([H])([H])[H])nc(C([H])([H])F)c3[H])c3n2C([H])([H])[C@@]([H])(C([H])([H])[H])OC([H])([H])C3([H])[H])c([H])c(Cl)c1Cl


 28 31  0  0  0  0  0  0  0  0999 V2000
   21.5061   11.7283   52.2723 C   0  0  0  0  0  0  0  0  0  0  0  0
   21.2151   10.2110   52.2949 C   0  0  0  0  0  0  0  0  0  0  0  0
   22.6105    9.6023   52.5285 C   0  0  0  0  0  0  0  0  0  0  0  0
   22.4829    8.2323   52.9370 N   0  0  0  0  0  0  0  0  0  0  0  0
   21.3776    7.4190   52.7910 C   0  0  0  0  0  0  0  0  0  0  0  0
   20.1229    7.8542   52.1609 C   0  0  0  0  0  0  0  0  0  0  0  0
   20.3595    8.5995   50.8715 C   0  0  0  0  0  0  0  0  0  0  0  0
   20.6997    9.9209   51.0672 O   0  0  0  0  0  0  0  0  0  0  0  0
   21.6208    6.2021   53.3305 C   0  0  0  0  0  0  0  0  0  0  0  0
   22.8848    6.2776   53.8092 N   0  0  0  0  0  0  0  0  0  0  0  0
   23.4074    7.5173   53.5654 C   0  0  0  0  0  0  0  0  0  0  0  0
   24.7504    7.8498   54.0230 C   0  0  0  0  0  0  0  0  0  0  0  0
   25.8207    7.6893   53.1294 C   0  0  0  0  0  0  0  0  0  0  0  0
   27.1239    8.0012   53.4155 C   0  0  0  0  0  0  0  0  0  0  0  0
   27.3672    8.5043   54.6737 C   0  0  0  0  0  0  0  0  0  0  0  0
   29.0098    8.9303   55.1266 Cl  0  0  0  0  0  0  0  0  0  0  0  0
   26.3580    8.6779   55.5749 C   0  0  0  0  0  0  0  0  0  0  0  0
   26.6741    9.3250   57.1916 Cl  0  0  0  0  0  0  0  0  0  0  0  0
   25.0401    8.3490   55.2469 C   0  0  0  0  0  0  0  0  0  0  0  0
   20.7406    5.0505   53.4269 C   0  0  0  0  0  0  0  0  0  0  0  0
   21.1087    3.7948   53.0696 C   0  0  0  0  0  0  0  0  0  0  0  0
   20.1924    2.7337   53.1721 C   0  0  0  0  0  0  0  0  0  0  0  0
   20.5910    1.3677   52.7833 C   0  0  0  0  0  0  0  0  0  0  0  0
   18.9412    2.9445   53.6247 N   0  0  0  0  0  0  0  0  0  0  0  0
   18.5548    4.1830   53.9855 C   0  0  0  0  0  0  0  0  0  0  0  0
   19.4567    5.2470   53.8879 C   0  0  0  0  0  0  0  0  0  0  0  0
   17.1841    4.4351   54.4857 C   0  0  0  0  0  0  0  0  0  0  0  0
   16.2319    3.8597   53.6336 F   0  0  0  0  0  0  0  0  0  0  0  0
  1  2  1  0  0  0
  2  3  1  0  0  0
  3  4  1  0  0  0
  4  5  1  0  0  0
  5  6  1  0  0  0
  6  7  1  0  0  0
  7  8  1  0  0  0
  5  9  2  0  0  0
  9 10  1  0  0  0
 10 11  2  0  0  0
 11 12  1  0  0  0
 12 13  2  0  0  0
 13 14  1  0  0  0
 14 15  2  0  0  0
 15 16  1  0  0  0
 15 17  1  0  0  0
 17 18  1  0  0  0
 17 19  2  0  0  0
  9 20  1  0  0  0
 20 21  2  0  0  0
 21 22  1  0  0  0
 22 23  1  0  0  0
 22 24  2  0  0  0
 24 25  1  0  0  0
 25 27  1  0  0  0
 27 28  1  0  0  0
 25 26  2  0  0  0
  8  2  1  0  0  0
 19 12  1  0  0  0
 26 20  1  0  0  0
 11  4  1  0  0  0
M  END
> <minimizedAffinity>
25.23365

> <CNNscore>
0.5030422807

> <CNNaffinity>
6.6752634048

> <CNN_VS>
3.3579397202

> <CNNaffinity_variance>
0.5529305339

$$$$
[H]c1c([H])c(-c2nc(-c3c([H])c(C([H])([H])[H])nc(C([H])([H])F)c3[H])c3n2C([H])([H])[C@@]([H])(C([H])([H])[H])OC([H])([H])C3([H])[H])c([H])c(Cl)c1Cl


 28 31  0  0  0  0  0  0  0  0999 V2000
   21.4010   11.8436   52.0726 C   0  0  0  0  0  0  0  0  0  0  0  0
   21.1387   10.3222   52.1359 C   0  0  0  0  0  0  0  0  0  0  0  0
   22.5003    9.7628   52.5892 C   0  0  0  0  0  0  0  0  0  0  0  0
   22.3441    8.4120   53.0487 N   0  0  0  0  0  0  0  0  0  0  0  0
   21.2850    7.5637   52.7970 C   0  0  0  0  0  0  0  0  0  0  0  0
   20.1206    7.9338   51.9799 C   0  0  0  0  0  0  0  0  0  0  0  0
   20.5176    8.6197   50.6969 C   0  0  0  0  0  0  0  0  0  0  0  0
   20.8024    9.9577   50.8666 O   0  0  0  0  0  0  0  0  0  0  0  0
   21.4751    6.3821   53.4284 C   0  0  0  0  0  0  0  0  0  0  0  0
   22.6597    6.5146   54.0701 N   0  0  0  0  0  0  0  0  0  0  0  0
   23.1870    7.7537   53.8341 C   0  0  0  0  0  0  0  0  0  0  0  0
   24.4479    8.1439   54.4520 C   0  0  0  0  0  0  0  0  0  0  0  0
   24.4096    8.9583   55.5942 C   0  0  0  0  0  0  0  0  0  0  0  0
   25.5147    9.3646   56.2951 C   0  0  0  0  0  0  0  0  0  0  0  0
   26.7309    8.9270   55.8209 C   0  0  0  0  0  0  0  0  0  0  0  0
   28.2008    9.4005   56.6574 Cl  0  0  0  0  0  0  0  0  0  0  0  0
   26.8163    8.1334   54.7147 C   0  0  0  0  0  0  0  0  0  0  0  0
   28.3813    7.5725   54.1076 Cl  0  0  0  0  0  0  0  0  0  0  0  0
   25.6666    7.7385   54.0257 C   0  0  0  0  0  0  0  0  0  0  0  0
   20.6122    5.2140   53.4652 C   0  0  0  0  0  0  0  0  0  0  0  0
   21.0183    3.9715   53.1035 C   0  0  0  0  0  0  0  0  0  0  0  0
   20.1175    2.8932   53.1463 C   0  0  0  0  0  0  0  0  0  0  0  0
   20.5576    1.5413   52.7526 C   0  0  0  0  0  0  0  0  0  0  0  0
   18.8437    3.0744   53.5453 N   0  0  0  0  0  0  0  0  0  0  0  0
   18.4193    4.2994   53.9093 C   0  0  0  0  0  0  0  0  0  0  0  0
   19.3055    5.3803   53.8709 C   0  0  0  0  0  0  0  0  0  0  0  0
   17.0232    4.5191   54.3512 C   0  0  0  0  0  0  0  0  0  0  0  0
   16.2025    3.4577   53.9467 F   0  0  0  0  0  0  0  0  0  0  0  0
  1  2  1  0  0  0
  2  3  1  0  0  0
  3  4  1  0  0  0
  4  5  1  0  0  0
  5  6  1  0  0  0
  6  7  1  0  0  0
  7  8  1  0  0  0
  5  9  2  0  0  0
  9 10  1  0  0  0
 10 11  2  0  0  0
 11 12  1  0  0  0
 12 13  2  0  0  0
 13 14  1  0  0  0
 14 15  2  0  0  0
 15 16  1  0  0  0
 15 17  1  0  0  0
 17 18  1  0  0  0
 17 19  2  0  0  0
  9 20  1  0  0  0
 20 21  2  0  0  0
 21 22  1  0  0  0
 22 23  1  0  0  0
 22 24  2  0  0  0
 24 25  1  0  0  0
 25 27  1  0  0  0
 27 28  1  0  0  0
 25 26  2  0  0  0
  8  2  1  0  0  0
 19 12  1  0  0  0
 26 20  1  0  0  0
 11  4  1  0  0  0
M  END
> <minimizedAffinity>
24.58467

> <CNNscore>
0.4970133007

> <CNNaffinity>
6.6474123001

> <CNN_VS>
3.3038523197

> <CNNaffinity_variance>
0.5782616138

$$$$
[H]c1c([H])c(-c2nc(-c3c([H])c(C([H])([H])[H])nc(C([H])([H])F)c3[H])c3n2C([H])([H])[C@@]([H])(C([H])([H])[H])OC([H])([H])C3([H])[H])c([H])c(Cl)c1Cl


 28 31  0  0  0  0  0  0  0  0999 V2000
   19.9741   10.2811   50.7397 C   0  0  0  0  0  0  0  0  0  0  0  0
   21.1595   10.0455   51.7024 C   0  0  0  0  0  0  0  0  0  0  0  0
   20.7271    8.7810   52.4683 C   0  0  0  0  0  0  0  0  0  0  0  0
   21.8570    8.2103   53.1448 N   0  0  0  0  0  0  0  0  0  0  0  0
   23.0558    8.8302   53.4330 C   0  0  0  0  0  0  0  0  0  0  0  0
   23.3567   10.2256   53.0825 C   0  0  0  0  0  0  0  0  0  0  0  0
   22.2241   11.1589   53.4291 C   0  0  0  0  0  0  0  0  0  0  0  0
   21.2171   11.1576   52.4879 O   0  0  0  0  0  0  0  0  0  0  0  0
   23.8926    7.9622   54.0471 C   0  0  0  0  0  0  0  0  0  0  0  0
   23.1960    6.8046   54.1317 N   0  0  0  0  0  0  0  0  0  0  0  0
   21.9542    6.9611   53.5816 C   0  0  0  0  0  0  0  0  0  0  0  0
   21.0305    5.8353   53.5239 C   0  0  0  0  0  0  0  0  0  0  0  0
   19.6626    6.0816   53.7180 C   0  0  0  0  0  0  0  0  0  0  0  0
   18.6845    5.1243   53.6506 C   0  0  0  0  0  0  0  0  0  0  0  0
   19.1049    3.8434   53.3716 C   0  0  0  0  0  0  0  0  0  0  0  0
   17.9185    2.5526   53.2672 Cl  0  0  0  0  0  0  0  0  0  0  0  0
   20.4241    3.5575   53.1749 C   0  0  0  0  0  0  0  0  0  0  0  0
   20.9614    1.9096   52.8164 Cl  0  0  0  0  0  0  0  0  0  0  0  0
   21.3937    4.5607   53.2510 C   0  0  0  0  0  0  0  0  0  0  0  0
   25.2560    8.1714   54.5031 C   0  0  0  0  0  0  0  0  0  0  0  0
   26.3439    7.6738   53.8640 C   0  0  0  0  0  0  0  0  0  0  0  0
   27.6318    7.9016   54.3791 C   0  0  0  0  0  0  0  0  0  0  0  0
   28.8160    7.3604   53.6856 C   0  0  0  0  0  0  0  0  0  0  0  0
   27.8063    8.6142   55.5089 N   0  0  0  0  0  0  0  0  0  0  0  0
   26.7403    9.1182   56.1593 C   0  0  0  0  0  0  0  0  0  0  0  0
   25.4539    8.8983   55.6573 C   0  0  0  0  0  0  0  0  0  0  0  0
   26.9112    9.9044   57.4024 C   0  0  0  0  0  0  0  0  0  0  0  0
   28.2047    9.7434   57.9167 F   0  0  0  0  0  0  0  0  0  0  0  0
  1  2  1  0  0  0
  2  3  1  0  0  0
  3  4  1  0  0  0
  4  5  1  0  0  0
  5  6  1  0  0  0
  6  7  1  0  0  0
  7  8  1  0  0  0
  5  9  2  0  0  0
  9 10  1  0  0  0
 10 11  2  0  0  0
 11 12  1  0  0  0
 12 13  2  0  0  0
 13 14  1  0  0  0
 14 15  2  0  0  0
 15 16  1  0  0  0
 15 17  1  0  0  0
 17 18  1  0  0  0
 17 19  2  0  0  0
  9 20  1  0  0  0
 20 21  2  0  0  0
 21 22  1  0  0  0
 22 23  1  0  0  0
 22 24  2  0  0  0
 24 25  1  0  0  0
 25 27  1  0  0  0
 27 28  1  0  0  0
 25 26  2  0  0  0
  8  2  1  0  0  0
 19 12  1  0  0  0
 26 20  1  0  0  0
 11  4  1  0  0  0
M  END
> <minimizedAffinity>
35.91365

> <CNNscore>
0.4515150487

> <CNNaffinity>
6.2741904259

> <CNN_VS>
2.8328914642

> <CNNaffinity_variance>
0.8984030485

$$$$
[H]c1c([H])c(-c2nc(-c3c([H])c(C([H])([H])[H])nc(C([H])([H])F)c3[H])c3n2C([H])([H])[C@@]([H])(C([H])([H])[H])OC([H])([H])C3([H])[H])c([H])c(Cl)c1Cl


 28 31  0  0  0  0  0  0  0  0999 V2000
   20.0354   10.3060   50.7547 C   0  0  0  0  0  0  0  0  0  0  0  0
   21.1882   10.0911   51.7609 C   0  0  0  0  0  0  0  0  0  0  0  0
   20.7490    8.8202   52.5121 C   0  0  0  0  0  0  0  0  0  0  0  0
   21.8625    8.2690   53.2306 N   0  0  0  0  0  0  0  0  0  0  0  0
   23.0393    8.9092   53.5620 C   0  0  0  0  0  0  0  0  0  0  0  0
   23.3297   10.3091   53.2209 C   0  0  0  0  0  0  0  0  0  0  0  0
   22.1696   11.2236   53.5241 C   0  0  0  0  0  0  0  0  0  0  0  0
   21.1981   11.2046   52.5464 O   0  0  0  0  0  0  0  0  0  0  0  0
   23.8673    8.0558   54.2079 C   0  0  0  0  0  0  0  0  0  0  0  0
   23.1875    6.8867   54.2683 N   0  0  0  0  0  0  0  0  0  0  0  0
   21.9644    7.0219   53.6725 C   0  0  0  0  0  0  0  0  0  0  0  0
   21.0625    5.8808   53.5824 C   0  0  0  0  0  0  0  0  0  0  0  0
   19.6877    6.0988   53.7613 C   0  0  0  0  0  0  0  0  0  0  0  0
   18.7283    5.1253   53.6635 C   0  0  0  0  0  0  0  0  0  0  0  0
   19.1761    3.8572   53.3685 C   0  0  0  0  0  0  0  0  0  0  0  0
   18.0151    2.5472   53.2251 Cl  0  0  0  0  0  0  0  0  0  0  0  0
   20.5029    3.5988   53.1857 C   0  0  0  0  0  0  0  0  0  0  0  0
   21.0752    1.9674   52.8065 Cl  0  0  0  0  0  0  0  0  0  0  0  0
   21.4528    4.6179   53.2927 C   0  0  0  0  0  0  0  0  0  0  0  0
   25.2092    8.2882   54.7136 C   0  0  0  0  0  0  0  0  0  0  0  0
   25.4685    8.9113   55.8901 C   0  0  0  0  0  0  0  0  0  0  0  0
   26.7962    9.1184   56.3026 C   0  0  0  0  0  0  0  0  0  0  0  0
   27.0798    9.7966   57.5816 C   0  0  0  0  0  0  0  0  0  0  0  0
   27.8273    8.7035   55.5413 N   0  0  0  0  0  0  0  0  0  0  0  0
   27.5929    8.0821   54.3699 C   0  0  0  0  0  0  0  0  0  0  0  0
   26.2767    7.8704   53.9482 C   0  0  0  0  0  0  0  0  0  0  0  0
   28.7125    7.6183   53.5191 C   0  0  0  0  0  0  0  0  0  0  0  0
   28.8085    6.2205   53.5448 F   0  0  0  0  0  0  0  0  0  0  0  0
  1  2  1  0  0  0
  2  3  1  0  0  0
  3  4  1  0  0  0
  4  5  1  0  0  0
  5  6  1  0  0  0
  6  7  1  0  0  0
  7  8  1  0  0  0
  5  9  2  0  0  0
  9 10  1  0  0  0
 10 11  2  0  0  0
 11 12  1  0  0  0
 12 13  2  0  0  0
 13 14  1  0  0  0
 14 15  2  0  0  0
 15 16  1  0  0  0
 15 17  1  0  0  0
 17 18  1  0  0  0
 17 19  2  0  0  0
  9 20  1  0  0  0
 20 21  2  0  0  0
 21 22  1  0  0  0
 22 23  1  0  0  0
 22 24  2  0  0  0
 24 25  1  0  0  0
 25 27  1  0  0  0
 27 28  1  0  0  0
 25 26  2  0  0  0
  8  2  1  0  0  0
 19 12  1  0  0  0
 26 20  1  0  0  0
 11  4  1  0  0  0
M  END
> <minimizedAffinity>
37.05519

> <CNNscore>
0.4283519089

> <CNNaffinity>
6.2266778946

> <CNN_VS>
2.6672093868

> <CNNaffinity_variance>
1.0432230234

$$$$
[H]c1c([H])c(-c2nc(-c3c([H])c(C([H])([H])[H])nc(C([H])([H])F)c3[H])c3n2C([H])([H])[C@@]([H])(C([H])([H])[H])OC([H])([H])C3([H])[H])c([H])c(Cl)c1Cl


 28 31  0  0  0  0  0  0  0  0999 V2000
   21.4293   11.9070   51.9837 C   0  0  0  0  0  0  0  0  0  0  0  0
   21.1110   10.3969   52.0600 C   0  0  0  0  0  0  0  0  0  0  0  0
   22.4489    9.7922   52.5256 C   0  0  0  0  0  0  0  0  0  0  0  0
   22.2408    8.4525   52.9969 N   0  0  0  0  0  0  0  0  0  0  0  0
   21.1525    7.6414   52.7477 C   0  0  0  0  0  0  0  0  0  0  0  0
   20.0065    8.0461   51.9212 C   0  0  0  0  0  0  0  0  0  0  0  0
   20.4346    8.7047   50.6339 C   0  0  0  0  0  0  0  0  0  0  0  0
   20.7676   10.0328   50.7924 O   0  0  0  0  0  0  0  0  0  0  0  0
   21.2960    6.4597   53.3912 C   0  0  0  0  0  0  0  0  0  0  0  0
   22.4816    6.5547   54.0377 N   0  0  0  0  0  0  0  0  0  0  0  0
   23.0552    7.7713   53.7929 C   0  0  0  0  0  0  0  0  0  0  0  0
   24.3267    8.1208   54.4135 C   0  0  0  0  0  0  0  0  0  0  0  0
   24.3117    8.9327   55.5581 C   0  0  0  0  0  0  0  0  0  0  0  0
   25.4278    9.3028   56.2616 C   0  0  0  0  0  0  0  0  0  0  0  0
   26.6307    8.8294   55.7877 C   0  0  0  0  0  0  0  0  0  0  0  0
   28.1132    9.2552   56.6275 Cl  0  0  0  0  0  0  0  0  0  0  0  0
   26.6932    8.0369   54.6792 C   0  0  0  0  0  0  0  0  0  0  0  0
   28.2412    7.4300   54.0725 Cl  0  0  0  0  0  0  0  0  0  0  0  0
   25.5329    7.6794   53.9876 C   0  0  0  0  0  0  0  0  0  0  0  0
   20.3905    5.3245   53.4345 C   0  0  0  0  0  0  0  0  0  0  0  0
   19.1425    5.3820   53.9624 C   0  0  0  0  0  0  0  0  0  0  0  0
   18.3320    4.2338   53.9869 C   0  0  0  0  0  0  0  0  0  0  0  0
   16.9746    4.2945   54.5614 C   0  0  0  0  0  0  0  0  0  0  0  0
   18.7781    3.0642   53.4890 N   0  0  0  0  0  0  0  0  0  0  0  0
   20.0136    2.9847   52.9595 C   0  0  0  0  0  0  0  0  0  0  0  0
   20.8298    4.1196   52.9295 C   0  0  0  0  0  0  0  0  0  0  0  0
   20.5221    1.7085   52.4069 C   0  0  0  0  0  0  0  0  0  0  0  0
   21.6934    1.3142   53.0673 F   0  0  0  0  0  0  0  0  0  0  0  0
  1  2  1  0  0  0
  2  3  1  0  0  0
  3  4  1  0  0  0
  4  5  1  0  0  0
  5  6  1  0  0  0
  6  7  1  0  0  0
  7  8  1  0  0  0
  5  9  2  0  0  0
  9 10  1  0  0  0
 10 11  2  0  0  0
 11 12  1  0  0  0
 12 13  2  0  0  0
 13 14  1  0  0  0
 14 15  2  0  0  0
 15 16  1  0  0  0
 15 17  1  0  0  0
 17 18  1  0  0  0
 17 19  2  0  0  0
  9 20  1  0  0  0
 20 21  2  0  0  0
 21 22  1  0  0  0
 22 23  1  0  0  0
 22 24  2  0  0  0
 24 25  1  0  0  0
 25 27  1  0  0  0
 27 28  1  0  0  0
 25 26  2  0  0  0
  8  2  1  0  0  0
 19 12  1  0  0  0
 26 20  1  0  0  0
 11  4  1  0  0  0
M  END
> <minimizedAffinity>
27.28452

> <CNNscore>
0.4268040955

> <CNNaffinity>
6.4790053368

> <CNN_VS>
2.7652659416

> <CNNaffinity_variance>
0.4976465702

$$$$
[H]c1c([H])c(-c2nc(-c3c([H])c(C([H])([H])[H])nc(C([H])([H])F)c3[H])c3n2C([H])([H])[C@@]([H])(C([H])([H])[H])OC([H])([H])C3([H])[H])c([H])c(Cl)c1Cl


 28 31  0  0  0  0  0  0  0  0999 V2000
   19.0643    9.7895   50.1341 C   0  0  0  0  0  0  0  0  0  0  0  0
   20.3747    9.6038   50.9314 C   0  0  0  0  0  0  0  0  0  0  0  0
   19.9915    8.5295   51.9665 C   0  0  0  0  0  0  0  0  0  0  0  0
   21.1771    7.9730   52.5537 N   0  0  0  0  0  0  0  0  0  0  0  0
   22.4462    8.5150   52.5412 C   0  0  0  0  0  0  0  0  0  0  0  0
   22.7781    9.7987   51.9068 C   0  0  0  0  0  0  0  0  0  0  0  0
   21.7844   10.8797   52.2504 C   0  0  0  0  0  0  0  0  0  0  0  0
   20.6370   10.8193   51.4888 O   0  0  0  0  0  0  0  0  0  0  0  0
   23.3131    7.6842   53.1651 C   0  0  0  0  0  0  0  0  0  0  0  0
   22.5638    6.6278   53.5590 N   0  0  0  0  0  0  0  0  0  0  0  0
   21.2612    6.8091   53.1855 C   0  0  0  0  0  0  0  0  0  0  0  0
   20.2670    5.7822   53.4700 C   0  0  0  0  0  0  0  0  0  0  0  0
   18.9539    6.1841   53.7595 C   0  0  0  0  0  0  0  0  0  0  0  0
   17.9155    5.3245   54.0051 C   0  0  0  0  0  0  0  0  0  0  0  0
   18.2132    3.9812   53.9572 C   0  0  0  0  0  0  0  0  0  0  0  0
   16.9424    2.8075   54.2605 Cl  0  0  0  0  0  0  0  0  0  0  0  0
   19.4752    3.5445   53.6790 C   0  0  0  0  0  0  0  0  0  0  0  0
   19.8547    1.8168   53.6181 Cl  0  0  0  0  0  0  0  0  0  0  0  0
   20.5093    4.4514   53.4330 C   0  0  0  0  0  0  0  0  0  0  0  0
   24.7442    7.8349   53.3637 C   0  0  0  0  0  0  0  0  0  0  0  0
   25.4979    8.7548   52.7114 C   0  0  0  0  0  0  0  0  0  0  0  0
   26.8827    8.8257   52.9419 C   0  0  0  0  0  0  0  0  0  0  0  0
   27.7038    9.8252   52.2326 C   0  0  0  0  0  0  0  0  0  0  0  0
   27.4811    7.9868   53.8096 N   0  0  0  0  0  0  0  0  0  0  0  0
   26.7519    7.0663   54.4686 C   0  0  0  0  0  0  0  0  0  0  0  0
   25.3736    6.9853   54.2480 C   0  0  0  0  0  0  0  0  0  0  0  0
   27.3908    6.1354   55.4268 C   0  0  0  0  0  0  0  0  0  0  0  0
   28.7154    5.8716   55.0531 F   0  0  0  0  0  0  0  0  0  0  0  0
  1  2  1  0  0  0
  2  3  1  0  0  0
  3  4  1  0  0  0
  4  5  1  0  0  0
  5  6  1  0  0  0
  6  7  1  0  0  0
  7  8  1  0  0  0
  5  9  2  0  0  0
  9 10  1  0  0  0
 10 11  2  0  0  0
 11 12  1  0  0  0
 12 13  2  0  0  0
 13 14  1  0  0  0
 14 15  2  0  0  0
 15 16  1  0  0  0
 15 17  1  0  0  0
 17 18  1  0  0  0
 17 19  2  0  0  0
  9 20  1  0  0  0
 20 21  2  0  0  0
 21 22  1  0  0  0
 22 23  1  0  0  0
 22 24  2  0  0  0
 24 25  1  0  0  0
 25 27  1  0  0  0
 27 28  1  0  0  0
 25 26  2  0  0  0
  8  2  1  0  0  0
 19 12  1  0  0  0
 26 20  1  0  0  0
 11  4  1  0  0  0
M  END
> <minimizedAffinity>
59.67648

> <CNNscore>
0.4117079377

> <CNNaffinity>
6.1950316429

> <CNN_VS>
2.5505437851

> <CNNaffinity_variance>
1.3751658201

$$$$
[H]c1c([H])c(-c2nc(-c3c([H])c(C([H])([H])[H])nc(C([H])([H])F)c3[H])c3n2C([H])([H])[C@@]([H])(C([H])([H])[H])OC([H])([H])C3([H])[H])c([H])c(Cl)c1Cl


 28 31  0  0  0  0  0  0  0  0999 V2000
   20.1369   10.6372   51.0659 C   0  0  0  0  0  0  0  0  0  0  0  0
   21.3215   10.3549   52.0169 C   0  0  0  0  0  0  0  0  0  0  0  0
   20.9067    9.0335   52.6909 C   0  0  0  0  0  0  0  0  0  0  0  0
   22.0428    8.4359   53.3330 N   0  0  0  0  0  0  0  0  0  0  0  0
   23.2297    9.0540   53.6704 C   0  0  0  0  0  0  0  0  0  0  0  0
   23.5088   10.4751   53.4192 C   0  0  0  0  0  0  0  0  0  0  0  0
   22.3591   11.3634   53.8228 C   0  0  0  0  0  0  0  0  0  0  0  0
   21.3566   11.4107   52.8778 O   0  0  0  0  0  0  0  0  0  0  0  0
   24.0781    8.1594   54.2280 C   0  0  0  0  0  0  0  0  0  0  0  0
   23.4006    6.9874   54.2281 N   0  0  0  0  0  0  0  0  0  0  0  0
   22.1589    7.1612   53.6828 C   0  0  0  0  0  0  0  0  0  0  0  0
   21.2546    6.0271   53.5420 C   0  0  0  0  0  0  0  0  0  0  0  0
   21.7941    4.7813   53.1863 C   0  0  0  0  0  0  0  0  0  0  0  0
   21.0655    3.6278   53.0594 C   0  0  0  0  0  0  0  0  0  0  0  0
   19.7146    3.7313   53.3041 C   0  0  0  0  0  0  0  0  0  0  0  0
   18.7034    2.3022   53.1637 Cl  0  0  0  0  0  0  0  0  0  0  0  0
   19.1467    4.9214   53.6532 C   0  0  0  0  0  0  0  0  0  0  0  0
   17.4097    5.0511   53.9672 Cl  0  0  0  0  0  0  0  0  0  0  0  0
   19.9223    6.0774   53.7737 C   0  0  0  0  0  0  0  0  0  0  0  0
   25.4355    8.3588   54.7053 C   0  0  0  0  0  0  0  0  0  0  0  0
   26.5320    7.8816   54.0653 C   0  0  0  0  0  0  0  0  0  0  0  0
   27.8133    8.0979   54.6014 C   0  0  0  0  0  0  0  0  0  0  0  0
   29.0068    7.5789   53.9069 C   0  0  0  0  0  0  0  0  0  0  0  0
   27.9730    8.7792   55.7526 N   0  0  0  0  0  0  0  0  0  0  0  0
   26.8982    9.2624   56.4043 C   0  0  0  0  0  0  0  0  0  0  0  0
   25.6183    9.0537   55.8816 C   0  0  0  0  0  0  0  0  0  0  0  0
   27.0528   10.0141   57.6707 C   0  0  0  0  0  0  0  0  0  0  0  0
   28.3144   10.6205   57.7362 F   0  0  0  0  0  0  0  0  0  0  0  0
  1  2  1  0  0  0
  2  3  1  0  0  0
  3  4  1  0  0  0
  4  5  1  0  0  0
  5  6  1  0  0  0
  6  7  1  0  0  0
  7  8  1  0  0  0
  5  9  2  0  0  0
  9 10  1  0  0  0
 10 11  2  0  0  0
 11 12  1  0  0  0
 12 13  2  0  0  0
 13 14  1  0  0  0
 14 15  2  0  0  0
 15 16  1  0  0  0
 15 17  1  0  0  0
 17 18  1  0  0  0
 17 19  2  0  0  0
  9 20  1  0  0  0
 20 21  2  0  0  0
 21 22  1  0  0  0
 22 23  1  0  0  0
 22 24  2  0  0  0
 24 25  1  0  0  0
 25 27  1  0  0  0
 27 28  1  0  0  0
 25 26  2  0  0  0
  8  2  1  0  0  0
 19 12  1  0  0  0
 26 20  1  0  0  0
 11  4  1  0  0  0
M  END
> <minimizedAffinity>
37.15098

> <CNNscore>
0.4048295915

> <CNNaffinity>
6.0908370018

> <CNN_VS>
2.4657511711

> <CNNaffinity_variance>
0.7006430626

$$$$
[H]c1c([H])c(-c2nc(-c3c([H])c(C([H])([H])[H])nc(C([H])([H])F)c3[H])c3n2C([H])([H])[C@@]([H])(C([H])([H])[H])OC([H])([H])C3([H])[H])c([H])c(Cl)c1Cl


 28 31  0  0  0  0  0  0  0  0999 V2000
   20.0827    5.6030   53.7380 C   0  0  0  0  0  0  0  0  0  0  0  0
   21.5489    6.0844   53.8144 C   0  0  0  0  0  0  0  0  0  0  0  0
   21.4322    7.5807   53.4684 C   0  0  0  0  0  0  0  0  0  0  0  0
   22.6380    8.2634   53.8429 N   0  0  0  0  0  0  0  0  0  0  0  0
   23.8690    7.6971   54.1046 C   0  0  0  0  0  0  0  0  0  0  0  0
   24.1359    6.2539   54.0245 C   0  0  0  0  0  0  0  0  0  0  0  0
   23.5659    5.6360   52.7725 C   0  0  0  0  0  0  0  0  0  0  0  0
   22.2182    5.3640   52.8709 O   0  0  0  0  0  0  0  0  0  0  0  0
   24.7551    8.6551   54.4626 C   0  0  0  0  0  0  0  0  0  0  0  0
   24.0555    9.8132   54.4188 N   0  0  0  0  0  0  0  0  0  0  0  0
   22.7651    9.5697   54.0386 C   0  0  0  0  0  0  0  0  0  0  0  0
   21.8065   10.6641   53.9544 C   0  0  0  0  0  0  0  0  0  0  0  0
   20.9127   10.8542   55.0196 C   0  0  0  0  0  0  0  0  0  0  0  0
   19.9901   11.8651   55.0876 C   0  0  0  0  0  0  0  0  0  0  0  0
   19.9633   12.7371   54.0225 C   0  0  0  0  0  0  0  0  0  0  0  0
   18.8110   14.0625   54.0254 Cl  0  0  0  0  0  0  0  0  0  0  0  0
   20.8135   12.5915   52.9658 C   0  0  0  0  0  0  0  0  0  0  0  0
   20.7764   13.7143   51.5981 Cl  0  0  0  0  0  0  0  0  0  0  0  0
   21.7422   11.5480   52.9318 C   0  0  0  0  0  0  0  0  0  0  0  0
   26.1487    8.5156   54.8481 C   0  0  0  0  0  0  0  0  0  0  0  0
   27.0597    7.8185   54.1243 C   0  0  0  0  0  0  0  0  0  0  0  0
   28.3871    7.7111   54.5741 C   0  0  0  0  0  0  0  0  0  0  0  0
   29.3789    6.9527   53.7882 C   0  0  0  0  0  0  0  0  0  0  0  0
   28.7748    8.2955   55.7243 N   0  0  0  0  0  0  0  0  0  0  0  0
   27.8870    8.9929   56.4584 C   0  0  0  0  0  0  0  0  0  0  0  0
   26.5635    9.1069   56.0220 C   0  0  0  0  0  0  0  0  0  0  0  0
   28.2936    9.6428   57.7253 C   0  0  0  0  0  0  0  0  0  0  0  0
   28.2325    8.7342   58.7903 F   0  0  0  0  0  0  0  0  0  0  0  0
  1  2  1  0  0  0
  2  3  1  0  0  0
  3  4  1  0  0  0
  4  5  1  0  0  0
  5  6  1  0  0  0
  6  7  1  0  0  0
  7  8  1  0  0  0
  5  9  2  0  0  0
  9 10  1  0  0  0
 10 11  2  0  0  0
 11 12  1  0  0  0
 12 13  2  0  0  0
 13 14  1  0  0  0
 14 15  2  0  0  0
 15 16  1  0  0  0
 15 17  1  0  0  0
 17 18  1  0  0  0
 17 19  2  0  0  0
  9 20  1  0  0  0
 20 21  2  0  0  0
 21 22  1  0  0  0
 22 23  1  0  0  0
 22 24  2  0  0  0
 24 25  1  0  0  0
 25 27  1  0  0  0
 27 28  1  0  0  0
 25 26  2  0  0  0
  8  2  1  0  0  0
 19 12  1  0  0  0
 26 20  1  0  0  0
 11  4  1  0  0  0
M  END
> <minimizedAffinity>
33.98626

> <CNNscore>
0.4021987021

> <CNNaffinity>
5.7635955811

> <CNN_VS>
2.3181107044

> <CNNaffinity_variance>
0.4171869159

$$$$
[H]c1c([H])c(-c2nc(-c3c([H])c(C([H])([H])[H])nc(C([H])([H])F)c3[H])c3n2C([H])([H])[C@@]([H])(C([H])([H])[H])OC([H])([H])C3([H])[H])c([H])c(Cl)c1Cl


 28 31  0  0  0  0  0  0  0  0999 V2000
   19.6524    5.7187   53.9132 C   0  0  0  0  0  0  0  0  0  0  0  0
   21.1450    6.1023   54.0241 C   0  0  0  0  0  0  0  0  0  0  0  0
   21.2856    7.2209   52.9746 C   0  0  0  0  0  0  0  0  0  0  0  0
   22.5082    7.9413   53.1904 N   0  0  0  0  0  0  0  0  0  0  0  0
   23.5998    7.5280   53.9267 C   0  0  0  0  0  0  0  0  0  0  0  0
   23.6743    6.2322   54.6166 C   0  0  0  0  0  0  0  0  0  0  0  0
   23.2086    5.0932   53.7450 C   0  0  0  0  0  0  0  0  0  0  0  0
   21.8361    4.9726   53.7029 O   0  0  0  0  0  0  0  0  0  0  0  0
   24.5493    8.4920   53.9323 C   0  0  0  0  0  0  0  0  0  0  0  0
   24.0291    9.5001   53.1935 N   0  0  0  0  0  0  0  0  0  0  0  0
   22.7846    9.1591   52.7416 C   0  0  0  0  0  0  0  0  0  0  0  0
   22.0075   10.1041   51.9499 C   0  0  0  0  0  0  0  0  0  0  0  0
   21.0323    9.6010   51.0750 C   0  0  0  0  0  0  0  0  0  0  0  0
   20.2065   10.3769   50.3045 C   0  0  0  0  0  0  0  0  0  0  0  0
   20.3695   11.7391   50.4193 C   0  0  0  0  0  0  0  0  0  0  0  0
   19.3537   12.8099   49.4673 Cl  0  0  0  0  0  0  0  0  0  0  0  0
   21.3041   12.2729   51.2574 C   0  0  0  0  0  0  0  0  0  0  0  0
   21.5111   14.0247   51.4027 Cl  0  0  0  0  0  0  0  0  0  0  0  0
   22.1285   11.4496   52.0286 C   0  0  0  0  0  0  0  0  0  0  0  0
   25.8414    8.5012   54.5962 C   0  0  0  0  0  0  0  0  0  0  0  0
   26.9556    7.9308   54.0739 C   0  0  0  0  0  0  0  0  0  0  0  0
   28.1665    7.9626   54.7871 C   0  0  0  0  0  0  0  0  0  0  0  0
   29.3790    7.3420   54.2207 C   0  0  0  0  0  0  0  0  0  0  0  0
   28.2405    8.5571   55.9937 N   0  0  0  0  0  0  0  0  0  0  0  0
   27.1467    9.1302   56.5308 C   0  0  0  0  0  0  0  0  0  0  0  0
   25.9361    9.1050   55.8316 C   0  0  0  0  0  0  0  0  0  0  0  0
   27.2077    9.7889   57.8556 C   0  0  0  0  0  0  0  0  0  0  0  0
   28.1918    9.1970   58.6586 F   0  0  0  0  0  0  0  0  0  0  0  0
  1  2  1  0  0  0
  2  3  1  0  0  0
  3  4  1  0  0  0
  4  5  1  0  0  0
  5  6  1  0  0  0
  6  7  1  0  0  0
  7  8  1  0  0  0
  5  9  2  0  0  0
  9 10  1  0  0  0
 10 11  2  0  0  0
 11 12  1  0  0  0
 12 13  2  0  0  0
 13 14  1  0  0  0
 14 15  2  0  0  0
 15 16  1  0  0  0
 15 17  1  0  0  0
 17 18  1  0  0  0
 17 19  2  0  0  0
  9 20  1  0  0  0
 20 21  2  0  0  0
 21 22  1  0  0  0
 22 23  1  0  0  0
 22 24  2  0  0  0
 24 25  1  0  0  0
 25 27  1  0  0  0
 27 28  1  0  0  0
 25 26  2  0  0  0
  8  2  1  0  0  0
 19 12  1  0  0  0
 26 20  1  0  0  0
 11  4  1  0  0  0
M  END
> <minimizedAffinity>
36.89038

> <CNNscore>
0.3995499015

> <CNNaffinity>
5.9131889343

> <CNN_VS>
2.3626141548

> <CNNaffinity_variance>
0.5520888567

$$$$
[H]c1c([H])c(-c2nc(-c3c([H])c(C([H])([H])[H])nc(C([H])([H])F)c3[H])c3n2C([H])([H])[C@@]([H])(C([H])([H])[H])OC([H])([H])C3([H])[H])c([H])c(Cl)c1F


 28 31  0  0  0  0  0  0  0  0999 V2000
   21.5453   11.9101   52.4713 C   0  0  0  0  0  0  0  0  0  0  0  0
   21.2653   10.3906   52.4500 C   0  0  0  0  0  0  0  0  0  0  0  0
   22.6672    9.7867   52.6520 C   0  0  0  0  0  0  0  0  0  0  0  0
   22.5349    8.3914   53.0116 N   0  0  0  0  0  0  0  0  0  0  0  0
   21.4260    7.5886   52.8528 C   0  0  0  0  0  0  0  0  0  0  0  0
   20.1614    8.0502   52.2566 C   0  0  0  0  0  0  0  0  0  0  0  0
   20.3880    8.8313   50.9840 C   0  0  0  0  0  0  0  0  0  0  0  0
   20.7490   10.1407   51.2104 O   0  0  0  0  0  0  0  0  0  0  0  0
   21.6670    6.3507   53.3416 C   0  0  0  0  0  0  0  0  0  0  0  0
   22.9398    6.4013   53.8051 N   0  0  0  0  0  0  0  0  0  0  0  0
   23.4654    7.6461   53.6004 C   0  0  0  0  0  0  0  0  0  0  0  0
   24.8157    7.9604   54.0481 C   0  0  0  0  0  0  0  0  0  0  0  0
   25.8663    7.8519   53.1213 C   0  0  0  0  0  0  0  0  0  0  0  0
   27.1711    8.1545   53.3985 C   0  0  0  0  0  0  0  0  0  0  0  0
   27.4401    8.5912   54.6773 C   0  0  0  0  0  0  0  0  0  0  0  0
   28.7191    8.9023   54.9983 F   0  0  0  0  0  0  0  0  0  0  0  0
   26.4496    8.7130   55.6118 C   0  0  0  0  0  0  0  0  0  0  0  0
   26.7884    9.2727   57.2541 Cl  0  0  0  0  0  0  0  0  0  0  0  0
   25.1242    8.3950   55.2938 C   0  0  0  0  0  0  0  0  0  0  0  0
   20.7858    5.1953   53.4106 C   0  0  0  0  0  0  0  0  0  0  0  0
   21.1629    3.9361   53.0537 C   0  0  0  0  0  0  0  0  0  0  0  0
   20.2540    2.8739   53.1274 C   0  0  0  0  0  0  0  0  0  0  0  0
   20.6610    1.5008   52.7387 C   0  0  0  0  0  0  0  0  0  0  0  0
   18.9965    3.0814   53.5522 N   0  0  0  0  0  0  0  0  0  0  0  0
   18.5964    4.3109   53.9112 C   0  0  0  0  0  0  0  0  0  0  0  0
   19.4922    5.3836   53.8431 C   0  0  0  0  0  0  0  0  0  0  0  0
   17.2150    4.5443   54.3792 C   0  0  0  0  0  0  0  0  0  0  0  0
   16.3396    3.5864   53.8633 F   0  0  0  0  0  0  0  0  0  0  0  0
  1  2  1  0  0  0
  2  3  1  0  0  0
  3  4  1  0  0  0
  4  5  1  0  0  0
  5  6  1  0  0  0
  6  7  1  0  0  0
  7  8  1  0  0  0
  5  9  2  0  0  0
  9 10  1  0  0  0
 10 11  2  0  0  0
 11 12  1  0  0  0
 12 13  2  0  0  0
 13 14  1  0  0  0
 14 15  2  0  0  0
 15 16  1  0  0  0
 15 17  1  0  0  0
 17 18  1  0  0  0
 17 19  2  0  0  0
  9 20  1  0  0  0
 20 21  2  0  0  0
 21 22  1  0  0  0
 22 23  1  0  0  0
 22 24  2  0  0  0
 24 25  1  0  0  0
 25 27  1  0  0  0
 27 28  1  0  0  0
 25 26  2  0  0  0
  8  2  1  0  0  0
 19 12  1  0  0  0
 26 20  1  0  0  0
 11  4  1  0  0  0
M  END
> <minimizedAffinity>
23.76925

> <CNNscore>
0.5390487909

> <CNNaffinity>
6.7317190170

> <CNN_VS>
3.6287250519

> <CNNaffinity_variance>
0.5880824327

$$$$
[H]c1c([H])c(-c2nc(-c3c([H])c(C([H])([H])[H])nc(C([H])([H])F)c3[H])c3n2C([H])([H])[C@@]([H])(C([H])([H])[H])OC([H])([H])C3([H])[H])c([H])c(Cl)c1F


 28 31  0  0  0  0  0  0  0  0999 V2000
   21.6095   11.9150   52.2651 C   0  0  0  0  0  0  0  0  0  0  0  0
   21.2559   10.4114   52.3053 C   0  0  0  0  0  0  0  0  0  0  0  0
   22.6242    9.7499   52.5526 C   0  0  0  0  0  0  0  0  0  0  0  0
   22.4197    8.3796   52.9700 N   0  0  0  0  0  0  0  0  0  0  0  0
   21.2749    7.6251   52.8305 C   0  0  0  0  0  0  0  0  0  0  0  0
   20.0415    8.1207   52.1974 C   0  0  0  0  0  0  0  0  0  0  0  0
   20.3209    8.8336   50.8957 C   0  0  0  0  0  0  0  0  0  0  0  0
   20.7427   10.1327   51.0705 O   0  0  0  0  0  0  0  0  0  0  0  0
   21.4494    6.3995   53.3754 C   0  0  0  0  0  0  0  0  0  0  0  0
   22.7176    6.4088   53.8540 N   0  0  0  0  0  0  0  0  0  0  0  0
   23.3057    7.6167   53.6032 C   0  0  0  0  0  0  0  0  0  0  0  0
   24.6644    7.8847   54.0558 C   0  0  0  0  0  0  0  0  0  0  0  0
   25.7247    7.6178   53.1731 C   0  0  0  0  0  0  0  0  0  0  0  0
   27.0407    7.8604   53.4560 C   0  0  0  0  0  0  0  0  0  0  0  0
   27.3114    8.4019   54.6937 C   0  0  0  0  0  0  0  0  0  0  0  0
   28.6014    8.6590   55.0184 F   0  0  0  0  0  0  0  0  0  0  0  0
   26.3118    8.6789   55.5842 C   0  0  0  0  0  0  0  0  0  0  0  0
   26.6527    9.3736   57.1738 Cl  0  0  0  0  0  0  0  0  0  0  0  0
   24.9750    8.4183   55.2618 C   0  0  0  0  0  0  0  0  0  0  0  0
   20.5122    5.2921   53.4818 C   0  0  0  0  0  0  0  0  0  0  0  0
   19.2065    5.4402   53.8403 C   0  0  0  0  0  0  0  0  0  0  0  0
   18.3660    4.3252   53.9415 C   0  0  0  0  0  0  0  0  0  0  0  0
   16.9432    4.4826   54.3325 C   0  0  0  0  0  0  0  0  0  0  0  0
   18.8354    3.0927   53.6856 N   0  0  0  0  0  0  0  0  0  0  0  0
   20.1171    2.9158   53.3296 C   0  0  0  0  0  0  0  0  0  0  0  0
   20.9705    4.0195   53.2241 C   0  0  0  0  0  0  0  0  0  0  0  0
   20.6379    1.5628   53.0469 C   0  0  0  0  0  0  0  0  0  0  0  0
   21.3971    1.5497   51.8750 F   0  0  0  0  0  0  0  0  0  0  0  0
  1  2  1  0  0  0
  2  3  1  0  0  0
  3  4  1  0  0  0
  4  5  1  0  0  0
  5  6  1  0  0  0
  6  7  1  0  0  0
  7  8  1  0  0  0
  5  9  2  0  0  0
  9 10  1  0  0  0
 10 11  2  0  0  0
 11 12  1  0  0  0
 12 13  2  0  0  0
 13 14  1  0  0  0
 14 15  2  0  0  0
 15 16  1  0  0  0
 15 17  1  0  0  0
 17 18  1  0  0  0
 17 19  2  0  0  0
  9 20  1  0  0  0
 20 21  2  0  0  0
 21 22  1  0  0  0
 22 23  1  0  0  0
 22 24  2  0  0  0
 24 25  1  0  0  0
 25 27  1  0  0  0
 27 28  1  0  0  0
 25 26  2  0  0  0
  8  2  1  0  0  0
 19 12  1  0  0  0
 26 20  1  0  0  0
 11  4  1  0  0  0
M  END
> <minimizedAffinity>
26.56410

> <CNNscore>
0.4981831610

> <CNNaffinity>
6.6601591110

> <CNN_VS>
3.3179790974

> <CNNaffinity_variance>
0.5170171261

$$$$
[H]c1c([H])c(-c2nc(-c3c([H])c(C([H])([H])[H])nc(C([H])([H])F)c3[H])c3n2C([H])([H])[C@@]([H])(C([H])([H])[H])OC([H])([H])C3([H])[H])c([H])c(Cl)c1F


 28 31  0  0  0  0  0  0  0  0999 V2000
   20.0297    5.6945   53.7909 C   0  0  0  0  0  0  0  0  0  0  0  0
   21.4977    6.1709   53.8665 C   0  0  0  0  0  0  0  0  0  0  0  0
   21.3906    7.6563   53.4753 C   0  0  0  0  0  0  0  0  0  0  0  0
   22.6167    8.3322   53.8407 N   0  0  0  0  0  0  0  0  0  0  0  0
   23.8333    7.7558   54.1355 C   0  0  0  0  0  0  0  0  0  0  0  0
   24.0779    6.3042   54.1090 C   0  0  0  0  0  0  0  0  0  0  0  0
   23.5182    5.6589   52.8635 C   0  0  0  0  0  0  0  0  0  0  0  0
   22.1641    5.4206   52.9399 O   0  0  0  0  0  0  0  0  0  0  0  0
   24.7360    8.7061   54.4695 C   0  0  0  0  0  0  0  0  0  0  0  0
   24.0590    9.8768   54.3775 N   0  0  0  0  0  0  0  0  0  0  0  0
   22.7685    9.6444   53.9924 C   0  0  0  0  0  0  0  0  0  0  0  0
   21.8277   10.7487   53.8578 C   0  0  0  0  0  0  0  0  0  0  0  0
   20.9259   10.9866   54.9088 C   0  0  0  0  0  0  0  0  0  0  0  0
   20.0200   12.0113   54.9282 C   0  0  0  0  0  0  0  0  0  0  0  0
   20.0166   12.8464   53.8323 C   0  0  0  0  0  0  0  0  0  0  0  0
   19.1356   13.8755   53.8069 F   0  0  0  0  0  0  0  0  0  0  0  0
   20.8764   12.6538   52.7870 C   0  0  0  0  0  0  0  0  0  0  0  0
   20.8767   13.7218   51.3782 Cl  0  0  0  0  0  0  0  0  0  0  0  0
   21.7914   11.5948   52.8002 C   0  0  0  0  0  0  0  0  0  0  0  0
   26.1252    8.5607   54.8759 C   0  0  0  0  0  0  0  0  0  0  0  0
   27.0512    7.8620   54.1621 C   0  0  0  0  0  0  0  0  0  0  0  0
   28.3674    7.7475   54.6249 C   0  0  0  0  0  0  0  0  0  0  0  0
   29.3789    6.9865   53.8504 C   0  0  0  0  0  0  0  0  0  0  0  0
   28.7364    8.3260   55.7800 N   0  0  0  0  0  0  0  0  0  0  0  0
   27.8461    9.0213   56.5045 C   0  0  0  0  0  0  0  0  0  0  0  0
   26.5265    9.1452   56.0563 C   0  0  0  0  0  0  0  0  0  0  0  0
   28.2468    9.6595   57.7749 C   0  0  0  0  0  0  0  0  0  0  0  0
   28.3616    8.7164   58.7984 F   0  0  0  0  0  0  0  0  0  0  0  0
  1  2  1  0  0  0
  2  3  1  0  0  0
  3  4  1  0  0  0
  4  5  1  0  0  0
  5  6  1  0  0  0
  6  7  1  0  0  0
  7  8  1  0  0  0
  5  9  2  0  0  0
  9 10  1  0  0  0
 10 11  2  0  0  0
 11 12  1  0  0  0
 12 13  2  0  0  0
 13 14  1  0  0  0
 14 15  2  0  0  0
 15 16  1  0  0  0
 15 17  1  0  0  0
 17 18  1  0  0  0
 17 19  2  0  0  0
  9 20  1  0  0  0
 20 21  2  0  0  0
 21 22  1  0  0  0
 22 23  1  0  0  0
 22 24  2  0  0  0
 24 25  1  0  0  0
 25 27  1  0  0  0
 27 28  1  0  0  0
 25 26  2  0  0  0
  8  2  1  0  0  0
 19 12  1  0  0  0
 26 20  1  0  0  0
 11  4  1  0  0  0
M  END
> <minimizedAffinity>
32.06059

> <CNNscore>
0.4599052370

> <CNNaffinity>
5.8128581047

> <CNN_VS>
2.6733639240

> <CNNaffinity_variance>
0.3422334790

$$$$
[H]c1c([H])c(-c2nc(-c3c([H])c(C([H])([H])[H])nc(C([H])([H])F)c3[H])c3n2C([H])([H])[C@@]([H])(C([H])([H])[H])OC([H])([H])C3([H])[H])c([H])c(Cl)c1F


 28 31  0  0  0  0  0  0  0  0999 V2000
   21.4284   11.8420   51.9911 C   0  0  0  0  0  0  0  0  0  0  0  0
   21.1219   10.3300   52.0785 C   0  0  0  0  0  0  0  0  0  0  0  0
   22.4728    9.7371   52.5193 C   0  0  0  0  0  0  0  0  0  0  0  0
   22.2658    8.3846   52.9900 N   0  0  0  0  0  0  0  0  0  0  0  0
   21.1704    7.5794   52.7646 C   0  0  0  0  0  0  0  0  0  0  0  0
   20.0037    7.9910   51.9664 C   0  0  0  0  0  0  0  0  0  0  0  0
   20.4097    8.6426   50.6658 C   0  0  0  0  0  0  0  0  0  0  0  0
   20.7656    9.9648   50.8115 O   0  0  0  0  0  0  0  0  0  0  0  0
   21.3201    6.3929   53.3968 C   0  0  0  0  0  0  0  0  0  0  0  0
   22.5228    6.4780   54.0161 N   0  0  0  0  0  0  0  0  0  0  0  0
   23.0963    7.6926   53.7641 C   0  0  0  0  0  0  0  0  0  0  0  0
   24.3835    8.0379   54.3529 C   0  0  0  0  0  0  0  0  0  0  0  0
   24.3969    8.8865   55.4728 C   0  0  0  0  0  0  0  0  0  0  0  0
   25.5297    9.2564   56.1442 C   0  0  0  0  0  0  0  0  0  0  0  0
   26.7179    8.7473   55.6676 C   0  0  0  0  0  0  0  0  0  0  0  0
   27.8667    9.0868   56.3007 F   0  0  0  0  0  0  0  0  0  0  0  0
   26.7529    7.9174   54.5817 C   0  0  0  0  0  0  0  0  0  0  0  0
   28.2743    7.2610   53.9653 Cl  0  0  0  0  0  0  0  0  0  0  0  0
   25.5739    7.5586   53.9182 C   0  0  0  0  0  0  0  0  0  0  0  0
   20.4134    5.2571   53.4596 C   0  0  0  0  0  0  0  0  0  0  0  0
   19.1390    5.3341   53.9340 C   0  0  0  0  0  0  0  0  0  0  0  0
   18.3285    4.1936   53.9833 C   0  0  0  0  0  0  0  0  0  0  0  0
   16.9398    4.2734   54.5001 C   0  0  0  0  0  0  0  0  0  0  0  0
   18.7963    3.0066   53.5625 N   0  0  0  0  0  0  0  0  0  0  0  0
   20.0475    2.9001   53.0895 C   0  0  0  0  0  0  0  0  0  0  0  0
   20.8708    4.0301   53.0338 C   0  0  0  0  0  0  0  0  0  0  0  0
   20.5665    1.5974   52.6254 C   0  0  0  0  0  0  0  0  0  0  0  0
   21.9609    1.5586   52.6895 F   0  0  0  0  0  0  0  0  0  0  0  0
  1  2  1  0  0  0
  2  3  1  0  0  0
  3  4  1  0  0  0
  4  5  1  0  0  0
  5  6  1  0  0  0
  6  7  1  0  0  0
  7  8  1  0  0  0
  5  9  2  0  0  0
  9 10  1  0  0  0
 10 11  2  0  0  0
 11 12  1  0  0  0
 12 13  2  0  0  0
 13 14  1  0  0  0
 14 15  2  0  0  0
 15 16  1  0  0  0
 15 17  1  0  0  0
 17 18  1  0  0  0
 17 19  2  0  0  0
  9 20  1  0  0  0
 20 21  2  0  0  0
 21 22  1  0  0  0
 22 23  1  0  0  0
 22 24  2  0  0  0
 24 25  1  0  0  0
 25 27  1  0  0  0
 27 28  1  0  0  0
 25 26  2  0  0  0
  8  2  1  0  0  0
 19 12  1  0  0  0
 26 20  1  0  0  0
 11  4  1  0  0  0
M  END
> <minimizedAffinity>
26.66939

> <CNNscore>
0.4582543373

> <CNNaffinity>
6.5247383118

> <CNN_VS>
2.9899895191

> <CNNaffinity_variance>
0.5067198873

$$$$
[H]c1c([H])c(-c2nc(-c3c([H])c(C([H])([H])[H])nc(C([H])([H])F)c3[H])c3n2C([H])([H])[C@@]([H])(C([H])([H])[H])OC([H])([H])C3([H])[H])c([H])c(Cl)c1F


 28 31  0  0  0  0  0  0  0  0999 V2000
   19.8592   10.0777   50.8146 C   0  0  0  0  0  0  0  0  0  0  0  0
   21.0540    9.8501   51.7677 C   0  0  0  0  0  0  0  0  0  0  0  0
   20.6734    8.5379   52.4779 C   0  0  0  0  0  0  0  0  0  0  0  0
   21.8429    8.0001   53.1386 N   0  0  0  0  0  0  0  0  0  0  0  0
   23.0119    8.6644   53.4410 C   0  0  0  0  0  0  0  0  0  0  0  0
   23.2480   10.0847   53.1333 C   0  0  0  0  0  0  0  0  0  0  0  0
   22.0754   10.9513   53.5268 C   0  0  0  0  0  0  0  0  0  0  0  0
   21.0538   10.9301   52.6038 O   0  0  0  0  0  0  0  0  0  0  0  0
   23.8943    7.8223   54.0256 C   0  0  0  0  0  0  0  0  0  0  0  0
   23.2536    6.6289   54.0788 N   0  0  0  0  0  0  0  0  0  0  0  0
   22.0033    6.7423   53.5388 C   0  0  0  0  0  0  0  0  0  0  0  0
   21.1296    5.5799   53.4486 C   0  0  0  0  0  0  0  0  0  0  0  0
   21.6865    4.3597   53.0298 C   0  0  0  0  0  0  0  0  0  0  0  0
   20.9893    3.1863   52.9402 C   0  0  0  0  0  0  0  0  0  0  0  0
   19.6576    3.2370   53.2903 C   0  0  0  0  0  0  0  0  0  0  0  0
   18.9264    2.0987   53.2167 F   0  0  0  0  0  0  0  0  0  0  0  0
   19.0736    4.4017   53.7043 C   0  0  0  0  0  0  0  0  0  0  0  0
   17.3655    4.4731   54.1548 Cl  0  0  0  0  0  0  0  0  0  0  0  0
   19.8171    5.5847   53.7849 C   0  0  0  0  0  0  0  0  0  0  0  0
   25.2510    8.0764   54.4849 C   0  0  0  0  0  0  0  0  0  0  0  0
   26.3610    7.5796   53.8715 C   0  0  0  0  0  0  0  0  0  0  0  0
   27.6364    7.8496   54.3817 C   0  0  0  0  0  0  0  0  0  0  0  0
   28.8479    7.3095   53.7166 C   0  0  0  0  0  0  0  0  0  0  0  0
   27.7837    8.6036   55.4839 N   0  0  0  0  0  0  0  0  0  0  0  0
   26.7086    9.1074   56.1093 C   0  0  0  0  0  0  0  0  0  0  0  0
   25.4268    8.8467   55.6126 C   0  0  0  0  0  0  0  0  0  0  0  0
   26.8653    9.9372   57.3212 C   0  0  0  0  0  0  0  0  0  0  0  0
   28.1436    9.7978   57.8656 F   0  0  0  0  0  0  0  0  0  0  0  0
  1  2  1  0  0  0
  2  3  1  0  0  0
  3  4  1  0  0  0
  4  5  1  0  0  0
  5  6  1  0  0  0
  6  7  1  0  0  0
  7  8  1  0  0  0
  5  9  2  0  0  0
  9 10  1  0  0  0
 10 11  2  0  0  0
 11 12  1  0  0  0
 12 13  2  0  0  0
 13 14  1  0  0  0
 14 15  2  0  0  0
 15 16  1  0  0  0
 15 17  1  0  0  0
 17 18  1  0  0  0
 17 19  2  0  0  0
  9 20  1  0  0  0
 20 21  2  0  0  0
 21 22  1  0  0  0
 22 23  1  0  0  0
 22 24  2  0  0  0
 24 25  1  0  0  0
 25 27  1  0  0  0
 27 28  1  0  0  0
 25 26  2  0  0  0
  8  2  1  0  0  0
 19 12  1  0  0  0
 26 20  1  0  0  0
 11  4  1  0  0  0
M  END
> <minimizedAffinity>
33.76136

> <CNNscore>
0.4363484383

> <CNNaffinity>
6.2134733200

> <CNN_VS>
2.7112393379

> <CNNaffinity_variance>
0.7498040199

$$$$
[H]c1c([H])c(-c2nc(-c3c([H])c(C([H])([H])[H])nc(C([H])([H])F)c3[H])c3n2C([H])([H])[C@@]([H])(C([H])([H])[H])OC([H])([H])C3([H])[H])c([H])c(Cl)c1F


 28 31  0  0  0  0  0  0  0  0999 V2000
   21.6379   11.8257   52.3494 C   0  0  0  0  0  0  0  0  0  0  0  0
   21.3474   10.3104   52.4337 C   0  0  0  0  0  0  0  0  0  0  0  0
   22.7485    9.7103   52.6522 C   0  0  0  0  0  0  0  0  0  0  0  0
   22.6130    8.3430   53.1059 N   0  0  0  0  0  0  0  0  0  0  0  0
   21.4963    7.5401   53.0192 C   0  0  0  0  0  0  0  0  0  0  0  0
   20.2249    7.9709   52.4145 C   0  0  0  0  0  0  0  0  0  0  0  0
   20.4349    8.6641   51.0893 C   0  0  0  0  0  0  0  0  0  0  0  0
   20.8085    9.9828   51.2222 O   0  0  0  0  0  0  0  0  0  0  0  0
   21.7374    6.3355   53.5851 C   0  0  0  0  0  0  0  0  0  0  0  0
   23.0182    6.4068   54.0230 N   0  0  0  0  0  0  0  0  0  0  0  0
   23.5484    7.6312   53.7274 C   0  0  0  0  0  0  0  0  0  0  0  0
   24.9083    7.9640   54.1309 C   0  0  0  0  0  0  0  0  0  0  0  0
   25.9213    7.9174   53.1582 C   0  0  0  0  0  0  0  0  0  0  0  0
   27.2288    8.2436   53.3929 C   0  0  0  0  0  0  0  0  0  0  0  0
   27.5405    8.6397   54.6752 C   0  0  0  0  0  0  0  0  0  0  0  0
   28.8238    8.9721   54.9549 F   0  0  0  0  0  0  0  0  0  0  0  0
   26.5874    8.7008   55.6535 C   0  0  0  0  0  0  0  0  0  0  0  0
   26.9811    9.2080   57.3007 Cl  0  0  0  0  0  0  0  0  0  0  0  0
   25.2580    8.3602   55.3785 C   0  0  0  0  0  0  0  0  0  0  0  0
   20.8498    5.1941   53.7452 C   0  0  0  0  0  0  0  0  0  0  0  0
   20.3498    4.4747   52.7024 C   0  0  0  0  0  0  0  0  0  0  0  0
   19.4837    3.3989   52.9311 C   0  0  0  0  0  0  0  0  0  0  0  0
   18.9363    2.6132   51.7974 C   0  0  0  0  0  0  0  0  0  0  0  0
   19.1337    3.0602   54.1832 N   0  0  0  0  0  0  0  0  0  0  0  0
   19.6110    3.7501   55.2305 C   0  0  0  0  0  0  0  0  0  0  0  0
   20.4774    4.8282   55.0194 C   0  0  0  0  0  0  0  0  0  0  0  0
   19.2295    3.3815   56.6091 C   0  0  0  0  0  0  0  0  0  0  0  0
   17.8621    3.1128   56.6988 F   0  0  0  0  0  0  0  0  0  0  0  0
  1  2  1  0  0  0
  2  3  1  0  0  0
  3  4  1  0  0  0
  4  5  1  0  0  0
  5  6  1  0  0  0
  6  7  1  0  0  0
  7  8  1  0  0  0
  5  9  2  0  0  0
  9 10  1  0  0  0
 10 11  2  0  0  0
 11 12  1  0  0  0
 12 13  2  0  0  0
 13 14  1  0  0  0
 14 15  2  0  0  0
 15 16  1  0  0  0
 15 17  1  0  0  0
 17 18  1  0  0  0
 17 19  2  0  0  0
  9 20  1  0  0  0
 20 21  2  0  0  0
 21 22  1  0  0  0
 22 23  1  0  0  0
 22 24  2  0  0  0
 24 25  1  0  0  0
 25 27  1  0  0  0
 27 28  1  0  0  0
 25 26  2  0  0  0
  8  2  1  0  0  0
 19 12  1  0  0  0
 26 20  1  0  0  0
 11  4  1  0  0  0
M  END
> <minimizedAffinity>
33.23973

> <CNNscore>
0.4321489036

> <CNNaffinity>
6.4059553146

> <CNN_VS>
2.7683265209

> <CNNaffinity_variance>
0.5533434749

$$$$
[H]c1c([H])c(-c2nc(-c3c([H])c(C([H])([H])[H])nc(C([H])([H])F)c3[H])c3n2C([H])([H])[C@@]([H])(C([H])([H])[H])OC([H])([H])C3([H])[H])c([H])c(Cl)c1F


 28 31  0  0  0  0  0  0  0  0999 V2000
   19.9623   10.1625   50.8117 C   0  0  0  0  0  0  0  0  0  0  0  0
   21.1166    9.9600   51.8189 C   0  0  0  0  0  0  0  0  0  0  0  0
   20.7287    8.6428   52.5157 C   0  0  0  0  0  0  0  0  0  0  0  0
   21.8769    8.1289   53.2307 N   0  0  0  0  0  0  0  0  0  0  0  0
   23.0183    8.8158   53.5834 C   0  0  0  0  0  0  0  0  0  0  0  0
   23.2415   10.2395   53.2817 C   0  0  0  0  0  0  0  0  0  0  0  0
   22.0363   11.0849   53.6186 C   0  0  0  0  0  0  0  0  0  0  0  0
   21.0582   11.0421   52.6503 O   0  0  0  0  0  0  0  0  0  0  0  0
   23.8888    7.9921   54.2105 C   0  0  0  0  0  0  0  0  0  0  0  0
   23.2688    6.7870   54.2387 N   0  0  0  0  0  0  0  0  0  0  0  0
   22.0424    6.8754   53.6422 C   0  0  0  0  0  0  0  0  0  0  0  0
   21.1956    5.6965   53.5165 C   0  0  0  0  0  0  0  0  0  0  0  0
   21.7913    4.4890   53.1146 C   0  0  0  0  0  0  0  0  0  0  0  0
   21.1210    3.3026   52.9960 C   0  0  0  0  0  0  0  0  0  0  0  0
   19.7767    3.3259   53.2973 C   0  0  0  0  0  0  0  0  0  0  0  0
   19.0712    2.1738   53.1935 F   0  0  0  0  0  0  0  0  0  0  0  0
   19.1551    4.4774   53.6932 C   0  0  0  0  0  0  0  0  0  0  0  0
   17.4307    4.5137   54.0810 Cl  0  0  0  0  0  0  0  0  0  0  0  0
   19.8718    5.6744   53.8045 C   0  0  0  0  0  0  0  0  0  0  0  0
   25.2182    8.2730   54.7299 C   0  0  0  0  0  0  0  0  0  0  0  0
   25.4478    8.9378   55.8963 C   0  0  0  0  0  0  0  0  0  0  0  0
   26.7563    9.1904   56.3252 C   0  0  0  0  0  0  0  0  0  0  0  0
   27.0104    9.9150   57.5949 C   0  0  0  0  0  0  0  0  0  0  0  0
   27.8048    8.7797   55.5923 N   0  0  0  0  0  0  0  0  0  0  0  0
   27.6096    8.1218   54.4391 C   0  0  0  0  0  0  0  0  0  0  0  0
   26.3082    7.8616   53.9960 C   0  0  0  0  0  0  0  0  0  0  0  0
   28.7589    7.6680   53.6298 C   0  0  0  0  0  0  0  0  0  0  0  0
   28.8241    6.2738   53.5843 F   0  0  0  0  0  0  0  0  0  0  0  0
  1  2  1  0  0  0
  2  3  1  0  0  0
  3  4  1  0  0  0
  4  5  1  0  0  0
  5  6  1  0  0  0
  6  7  1  0  0  0
  7  8  1  0  0  0
  5  9  2  0  0  0
  9 10  1  0  0  0
 10 11  2  0  0  0
 11 12  1  0  0  0
 12 13  2  0  0  0
 13 14  1  0  0  0
 14 15  2  0  0  0
 15 16  1  0  0  0
 15 17  1  0  0  0
 17 18  1  0  0  0
 17 19  2  0  0  0
  9 20  1  0  0  0
 20 21  2  0  0  0
 21 22  1  0  0  0
 22 23  1  0  0  0
 22 24  2  0  0  0
 24 25  1  0  0  0
 25 27  1  0  0  0
 27 28  1  0  0  0
 25 26  2  0  0  0
  8  2  1  0  0  0
 19 12  1  0  0  0
 26 20  1  0  0  0
 11  4  1  0  0  0
M  END
> <minimizedAffinity>
34.75967

> <CNNscore>
0.4060294628

> <CNNaffinity>
6.1828861237

> <CNN_VS>
2.5104339123

> <CNNaffinity_variance>
0.9348261952

$$$$
[H]c1c([H])c(-c2nc(-c3c([H])c(C([H])([H])[H])nc(C([H])([H])F)c3[H])c3n2C([H])([H])[C@@]([H])(C([H])([H])[H])OC([H])([H])C3([H])[H])c([H])c(Cl)c1F


 28 31  0  0  0  0  0  0  0  0999 V2000
   19.7144    5.4580   53.8874 C   0  0  0  0  0  0  0  0  0  0  0  0
   21.1878    5.9128   53.9877 C   0  0  0  0  0  0  0  0  0  0  0  0
   21.2535    7.0690   52.9729 C   0  0  0  0  0  0  0  0  0  0  0  0
   22.4611    7.8324   53.2017 N   0  0  0  0  0  0  0  0  0  0  0  0
   23.5736    7.4432   53.9160 C   0  0  0  0  0  0  0  0  0  0  0  0
   23.7072    6.1308   54.5697 C   0  0  0  0  0  0  0  0  0  0  0  0
   23.2879    5.0004   53.6601 C   0  0  0  0  0  0  0  0  0  0  0  0
   21.9230    4.8260   53.6084 O   0  0  0  0  0  0  0  0  0  0  0  0
   24.4880    8.4396   53.9432 C   0  0  0  0  0  0  0  0  0  0  0  0
   23.9236    9.4493   53.2366 N   0  0  0  0  0  0  0  0  0  0  0  0
   22.6894    9.0744   52.7852 C   0  0  0  0  0  0  0  0  0  0  0  0
   21.8660   10.0066   52.0265 C   0  0  0  0  0  0  0  0  0  0  0  0
   22.2406   11.3607   52.0057 C   0  0  0  0  0  0  0  0  0  0  0  0
   21.5807   12.3308   51.3025 C   0  0  0  0  0  0  0  0  0  0  0  0
   20.4825   11.9220   50.5779 C   0  0  0  0  0  0  0  0  0  0  0  0
   19.7967   12.8485   49.8658 F   0  0  0  0  0  0  0  0  0  0  0  0
   20.0818   10.6149   50.5679 C   0  0  0  0  0  0  0  0  0  0  0  0
   18.6735   10.0842   49.6402 Cl  0  0  0  0  0  0  0  0  0  0  0  0
   20.7808    9.6475   51.2989 C   0  0  0  0  0  0  0  0  0  0  0  0
   25.7875    8.4853   54.5954 C   0  0  0  0  0  0  0  0  0  0  0  0
   26.9231    7.9650   54.0526 C   0  0  0  0  0  0  0  0  0  0  0  0
   28.1369    8.0278   54.7474 C   0  0  0  0  0  0  0  0  0  0  0  0
   29.3760    7.4614   54.1595 C   0  0  0  0  0  0  0  0  0  0  0  0
   28.1989    8.6031   55.9599 N   0  0  0  0  0  0  0  0  0  0  0  0
   27.0967    9.1250   56.5197 C   0  0  0  0  0  0  0  0  0  0  0  0
   25.8756    9.0702   55.8389 C   0  0  0  0  0  0  0  0  0  0  0  0
   27.1596    9.7589   57.8524 C   0  0  0  0  0  0  0  0  0  0  0  0
   28.4446    9.6712   58.3920 F   0  0  0  0  0  0  0  0  0  0  0  0
  1  2  1  0  0  0
  2  3  1  0  0  0
  3  4  1  0  0  0
  4  5  1  0  0  0
  5  6  1  0  0  0
  6  7  1  0  0  0
  7  8  1  0  0  0
  5  9  2  0  0  0
  9 10  1  0  0  0
 10 11  2  0  0  0
 11 12  1  0  0  0
 12 13  2  0  0  0
 13 14  1  0  0  0
 14 15  2  0  0  0
 15 16  1  0  0  0
 15 17  1  0  0  0
 17 18  1  0  0  0
 17 19  2  0  0  0
  9 20  1  0  0  0
 20 21  2  0  0  0
 21 22  1  0  0  0
 22 23  1  0  0  0
 22 24  2  0  0  0
 24 25  1  0  0  0
 25 27  1  0  0  0
 27 28  1  0  0  0
 25 26  2  0  0  0
  8  2  1  0  0  0
 19 12  1  0  0  0
 26 20  1  0  0  0
 11  4  1  0  0  0
M  END
> <minimizedAffinity>
36.61410

> <CNNscore>
0.4013831913

> <CNNaffinity>
5.8933362961

> <CNN_VS>
2.3654861450

> <CNNaffinity_variance>
0.5183117986

$$$$
[H]c1c([H])c(-c2nc(-c3c([H])c(C([H])([H])[H])nc(C([H])([H])F)c3[H])c3n2C([H])([H])[C@@]([H])(C([H])([H])[H])OC([H])([H])C3([H])[H])c([H])c(Cl)c1F


 28 31  0  0  0  0  0  0  0  0999 V2000
   21.2343   12.0606   54.8065 C   0  0  0  0  0  0  0  0  0  0  0  0
   21.6060   10.6350   54.3403 C   0  0  0  0  0  0  0  0  0  0  0  0
   23.1163   10.5679   54.6323 C   0  0  0  0  0  0  0  0  0  0  0  0
   23.5470    9.1873   54.5866 N   0  0  0  0  0  0  0  0  0  0  0  0
   22.8789    8.1213   54.0241 C   0  0  0  0  0  0  0  0  0  0  0  0
   21.5770    8.2381   53.3465 C   0  0  0  0  0  0  0  0  0  0  0  0
   21.5424    9.4017   52.3844 C   0  0  0  0  0  0  0  0  0  0  0  0
   21.3179   10.6101   53.0054 O   0  0  0  0  0  0  0  0  0  0  0  0
   23.5762    6.9773   54.2103 C   0  0  0  0  0  0  0  0  0  0  0  0
   24.6834    7.3524   54.8964 N   0  0  0  0  0  0  0  0  0  0  0  0
   24.6623    8.7001   55.1221 C   0  0  0  0  0  0  0  0  0  0  0  0
   25.7325    9.3395   55.8760 C   0  0  0  0  0  0  0  0  0  0  0  0
   25.6620   10.7272   56.0853 C   0  0  0  0  0  0  0  0  0  0  0  0
   26.5764   11.4438   56.8074 C   0  0  0  0  0  0  0  0  0  0  0  0
   27.6217   10.7302   57.3519 C   0  0  0  0  0  0  0  0  0  0  0  0
   28.5526   11.3981   58.0751 F   0  0  0  0  0  0  0  0  0  0  0  0
   27.7305    9.3789   57.1751 C   0  0  0  0  0  0  0  0  0  0  0  0
   29.0694    8.4578   57.8710 Cl  0  0  0  0  0  0  0  0  0  0  0  0
   26.7761    8.6765   56.4303 C   0  0  0  0  0  0  0  0  0  0  0  0
   23.2457    5.6173   53.8139 C   0  0  0  0  0  0  0  0  0  0  0  0
   24.1771    4.6794   53.4853 C   0  0  0  0  0  0  0  0  0  0  0  0
   23.7845    3.3940   53.0934 C   0  0  0  0  0  0  0  0  0  0  0  0
   24.7964    2.3699   52.7340 C   0  0  0  0  0  0  0  0  0  0  0  0
   22.4827    3.0669   53.0365 N   0  0  0  0  0  0  0  0  0  0  0  0
   21.5424    3.9697   53.3551 C   0  0  0  0  0  0  0  0  0  0  0  0
   21.9178    5.2589   53.7485 C   0  0  0  0  0  0  0  0  0  0  0  0
   20.1098    3.6149   53.2945 C   0  0  0  0  0  0  0  0  0  0  0  0
   19.8381    2.8021   52.1920 F   0  0  0  0  0  0  0  0  0  0  0  0
  1  2  1  0  0  0
  2  3  1  0  0  0
  3  4  1  0  0  0
  4  5  1  0  0  0
  5  6  1  0  0  0
  6  7  1  0  0  0
  7  8  1  0  0  0
  5  9  2  0  0  0
  9 10  1  0  0  0
 10 11  2  0  0  0
 11 12  1  0  0  0
 12 13  2  0  0  0
 13 14  1  0  0  0
 14 15  2  0  0  0
 15 16  1  0  0  0
 15 17  1  0  0  0
 17 18  1  0  0  0
 17 19  2  0  0  0
  9 20  1  0  0  0
 20 21  2  0  0  0
 21 22  1  0  0  0
 22 23  1  0  0  0
 22 24  2  0  0  0
 24 25  1  0  0  0
 25 27  1  0  0  0
 27 28  1  0  0  0
 25 26  2  0  0  0
  8  2  1  0  0  0
 19 12  1  0  0  0
 26 20  1  0  0  0
 11  4  1  0  0  0
M  END
> <minimizedAffinity>
52.11043

> <CNNscore>
0.3894179761

> <CNNaffinity>
5.8314628601

> <CNN_VS>
2.2708764076

> <CNNaffinity_variance>
0.6648630500

$$$$
[H]c1c([H])c(-c2c([H])c(C(=O)N([H])[H])nc3c([H])c(C([H])([H])N4C(=O)C([H])([H])C([H])([H])C4=O)c([H])c([H])c23)c([H])c([H])c1F


 30 33  0  0  0  0  0  0  0  0999 V2000
   21.5542    9.5875   52.1177 C   0  0  0  0  0  0  0  0  0  0  0  0
   20.6926    8.5720   52.4290 C   0  0  0  0  0  0  0  0  0  0  0  0
   21.1024    7.3898   53.0635 C   0  0  0  0  0  0  0  0  0  0  0  0
   22.4417    7.2974   53.3663 C   0  0  0  0  0  0  0  0  0  0  0  0
   22.9459    6.2029   53.9929 C   0  0  0  0  0  0  0  0  0  0  0  0
   24.2901    6.0775   54.3234 C   0  0  0  0  0  0  0  0  0  0  0  0
   25.1610    7.0913   54.0126 C   0  0  0  0  0  0  0  0  0  0  0  0
   24.6543    8.2051   53.3777 C   0  0  0  0  0  0  0  0  0  0  0  0
   23.3105    8.3315   53.0472 C   0  0  0  0  0  0  0  0  0  0  0  0
   22.8497    9.4408   52.4362 N   0  0  0  0  0  0  0  0  0  0  0  0
   20.1340    6.3546   53.3177 C   0  0  0  0  0  0  0  0  0  0  0  0
   20.4670    5.0269   53.3331 C   0  0  0  0  0  0  0  0  0  0  0  0
   19.5321    4.0298   53.5784 C   0  0  0  0  0  0  0  0  0  0  0  0
   18.2203    4.4381   53.8121 C   0  0  0  0  0  0  0  0  0  0  0  0
   17.2866    3.5120   54.0529 F   0  0  0  0  0  0  0  0  0  0  0  0
   17.8883    5.7781   53.7957 C   0  0  0  0  0  0  0  0  0  0  0  0
   18.8207    6.7567   53.5521 C   0  0  0  0  0  0  0  0  0  0  0  0
   21.5105   12.0913   51.9282 N   0  0  0  0  0  0  0  0  0  0  0  0
   21.1133   10.8173   51.4547 C   0  0  0  0  0  0  0  0  0  0  0  0
   20.3712   10.7088   50.4519 O   0  0  0  0  0  0  0  0  0  0  0  0
   22.4291   12.2447   52.4405 H   0  0  0  0  0  0  0  0  0  0  0  0
   20.8797   12.9163   51.7705 H   0  0  0  0  0  0  0  0  0  0  0  0
   26.5984    6.9727   54.3595 C   0  0  0  0  0  0  0  0  0  0  0  0
   27.0143    8.1646   55.0811 N   0  0  0  0  0  0  0  0  0  0  0  0
   26.1506    8.9723   55.8696 C   0  0  0  0  0  0  0  0  0  0  0  0
   24.8974    9.0598   55.8154 O   0  0  0  0  0  0  0  0  0  0  0  0
   27.0444    9.7270   56.8112 C   0  0  0  0  0  0  0  0  0  0  0  0
   28.2386    9.9860   55.9046 C   0  0  0  0  0  0  0  0  0  0  0  0
   28.3463    8.7195   55.1192 C   0  0  0  0  0  0  0  0  0  0  0  0
   29.3788    8.2301   54.5960 O   0  0  0  0  0  0  0  0  0  0  0  0
 18 19  1  0  0  0
 19 20  2  0  0  0
 19  1  1  0  0  0
  1  2  2  0  0  0
  2  3  1  0  0  0
  3 11  1  0  0  0
 11 12  2  0  0  0
 12 13  1  0  0  0
 13 14  2  0  0  0
 14 15  1  0  0  0
 14 16  1  0  0  0
 16 17  2  0  0  0
  3  4  2  0  0  0
  4  5  1  0  0  0
  5  6  2  0  0  0
  6  7  1  0  0  0
  7 23  1  0  0  0
 23 24  1  0  0  0
 24 25  1  0  0  0
 25 26  2  0  0  0
 25 27  1  0  0  0
 27 28  1  0  0  0
 28 29  1  0  0  0
 29 30  2  0  0  0
  7  8  2  0  0  0
  8  9  1  0  0  0
  9 10  2  0  0  0
 10  1  1  0  0  0
 17 11  1  0  0  0
  9  4  1  0  0  0
 29 24  1  0  0  0
 18 21  1  0  0  0
 18 22  1  0  0  0
M  END
> <minimizedAffinity>
20.85717

> <CNNscore>
0.6109912992

> <CNNaffinity>
6.3826727867

> <CNN_VS>
3.8997576237

> <CNNaffinity_variance>
0.4553394914

$$$$
[H]c1c([H])c(-c2c([H])c(C(=O)N([H])[H])nc3c([H])c(C([H])([H])N4C(=O)C([H])([H])C([H])([H])C4=O)c([H])c([H])c23)c([H])c([H])c1F


 30 33  0  0  0  0  0  0  0  0999 V2000
   21.5107    9.5959   52.0341 C   0  0  0  0  0  0  0  0  0  0  0  0
   20.6511    8.5861   52.3685 C   0  0  0  0  0  0  0  0  0  0  0  0
   21.0661    7.4119   53.0144 C   0  0  0  0  0  0  0  0  0  0  0  0
   22.4085    7.3215   53.3039 C   0  0  0  0  0  0  0  0  0  0  0  0
   22.9179    6.2348   53.9398 C   0  0  0  0  0  0  0  0  0  0  0  0
   24.2655    6.1117   54.2572 C   0  0  0  0  0  0  0  0  0  0  0  0
   25.1344    7.1199   53.9233 C   0  0  0  0  0  0  0  0  0  0  0  0
   24.6224    8.2258   53.2789 C   0  0  0  0  0  0  0  0  0  0  0  0
   23.2752    8.3498   52.9614 C   0  0  0  0  0  0  0  0  0  0  0  0
   22.8093    9.4515   52.3405 N   0  0  0  0  0  0  0  0  0  0  0  0
   20.0990    6.3819   53.2931 C   0  0  0  0  0  0  0  0  0  0  0  0
   20.4282    5.0532   53.3134 C   0  0  0  0  0  0  0  0  0  0  0  0
   19.4946    4.0611   53.5823 C   0  0  0  0  0  0  0  0  0  0  0  0
   18.1883    4.4753   53.8351 C   0  0  0  0  0  0  0  0  0  0  0  0
   17.2560    3.5541   54.0989 F   0  0  0  0  0  0  0  0  0  0  0  0
   17.8601    5.8162   53.8138 C   0  0  0  0  0  0  0  0  0  0  0  0
   18.7911    6.7899   53.5467 C   0  0  0  0  0  0  0  0  0  0  0  0
   21.5616   12.0889   51.7349 N   0  0  0  0  0  0  0  0  0  0  0  0
   21.0644   10.8174   51.3593 C   0  0  0  0  0  0  0  0  0  0  0  0
   20.2261   10.7039   50.4361 O   0  0  0  0  0  0  0  0  0  0  0  0
   22.5308   12.2181   52.1518 H   0  0  0  0  0  0  0  0  0  0  0  0
   20.9564   12.9365   51.5989 H   0  0  0  0  0  0  0  0  0  0  0  0
   26.5753    7.0037   54.2560 C   0  0  0  0  0  0  0  0  0  0  0  0
   26.9722    8.1482   55.0604 N   0  0  0  0  0  0  0  0  0  0  0  0
   28.3049    8.6282   55.1775 C   0  0  0  0  0  0  0  0  0  0  0  0
   29.3790    8.0135   54.9553 O   0  0  0  0  0  0  0  0  0  0  0  0
   28.1864   10.0548   55.6313 C   0  0  0  0  0  0  0  0  0  0  0  0
   26.9904    9.9451   56.5655 C   0  0  0  0  0  0  0  0  0  0  0  0
   26.0998    8.9746   55.8600 C   0  0  0  0  0  0  0  0  0  0  0  0
   24.8486    8.8879   55.9400 O   0  0  0  0  0  0  0  0  0  0  0  0
 18 19  1  0  0  0
 19 20  2  0  0  0
 19  1  1  0  0  0
  1  2  2  0  0  0
  2  3  1  0  0  0
  3 11  1  0  0  0
 11 12  2  0  0  0
 12 13  1  0  0  0
 13 14  2  0  0  0
 14 15  1  0  0  0
 14 16  1  0  0  0
 16 17  2  0  0  0
  3  4  2  0  0  0
  4  5  1  0  0  0
  5  6  2  0  0  0
  6  7  1  0  0  0
  7 23  1  0  0  0
 23 24  1  0  0  0
 24 25  1  0  0  0
 25 26  2  0  0  0
 25 27  1  0  0  0
 27 28  1  0  0  0
 28 29  1  0  0  0
 29 30  2  0  0  0
  7  8  2  0  0  0
  8  9  1  0  0  0
  9 10  2  0  0  0
 10  1  1  0  0  0
 17 11  1  0  0  0
  9  4  1  0  0  0
 29 24  1  0  0  0
 18 21  1  0  0  0
 18 22  1  0  0  0
M  END
> <minimizedAffinity>
22.49636

> <CNNscore>
0.5890423656

> <CNNaffinity>
6.3347988129

> <CNN_VS>
3.7314648628

> <CNNaffinity_variance>
0.4629995227

$$$$
[H]c1c([H])c(-c2c([H])c(C(=O)N([H])[H])nc3c([H])c(C([H])([H])N4C(=O)C([H])([H])C([H])([H])C4=O)c([H])c([H])c23)c([H])c([H])c1F


 30 33  0  0  0  0  0  0  0  0999 V2000
   20.6551    6.3759   53.4665 C   0  0  0  0  0  0  0  0  0  0  0  0
   20.5664    7.6408   52.9541 C   0  0  0  0  0  0  0  0  0  0  0  0
   21.6434    8.5398   52.9476 C   0  0  0  0  0  0  0  0  0  0  0  0
   22.8205    8.0793   53.4918 C   0  0  0  0  0  0  0  0  0  0  0  0
   23.9311    8.8604   53.5259 C   0  0  0  0  0  0  0  0  0  0  0  0
   25.1397    8.4273   54.0585 C   0  0  0  0  0  0  0  0  0  0  0  0
   25.2360    7.1602   54.5762 C   0  0  0  0  0  0  0  0  0  0  0  0
   24.1120    6.3626   54.5429 C   0  0  0  0  0  0  0  0  0  0  0  0
   22.9034    6.7947   54.0104 C   0  0  0  0  0  0  0  0  0  0  0  0
   21.8285    5.9821   53.9854 N   0  0  0  0  0  0  0  0  0  0  0  0
   21.4497    9.8672   52.4238 C   0  0  0  0  0  0  0  0  0  0  0  0
   21.1301   10.0987   51.1129 C   0  0  0  0  0  0  0  0  0  0  0  0
   20.9436   11.3793   50.6093 C   0  0  0  0  0  0  0  0  0  0  0  0
   21.0964   12.4376   51.5030 C   0  0  0  0  0  0  0  0  0  0  0  0
   20.9261   13.6881   51.0616 F   0  0  0  0  0  0  0  0  0  0  0  0
   21.4188   12.2002   52.8243 C   0  0  0  0  0  0  0  0  0  0  0  0
   21.6012   10.9295   53.3126 C   0  0  0  0  0  0  0  0  0  0  0  0
   19.7212    4.0446   53.4615 N   0  0  0  0  0  0  0  0  0  0  0  0
   19.5224    5.4466   53.4673 C   0  0  0  0  0  0  0  0  0  0  0  0
   18.3675    5.9304   53.4733 O   0  0  0  0  0  0  0  0  0  0  0  0
   20.5834    3.5925   53.8881 H   0  0  0  0  0  0  0  0  0  0  0  0
   18.9950    3.4258   53.0222 H   0  0  0  0  0  0  0  0  0  0  0  0
   26.5192    6.6831   55.1473 C   0  0  0  0  0  0  0  0  0  0  0  0
   27.4988    7.7555   55.0795 N   0  0  0  0  0  0  0  0  0  0  0  0
   28.5599    7.8199   54.1361 C   0  0  0  0  0  0  0  0  0  0  0  0
   29.0743    6.8830   53.4738 O   0  0  0  0  0  0  0  0  0  0  0  0
   28.9655    9.2646   54.0761 C   0  0  0  0  0  0  0  0  0  0  0  0
   28.7907    9.6576   55.5356 C   0  0  0  0  0  0  0  0  0  0  0  0
   27.5599    8.9130   55.9398 C   0  0  0  0  0  0  0  0  0  0  0  0
   26.7408    9.2225   56.8413 O   0  0  0  0  0  0  0  0  0  0  0  0
 18 19  1  0  0  0
 19 20  2  0  0  0
 19  1  1  0  0  0
  1  2  2  0  0  0
  2  3  1  0  0  0
  3 11  1  0  0  0
 11 12  2  0  0  0
 12 13  1  0  0  0
 13 14  2  0  0  0
 14 15  1  0  0  0
 14 16  1  0  0  0
 16 17  2  0  0  0
  3  4  2  0  0  0
  4  5  1  0  0  0
  5  6  2  0  0  0
  6  7  1  0  0  0
  7 23  1  0  0  0
 23 24  1  0  0  0
 24 25  1  0  0  0
 25 26  2  0  0  0
 25 27  1  0  0  0
 27 28  1  0  0  0
 28 29  1  0  0  0
 29 30  2  0  0  0
  7  8  2  0  0  0
  8  9  1  0  0  0
  9 10  2  0  0  0
 10  1  1  0  0  0
 17 11  1  0  0  0
  9  4  1  0  0  0
 29 24  1  0  0  0
 18 21  1  0  0  0
 18 22  1  0  0  0
M  END
> <minimizedAffinity>
21.10407

> <CNNscore>
0.4861580729

> <CNNaffinity>
6.1477050781

> <CNN_VS>
2.9887564182

> <CNNaffinity_variance>
0.3522378206

$$$$
[H]c1c([H])c(-c2c([H])c(C(=O)N([H])[H])nc3c([H])c(C([H])([H])N4C(=O)C([H])([H])C([H])([H])C4=O)c([H])c([H])c23)c([H])c([H])c1F


 30 33  0  0  0  0  0  0  0  0999 V2000
   21.7688    9.9117   52.2289 C   0  0  0  0  0  0  0  0  0  0  0  0
   22.9812    9.8194   52.8550 C   0  0  0  0  0  0  0  0  0  0  0  0
   23.4334    8.6451   53.4753 C   0  0  0  0  0  0  0  0  0  0  0  0
   22.5818    7.5653   53.4225 C   0  0  0  0  0  0  0  0  0  0  0  0
   22.9233    6.3740   53.9785 C   0  0  0  0  0  0  0  0  0  0  0  0
   22.0944    5.2591   53.9371 C   0  0  0  0  0  0  0  0  0  0  0  0
   20.8757    5.3445   53.3124 C   0  0  0  0  0  0  0  0  0  0  0  0
   20.5246    6.5510   52.7453 C   0  0  0  0  0  0  0  0  0  0  0  0
   21.3528    7.6661   52.7858 C   0  0  0  0  0  0  0  0  0  0  0  0
   20.9799    8.8262   52.2102 N   0  0  0  0  0  0  0  0  0  0  0  0
   24.7074    8.6488   54.1466 C   0  0  0  0  0  0  0  0  0  0  0  0
   25.8514    8.1902   53.5507 C   0  0  0  0  0  0  0  0  0  0  0  0
   27.0793    8.1944   54.1992 C   0  0  0  0  0  0  0  0  0  0  0  0
   27.1040    8.6911   55.5010 C   0  0  0  0  0  0  0  0  0  0  0  0
   28.2649    8.7143   56.1637 F   0  0  0  0  0  0  0  0  0  0  0  0
   25.9482    9.1528   56.0986 C   0  0  0  0  0  0  0  0  0  0  0  0
   24.7385    9.1444   55.4484 C   0  0  0  0  0  0  0  0  0  0  0  0
   21.5490   12.4127   52.1667 N   0  0  0  0  0  0  0  0  0  0  0  0
   21.3082   11.1444   51.5848 C   0  0  0  0  0  0  0  0  0  0  0  0
   20.6923   11.0436   50.4993 O   0  0  0  0  0  0  0  0  0  0  0  0
   22.3905   12.6008   52.7882 H   0  0  0  0  0  0  0  0  0  0  0  0
   20.8764   13.1978   51.9810 H   0  0  0  0  0  0  0  0  0  0  0  0
   19.9801    4.1631   53.2592 C   0  0  0  0  0  0  0  0  0  0  0  0
   18.6250    4.5775   53.5854 N   0  0  0  0  0  0  0  0  0  0  0  0
   17.5134    3.6971   53.6808 C   0  0  0  0  0  0  0  0  0  0  0  0
   17.3790    2.5515   53.1802 O   0  0  0  0  0  0  0  0  0  0  0  0
   16.4952    4.4146   54.5195 C   0  0  0  0  0  0  0  0  0  0  0  0
   16.7051    5.8433   54.0399 C   0  0  0  0  0  0  0  0  0  0  0  0
   18.1865    5.9246   53.8620 C   0  0  0  0  0  0  0  0  0  0  0  0
   18.9100    6.9496   53.9360 O   0  0  0  0  0  0  0  0  0  0  0  0
 18 19  1  0  0  0
 19 20  2  0  0  0
 19  1  1  0  0  0
  1  2  2  0  0  0
  2  3  1  0  0  0
  3 11  1  0  0  0
 11 12  2  0  0  0
 12 13  1  0  0  0
 13 14  2  0  0  0
 14 15  1  0  0  0
 14 16  1  0  0  0
 16 17  2  0  0  0
  3  4  2  0  0  0
  4  5  1  0  0  0
  5  6  2  0  0  0
  6  7  1  0  0  0
  7 23  1  0  0  0
 23 24  1  0  0  0
 24 25  1  0  0  0
 25 26  2  0  0  0
 25 27  1  0  0  0
 27 28  1  0  0  0
 28 29  1  0  0  0
 29 30  2  0  0  0
  7  8  2  0  0  0
  8  9  1  0  0  0
  9 10  2  0  0  0
 10  1  1  0  0  0
 17 11  1  0  0  0
  9  4  1  0  0  0
 29 24  1  0  0  0
 18 21  1  0  0  0
 18 22  1  0  0  0
M  END
> <minimizedAffinity>
24.56379

> <CNNscore>
0.4853633642

> <CNNaffinity>
6.2496995926

> <CNN_VS>
3.0333752632

> <CNNaffinity_variance>
0.4521406293

$$$$
[H]c1c([H])c(-c2c([H])c(C(=O)N([H])[H])nc3c([H])c(C([H])([H])N4C(=O)C([H])([H])C([H])([H])C4=O)c([H])c([H])c23)c([H])c([H])c1F


 30 33  0  0  0  0  0  0  0  0999 V2000
   21.8231    9.9641   54.2187 C   0  0  0  0  0  0  0  0  0  0  0  0
   23.1765    9.8337   54.3660 C   0  0  0  0  0  0  0  0  0  0  0  0
   23.8404    8.6015   54.2698 C   0  0  0  0  0  0  0  0  0  0  0  0
   23.0491    7.5052   54.0133 C   0  0  0  0  0  0  0  0  0  0  0  0
   23.5877    6.2647   53.8868 C   0  0  0  0  0  0  0  0  0  0  0  0
   22.8225    5.1358   53.6188 C   0  0  0  0  0  0  0  0  0  0  0  0
   21.4638    5.2583   53.4716 C   0  0  0  0  0  0  0  0  0  0  0  0
   20.9120    6.5153   53.5978 C   0  0  0  0  0  0  0  0  0  0  0  0
   21.6762    7.6446   53.8654 C   0  0  0  0  0  0  0  0  0  0  0  0
   21.1023    8.8594   53.9710 N   0  0  0  0  0  0  0  0  0  0  0  0
   25.2644    8.5504   54.4786 C   0  0  0  0  0  0  0  0  0  0  0  0
   26.1353    8.1550   53.4992 C   0  0  0  0  0  0  0  0  0  0  0  0
   27.5082    8.1062   53.7021 C   0  0  0  0  0  0  0  0  0  0  0  0
   27.9740    8.4812   54.9608 C   0  0  0  0  0  0  0  0  0  0  0  0
   29.2889    8.4497   55.2009 F   0  0  0  0  0  0  0  0  0  0  0  0
   27.0926    8.8795   55.9460 C   0  0  0  0  0  0  0  0  0  0  0  0
   25.7362    8.9242   55.7352 C   0  0  0  0  0  0  0  0  0  0  0  0
   21.1877   12.1988   53.2654 N   0  0  0  0  0  0  0  0  0  0  0  0
   21.1419   11.2570   54.3217 C   0  0  0  0  0  0  0  0  0  0  0  0
   20.5146   11.5065   55.3763 O   0  0  0  0  0  0  0  0  0  0  0  0
   21.2950   11.9062   52.2491 H   0  0  0  0  0  0  0  0  0  0  0  0
   21.1136   13.2227   53.4879 H   0  0  0  0  0  0  0  0  0  0  0  0
   20.6336    4.0630   53.1845 C   0  0  0  0  0  0  0  0  0  0  0  0
   19.3206    4.2398   53.7839 N   0  0  0  0  0  0  0  0  0  0  0  0
   18.4195    5.2890   53.4566 C   0  0  0  0  0  0  0  0  0  0  0  0
   18.6738    6.3999   52.9254 O   0  0  0  0  0  0  0  0  0  0  0  0
   17.0611    4.8068   53.8780 C   0  0  0  0  0  0  0  0  0  0  0  0
   17.4228    4.0480   55.1464 C   0  0  0  0  0  0  0  0  0  0  0  0
   18.7208    3.3983   54.7917 C   0  0  0  0  0  0  0  0  0  0  0  0
   19.1999    2.3382   55.2671 O   0  0  0  0  0  0  0  0  0  0  0  0
 18 19  1  0  0  0
 19 20  2  0  0  0
 19  1  1  0  0  0
  1  2  2  0  0  0
  2  3  1  0  0  0
  3 11  1  0  0  0
 11 12  2  0  0  0
 12 13  1  0  0  0
 13 14  2  0  0  0
 14 15  1  0  0  0
 14 16  1  0  0  0
 16 17  2  0  0  0
  3  4  2  0  0  0
  4  5  1  0  0  0
  5  6  2  0  0  0
  6  7  1  0  0  0
  7 23  1  0  0  0
 23 24  1  0  0  0
 24 25  1  0  0  0
 25 26  2  0  0  0
 25 27  1  0  0  0
 27 28  1  0  0  0
 28 29  1  0  0  0
 29 30  2  0  0  0
  7  8  2  0  0  0
  8  9  1  0  0  0
  9 10  2  0  0  0
 10  1  1  0  0  0
 17 11  1  0  0  0
  9  4  1  0  0  0
 29 24  1  0  0  0
 18 21  1  0  0  0
 18 22  1  0  0  0
M  END
> <minimizedAffinity>
27.07401

> <CNNscore>
0.4633166194

> <CNNaffinity>
6.2357392311

> <CNN_VS>
2.8891215324

> <CNNaffinity_variance>
0.5093094110

$$$$
[H]c1c([H])c(-c2c([H])c(C(=O)N([H])[H])nc3c([H])c(C([H])([H])N4C(=O)C([H])([H])C([H])([H])C4=O)c([H])c([H])c23)c([H])c([H])c1F


 30 33  0  0  0  0  0  0  0  0999 V2000
   24.4489    8.4075   54.8463 C   0  0  0  0  0  0  0  0  0  0  0  0
   23.7694    9.2453   54.0056 C   0  0  0  0  0  0  0  0  0  0  0  0
   22.6106    8.8599   53.3151 C   0  0  0  0  0  0  0  0  0  0  0  0
   22.1784    7.5709   53.5286 C   0  0  0  0  0  0  0  0  0  0  0  0
   21.0598    7.0959   52.9220 C   0  0  0  0  0  0  0  0  0  0  0  0
   20.5873    5.8039   53.1201 C   0  0  0  0  0  0  0  0  0  0  0  0
   21.2646    4.9568   53.9606 C   0  0  0  0  0  0  0  0  0  0  0  0
   22.4000    5.4342   54.5799 C   0  0  0  0  0  0  0  0  0  0  0  0
   22.8730    6.7259   54.3827 C   0  0  0  0  0  0  0  0  0  0  0  0
   23.9810    7.1609   55.0146 N   0  0  0  0  0  0  0  0  0  0  0  0
   21.9813    9.7946   52.4183 C   0  0  0  0  0  0  0  0  0  0  0  0
   21.1106    9.3984   51.4391 C   0  0  0  0  0  0  0  0  0  0  0  0
   20.5045   10.3010   50.5750 C   0  0  0  0  0  0  0  0  0  0  0  0
   20.8211   11.6474   50.7448 C   0  0  0  0  0  0  0  0  0  0  0  0
   20.2608   12.5518   49.9352 F   0  0  0  0  0  0  0  0  0  0  0  0
   21.6998   12.0431   51.7335 C   0  0  0  0  0  0  0  0  0  0  0  0
   22.2940   11.1424   52.5832 C   0  0  0  0  0  0  0  0  0  0  0  0
   26.9469    8.4606   55.0992 N   0  0  0  0  0  0  0  0  0  0  0  0
   25.6584    8.8224   55.5615 C   0  0  0  0  0  0  0  0  0  0  0  0
   25.5190    9.5098   56.5988 O   0  0  0  0  0  0  0  0  0  0  0  0
   27.1535    8.2921   54.0702 H   0  0  0  0  0  0  0  0  0  0  0  0
   27.7289    8.3539   55.7924 H   0  0  0  0  0  0  0  0  0  0  0  0
   20.7724    3.5752   54.1829 C   0  0  0  0  0  0  0  0  0  0  0  0
   19.3193    3.5729   54.1297 N   0  0  0  0  0  0  0  0  0  0  0  0
   18.4707    3.5524   55.2697 C   0  0  0  0  0  0  0  0  0  0  0  0
   18.7423    3.1786   56.4391 O   0  0  0  0  0  0  0  0  0  0  0  0
   17.1446    4.0784   54.8009 C   0  0  0  0  0  0  0  0  0  0  0  0
   17.0927    3.4795   53.4031 C   0  0  0  0  0  0  0  0  0  0  0  0
   18.5077    3.5906   52.9362 C   0  0  0  0  0  0  0  0  0  0  0  0
   18.9167    3.6812   51.7514 O   0  0  0  0  0  0  0  0  0  0  0  0
 18 19  1  0  0  0
 19 20  2  0  0  0
 19  1  1  0  0  0
  1  2  2  0  0  0
  2  3  1  0  0  0
  3 11  1  0  0  0
 11 12  2  0  0  0
 12 13  1  0  0  0
 13 14  2  0  0  0
 14 15  1  0  0  0
 14 16  1  0  0  0
 16 17  2  0  0  0
  3  4  2  0  0  0
  4  5  1  0  0  0
  5  6  2  0  0  0
  6  7  1  0  0  0
  7 23  1  0  0  0
 23 24  1  0  0  0
 24 25  1  0  0  0
 25 26  2  0  0  0
 25 27  1  0  0  0
 27 28  1  0  0  0
 28 29  1  0  0  0
 29 30  2  0  0  0
  7  8  2  0  0  0
  8  9  1  0  0  0
  9 10  2  0  0  0
 10  1  1  0  0  0
 17 11  1  0  0  0
  9  4  1  0  0  0
 29 24  1  0  0  0
 18 21  1  0  0  0
 18 22  1  0  0  0
M  END
> <minimizedAffinity>
37.65410

> <CNNscore>
0.4496460855

> <CNNaffinity>
6.1661214828

> <CNN_VS>
2.7725722790

> <CNNaffinity_variance>
0.9071292877

$$$$
[H]c1c([H])c(-c2c([H])c(C(=O)N([H])[H])nc3c([H])c(C([H])([H])N4C(=O)C([H])([H])C([H])([H])C4=O)c([H])c([H])c23)c([H])c([H])c1F


 30 33  0  0  0  0  0  0  0  0999 V2000
   21.9593    6.3697   53.9078 C   0  0  0  0  0  0  0  0  0  0  0  0
   23.2826    6.6946   54.0242 C   0  0  0  0  0  0  0  0  0  0  0  0
   23.7255    7.9685   54.4105 C   0  0  0  0  0  0  0  0  0  0  0  0
   22.7446    8.8970   54.6741 C   0  0  0  0  0  0  0  0  0  0  0  0
   23.0593   10.1580   55.0688 C   0  0  0  0  0  0  0  0  0  0  0  0
   22.0970   11.1198   55.3529 C   0  0  0  0  0  0  0  0  0  0  0  0
   20.7673   10.8020   55.2366 C   0  0  0  0  0  0  0  0  0  0  0  0
   20.4422    9.5231   54.8376 C   0  0  0  0  0  0  0  0  0  0  0  0
   21.4036    8.5607   54.5536 C   0  0  0  0  0  0  0  0  0  0  0  0
   21.0472    7.3169   54.1766 N   0  0  0  0  0  0  0  0  0  0  0  0
   25.1396    8.2350   54.4684 C   0  0  0  0  0  0  0  0  0  0  0  0
   25.9537    8.1144   53.3745 C   0  0  0  0  0  0  0  0  0  0  0  0
   27.3172    8.3717   53.4318 C   0  0  0  0  0  0  0  0  0  0  0  0
   27.8342    8.7639   54.6650 C   0  0  0  0  0  0  0  0  0  0  0  0
   29.1421    9.0221   54.7666 F   0  0  0  0  0  0  0  0  0  0  0  0
   27.0100    8.8844   55.7660 C   0  0  0  0  0  0  0  0  0  0  0  0
   25.6625    8.6275   55.6988 C   0  0  0  0  0  0  0  0  0  0  0  0
   20.1435    4.7654   53.2475 N   0  0  0  0  0  0  0  0  0  0  0  0
   21.5098    5.0353   53.5032 C   0  0  0  0  0  0  0  0  0  0  0  0
   22.3733    4.1356   53.3894 O   0  0  0  0  0  0  0  0  0  0  0  0
   19.4733    5.5133   52.8993 H   0  0  0  0  0  0  0  0  0  0  0  0
   19.7745    3.7947   53.4055 H   0  0  0  0  0  0  0  0  0  0  0  0
   19.7284   11.8173   55.5371 C   0  0  0  0  0  0  0  0  0  0  0  0
   19.0627   11.4641   56.7807 N   0  0  0  0  0  0  0  0  0  0  0  0
   17.6632   11.2562   56.9154 C   0  0  0  0  0  0  0  0  0  0  0  0
   16.7373   11.6650   56.1694 O   0  0  0  0  0  0  0  0  0  0  0  0
   17.4911   10.4291   58.1570 C   0  0  0  0  0  0  0  0  0  0  0  0
   18.5858   11.0210   59.0326 C   0  0  0  0  0  0  0  0  0  0  0  0
   19.6956   11.2684   58.0631 C   0  0  0  0  0  0  0  0  0  0  0  0
   20.9284   11.3012   58.3049 O   0  0  0  0  0  0  0  0  0  0  0  0
 18 19  1  0  0  0
 19 20  2  0  0  0
 19  1  1  0  0  0
  1  2  2  0  0  0
  2  3  1  0  0  0
  3 11  1  0  0  0
 11 12  2  0  0  0
 12 13  1  0  0  0
 13 14  2  0  0  0
 14 15  1  0  0  0
 14 16  1  0  0  0
 16 17  2  0  0  0
  3  4  2  0  0  0
  4  5  1  0  0  0
  5  6  2  0  0  0
  6  7  1  0  0  0
  7 23  1  0  0  0
 23 24  1  0  0  0
 24 25  1  0  0  0
 25 26  2  0  0  0
 25 27  1  0  0  0
 27 28  1  0  0  0
 28 29  1  0  0  0
 29 30  2  0  0  0
  7  8  2  0  0  0
  8  9  1  0  0  0
  9 10  2  0  0  0
 10  1  1  0  0  0
 17 11  1  0  0  0
  9  4  1  0  0  0
 29 24  1  0  0  0
 18 21  1  0  0  0
 18 22  1  0  0  0
M  END
> <minimizedAffinity>
56.47539

> <CNNscore>
0.3876532316

> <CNNaffinity>
6.0253400803

> <CNN_VS>
2.3357424736

> <CNNaffinity_variance>
0.6812614202

$$$$
[H]c1c([H])c(-c2c([H])c(C(=O)N([H])[H])nc3c([H])c(C([H])([H])N4C(=O)C([H])([H])C([H])([H])C4=O)c([H])c([H])c23)c([H])c([H])c1F


 30 33  0  0  0  0  0  0  0  0999 V2000
   24.5063    7.8216   54.3975 C   0  0  0  0  0  0  0  0  0  0  0  0
   23.8524    8.7496   53.6348 C   0  0  0  0  0  0  0  0  0  0  0  0
   22.5182    8.6007   53.2274 C   0  0  0  0  0  0  0  0  0  0  0  0
   21.8828    7.4522   53.6411 C   0  0  0  0  0  0  0  0  0  0  0  0
   20.5863    7.2110   53.3158 C   0  0  0  0  0  0  0  0  0  0  0  0
   19.9085    6.0679   53.7227 C   0  0  0  0  0  0  0  0  0  0  0  0
   20.5584    5.1313   54.4865 C   0  0  0  0  0  0  0  0  0  0  0  0
   21.8741    5.3717   54.8206 C   0  0  0  0  0  0  0  0  0  0  0  0
   22.5525    6.5145   54.4145 C   0  0  0  0  0  0  0  0  0  0  0  0
   23.8360    6.7203   54.7702 N   0  0  0  0  0  0  0  0  0  0  0  0
   21.9204    9.6092   52.3911 C   0  0  0  0  0  0  0  0  0  0  0  0
   22.0920   10.9479   52.6202 C   0  0  0  0  0  0  0  0  0  0  0  0
   21.5149   11.9193   51.8129 C   0  0  0  0  0  0  0  0  0  0  0  0
   20.7417   11.4729   50.7428 C   0  0  0  0  0  0  0  0  0  0  0  0
   20.1668   12.3733   49.9388 F   0  0  0  0  0  0  0  0  0  0  0  0
   20.5710   10.1220   50.5148 C   0  0  0  0  0  0  0  0  0  0  0  0
   21.1462    9.1691   51.3195 C   0  0  0  0  0  0  0  0  0  0  0  0
   26.9551    7.3258   54.1437 N   0  0  0  0  0  0  0  0  0  0  0  0
   25.9003    7.9891   54.8162 C   0  0  0  0  0  0  0  0  0  0  0  0
   26.1331    8.7397   55.7911 O   0  0  0  0  0  0  0  0  0  0  0  0
   26.8966    7.0656   53.1148 H   0  0  0  0  0  0  0  0  0  0  0  0
   27.8274    7.0803   54.6749 H   0  0  0  0  0  0  0  0  0  0  0  0
   19.8484    3.9065   54.9293 C   0  0  0  0  0  0  0  0  0  0  0  0
   18.7545    3.6319   54.0114 N   0  0  0  0  0  0  0  0  0  0  0  0
   18.9089    3.0493   52.7242 C   0  0  0  0  0  0  0  0  0  0  0  0
   19.9399    3.0038   52.0059 O   0  0  0  0  0  0  0  0  0  0  0  0
   17.5655    2.4790   52.3705 C   0  0  0  0  0  0  0  0  0  0  0  0
   16.6530    3.5345   52.9775 C   0  0  0  0  0  0  0  0  0  0  0  0
   17.3552    3.8982   54.2453 C   0  0  0  0  0  0  0  0  0  0  0  0
   16.8423    4.3444   55.3022 O   0  0  0  0  0  0  0  0  0  0  0  0
 18 19  1  0  0  0
 19 20  2  0  0  0
 19  1  1  0  0  0
  1  2  2  0  0  0
  2  3  1  0  0  0
  3 11  1  0  0  0
 11 12  2  0  0  0
 12 13  1  0  0  0
 13 14  2  0  0  0
 14 15  1  0  0  0
 14 16  1  0  0  0
 16 17  2  0  0  0
  3  4  2  0  0  0
  4  5  1  0  0  0
  5  6  2  0  0  0
  6  7  1  0  0  0
  7 23  1  0  0  0
 23 24  1  0  0  0
 24 25  1  0  0  0
 25 26  2  0  0  0
 25 27  1  0  0  0
 27 28  1  0  0  0
 28 29  1  0  0  0
 29 30  2  0  0  0
  7  8  2  0  0  0
  8  9  1  0  0  0
  9 10  2  0  0  0
 10  1  1  0  0  0
 17 11  1  0  0  0
  9  4  1  0  0  0
 29 24  1  0  0  0
 18 21  1  0  0  0
 18 22  1  0  0  0
M  END
> <minimizedAffinity>
33.19629

> <CNNscore>
0.3432905078

> <CNNaffinity>
6.0122737885

> <CNN_VS>
2.0639564991

> <CNNaffinity_variance>
0.5484106541

$$$$
[H]c1c([H])c(-c2c([H])c(C(=O)N([H])[H])nc3c([H])c(C([H])([H])N4C(=O)C([H])([H])C([H])([H])C4=O)c([H])c([H])c23)c([H])c([H])c1F


 30 33  0  0  0  0  0  0  0  0999 V2000
   26.0510    8.7279   55.3365 C   0  0  0  0  0  0  0  0  0  0  0  0
   24.9499    9.5346   55.2533 C   0  0  0  0  0  0  0  0  0  0  0  0
   23.7069    9.0849   54.7832 C   0  0  0  0  0  0  0  0  0  0  0  0
   23.6450    7.7639   54.4021 C   0  0  0  0  0  0  0  0  0  0  0  0
   22.4882    7.2188   53.9442 C   0  0  0  0  0  0  0  0  0  0  0  0
   22.3845    5.8874   53.5592 C   0  0  0  0  0  0  0  0  0  0  0  0
   23.4854    5.0722   53.6379 C   0  0  0  0  0  0  0  0  0  0  0  0
   24.6618    5.6200   54.1033 C   0  0  0  0  0  0  0  0  0  0  0  0
   24.7664    6.9510   54.4887 C   0  0  0  0  0  0  0  0  0  0  0  0
   25.9311    7.4484   54.9493 N   0  0  0  0  0  0  0  0  0  0  0  0
   22.6104   10.0140   54.6914 C   0  0  0  0  0  0  0  0  0  0  0  0
   22.3627   10.7464   53.5617 C   0  0  0  0  0  0  0  0  0  0  0  0
   21.3050   11.6420   53.4747 C   0  0  0  0  0  0  0  0  0  0  0  0
   20.4915   11.7693   54.5990 C   0  0  0  0  0  0  0  0  0  0  0  0
   19.4610   12.6201   54.5600 F   0  0  0  0  0  0  0  0  0  0  0  0
   20.7444   11.0288   55.7365 C   0  0  0  0  0  0  0  0  0  0  0  0
   21.7934   10.1456   55.8124 C   0  0  0  0  0  0  0  0  0  0  0  0
   28.5196    9.0895   55.0496 N   0  0  0  0  0  0  0  0  0  0  0  0
   27.3438    9.2101   55.8292 C   0  0  0  0  0  0  0  0  0  0  0  0
   27.3790    9.7348   56.9656 O   0  0  0  0  0  0  0  0  0  0  0  0
   28.4971    9.0827   53.9869 H   0  0  0  0  0  0  0  0  0  0  0  0
   29.4483    9.0036   55.5327 H   0  0  0  0  0  0  0  0  0  0  0  0
   23.3904    3.6487   53.2315 C   0  0  0  0  0  0  0  0  0  0  0  0
   24.6898    3.2013   52.7562 N   0  0  0  0  0  0  0  0  0  0  0  0
   25.4469    2.1528   53.3458 C   0  0  0  0  0  0  0  0  0  0  0  0
   25.3621    1.6879   54.5109 O   0  0  0  0  0  0  0  0  0  0  0  0
   26.3989    1.6884   52.2813 C   0  0  0  0  0  0  0  0  0  0  0  0
   26.7269    3.0147   51.6116 C   0  0  0  0  0  0  0  0  0  0  0  0
   25.4172    3.7338   51.6289 C   0  0  0  0  0  0  0  0  0  0  0  0
   25.0216    4.6205   50.8310 O   0  0  0  0  0  0  0  0  0  0  0  0
 18 19  1  0  0  0
 19 20  2  0  0  0
 19  1  1  0  0  0
  1  2  2  0  0  0
  2  3  1  0  0  0
  3 11  1  0  0  0
 11 12  2  0  0  0
 12 13  1  0  0  0
 13 14  2  0  0  0
 14 15  1  0  0  0
 14 16  1  0  0  0
 16 17  2  0  0  0
  3  4  2  0  0  0
  4  5  1  0  0  0
  5  6  2  0  0  0
  6  7  1  0  0  0
  7 23  1  0  0  0
 23 24  1  0  0  0
 24 25  1  0  0  0
 25 26  2  0  0  0
 25 27  1  0  0  0
 27 28  1  0  0  0
 28 29  1  0  0  0
 29 30  2  0  0  0
  7  8  2  0  0  0
  8  9  1  0  0  0
  9 10  2  0  0  0
 10  1  1  0  0  0
 17 11  1  0  0  0
  9  4  1  0  0  0
 29 24  1  0  0  0
 18 21  1  0  0  0
 18 22  1  0  0  0
M  END
> <minimizedAffinity>
56.77687

> <CNNscore>
0.2933470309

> <CNNaffinity>
5.4607286453

> <CNN_VS>
1.6018885374

> <CNNaffinity_variance>
0.7120167017

$$$$
[H]c1c([H])c(-c2nc(-c3c([H])c(C([H])([H])[H])nc(C([H])([H])F)c3[H])c3n2C([H])([H])[C@@]([H])(C([H])([H])[H])OC([H])([H])C3([H])[H])c([H])c(Cl)c1OC([H])(F)F


 31 34  0  0  0  0  0  0  0  0999 V2000
   24.1082    6.0359   53.9493 C   0  0  0  0  0  0  0  0  0  0  0  0
   23.5875    7.4224   53.6261 C   0  0  0  0  0  0  0  0  0  0  0  0
   24.6198    8.2613   52.9321 C   0  0  0  0  0  0  0  0  0  0  0  0
   25.7309    8.6898   53.6996 N   0  0  0  0  0  0  0  0  0  0  0  0
   25.8395    8.8284   55.0615 C   0  0  0  0  0  0  0  0  0  0  0  0
   24.7377    8.5561   55.9999 C   0  0  0  0  0  0  0  0  0  0  0  0
   23.4508    9.0105   55.3339 C   0  0  0  0  0  0  0  0  0  0  0  0
   22.9468    7.9177   54.6922 O   0  0  0  0  0  0  0  0  0  0  0  0
   27.0789    9.2221   55.4098 C   0  0  0  0  0  0  0  0  0  0  0  0
   27.7457    9.3286   54.2564 N   0  0  0  0  0  0  0  0  0  0  0  0
   26.9276    9.0067   53.2076 C   0  0  0  0  0  0  0  0  0  0  0  0
   27.4840    9.0328   51.8535 C   0  0  0  0  0  0  0  0  0  0  0  0
   27.9964    7.8452   51.3146 C   0  0  0  0  0  0  0  0  0  0  0  0
   28.5688    7.8147   50.0831 C   0  0  0  0  0  0  0  0  0  0  0  0
   28.6805    8.9571   49.2849 C   0  0  0  0  0  0  0  0  0  0  0  0
   28.1790   10.1117   49.8179 C   0  0  0  0  0  0  0  0  0  0  0  0
   28.2295   11.6501   48.9597 Cl  0  0  0  0  0  0  0  0  0  0  0  0
   27.5844   10.1540   51.0939 C   0  0  0  0  0  0  0  0  0  0  0  0
   29.2520    8.8407   48.0957 O   0  0  0  0  0  0  0  0  0  0  0  0
   29.3424    8.0328   47.0163 C   0  0  0  0  0  0  0  0  0  0  0  0
   29.0501    6.6867   47.3426 F   0  0  0  0  0  0  0  0  0  0  0  0
   28.3641    8.3901   46.0479 F   0  0  0  0  0  0  0  0  0  0  0  0
   27.6459    9.4711   56.7405 C   0  0  0  0  0  0  0  0  0  0  0  0
   28.1189    8.4613   57.5427 C   0  0  0  0  0  0  0  0  0  0  0  0
   28.6569    8.7591   58.7703 C   0  0  0  0  0  0  0  0  0  0  0  0
   29.1610    7.6495   59.6161 C   0  0  0  0  0  0  0  0  0  0  0  0
   28.7112   10.0382   59.1682 N   0  0  0  0  0  0  0  0  0  0  0  0
   28.2630   11.0616   58.4242 C   0  0  0  0  0  0  0  0  0  0  0  0
   27.7282   10.7705   57.2039 C   0  0  0  0  0  0  0  0  0  0  0  0
   28.3685   12.4508   58.9579 C   0  0  0  0  0  0  0  0  0  0  0  0
   29.3891   12.4540   59.9112 F   0  0  0  0  0  0  0  0  0  0  0  0
  1  2  1  0  0  0
  2  3  1  0  0  0
  3  4  1  0  0  0
  4  5  1  0  0  0
  5  6  1  0  0  0
  6  7  1  0  0  0
  7  8  1  0  0  0
  5  9  2  0  0  0
  9 10  1  0  0  0
 10 11  2  0  0  0
 11 12  1  0  0  0
 12 13  2  0  0  0
 13 14  1  0  0  0
 14 15  2  0  0  0
 15 19  1  0  0  0
 19 20  1  0  0  0
 20 21  1  0  0  0
 20 22  1  0  0  0
 15 16  1  0  0  0
 16 17  1  0  0  0
 16 18  2  0  0  0
  9 23  1  0  0  0
 23 24  2  0  0  0
 24 25  1  0  0  0
 25 26  1  0  0  0
 25 27  2  0  0  0
 27 28  1  0  0  0
 28 30  1  0  0  0
 30 31  1  0  0  0
 28 29  2  0  0  0
  8  2  1  0  0  0
 18 12  1  0  0  0
 29 23  1  0  0  0
 11  4  1  0  0  0
M  END
> <minimizedAffinity>
32.86619

> <CNNscore>
0.5308893323

> <CNNaffinity>
5.8912949562

> <CNN_VS>
3.1276257038

> <CNNaffinity_variance>
0.4165926576

$$$$
[H]c1c([H])c(-c2nc(-c3c([H])c(C([H])([H])[H])nc(C([H])([H])F)c3[H])c3n2C([H])([H])[C@@]([H])(C([H])([H])[H])OC([H])([H])C3([H])[H])c([H])c(Cl)c1OC([H])(F)F


 31 34  0  0  0  0  0  0  0  0999 V2000
   20.5788   10.5677   56.1139 C   0  0  0  0  0  0  0  0  0  0  0  0
   20.5995   10.6909   54.6031 C   0  0  0  0  0  0  0  0  0  0  0  0
   20.6782    9.3512   53.9324 C   0  0  0  0  0  0  0  0  0  0  0  0
   21.8982    8.6397   54.0448 N   0  0  0  0  0  0  0  0  0  0  0  0
   23.1587    9.1197   54.3028 C   0  0  0  0  0  0  0  0  0  0  0  0
   23.4649   10.5474   54.4944 C   0  0  0  0  0  0  0  0  0  0  0  0
   22.5797   11.3336   53.5434 C   0  0  0  0  0  0  0  0  0  0  0  0
   21.4562   11.6558   54.2463 O   0  0  0  0  0  0  0  0  0  0  0  0
   24.0529    8.1158   54.3734 C   0  0  0  0  0  0  0  0  0  0  0  0
   23.3433    7.0038   54.1584 N   0  0  0  0  0  0  0  0  0  0  0  0
   22.0267    7.3169   53.9550 C   0  0  0  0  0  0  0  0  0  0  0  0
   21.0754    6.2265   53.7312 C   0  0  0  0  0  0  0  0  0  0  0  0
   19.7052    6.4955   53.8480 C   0  0  0  0  0  0  0  0  0  0  0  0
   18.7754    5.5165   53.6993 C   0  0  0  0  0  0  0  0  0  0  0  0
   19.1262    4.1917   53.4229 C   0  0  0  0  0  0  0  0  0  0  0  0
   20.4647    3.9371   53.3113 C   0  0  0  0  0  0  0  0  0  0  0  0
   21.0963    2.3286   52.9657 Cl  0  0  0  0  0  0  0  0  0  0  0  0
   21.4364    4.9448   53.4644 C   0  0  0  0  0  0  0  0  0  0  0  0
   18.1572    3.2981   53.2922 O   0  0  0  0  0  0  0  0  0  0  0  0
   16.9428    2.9456   53.7686 C   0  0  0  0  0  0  0  0  0  0  0  0
   16.1997    4.0722   54.1958 F   0  0  0  0  0  0  0  0  0  0  0  0
   16.1562    2.3647   52.7360 F   0  0  0  0  0  0  0  0  0  0  0  0
   25.4940    8.1593   54.6483 C   0  0  0  0  0  0  0  0  0  0  0  0
   26.4116    7.4735   53.8904 C   0  0  0  0  0  0  0  0  0  0  0  0
   27.7493    7.5697   54.1846 C   0  0  0  0  0  0  0  0  0  0  0  0
   28.7189    6.8192   53.3496 C   0  0  0  0  0  0  0  0  0  0  0  0
   28.1397    8.3356   55.2134 N   0  0  0  0  0  0  0  0  0  0  0  0
   27.2851    9.0253   55.9852 C   0  0  0  0  0  0  0  0  0  0  0  0
   25.9555    8.9329   55.6964 C   0  0  0  0  0  0  0  0  0  0  0  0
   27.8204    9.8495   57.1077 C   0  0  0  0  0  0  0  0  0  0  0  0
   28.1647    8.9738   58.1396 F   0  0  0  0  0  0  0  0  0  0  0  0
  1  2  1  0  0  0
  2  3  1  0  0  0
  3  4  1  0  0  0
  4  5  1  0  0  0
  5  6  1  0  0  0
  6  7  1  0  0  0
  7  8  1  0  0  0
  5  9  2  0  0  0
  9 10  1  0  0  0
 10 11  2  0  0  0
 11 12  1  0  0  0
 12 13  2  0  0  0
 13 14  1  0  0  0
 14 15  2  0  0  0
 15 19  1  0  0  0
 19 20  1  0  0  0
 20 21  1  0  0  0
 20 22  1  0  0  0
 15 16  1  0  0  0
 16 17  1  0  0  0
 16 18  2  0  0  0
  9 23  1  0  0  0
 23 24  2  0  0  0
 24 25  1  0  0  0
 25 26  1  0  0  0
 25 27  2  0  0  0
 27 28  1  0  0  0
 28 30  1  0  0  0
 30 31  1  0  0  0
 28 29  2  0  0  0
  8  2  1  0  0  0
 18 12  1  0  0  0
 29 23  1  0  0  0
 11  4  1  0  0  0
M  END
> <minimizedAffinity>
32.77238

> <CNNscore>
0.4979994297

> <CNNaffinity>
6.5176100731

> <CNN_VS>
3.2457661629

> <CNNaffinity_variance>
0.6674005985

$$$$
[H]c1c([H])c(-c2nc(-c3c([H])c(C([H])([H])[H])nc(C([H])([H])F)c3[H])c3n2C([H])([H])[C@@]([H])(C([H])([H])[H])OC([H])([H])C3([H])[H])c([H])c(Cl)c1OC([H])(F)F


 31 34  0  0  0  0  0  0  0  0999 V2000
   21.6712    5.9976   52.3930 C   0  0  0  0  0  0  0  0  0  0  0  0
   21.0301    6.4613   53.6861 C   0  0  0  0  0  0  0  0  0  0  0  0
   21.0786    7.9536   53.8323 C   0  0  0  0  0  0  0  0  0  0  0  0
   22.3455    8.5417   54.0697 N   0  0  0  0  0  0  0  0  0  0  0  0
   23.4775    7.9727   54.5994 C   0  0  0  0  0  0  0  0  0  0  0  0
   23.5515    6.5741   55.0547 C   0  0  0  0  0  0  0  0  0  0  0  0
   22.2140    6.2307   55.6867 C   0  0  0  0  0  0  0  0  0  0  0  0
   21.4514    5.6882   54.6947 O   0  0  0  0  0  0  0  0  0  0  0  0
   24.4951    8.8539   54.6240 C   0  0  0  0  0  0  0  0  0  0  0  0
   23.9923    9.9784   54.1055 N   0  0  0  0  0  0  0  0  0  0  0  0
   22.6792    9.7952   53.7666 C   0  0  0  0  0  0  0  0  0  0  0  0
   21.9544   10.9084   53.1504 C   0  0  0  0  0  0  0  0  0  0  0  0
   22.0974   11.1231   51.7732 C   0  0  0  0  0  0  0  0  0  0  0  0
   21.4894   12.1667   51.1516 C   0  0  0  0  0  0  0  0  0  0  0  0
   20.6904   13.0825   51.8427 C   0  0  0  0  0  0  0  0  0  0  0  0
   20.5564   12.8667   53.1859 C   0  0  0  0  0  0  0  0  0  0  0  0
   19.5890   13.9149   54.2208 Cl  0  0  0  0  0  0  0  0  0  0  0  0
   21.1831   11.7882   53.8398 C   0  0  0  0  0  0  0  0  0  0  0  0
   20.1332   14.0719   51.1607 O   0  0  0  0  0  0  0  0  0  0  0  0
   20.3742   14.9887   50.1978 C   0  0  0  0  0  0  0  0  0  0  0  0
   21.7357   14.9967   49.8102 F   0  0  0  0  0  0  0  0  0  0  0  0
   19.6631   14.6583   49.0113 F   0  0  0  0  0  0  0  0  0  0  0  0
   25.8792    8.6776   55.0794 C   0  0  0  0  0  0  0  0  0  0  0  0
   26.8362    8.0590   54.3123 C   0  0  0  0  0  0  0  0  0  0  0  0
   28.1199    7.9419   54.7850 C   0  0  0  0  0  0  0  0  0  0  0  0
   29.1339    7.2700   53.9357 C   0  0  0  0  0  0  0  0  0  0  0  0
   28.4196    8.4355   55.9949 N   0  0  0  0  0  0  0  0  0  0  0  0
   27.5230    9.0479   56.7841 C   0  0  0  0  0  0  0  0  0  0  0  0
   26.2467    9.1669   56.3185 C   0  0  0  0  0  0  0  0  0  0  0  0
   27.9568    9.5631   58.1154 C   0  0  0  0  0  0  0  0  0  0  0  0
   28.7494    8.5762   58.7054 F   0  0  0  0  0  0  0  0  0  0  0  0
  1  2  1  0  0  0
  2  3  1  0  0  0
  3  4  1  0  0  0
  4  5  1  0  0  0
  5  6  1  0  0  0
  6  7  1  0  0  0
  7  8  1  0  0  0
  5  9  2  0  0  0
  9 10  1  0  0  0
 10 11  2  0  0  0
 11 12  1  0  0  0
 12 13  2  0  0  0
 13 14  1  0  0  0
 14 15  2  0  0  0
 15 19  1  0  0  0
 19 20  1  0  0  0
 20 21  1  0  0  0
 20 22  1  0  0  0
 15 16  1  0  0  0
 16 17  1  0  0  0
 16 18  2  0  0  0
  9 23  1  0  0  0
 23 24  2  0  0  0
 24 25  1  0  0  0
 25 26  1  0  0  0
 25 27  2  0  0  0
 27 28  1  0  0  0
 28 30  1  0  0  0
 30 31  1  0  0  0
 28 29  2  0  0  0
  8  2  1  0  0  0
 18 12  1  0  0  0
 29 23  1  0  0  0
 11  4  1  0  0  0
M  END
> <minimizedAffinity>
34.82673

> <CNNscore>
0.4919708073

> <CNNaffinity>
5.8749480247

> <CNN_VS>
2.8903028965

> <CNNaffinity_variance>
0.3741737306

$$$$
[H]c1c([H])c(-c2nc(-c3c([H])c(C([H])([H])[H])nc(C([H])([H])F)c3[H])c3n2C([H])([H])[C@@]([H])(C([H])([H])[H])OC([H])([H])C3([H])[H])c([H])c(Cl)c1OC([H])(F)F


 31 34  0  0  0  0  0  0  0  0999 V2000
   20.1375    7.0371   54.0640 C   0  0  0  0  0  0  0  0  0  0  0  0
   21.0561    6.8824   52.8680 C   0  0  0  0  0  0  0  0  0  0  0  0
   22.3882    7.5336   53.0962 C   0  0  0  0  0  0  0  0  0  0  0  0
   22.4209    8.9495   53.1325 N   0  0  0  0  0  0  0  0  0  0  0  0
   21.5358    9.8492   52.5910 C   0  0  0  0  0  0  0  0  0  0  0  0
   20.3455    9.4581   51.8171 C   0  0  0  0  0  0  0  0  0  0  0  0
   20.7191    8.2371   50.9949 C   0  0  0  0  0  0  0  0  0  0  0  0
   20.3766    7.1518   51.7463 O   0  0  0  0  0  0  0  0  0  0  0  0
   21.8948   11.1140   52.8804 C   0  0  0  0  0  0  0  0  0  0  0  0
   23.0106   11.0000   53.6072 N   0  0  0  0  0  0  0  0  0  0  0  0
   23.3386    9.6806   53.7633 C   0  0  0  0  0  0  0  0  0  0  0  0
   24.5198    9.3434   54.5602 C   0  0  0  0  0  0  0  0  0  0  0  0
   24.5711    9.7627   55.8962 C   0  0  0  0  0  0  0  0  0  0  0  0
   25.6592    9.5227   56.6732 C   0  0  0  0  0  0  0  0  0  0  0  0
   26.7848    8.8481   56.1909 C   0  0  0  0  0  0  0  0  0  0  0  0
   26.7274    8.4430   54.8866 C   0  0  0  0  0  0  0  0  0  0  0  0
   28.0495    7.5789   54.1051 Cl  0  0  0  0  0  0  0  0  0  0  0  0
   25.6044    8.6876   54.0727 C   0  0  0  0  0  0  0  0  0  0  0  0
   27.8036    8.6546   57.0149 O   0  0  0  0  0  0  0  0  0  0  0  0
   28.5793    9.2692   57.9350 C   0  0  0  0  0  0  0  0  0  0  0  0
   28.2748   10.6476   58.0413 F   0  0  0  0  0  0  0  0  0  0  0  0
   28.3219    8.7417   59.2304 F   0  0  0  0  0  0  0  0  0  0  0  0
   21.2390   12.3797   52.5308 C   0  0  0  0  0  0  0  0  0  0  0  0
   21.3703   12.9628   51.2940 C   0  0  0  0  0  0  0  0  0  0  0  0
   20.7154   14.1380   51.0197 C   0  0  0  0  0  0  0  0  0  0  0  0
   20.8740   14.7457   49.6758 C   0  0  0  0  0  0  0  0  0  0  0  0
   19.9548   14.7005   51.9697 N   0  0  0  0  0  0  0  0  0  0  0  0
   19.7934   14.1731   53.1934 C   0  0  0  0  0  0  0  0  0  0  0  0
   20.4416   13.0056   53.4701 C   0  0  0  0  0  0  0  0  0  0  0  0
   18.9249   14.8776   54.1810 C   0  0  0  0  0  0  0  0  0  0  0  0
   17.9949   13.9493   54.6541 F   0  0  0  0  0  0  0  0  0  0  0  0
  1  2  1  0  0  0
  2  3  1  0  0  0
  3  4  1  0  0  0
  4  5  1  0  0  0
  5  6  1  0  0  0
  6  7  1  0  0  0
  7  8  1  0  0  0
  5  9  2  0  0  0
  9 10  1  0  0  0
 10 11  2  0  0  0
 11 12  1  0  0  0
 12 13  2  0  0  0
 13 14  1  0  0  0
 14 15  2  0  0  0
 15 19  1  0  0  0
 19 20  1  0  0  0
 20 21  1  0  0  0
 20 22  1  0  0  0
 15 16  1  0  0  0
 16 17  1  0  0  0
 16 18  2  0  0  0
  9 23  1  0  0  0
 23 24  2  0  0  0
 24 25  1  0  0  0
 25 26  1  0  0  0
 25 27  2  0  0  0
 27 28  1  0  0  0
 28 30  1  0  0  0
 30 31  1  0  0  0
 28 29  2  0  0  0
  8  2  1  0  0  0
 18 12  1  0  0  0
 29 23  1  0  0  0
 11  4  1  0  0  0
M  END
> <minimizedAffinity>
34.70074

> <CNNscore>
0.4873320758

> <CNNaffinity>
6.1269521713

> <CNN_VS>
2.9858603477

> <CNNaffinity_variance>
0.3375181258

$$$$
[H]c1c([H])c(-c2nc(-c3c([H])c(C([H])([H])[H])nc(C([H])([H])F)c3[H])c3n2C([H])([H])[C@@]([H])(C([H])([H])[H])OC([H])([H])C3([H])[H])c([H])c(Cl)c1OC([H])(F)F


 31 34  0  0  0  0  0  0  0  0999 V2000
   20.3067    6.8997   54.1807 C   0  0  0  0  0  0  0  0  0  0  0  0
   21.1970    6.8233   52.9561 C   0  0  0  0  0  0  0  0  0  0  0  0
   22.5107    7.5143   53.1740 C   0  0  0  0  0  0  0  0  0  0  0  0
   22.4936    8.9281   53.2630 N   0  0  0  0  0  0  0  0  0  0  0  0
   21.5623    9.8139   52.7794 C   0  0  0  0  0  0  0  0  0  0  0  0
   20.3659    9.4081   52.0226 C   0  0  0  0  0  0  0  0  0  0  0  0
   20.7603    8.2330   51.1451 C   0  0  0  0  0  0  0  0  0  0  0  0
   20.4777    7.1087   51.8636 O   0  0  0  0  0  0  0  0  0  0  0  0
   21.8835   11.0796   53.1070 C   0  0  0  0  0  0  0  0  0  0  0  0
   23.0222   10.9800   53.7996 N   0  0  0  0  0  0  0  0  0  0  0  0
   23.4014    9.6687   53.8969 C   0  0  0  0  0  0  0  0  0  0  0  0
   24.6155    9.3461   54.6493 C   0  0  0  0  0  0  0  0  0  0  0  0
   24.7271    9.7983   55.9708 C   0  0  0  0  0  0  0  0  0  0  0  0
   25.8474    9.5727   56.7050 C   0  0  0  0  0  0  0  0  0  0  0  0
   26.9484    8.8812   56.1908 C   0  0  0  0  0  0  0  0  0  0  0  0
   26.8322    8.4441   54.9007 C   0  0  0  0  0  0  0  0  0  0  0  0
   28.1156    7.5548   54.0838 Cl  0  0  0  0  0  0  0  0  0  0  0  0
   25.6753    8.6734   54.1311 C   0  0  0  0  0  0  0  0  0  0  0  0
   28.0019    8.7036   56.9737 O   0  0  0  0  0  0  0  0  0  0  0  0
   28.6092    9.1686   58.0877 C   0  0  0  0  0  0  0  0  0  0  0  0
   28.5570   10.5812   58.1629 F   0  0  0  0  0  0  0  0  0  0  0  0
   27.9222    8.7197   59.2493 F   0  0  0  0  0  0  0  0  0  0  0  0
   21.1733   12.3323   52.8229 C   0  0  0  0  0  0  0  0  0  0  0  0
   20.2203   12.8489   53.6667 C   0  0  0  0  0  0  0  0  0  0  0  0
   19.6044   14.0361   53.3564 C   0  0  0  0  0  0  0  0  0  0  0  0
   18.5795   14.5719   54.2855 C   0  0  0  0  0  0  0  0  0  0  0  0
   19.9450   14.6748   52.2279 N   0  0  0  0  0  0  0  0  0  0  0  0
   20.8683   14.2137   51.3695 C   0  0  0  0  0  0  0  0  0  0  0  0
   21.4829   13.0350   51.6740 C   0  0  0  0  0  0  0  0  0  0  0  0
   21.1758   14.9999   50.1394 C   0  0  0  0  0  0  0  0  0  0  0  0
   20.1159   14.8121   49.2497 F   0  0  0  0  0  0  0  0  0  0  0  0
  1  2  1  0  0  0
  2  3  1  0  0  0
  3  4  1  0  0  0
  4  5  1  0  0  0
  5  6  1  0  0  0
  6  7  1  0  0  0
  7  8  1  0  0  0
  5  9  2  0  0  0
  9 10  1  0  0  0
 10 11  2  0  0  0
 11 12  1  0  0  0
 12 13  2  0  0  0
 13 14  1  0  0  0
 14 15  2  0  0  0
 15 19  1  0  0  0
 19 20  1  0  0  0
 20 21  1  0  0  0
 20 22  1  0  0  0
 15 16  1  0  0  0
 16 17  1  0  0  0
 16 18  2  0  0  0
  9 23  1  0  0  0
 23 24  2  0  0  0
 24 25  1  0  0  0
 25 26  1  0  0  0
 25 27  2  0  0  0
 27 28  1  0  0  0
 28 30  1  0  0  0
 30 31  1  0  0  0
 28 29  2  0  0  0
  8  2  1  0  0  0
 18 12  1  0  0  0
 29 23  1  0  0  0
 11  4  1  0  0  0
M  END
> <minimizedAffinity>
34.26482

> <CNNscore>
0.4691883922

> <CNNaffinity>
6.0062894821

> <CNN_VS>
2.8180813789

> <CNNaffinity_variance>
0.2498970479

$$$$
[H]c1c([H])c(-c2nc(-c3c([H])c(C([H])([H])[H])nc(C([H])([H])F)c3[H])c3n2C([H])([H])[C@@]([H])(C([H])([H])[H])OC([H])([H])C3([H])[H])c([H])c(Cl)c1OC([H])(F)F


 31 34  0  0  0  0  0  0  0  0999 V2000
   20.5132   10.6628   56.0937 C   0  0  0  0  0  0  0  0  0  0  0  0
   20.5774   10.7802   54.5837 C   0  0  0  0  0  0  0  0  0  0  0  0
   20.7101    9.4402   53.9222 C   0  0  0  0  0  0  0  0  0  0  0  0
   21.9433    8.7598   54.0757 N   0  0  0  0  0  0  0  0  0  0  0  0
   23.1829    9.2721   54.3700 C   0  0  0  0  0  0  0  0  0  0  0  0
   23.4475   10.7078   54.5639 C   0  0  0  0  0  0  0  0  0  0  0  0
   22.5729   11.4677   53.5822 C   0  0  0  0  0  0  0  0  0  0  0  0
   21.4206   11.7647   54.2486 O   0  0  0  0  0  0  0  0  0  0  0  0
   24.0992    8.2911   54.4730 C   0  0  0  0  0  0  0  0  0  0  0  0
   23.4243    7.1609   54.2417 N   0  0  0  0  0  0  0  0  0  0  0  0
   22.1073    7.4402   53.9964 C   0  0  0  0  0  0  0  0  0  0  0  0
   21.1906    6.3255   53.7488 C   0  0  0  0  0  0  0  0  0  0  0  0
   19.8117    6.5564   53.8402 C   0  0  0  0  0  0  0  0  0  0  0  0
   18.9121    5.5532   53.6687 C   0  0  0  0  0  0  0  0  0  0  0  0
   19.3042    4.2400   53.3927 C   0  0  0  0  0  0  0  0  0  0  0  0
   20.6511    4.0226   53.3058 C   0  0  0  0  0  0  0  0  0  0  0  0
   21.3331    2.4339   52.9646 Cl  0  0  0  0  0  0  0  0  0  0  0  0
   21.5918    5.0556   53.4827 C   0  0  0  0  0  0  0  0  0  0  0  0
   18.3628    3.3211   53.2387 O   0  0  0  0  0  0  0  0  0  0  0  0
   17.1687    2.9086   53.7182 C   0  0  0  0  0  0  0  0  0  0  0  0
   16.3949    3.9913   54.2009 F   0  0  0  0  0  0  0  0  0  0  0  0
   16.3857    2.3423   52.6747 F   0  0  0  0  0  0  0  0  0  0  0  0
   25.5296    8.3718   54.7919 C   0  0  0  0  0  0  0  0  0  0  0  0
   25.9976    8.9519   55.9457 C   0  0  0  0  0  0  0  0  0  0  0  0
   27.3470    8.9791   56.1979 C   0  0  0  0  0  0  0  0  0  0  0  0
   27.8254    9.6111   57.4519 C   0  0  0  0  0  0  0  0  0  0  0  0
   28.1903    8.4365   55.3081 N   0  0  0  0  0  0  0  0  0  0  0  0
   27.7857    7.8585   54.1662 C   0  0  0  0  0  0  0  0  0  0  0  0
   26.4462    7.8288   53.9117 C   0  0  0  0  0  0  0  0  0  0  0  0
   28.8046    7.2832   53.2405 C   0  0  0  0  0  0  0  0  0  0  0  0
   28.8011    5.8991   53.4262 F   0  0  0  0  0  0  0  0  0  0  0  0
  1  2  1  0  0  0
  2  3  1  0  0  0
  3  4  1  0  0  0
  4  5  1  0  0  0
  5  6  1  0  0  0
  6  7  1  0  0  0
  7  8  1  0  0  0
  5  9  2  0  0  0
  9 10  1  0  0  0
 10 11  2  0  0  0
 11 12  1  0  0  0
 12 13  2  0  0  0
 13 14  1  0  0  0
 14 15  2  0  0  0
 15 19  1  0  0  0
 19 20  1  0  0  0
 20 21  1  0  0  0
 20 22  1  0  0  0
 15 16  1  0  0  0
 16 17  1  0  0  0
 16 18  2  0  0  0
  9 23  1  0  0  0
 23 24  2  0  0  0
 24 25  1  0  0  0
 25 26  1  0  0  0
 25 27  2  0  0  0
 27 28  1  0  0  0
 28 30  1  0  0  0
 30 31  1  0  0  0
 28 29  2  0  0  0
  8  2  1  0  0  0
 18 12  1  0  0  0
 29 23  1  0  0  0
 11  4  1  0  0  0
M  END
> <minimizedAffinity>
35.77282

> <CNNscore>
0.4556985795

> <CNNaffinity>
6.3748221397

> <CNN_VS>
2.9049973488

> <CNNaffinity_variance>
0.6766521335

$$$$
[H]c1c([H])c(-c2nc(-c3c([H])c(C([H])([H])[H])nc(C([H])([H])F)c3[H])c3n2C([H])([H])[C@@]([H])(C([H])([H])[H])OC([H])([H])C3([H])[H])c([H])c(Cl)c1OC([H])(F)F


 31 34  0  0  0  0  0  0  0  0999 V2000
   20.5599   10.6002   56.2700 C   0  0  0  0  0  0  0  0  0  0  0  0
   20.5997   10.7405   54.7611 C   0  0  0  0  0  0  0  0  0  0  0  0
   20.7424    9.4124   54.0781 C   0  0  0  0  0  0  0  0  0  0  0  0
   21.9877    8.7486   54.2032 N   0  0  0  0  0  0  0  0  0  0  0  0
   23.2238    9.2753   54.4867 C   0  0  0  0  0  0  0  0  0  0  0  0
   23.4699   10.7118   54.6978 C   0  0  0  0  0  0  0  0  0  0  0  0
   22.5694   11.4726   53.7405 C   0  0  0  0  0  0  0  0  0  0  0  0
   21.4230   11.7424   54.4281 O   0  0  0  0  0  0  0  0  0  0  0  0
   24.1560    8.3068   54.5617 C   0  0  0  0  0  0  0  0  0  0  0  0
   23.4947    7.1700   54.3237 N   0  0  0  0  0  0  0  0  0  0  0  0
   22.1701    7.4329   54.1020 C   0  0  0  0  0  0  0  0  0  0  0  0
   21.2666    6.3082   53.8516 C   0  0  0  0  0  0  0  0  0  0  0  0
   21.8157    5.0784   53.4650 C   0  0  0  0  0  0  0  0  0  0  0  0
   21.0281    4.0111   53.1723 C   0  0  0  0  0  0  0  0  0  0  0  0
   19.6330    4.0743   53.2385 C   0  0  0  0  0  0  0  0  0  0  0  0
   19.1050    5.2776   53.6156 C   0  0  0  0  0  0  0  0  0  0  0  0
   17.3691    5.5470   53.7555 Cl  0  0  0  0  0  0  0  0  0  0  0  0
   19.9128    6.3901   53.9204 C   0  0  0  0  0  0  0  0  0  0  0  0
   18.9386    2.9873   52.9374 O   0  0  0  0  0  0  0  0  0  0  0  0
   17.7582    2.3663   53.1541 C   0  0  0  0  0  0  0  0  0  0  0  0
   16.7933    3.2484   53.6971 F   0  0  0  0  0  0  0  0  0  0  0  0
   17.1958    1.9298   51.9229 F   0  0  0  0  0  0  0  0  0  0  0  0
   25.5897    8.4045   54.8605 C   0  0  0  0  0  0  0  0  0  0  0  0
   26.5523    7.8521   54.0511 C   0  0  0  0  0  0  0  0  0  0  0  0
   27.8795    7.9942   54.3729 C   0  0  0  0  0  0  0  0  0  0  0  0
   28.8984    7.3884   53.4810 C   0  0  0  0  0  0  0  0  0  0  0  0
   28.2156    8.6733   55.4789 N   0  0  0  0  0  0  0  0  0  0  0  0
   27.3156    9.2316   56.3036 C   0  0  0  0  0  0  0  0  0  0  0  0
   25.9962    9.0932   55.9875 C   0  0  0  0  0  0  0  0  0  0  0  0
   27.7922    9.9673   57.5108 C   0  0  0  0  0  0  0  0  0  0  0  0
   28.2077    9.0135   58.4424 F   0  0  0  0  0  0  0  0  0  0  0  0
  1  2  1  0  0  0
  2  3  1  0  0  0
  3  4  1  0  0  0
  4  5  1  0  0  0
  5  6  1  0  0  0
  6  7  1  0  0  0
  7  8  1  0  0  0
  5  9  2  0  0  0
  9 10  1  0  0  0
 10 11  2  0  0  0
 11 12  1  0  0  0
 12 13  2  0  0  0
 13 14  1  0  0  0
 14 15  2  0  0  0
 15 19  1  0  0  0
 19 20  1  0  0  0
 20 21  1  0  0  0
 20 22  1  0  0  0
 15 16  1  0  0  0
 16 17  1  0  0  0
 16 18  2  0  0  0
  9 23  1  0  0  0
 23 24  2  0  0  0
 24 25  1  0  0  0
 25 26  1  0  0  0
 25 27  2  0  0  0
 27 28  1  0  0  0
 28 30  1  0  0  0
 30 31  1  0  0  0
 28 29  2  0  0  0
  8  2  1  0  0  0
 18 12  1  0  0  0
 29 23  1  0  0  0
 11  4  1  0  0  0
M  END
> <minimizedAffinity>
34.24586

> <CNNscore>
0.4373451769

> <CNNaffinity>
6.2915391922

> <CNN_VS>
2.7515742779

> <CNNaffinity_variance>
0.4611112475

$$$$
[H]c1c([H])c(-c2nc(-c3c([H])c(C([H])([H])[H])nc(C([H])([H])F)c3[H])c3n2C([H])([H])[C@@]([H])(C([H])([H])[H])OC([H])([H])C3([H])[H])c([H])c(Cl)c1OC([H])(F)F


 31 34  0  0  0  0  0  0  0  0999 V2000
   29.1518    7.3910   55.2689 C   0  0  0  0  0  0  0  0  0  0  0  0
   28.4543    8.6891   55.6244 C   0  0  0  0  0  0  0  0  0  0  0  0
   27.0506    8.7340   55.0967 C   0  0  0  0  0  0  0  0  0  0  0  0
   26.8878    8.8515   53.6943 N   0  0  0  0  0  0  0  0  0  0  0  0
   27.7654    9.3443   52.7600 C   0  0  0  0  0  0  0  0  0  0  0  0
   29.0942    9.8844   53.0936 C   0  0  0  0  0  0  0  0  0  0  0  0
   28.9665   10.6212   54.4153 C   0  0  0  0  0  0  0  0  0  0  0  0
   29.2784    9.7173   55.3877 O   0  0  0  0  0  0  0  0  0  0  0  0
   27.2545    9.2465   51.5183 C   0  0  0  0  0  0  0  0  0  0  0  0
   26.0510    8.6885   51.6816 N   0  0  0  0  0  0  0  0  0  0  0  0
   25.8199    8.4465   53.0086 C   0  0  0  0  0  0  0  0  0  0  0  0
   24.5606    7.8062   53.3934 C   0  0  0  0  0  0  0  0  0  0  0  0
   24.4729    6.4088   53.3384 C   0  0  0  0  0  0  0  0  0  0  0  0
   23.3182    5.7588   53.6368 C   0  0  0  0  0  0  0  0  0  0  0  0
   22.1563    6.4389   54.0138 C   0  0  0  0  0  0  0  0  0  0  0  0
   22.2496    7.8018   54.0643 C   0  0  0  0  0  0  0  0  0  0  0  0
   20.8904    8.8271   54.5191 Cl  0  0  0  0  0  0  0  0  0  0  0  0
   23.4419    8.4852   53.7562 C   0  0  0  0  0  0  0  0  0  0  0  0
   21.0725    5.7290   54.2888 O   0  0  0  0  0  0  0  0  0  0  0  0
   19.8167    5.4680   53.8635 C   0  0  0  0  0  0  0  0  0  0  0  0
   19.3980    6.3856   52.8701 F   0  0  0  0  0  0  0  0  0  0  0  0
   19.7644    4.1976   53.2264 F   0  0  0  0  0  0  0  0  0  0  0  0
   27.8436    9.6236   50.2280 C   0  0  0  0  0  0  0  0  0  0  0  0
   27.9680   10.9314   49.8267 C   0  0  0  0  0  0  0  0  0  0  0  0
   28.5466   11.2225   48.6161 C   0  0  0  0  0  0  0  0  0  0  0  0
   28.6691   12.6434   48.2076 C   0  0  0  0  0  0  0  0  0  0  0  0
   28.9825   10.2193   47.8408 N   0  0  0  0  0  0  0  0  0  0  0  0
   28.8847    8.9256   48.1849 C   0  0  0  0  0  0  0  0  0  0  0  0
   28.3110    8.6318   49.3867 C   0  0  0  0  0  0  0  0  0  0  0  0
   29.4004    7.8828   47.2507 C   0  0  0  0  0  0  0  0  0  0  0  0
   28.7476    8.0593   46.0288 F   0  0  0  0  0  0  0  0  0  0  0  0
  1  2  1  0  0  0
  2  3  1  0  0  0
  3  4  1  0  0  0
  4  5  1  0  0  0
  5  6  1  0  0  0
  6  7  1  0  0  0
  7  8  1  0  0  0
  5  9  2  0  0  0
  9 10  1  0  0  0
 10 11  2  0  0  0
 11 12  1  0  0  0
 12 13  2  0  0  0
 13 14  1  0  0  0
 14 15  2  0  0  0
 15 19  1  0  0  0
 19 20  1  0  0  0
 20 21  1  0  0  0
 20 22  1  0  0  0
 15 16  1  0  0  0
 16 17  1  0  0  0
 16 18  2  0  0  0
  9 23  1  0  0  0
 23 24  2  0  0  0
 24 25  1  0  0  0
 25 26  1  0  0  0
 25 27  2  0  0  0
 27 28  1  0  0  0
 28 30  1  0  0  0
 30 31  1  0  0  0
 28 29  2  0  0  0
  8  2  1  0  0  0
 18 12  1  0  0  0
 29 23  1  0  0  0
 11  4  1  0  0  0
M  END
> <minimizedAffinity>
33.00375

> <CNNscore>
0.4352151752

> <CNNaffinity>
6.0285530090

> <CNN_VS>
2.6237177849

> <CNNaffinity_variance>
0.0664246008

$$$$
[H]c1c([H])c(-c2nc(-c3c([H])c(C([H])([H])[H])nc(C([H])([H])F)c3[H])c3n2C([H])([H])[C@@]([H])(C([H])([H])[H])OC([H])([H])C3([H])[H])c([H])c(Cl)c1OC([H])(F)F


 31 34  0  0  0  0  0  0  0  0999 V2000
   20.9226   10.9033   53.0428 C   0  0  0  0  0  0  0  0  0  0  0  0
   21.1329   10.7102   54.5317 C   0  0  0  0  0  0  0  0  0  0  0  0
   22.3585    9.8958   54.8238 C   0  0  0  0  0  0  0  0  0  0  0  0
   22.3162    8.5184   54.4950 N   0  0  0  0  0  0  0  0  0  0  0  0
   21.2248    7.6997   54.3384 C   0  0  0  0  0  0  0  0  0  0  0  0
   19.8344    8.1495   54.5211 C   0  0  0  0  0  0  0  0  0  0  0  0
   19.8255    9.1435   55.6692 C   0  0  0  0  0  0  0  0  0  0  0  0
   19.9705   10.3774   55.1065 O   0  0  0  0  0  0  0  0  0  0  0  0
   21.6001    6.4570   53.9818 C   0  0  0  0  0  0  0  0  0  0  0  0
   22.9342    6.5034   53.9158 N   0  0  0  0  0  0  0  0  0  0  0  0
   23.3782    7.7592   54.2300 C   0  0  0  0  0  0  0  0  0  0  0  0
   24.8177    8.0233   54.1845 C   0  0  0  0  0  0  0  0  0  0  0  0
   25.5289    8.0800   55.3905 C   0  0  0  0  0  0  0  0  0  0  0  0
   26.8560    8.3682   55.4179 C   0  0  0  0  0  0  0  0  0  0  0  0
   27.5871    8.6237   54.2539 C   0  0  0  0  0  0  0  0  0  0  0  0
   26.8861    8.5673   53.0817 C   0  0  0  0  0  0  0  0  0  0  0  0
   27.6377    8.8599   51.5148 Cl  0  0  0  0  0  0  0  0  0  0  0  0
   25.5101    8.2701   53.0426 C   0  0  0  0  0  0  0  0  0  0  0  0
   28.8782    8.8962   54.3686 O   0  0  0  0  0  0  0  0  0  0  0  0
   29.7524    9.8978   54.6105 C   0  0  0  0  0  0  0  0  0  0  0  0
   29.7292   10.8735   53.5851 F   0  0  0  0  0  0  0  0  0  0  0  0
   29.3823   10.6034   55.7885 F   0  0  0  0  0  0  0  0  0  0  0  0
   20.7795    5.2758   53.6892 C   0  0  0  0  0  0  0  0  0  0  0  0
   21.3177    4.0970   53.2333 C   0  0  0  0  0  0  0  0  0  0  0  0
   20.5004    3.0194   52.9964 C   0  0  0  0  0  0  0  0  0  0  0  0
   21.1078    1.7582   52.5052 C   0  0  0  0  0  0  0  0  0  0  0  0
   19.1829    3.1367   53.2146 N   0  0  0  0  0  0  0  0  0  0  0  0
   18.6065    4.2648   53.6586 C   0  0  0  0  0  0  0  0  0  0  0  0
   19.4145    5.3375   53.8957 C   0  0  0  0  0  0  0  0  0  0  0  0
   17.1298    4.2936   53.8696 C   0  0  0  0  0  0  0  0  0  0  0  0
   16.8922    3.9365   55.1986 F   0  0  0  0  0  0  0  0  0  0  0  0
  1  2  1  0  0  0
  2  3  1  0  0  0
  3  4  1  0  0  0
  4  5  1  0  0  0
  5  6  1  0  0  0
  6  7  1  0  0  0
  7  8  1  0  0  0
  5  9  2  0  0  0
  9 10  1  0  0  0
 10 11  2  0  0  0
 11 12  1  0  0  0
 12 13  2  0  0  0
 13 14  1  0  0  0
 14 15  2  0  0  0
 15 19  1  0  0  0
 19 20  1  0  0  0
 20 21  1  0  0  0
 20 22  1  0  0  0
 15 16  1  0  0  0
 16 17  1  0  0  0
 16 18  2  0  0  0
  9 23  1  0  0  0
 23 24  2  0  0  0
 24 25  1  0  0  0
 25 26  1  0  0  0
 25 27  2  0  0  0
 27 28  1  0  0  0
 28 30  1  0  0  0
 30 31  1  0  0  0
 28 29  2  0  0  0
  8  2  1  0  0  0
 18 12  1  0  0  0
 29 23  1  0  0  0
 11  4  1  0  0  0
M  END
> <minimizedAffinity>
35.57417

> <CNNscore>
0.4351266026

> <CNNaffinity>
6.4391813278

> <CNN_VS>
2.8018591404

> <CNNaffinity_variance>
0.7225775719

$$$$
[H]c1c([H])c(-c2nc(-c3c([H])c(C([H])([H])[H])nc(C([H])([H])[H])c3[H])c3n2C([H])([H])[C@@]([H])(C([H])([H])[H])OC([H])([H])C3([H])[H])c([H])c(OC([H])([H])[H])c1F


 28 31  0  0  0  0  0  0  0  0999 V2000
   22.4087    6.9018   54.3693 C   0  0  0  0  0  0  0  0  0  0  0  0
   23.7831    6.8417   54.4425 N   0  0  0  0  0  0  0  0  0  0  0  0
   24.2968    8.0110   54.8370 C   0  0  0  0  0  0  0  0  0  0  0  0
   23.2485    8.8599   55.0292 C   0  0  0  0  0  0  0  0  0  0  0  0
   23.3253   10.2618   55.5214 C   0  0  0  0  0  0  0  0  0  0  0  0
   22.7872   11.1669   54.4641 C   0  0  0  0  0  0  0  0  0  0  0  0
   21.6953   10.7178   53.8123 O   0  0  0  0  0  0  0  0  0  0  0  0
   20.6813   10.1755   54.5100 C   0  0  0  0  0  0  0  0  0  0  0  0
   20.2376   10.8162   55.7717 C   0  0  0  0  0  0  0  0  0  0  0  0
   20.7692    8.6568   54.7133 C   0  0  0  0  0  0  0  0  0  0  0  0
   22.1113    8.1489   54.7296 N   0  0  0  0  0  0  0  0  0  0  0  0
   25.7331    8.3008   55.0320 C   0  0  0  0  0  0  0  0  0  0  0  0
   26.6900    7.8164   54.1792 C   0  0  0  0  0  0  0  0  0  0  0  0
   28.0482    8.1011   54.3683 C   0  0  0  0  0  0  0  0  0  0  0  0
   29.0673    7.5564   53.4180 C   0  0  0  0  0  0  0  0  0  0  0  0
   28.3901    8.8675   55.4164 N   0  0  0  0  0  0  0  0  0  0  0  0
   27.5003    9.3721   56.2878 C   0  0  0  0  0  0  0  0  0  0  0  0
   27.8906   10.2213   57.4475 C   0  0  0  0  0  0  0  0  0  0  0  0
   26.1540    9.0827   56.0899 C   0  0  0  0  0  0  0  0  0  0  0  0
   19.3585    4.8592   53.5749 C   0  0  0  0  0  0  0  0  0  0  0  0
   20.2166    5.8333   53.9993 C   0  0  0  0  0  0  0  0  0  0  0  0
   21.6196    5.7445   53.9315 C   0  0  0  0  0  0  0  0  0  0  0  0
   22.1239    4.5985   53.4003 C   0  0  0  0  0  0  0  0  0  0  0  0
   21.2803    3.5673   52.9505 C   0  0  0  0  0  0  0  0  0  0  0  0
   19.9254    3.7208   53.0477 C   0  0  0  0  0  0  0  0  0  0  0  0
   19.0956    2.7392   52.6202 F   0  0  0  0  0  0  0  0  0  0  0  0
   17.2746    3.9923   54.3818 C   0  0  0  0  0  0  0  0  0  0  0  0
   17.9677    4.9949   53.6640 O   0  0  0  0  0  0  0  0  0  0  0  0
 27 28  1  0  0  0
 28 20  1  0  0  0
 20 21  2  0  0  0
 21 22  1  0  0  0
 22 23  2  0  0  0
 23 24  1  0  0  0
 24 25  2  0  0  0
 25 26  1  0  0  0
 22  1  1  0  0  0
  1  2  2  0  0  0
  2  3  1  0  0  0
  3  4  2  0  0  0
  4  5  1  0  0  0
  5  6  1  0  0  0
  6  7  1  0  0  0
  7  8  1  0  0  0
  8  9  1  0  0  0
  8 10  1  0  0  0
 10 11  1  0  0  0
  3 12  1  0  0  0
 12 13  2  0  0  0
 13 14  1  0  0  0
 14 15  1  0  0  0
 14 16  2  0  0  0
 16 17  1  0  0  0
 17 18  1  0  0  0
 17 19  2  0  0  0
 25 20  1  0  0  0
 11  1  1  0  0  0
 19 12  1  0  0  0
 11  4  1  0  0  0
M  END
> <minimizedAffinity>
30.46231

> <CNNscore>
0.5849767923

> <CNNaffinity>
6.4044446945

> <CNN_VS>
3.7464516163

> <CNNaffinity_variance>
0.4749070108

$$$$
[H]c1c([H])c(-c2nc(-c3c([H])c(C([H])([H])[H])nc(C([H])([H])[H])c3[H])c3n2C([H])([H])[C@@]([H])(C([H])([H])[H])OC([H])([H])C3([H])[H])c([H])c(OC([H])([H])[H])c1F


 28 31  0  0  0  0  0  0  0  0999 V2000
   22.4058    6.9056   54.3750 C   0  0  0  0  0  0  0  0  0  0  0  0
   23.7802    6.8517   54.4543 N   0  0  0  0  0  0  0  0  0  0  0  0
   24.2869    8.0234   54.8508 C   0  0  0  0  0  0  0  0  0  0  0  0
   23.2339    8.8677   55.0381 C   0  0  0  0  0  0  0  0  0  0  0  0
   23.3022   10.2700   55.5303 C   0  0  0  0  0  0  0  0  0  0  0  0
   22.7647   11.1724   54.4703 C   0  0  0  0  0  0  0  0  0  0  0  0
   21.6777   10.7182   53.8138 O   0  0  0  0  0  0  0  0  0  0  0  0
   20.6631   10.1715   54.5071 C   0  0  0  0  0  0  0  0  0  0  0  0
   20.2110   10.8105   55.7667 C   0  0  0  0  0  0  0  0  0  0  0  0
   20.7570    8.6533   54.7112 C   0  0  0  0  0  0  0  0  0  0  0  0
   22.1013    8.1515   54.7336 N   0  0  0  0  0  0  0  0  0  0  0  0
   25.7209    8.3198   55.0522 C   0  0  0  0  0  0  0  0  0  0  0  0
   26.1590    9.0947   56.0940 C   0  0  0  0  0  0  0  0  0  0  0  0
   27.5204    9.3654   56.2806 C   0  0  0  0  0  0  0  0  0  0  0  0
   27.9648   10.2152   57.4288 C   0  0  0  0  0  0  0  0  0  0  0  0
   28.3917    8.8411   55.4039 N   0  0  0  0  0  0  0  0  0  0  0  0
   28.0258    8.0744   54.3627 C   0  0  0  0  0  0  0  0  0  0  0  0
   29.0009    7.4978   53.3958 C   0  0  0  0  0  0  0  0  0  0  0  0
   26.6708    7.8122   54.1875 C   0  0  0  0  0  0  0  0  0  0  0  0
   19.3685    4.8498   53.5658 C   0  0  0  0  0  0  0  0  0  0  0  0
   20.2202    5.8278   53.9939 C   0  0  0  0  0  0  0  0  0  0  0  0
   21.6239    5.7446   53.9340 C   0  0  0  0  0  0  0  0  0  0  0  0
   22.1359    4.6002   53.4067 C   0  0  0  0  0  0  0  0  0  0  0  0
   21.2990    3.5651   52.9533 C   0  0  0  0  0  0  0  0  0  0  0  0
   19.9430    3.7131   53.0429 C   0  0  0  0  0  0  0  0  0  0  0  0
   19.1196    2.7277   52.6118 F   0  0  0  0  0  0  0  0  0  0  0  0
   17.2894    4.0061   54.4088 C   0  0  0  0  0  0  0  0  0  0  0  0
   17.9767    4.9798   53.6470 O   0  0  0  0  0  0  0  0  0  0  0  0
 27 28  1  0  0  0
 28 20  1  0  0  0
 20 21  2  0  0  0
 21 22  1  0  0  0
 22 23  2  0  0  0
 23 24  1  0  0  0
 24 25  2  0  0  0
 25 26  1  0  0  0
 22  1  1  0  0  0
  1  2  2  0  0  0
  2  3  1  0  0  0
  3  4  2  0  0  0
  4  5  1  0  0  0
  5  6  1  0  0  0
  6  7  1  0  0  0
  7  8  1  0  0  0
  8  9  1  0  0  0
  8 10  1  0  0  0
 10 11  1  0  0  0
  3 12  1  0  0  0
 12 13  2  0  0  0
 13 14  1  0  0  0
 14 15  1  0  0  0
 14 16  2  0  0  0
 16 17  1  0  0  0
 17 18  1  0  0  0
 17 19  2  0  0  0
 25 20  1  0  0  0
 11  1  1  0  0  0
 19 12  1  0  0  0
 11  4  1  0  0  0
M  END
> <minimizedAffinity>
30.41960

> <CNNscore>
0.5844871402

> <CNNaffinity>
6.4071898460

> <CNN_VS>
3.7449200153

> <CNNaffinity_variance>
0.4828674793

$$$$
[H]c1c([H])c(-c2nc(-c3c([H])c(C([H])([H])[H])nc(C([H])([H])[H])c3[H])c3n2C([H])([H])[C@@]([H])(C([H])([H])[H])OC([H])([H])C3([H])[H])c([H])c(OC([H])([H])[H])c1F


 28 31  0  0  0  0  0  0  0  0999 V2000
   23.9065    7.6010   53.9984 C   0  0  0  0  0  0  0  0  0  0  0  0
   23.3430    6.3499   53.8752 N   0  0  0  0  0  0  0  0  0  0  0  0
   22.0136    6.4287   53.7602 C   0  0  0  0  0  0  0  0  0  0  0  0
   21.6894    7.7514   53.8071 C   0  0  0  0  0  0  0  0  0  0  0  0
   20.3274    8.3330   53.6653 C   0  0  0  0  0  0  0  0  0  0  0  0
   19.9872    9.0588   54.9239 C   0  0  0  0  0  0  0  0  0  0  0  0
   20.9917    9.7678   55.4780 O   0  0  0  0  0  0  0  0  0  0  0  0
   21.7669   10.5425   54.6983 C   0  0  0  0  0  0  0  0  0  0  0  0
   21.1411   11.3729   53.6408 C   0  0  0  0  0  0  0  0  0  0  0  0
   23.0165    9.8539   54.1326 C   0  0  0  0  0  0  0  0  0  0  0  0
   22.8708    8.4370   53.9576 N   0  0  0  0  0  0  0  0  0  0  0  0
   21.0916    5.2843   53.6014 C   0  0  0  0  0  0  0  0  0  0  0  0
   21.5291    4.0584   53.1731 C   0  0  0  0  0  0  0  0  0  0  0  0
   20.6493    2.9779   53.0314 C   0  0  0  0  0  0  0  0  0  0  0  0
   21.1601    1.6525   52.5617 C   0  0  0  0  0  0  0  0  0  0  0  0
   19.3553    3.1774   53.3284 N   0  0  0  0  0  0  0  0  0  0  0  0
   18.8645    4.3543   53.7525 C   0  0  0  0  0  0  0  0  0  0  0  0
   17.4267    4.5648   54.0793 C   0  0  0  0  0  0  0  0  0  0  0  0
   19.7477    5.4204   53.8897 C   0  0  0  0  0  0  0  0  0  0  0  0
   27.1254    8.8309   55.4928 C   0  0  0  0  0  0  0  0  0  0  0  0
   25.8106    8.6239   55.1868 C   0  0  0  0  0  0  0  0  0  0  0  0
   25.3548    7.7690   54.1659 C   0  0  0  0  0  0  0  0  0  0  0  0
   26.3141    7.1178   53.4548 C   0  0  0  0  0  0  0  0  0  0  0  0
   27.6806    7.2994   53.7326 C   0  0  0  0  0  0  0  0  0  0  0  0
   28.0521    8.1466   54.7390 C   0  0  0  0  0  0  0  0  0  0  0  0
   29.3633    8.3354   55.0222 F   0  0  0  0  0  0  0  0  0  0  0  0
   27.9100    9.0931   57.7424 C   0  0  0  0  0  0  0  0  0  0  0  0
   27.5291    9.6932   56.5195 O   0  0  0  0  0  0  0  0  0  0  0  0
 27 28  1  0  0  0
 28 20  1  0  0  0
 20 21  2  0  0  0
 21 22  1  0  0  0
 22 23  2  0  0  0
 23 24  1  0  0  0
 24 25  2  0  0  0
 25 26  1  0  0  0
 22  1  1  0  0  0
  1  2  2  0  0  0
  2  3  1  0  0  0
  3  4  2  0  0  0
  4  5  1  0  0  0
  5  6  1  0  0  0
  6  7  1  0  0  0
  7  8  1  0  0  0
  8  9  1  0  0  0
  8 10  1  0  0  0
 10 11  1  0  0  0
  3 12  1  0  0  0
 12 13  2  0  0  0
 13 14  1  0  0  0
 14 15  1  0  0  0
 14 16  2  0  0  0
 16 17  1  0  0  0
 17 18  1  0  0  0
 17 19  2  0  0  0
 25 20  1  0  0  0
 11  1  1  0  0  0
 19 12  1  0  0  0
 11  4  1  0  0  0
M  END
> <minimizedAffinity>
27.55872

> <CNNscore>
0.5477342010

> <CNNaffinity>
6.4045014381

> <CNN_VS>
3.5079643726

> <CNNaffinity_variance>
0.3027623892

$$$$
[H]c1c([H])c(-c2nc(-c3c([H])c(C([H])([H])[H])nc(C([H])([H])[H])c3[H])c3n2C([H])([H])[C@@]([H])(C([H])([H])[H])OC([H])([H])C3([H])[H])c([H])c(OC([H])([H])[H])c1F


 28 31  0  0  0  0  0  0  0  0999 V2000
   22.7570    9.6716   54.3335 C   0  0  0  0  0  0  0  0  0  0  0  0
   24.0617    9.8874   54.7201 N   0  0  0  0  0  0  0  0  0  0  0  0
   24.7497    8.7419   54.7570 C   0  0  0  0  0  0  0  0  0  0  0  0
   23.8898    7.7510   54.3890 C   0  0  0  0  0  0  0  0  0  0  0  0
   24.2185    6.3084   54.2330 C   0  0  0  0  0  0  0  0  0  0  0  0
   23.3937    5.5258   55.1993 C   0  0  0  0  0  0  0  0  0  0  0  0
   22.1171    5.9363   55.3427 O   0  0  0  0  0  0  0  0  0  0  0  0
   21.3875    6.2310   54.2519 C   0  0  0  0  0  0  0  0  0  0  0  0
   21.4597    5.3465   53.0638 C   0  0  0  0  0  0  0  0  0  0  0  0
   21.4528    7.6965   53.8007 C   0  0  0  0  0  0  0  0  0  0  0  0
   22.6808    8.3559   54.1422 N   0  0  0  0  0  0  0  0  0  0  0  0
   26.1758    8.6029   55.1200 C   0  0  0  0  0  0  0  0  0  0  0  0
   27.0740    7.9797   54.2937 C   0  0  0  0  0  0  0  0  0  0  0  0
   28.4247    7.8579   54.6432 C   0  0  0  0  0  0  0  0  0  0  0  0
   29.3791    7.1716   53.7177 C   0  0  0  0  0  0  0  0  0  0  0  0
   28.8189    8.3722   55.8191 N   0  0  0  0  0  0  0  0  0  0  0  0
   27.9880    8.9942   56.6726 C   0  0  0  0  0  0  0  0  0  0  0  0
   28.4359    9.5611   57.9750 C   0  0  0  0  0  0  0  0  0  0  0  0
   26.6485    9.1093   56.3148 C   0  0  0  0  0  0  0  0  0  0  0  0
   20.9720   12.6315   52.8639 C   0  0  0  0  0  0  0  0  0  0  0  0
   21.8375   11.6030   53.1054 C   0  0  0  0  0  0  0  0  0  0  0  0
   21.7975   10.7786   54.2454 C   0  0  0  0  0  0  0  0  0  0  0  0
   20.8171   11.0493   55.1484 C   0  0  0  0  0  0  0  0  0  0  0  0
   19.9032   12.0983   54.9437 C   0  0  0  0  0  0  0  0  0  0  0  0
   20.0014   12.8603   53.8131 C   0  0  0  0  0  0  0  0  0  0  0  0
   19.1309   13.8755   53.5973 F   0  0  0  0  0  0  0  0  0  0  0  0
   21.5258   12.7952   50.5376 C   0  0  0  0  0  0  0  0  0  0  0  0
   21.0532   13.4247   51.7128 O   0  0  0  0  0  0  0  0  0  0  0  0
 27 28  1  0  0  0
 28 20  1  0  0  0
 20 21  2  0  0  0
 21 22  1  0  0  0
 22 23  2  0  0  0
 23 24  1  0  0  0
 24 25  2  0  0  0
 25 26  1  0  0  0
 22  1  1  0  0  0
  1  2  2  0  0  0
  2  3  1  0  0  0
  3  4  2  0  0  0
  4  5  1  0  0  0
  5  6  1  0  0  0
  6  7  1  0  0  0
  7  8  1  0  0  0
  8  9  1  0  0  0
  8 10  1  0  0  0
 10 11  1  0  0  0
  3 12  1  0  0  0
 12 13  2  0  0  0
 13 14  1  0  0  0
 14 15  1  0  0  0
 14 16  2  0  0  0
 16 17  1  0  0  0
 17 18  1  0  0  0
 17 19  2  0  0  0
 25 20  1  0  0  0
 11  1  1  0  0  0
 19 12  1  0  0  0
 11  4  1  0  0  0
M  END
> <minimizedAffinity>
34.12654

> <CNNscore>
0.5342628360

> <CNNaffinity>
5.8233871460

> <CNN_VS>
3.1112194061

> <CNNaffinity_variance>
0.2169302404

$$$$
[H]c1c([H])c(-c2nc(-c3c([H])c(C([H])([H])[H])nc(C([H])([H])[H])c3[H])c3n2C([H])([H])[C@@]([H])(C([H])([H])[H])OC([H])([H])C3([H])[H])c([H])c(OC([H])([H])[H])c1F


 28 31  0  0  0  0  0  0  0  0999 V2000
   22.7068    8.8845   52.8533 C   0  0  0  0  0  0  0  0  0  0  0  0
   23.9558    9.2741   53.2847 N   0  0  0  0  0  0  0  0  0  0  0  0
   24.5347    8.3156   54.0149 C   0  0  0  0  0  0  0  0  0  0  0  0
   23.6577    7.2742   54.0688 C   0  0  0  0  0  0  0  0  0  0  0  0
   23.8855    5.9603   54.7286 C   0  0  0  0  0  0  0  0  0  0  0  0
   22.8690    5.7877   55.8073 C   0  0  0  0  0  0  0  0  0  0  0  0
   21.6232    6.2084   55.5075 O   0  0  0  0  0  0  0  0  0  0  0  0
   21.0843    5.8933   54.3162 C   0  0  0  0  0  0  0  0  0  0  0  0
   21.2529    4.5217   53.7778 C   0  0  0  0  0  0  0  0  0  0  0  0
   21.3341    6.9139   53.1975 C   0  0  0  0  0  0  0  0  0  0  0  0
   22.5506    7.6595   53.3516 N   0  0  0  0  0  0  0  0  0  0  0  0
   25.8777    8.3899   54.6279 C   0  0  0  0  0  0  0  0  0  0  0  0
   26.0881    9.0056   55.8339 C   0  0  0  0  0  0  0  0  0  0  0  0
   27.3632    9.0659   56.4101 C   0  0  0  0  0  0  0  0  0  0  0  0
   27.5582    9.7456   57.7285 C   0  0  0  0  0  0  0  0  0  0  0  0
   28.3820    8.5000   55.7434 N   0  0  0  0  0  0  0  0  0  0  0  0
   28.2410    7.8823   54.5584 C   0  0  0  0  0  0  0  0  0  0  0  0
   29.3783    7.2578   53.8271 C   0  0  0  0  0  0  0  0  0  0  0  0
   26.9698    7.8284   53.9957 C   0  0  0  0  0  0  0  0  0  0  0  0
   21.4997   12.0994   51.3319 C   0  0  0  0  0  0  0  0  0  0  0  0
   22.1612   11.1582   52.0681 C   0  0  0  0  0  0  0  0  0  0  0  0
   21.8643    9.7825   52.0548 C   0  0  0  0  0  0  0  0  0  0  0  0
   20.8450    9.3958   51.2415 C   0  0  0  0  0  0  0  0  0  0  0  0
   20.1343   10.3284   50.4652 C   0  0  0  0  0  0  0  0  0  0  0  0
   20.4761   11.6504   50.5282 C   0  0  0  0  0  0  0  0  0  0  0  0
   19.8038   12.5645   49.7884 F   0  0  0  0  0  0  0  0  0  0  0  0
   22.9243   13.8754   50.5825 C   0  0  0  0  0  0  0  0  0  0  0  0
   21.8329   13.4586   51.3799 O   0  0  0  0  0  0  0  0  0  0  0  0
 27 28  1  0  0  0
 28 20  1  0  0  0
 20 21  2  0  0  0
 21 22  1  0  0  0
 22 23  2  0  0  0
 23 24  1  0  0  0
 24 25  2  0  0  0
 25 26  1  0  0  0
 22  1  1  0  0  0
  1  2  2  0  0  0
  2  3  1  0  0  0
  3  4  2  0  0  0
  4  5  1  0  0  0
  5  6  1  0  0  0
  6  7  1  0  0  0
  7  8  1  0  0  0
  8  9  1  0  0  0
  8 10  1  0  0  0
 10 11  1  0  0  0
  3 12  1  0  0  0
 12 13  2  0  0  0
 13 14  1  0  0  0
 14 15  1  0  0  0
 14 16  2  0  0  0
 16 17  1  0  0  0
 17 18  1  0  0  0
 17 19  2  0  0  0
 25 20  1  0  0  0
 11  1  1  0  0  0
 19 12  1  0  0  0
 11  4  1  0  0  0
M  END
> <minimizedAffinity>
33.84998

> <CNNscore>
0.4717354178

> <CNNaffinity>
5.8043718338

> <CNN_VS>
2.7381277084

> <CNNaffinity_variance>
0.2239275277

$$$$
[H]c1c([H])c(-c2nc(-c3c([H])c(C([H])([H])[H])nc(C([H])([H])[H])c3[H])c3n2C([H])([H])[C@@]([H])(C([H])([H])[H])OC([H])([H])C3([H])[H])c([H])c(OC([H])([H])[H])c1F


 28 31  0  0  0  0  0  0  0  0999 V2000
   25.5453    8.3020   53.5014 C   0  0  0  0  0  0  0  0  0  0  0  0
   25.8318    8.5596   52.1787 N   0  0  0  0  0  0  0  0  0  0  0  0
   27.1135    8.9049   52.0210 C   0  0  0  0  0  0  0  0  0  0  0  0
   27.6868    8.8755   53.2567 C   0  0  0  0  0  0  0  0  0  0  0  0
   29.1168    9.1367   53.5740 C   0  0  0  0  0  0  0  0  0  0  0  0
   29.1940   10.3199   54.4800 C   0  0  0  0  0  0  0  0  0  0  0  0
   28.2465   10.3841   55.4376 O   0  0  0  0  0  0  0  0  0  0  0  0
   27.9442    9.2827   56.1479 C   0  0  0  0  0  0  0  0  0  0  0  0
   29.0357    8.4039   56.6334 C   0  0  0  0  0  0  0  0  0  0  0  0
   26.8170    8.4200   55.5641 C   0  0  0  0  0  0  0  0  0  0  0  0
   26.6976    8.5074   54.1367 N   0  0  0  0  0  0  0  0  0  0  0  0
   27.7656    9.2394   50.7374 C   0  0  0  0  0  0  0  0  0  0  0  0
   28.2500    8.2697   49.8990 C   0  0  0  0  0  0  0  0  0  0  0  0
   28.8610    8.5957   48.6817 C   0  0  0  0  0  0  0  0  0  0  0  0
   29.3789    7.5121   47.7895 C   0  0  0  0  0  0  0  0  0  0  0  0
   28.9606    9.8943   48.3559 N   0  0  0  0  0  0  0  0  0  0  0  0
   28.5063   10.8912   49.1340 C   0  0  0  0  0  0  0  0  0  0  0  0
   28.6220   12.3290   48.7629 C   0  0  0  0  0  0  0  0  0  0  0  0
   27.9009   10.5555   50.3408 C   0  0  0  0  0  0  0  0  0  0  0  0
   21.9641    8.7614   54.5361 C   0  0  0  0  0  0  0  0  0  0  0  0
   23.2696    8.9605   54.1881 C   0  0  0  0  0  0  0  0  0  0  0  0
   24.1912    7.9293   53.9271 C   0  0  0  0  0  0  0  0  0  0  0  0
   23.7176    6.6589   54.0355 C   0  0  0  0  0  0  0  0  0  0  0  0
   22.3814    6.4040   54.3916 C   0  0  0  0  0  0  0  0  0  0  0  0
   21.5409    7.4549   54.6322 C   0  0  0  0  0  0  0  0  0  0  0  0
   20.2501    7.2306   54.9767 F   0  0  0  0  0  0  0  0  0  0  0  0
   21.3288   11.0292   54.0903 C   0  0  0  0  0  0  0  0  0  0  0  0
   21.0850    9.8222   54.7864 O   0  0  0  0  0  0  0  0  0  0  0  0
 27 28  1  0  0  0
 28 20  1  0  0  0
 20 21  2  0  0  0
 21 22  1  0  0  0
 22 23  2  0  0  0
 23 24  1  0  0  0
 24 25  2  0  0  0
 25 26  1  0  0  0
 22  1  1  0  0  0
  1  2  2  0  0  0
  2  3  1  0  0  0
  3  4  2  0  0  0
  4  5  1  0  0  0
  5  6  1  0  0  0
  6  7  1  0  0  0
  7  8  1  0  0  0
  8  9  1  0  0  0
  8 10  1  0  0  0
 10 11  1  0  0  0
  3 12  1  0  0  0
 12 13  2  0  0  0
 13 14  1  0  0  0
 14 15  1  0  0  0
 14 16  2  0  0  0
 16 17  1  0  0  0
 17 18  1  0  0  0
 17 19  2  0  0  0
 25 20  1  0  0  0
 11  1  1  0  0  0
 19 12  1  0  0  0
 11  4  1  0  0  0
M  END
> <minimizedAffinity>
31.54645

> <CNNscore>
0.4665358365

> <CNNaffinity>
5.7523112297

> <CNN_VS>
2.6836593151

> <CNNaffinity_variance>
0.0499927625

$$$$
[H]c1c([H])c(-c2nc(-c3c([H])c(C([H])([H])[H])nc(C([H])([H])[H])c3[H])c3n2C([H])([H])[C@@]([H])(C([H])([H])[H])OC([H])([H])C3([H])[H])c([H])c(OC([H])([H])[H])c1F


 28 31  0  0  0  0  0  0  0  0999 V2000
   24.1134    8.9767   54.1196 C   0  0  0  0  0  0  0  0  0  0  0  0
   23.6807   10.2587   53.8599 N   0  0  0  0  0  0  0  0  0  0  0  0
   22.3787   10.2764   53.5575 C   0  0  0  0  0  0  0  0  0  0  0  0
   21.9402    8.9877   53.6178 C   0  0  0  0  0  0  0  0  0  0  0  0
   20.5438    8.5187   53.4089 C   0  0  0  0  0  0  0  0  0  0  0  0
   20.5232    7.5947   52.2374 C   0  0  0  0  0  0  0  0  0  0  0  0
   21.5637    6.7412   52.1494 O   0  0  0  0  0  0  0  0  0  0  0  0
   21.9757    6.0806   53.2461 C   0  0  0  0  0  0  0  0  0  0  0  0
   20.9713    5.4943   54.1663 C   0  0  0  0  0  0  0  0  0  0  0  0
   23.0631    6.7905   54.0642 C   0  0  0  0  0  0  0  0  0  0  0  0
   23.0284    8.2214   53.9597 N   0  0  0  0  0  0  0  0  0  0  0  0
   21.5841   11.4800   53.2339 C   0  0  0  0  0  0  0  0  0  0  0  0
   20.6952   12.0200   54.1261 C   0  0  0  0  0  0  0  0  0  0  0  0
   19.9509   13.1644   53.8132 C   0  0  0  0  0  0  0  0  0  0  0  0
   18.9889   13.7284   54.8106 C   0  0  0  0  0  0  0  0  0  0  0  0
   20.1330   13.7224   52.6057 N   0  0  0  0  0  0  0  0  0  0  0  0
   20.9884   13.2413   51.6877 C   0  0  0  0  0  0  0  0  0  0  0  0
   21.1827   13.8682   50.3507 C   0  0  0  0  0  0  0  0  0  0  0  0
   21.7224   12.1042   52.0096 C   0  0  0  0  0  0  0  0  0  0  0  0
   27.3328    9.1037   56.0499 C   0  0  0  0  0  0  0  0  0  0  0  0
   26.0631    9.3130   55.5926 C   0  0  0  0  0  0  0  0  0  0  0  0
   25.5165    8.7004   54.4494 C   0  0  0  0  0  0  0  0  0  0  0  0
   26.3336    7.8457   53.7772 C   0  0  0  0  0  0  0  0  0  0  0  0
   27.6488    7.5989   54.2092 C   0  0  0  0  0  0  0  0  0  0  0  0
   28.1150    8.2299   55.3287 C   0  0  0  0  0  0  0  0  0  0  0  0
   29.3790    8.0059   55.7613 F   0  0  0  0  0  0  0  0  0  0  0  0
   27.9752    8.9404   58.3534 C   0  0  0  0  0  0  0  0  0  0  0  0
   27.8313    9.7382   57.1943 O   0  0  0  0  0  0  0  0  0  0  0  0
 27 28  1  0  0  0
 28 20  1  0  0  0
 20 21  2  0  0  0
 21 22  1  0  0  0
 22 23  2  0  0  0
 23 24  1  0  0  0
 24 25  2  0  0  0
 25 26  1  0  0  0
 22  1  1  0  0  0
  1  2  2  0  0  0
  2  3  1  0  0  0
  3  4  2  0  0  0
  4  5  1  0  0  0
  5  6  1  0  0  0
  6  7  1  0  0  0
  7  8  1  0  0  0
  8  9  1  0  0  0
  8 10  1  0  0  0
 10 11  1  0  0  0
  3 12  1  0  0  0
 12 13  2  0  0  0
 13 14  1  0  0  0
 14 15  1  0  0  0
 14 16  2  0  0  0
 16 17  1  0  0  0
 17 18  1  0  0  0
 17 19  2  0  0  0
 25 20  1  0  0  0
 11  1  1  0  0  0
 19 12  1  0  0  0
 11  4  1  0  0  0
M  END
> <minimizedAffinity>
35.46632

> <CNNscore>
0.4633557200

> <CNNaffinity>
5.8917517662

> <CNN_VS>
2.7299768925

> <CNNaffinity_variance>
0.1699233949

$$$$
[H]c1c([H])c(-c2nc(-c3c([H])c(C([H])([H])[H])nc(C([H])([H])[H])c3[H])c3n2C([H])([H])[C@@]([H])(C([H])([H])[H])OC([H])([H])C3([H])[H])c([H])c(OC([H])([H])[H])c1F


 28 31  0  0  0  0  0  0  0  0999 V2000
   25.5828    8.2544   53.4453 C   0  0  0  0  0  0  0  0  0  0  0  0
   25.8622    8.5329   52.1253 N   0  0  0  0  0  0  0  0  0  0  0  0
   27.1311    8.9247   51.9729 C   0  0  0  0  0  0  0  0  0  0  0  0
   27.7030    8.9056   53.2095 C   0  0  0  0  0  0  0  0  0  0  0  0
   29.1222    9.2148   53.5317 C   0  0  0  0  0  0  0  0  0  0  0  0
   29.1559   10.3925   54.4474 C   0  0  0  0  0  0  0  0  0  0  0  0
   28.2051   10.4153   55.4036 O   0  0  0  0  0  0  0  0  0  0  0  0
   27.9408    9.2981   56.1043 C   0  0  0  0  0  0  0  0  0  0  0  0
   29.0620    8.4547   56.5849 C   0  0  0  0  0  0  0  0  0  0  0  0
   26.8461    8.4007   55.5114 C   0  0  0  0  0  0  0  0  0  0  0  0
   26.7260    8.4955   54.0845 N   0  0  0  0  0  0  0  0  0  0  0  0
   27.7731    9.2926   50.6933 C   0  0  0  0  0  0  0  0  0  0  0  0
   27.9129   10.5993   50.3048 C   0  0  0  0  0  0  0  0  0  0  0  0
   28.5281   10.9388   49.0933 C   0  0  0  0  0  0  0  0  0  0  0  0
   28.6648   12.3756   48.6994 C   0  0  0  0  0  0  0  0  0  0  0  0
   28.9805    9.9416   48.3165 N   0  0  0  0  0  0  0  0  0  0  0  0
   28.8736    8.6419   48.6407 C   0  0  0  0  0  0  0  0  0  0  0  0
   29.3789    7.5433   47.7712 C   0  0  0  0  0  0  0  0  0  0  0  0
   28.2608    8.3165   49.8466 C   0  0  0  0  0  0  0  0  0  0  0  0
   21.9229    8.5412   54.2385 C   0  0  0  0  0  0  0  0  0  0  0  0
   23.2252    8.8019   53.9204 C   0  0  0  0  0  0  0  0  0  0  0  0
   24.2421    7.8304   53.8652 C   0  0  0  0  0  0  0  0  0  0  0  0
   23.8696    6.5541   54.1517 C   0  0  0  0  0  0  0  0  0  0  0  0
   22.5409    6.2370   54.4853 C   0  0  0  0  0  0  0  0  0  0  0  0
   21.6042    7.2319   54.5208 C   0  0  0  0  0  0  0  0  0  0  0  0
   20.3188    6.9473   54.8400 F   0  0  0  0  0  0  0  0  0  0  0  0
   21.3955   10.8598   54.5408 C   0  0  0  0  0  0  0  0  0  0  0  0
   20.9464    9.5440   54.2803 O   0  0  0  0  0  0  0  0  0  0  0  0
 27 28  1  0  0  0
 28 20  1  0  0  0
 20 21  2  0  0  0
 21 22  1  0  0  0
 22 23  2  0  0  0
 23 24  1  0  0  0
 24 25  2  0  0  0
 25 26  1  0  0  0
 22  1  1  0  0  0
  1  2  2  0  0  0
  2  3  1  0  0  0
  3  4  2  0  0  0
  4  5  1  0  0  0
  5  6  1  0  0  0
  6  7  1  0  0  0
  7  8  1  0  0  0
  8  9  1  0  0  0
  8 10  1  0  0  0
 10 11  1  0  0  0
  3 12  1  0  0  0
 12 13  2  0  0  0
 13 14  1  0  0  0
 14 15  1  0  0  0
 14 16  2  0  0  0
 16 17  1  0  0  0
 17 18  1  0  0  0
 17 19  2  0  0  0
 25 20  1  0  0  0
 11  1  1  0  0  0
 19 12  1  0  0  0
 11  4  1  0  0  0
M  END
> <minimizedAffinity>
31.66177

> <CNNscore>
0.4629833996

> <CNNaffinity>
5.7468032837

> <CNN_VS>
2.6606745720

> <CNNaffinity_variance>
0.0199769121

$$$$
[H]c1c([H])c(-c2nc(-c3c([H])c(C([H])([H])[H])nc(C([H])([H])[H])c3[H])c3n2C([H])([H])[C@@]([H])(C([H])([H])[H])OC([H])([H])C3([H])[H])c([H])c(OC([H])([H])[H])c1F


 28 31  0  0  0  0  0  0  0  0999 V2000
   23.3344    7.6985   53.9531 C   0  0  0  0  0  0  0  0  0  0  0  0
   22.7415    6.4760   54.1812 N   0  0  0  0  0  0  0  0  0  0  0  0
   21.6212    6.3420   53.4645 C   0  0  0  0  0  0  0  0  0  0  0  0
   21.4680    7.4918   52.7496 C   0  0  0  0  0  0  0  0  0  0  0  0
   20.3897    7.7847   51.7672 C   0  0  0  0  0  0  0  0  0  0  0  0
   19.6139    8.9640   52.2507 C   0  0  0  0  0  0  0  0  0  0  0  0
   20.3433    9.9571   52.7990 O   0  0  0  0  0  0  0  0  0  0  0  0
   21.4693   10.3687   52.1894 C   0  0  0  0  0  0  0  0  0  0  0  0
   21.4809   10.5432   50.7167 C   0  0  0  0  0  0  0  0  0  0  0  0
   22.7494    9.6438   52.6267 C   0  0  0  0  0  0  0  0  0  0  0  0
   22.5310    8.2988   53.0770 N   0  0  0  0  0  0  0  0  0  0  0  0
   20.7382    5.1566   53.4566 C   0  0  0  0  0  0  0  0  0  0  0  0
   19.4242    5.2321   53.8380 C   0  0  0  0  0  0  0  0  0  0  0  0
   18.5933    4.1048   53.8216 C   0  0  0  0  0  0  0  0  0  0  0  0
   17.1630    4.2222   54.2442 C   0  0  0  0  0  0  0  0  0  0  0  0
   19.1232    2.9387   53.4191 N   0  0  0  0  0  0  0  0  0  0  0  0
   20.4030    2.7994   53.0335 C   0  0  0  0  0  0  0  0  0  0  0  0
   20.9808    1.5007   52.5888 C   0  0  0  0  0  0  0  0  0  0  0  0
   21.2189    3.9260   53.0538 C   0  0  0  0  0  0  0  0  0  0  0  0
   27.0145    7.9184   54.6715 C   0  0  0  0  0  0  0  0  0  0  0  0
   25.7902    7.5954   54.1595 C   0  0  0  0  0  0  0  0  0  0  0  0
   24.5661    8.0875   54.6498 C   0  0  0  0  0  0  0  0  0  0  0  0
   24.6418    8.9423   55.7051 C   0  0  0  0  0  0  0  0  0  0  0  0
   25.8793    9.3037   56.2667 C   0  0  0  0  0  0  0  0  0  0  0  0
   27.0298    8.7864   55.7400 C   0  0  0  0  0  0  0  0  0  0  0  0
   28.2319    9.1219   56.2667 F   0  0  0  0  0  0  0  0  0  0  0  0
   29.3573    8.2151   54.2612 C   0  0  0  0  0  0  0  0  0  0  0  0
   28.2058    7.4015   54.1480 O   0  0  0  0  0  0  0  0  0  0  0  0
 27 28  1  0  0  0
 28 20  1  0  0  0
 20 21  2  0  0  0
 21 22  1  0  0  0
 22 23  2  0  0  0
 23 24  1  0  0  0
 24 25  2  0  0  0
 25 26  1  0  0  0
 22  1  1  0  0  0
  1  2  2  0  0  0
  2  3  1  0  0  0
  3  4  2  0  0  0
  4  5  1  0  0  0
  5  6  1  0  0  0
  6  7  1  0  0  0
  7  8  1  0  0  0
  8  9  1  0  0  0
  8 10  1  0  0  0
 10 11  1  0  0  0
  3 12  1  0  0  0
 12 13  2  0  0  0
 13 14  1  0  0  0
 14 15  1  0  0  0
 14 16  2  0  0  0
 16 17  1  0  0  0
 17 18  1  0  0  0
 17 19  2  0  0  0
 25 20  1  0  0  0
 11  1  1  0  0  0
 19 12  1  0  0  0
 11  4  1  0  0  0
M  END
> <minimizedAffinity>
33.07998

> <CNNscore>
0.4413242042

> <CNNaffinity>
6.2147374153

> <CNN_VS>
2.7427139282

> <CNNaffinity_variance>
0.5890134573

$$$$
[H]c1c([H])c(-c2nc(-c3c([H])c(C([H])([H])[H])nc(C([H])([H])F)c3[H])c3n2C([H])([H])[C@@]([H])(C([H])([H])[H])OC([H])([H])C3([H])[H])c([H])c(C([H])([H])[H])c1F


 28 31  0  0  0  0  0  0  0  0999 V2000
   21.7275   11.8406   51.6931 C   0  0  0  0  0  0  0  0  0  0  0  0
   21.3248   10.4027   51.9903 C   0  0  0  0  0  0  0  0  0  0  0  0
   22.5948    9.6301   52.2571 C   0  0  0  0  0  0  0  0  0  0  0  0
   22.3153    8.2996   52.7705 N   0  0  0  0  0  0  0  0  0  0  0  0
   21.2467    7.4972   52.4820 C   0  0  0  0  0  0  0  0  0  0  0  0
   20.1379    7.6578   51.5389 C   0  0  0  0  0  0  0  0  0  0  0  0
   19.6224    9.0560   51.5208 C   0  0  0  0  0  0  0  0  0  0  0  0
   20.6314    9.8443   50.9388 O   0  0  0  0  0  0  0  0  0  0  0  0
   21.4239    6.3770   53.2885 C   0  0  0  0  0  0  0  0  0  0  0  0
   22.5333    6.5350   53.9938 N   0  0  0  0  0  0  0  0  0  0  0  0
   23.1080    7.7263   53.6840 C   0  0  0  0  0  0  0  0  0  0  0  0
   24.3275    8.1552   54.3188 C   0  0  0  0  0  0  0  0  0  0  0  0
   24.2297    8.9213   55.5005 C   0  0  0  0  0  0  0  0  0  0  0  0
   25.3343    9.3140   56.2164 C   0  0  0  0  0  0  0  0  0  0  0  0
   26.5986    8.9728   55.8060 C   0  0  0  0  0  0  0  0  0  0  0  0
   27.6565    9.3834   56.5432 F   0  0  0  0  0  0  0  0  0  0  0  0
   26.7522    8.2270   54.6626 C   0  0  0  0  0  0  0  0  0  0  0  0
   28.1179    7.8340   54.1815 C   0  0  0  0  0  0  0  0  0  0  0  0
   25.6145    7.8465   53.9644 C   0  0  0  0  0  0  0  0  0  0  0  0
   20.5636    5.2148   53.3766 C   0  0  0  0  0  0  0  0  0  0  0  0
   21.0051    3.9583   53.0288 C   0  0  0  0  0  0  0  0  0  0  0  0
   20.1550    2.8791   53.1265 C   0  0  0  0  0  0  0  0  0  0  0  0
   20.7105    1.5538   52.7305 C   0  0  0  0  0  0  0  0  0  0  0  0
   18.8899    3.0130   53.5562 N   0  0  0  0  0  0  0  0  0  0  0  0
   18.4291    4.2241   53.9029 C   0  0  0  0  0  0  0  0  0  0  0  0
   19.2515    5.3219   53.8172 C   0  0  0  0  0  0  0  0  0  0  0  0
   17.0258    4.4170   54.3869 C   0  0  0  0  0  0  0  0  0  0  0  0
   16.2277    3.4232   53.8524 F   0  0  0  0  0  0  0  0  0  0  0  0
  1  2  1  0  0  0
  2  3  1  0  0  0
  3  4  1  0  0  0
  4  5  1  0  0  0
  5  6  1  0  0  0
  6  7  1  0  0  0
  7  8  1  0  0  0
  5  9  2  0  0  0
  9 10  1  0  0  0
 10 11  2  0  0  0
 11 12  1  0  0  0
 12 13  2  0  0  0
 13 14  1  0  0  0
 14 15  2  0  0  0
 15 16  1  0  0  0
 15 17  1  0  0  0
 17 18  1  0  0  0
 17 19  2  0  0  0
  9 20  1  0  0  0
 20 21  2  0  0  0
 21 22  1  0  0  0
 22 23  1  0  0  0
 22 24  2  0  0  0
 24 25  1  0  0  0
 25 27  1  0  0  0
 27 28  1  0  0  0
 25 26  2  0  0  0
  8  2  1  0  0  0
 19 12  1  0  0  0
 26 20  1  0  0  0
 11  4  1  0  0  0
M  END
> <minimizedAffinity>
25.12455

> <CNNscore>
0.4989844263

> <CNNaffinity>
6.6014122963

> <CNN_VS>
3.2940018177

> <CNNaffinity_variance>
0.7118395567

$$$$
[H]c1c([H])c(-c2nc(-c3c([H])c(C([H])([H])[H])nc(C([H])([H])F)c3[H])c3n2C([H])([H])[C@@]([H])(C([H])([H])[H])OC([H])([H])C3([H])[H])c([H])c(C([H])([H])[H])c1F


 28 31  0  0  0  0  0  0  0  0999 V2000
   19.8857    5.8669   53.5718 C   0  0  0  0  0  0  0  0  0  0  0  0
   21.3113    6.2950   53.8919 C   0  0  0  0  0  0  0  0  0  0  0  0
   21.5366    7.6302   53.2228 C   0  0  0  0  0  0  0  0  0  0  0  0
   22.7873    8.2377   53.6460 N   0  0  0  0  0  0  0  0  0  0  0  0
   23.9486    7.6076   53.9969 C   0  0  0  0  0  0  0  0  0  0  0  0
   24.3330    6.1947   53.9729 C   0  0  0  0  0  0  0  0  0  0  0  0
   23.2262    5.3103   54.4355 C   0  0  0  0  0  0  0  0  0  0  0  0
   22.2293    5.3697   53.4452 O   0  0  0  0  0  0  0  0  0  0  0  0
   24.7999    8.6372   54.3868 C   0  0  0  0  0  0  0  0  0  0  0  0
   24.1568    9.7879   54.2616 N   0  0  0  0  0  0  0  0  0  0  0  0
   22.9002    9.5628   53.7974 C   0  0  0  0  0  0  0  0  0  0  0  0
   21.9785   10.6478   53.5794 C   0  0  0  0  0  0  0  0  0  0  0  0
   21.0821   10.9793   54.6183 C   0  0  0  0  0  0  0  0  0  0  0  0
   20.2170   12.0428   54.5324 C   0  0  0  0  0  0  0  0  0  0  0  0
   20.1877   12.8396   53.4154 C   0  0  0  0  0  0  0  0  0  0  0  0
   19.3177   13.8754   53.3758 F   0  0  0  0  0  0  0  0  0  0  0  0
   21.0397   12.5629   52.3739 C   0  0  0  0  0  0  0  0  0  0  0  0
   21.0378   13.4108   51.1361 C   0  0  0  0  0  0  0  0  0  0  0  0
   21.9012   11.4814   52.4948 C   0  0  0  0  0  0  0  0  0  0  0  0
   26.1637    8.5158   54.8599 C   0  0  0  0  0  0  0  0  0  0  0  0
   27.1193    7.8271   54.1477 C   0  0  0  0  0  0  0  0  0  0  0  0
   28.4050    7.7346   54.6329 C   0  0  0  0  0  0  0  0  0  0  0  0
   29.3788    6.9715   53.8017 C   0  0  0  0  0  0  0  0  0  0  0  0
   28.7638    8.3024   55.7956 N   0  0  0  0  0  0  0  0  0  0  0  0
   27.8562    8.9807   56.5135 C   0  0  0  0  0  0  0  0  0  0  0  0
   26.5643    9.0920   56.0577 C   0  0  0  0  0  0  0  0  0  0  0  0
   28.2145    9.6286   57.8144 C   0  0  0  0  0  0  0  0  0  0  0  0
   28.7058    8.6643   58.6740 F   0  0  0  0  0  0  0  0  0  0  0  0
  1  2  1  0  0  0
  2  3  1  0  0  0
  3  4  1  0  0  0
  4  5  1  0  0  0
  5  6  1  0  0  0
  6  7  1  0  0  0
  7  8  1  0  0  0
  5  9  2  0  0  0
  9 10  1  0  0  0
 10 11  2  0  0  0
 11 12  1  0  0  0
 12 13  2  0  0  0
 13 14  1  0  0  0
 14 15  2  0  0  0
 15 16  1  0  0  0
 15 17  1  0  0  0
 17 18  1  0  0  0
 17 19  2  0  0  0
  9 20  1  0  0  0
 20 21  2  0  0  0
 21 22  1  0  0  0
 22 23  1  0  0  0
 22 24  2  0  0  0
 24 25  1  0  0  0
 25 27  1  0  0  0
 27 28  1  0  0  0
 25 26  2  0  0  0
  8  2  1  0  0  0
 19 12  1  0  0  0
 26 20  1  0  0  0
 11  4  1  0  0  0
M  END
> <minimizedAffinity>
29.98705

> <CNNscore>
0.4861130714

> <CNNaffinity>
5.8497385979

> <CNN_VS>
2.8436343670

> <CNNaffinity_variance>
0.2656768560

$$$$
[H]c1c([H])c(-c2nc(-c3c([H])c(C([H])([H])[H])nc(C([H])([H])F)c3[H])c3n2C([H])([H])[C@@]([H])(C([H])([H])[H])OC([H])([H])C3([H])[H])c([H])c(C([H])([H])[H])c1F


 28 31  0  0  0  0  0  0  0  0999 V2000
   21.7579   11.8279   51.6351 C   0  0  0  0  0  0  0  0  0  0  0  0
   21.3353   10.4019   51.9609 C   0  0  0  0  0  0  0  0  0  0  0  0
   22.5944    9.6179   52.2456 C   0  0  0  0  0  0  0  0  0  0  0  0
   22.2962    8.3020   52.7856 N   0  0  0  0  0  0  0  0  0  0  0  0
   21.2173    7.5084   52.5117 C   0  0  0  0  0  0  0  0  0  0  0  0
   20.1121    7.6646   51.5636 C   0  0  0  0  0  0  0  0  0  0  0  0
   19.6156    9.0690   51.5160 C   0  0  0  0  0  0  0  0  0  0  0  0
   20.6360    9.8315   50.9198 O   0  0  0  0  0  0  0  0  0  0  0  0
   21.3782    6.4026   53.3411 C   0  0  0  0  0  0  0  0  0  0  0  0
   22.4886    6.5600   54.0450 N   0  0  0  0  0  0  0  0  0  0  0  0
   23.0797    7.7368   53.7120 C   0  0  0  0  0  0  0  0  0  0  0  0
   24.3041    8.1621   54.3400 C   0  0  0  0  0  0  0  0  0  0  0  0
   24.2150    8.9316   55.5202 C   0  0  0  0  0  0  0  0  0  0  0  0
   25.3245    9.3215   56.2299 C   0  0  0  0  0  0  0  0  0  0  0  0
   26.5855    8.9738   55.8145 C   0  0  0  0  0  0  0  0  0  0  0  0
   27.6486    9.3817   56.5457 F   0  0  0  0  0  0  0  0  0  0  0  0
   26.7306    8.2244   54.6723 C   0  0  0  0  0  0  0  0  0  0  0  0
   28.0923    7.8243   54.1860 C   0  0  0  0  0  0  0  0  0  0  0  0
   25.5881    7.8470   53.9804 C   0  0  0  0  0  0  0  0  0  0  0  0
   20.5021    5.2541   53.4514 C   0  0  0  0  0  0  0  0  0  0  0  0
   19.1770    5.3842   53.8004 C   0  0  0  0  0  0  0  0  0  0  0  0
   18.3776    4.2666   53.8948 C   0  0  0  0  0  0  0  0  0  0  0  0
   16.9553    4.4938   54.2781 C   0  0  0  0  0  0  0  0  0  0  0  0
   18.8545    3.0347   53.6543 N   0  0  0  0  0  0  0  0  0  0  0  0
   20.1415    2.8739   53.3119 C   0  0  0  0  0  0  0  0  0  0  0  0
   20.9663    3.9685   53.2087 C   0  0  0  0  0  0  0  0  0  0  0  0
   20.7129    1.5184   53.0352 C   0  0  0  0  0  0  0  0  0  0  0  0
   21.2216    1.5012   51.7502 F   0  0  0  0  0  0  0  0  0  0  0  0
  1  2  1  0  0  0
  2  3  1  0  0  0
  3  4  1  0  0  0
  4  5  1  0  0  0
  5  6  1  0  0  0
  6  7  1  0  0  0
  7  8  1  0  0  0
  5  9  2  0  0  0
  9 10  1  0  0  0
 10 11  2  0  0  0
 11 12  1  0  0  0
 12 13  2  0  0  0
 13 14  1  0  0  0
 14 15  2  0  0  0
 15 16  1  0  0  0
 15 17  1  0  0  0
 17 18  1  0  0  0
 17 19  2  0  0  0
  9 20  1  0  0  0
 20 21  2  0  0  0
 21 22  1  0  0  0
 22 23  1  0  0  0
 22 24  2  0  0  0
 24 25  1  0  0  0
 25 27  1  0  0  0
 27 28  1  0  0  0
 25 26  2  0  0  0
  8  2  1  0  0  0
 19 12  1  0  0  0
 26 20  1  0  0  0
 11  4  1  0  0  0
M  END
> <minimizedAffinity>
27.98856

> <CNNscore>
0.4815737605

> <CNNaffinity>
6.4940667152

> <CNN_VS>
3.1273720264

> <CNNaffinity_variance>
0.5454238653

$$$$
[H]c1c([H])c(-c2nc(-c3c([H])c(C([H])([H])[H])nc(C([H])([H])F)c3[H])c3n2C([H])([H])[C@@]([H])(C([H])([H])[H])OC([H])([H])C3([H])[H])c([H])c(C([H])([H])[H])c1F


 28 31  0  0  0  0  0  0  0  0999 V2000
   21.8980   11.5272   55.9926 C   0  0  0  0  0  0  0  0  0  0  0  0
   21.5309   10.1343   55.4994 C   0  0  0  0  0  0  0  0  0  0  0  0
   22.6752    9.6493   54.6413 C   0  0  0  0  0  0  0  0  0  0  0  0
   22.5318    8.2438   54.3006 N   0  0  0  0  0  0  0  0  0  0  0  0
   21.3747    7.5432   54.1025 C   0  0  0  0  0  0  0  0  0  0  0  0
   19.9740    7.9694   54.0725 C   0  0  0  0  0  0  0  0  0  0  0  0
   19.6751    8.9699   55.1359 C   0  0  0  0  0  0  0  0  0  0  0  0
   20.3573   10.1466   54.7778 O   0  0  0  0  0  0  0  0  0  0  0  0
   21.7932    6.2350   53.8783 C   0  0  0  0  0  0  0  0  0  0  0  0
   23.1151    6.1968   53.9437 N   0  0  0  0  0  0  0  0  0  0  0  0
   23.5976    7.4400   54.2028 C   0  0  0  0  0  0  0  0  0  0  0  0
   25.0114    7.6801   54.3362 C   0  0  0  0  0  0  0  0  0  0  0  0
   25.8488    7.3491   53.2490 C   0  0  0  0  0  0  0  0  0  0  0  0
   27.1978    7.6081   53.2538 C   0  0  0  0  0  0  0  0  0  0  0  0
   27.7967    8.2087   54.3327 C   0  0  0  0  0  0  0  0  0  0  0  0
   29.1290    8.4429   54.2922 F   0  0  0  0  0  0  0  0  0  0  0  0
   27.0286    8.5531   55.4182 C   0  0  0  0  0  0  0  0  0  0  0  0
   27.6465    9.2114   56.6166 C   0  0  0  0  0  0  0  0  0  0  0  0
   25.6688    8.2777   55.3792 C   0  0  0  0  0  0  0  0  0  0  0  0
   20.9588    5.0797   53.6181 C   0  0  0  0  0  0  0  0  0  0  0  0
   21.4938    3.8710   53.2339 C   0  0  0  0  0  0  0  0  0  0  0  0
   20.6654    2.7969   52.9955 C   0  0  0  0  0  0  0  0  0  0  0  0
   21.3239    1.5248   52.5834 C   0  0  0  0  0  0  0  0  0  0  0  0
   19.3324    2.8899   53.1271 N   0  0  0  0  0  0  0  0  0  0  0  0
   18.7797    4.0538   53.5002 C   0  0  0  0  0  0  0  0  0  0  0  0
   19.5780    5.1454   53.7459 C   0  0  0  0  0  0  0  0  0  0  0  0
   17.2985    4.2002   53.6586 C   0  0  0  0  0  0  0  0  0  0  0  0
   16.9486    3.8400   54.9463 F   0  0  0  0  0  0  0  0  0  0  0  0
  1  2  1  0  0  0
  2  3  1  0  0  0
  3  4  1  0  0  0
  4  5  1  0  0  0
  5  6  1  0  0  0
  6  7  1  0  0  0
  7  8  1  0  0  0
  5  9  2  0  0  0
  9 10  1  0  0  0
 10 11  2  0  0  0
 11 12  1  0  0  0
 12 13  2  0  0  0
 13 14  1  0  0  0
 14 15  2  0  0  0
 15 16  1  0  0  0
 15 17  1  0  0  0
 17 18  1  0  0  0
 17 19  2  0  0  0
  9 20  1  0  0  0
 20 21  2  0  0  0
 21 22  1  0  0  0
 22 23  1  0  0  0
 22 24  2  0  0  0
 24 25  1  0  0  0
 25 27  1  0  0  0
 27 28  1  0  0  0
 25 26  2  0  0  0
  8  2  1  0  0  0
 19 12  1  0  0  0
 26 20  1  0  0  0
 11  4  1  0  0  0
M  END
> <minimizedAffinity>
36.39471

> <CNNscore>
0.4714032114

> <CNNaffinity>
6.2986440659

> <CNN_VS>
2.9692010880

> <CNNaffinity_variance>
0.8581774831

$$$$
[H]c1c([H])c(-c2nc(-c3c([H])c(C([H])([H])[H])nc(C([H])([H])F)c3[H])c3n2C([H])([H])[C@@]([H])(C([H])([H])[H])OC([H])([H])C3([H])[H])c([H])c(C([H])([H])[H])c1F


 28 31  0  0  0  0  0  0  0  0999 V2000
   26.2065    8.2323   54.1417 C   0  0  0  0  0  0  0  0  0  0  0  0
   24.9184    7.4265   54.0424 C   0  0  0  0  0  0  0  0  0  0  0  0
   23.7719    8.4004   54.1773 C   0  0  0  0  0  0  0  0  0  0  0  0
   22.4967    7.7726   53.8741 N   0  0  0  0  0  0  0  0  0  0  0  0
   22.1293    6.4738   54.0907 C   0  0  0  0  0  0  0  0  0  0  0  0
   22.8218    5.3656   54.7519 C   0  0  0  0  0  0  0  0  0  0  0  0
   24.2720    5.3339   54.4098 C   0  0  0  0  0  0  0  0  0  0  0  0
   24.8497    6.4605   55.0224 O   0  0  0  0  0  0  0  0  0  0  0  0
   20.8479    6.3800   53.5560 C   0  0  0  0  0  0  0  0  0  0  0  0
   20.5071    7.5616   53.0650 N   0  0  0  0  0  0  0  0  0  0  0  0
   21.5196    8.4468   53.2558 C   0  0  0  0  0  0  0  0  0  0  0  0
   21.4151    9.8104   52.8042 C   0  0  0  0  0  0  0  0  0  0  0  0
   21.6449   10.8417   53.7406 C   0  0  0  0  0  0  0  0  0  0  0  0
   21.6397   12.1695   53.3889 C   0  0  0  0  0  0  0  0  0  0  0  0
   21.4071   12.5547   52.0924 C   0  0  0  0  0  0  0  0  0  0  0  0
   21.4106   13.8746   51.7936 F   0  0  0  0  0  0  0  0  0  0  0  0
   21.1782   11.5921   51.1394 C   0  0  0  0  0  0  0  0  0  0  0  0
   20.9202   11.9733   49.7114 C   0  0  0  0  0  0  0  0  0  0  0  0
   21.1916   10.2602   51.5295 C   0  0  0  0  0  0  0  0  0  0  0  0
   19.9973    5.2080   53.5174 C   0  0  0  0  0  0  0  0  0  0  0  0
   20.4558    3.9946   53.0569 C   0  0  0  0  0  0  0  0  0  0  0  0
   19.6145    2.9043   53.0361 C   0  0  0  0  0  0  0  0  0  0  0  0
   20.1884    1.6281   52.5228 C   0  0  0  0  0  0  0  0  0  0  0  0
   18.3418    2.9860   53.4564 N   0  0  0  0  0  0  0  0  0  0  0  0
   17.8644    4.1542   53.9111 C   0  0  0  0  0  0  0  0  0  0  0  0
   18.6777    5.2617   53.9452 C   0  0  0  0  0  0  0  0  0  0  0  0
   16.4522    4.2883   54.3889 C   0  0  0  0  0  0  0  0  0  0  0  0
   15.6175    3.6257   53.5089 F   0  0  0  0  0  0  0  0  0  0  0  0
  1  2  1  0  0  0
  2  3  1  0  0  0
  3  4  1  0  0  0
  4  5  1  0  0  0
  5  6  1  0  0  0
  6  7  1  0  0  0
  7  8  1  0  0  0
  5  9  2  0  0  0
  9 10  1  0  0  0
 10 11  2  0  0  0
 11 12  1  0  0  0
 12 13  2  0  0  0
 13 14  1  0  0  0
 14 15  2  0  0  0
 15 16  1  0  0  0
 15 17  1  0  0  0
 17 18  1  0  0  0
 17 19  2  0  0  0
  9 20  1  0  0  0
 20 21  2  0  0  0
 21 22  1  0  0  0
 22 23  1  0  0  0
 22 24  2  0  0  0
 24 25  1  0  0  0
 25 27  1  0  0  0
 27 28  1  0  0  0
 25 26  2  0  0  0
  8  2  1  0  0  0
 19 12  1  0  0  0
 26 20  1  0  0  0
 11  4  1  0  0  0
M  END
> <minimizedAffinity>
25.68914

> <CNNscore>
0.4635876119

> <CNNaffinity>
6.4486413002

> <CNN_VS>
2.9895102978

> <CNNaffinity_variance>
0.5430801511

$$$$
[H]c1c([H])c(-c2nc(-c3c([H])c(C([H])([H])[H])nc(C([H])([H])F)c3[H])c3n2C([H])([H])[C@@]([H])(C([H])([H])[H])OC([H])([H])C3([H])[H])c([H])c(C([H])([H])[H])c1F


 28 31  0  0  0  0  0  0  0  0999 V2000
   19.9079    5.8798   53.3795 C   0  0  0  0  0  0  0  0  0  0  0  0
   21.3239    6.3134   53.7334 C   0  0  0  0  0  0  0  0  0  0  0  0
   21.5240    7.6952   53.1575 C   0  0  0  0  0  0  0  0  0  0  0  0
   22.7611    8.2972   53.6258 N   0  0  0  0  0  0  0  0  0  0  0  0
   23.9341    7.6679   53.9375 C   0  0  0  0  0  0  0  0  0  0  0  0
   24.3467    6.2678   53.8190 C   0  0  0  0  0  0  0  0  0  0  0  0
   23.2568    5.3322   54.2163 C   0  0  0  0  0  0  0  0  0  0  0  0
   22.2613    5.4390   53.2284 O   0  0  0  0  0  0  0  0  0  0  0  0
   24.7635    8.6853   54.3997 C   0  0  0  0  0  0  0  0  0  0  0  0
   24.0978    9.8288   54.3506 N   0  0  0  0  0  0  0  0  0  0  0  0
   22.8471    9.6109   53.8673 C   0  0  0  0  0  0  0  0  0  0  0  0
   21.9044   10.6897   53.7199 C   0  0  0  0  0  0  0  0  0  0  0  0
   21.0119   10.9445   54.7837 C   0  0  0  0  0  0  0  0  0  0  0  0
   20.1274   11.9953   54.7665 C   0  0  0  0  0  0  0  0  0  0  0  0
   20.0736   12.8544   53.6976 C   0  0  0  0  0  0  0  0  0  0  0  0
   19.1851   13.8747   53.7252 F   0  0  0  0  0  0  0  0  0  0  0  0
   20.9206   12.6537   52.6349 C   0  0  0  0  0  0  0  0  0  0  0  0
   20.8921   13.5712   51.4481 C   0  0  0  0  0  0  0  0  0  0  0  0
   21.8021   11.5828   52.6859 C   0  0  0  0  0  0  0  0  0  0  0  0
   26.1283    8.5592   54.8688 C   0  0  0  0  0  0  0  0  0  0  0  0
   26.5275    9.0700   56.0830 C   0  0  0  0  0  0  0  0  0  0  0  0
   27.8351    8.9294   56.4920 C   0  0  0  0  0  0  0  0  0  0  0  0
   28.1856    9.5108   57.8189 C   0  0  0  0  0  0  0  0  0  0  0  0
   28.7485    8.3008   55.7346 N   0  0  0  0  0  0  0  0  0  0  0  0
   28.3914    7.7915   54.5461 C   0  0  0  0  0  0  0  0  0  0  0  0
   27.0944    7.9147   54.1082 C   0  0  0  0  0  0  0  0  0  0  0  0
   29.3781    7.0835   53.6711 C   0  0  0  0  0  0  0  0  0  0  0  0
   28.8835    5.8305   53.3621 F   0  0  0  0  0  0  0  0  0  0  0  0
  1  2  1  0  0  0
  2  3  1  0  0  0
  3  4  1  0  0  0
  4  5  1  0  0  0
  5  6  1  0  0  0
  6  7  1  0  0  0
  7  8  1  0  0  0
  5  9  2  0  0  0
  9 10  1  0  0  0
 10 11  2  0  0  0
 11 12  1  0  0  0
 12 13  2  0  0  0
 13 14  1  0  0  0
 14 15  2  0  0  0
 15 16  1  0  0  0
 15 17  1  0  0  0
 17 18  1  0  0  0
 17 19  2  0  0  0
  9 20  1  0  0  0
 20 21  2  0  0  0
 21 22  1  0  0  0
 22 23  1  0  0  0
 22 24  2  0  0  0
 24 25  1  0  0  0
 25 27  1  0  0  0
 27 28  1  0  0  0
 25 26  2  0  0  0
  8  2  1  0  0  0
 19 12  1  0  0  0
 26 20  1  0  0  0
 11  4  1  0  0  0
M  END
> <minimizedAffinity>
32.21564

> <CNNscore>
0.4514479935

> <CNNaffinity>
5.8318262100

> <CNN_VS>
2.6327662468

> <CNNaffinity_variance>
0.3167077005

$$$$
[H]c1c([H])c(-c2nc(-c3c([H])c(C([H])([H])[H])nc(C([H])([H])F)c3[H])c3n2C([H])([H])[C@@]([H])(C([H])([H])[H])OC([H])([H])C3([H])[H])c([H])c(C([H])([H])[H])c1F


 28 31  0  0  0  0  0  0  0  0999 V2000
   21.9379   11.9944   53.6883 C   0  0  0  0  0  0  0  0  0  0  0  0
   21.5339   10.5283   53.6139 C   0  0  0  0  0  0  0  0  0  0  0  0
   22.7365    9.7590   53.1210 C   0  0  0  0  0  0  0  0  0  0  0  0
   22.5342    8.3235   53.2249 N   0  0  0  0  0  0  0  0  0  0  0  0
   21.3623    7.6309   53.0988 C   0  0  0  0  0  0  0  0  0  0  0  0
   20.0104    8.0658   52.7409 C   0  0  0  0  0  0  0  0  0  0  0  0
   19.6569    9.3642   53.3815 C   0  0  0  0  0  0  0  0  0  0  0  0
   20.4615   10.3418   52.7691 O   0  0  0  0  0  0  0  0  0  0  0  0
   21.7089    6.3086   53.3596 C   0  0  0  0  0  0  0  0  0  0  0  0
   23.0066    6.2546   53.6174 N   0  0  0  0  0  0  0  0  0  0  0  0
   23.5426    7.5000   53.5354 C   0  0  0  0  0  0  0  0  0  0  0  0
   24.9431    7.7286   53.7819 C   0  0  0  0  0  0  0  0  0  0  0  0
   25.5312    7.1098   54.9062 C   0  0  0  0  0  0  0  0  0  0  0  0
   26.8731    7.2087   55.1827 C   0  0  0  0  0  0  0  0  0  0  0  0
   27.7107    7.9247   54.3647 C   0  0  0  0  0  0  0  0  0  0  0  0
   29.0253    7.9949   54.6781 F   0  0  0  0  0  0  0  0  0  0  0  0
   27.1915    8.5470   53.2555 C   0  0  0  0  0  0  0  0  0  0  0  0
   28.0748    9.3388   52.3369 C   0  0  0  0  0  0  0  0  0  0  0  0
   25.8316    8.4253   53.0058 C   0  0  0  0  0  0  0  0  0  0  0  0
   20.8310    5.1563   53.3637 C   0  0  0  0  0  0  0  0  0  0  0  0
   19.5266    5.2404   53.7954 C   0  0  0  0  0  0  0  0  0  0  0  0
   18.7248    4.1207   53.7839 C   0  0  0  0  0  0  0  0  0  0  0  0
   17.3258    4.2966   54.2674 C   0  0  0  0  0  0  0  0  0  0  0  0
   19.1792    2.9307   53.3592 N   0  0  0  0  0  0  0  0  0  0  0  0
   20.4455    2.8154   52.9319 C   0  0  0  0  0  0  0  0  0  0  0  0
   21.2722    3.9134   52.9305 C   0  0  0  0  0  0  0  0  0  0  0  0
   20.9916    1.5076   52.4503 C   0  0  0  0  0  0  0  0  0  0  0  0
   22.3616    1.5005   52.6327 F   0  0  0  0  0  0  0  0  0  0  0  0
  1  2  1  0  0  0
  2  3  1  0  0  0
  3  4  1  0  0  0
  4  5  1  0  0  0
  5  6  1  0  0  0
  6  7  1  0  0  0
  7  8  1  0  0  0
  5  9  2  0  0  0
  9 10  1  0  0  0
 10 11  2  0  0  0
 11 12  1  0  0  0
 12 13  2  0  0  0
 13 14  1  0  0  0
 14 15  2  0  0  0
 15 16  1  0  0  0
 15 17  1  0  0  0
 17 18  1  0  0  0
 17 19  2  0  0  0
  9 20  1  0  0  0
 20 21  2  0  0  0
 21 22  1  0  0  0
 22 23  1  0  0  0
 22 24  2  0  0  0
 24 25  1  0  0  0
 25 27  1  0  0  0
 27 28  1  0  0  0
 25 26  2  0  0  0
  8  2  1  0  0  0
 19 12  1  0  0  0
 26 20  1  0  0  0
 11  4  1  0  0  0
M  END
> <minimizedAffinity>
42.67912

> <CNNscore>
0.4447897077

> <CNNaffinity>
6.2645664215

> <CNN_VS>
2.7864146233

> <CNNaffinity_variance>
0.8732745051

$$$$
[H]c1c([H])c(-c2nc(-c3c([H])c(C([H])([H])[H])nc(C([H])([H])F)c3[H])c3n2C([H])([H])[C@@]([H])(C([H])([H])[H])OC([H])([H])C3([H])[H])c([H])c(C([H])([H])[H])c1F


 28 31  0  0  0  0  0  0  0  0999 V2000
   26.1878    8.2156   54.1126 C   0  0  0  0  0  0  0  0  0  0  0  0
   24.8929    7.4207   54.0158 C   0  0  0  0  0  0  0  0  0  0  0  0
   23.7548    8.4059   54.1384 C   0  0  0  0  0  0  0  0  0  0  0  0
   22.4749    7.7871   53.8363 N   0  0  0  0  0  0  0  0  0  0  0  0
   22.0950    6.4936   54.0628 C   0  0  0  0  0  0  0  0  0  0  0  0
   22.7753    5.3849   54.7359 C   0  0  0  0  0  0  0  0  0  0  0  0
   24.2263    5.3372   54.3990 C   0  0  0  0  0  0  0  0  0  0  0  0
   24.8121    6.4637   55.0038 O   0  0  0  0  0  0  0  0  0  0  0  0
   20.8146    6.4067   53.5245 C   0  0  0  0  0  0  0  0  0  0  0  0
   20.4862    7.5871   53.0223 N   0  0  0  0  0  0  0  0  0  0  0  0
   21.5060    8.4647   53.2089 C   0  0  0  0  0  0  0  0  0  0  0  0
   21.4154    9.8253   52.7453 C   0  0  0  0  0  0  0  0  0  0  0  0
   21.7392   10.8601   53.6494 C   0  0  0  0  0  0  0  0  0  0  0  0
   21.7530   12.1828   53.2794 C   0  0  0  0  0  0  0  0  0  0  0  0
   21.4477   12.5593   51.9955 C   0  0  0  0  0  0  0  0  0  0  0  0
   21.4735   13.8745   51.6779 F   0  0  0  0  0  0  0  0  0  0  0  0
   21.1258   11.5929   51.0738 C   0  0  0  0  0  0  0  0  0  0  0  0
   20.7862   11.9645   49.6604 C   0  0  0  0  0  0  0  0  0  0  0  0
   21.1225   10.2662   51.4815 C   0  0  0  0  0  0  0  0  0  0  0  0
   19.9536    5.2422   53.4931 C   0  0  0  0  0  0  0  0  0  0  0  0
   18.6616    5.2832   53.9661 C   0  0  0  0  0  0  0  0  0  0  0  0
   17.8756    4.1532   53.9187 C   0  0  0  0  0  0  0  0  0  0  0  0
   16.4893    4.2816   54.4509 C   0  0  0  0  0  0  0  0  0  0  0  0
   18.3340    2.9943   53.4188 N   0  0  0  0  0  0  0  0  0  0  0  0
   19.5886    2.9213   52.9498 C   0  0  0  0  0  0  0  0  0  0  0  0
   20.3994    4.0307   52.9824 C   0  0  0  0  0  0  0  0  0  0  0  0
   20.1387    1.6492   52.3843 C   0  0  0  0  0  0  0  0  0  0  0  0
   21.4465    1.5011   52.8058 F   0  0  0  0  0  0  0  0  0  0  0  0
  1  2  1  0  0  0
  2  3  1  0  0  0
  3  4  1  0  0  0
  4  5  1  0  0  0
  5  6  1  0  0  0
  6  7  1  0  0  0
  7  8  1  0  0  0
  5  9  2  0  0  0
  9 10  1  0  0  0
 10 11  2  0  0  0
 11 12  1  0  0  0
 12 13  2  0  0  0
 13 14  1  0  0  0
 14 15  2  0  0  0
 15 16  1  0  0  0
 15 17  1  0  0  0
 17 18  1  0  0  0
 17 19  2  0  0  0
  9 20  1  0  0  0
 20 21  2  0  0  0
 21 22  1  0  0  0
 22 23  1  0  0  0
 22 24  2  0  0  0
 24 25  1  0  0  0
 25 27  1  0  0  0
 27 28  1  0  0  0
 25 26  2  0  0  0
  8  2  1  0  0  0
 19 12  1  0  0  0
 26 20  1  0  0  0
 11  4  1  0  0  0
M  END
> <minimizedAffinity>
27.87374

> <CNNscore>
0.4439136684

> <CNNaffinity>
6.3918762207

> <CNN_VS>
2.8374412060

> <CNNaffinity_variance>
0.4855890870

$$$$
[H]c1c([H])c(-c2nc(-c3c([H])c(C([H])([H])[H])nc(C([H])([H])F)c3[H])c3n2C([H])([H])[C@@]([H])(C([H])([H])[H])OC([H])([H])C3([H])[H])c([H])c(C([H])([H])[H])c1F


 28 31  0  0  0  0  0  0  0  0999 V2000
   19.1825    9.4443   50.5985 C   0  0  0  0  0  0  0  0  0  0  0  0
   20.4756    9.2781   51.3848 C   0  0  0  0  0  0  0  0  0  0  0  0
   20.2293    8.2142   52.4281 C   0  0  0  0  0  0  0  0  0  0  0  0
   21.4609    7.8159   53.0889 N   0  0  0  0  0  0  0  0  0  0  0  0
   22.5572    8.5882   53.3547 C   0  0  0  0  0  0  0  0  0  0  0  0
   22.8080   10.0181   53.1622 C   0  0  0  0  0  0  0  0  0  0  0  0
   22.2611   10.5081   51.8653 C   0  0  0  0  0  0  0  0  0  0  0  0
   20.8603   10.4593   51.9806 O   0  0  0  0  0  0  0  0  0  0  0  0
   23.4726    7.7094   53.9262 C   0  0  0  0  0  0  0  0  0  0  0  0
   22.9243    6.5055   53.9830 N   0  0  0  0  0  0  0  0  0  0  0  0
   21.6675    6.5493   53.4692 C   0  0  0  0  0  0  0  0  0  0  0  0
   20.8469    5.3677   53.3999 C   0  0  0  0  0  0  0  0  0  0  0  0
   21.4400    4.1706   52.9439 C   0  0  0  0  0  0  0  0  0  0  0  0
   20.7594    2.9779   52.9119 C   0  0  0  0  0  0  0  0  0  0  0  0
   19.4541    2.8994   53.3283 C   0  0  0  0  0  0  0  0  0  0  0  0
   18.8242    1.7027   53.2775 F   0  0  0  0  0  0  0  0  0  0  0  0
   18.8277    4.0343   53.7829 C   0  0  0  0  0  0  0  0  0  0  0  0
   17.4016    3.9891   54.2469 C   0  0  0  0  0  0  0  0  0  0  0  0
   19.5454    5.2221   53.8025 C   0  0  0  0  0  0  0  0  0  0  0  0
   24.8103    8.0158   54.3902 C   0  0  0  0  0  0  0  0  0  0  0  0
   25.9280    7.5214   53.7570 C   0  0  0  0  0  0  0  0  0  0  0  0
   27.1825    7.8360   54.2304 C   0  0  0  0  0  0  0  0  0  0  0  0
   28.3398    7.2603   53.4883 C   0  0  0  0  0  0  0  0  0  0  0  0
   27.3552    8.6213   55.3059 N   0  0  0  0  0  0  0  0  0  0  0  0
   26.2863    9.1192   55.9454 C   0  0  0  0  0  0  0  0  0  0  0  0
   25.0203    8.8245   55.4988 C   0  0  0  0  0  0  0  0  0  0  0  0
   26.4346    9.9983   57.1478 C   0  0  0  0  0  0  0  0  0  0  0  0
   27.7666   10.0327   57.5151 F   0  0  0  0  0  0  0  0  0  0  0  0
  1  2  1  0  0  0
  2  3  1  0  0  0
  3  4  1  0  0  0
  4  5  1  0  0  0
  5  6  1  0  0  0
  6  7  1  0  0  0
  7  8  1  0  0  0
  5  9  2  0  0  0
  9 10  1  0  0  0
 10 11  2  0  0  0
 11 12  1  0  0  0
 12 13  2  0  0  0
 13 14  1  0  0  0
 14 15  2  0  0  0
 15 16  1  0  0  0
 15 17  1  0  0  0
 17 18  1  0  0  0
 17 19  2  0  0  0
  9 20  1  0  0  0
 20 21  2  0  0  0
 21 22  1  0  0  0
 22 23  1  0  0  0
 22 24  2  0  0  0
 24 25  1  0  0  0
 25 27  1  0  0  0
 27 28  1  0  0  0
 25 26  2  0  0  0
  8  2  1  0  0  0
 19 12  1  0  0  0
 26 20  1  0  0  0
 11  4  1  0  0  0
M  END
> <minimizedAffinity>
37.33176

> <CNNscore>
0.4413462877

> <CNNaffinity>
6.1882233620

> <CNN_VS>
2.7311494350

> <CNNaffinity_variance>
0.8184460402

$$$$
[H]c1c(C([H])([H])[H])nc(C([H])([H])[H])c([H])c1-c1nc(-c2c([H])c([H])c(C([H])([H])[H])c(OC([H])([H])[H])c2[H])n2c1C([H])([H])C([H])([H])O[C@]([H])(C([H])([H])[H])C2([H])[H]


 28 31  0  0  0  0  0  0  0  0999 V2000
   27.1581    9.1944   52.1856 C   0  0  0  0  0  0  0  0  0  0  0  0
   25.8839    8.7084   52.1454 N   0  0  0  0  0  0  0  0  0  0  0  0
   25.5648    8.2082   53.3168 C   0  0  0  0  0  0  0  0  0  0  0  0
   26.6674    8.3790   54.1354 C   0  0  0  0  0  0  0  0  0  0  0  0
   26.6007    7.8980   55.5121 C   0  0  0  0  0  0  0  0  0  0  0  0
   27.4191    8.6017   56.5245 C   0  0  0  0  0  0  0  0  0  0  0  0
   28.7454    8.5624   56.1002 O   0  0  0  0  0  0  0  0  0  0  0  0
   29.0834    9.6370   55.3236 C   0  0  0  0  0  0  0  0  0  0  0  0
   28.4209   10.9364   55.7645 C   0  0  0  0  0  0  0  0  0  0  0  0
   28.9083    9.4086   53.8405 C   0  0  0  0  0  0  0  0  0  0  0  0
   27.6347    8.9931   53.4077 N   0  0  0  0  0  0  0  0  0  0  0  0
   24.2632    7.6131   53.6118 C   0  0  0  0  0  0  0  0  0  0  0  0
   24.0426    6.7124   54.6135 C   0  0  0  0  0  0  0  0  0  0  0  0
   22.7749    6.1995   54.8287 C   0  0  0  0  0  0  0  0  0  0  0  0
   22.5354    5.2189   55.9195 C   0  0  0  0  0  0  0  0  0  0  0  0
   21.7600    6.6025   54.0338 N   0  0  0  0  0  0  0  0  0  0  0  0
   21.9248    7.4834   53.0381 C   0  0  0  0  0  0  0  0  0  0  0  0
   20.7835    7.9119   52.1736 C   0  0  0  0  0  0  0  0  0  0  0  0
   23.1840    7.9978   52.8189 C   0  0  0  0  0  0  0  0  0  0  0  0
   28.3396    9.5759   48.6400 C   0  0  0  0  0  0  0  0  0  0  0  0
   27.8081    9.0751   49.7918 C   0  0  0  0  0  0  0  0  0  0  0  0
   27.6953    9.8244   50.9709 C   0  0  0  0  0  0  0  0  0  0  0  0
   28.1529   11.1057   50.9140 C   0  0  0  0  0  0  0  0  0  0  0  0
   28.6968   11.6151   49.7299 C   0  0  0  0  0  0  0  0  0  0  0  0
   28.7957   10.8733   48.6002 C   0  0  0  0  0  0  0  0  0  0  0  0
   29.3749   11.4009   47.3231 C   0  0  0  0  0  0  0  0  0  0  0  0
   29.2750    7.6893   47.4383 C   0  0  0  0  0  0  0  0  0  0  0  0
   28.4387    8.8059   47.4811 O   0  0  0  0  0  0  0  0  0  0  0  0
 27 28  1  0  0  0
 28 20  1  0  0  0
 20 21  2  0  0  0
 21 22  1  0  0  0
 22 23  2  0  0  0
 23 24  1  0  0  0
 24 25  2  0  0  0
 25 26  1  0  0  0
 22  1  1  0  0  0
  1  2  2  0  0  0
  2  3  1  0  0  0
  3  4  2  0  0  0
  4  5  1  0  0  0
  5  6  1  0  0  0
  6  7  1  0  0  0
  7  8  1  0  0  0
  8  9  1  0  0  0
  8 10  1  0  0  0
 10 11  1  0  0  0
  3 12  1  0  0  0
 12 13  2  0  0  0
 13 14  1  0  0  0
 14 15  1  0  0  0
 14 16  2  0  0  0
 16 17  1  0  0  0
 17 18  1  0  0  0
 17 19  2  0  0  0
 25 20  1  0  0  0
 11  1  1  0  0  0
 19 12  1  0  0  0
 11  4  1  0  0  0
M  END
> <minimizedAffinity>
33.54929

> <CNNscore>
0.5788313150

> <CNNaffinity>
5.9800896645

> <CNN_VS>
3.4614632130

> <CNNaffinity_variance>
0.0882625580

$$$$
[H]c1c(C([H])([H])[H])nc(C([H])([H])[H])c([H])c1-c1nc(-c2c([H])c([H])c(C([H])([H])[H])c(OC([H])([H])[H])c2[H])n2c1C([H])([H])C([H])([H])O[C@]([H])(C([H])([H])[H])C2([H])[H]


 28 31  0  0  0  0  0  0  0  0999 V2000
   22.4820    7.1119   53.9406 C   0  0  0  0  0  0  0  0  0  0  0  0
   23.8086    6.9353   54.2059 N   0  0  0  0  0  0  0  0  0  0  0  0
   24.3641    8.0951   54.4716 C   0  0  0  0  0  0  0  0  0  0  0  0
   23.3636    9.0462   54.3752 C   0  0  0  0  0  0  0  0  0  0  0  0
   23.7014   10.4467   54.6112 C   0  0  0  0  0  0  0  0  0  0  0  0
   22.6380   11.3283   55.1421 C   0  0  0  0  0  0  0  0  0  0  0  0
   21.5595   11.2699   54.2624 O   0  0  0  0  0  0  0  0  0  0  0  0
   20.6690   10.2820   54.5835 C   0  0  0  0  0  0  0  0  0  0  0  0
   20.4902   10.0908   56.0846 C   0  0  0  0  0  0  0  0  0  0  0  0
   20.9289    8.9648   53.8906 C   0  0  0  0  0  0  0  0  0  0  0  0
   22.2119    8.4068   54.0477 N   0  0  0  0  0  0  0  0  0  0  0  0
   25.7777    8.2541   54.8061 C   0  0  0  0  0  0  0  0  0  0  0  0
   26.8026    7.7479   54.0600 C   0  0  0  0  0  0  0  0  0  0  0  0
   28.1167    7.9484   54.4462 C   0  0  0  0  0  0  0  0  0  0  0  0
   29.2321    7.3970   53.6334 C   0  0  0  0  0  0  0  0  0  0  0  0
   28.3704    8.6515   55.5711 N   0  0  0  0  0  0  0  0  0  0  0  0
   27.4006    9.1684   56.3372 C   0  0  0  0  0  0  0  0  0  0  0  0
   27.7100    9.9427   57.5775 C   0  0  0  0  0  0  0  0  0  0  0  0
   26.0905    8.9725   55.9582 C   0  0  0  0  0  0  0  0  0  0  0  0
   19.4614    4.9202   53.5110 C   0  0  0  0  0  0  0  0  0  0  0  0
   20.2754    5.9932   53.7253 C   0  0  0  0  0  0  0  0  0  0  0  0
   21.6728    5.9210   53.6441 C   0  0  0  0  0  0  0  0  0  0  0  0
   22.1940    4.7014   53.3356 C   0  0  0  0  0  0  0  0  0  0  0  0
   21.3547    3.6038   53.1161 C   0  0  0  0  0  0  0  0  0  0  0  0
   20.0052    3.6956   53.1988 C   0  0  0  0  0  0  0  0  0  0  0  0
   19.0903    2.5320   52.9672 C   0  0  0  0  0  0  0  0  0  0  0  0
   17.3405    4.1188   54.3699 C   0  0  0  0  0  0  0  0  0  0  0  0
   18.0730    5.0224   53.5986 O   0  0  0  0  0  0  0  0  0  0  0  0
 27 28  1  0  0  0
 28 20  1  0  0  0
 20 21  2  0  0  0
 21 22  1  0  0  0
 22 23  2  0  0  0
 23 24  1  0  0  0
 24 25  2  0  0  0
 25 26  1  0  0  0
 22  1  1  0  0  0
  1  2  2  0  0  0
  2  3  1  0  0  0
  3  4  2  0  0  0
  4  5  1  0  0  0
  5  6  1  0  0  0
  6  7  1  0  0  0
  7  8  1  0  0  0
  8  9  1  0  0  0
  8 10  1  0  0  0
 10 11  1  0  0  0
  3 12  1  0  0  0
 12 13  2  0  0  0
 13 14  1  0  0  0
 14 15  1  0  0  0
 14 16  2  0  0  0
 16 17  1  0  0  0
 17 18  1  0  0  0
 17 19  2  0  0  0
 25 20  1  0  0  0
 11  1  1  0  0  0
 19 12  1  0  0  0
 11  4  1  0  0  0
M  END
> <minimizedAffinity>
33.81013

> <CNNscore>
0.5618803501

> <CNNaffinity>
6.3433237076

> <CNN_VS>
3.5641889572

> <CNNaffinity_variance>
0.3036286533

$$$$
[H]c1c(C([H])([H])[H])nc(C([H])([H])[H])c([H])c1-c1nc(-c2c([H])c([H])c(C([H])([H])[H])c(OC([H])([H])[H])c2[H])n2c1C([H])([H])C([H])([H])O[C@]([H])(C([H])([H])[H])C2([H])[H]


 28 31  0  0  0  0  0  0  0  0999 V2000
   27.0724    8.7465   52.1601 C   0  0  0  0  0  0  0  0  0  0  0  0
   25.7145    8.6243   52.2077 N   0  0  0  0  0  0  0  0  0  0  0  0
   25.3245    8.5118   53.4566 C   0  0  0  0  0  0  0  0  0  0  0  0
   26.4670    8.5644   54.2356 C   0  0  0  0  0  0  0  0  0  0  0  0
   26.3341    8.4494   55.6849 C   0  0  0  0  0  0  0  0  0  0  0  0
   27.3528    9.1214   56.5221 C   0  0  0  0  0  0  0  0  0  0  0  0
   28.6015    8.6313   56.1466 O   0  0  0  0  0  0  0  0  0  0  0  0
   29.1790    9.3669   55.1480 C   0  0  0  0  0  0  0  0  0  0  0  0
   28.9050   10.8616   55.2594 C   0  0  0  0  0  0  0  0  0  0  0  0
   28.8861    8.8585   53.7557 C   0  0  0  0  0  0  0  0  0  0  0  0
   27.5305    8.7118   53.4051 N   0  0  0  0  0  0  0  0  0  0  0  0
   23.9256    8.3722   53.8549 C   0  0  0  0  0  0  0  0  0  0  0  0
   23.2185    9.3339   54.5171 C   0  0  0  0  0  0  0  0  0  0  0  0
   21.8925    9.1223   54.8541 C   0  0  0  0  0  0  0  0  0  0  0  0
   21.1233   10.1698   55.5750 C   0  0  0  0  0  0  0  0  0  0  0  0
   21.3087    7.9515   54.5187 N   0  0  0  0  0  0  0  0  0  0  0  0
   21.9591    6.9769   53.8693 C   0  0  0  0  0  0  0  0  0  0  0  0
   21.2882    5.6905   53.5105 C   0  0  0  0  0  0  0  0  0  0  0  0
   23.2790    7.1813   53.5309 C   0  0  0  0  0  0  0  0  0  0  0  0
   28.3158   10.4126   49.0312 C   0  0  0  0  0  0  0  0  0  0  0  0
   27.7866   10.1871   50.2677 C   0  0  0  0  0  0  0  0  0  0  0  0
   27.7050    8.9119   50.8435 C   0  0  0  0  0  0  0  0  0  0  0  0
   28.1883    7.8828   50.0941 C   0  0  0  0  0  0  0  0  0  0  0  0
   28.7308    8.1192   48.8264 C   0  0  0  0  0  0  0  0  0  0  0  0
   28.8009    9.3609   48.2884 C   0  0  0  0  0  0  0  0  0  0  0  0
   29.3781    9.6340   46.9330 C   0  0  0  0  0  0  0  0  0  0  0  0
   27.3690   12.6226   48.7185 C   0  0  0  0  0  0  0  0  0  0  0  0
   28.3840   11.6937   48.4837 O   0  0  0  0  0  0  0  0  0  0  0  0
 27 28  1  0  0  0
 28 20  1  0  0  0
 20 21  2  0  0  0
 21 22  1  0  0  0
 22 23  2  0  0  0
 23 24  1  0  0  0
 24 25  2  0  0  0
 25 26  1  0  0  0
 22  1  1  0  0  0
  1  2  2  0  0  0
  2  3  1  0  0  0
  3  4  2  0  0  0
  4  5  1  0  0  0
  5  6  1  0  0  0
  6  7  1  0  0  0
  7  8  1  0  0  0
  8  9  1  0  0  0
  8 10  1  0  0  0
 10 11  1  0  0  0
  3 12  1  0  0  0
 12 13  2  0  0  0
 13 14  1  0  0  0
 14 15  1  0  0  0
 14 16  2  0  0  0
 16 17  1  0  0  0
 17 18  1  0  0  0
 17 19  2  0  0  0
 25 20  1  0  0  0
 11  1  1  0  0  0
 19 12  1  0  0  0
 11  4  1  0  0  0
M  END
> <minimizedAffinity>
35.25850

> <CNNscore>
0.5182006359

> <CNNaffinity>
6.0618028641

> <CNN_VS>
3.1412301064

> <CNNaffinity_variance>
0.1199929565

$$$$
[H]c1c(C([H])([H])[H])nc(C([H])([H])[H])c([H])c1-c1nc(-c2c([H])c([H])c(C([H])([H])[H])c(OC([H])([H])[H])c2[H])n2c1C([H])([H])C([H])([H])O[C@]([H])(C([H])([H])[H])C2([H])[H]


 28 31  0  0  0  0  0  0  0  0999 V2000
   23.6743    7.6823   54.4601 C   0  0  0  0  0  0  0  0  0  0  0  0
   23.1666    6.4681   54.1006 N   0  0  0  0  0  0  0  0  0  0  0  0
   21.8549    6.5061   54.1480 C   0  0  0  0  0  0  0  0  0  0  0  0
   21.5089    7.7844   54.5494 C   0  0  0  0  0  0  0  0  0  0  0  0
   20.0948    8.1135   54.7020 C   0  0  0  0  0  0  0  0  0  0  0  0
   19.6911    9.5206   54.4849 C   0  0  0  0  0  0  0  0  0  0  0  0
   20.4323   10.3143   55.3573 O   0  0  0  0  0  0  0  0  0  0  0  0
   21.6105   10.7430   54.8095 C   0  0  0  0  0  0  0  0  0  0  0  0
   21.5067   11.0658   53.3239 C   0  0  0  0  0  0  0  0  0  0  0  0
   22.7894    9.8419   55.0932 C   0  0  0  0  0  0  0  0  0  0  0  0
   22.6553    8.4878   54.7322 N   0  0  0  0  0  0  0  0  0  0  0  0
   21.0027    5.3674   53.8127 C   0  0  0  0  0  0  0  0  0  0  0  0
   21.4661    4.1870   53.3074 C   0  0  0  0  0  0  0  0  0  0  0  0
   20.5894    3.1547   53.0205 C   0  0  0  0  0  0  0  0  0  0  0  0
   21.0946    1.8698   52.4704 C   0  0  0  0  0  0  0  0  0  0  0  0
   19.2698    3.3320   53.2473 N   0  0  0  0  0  0  0  0  0  0  0  0
   18.7656    4.4706   53.7414 C   0  0  0  0  0  0  0  0  0  0  0  0
   17.3004    4.6395   53.9826 C   0  0  0  0  0  0  0  0  0  0  0  0
   19.6329    5.5017   54.0292 C   0  0  0  0  0  0  0  0  0  0  0  0
   27.0965    8.8661   55.4599 C   0  0  0  0  0  0  0  0  0  0  0  0
   25.7545    8.6245   55.4357 C   0  0  0  0  0  0  0  0  0  0  0  0
   25.1344    7.8523   54.4440 C   0  0  0  0  0  0  0  0  0  0  0  0
   25.9517    7.3428   53.4813 C   0  0  0  0  0  0  0  0  0  0  0  0
   27.3278    7.5929   53.5108 C   0  0  0  0  0  0  0  0  0  0  0  0
   27.9075    8.3421   54.4798 C   0  0  0  0  0  0  0  0  0  0  0  0
   29.3788    8.6209   54.5283 C   0  0  0  0  0  0  0  0  0  0  0  0
   27.9206    9.1031   57.7277 C   0  0  0  0  0  0  0  0  0  0  0  0
   27.6859    9.6388   56.4605 O   0  0  0  0  0  0  0  0  0  0  0  0
 27 28  1  0  0  0
 28 20  1  0  0  0
 20 21  2  0  0  0
 21 22  1  0  0  0
 22 23  2  0  0  0
 23 24  1  0  0  0
 24 25  2  0  0  0
 25 26  1  0  0  0
 22  1  1  0  0  0
  1  2  2  0  0  0
  2  3  1  0  0  0
  3  4  2  0  0  0
  4  5  1  0  0  0
  5  6  1  0  0  0
  6  7  1  0  0  0
  7  8  1  0  0  0
  8  9  1  0  0  0
  8 10  1  0  0  0
 10 11  1  0  0  0
  3 12  1  0  0  0
 12 13  2  0  0  0
 13 14  1  0  0  0
 14 15  1  0  0  0
 14 16  2  0  0  0
 16 17  1  0  0  0
 17 18  1  0  0  0
 17 19  2  0  0  0
 25 20  1  0  0  0
 11  1  1  0  0  0
 19 12  1  0  0  0
 11  4  1  0  0  0
M  END
> <minimizedAffinity>
31.71828

> <CNNscore>
0.5111654401

> <CNNaffinity>
6.3511314392

> <CNN_VS>
3.2464787960

> <CNNaffinity_variance>
0.3652258217

$$$$
[H]c1c(C([H])([H])[H])nc(C([H])([H])[H])c([H])c1-c1nc(-c2c([H])c([H])c(C([H])([H])[H])c(OC([H])([H])[H])c2[H])n2c1C([H])([H])C([H])([H])O[C@]([H])(C([H])([H])[H])C2([H])[H]


 28 31  0  0  0  0  0  0  0  0999 V2000
   22.7089    9.0364   53.2879 C   0  0  0  0  0  0  0  0  0  0  0  0
   24.0067    9.3610   53.5558 N   0  0  0  0  0  0  0  0  0  0  0  0
   24.5034    8.5133   54.4270 C   0  0  0  0  0  0  0  0  0  0  0  0
   23.4940    7.6156   54.7275 C   0  0  0  0  0  0  0  0  0  0  0  0
   23.7634    6.5538   55.6925 C   0  0  0  0  0  0  0  0  0  0  0  0
   23.0121    5.2873   55.5459 C   0  0  0  0  0  0  0  0  0  0  0  0
   21.6535    5.5928   55.5838 O   0  0  0  0  0  0  0  0  0  0  0  0
   21.1350    5.8493   54.3439 C   0  0  0  0  0  0  0  0  0  0  0  0
   21.7301    4.9771   53.2453 C   0  0  0  0  0  0  0  0  0  0  0  0
   21.1535    7.3090   53.9548 C   0  0  0  0  0  0  0  0  0  0  0  0
   22.3985    7.9644   54.0059 N   0  0  0  0  0  0  0  0  0  0  0  0
   25.8770    8.5771   54.9211 C   0  0  0  0  0  0  0  0  0  0  0  0
   26.2413    9.1689   56.0960 C   0  0  0  0  0  0  0  0  0  0  0  0
   27.5673    9.1814   56.4933 C   0  0  0  0  0  0  0  0  0  0  0  0
   27.9632    9.8258   57.7727 C   0  0  0  0  0  0  0  0  0  0  0  0
   28.4952    8.6002   55.7024 N   0  0  0  0  0  0  0  0  0  0  0  0
   28.1888    8.0070   54.5410 C   0  0  0  0  0  0  0  0  0  0  0  0
   29.2363    7.3713   53.6851 C   0  0  0  0  0  0  0  0  0  0  0  0
   26.8708    7.9910   54.1399 C   0  0  0  0  0  0  0  0  0  0  0  0
   21.5837   12.0601   51.3635 C   0  0  0  0  0  0  0  0  0  0  0  0
   22.2509   11.2278   52.2132 C   0  0  0  0  0  0  0  0  0  0  0  0
   21.9802    9.8559   52.3089 C   0  0  0  0  0  0  0  0  0  0  0  0
   20.9962    9.3800   51.4968 C   0  0  0  0  0  0  0  0  0  0  0  0
   20.3150   10.2378   50.6265 C   0  0  0  0  0  0  0  0  0  0  0  0
   20.5932   11.5618   50.5490 C   0  0  0  0  0  0  0  0  0  0  0  0
   19.8749   12.4959   49.6237 C   0  0  0  0  0  0  0  0  0  0  0  0
   22.9810   13.8751   50.5688 C   0  0  0  0  0  0  0  0  0  0  0  0
   21.8752   13.4223   51.2899 O   0  0  0  0  0  0  0  0  0  0  0  0
 27 28  1  0  0  0
 28 20  1  0  0  0
 20 21  2  0  0  0
 21 22  1  0  0  0
 22 23  2  0  0  0
 23 24  1  0  0  0
 24 25  2  0  0  0
 25 26  1  0  0  0
 22  1  1  0  0  0
  1  2  2  0  0  0
  2  3  1  0  0  0
  3  4  2  0  0  0
  4  5  1  0  0  0
  5  6  1  0  0  0
  6  7  1  0  0  0
  7  8  1  0  0  0
  8  9  1  0  0  0
  8 10  1  0  0  0
 10 11  1  0  0  0
  3 12  1  0  0  0
 12 13  2  0  0  0
 13 14  1  0  0  0
 14 15  1  0  0  0
 14 16  2  0  0  0
 16 17  1  0  0  0
 17 18  1  0  0  0
 17 19  2  0  0  0
 25 20  1  0  0  0
 11  1  1  0  0  0
 19 12  1  0  0  0
 11  4  1  0  0  0
M  END
> <minimizedAffinity>
38.42976

> <CNNscore>
0.4709231555

> <CNNaffinity>
5.7919712067

> <CNN_VS>
2.7275733948

> <CNNaffinity_variance>
0.2800610960

$$$$
[H]c1c(C([H])([H])[H])nc(C([H])([H])[H])c([H])c1-c1nc(-c2c([H])c([H])c(C([H])([H])[H])c(OC([H])([H])[H])c2[H])n2c1C([H])([H])C([H])([H])O[C@]([H])(C([H])([H])[H])C2([H])[H]


 28 31  0  0  0  0  0  0  0  0999 V2000
   25.5097    8.2672   53.1261 C   0  0  0  0  0  0  0  0  0  0  0  0
   25.8877    8.3932   51.8213 N   0  0  0  0  0  0  0  0  0  0  0  0
   27.0408    9.0179   51.7538 C   0  0  0  0  0  0  0  0  0  0  0  0
   27.4158    9.3012   53.0553 C   0  0  0  0  0  0  0  0  0  0  0  0
   28.6694   10.0131   53.2853 C   0  0  0  0  0  0  0  0  0  0  0  0
   29.3789    9.7580   54.5588 C   0  0  0  0  0  0  0  0  0  0  0  0
   28.5006   10.0498   55.5999 O   0  0  0  0  0  0  0  0  0  0  0  0
   27.7623    8.9652   55.9877 C   0  0  0  0  0  0  0  0  0  0  0  0
   28.5371    7.6541   55.9362 C   0  0  0  0  0  0  0  0  0  0  0  0
   26.4291    8.8414   55.2878 C   0  0  0  0  0  0  0  0  0  0  0  0
   26.4499    8.8226   53.8802 N   0  0  0  0  0  0  0  0  0  0  0  0
   27.7288    9.3068   50.4974 C   0  0  0  0  0  0  0  0  0  0  0  0
   28.2140    8.3505   49.6528 C   0  0  0  0  0  0  0  0  0  0  0  0
   28.8508    8.7106   48.4775 C   0  0  0  0  0  0  0  0  0  0  0  0
   29.3788    7.6688   47.5584 C   0  0  0  0  0  0  0  0  0  0  0  0
   28.9852   10.0208   48.1785 N   0  0  0  0  0  0  0  0  0  0  0  0
   28.5268   10.9966   48.9737 C   0  0  0  0  0  0  0  0  0  0  0  0
   28.6893   12.4391   48.6180 C   0  0  0  0  0  0  0  0  0  0  0  0
   27.8920   10.6448   50.1448 C   0  0  0  0  0  0  0  0  0  0  0  0
   21.8542    7.4062   53.0361 C   0  0  0  0  0  0  0  0  0  0  0  0
   23.0675    7.9755   52.7837 C   0  0  0  0  0  0  0  0  0  0  0  0
   24.2500    7.5668   53.4153 C   0  0  0  0  0  0  0  0  0  0  0  0
   24.1300    6.5521   54.3155 C   0  0  0  0  0  0  0  0  0  0  0  0
   22.8833    5.9710   54.5706 C   0  0  0  0  0  0  0  0  0  0  0  0
   21.7517    6.3809   53.9478 C   0  0  0  0  0  0  0  0  0  0  0  0
   20.4081    5.7711   54.2075 C   0  0  0  0  0  0  0  0  0  0  0  0
   20.7659    8.6778   51.2820 C   0  0  0  0  0  0  0  0  0  0  0  0
   20.6935    7.8341   52.3914 O   0  0  0  0  0  0  0  0  0  0  0  0
 27 28  1  0  0  0
 28 20  1  0  0  0
 20 21  2  0  0  0
 21 22  1  0  0  0
 22 23  2  0  0  0
 23 24  1  0  0  0
 24 25  2  0  0  0
 25 26  1  0  0  0
 22  1  1  0  0  0
  1  2  2  0  0  0
  2  3  1  0  0  0
  3  4  2  0  0  0
  4  5  1  0  0  0
  5  6  1  0  0  0
  6  7  1  0  0  0
  7  8  1  0  0  0
  8  9  1  0  0  0
  8 10  1  0  0  0
 10 11  1  0  0  0
  3 12  1  0  0  0
 12 13  2  0  0  0
 13 14  1  0  0  0
 14 15  1  0  0  0
 14 16  2  0  0  0
 16 17  1  0  0  0
 17 18  1  0  0  0
 17 19  2  0  0  0
 25 20  1  0  0  0
 11  1  1  0  0  0
 19 12  1  0  0  0
 11  4  1  0  0  0
M  END
> <minimizedAffinity>
35.13680

> <CNNscore>
0.4655821919

> <CNNaffinity>
5.7058362961

> <CNN_VS>
2.6565358639

> <CNNaffinity_variance>
0.0481970236

$$$$
[H]c1c(C([H])([H])[H])nc(C([H])([H])[H])c([H])c1-c1nc(-c2c([H])c([H])c(C([H])([H])[H])c(OC([H])([H])[H])c2[H])n2c1C([H])([H])C([H])([H])O[C@]([H])(C([H])([H])[H])C2([H])[H]


 28 31  0  0  0  0  0  0  0  0999 V2000
   25.4127    8.4392   52.9899 C   0  0  0  0  0  0  0  0  0  0  0  0
   25.8008    8.6249   51.6952 N   0  0  0  0  0  0  0  0  0  0  0  0
   26.9967    9.1665   51.6658 C   0  0  0  0  0  0  0  0  0  0  0  0
   27.3898    9.3329   52.9821 C   0  0  0  0  0  0  0  0  0  0  0  0
   28.6920    9.9337   53.2551 C   0  0  0  0  0  0  0  0  0  0  0  0
   29.3791    9.5419   54.5059 C   0  0  0  0  0  0  0  0  0  0  0  0
   28.5232    9.8265   55.5675 O   0  0  0  0  0  0  0  0  0  0  0  0
   27.7066    8.7752   55.8839 C   0  0  0  0  0  0  0  0  0  0  0  0
   28.3831    7.4173   55.7413 C   0  0  0  0  0  0  0  0  0  0  0  0
   26.3689    8.7971   55.1820 C   0  0  0  0  0  0  0  0  0  0  0  0
   26.3902    8.8720   53.7763 N   0  0  0  0  0  0  0  0  0  0  0  0
   27.7058    9.4882   50.4293 C   0  0  0  0  0  0  0  0  0  0  0  0
   27.9275   10.7589   49.9824 C   0  0  0  0  0  0  0  0  0  0  0  0
   28.6135   10.9766   48.7999 C   0  0  0  0  0  0  0  0  0  0  0  0
   28.8546   12.3603   48.3139 C   0  0  0  0  0  0  0  0  0  0  0  0
   29.0602    9.9147   48.0949 N   0  0  0  0  0  0  0  0  0  0  0  0
   28.8683    8.6493   48.4906 C   0  0  0  0  0  0  0  0  0  0  0  0
   29.3737    7.4925   47.6905 C   0  0  0  0  0  0  0  0  0  0  0  0
   28.1863    8.4258   49.6667 C   0  0  0  0  0  0  0  0  0  0  0  0
   22.7400    6.3971   54.6628 C   0  0  0  0  0  0  0  0  0  0  0  0
   23.9089    7.0446   54.3900 C   0  0  0  0  0  0  0  0  0  0  0  0
   24.1046    7.8152   53.2358 C   0  0  0  0  0  0  0  0  0  0  0  0
   23.0502    7.8890   52.3772 C   0  0  0  0  0  0  0  0  0  0  0  0
   21.8530    7.2234   52.6618 C   0  0  0  0  0  0  0  0  0  0  0  0
   21.6844    6.4838   53.7847 C   0  0  0  0  0  0  0  0  0  0  0  0
   20.4105    5.7641   54.1067 C   0  0  0  0  0  0  0  0  0  0  0  0
   23.5504    4.7213   56.2163 C   0  0  0  0  0  0  0  0  0  0  0  0
   22.5742    5.6369   55.8206 O   0  0  0  0  0  0  0  0  0  0  0  0
 27 28  1  0  0  0
 28 20  1  0  0  0
 20 21  2  0  0  0
 21 22  1  0  0  0
 22 23  2  0  0  0
 23 24  1  0  0  0
 24 25  2  0  0  0
 25 26  1  0  0  0
 22  1  1  0  0  0
  1  2  2  0  0  0
  2  3  1  0  0  0
  3  4  2  0  0  0
  4  5  1  0  0  0
  5  6  1  0  0  0
  6  7  1  0  0  0
  7  8  1  0  0  0
  8  9  1  0  0  0
  8 10  1  0  0  0
 10 11  1  0  0  0
  3 12  1  0  0  0
 12 13  2  0  0  0
 13 14  1  0  0  0
 14 15  1  0  0  0
 14 16  2  0  0  0
 16 17  1  0  0  0
 17 18  1  0  0  0
 17 19  2  0  0  0
 25 20  1  0  0  0
 11  1  1  0  0  0
 19 12  1  0  0  0
 11  4  1  0  0  0
M  END
> <minimizedAffinity>
40.79275

> <CNNscore>
0.4611020386

> <CNNaffinity>
5.5430517197

> <CNN_VS>
2.5559124947

> <CNNaffinity_variance>
0.0852557123

$$$$
[H]c1c(C([H])([H])[H])nc(C([H])([H])[H])c([H])c1-c1nc(-c2c([H])c([H])c(C([H])([H])[H])c(OC([H])([H])[H])c2[H])n2c1C([H])([H])C([H])([H])O[C@]([H])(C([H])([H])[H])C2([H])[H]


 28 31  0  0  0  0  0  0  0  0999 V2000
   22.6561    7.8892   53.9864 C   0  0  0  0  0  0  0  0  0  0  0  0
   22.2360    6.6031   54.1618 N   0  0  0  0  0  0  0  0  0  0  0  0
   21.1118    6.4128   53.5105 C   0  0  0  0  0  0  0  0  0  0  0  0
   20.8003    7.6133   52.8967 C   0  0  0  0  0  0  0  0  0  0  0  0
   19.5781    7.6993   52.1030 C   0  0  0  0  0  0  0  0  0  0  0  0
   19.5573    8.6611   50.9784 C   0  0  0  0  0  0  0  0  0  0  0  0
   19.8466    9.9227   51.4934 O   0  0  0  0  0  0  0  0  0  0  0  0
   21.1861   10.2011   51.4875 C   0  0  0  0  0  0  0  0  0  0  0  0
   21.9159    9.6453   50.2708 C   0  0  0  0  0  0  0  0  0  0  0  0
   21.9000    9.8366   52.7682 C   0  0  0  0  0  0  0  0  0  0  0  0
   21.7750    8.5052   53.2083 N   0  0  0  0  0  0  0  0  0  0  0  0
   20.4001    5.1368   53.4864 C   0  0  0  0  0  0  0  0  0  0  0  0
   20.9588    3.9559   53.0906 C   0  0  0  0  0  0  0  0  0  0  0  0
   20.2140    2.7890   53.1022 C   0  0  0  0  0  0  0  0  0  0  0  0
   20.8229    1.5037   52.6711 C   0  0  0  0  0  0  0  0  0  0  0  0
   18.9274    2.8355   53.5104 N   0  0  0  0  0  0  0  0  0  0  0  0
   18.3334    3.9685   53.9081 C   0  0  0  0  0  0  0  0  0  0  0  0
   16.9074    3.9911   54.3550 C   0  0  0  0  0  0  0  0  0  0  0  0
   19.0693    5.1333   53.8990 C   0  0  0  0  0  0  0  0  0  0  0  0
   26.3375    8.0618   54.7143 C   0  0  0  0  0  0  0  0  0  0  0  0
   25.1311    7.7694   54.1494 C   0  0  0  0  0  0  0  0  0  0  0  0
   23.9196    8.2951   54.6186 C   0  0  0  0  0  0  0  0  0  0  0  0
   24.0029    9.1302   55.6910 C   0  0  0  0  0  0  0  0  0  0  0  0
   25.2428    9.4275   56.2667 C   0  0  0  0  0  0  0  0  0  0  0  0
   26.4030    8.9087   55.7965 C   0  0  0  0  0  0  0  0  0  0  0  0
   27.7400    9.2152   56.3993 C   0  0  0  0  0  0  0  0  0  0  0  0
   28.6969    8.2850   54.2027 C   0  0  0  0  0  0  0  0  0  0  0  0
   27.5276    7.5232   54.2250 O   0  0  0  0  0  0  0  0  0  0  0  0
 27 28  1  0  0  0
 28 20  1  0  0  0
 20 21  2  0  0  0
 21 22  1  0  0  0
 22 23  2  0  0  0
 23 24  1  0  0  0
 24 25  2  0  0  0
 25 26  1  0  0  0
 22  1  1  0  0  0
  1  2  2  0  0  0
  2  3  1  0  0  0
  3  4  2  0  0  0
  4  5  1  0  0  0
  5  6  1  0  0  0
  6  7  1  0  0  0
  7  8  1  0  0  0
  8  9  1  0  0  0
  8 10  1  0  0  0
 10 11  1  0  0  0
  3 12  1  0  0  0
 12 13  2  0  0  0
 13 14  1  0  0  0
 14 15  1  0  0  0
 14 16  2  0  0  0
 16 17  1  0  0  0
 17 18  1  0  0  0
 17 19  2  0  0  0
 25 20  1  0  0  0
 11  1  1  0  0  0
 19 12  1  0  0  0
 11  4  1  0  0  0
M  END
> <minimizedAffinity>
36.32583

> <CNNscore>
0.4573741853

> <CNNaffinity>
6.3790698051

> <CNN_VS>
2.9176218510

> <CNNaffinity_variance>
0.5430707932

$$$$
[H]c1c(C([H])([H])[H])nc(C([H])([H])[H])c([H])c1-c1nc(-c2c([H])c([H])c(C([H])([H])[H])c(OC([H])([H])[H])c2[H])n2c1C([H])([H])C([H])([H])O[C@]([H])(C([H])([H])[H])C2([H])[H]


 28 31  0  0  0  0  0  0  0  0999 V2000
   21.7502    8.3614   52.8527 C   0  0  0  0  0  0  0  0  0  0  0  0
   20.6553    7.5489   52.9010 N   0  0  0  0  0  0  0  0  0  0  0  0
   21.0223    6.3320   53.2307 C   0  0  0  0  0  0  0  0  0  0  0  0
   22.3953    6.3636   53.4005 C   0  0  0  0  0  0  0  0  0  0  0  0
   23.0863    5.1297   53.7629 C   0  0  0  0  0  0  0  0  0  0  0  0
   24.3347    5.2485   54.5486 C   0  0  0  0  0  0  0  0  0  0  0  0
   25.2120    6.0590   53.8317 O   0  0  0  0  0  0  0  0  0  0  0  0
   25.0845    7.3841   54.1478 C   0  0  0  0  0  0  0  0  0  0  0  0
   24.7888    7.6304   55.6221 C   0  0  0  0  0  0  0  0  0  0  0  0
   24.1234    8.1422   53.2623 C   0  0  0  0  0  0  0  0  0  0  0  0
   22.8150    7.6322   53.1618 N   0  0  0  0  0  0  0  0  0  0  0  0
   20.0864    5.2194   53.3774 C   0  0  0  0  0  0  0  0  0  0  0  0
   20.4002    3.9160   53.1202 C   0  0  0  0  0  0  0  0  0  0  0  0
   19.4534    2.9203   53.2895 C   0  0  0  0  0  0  0  0  0  0  0  0
   19.7957    1.5015   53.0094 C   0  0  0  0  0  0  0  0  0  0  0  0
   18.2155    3.2565   53.7122 N   0  0  0  0  0  0  0  0  0  0  0  0
   17.8583    4.5201   53.9777 C   0  0  0  0  0  0  0  0  0  0  0  0
   16.4807    4.8638   54.4444 C   0  0  0  0  0  0  0  0  0  0  0  0
   18.7960    5.5157   53.8114 C   0  0  0  0  0  0  0  0  0  0  0  0
   20.9604   11.4365   50.8447 C   0  0  0  0  0  0  0  0  0  0  0  0
   21.1274   10.1409   51.2365 C   0  0  0  0  0  0  0  0  0  0  0  0
   21.5436    9.7795   52.5251 C   0  0  0  0  0  0  0  0  0  0  0  0
   21.7810   10.8049   53.3890 C   0  0  0  0  0  0  0  0  0  0  0  0
   21.6077   12.1323   52.9825 C   0  0  0  0  0  0  0  0  0  0  0  0
   21.2034   12.4601   51.7314 C   0  0  0  0  0  0  0  0  0  0  0  0
   21.0122   13.8751   51.2777 C   0  0  0  0  0  0  0  0  0  0  0  0
   20.0743   13.0478   49.2645 C   0  0  0  0  0  0  0  0  0  0  0  0
   20.5445   11.7661   49.5546 O   0  0  0  0  0  0  0  0  0  0  0  0
 27 28  1  0  0  0
 28 20  1  0  0  0
 20 21  2  0  0  0
 21 22  1  0  0  0
 22 23  2  0  0  0
 23 24  1  0  0  0
 24 25  2  0  0  0
 25 26  1  0  0  0
 22  1  1  0  0  0
  1  2  2  0  0  0
  2  3  1  0  0  0
  3  4  2  0  0  0
  4  5  1  0  0  0
  5  6  1  0  0  0
  6  7  1  0  0  0
  7  8  1  0  0  0
  8  9  1  0  0  0
  8 10  1  0  0  0
 10 11  1  0  0  0
  3 12  1  0  0  0
 12 13  2  0  0  0
 13 14  1  0  0  0
 14 15  1  0  0  0
 14 16  2  0  0  0
 16 17  1  0  0  0
 17 18  1  0  0  0
 17 19  2  0  0  0
 25 20  1  0  0  0
 11  1  1  0  0  0
 19 12  1  0  0  0
 11  4  1  0  0  0
M  END
> <minimizedAffinity>
38.45920

> <CNNscore>
0.4567590654

> <CNNaffinity>
6.2153229713

> <CNN_VS>
2.8389050961

> <CNNaffinity_variance>
0.7004548311

$$$$
[H]c1c([H])c(-c2nc(-c3c([H])c(C([H])([H])[H])nc(C([H])([H])[H])c3[H])c3n2C([H])([H])[C@@]([H])(C([H])([H])[H])OC([H])([H])C3([H])[H])c([H])c(OC([H])([H])[H])c1Cl


 28 31  0  0  0  0  0  0  0  0999 V2000
   27.5433    9.3806   52.7381 C   0  0  0  0  0  0  0  0  0  0  0  0
   28.1976    9.7250   53.8988 N   0  0  0  0  0  0  0  0  0  0  0  0
   27.5840    9.2089   54.9672 C   0  0  0  0  0  0  0  0  0  0  0  0
   26.5090    8.5124   54.5123 C   0  0  0  0  0  0  0  0  0  0  0  0
   25.5524    7.7185   55.3418 C   0  0  0  0  0  0  0  0  0  0  0  0
   24.1918    8.2942   55.1819 C   0  0  0  0  0  0  0  0  0  0  0  0
   23.8601    8.6904   53.9363 O   0  0  0  0  0  0  0  0  0  0  0  0
   24.1510    7.8959   52.8885 C   0  0  0  0  0  0  0  0  0  0  0  0
   23.9059    6.4375   52.9972 C   0  0  0  0  0  0  0  0  0  0  0  0
   25.5196    8.1384   52.2453 C   0  0  0  0  0  0  0  0  0  0  0  0
   26.5138    8.6434   53.1467 N   0  0  0  0  0  0  0  0  0  0  0  0
   28.0158    9.3686   56.3681 C   0  0  0  0  0  0  0  0  0  0  0  0
   28.4473    8.3186   57.1351 C   0  0  0  0  0  0  0  0  0  0  0  0
   28.8574    8.5064   58.4618 C   0  0  0  0  0  0  0  0  0  0  0  0
   29.3216    7.3415   59.2685 C   0  0  0  0  0  0  0  0  0  0  0  0
   28.8094    9.7581   58.9489 N   0  0  0  0  0  0  0  0  0  0  0  0
   28.4000   10.8225   58.2560 C   0  0  0  0  0  0  0  0  0  0  0  0
   28.3672   12.1881   58.8469 C   0  0  0  0  0  0  0  0  0  0  0  0
   27.9963   10.6226   56.9425 C   0  0  0  0  0  0  0  0  0  0  0  0
   28.1768    9.2836   49.0412 C   0  0  0  0  0  0  0  0  0  0  0  0
   27.8486    8.9747   50.3282 C   0  0  0  0  0  0  0  0  0  0  0  0
   28.0082    9.8492   51.4212 C   0  0  0  0  0  0  0  0  0  0  0  0
   28.5231   11.0766   51.1520 C   0  0  0  0  0  0  0  0  0  0  0  0
   28.8765   11.4395   49.8438 C   0  0  0  0  0  0  0  0  0  0  0  0
   28.6975   10.5430   48.8247 C   0  0  0  0  0  0  0  0  0  0  0  0
   29.1382   10.9923   47.1851 Cl  0  0  0  0  0  0  0  0  0  0  0  0
   29.1704    7.7822   47.4577 C   0  0  0  0  0  0  0  0  0  0  0  0
   28.0077    8.3974   47.9811 O   0  0  0  0  0  0  0  0  0  0  0  0
 27 28  1  0  0  0
 28 20  1  0  0  0
 20 21  2  0  0  0
 21 22  1  0  0  0
 22 23  2  0  0  0
 23 24  1  0  0  0
 24 25  2  0  0  0
 25 26  1  0  0  0
 22  1  1  0  0  0
  1  2  2  0  0  0
  2  3  1  0  0  0
  3  4  2  0  0  0
  4  5  1  0  0  0
  5  6  1  0  0  0
  6  7  1  0  0  0
  7  8  1  0  0  0
  8  9  1  0  0  0
  8 10  1  0  0  0
 10 11  1  0  0  0
  3 12  1  0  0  0
 12 13  2  0  0  0
 13 14  1  0  0  0
 14 15  1  0  0  0
 14 16  2  0  0  0
 16 17  1  0  0  0
 17 18  1  0  0  0
 17 19  2  0  0  0
 25 20  1  0  0  0
 11  1  1  0  0  0
 19 12  1  0  0  0
 11  4  1  0  0  0
M  END
> <minimizedAffinity>
37.70737

> <CNNscore>
0.5672752857

> <CNNaffinity>
5.7631764412

> <CNN_VS>
3.2693076134

> <CNNaffinity_variance>
0.2250107527

$$$$
[H]c1c([H])c(-c2nc(-c3c([H])c(C([H])([H])[H])nc(C([H])([H])[H])c3[H])c3n2C([H])([H])[C@@]([H])(C([H])([H])[H])OC([H])([H])C3([H])[H])c([H])c(OC([H])([H])[H])c1Cl


 28 31  0  0  0  0  0  0  0  0999 V2000
   22.3662    6.9107   54.3505 C   0  0  0  0  0  0  0  0  0  0  0  0
   23.7390    6.8345   54.4089 N   0  0  0  0  0  0  0  0  0  0  0  0
   24.2683    7.9968   54.8002 C   0  0  0  0  0  0  0  0  0  0  0  0
   23.2358    8.8566   55.0052 C   0  0  0  0  0  0  0  0  0  0  0  0
   23.3390   10.2624   55.5018 C   0  0  0  0  0  0  0  0  0  0  0  0
   22.7945   11.1755   54.4635 C   0  0  0  0  0  0  0  0  0  0  0  0
   21.6862   10.7497   53.8240 O   0  0  0  0  0  0  0  0  0  0  0  0
   20.6793   10.2054   54.5337 C   0  0  0  0  0  0  0  0  0  0  0  0
   20.2695   10.8392   55.8102 C   0  0  0  0  0  0  0  0  0  0  0  0
   20.7564    8.6870   54.7178 C   0  0  0  0  0  0  0  0  0  0  0  0
   22.0899    8.1597   54.7165 N   0  0  0  0  0  0  0  0  0  0  0  0
   25.7062    8.2703   54.9798 C   0  0  0  0  0  0  0  0  0  0  0  0
   26.6664    7.7702   54.1403 C   0  0  0  0  0  0  0  0  0  0  0  0
   28.0244    8.0554   54.3356 C   0  0  0  0  0  0  0  0  0  0  0  0
   29.0435    7.4948   53.4026 C   0  0  0  0  0  0  0  0  0  0  0  0
   28.3441    8.8389   55.3796 N   0  0  0  0  0  0  0  0  0  0  0  0
   27.4592    9.3571   56.2334 C   0  0  0  0  0  0  0  0  0  0  0  0
   27.8702   10.2197   57.3744 C   0  0  0  0  0  0  0  0  0  0  0  0
   26.1168    9.0667   56.0285 C   0  0  0  0  0  0  0  0  0  0  0  0
   19.2556    4.9478   53.6095 C   0  0  0  0  0  0  0  0  0  0  0  0
   20.1472    5.8948   54.0188 C   0  0  0  0  0  0  0  0  0  0  0  0
   21.5466    5.7651   53.9194 C   0  0  0  0  0  0  0  0  0  0  0  0
   22.0166    4.6131   53.3753 C   0  0  0  0  0  0  0  0  0  0  0  0
   21.1380    3.6096   52.9407 C   0  0  0  0  0  0  0  0  0  0  0  0
   19.7875    3.7964   53.0659 C   0  0  0  0  0  0  0  0  0  0  0  0
   18.6832    2.5433   52.5233 Cl  0  0  0  0  0  0  0  0  0  0  0  0
   17.1601    4.0858   54.3936 C   0  0  0  0  0  0  0  0  0  0  0  0
   17.8769    5.1047   53.7210 O   0  0  0  0  0  0  0  0  0  0  0  0
 27 28  1  0  0  0
 28 20  1  0  0  0
 20 21  2  0  0  0
 21 22  1  0  0  0
 22 23  2  0  0  0
 23 24  1  0  0  0
 24 25  2  0  0  0
 25 26  1  0  0  0
 22  1  1  0  0  0
  1  2  2  0  0  0
  2  3  1  0  0  0
  3  4  2  0  0  0
  4  5  1  0  0  0
  5  6  1  0  0  0
  6  7  1  0  0  0
  7  8  1  0  0  0
  8  9  1  0  0  0
  8 10  1  0  0  0
 10 11  1  0  0  0
  3 12  1  0  0  0
 12 13  2  0  0  0
 13 14  1  0  0  0
 14 15  1  0  0  0
 14 16  2  0  0  0
 16 17  1  0  0  0
 17 18  1  0  0  0
 17 19  2  0  0  0
 25 20  1  0  0  0
 11  1  1  0  0  0
 19 12  1  0  0  0
 11  4  1  0  0  0
M  END
> <minimizedAffinity>
31.96528

> <CNNscore>
0.5414702892

> <CNNaffinity>
6.4240899086

> <CNN_VS>
3.4784538746

> <CNNaffinity_variance>
0.5351123214

$$$$
[H]c1c([H])c(-c2nc(-c3c([H])c(C([H])([H])[H])nc(C([H])([H])[H])c3[H])c3n2C([H])([H])[C@@]([H])(C([H])([H])[H])OC([H])([H])C3([H])[H])c([H])c(OC([H])([H])[H])c1Cl


 28 31  0  0  0  0  0  0  0  0999 V2000
   23.5277    7.5569   54.0017 C   0  0  0  0  0  0  0  0  0  0  0  0
   22.9559    6.3105   53.8858 N   0  0  0  0  0  0  0  0  0  0  0  0
   21.6267    6.3991   53.7889 C   0  0  0  0  0  0  0  0  0  0  0  0
   21.3099    7.7199   53.8405 C   0  0  0  0  0  0  0  0  0  0  0  0
   19.9417    8.3082   53.7165 C   0  0  0  0  0  0  0  0  0  0  0  0
   19.6234    9.0419   54.9689 C   0  0  0  0  0  0  0  0  0  0  0  0
   20.6332    9.7529   55.5106 O   0  0  0  0  0  0  0  0  0  0  0  0
   21.4098   10.5131   54.7152 C   0  0  0  0  0  0  0  0  0  0  0  0
   20.7749   11.3334   53.6553 C   0  0  0  0  0  0  0  0  0  0  0  0
   22.6472    9.8118   54.1473 C   0  0  0  0  0  0  0  0  0  0  0  0
   22.4958    8.3964   53.9750 N   0  0  0  0  0  0  0  0  0  0  0  0
   20.6970    5.2638   53.6432 C   0  0  0  0  0  0  0  0  0  0  0  0
   19.3650    5.3521   53.9516 C   0  0  0  0  0  0  0  0  0  0  0  0
   18.5072    4.2552   53.7948 C   0  0  0  0  0  0  0  0  0  0  0  0
   17.0625    4.3859   54.1399 C   0  0  0  0  0  0  0  0  0  0  0  0
   19.0457    3.1150   53.3301 N   0  0  0  0  0  0  0  0  0  0  0  0
   20.3326    2.9629   53.0117 C   0  0  0  0  0  0  0  0  0  0  0  0
   20.8758    1.6749   52.5007 C   0  0  0  0  0  0  0  0  0  0  0  0
   21.1719    4.0576   53.1717 C   0  0  0  0  0  0  0  0  0  0  0  0
   26.7467    8.8214   55.4566 C   0  0  0  0  0  0  0  0  0  0  0  0
   25.4343    8.6011   55.1595 C   0  0  0  0  0  0  0  0  0  0  0  0
   24.9833    7.7282   54.1498 C   0  0  0  0  0  0  0  0  0  0  0  0
   25.9360    7.0718   53.4388 C   0  0  0  0  0  0  0  0  0  0  0  0
   27.2990    7.2667   53.7075 C   0  0  0  0  0  0  0  0  0  0  0  0
   27.6725    8.1301   54.7022 C   0  0  0  0  0  0  0  0  0  0  0  0
   29.3775    8.3777   55.0427 Cl  0  0  0  0  0  0  0  0  0  0  0  0
   27.8494    9.1283   57.5635 C   0  0  0  0  0  0  0  0  0  0  0  0
   27.1621    9.6911   56.4612 O   0  0  0  0  0  0  0  0  0  0  0  0
 27 28  1  0  0  0
 28 20  1  0  0  0
 20 21  2  0  0  0
 21 22  1  0  0  0
 22 23  2  0  0  0
 23 24  1  0  0  0
 24 25  2  0  0  0
 25 26  1  0  0  0
 22  1  1  0  0  0
  1  2  2  0  0  0
  2  3  1  0  0  0
  3  4  2  0  0  0
  4  5  1  0  0  0
  5  6  1  0  0  0
  6  7  1  0  0  0
  7  8  1  0  0  0
  8  9  1  0  0  0
  8 10  1  0  0  0
 10 11  1  0  0  0
  3 12  1  0  0  0
 12 13  2  0  0  0
 13 14  1  0  0  0
 14 15  1  0  0  0
 14 16  2  0  0  0
 16 17  1  0  0  0
 17 18  1  0  0  0
 17 19  2  0  0  0
 25 20  1  0  0  0
 11  1  1  0  0  0
 19 12  1  0  0  0
 11  4  1  0  0  0
M  END
> <minimizedAffinity>
30.81623

> <CNNscore>
0.5038229227

> <CNNaffinity>
6.4086279869

> <CNN_VS>
3.2288136482

> <CNNaffinity_variance>
0.4517769217

$$$$
[H]c1c([H])c(-c2nc(-c3c([H])c(C([H])([H])[H])nc(C([H])([H])[H])c3[H])c3n2C([H])([H])[C@@]([H])(C([H])([H])[H])OC([H])([H])C3([H])[H])c([H])c(OC([H])([H])[H])c1Cl


 28 31  0  0  0  0  0  0  0  0999 V2000
   23.5777    7.5156   53.9394 C   0  0  0  0  0  0  0  0  0  0  0  0
   23.0294    6.2570   53.8445 N   0  0  0  0  0  0  0  0  0  0  0  0
   21.7027    6.3205   53.7023 C   0  0  0  0  0  0  0  0  0  0  0  0
   21.3641    7.6369   53.7020 C   0  0  0  0  0  0  0  0  0  0  0  0
   19.9916    8.1984   53.5157 C   0  0  0  0  0  0  0  0  0  0  0  0
   19.6213    8.9652   54.7336 C   0  0  0  0  0  0  0  0  0  0  0  0
   20.6018    9.7091   55.2847 O   0  0  0  0  0  0  0  0  0  0  0  0
   21.3920   10.4571   54.4911 C   0  0  0  0  0  0  0  0  0  0  0  0
   20.7794   11.2335   53.3862 C   0  0  0  0  0  0  0  0  0  0  0  0
   22.6580    9.7591   53.9856 C   0  0  0  0  0  0  0  0  0  0  0  0
   22.5343    8.3367   53.8532 N   0  0  0  0  0  0  0  0  0  0  0  0
   20.7960    5.1660   53.5626 C   0  0  0  0  0  0  0  0  0  0  0  0
   21.2164    3.9441   53.1075 C   0  0  0  0  0  0  0  0  0  0  0  0
   20.3295    2.8653   52.9932 C   0  0  0  0  0  0  0  0  0  0  0  0
   20.8205    1.5488   52.4944 C   0  0  0  0  0  0  0  0  0  0  0  0
   19.0513    3.0799   53.3484 N   0  0  0  0  0  0  0  0  0  0  0  0
   18.5781    4.2436   53.7983 C   0  0  0  0  0  0  0  0  0  0  0  0
   17.1504    4.4252   54.1777 C   0  0  0  0  0  0  0  0  0  0  0  0
   19.4675    5.3046   53.9068 C   0  0  0  0  0  0  0  0  0  0  0  0
   26.7293    8.8271   55.4967 C   0  0  0  0  0  0  0  0  0  0  0  0
   25.4302    8.5833   55.1617 C   0  0  0  0  0  0  0  0  0  0  0  0
   25.0249    7.7154   54.1287 C   0  0  0  0  0  0  0  0  0  0  0  0
   26.0099    7.0892   53.4346 C   0  0  0  0  0  0  0  0  0  0  0  0
   27.3608    7.3091   53.7422 C   0  0  0  0  0  0  0  0  0  0  0  0
   27.6893    8.1660   54.7581 C   0  0  0  0  0  0  0  0  0  0  0  0
   29.3790    8.4447   55.1474 Cl  0  0  0  0  0  0  0  0  0  0  0  0
   27.7900    9.1316   57.6254 C   0  0  0  0  0  0  0  0  0  0  0  0
   27.0992    9.6912   56.5236 O   0  0  0  0  0  0  0  0  0  0  0  0
 27 28  1  0  0  0
 28 20  1  0  0  0
 20 21  2  0  0  0
 21 22  1  0  0  0
 22 23  2  0  0  0
 23 24  1  0  0  0
 24 25  2  0  0  0
 25 26  1  0  0  0
 22  1  1  0  0  0
  1  2  2  0  0  0
  2  3  1  0  0  0
  3  4  2  0  0  0
  4  5  1  0  0  0
  5  6  1  0  0  0
  6  7  1  0  0  0
  7  8  1  0  0  0
  8  9  1  0  0  0
  8 10  1  0  0  0
 10 11  1  0  0  0
  3 12  1  0  0  0
 12 13  2  0  0  0
 13 14  1  0  0  0
 14 15  1  0  0  0
 14 16  2  0  0  0
 16 17  1  0  0  0
 17 18  1  0  0  0
 17 19  2  0  0  0
 25 20  1  0  0  0
 11  1  1  0  0  0
 19 12  1  0  0  0
 11  4  1  0  0  0
M  END
> <minimizedAffinity>
30.61434

> <CNNscore>
0.4920803607

> <CNNaffinity>
6.4096841812

> <CNN_VS>
3.1540796757

> <CNNaffinity_variance>
0.4684703350

$$$$
[H]c1c([H])c(-c2nc(-c3c([H])c(C([H])([H])[H])nc(C([H])([H])[H])c3[H])c3n2C([H])([H])[C@@]([H])(C([H])([H])[H])OC([H])([H])C3([H])[H])c([H])c(OC([H])([H])[H])c1Cl


 28 31  0  0  0  0  0  0  0  0999 V2000
   25.6202    8.3197   53.3116 C   0  0  0  0  0  0  0  0  0  0  0  0
   25.9069    8.6206   51.9998 N   0  0  0  0  0  0  0  0  0  0  0  0
   27.1833    8.9885   51.8593 C   0  0  0  0  0  0  0  0  0  0  0  0
   27.7531    8.9313   53.0921 C   0  0  0  0  0  0  0  0  0  0  0  0
   29.1851    9.2059   53.4196 C   0  0  0  0  0  0  0  0  0  0  0  0
   29.2465   10.3510   54.3647 C   0  0  0  0  0  0  0  0  0  0  0  0
   28.3022   10.3745   55.3272 O   0  0  0  0  0  0  0  0  0  0  0  0
   28.0063    9.2420   55.9932 C   0  0  0  0  0  0  0  0  0  0  0  0
   29.1091    8.3570   56.4400 C   0  0  0  0  0  0  0  0  0  0  0  0
   26.8882    8.3956   55.3776 C   0  0  0  0  0  0  0  0  0  0  0  0
   26.7673    8.5232   53.9545 N   0  0  0  0  0  0  0  0  0  0  0  0
   27.8342    9.3708   50.5925 C   0  0  0  0  0  0  0  0  0  0  0  0
   28.0310   10.6757   50.2245 C   0  0  0  0  0  0  0  0  0  0  0  0
   28.6596   11.0044   49.0161 C   0  0  0  0  0  0  0  0  0  0  0  0
   28.8581   12.4352   48.6465 C   0  0  0  0  0  0  0  0  0  0  0  0
   29.0602    9.9870   48.2348 N   0  0  0  0  0  0  0  0  0  0  0  0
   28.8989    8.6967   48.5340 C   0  0  0  0  0  0  0  0  0  0  0  0
   29.3629    7.6094   47.6298 C   0  0  0  0  0  0  0  0  0  0  0  0
   28.2746    8.3846   49.7345 C   0  0  0  0  0  0  0  0  0  0  0  0
   21.9250    8.6134   53.8918 C   0  0  0  0  0  0  0  0  0  0  0  0
   23.2341    8.8579   53.5989 C   0  0  0  0  0  0  0  0  0  0  0  0
   24.2690    7.9114   53.7330 C   0  0  0  0  0  0  0  0  0  0  0  0
   23.9166    6.6800   54.1839 C   0  0  0  0  0  0  0  0  0  0  0  0
   22.5826    6.3818   54.4992 C   0  0  0  0  0  0  0  0  0  0  0  0
   21.6230    7.3465   54.3478 C   0  0  0  0  0  0  0  0  0  0  0  0
   19.9514    6.9784   54.7409 Cl  0  0  0  0  0  0  0  0  0  0  0  0
   21.2899   10.9251   53.9333 C   0  0  0  0  0  0  0  0  0  0  0  0
   20.9237    9.5700   53.7492 O   0  0  0  0  0  0  0  0  0  0  0  0
 27 28  1  0  0  0
 28 20  1  0  0  0
 20 21  2  0  0  0
 21 22  1  0  0  0
 22 23  2  0  0  0
 23 24  1  0  0  0
 24 25  2  0  0  0
 25 26  1  0  0  0
 22  1  1  0  0  0
  1  2  2  0  0  0
  2  3  1  0  0  0
  3  4  2  0  0  0
  4  5  1  0  0  0
  5  6  1  0  0  0
  6  7  1  0  0  0
  7  8  1  0  0  0
  8  9  1  0  0  0
  8 10  1  0  0  0
 10 11  1  0  0  0
  3 12  1  0  0  0
 12 13  2  0  0  0
 13 14  1  0  0  0
 14 15  1  0  0  0
 14 16  2  0  0  0
 16 17  1  0  0  0
 17 18  1  0  0  0
 17 19  2  0  0  0
 25 20  1  0  0  0
 11  1  1  0  0  0
 19 12  1  0  0  0
 11  4  1  0  0  0
M  END
> <minimizedAffinity>
34.26101

> <CNNscore>
0.4322012067

> <CNNaffinity>
5.8042421341

> <CNN_VS>
2.5086004734

> <CNNaffinity_variance>
0.0173278544

$$$$
[H]c1c([H])c(-c2nc(-c3c([H])c(C([H])([H])[H])nc(C([H])([H])[H])c3[H])c3n2C([H])([H])[C@@]([H])(C([H])([H])[H])OC([H])([H])C3([H])[H])c([H])c(OC([H])([H])[H])c1Cl


 28 31  0  0  0  0  0  0  0  0999 V2000
   25.5380    8.2938   53.3587 C   0  0  0  0  0  0  0  0  0  0  0  0
   25.8488    8.5552   52.0439 N   0  0  0  0  0  0  0  0  0  0  0  0
   27.1329    8.8991   51.9131 C   0  0  0  0  0  0  0  0  0  0  0  0
   27.6834    8.8658   53.1555 C   0  0  0  0  0  0  0  0  0  0  0  0
   29.1147    9.1266   53.4973 C   0  0  0  0  0  0  0  0  0  0  0  0
   29.1805   10.2953   54.4127 C   0  0  0  0  0  0  0  0  0  0  0  0
   28.2227   10.3593   55.3598 O   0  0  0  0  0  0  0  0  0  0  0  0
   27.8988    9.2497   56.0508 C   0  0  0  0  0  0  0  0  0  0  0  0
   28.9805    8.3597   56.5376 C   0  0  0  0  0  0  0  0  0  0  0  0
   26.7764    8.4048   55.4409 C   0  0  0  0  0  0  0  0  0  0  0  0
   26.6786    8.4964   54.0133 N   0  0  0  0  0  0  0  0  0  0  0  0
   27.8084    9.2372   50.6467 C   0  0  0  0  0  0  0  0  0  0  0  0
   28.2616    8.2858   49.7712 C   0  0  0  0  0  0  0  0  0  0  0  0
   28.8937    8.6417   48.5724 C   0  0  0  0  0  0  0  0  0  0  0  0
   29.3746    7.5805   47.6420 C   0  0  0  0  0  0  0  0  0  0  0  0
   29.0363    9.9537   48.3184 N   0  0  0  0  0  0  0  0  0  0  0  0
   28.6183   10.9289   49.1276 C   0  0  0  0  0  0  0  0  0  0  0  0
   28.8031   12.3679   48.7955 C   0  0  0  0  0  0  0  0  0  0  0  0
   27.9935   10.5626   50.3124 C   0  0  0  0  0  0  0  0  0  0  0  0
   21.8888    8.7392   54.1086 C   0  0  0  0  0  0  0  0  0  0  0  0
   23.2028    8.9379   53.8036 C   0  0  0  0  0  0  0  0  0  0  0  0
   24.1743    7.9182   53.7702 C   0  0  0  0  0  0  0  0  0  0  0  0
   23.7516    6.6613   54.0627 C   0  0  0  0  0  0  0  0  0  0  0  0
   22.4096    6.4079   54.3834 C   0  0  0  0  0  0  0  0  0  0  0  0
   21.5141    7.4434   54.3994 C   0  0  0  0  0  0  0  0  0  0  0  0
   19.8329    7.1316   54.8002 Cl  0  0  0  0  0  0  0  0  0  0  0  0
   21.1463   10.8006   55.0825 C   0  0  0  0  0  0  0  0  0  0  0  0
   20.9513    9.7680   54.1338 O   0  0  0  0  0  0  0  0  0  0  0  0
 27 28  1  0  0  0
 28 20  1  0  0  0
 20 21  2  0  0  0
 21 22  1  0  0  0
 22 23  2  0  0  0
 23 24  1  0  0  0
 24 25  2  0  0  0
 25 26  1  0  0  0
 22  1  1  0  0  0
  1  2  2  0  0  0
  2  3  1  0  0  0
  3  4  2  0  0  0
  4  5  1  0  0  0
  5  6  1  0  0  0
  6  7  1  0  0  0
  7  8  1  0  0  0
  8  9  1  0  0  0
  8 10  1  0  0  0
 10 11  1  0  0  0
  3 12  1  0  0  0
 12 13  2  0  0  0
 13 14  1  0  0  0
 14 15  1  0  0  0
 14 16  2  0  0  0
 16 17  1  0  0  0
 17 18  1  0  0  0
 17 19  2  0  0  0
 25 20  1  0  0  0
 11  1  1  0  0  0
 19 12  1  0  0  0
 11  4  1  0  0  0
M  END
> <minimizedAffinity>
34.35467

> <CNNscore>
0.4298790097

> <CNNaffinity>
5.7457437515

> <CNN_VS>
2.4699745178

> <CNNaffinity_variance>
0.0239600502

$$$$
[H]c1c([H])c(-c2nc(-c3c([H])c(C([H])([H])[H])nc(C([H])([H])[H])c3[H])c3n2C([H])([H])[C@@]([H])(C([H])([H])[H])OC([H])([H])C3([H])[H])c([H])c(OC([H])([H])[H])c1Cl


 28 31  0  0  0  0  0  0  0  0999 V2000
   21.6528    8.3466   53.3671 C   0  0  0  0  0  0  0  0  0  0  0  0
   20.5981    7.4704   53.2508 N   0  0  0  0  0  0  0  0  0  0  0  0
   20.9740    6.2240   53.5498 C   0  0  0  0  0  0  0  0  0  0  0  0
   22.2943    6.2712   53.8693 C   0  0  0  0  0  0  0  0  0  0  0  0
   23.1375    5.1236   54.3227 C   0  0  0  0  0  0  0  0  0  0  0  0
   24.2402    4.9276   53.3460 C   0  0  0  0  0  0  0  0  0  0  0  0
   24.8074    6.0509   52.8614 O   0  0  0  0  0  0  0  0  0  0  0  0
   25.1108    7.0569   53.7039 C   0  0  0  0  0  0  0  0  0  0  0  0
   25.7373    6.7415   55.0104 C   0  0  0  0  0  0  0  0  0  0  0  0
   24.0045    8.0967   53.9045 C   0  0  0  0  0  0  0  0  0  0  0  0
   22.6756    7.5829   53.7424 N   0  0  0  0  0  0  0  0  0  0  0  0
   20.1007    5.0358   53.5389 C   0  0  0  0  0  0  0  0  0  0  0  0
   18.7919    5.0742   53.9423 C   0  0  0  0  0  0  0  0  0  0  0  0
   17.9872    3.9274   53.9129 C   0  0  0  0  0  0  0  0  0  0  0  0
   16.5665    4.0045   54.3589 C   0  0  0  0  0  0  0  0  0  0  0  0
   18.5529    2.7904   53.4731 N   0  0  0  0  0  0  0  0  0  0  0  0
   19.8196    2.6856   53.0669 C   0  0  0  0  0  0  0  0  0  0  0  0
   20.3947    1.3987   52.5889 C   0  0  0  0  0  0  0  0  0  0  0  0
   20.6062    3.8294   53.1010 C   0  0  0  0  0  0  0  0  0  0  0  0
   21.2599   11.4331   51.2702 C   0  0  0  0  0  0  0  0  0  0  0  0
   21.4514   10.1562   51.7086 C   0  0  0  0  0  0  0  0  0  0  0  0
   21.5025    9.7807   53.0655 C   0  0  0  0  0  0  0  0  0  0  0  0
   21.3467   10.7719   53.9805 C   0  0  0  0  0  0  0  0  0  0  0  0
   21.1481   12.1008   53.5774 C   0  0  0  0  0  0  0  0  0  0  0  0
   21.1092   12.4009   52.2422 C   0  0  0  0  0  0  0  0  0  0  0  0
   20.8608   14.0630   51.7323 Cl  0  0  0  0  0  0  0  0  0  0  0  0
   20.1178   12.5567   49.4864 C   0  0  0  0  0  0  0  0  0  0  0  0
   21.2143   11.7738   49.9212 O   0  0  0  0  0  0  0  0  0  0  0  0
 27 28  1  0  0  0
 28 20  1  0  0  0
 20 21  2  0  0  0
 21 22  1  0  0  0
 22 23  2  0  0  0
 23 24  1  0  0  0
 24 25  2  0  0  0
 25 26  1  0  0  0
 22  1  1  0  0  0
  1  2  2  0  0  0
  2  3  1  0  0  0
  3  4  2  0  0  0
  4  5  1  0  0  0
  5  6  1  0  0  0
  6  7  1  0  0  0
  7  8  1  0  0  0
  8  9  1  0  0  0
  8 10  1  0  0  0
 10 11  1  0  0  0
  3 12  1  0  0  0
 12 13  2  0  0  0
 13 14  1  0  0  0
 14 15  1  0  0  0
 14 16  2  0  0  0
 16 17  1  0  0  0
 17 18  1  0  0  0
 17 19  2  0  0  0
 25 20  1  0  0  0
 11  1  1  0  0  0
 19 12  1  0  0  0
 11  4  1  0  0  0
M  END
> <minimizedAffinity>
35.57791

> <CNNscore>
0.4238405228

> <CNNaffinity>
6.2463259697

> <CNN_VS>
2.6474461555

> <CNNaffinity_variance>
0.6056387424

$$$$
[H]c1c([H])c(-c2nc(-c3c([H])c(C([H])([H])[H])nc(C([H])([H])[H])c3[H])c3n2C([H])([H])[C@@]([H])(C([H])([H])[H])OC([H])([H])C3([H])[H])c([H])c(OC([H])([H])[H])c1Cl


 28 31  0  0  0  0  0  0  0  0999 V2000
   22.7010    8.7664   52.8070 C   0  0  0  0  0  0  0  0  0  0  0  0
   23.9417    9.1851   53.2304 N   0  0  0  0  0  0  0  0  0  0  0  0
   24.5243    8.2605   53.9984 C   0  0  0  0  0  0  0  0  0  0  0  0
   23.6615    7.2138   54.0869 C   0  0  0  0  0  0  0  0  0  0  0  0
   23.9043    5.9237   54.8012 C   0  0  0  0  0  0  0  0  0  0  0  0
   22.8834    5.7717   55.8702 C   0  0  0  0  0  0  0  0  0  0  0  0
   21.6314    6.1584   55.5515 O   0  0  0  0  0  0  0  0  0  0  0  0
   21.1103    5.8022   54.3619 C   0  0  0  0  0  0  0  0  0  0  0  0
   21.3131    4.4183   53.8691 C   0  0  0  0  0  0  0  0  0  0  0  0
   21.3531    6.7930   53.2195 C   0  0  0  0  0  0  0  0  0  0  0  0
   22.5573    7.5604   53.3504 N   0  0  0  0  0  0  0  0  0  0  0  0
   25.8589    8.3711   54.6157 C   0  0  0  0  0  0  0  0  0  0  0  0
   26.0709    8.9957   55.8165 C   0  0  0  0  0  0  0  0  0  0  0  0
   27.3518    9.0772   56.3786 C   0  0  0  0  0  0  0  0  0  0  0  0
   27.5470    9.7641   57.6875 C   0  0  0  0  0  0  0  0  0  0  0  0
   28.3618    8.5177   55.6909 N   0  0  0  0  0  0  0  0  0  0  0  0
   28.2233    7.8958   54.5184 C   0  0  0  0  0  0  0  0  0  0  0  0
   29.3788    7.2933   53.7995 C   0  0  0  0  0  0  0  0  0  0  0  0
   26.9486    7.8220   53.9724 C   0  0  0  0  0  0  0  0  0  0  0  0
   21.4102   11.9199   51.2363 C   0  0  0  0  0  0  0  0  0  0  0  0
   22.0803   11.0080   51.9970 C   0  0  0  0  0  0  0  0  0  0  0  0
   21.8431    9.6196   51.9667 C   0  0  0  0  0  0  0  0  0  0  0  0
   20.8800    9.1824   51.1150 C   0  0  0  0  0  0  0  0  0  0  0  0
   20.1633   10.0830   50.3131 C   0  0  0  0  0  0  0  0  0  0  0  0
   20.4411   11.4214   50.3899 C   0  0  0  0  0  0  0  0  0  0  0  0
   19.5469   12.5532   49.3881 Cl  0  0  0  0  0  0  0  0  0  0  0  0
   20.8846   14.0609   52.1791 C   0  0  0  0  0  0  0  0  0  0  0  0
   21.6671   13.2871   51.2884 O   0  0  0  0  0  0  0  0  0  0  0  0
 27 28  1  0  0  0
 28 20  1  0  0  0
 20 21  2  0  0  0
 21 22  1  0  0  0
 22 23  2  0  0  0
 23 24  1  0  0  0
 24 25  2  0  0  0
 25 26  1  0  0  0
 22  1  1  0  0  0
  1  2  2  0  0  0
  2  3  1  0  0  0
  3  4  2  0  0  0
  4  5  1  0  0  0
  5  6  1  0  0  0
  6  7  1  0  0  0
  7  8  1  0  0  0
  8  9  1  0  0  0
  8 10  1  0  0  0
 10 11  1  0  0  0
  3 12  1  0  0  0
 12 13  2  0  0  0
 13 14  1  0  0  0
 14 15  1  0  0  0
 14 16  2  0  0  0
 16 17  1  0  0  0
 17 18  1  0  0  0
 17 19  2  0  0  0
 25 20  1  0  0  0
 11  1  1  0  0  0
 19 12  1  0  0  0
 11  4  1  0  0  0
M  END
> <minimizedAffinity>
35.71168

> <CNNscore>
0.4146785438

> <CNNaffinity>
5.7140579224

> <CNN_VS>
2.3694972992

> <CNNaffinity_variance>
0.2095360011

$$$$
[H]c1c([H])c(-c2nc(-c3c([H])c(C([H])([H])[H])nc(C([H])([H])[H])c3[H])c3n2C([H])([H])[C@@]([H])(C([H])([H])[H])OC([H])([H])C3([H])[H])c([H])c(OC([H])([H])[H])c1Cl


 28 31  0  0  0  0  0  0  0  0999 V2000
   20.5441    5.6096   53.1967 C   0  0  0  0  0  0  0  0  0  0  0  0
   20.2116    6.9441   53.2448 N   0  0  0  0  0  0  0  0  0  0  0  0
   21.3050    7.7111   53.2626 C   0  0  0  0  0  0  0  0  0  0  0  0
   22.3779    6.8774   53.2255 C   0  0  0  0  0  0  0  0  0  0  0  0
   23.8149    7.2849   53.1756 C   0  0  0  0  0  0  0  0  0  0  0  0
   24.5024    6.7550   54.3818 C   0  0  0  0  0  0  0  0  0  0  0  0
   24.1515    5.5101   54.7634 O   0  0  0  0  0  0  0  0  0  0  0  0
   24.0346    4.5408   53.8358 C   0  0  0  0  0  0  0  0  0  0  0  0
   25.0599    4.4327   52.7700 C   0  0  0  0  0  0  0  0  0  0  0  0
   22.6398    4.3895   53.2215 C   0  0  0  0  0  0  0  0  0  0  0  0
   21.8746    5.6017   53.1902 N   0  0  0  0  0  0  0  0  0  0  0  0
   21.3215    9.1851   53.3041 C   0  0  0  0  0  0  0  0  0  0  0  0
   21.4697    9.9566   52.1817 C   0  0  0  0  0  0  0  0  0  0  0  0
   21.4741   11.3559   52.2555 C   0  0  0  0  0  0  0  0  0  0  0  0
   21.6374   12.1654   51.0141 C   0  0  0  0  0  0  0  0  0  0  0  0
   21.3273   11.9079   53.4720 N   0  0  0  0  0  0  0  0  0  0  0  0
   21.1791   11.2147   54.6026 C   0  0  0  0  0  0  0  0  0  0  0  0
   21.0202   11.8793   55.9247 C   0  0  0  0  0  0  0  0  0  0  0  0
   21.1764    9.8288   54.5154 C   0  0  0  0  0  0  0  0  0  0  0  0
   17.3233    3.8988   54.0784 C   0  0  0  0  0  0  0  0  0  0  0  0
   18.3844    4.7527   54.0137 C   0  0  0  0  0  0  0  0  0  0  0  0
   19.5140    4.5565   53.1950 C   0  0  0  0  0  0  0  0  0  0  0  0
   19.5250    3.4370   52.4264 C   0  0  0  0  0  0  0  0  0  0  0  0
   18.4565    2.5287   52.4598 C   0  0  0  0  0  0  0  0  0  0  0  0
   17.3872    2.7766   53.2781 C   0  0  0  0  0  0  0  0  0  0  0  0
   16.0469    1.6427   53.3236 Cl  0  0  0  0  0  0  0  0  0  0  0  0
   16.2541    3.5583   56.1974 C   0  0  0  0  0  0  0  0  0  0  0  0
   16.2200    4.1198   54.8982 O   0  0  0  0  0  0  0  0  0  0  0  0
 27 28  1  0  0  0
 28 20  1  0  0  0
 20 21  2  0  0  0
 21 22  1  0  0  0
 22 23  2  0  0  0
 23 24  1  0  0  0
 24 25  2  0  0  0
 25 26  1  0  0  0
 22  1  1  0  0  0
  1  2  2  0  0  0
  2  3  1  0  0  0
  3  4  2  0  0  0
  4  5  1  0  0  0
  5  6  1  0  0  0
  6  7  1  0  0  0
  7  8  1  0  0  0
  8  9  1  0  0  0
  8 10  1  0  0  0
 10 11  1  0  0  0
  3 12  1  0  0  0
 12 13  2  0  0  0
 13 14  1  0  0  0
 14 15  1  0  0  0
 14 16  2  0  0  0
 16 17  1  0  0  0
 17 18  1  0  0  0
 17 19  2  0  0  0
 25 20  1  0  0  0
 11  1  1  0  0  0
 19 12  1  0  0  0
 11  4  1  0  0  0
M  END
> <minimizedAffinity>
40.66800

> <CNNscore>
0.3643532991

> <CNNaffinity>
6.2256574631

> <CNN_VS>
2.2683389187

> <CNNaffinity_variance>
0.3414209485

$$$$
[H]c1c([H])c(-c2nc(-c3c([H])c(C([H])([H])[H])nc(C([H])([H])F)c3[H])c3n2C([H])([H])[C@@]([H])(C([H])([H])[H])OC([H])([H])C3([H])[H])c([H])c(C([H])([H])[H])c1Cl


 28 31  0  0  0  0  0  0  0  0999 V2000
   21.8891   11.7417   51.8269 C   0  0  0  0  0  0  0  0  0  0  0  0
   21.4204   10.3113   52.0879 C   0  0  0  0  0  0  0  0  0  0  0  0
   22.6625    9.4590   52.1648 C   0  0  0  0  0  0  0  0  0  0  0  0
   22.3728    8.1283   52.6618 N   0  0  0  0  0  0  0  0  0  0  0  0
   21.2609    7.3686   52.4571 C   0  0  0  0  0  0  0  0  0  0  0  0
   20.0847    7.6113   51.6269 C   0  0  0  0  0  0  0  0  0  0  0  0
   19.6010    9.0269   51.7802 C   0  0  0  0  0  0  0  0  0  0  0  0
   20.5341    9.8804   51.1426 O   0  0  0  0  0  0  0  0  0  0  0  0
   21.4597    6.2188   53.2115 C   0  0  0  0  0  0  0  0  0  0  0  0
   22.6347    6.2888   53.8350 N   0  0  0  0  0  0  0  0  0  0  0  0
   23.2060    7.4849   53.4854 C   0  0  0  0  0  0  0  0  0  0  0  0
   24.5004    7.8574   54.0226 C   0  0  0  0  0  0  0  0  0  0  0  0
   25.6298    7.6442   53.1997 C   0  0  0  0  0  0  0  0  0  0  0  0
   26.8773    8.0301   53.5880 C   0  0  0  0  0  0  0  0  0  0  0  0
   27.0732    8.6424   54.8012 C   0  0  0  0  0  0  0  0  0  0  0  0
   28.6805    9.1365   55.2979 Cl  0  0  0  0  0  0  0  0  0  0  0  0
   26.0097    8.8752   55.6410 C   0  0  0  0  0  0  0  0  0  0  0  0
   26.1917    9.5420   56.9722 C   0  0  0  0  0  0  0  0  0  0  0  0
   24.7542    8.4706   55.2139 C   0  0  0  0  0  0  0  0  0  0  0  0
   20.5533    5.0895   53.3413 C   0  0  0  0  0  0  0  0  0  0  0  0
   20.9634    3.8259   53.0066 C   0  0  0  0  0  0  0  0  0  0  0  0
   20.0818    2.7556   53.1320 C   0  0  0  0  0  0  0  0  0  0  0  0
   20.5958    1.4157   52.7506 C   0  0  0  0  0  0  0  0  0  0  0  0
   18.8460    2.9729   53.5776 N   0  0  0  0  0  0  0  0  0  0  0  0
   18.3772    4.1801   53.9231 C   0  0  0  0  0  0  0  0  0  0  0  0
   19.2488    5.2417   53.7995 C   0  0  0  0  0  0  0  0  0  0  0  0
   16.9958    4.4111   54.4195 C   0  0  0  0  0  0  0  0  0  0  0  0
   16.1631    3.4294   53.9302 F   0  0  0  0  0  0  0  0  0  0  0  0
  1  2  1  0  0  0
  2  3  1  0  0  0
  3  4  1  0  0  0
  4  5  1  0  0  0
  5  6  1  0  0  0
  6  7  1  0  0  0
  7  8  1  0  0  0
  5  9  2  0  0  0
  9 10  1  0  0  0
 10 11  2  0  0  0
 11 12  1  0  0  0
 12 13  2  0  0  0
 13 14  1  0  0  0
 14 15  2  0  0  0
 15 16  1  0  0  0
 15 17  1  0  0  0
 17 18  1  0  0  0
 17 19  2  0  0  0
  9 20  1  0  0  0
 20 21  2  0  0  0
 21 22  1  0  0  0
 22 23  1  0  0  0
 22 24  2  0  0  0
 24 25  1  0  0  0
 25 27  1  0  0  0
 27 28  1  0  0  0
 25 26  2  0  0  0
  8  2  1  0  0  0
 19 12  1  0  0  0
 26 20  1  0  0  0
 11  4  1  0  0  0
M  END
> <minimizedAffinity>
28.03317

> <CNNscore>
0.5175604224

> <CNNaffinity>
6.6390867233

> <CNN_VS>
3.4361286163

> <CNNaffinity_variance>
0.7667740583

$$$$
[H]c1c([H])c(-c2nc(-c3c([H])c(C([H])([H])[H])nc(C([H])([H])F)c3[H])c3n2C([H])([H])[C@@]([H])(C([H])([H])[H])OC([H])([H])C3([H])[H])c([H])c(C([H])([H])[H])c1Cl


 28 31  0  0  0  0  0  0  0  0999 V2000
   21.7857   11.8344   51.7297 C   0  0  0  0  0  0  0  0  0  0  0  0
   21.3468   10.3972   52.0052 C   0  0  0  0  0  0  0  0  0  0  0  0
   22.6059    9.6006   52.2403 C   0  0  0  0  0  0  0  0  0  0  0  0
   22.3179    8.2798   52.7637 N   0  0  0  0  0  0  0  0  0  0  0  0
   21.2609    7.4673   52.4841 C   0  0  0  0  0  0  0  0  0  0  0  0
   20.1651    7.6282   51.5329 C   0  0  0  0  0  0  0  0  0  0  0  0
   19.6162    9.0277   51.5767 C   0  0  0  0  0  0  0  0  0  0  0  0
   20.5757    9.8931   50.9971 O   0  0  0  0  0  0  0  0  0  0  0  0
   21.4263    6.3573   53.3034 C   0  0  0  0  0  0  0  0  0  0  0  0
   22.5299    6.5003   54.0354 N   0  0  0  0  0  0  0  0  0  0  0  0
   23.0882    7.7043   53.6921 C   0  0  0  0  0  0  0  0  0  0  0  0
   24.3079    8.1508   54.3369 C   0  0  0  0  0  0  0  0  0  0  0  0
   24.1743    8.9282   55.5098 C   0  0  0  0  0  0  0  0  0  0  0  0
   25.2615    9.3308   56.2254 C   0  0  0  0  0  0  0  0  0  0  0  0
   26.5287    8.9888   55.8226 C   0  0  0  0  0  0  0  0  0  0  0  0
   27.9254    9.5099   56.7458 Cl  0  0  0  0  0  0  0  0  0  0  0  0
   26.7167    8.2330   54.6895 C   0  0  0  0  0  0  0  0  0  0  0  0
   28.0883    7.8435   54.2242 C   0  0  0  0  0  0  0  0  0  0  0  0
   25.5885    7.8398   53.9860 C   0  0  0  0  0  0  0  0  0  0  0  0
   20.5541    5.1975   53.3925 C   0  0  0  0  0  0  0  0  0  0  0  0
   21.0094    3.9553   53.0368 C   0  0  0  0  0  0  0  0  0  0  0  0
   20.1603    2.8553   53.1233 C   0  0  0  0  0  0  0  0  0  0  0  0
   20.7225    1.5413   52.7210 C   0  0  0  0  0  0  0  0  0  0  0  0
   18.9111    3.0237   53.5525 N   0  0  0  0  0  0  0  0  0  0  0  0
   18.3987    4.2075   53.9168 C   0  0  0  0  0  0  0  0  0  0  0  0
   19.2381    5.2983   53.8317 C   0  0  0  0  0  0  0  0  0  0  0  0
   17.0027    4.3837   54.3946 C   0  0  0  0  0  0  0  0  0  0  0  0
   16.1748    3.5132   53.7212 F   0  0  0  0  0  0  0  0  0  0  0  0
  1  2  1  0  0  0
  2  3  1  0  0  0
  3  4  1  0  0  0
  4  5  1  0  0  0
  5  6  1  0  0  0
  6  7  1  0  0  0
  7  8  1  0  0  0
  5  9  2  0  0  0
  9 10  1  0  0  0
 10 11  2  0  0  0
 11 12  1  0  0  0
 12 13  2  0  0  0
 13 14  1  0  0  0
 14 15  2  0  0  0
 15 16  1  0  0  0
 15 17  1  0  0  0
 17 18  1  0  0  0
 17 19  2  0  0  0
  9 20  1  0  0  0
 20 21  2  0  0  0
 21 22  1  0  0  0
 22 23  1  0  0  0
 22 24  2  0  0  0
 24 25  1  0  0  0
 25 27  1  0  0  0
 27 28  1  0  0  0
 25 26  2  0  0  0
  8  2  1  0  0  0
 19 12  1  0  0  0
 26 20  1  0  0  0
 11  4  1  0  0  0
M  END
> <minimizedAffinity>
25.62891

> <CNNscore>
0.4900504947

> <CNNaffinity>
6.6263566017

> <CNN_VS>
3.2472493649

> <CNNaffinity_variance>
0.7055140734

$$$$
[H]c1c([H])c(-c2nc(-c3c([H])c(C([H])([H])[H])nc(C([H])([H])F)c3[H])c3n2C([H])([H])[C@@]([H])(C([H])([H])[H])OC([H])([H])C3([H])[H])c([H])c(C([H])([H])[H])c1Cl


 28 31  0  0  0  0  0  0  0  0999 V2000
   19.9481    5.8694   53.4102 C   0  0  0  0  0  0  0  0  0  0  0  0
   21.3844    6.2673   53.7459 C   0  0  0  0  0  0  0  0  0  0  0  0
   21.6094    7.6259   53.1305 C   0  0  0  0  0  0  0  0  0  0  0  0
   22.8449    8.2281   53.5914 N   0  0  0  0  0  0  0  0  0  0  0  0
   24.0247    7.6192   53.8960 C   0  0  0  0  0  0  0  0  0  0  0  0
   24.4313    6.2223   53.7745 C   0  0  0  0  0  0  0  0  0  0  0  0
   23.3475    5.3021   54.2644 C   0  0  0  0  0  0  0  0  0  0  0  0
   22.2879    5.3337   53.3254 O   0  0  0  0  0  0  0  0  0  0  0  0
   24.8530    8.6359   54.3553 C   0  0  0  0  0  0  0  0  0  0  0  0
   24.1989    9.7958   54.3246 N   0  0  0  0  0  0  0  0  0  0  0  0
   22.9422    9.5374   53.8419 C   0  0  0  0  0  0  0  0  0  0  0  0
   21.9806   10.6140   53.7033 C   0  0  0  0  0  0  0  0  0  0  0  0
   21.1045   10.8448   54.7883 C   0  0  0  0  0  0  0  0  0  0  0  0
   20.2179   11.8791   54.7804 C   0  0  0  0  0  0  0  0  0  0  0  0
   20.1507   12.7336   53.7079 C   0  0  0  0  0  0  0  0  0  0  0  0
   19.0073   14.0630   53.7012 Cl  0  0  0  0  0  0  0  0  0  0  0  0
   20.9803   12.5561   52.6259 C   0  0  0  0  0  0  0  0  0  0  0  0
   20.9307   13.4728   51.4397 C   0  0  0  0  0  0  0  0  0  0  0  0
   21.8709   11.4944   52.6676 C   0  0  0  0  0  0  0  0  0  0  0  0
   26.2251    8.5052   54.8177 C   0  0  0  0  0  0  0  0  0  0  0  0
   27.1372    7.7820   54.0951 C   0  0  0  0  0  0  0  0  0  0  0  0
   28.4462    7.6623   54.5539 C   0  0  0  0  0  0  0  0  0  0  0  0
   29.3787    6.8635   53.7189 C   0  0  0  0  0  0  0  0  0  0  0  0
   28.7982    8.2544   55.6935 N   0  0  0  0  0  0  0  0  0  0  0  0
   27.9606    8.9764   56.4508 C   0  0  0  0  0  0  0  0  0  0  0  0
   26.6634    9.0960   55.9982 C   0  0  0  0  0  0  0  0  0  0  0  0
   28.3644    9.6331   57.7211 C   0  0  0  0  0  0  0  0  0  0  0  0
   28.3753    8.7013   58.7352 F   0  0  0  0  0  0  0  0  0  0  0  0
  1  2  1  0  0  0
  2  3  1  0  0  0
  3  4  1  0  0  0
  4  5  1  0  0  0
  5  6  1  0  0  0
  6  7  1  0  0  0
  7  8  1  0  0  0
  5  9  2  0  0  0
  9 10  1  0  0  0
 10 11  2  0  0  0
 11 12  1  0  0  0
 12 13  2  0  0  0
 13 14  1  0  0  0
 14 15  2  0  0  0
 15 16  1  0  0  0
 15 17  1  0  0  0
 17 18  1  0  0  0
 17 19  2  0  0  0
  9 20  1  0  0  0
 20 21  2  0  0  0
 21 22  1  0  0  0
 22 23  1  0  0  0
 22 24  2  0  0  0
 24 25  1  0  0  0
 25 27  1  0  0  0
 27 28  1  0  0  0
 25 26  2  0  0  0
  8  2  1  0  0  0
 19 12  1  0  0  0
 26 20  1  0  0  0
 11  4  1  0  0  0
M  END
> <minimizedAffinity>
31.81440

> <CNNscore>
0.4654830098

> <CNNaffinity>
5.8524956703

> <CNN_VS>
2.7242372036

> <CNNaffinity_variance>
0.3088495433

$$$$
[H]c1c([H])c(-c2nc(-c3c([H])c(C([H])([H])[H])nc(C([H])([H])F)c3[H])c3n2C([H])([H])[C@@]([H])(C([H])([H])[H])OC([H])([H])C3([H])[H])c([H])c(C([H])([H])[H])c1Cl


 28 31  0  0  0  0  0  0  0  0999 V2000
   19.5250    6.0076   53.6427 C   0  0  0  0  0  0  0  0  0  0  0  0
   20.9621    6.4045   53.9761 C   0  0  0  0  0  0  0  0  0  0  0  0
   21.4438    7.2708   52.8393 C   0  0  0  0  0  0  0  0  0  0  0  0
   22.7002    7.9223   53.1533 N   0  0  0  0  0  0  0  0  0  0  0  0
   23.7416    7.4476   53.8920 C   0  0  0  0  0  0  0  0  0  0  0  0
   23.9511    6.1405   54.5077 C   0  0  0  0  0  0  0  0  0  0  0  0
   22.7007    5.6622   55.1928 C   0  0  0  0  0  0  0  0  0  0  0  0
   21.7584    5.3166   54.1938 O   0  0  0  0  0  0  0  0  0  0  0  0
   24.6578    8.4909   53.9449 C   0  0  0  0  0  0  0  0  0  0  0  0
   24.1859    9.5372   53.2689 N   0  0  0  0  0  0  0  0  0  0  0  0
   22.9608    9.1762   52.7710 C   0  0  0  0  0  0  0  0  0  0  0  0
   22.1852   10.1215   51.9914 C   0  0  0  0  0  0  0  0  0  0  0  0
   21.1838    9.5955   51.1435 C   0  0  0  0  0  0  0  0  0  0  0  0
   20.3562   10.4083   50.4291 C   0  0  0  0  0  0  0  0  0  0  0  0
   20.4735   11.7736   50.5142 C   0  0  0  0  0  0  0  0  0  0  0  0
   19.4070   12.8162   49.5922 Cl  0  0  0  0  0  0  0  0  0  0  0  0
   21.4297   12.3390   51.3243 C   0  0  0  0  0  0  0  0  0  0  0  0
   21.5824   13.8268   51.4383 C   0  0  0  0  0  0  0  0  0  0  0  0
   22.2543   11.4826   52.0378 C   0  0  0  0  0  0  0  0  0  0  0  0
   25.9419    8.4943   54.6265 C   0  0  0  0  0  0  0  0  0  0  0  0
   27.0267    7.8689   54.0704 C   0  0  0  0  0  0  0  0  0  0  0  0
   28.2485    7.8770   54.7379 C   0  0  0  0  0  0  0  0  0  0  0  0
   29.3790    7.1791   54.0750 C   0  0  0  0  0  0  0  0  0  0  0  0
   28.3493    8.4948   55.9132 N   0  0  0  0  0  0  0  0  0  0  0  0
   27.3320    9.1261   56.5158 C   0  0  0  0  0  0  0  0  0  0  0  0
   26.1209    9.1191   55.8563 C   0  0  0  0  0  0  0  0  0  0  0  0
   27.4560    9.8125   57.8279 C   0  0  0  0  0  0  0  0  0  0  0  0
   28.1923    9.0281   58.6875 F   0  0  0  0  0  0  0  0  0  0  0  0
  1  2  1  0  0  0
  2  3  1  0  0  0
  3  4  1  0  0  0
  4  5  1  0  0  0
  5  6  1  0  0  0
  6  7  1  0  0  0
  7  8  1  0  0  0
  5  9  2  0  0  0
  9 10  1  0  0  0
 10 11  2  0  0  0
 11 12  1  0  0  0
 12 13  2  0  0  0
 13 14  1  0  0  0
 14 15  2  0  0  0
 15 16  1  0  0  0
 15 17  1  0  0  0
 17 18  1  0  0  0
 17 19  2  0  0  0
  9 20  1  0  0  0
 20 21  2  0  0  0
 21 22  1  0  0  0
 22 23  1  0  0  0
 22 24  2  0  0  0
 24 25  1  0  0  0
 25 27  1  0  0  0
 27 28  1  0  0  0
 25 26  2  0  0  0
  8  2  1  0  0  0
 19 12  1  0  0  0
 26 20  1  0  0  0
 11  4  1  0  0  0
M  END
> <minimizedAffinity>
35.58100

> <CNNscore>
0.4588080049

> <CNNaffinity>
5.9794263840

> <CNN_VS>
2.7434086800

> <CNNaffinity_variance>
0.5262047648

$$$$
[H]c1c([H])c(-c2nc(-c3c([H])c(C([H])([H])[H])nc(C([H])([H])F)c3[H])c3n2C([H])([H])[C@@]([H])(C([H])([H])[H])OC([H])([H])C3([H])[H])c([H])c(C([H])([H])[H])c1Cl


 28 31  0  0  0  0  0  0  0  0999 V2000
   19.9583   11.2773   54.2498 C   0  0  0  0  0  0  0  0  0  0  0  0
   21.3983   10.8364   54.5068 C   0  0  0  0  0  0  0  0  0  0  0  0
   21.3401    9.3779   54.8869 C   0  0  0  0  0  0  0  0  0  0  0  0
   22.6576    8.7735   54.9071 N   0  0  0  0  0  0  0  0  0  0  0  0
   23.8441    9.3349   55.2713 C   0  0  0  0  0  0  0  0  0  0  0  0
   24.1410   10.6539   55.8223 C   0  0  0  0  0  0  0  0  0  0  0  0
   23.3781   11.7254   55.0933 C   0  0  0  0  0  0  0  0  0  0  0  0
   22.0123   11.6105   55.4494 O   0  0  0  0  0  0  0  0  0  0  0  0
   24.8000    8.3544   55.0360 C   0  0  0  0  0  0  0  0  0  0  0  0
   24.2116    7.2601   54.5558 N   0  0  0  0  0  0  0  0  0  0  0  0
   22.8687    7.5248   54.4799 C   0  0  0  0  0  0  0  0  0  0  0  0
   21.9560    6.5168   53.9761 C   0  0  0  0  0  0  0  0  0  0  0  0
   22.4906    5.2379   53.6995 C   0  0  0  0  0  0  0  0  0  0  0  0
   21.6980    4.2069   53.2936 C   0  0  0  0  0  0  0  0  0  0  0  0
   20.3451    4.3841   53.1407 C   0  0  0  0  0  0  0  0  0  0  0  0
   19.3285    3.0549   52.6170 Cl  0  0  0  0  0  0  0  0  0  0  0  0
   19.7718    5.6073   53.3970 C   0  0  0  0  0  0  0  0  0  0  0  0
   18.2972    5.8318   53.2392 C   0  0  0  0  0  0  0  0  0  0  0  0
   20.6076    6.6339   53.8091 C   0  0  0  0  0  0  0  0  0  0  0  0
   26.2335    8.4593   55.2543 C   0  0  0  0  0  0  0  0  0  0  0  0
   27.1149    7.8757   54.3828 C   0  0  0  0  0  0  0  0  0  0  0  0
   28.4847    7.9812   54.6085 C   0  0  0  0  0  0  0  0  0  0  0  0
   29.3790    7.3235   53.6224 C   0  0  0  0  0  0  0  0  0  0  0  0
   28.9242    8.6507   55.6723 N   0  0  0  0  0  0  0  0  0  0  0  0
   28.1213    9.2460   56.5653 C   0  0  0  0  0  0  0  0  0  0  0  0
   26.7640    9.1425   56.3436 C   0  0  0  0  0  0  0  0  0  0  0  0
   28.6228    9.9908   57.7492 C   0  0  0  0  0  0  0  0  0  0  0  0
   28.2122   11.3031   57.6725 F   0  0  0  0  0  0  0  0  0  0  0  0
  1  2  1  0  0  0
  2  3  1  0  0  0
  3  4  1  0  0  0
  4  5  1  0  0  0
  5  6  1  0  0  0
  6  7  1  0  0  0
  7  8  1  0  0  0
  5  9  2  0  0  0
  9 10  1  0  0  0
 10 11  2  0  0  0
 11 12  1  0  0  0
 12 13  2  0  0  0
 13 14  1  0  0  0
 14 15  2  0  0  0
 15 16  1  0  0  0
 15 17  1  0  0  0
 17 18  1  0  0  0
 17 19  2  0  0  0
  9 20  1  0  0  0
 20 21  2  0  0  0
 21 22  1  0  0  0
 22 23  1  0  0  0
 22 24  2  0  0  0
 24 25  1  0  0  0
 25 27  1  0  0  0
 27 28  1  0  0  0
 25 26  2  0  0  0
  8  2  1  0  0  0
 19 12  1  0  0  0
 26 20  1  0  0  0
 11  4  1  0  0  0
M  END
> <minimizedAffinity>
40.87157

> <CNNscore>
0.4524779022

> <CNNaffinity>
6.0482544899

> <CNN_VS>
2.7367014885

> <CNNaffinity_variance>
0.4828438759

$$$$
[H]c1c([H])c(-c2nc(-c3c([H])c(C([H])([H])[H])nc(C([H])([H])F)c3[H])c3n2C([H])([H])[C@@]([H])(C([H])([H])[H])OC([H])([H])C3([H])[H])c([H])c(C([H])([H])[H])c1Cl


 28 31  0  0  0  0  0  0  0  0999 V2000
   21.7555   11.8183   51.7208 C   0  0  0  0  0  0  0  0  0  0  0  0
   21.3131   10.3801   51.9850 C   0  0  0  0  0  0  0  0  0  0  0  0
   22.5694    9.5818   52.2294 C   0  0  0  0  0  0  0  0  0  0  0  0
   22.2753    8.2587   52.7437 N   0  0  0  0  0  0  0  0  0  0  0  0
   21.2209    7.4481   52.4494 C   0  0  0  0  0  0  0  0  0  0  0  0
   20.1351    7.6140   51.4877 C   0  0  0  0  0  0  0  0  0  0  0  0
   19.5864    9.0135   51.5322 C   0  0  0  0  0  0  0  0  0  0  0  0
   20.5523    9.8812   50.9667 O   0  0  0  0  0  0  0  0  0  0  0  0
   21.3773    6.3342   53.2652 C   0  0  0  0  0  0  0  0  0  0  0  0
   22.4733    6.4732   54.0092 N   0  0  0  0  0  0  0  0  0  0  0  0
   23.0357    7.6785   53.6773 C   0  0  0  0  0  0  0  0  0  0  0  0
   24.2489    8.1214   54.3367 C   0  0  0  0  0  0  0  0  0  0  0  0
   24.1035    8.9007   55.5071 C   0  0  0  0  0  0  0  0  0  0  0  0
   25.1830    9.3002   56.2357 C   0  0  0  0  0  0  0  0  0  0  0  0
   26.4540    8.9532   55.8491 C   0  0  0  0  0  0  0  0  0  0  0  0
   27.8409    9.4703   56.7891 Cl  0  0  0  0  0  0  0  0  0  0  0  0
   26.6533    8.1953   54.7194 C   0  0  0  0  0  0  0  0  0  0  0  0
   28.0293    7.8003   54.2717 C   0  0  0  0  0  0  0  0  0  0  0  0
   25.5326    7.8053   54.0023 C   0  0  0  0  0  0  0  0  0  0  0  0
   20.5037    5.1745   53.3398 C   0  0  0  0  0  0  0  0  0  0  0  0
   19.2411    5.2865   53.8597 C   0  0  0  0  0  0  0  0  0  0  0  0
   18.4184    4.1655   53.9287 C   0  0  0  0  0  0  0  0  0  0  0  0
   17.0638    4.3626   54.5041 C   0  0  0  0  0  0  0  0  0  0  0  0
   18.8694    2.9932   53.4868 N   0  0  0  0  0  0  0  0  0  0  0  0
   20.0910    2.8098   52.9667 C   0  0  0  0  0  0  0  0  0  0  0  0
   20.9076    3.9191   52.8976 C   0  0  0  0  0  0  0  0  0  0  0  0
   20.5839    1.4966   52.4763 C   0  0  0  0  0  0  0  0  0  0  0  0
   21.9021    1.3367   52.8417 F   0  0  0  0  0  0  0  0  0  0  0  0
  1  2  1  0  0  0
  2  3  1  0  0  0
  3  4  1  0  0  0
  4  5  1  0  0  0
  5  6  1  0  0  0
  6  7  1  0  0  0
  7  8  1  0  0  0
  5  9  2  0  0  0
  9 10  1  0  0  0
 10 11  2  0  0  0
 11 12  1  0  0  0
 12 13  2  0  0  0
 13 14  1  0  0  0
 14 15  2  0  0  0
 15 16  1  0  0  0
 15 17  1  0  0  0
 17 18  1  0  0  0
 17 19  2  0  0  0
  9 20  1  0  0  0
 20 21  2  0  0  0
 21 22  1  0  0  0
 22 23  1  0  0  0
 22 24  2  0  0  0
 24 25  1  0  0  0
 25 27  1  0  0  0
 27 28  1  0  0  0
 25 26  2  0  0  0
  8  2  1  0  0  0
 19 12  1  0  0  0
 26 20  1  0  0  0
 11  4  1  0  0  0
M  END
> <minimizedAffinity>
28.29560

> <CNNscore>
0.4477921724

> <CNNaffinity>
6.4609041214

> <CNN_VS>
2.8931422234

> <CNNaffinity_variance>
0.5480575562

$$$$
[H]c1c([H])c(-c2nc(-c3c([H])c(C([H])([H])[H])nc(C([H])([H])F)c3[H])c3n2C([H])([H])[C@@]([H])(C([H])([H])[H])OC([H])([H])C3([H])[H])c([H])c(C([H])([H])[H])c1Cl


 28 31  0  0  0  0  0  0  0  0999 V2000
   24.1196    4.2863   55.7573 C   0  0  0  0  0  0  0  0  0  0  0  0
   23.6636    5.6101   55.1461 C   0  0  0  0  0  0  0  0  0  0  0  0
   22.6788    5.2645   54.0572 C   0  0  0  0  0  0  0  0  0  0  0  0
   21.9792    6.4375   53.5713 N   0  0  0  0  0  0  0  0  0  0  0  0
   22.4479    7.7090   53.4321 C   0  0  0  0  0  0  0  0  0  0  0  0
   23.7857    8.2558   53.6387 C   0  0  0  0  0  0  0  0  0  0  0  0
   24.3947    7.7225   54.9061 C   0  0  0  0  0  0  0  0  0  0  0  0
   24.7145    6.3586   54.6986 O   0  0  0  0  0  0  0  0  0  0  0  0
   21.3580    8.4552   53.0008 C   0  0  0  0  0  0  0  0  0  0  0  0
   20.2908    7.6662   52.8869 N   0  0  0  0  0  0  0  0  0  0  0  0
   20.6845    6.4019   53.2415 C   0  0  0  0  0  0  0  0  0  0  0  0
   19.7280    5.3120   53.2296 C   0  0  0  0  0  0  0  0  0  0  0  0
   20.1518    4.0832   52.6740 C   0  0  0  0  0  0  0  0  0  0  0  0
   19.3498    2.9820   52.6851 C   0  0  0  0  0  0  0  0  0  0  0  0
   18.0958    3.0366   53.2417 C   0  0  0  0  0  0  0  0  0  0  0  0
   17.0662    1.6173   53.2530 Cl  0  0  0  0  0  0  0  0  0  0  0  0
   17.6332    4.2062   53.7971 C   0  0  0  0  0  0  0  0  0  0  0  0
   16.2684    4.2970   54.4126 C   0  0  0  0  0  0  0  0  0  0  0  0
   18.4757    5.3069   53.7695 C   0  0  0  0  0  0  0  0  0  0  0  0
   21.3315    9.8800   52.7133 C   0  0  0  0  0  0  0  0  0  0  0  0
   21.3534   10.7961   53.7318 C   0  0  0  0  0  0  0  0  0  0  0  0
   21.3227   12.1571   53.4401 C   0  0  0  0  0  0  0  0  0  0  0  0
   21.3490   13.0907   54.5945 C   0  0  0  0  0  0  0  0  0  0  0  0
   21.2726   12.5544   52.1702 N   0  0  0  0  0  0  0  0  0  0  0  0
   21.2488   11.7160   51.1247 C   0  0  0  0  0  0  0  0  0  0  0  0
   21.2789   10.3673   51.4116 C   0  0  0  0  0  0  0  0  0  0  0  0
   21.1929   12.1706   49.7112 C   0  0  0  0  0  0  0  0  0  0  0  0
   20.4161   13.3046   49.6251 F   0  0  0  0  0  0  0  0  0  0  0  0
  1  2  1  0  0  0
  2  3  1  0  0  0
  3  4  1  0  0  0
  4  5  1  0  0  0
  5  6  1  0  0  0
  6  7  1  0  0  0
  7  8  1  0  0  0
  5  9  2  0  0  0
  9 10  1  0  0  0
 10 11  2  0  0  0
 11 12  1  0  0  0
 12 13  2  0  0  0
 13 14  1  0  0  0
 14 15  2  0  0  0
 15 16  1  0  0  0
 15 17  1  0  0  0
 17 18  1  0  0  0
 17 19  2  0  0  0
  9 20  1  0  0  0
 20 21  2  0  0  0
 21 22  1  0  0  0
 22 23  1  0  0  0
 22 24  2  0  0  0
 24 25  1  0  0  0
 25 27  1  0  0  0
 27 28  1  0  0  0
 25 26  2  0  0  0
  8  2  1  0  0  0
 19 12  1  0  0  0
 26 20  1  0  0  0
 11  4  1  0  0  0
M  END
> <minimizedAffinity>
45.22785

> <CNNscore>
0.4358206689

> <CNNaffinity>
6.2066431046

> <CNN_VS>
2.7049832344

> <CNNaffinity_variance>
0.5877040625

$$$$
[H]c1c([H])c(-c2nc(-c3c([H])c(C([H])([H])[H])nc(C([H])([H])F)c3[H])c3n2C([H])([H])[C@@]([H])(C([H])([H])[H])OC([H])([H])C3([H])[H])c([H])c(C([H])([H])[H])c1Cl


 28 31  0  0  0  0  0  0  0  0999 V2000
   19.8836    5.8618   53.4395 C   0  0  0  0  0  0  0  0  0  0  0  0
   21.3257    6.2532   53.7578 C   0  0  0  0  0  0  0  0  0  0  0  0
   21.5457    7.6158   53.1495 C   0  0  0  0  0  0  0  0  0  0  0  0
   22.7894    8.2111   53.5974 N   0  0  0  0  0  0  0  0  0  0  0  0
   23.9716    7.5967   53.8805 C   0  0  0  0  0  0  0  0  0  0  0  0
   24.3725    6.1996   53.7427 C   0  0  0  0  0  0  0  0  0  0  0  0
   23.2932    5.2787   54.2411 C   0  0  0  0  0  0  0  0  0  0  0  0
   22.2204    5.3203   53.3174 O   0  0  0  0  0  0  0  0  0  0  0  0
   24.8093    8.6076   54.3356 C   0  0  0  0  0  0  0  0  0  0  0  0
   24.1581    9.7695   54.3230 N   0  0  0  0  0  0  0  0  0  0  0  0
   22.8939    9.5182   53.8563 C   0  0  0  0  0  0  0  0  0  0  0  0
   21.9336   10.5984   53.7394 C   0  0  0  0  0  0  0  0  0  0  0  0
   21.0566   10.8072   54.8282 C   0  0  0  0  0  0  0  0  0  0  0  0
   20.1710   11.8423   54.8413 C   0  0  0  0  0  0  0  0  0  0  0  0
   20.1057   12.7193   53.7870 C   0  0  0  0  0  0  0  0  0  0  0  0
   18.9636   14.0497   53.8072 Cl  0  0  0  0  0  0  0  0  0  0  0  0
   20.9363   12.5639   52.7023 C   0  0  0  0  0  0  0  0  0  0  0  0
   20.8887   13.5054   51.5357 C   0  0  0  0  0  0  0  0  0  0  0  0
   21.8258   11.5006   52.7225 C   0  0  0  0  0  0  0  0  0  0  0  0
   26.1874    8.4696   54.7775 C   0  0  0  0  0  0  0  0  0  0  0  0
   26.6129    9.0762   55.9299 C   0  0  0  0  0  0  0  0  0  0  0  0
   27.9372    8.9385   56.3370 C   0  0  0  0  0  0  0  0  0  0  0  0
   28.3262    9.6238   57.5955 C   0  0  0  0  0  0  0  0  0  0  0  0
   28.7780    8.2160   55.5994 N   0  0  0  0  0  0  0  0  0  0  0  0
   28.4320    7.5955   54.4628 C   0  0  0  0  0  0  0  0  0  0  0  0
   27.1206    7.7308   54.0577 C   0  0  0  0  0  0  0  0  0  0  0  0
   29.3789    6.7915   53.6474 C   0  0  0  0  0  0  0  0  0  0  0  0
   28.7951    5.5874   53.3219 F   0  0  0  0  0  0  0  0  0  0  0  0
  1  2  1  0  0  0
  2  3  1  0  0  0
  3  4  1  0  0  0
  4  5  1  0  0  0
  5  6  1  0  0  0
  6  7  1  0  0  0
  7  8  1  0  0  0
  5  9  2  0  0  0
  9 10  1  0  0  0
 10 11  2  0  0  0
 11 12  1  0  0  0
 12 13  2  0  0  0
 13 14  1  0  0  0
 14 15  2  0  0  0
 15 16  1  0  0  0
 15 17  1  0  0  0
 17 18  1  0  0  0
 17 19  2  0  0  0
  9 20  1  0  0  0
 20 21  2  0  0  0
 21 22  1  0  0  0
 22 23  1  0  0  0
 22 24  2  0  0  0
 24 25  1  0  0  0
 25 27  1  0  0  0
 27 28  1  0  0  0
 25 26  2  0  0  0
  8  2  1  0  0  0
 19 12  1  0  0  0
 26 20  1  0  0  0
 11  4  1  0  0  0
M  END
> <minimizedAffinity>
34.49017

> <CNNscore>
0.4354345500

> <CNNaffinity>
5.8555512428

> <CNN_VS>
2.5497093201

> <CNNaffinity_variance>
0.3870097101

$$$$
[H]c1c([H])c(-c2nc(-c3c([H])c(C([H])([H])[H])nc(C([H])([H])F)c3[H])c3n2C([H])([H])[C@@]([H])(C([H])([H])[H])OC([H])([H])C3([H])[H])c([H])c(C([H])([H])[H])c1Cl


 28 31  0  0  0  0  0  0  0  0999 V2000
   19.4934    6.1816   53.5010 C   0  0  0  0  0  0  0  0  0  0  0  0
   20.9455    6.5193   53.8343 C   0  0  0  0  0  0  0  0  0  0  0  0
   21.3938    7.5401   52.8183 C   0  0  0  0  0  0  0  0  0  0  0  0
   22.6672    8.1333   53.1763 N   0  0  0  0  0  0  0  0  0  0  0  0
   23.7302    7.5514   53.7983 C   0  0  0  0  0  0  0  0  0  0  0  0
   23.9493    6.1677   54.2090 C   0  0  0  0  0  0  0  0  0  0  0  0
   22.7202    5.6001   54.8638 C   0  0  0  0  0  0  0  0  0  0  0  0
   21.7385    5.4079   53.8613 O   0  0  0  0  0  0  0  0  0  0  0  0
   24.6579    8.5719   53.9680 C   0  0  0  0  0  0  0  0  0  0  0  0
   24.1719    9.7075   53.4696 N   0  0  0  0  0  0  0  0  0  0  0  0
   22.9259    9.4284   52.9709 C   0  0  0  0  0  0  0  0  0  0  0  0
   22.1316   10.4806   52.3669 C   0  0  0  0  0  0  0  0  0  0  0  0
   22.2522   11.7789   52.9129 C   0  0  0  0  0  0  0  0  0  0  0  0
   21.6029   12.8446   52.3666 C   0  0  0  0  0  0  0  0  0  0  0  0
   20.8059   12.6848   51.2600 C   0  0  0  0  0  0  0  0  0  0  0  0
   19.9710   14.0589   50.5605 Cl  0  0  0  0  0  0  0  0  0  0  0  0
   20.6538   11.4441   50.6874 C   0  0  0  0  0  0  0  0  0  0  0  0
   19.7903   11.2379   49.4784 C   0  0  0  0  0  0  0  0  0  0  0  0
   21.3296   10.3820   51.2684 C   0  0  0  0  0  0  0  0  0  0  0  0
   25.9661    8.4702   54.5940 C   0  0  0  0  0  0  0  0  0  0  0  0
   26.1889    9.0113   55.8328 C   0  0  0  0  0  0  0  0  0  0  0  0
   27.4487    8.9097   56.4167 C   0  0  0  0  0  0  0  0  0  0  0  0
   27.6159    9.5197   57.7601 C   0  0  0  0  0  0  0  0  0  0  0  0
   28.4260    8.2854   55.7625 N   0  0  0  0  0  0  0  0  0  0  0  0
   28.2804    7.7332   54.5499 C   0  0  0  0  0  0  0  0  0  0  0  0
   27.0333    7.8329   53.9696 C   0  0  0  0  0  0  0  0  0  0  0  0
   29.3784    7.0386   53.8289 C   0  0  0  0  0  0  0  0  0  0  0  0
   28.8664    5.9573   53.1468 F   0  0  0  0  0  0  0  0  0  0  0  0
  1  2  1  0  0  0
  2  3  1  0  0  0
  3  4  1  0  0  0
  4  5  1  0  0  0
  5  6  1  0  0  0
  6  7  1  0  0  0
  7  8  1  0  0  0
  5  9  2  0  0  0
  9 10  1  0  0  0
 10 11  2  0  0  0
 11 12  1  0  0  0
 12 13  2  0  0  0
 13 14  1  0  0  0
 14 15  2  0  0  0
 15 16  1  0  0  0
 15 17  1  0  0  0
 17 18  1  0  0  0
 17 19  2  0  0  0
  9 20  1  0  0  0
 20 21  2  0  0  0
 21 22  1  0  0  0
 22 23  1  0  0  0
 22 24  2  0  0  0
 24 25  1  0  0  0
 25 27  1  0  0  0
 27 28  1  0  0  0
 25 26  2  0  0  0
  8  2  1  0  0  0
 19 12  1  0  0  0
 26 20  1  0  0  0
 11  4  1  0  0  0
M  END
> <minimizedAffinity>
37.60557

> <CNNscore>
0.4213973880

> <CNNaffinity>
5.8998265266

> <CNN_VS>
2.4861714840

> <CNNaffinity_variance>
0.5874809027

$$$$
[H]c1nc([H])n(-c2c([H])c([H])c([H])c(C3=Nc4c([H])c(C([H])([H])[H])c(C(F)(F)F)c([H])c4N([H])C(=O)C3([H])[H])c2[H])c1[H]


 29 32  0  0  0  0  0  0  0  0999 V2000
   20.0189    3.0689   54.9815 C   0  0  0  0  0  0  0  0  0  0  0  0
   20.1435    4.4366   54.3639 C   0  0  0  0  0  0  0  0  0  0  0  0
   21.3443    5.1010   54.3379 C   0  0  0  0  0  0  0  0  0  0  0  0
   21.4523    6.3489   53.7740 C   0  0  0  0  0  0  0  0  0  0  0  0
   22.7689    6.8729   53.8402 N   0  0  0  0  0  0  0  0  0  0  0  0
   23.1793    8.1270   53.8402 C   0  0  0  0  0  0  0  0  0  0  0  0
   22.3389    9.3297   53.7684 C   0  0  0  0  0  0  0  0  0  0  0  0
   21.2745    9.2422   52.7007 C   0  0  0  0  0  0  0  0  0  0  0  0
   21.2430   10.1406   51.8207 O   0  0  0  0  0  0  0  0  0  0  0  0
   20.2996    8.2139   52.6165 N   0  0  0  0  0  0  0  0  0  0  0  0
   20.2985    6.9258   53.2247 C   0  0  0  0  0  0  0  0  0  0  0  0
   19.0938    6.2793   53.2412 C   0  0  0  0  0  0  0  0  0  0  0  0
   19.0221    5.0333   53.8130 C   0  0  0  0  0  0  0  0  0  0  0  0
   19.4429    8.4020   52.0266 H   0  0  0  0  0  0  0  0  0  0  0  0
   24.6428    8.2686   53.9252 C   0  0  0  0  0  0  0  0  0  0  0  0
   25.4245    8.0381   52.8052 C   0  0  0  0  0  0  0  0  0  0  0  0
   26.7857    8.1617   52.8954 C   0  0  0  0  0  0  0  0  0  0  0  0
   27.3856    8.5119   54.0850 C   0  0  0  0  0  0  0  0  0  0  0  0
   26.6392    8.7460   55.2096 C   0  0  0  0  0  0  0  0  0  0  0  0
   25.2471    8.6145   55.0980 C   0  0  0  0  0  0  0  0  0  0  0  0
   27.2492    9.1079   56.4414 N   0  0  0  0  0  0  0  0  0  0  0  0
   26.7996   10.0236   57.3189 C   0  0  0  0  0  0  0  0  0  0  0  0
   27.6682   10.0841   58.3861 C   0  0  0  0  0  0  0  0  0  0  0  0
   28.6524    9.1891   58.1411 N   0  0  0  0  0  0  0  0  0  0  0  0
   28.3814    8.5965   56.9418 C   0  0  0  0  0  0  0  0  0  0  0  0
   17.7246    4.3344   53.8299 C   0  0  0  0  0  0  0  0  0  0  0  0
   16.6697    5.1875   53.4758 F   0  0  0  0  0  0  0  0  0  0  0  0
   17.7361    3.3661   52.8456 F   0  0  0  0  0  0  0  0  0  0  0  0
   17.4667    3.6716   55.0134 F   0  0  0  0  0  0  0  0  0  0  0  0
  1  2  1  0  0  0
  2  3  2  0  0  0
  3  4  1  0  0  0
  4  5  1  0  0  0
  5  6  2  0  0  0
  6  7  1  0  0  0
  7  8  1  0  0  0
  8  9  2  0  0  0
  8 10  1  0  0  0
 10 11  1  0  0  0
 11 12  1  0  0  0
 12 13  2  0  0  0
 13 26  1  0  0  0
 26 27  1  0  0  0
 26 28  1  0  0  0
 26 29  1  0  0  0
  6 15  1  0  0  0
 15 16  2  0  0  0
 16 17  1  0  0  0
 17 18  2  0  0  0
 18 19  1  0  0  0
 19 20  2  0  0  0
 19 21  1  0  0  0
 21 22  1  0  0  0
 22 23  2  0  0  0
 23 24  1  0  0  0
 24 25  2  0  0  0
 13  2  1  0  0  0
 20 15  1  0  0  0
 25 21  1  0  0  0
 11  4  2  0  0  0
 10 14  1  0  0  0
M  END
> <minimizedAffinity>
28.91578

> <CNNscore>
0.5475285053

> <CNNaffinity>
6.3461036682

> <CNN_VS>
3.4746725559

> <CNNaffinity_variance>
0.4715573192

$$$$
[H]c1nc([H])n(-c2c([H])c([H])c([H])c(C3=Nc4c([H])c(C([H])([H])[H])c(C(F)(F)F)c([H])c4N([H])C(=O)C3([H])[H])c2[H])c1[H]


 29 32  0  0  0  0  0  0  0  0999 V2000
   21.2822    9.7588   54.8687 C   0  0  0  0  0  0  0  0  0  0  0  0
   22.6471    9.1837   54.5975 C   0  0  0  0  0  0  0  0  0  0  0  0
   23.6922    9.3874   55.4638 C   0  0  0  0  0  0  0  0  0  0  0  0
   24.9357    8.8612   55.2113 C   0  0  0  0  0  0  0  0  0  0  0  0
   25.8838    9.1765   56.2183 N   0  0  0  0  0  0  0  0  0  0  0  0
   27.1984    9.2609   56.1433 C   0  0  0  0  0  0  0  0  0  0  0  0
   28.0296    9.0398   54.9523 C   0  0  0  0  0  0  0  0  0  0  0  0
   27.6507    7.7909   54.1927 C   0  0  0  0  0  0  0  0  0  0  0  0
   28.5420    6.9260   53.9926 O   0  0  0  0  0  0  0  0  0  0  0  0
   26.3539    7.5192   53.6834 N   0  0  0  0  0  0  0  0  0  0  0  0
   25.1073    8.1087   54.0408 C   0  0  0  0  0  0  0  0  0  0  0  0
   24.0784    7.8950   53.1661 C   0  0  0  0  0  0  0  0  0  0  0  0
   22.8489    8.4357   53.4499 C   0  0  0  0  0  0  0  0  0  0  0  0
   26.2705    6.7802   52.9324 H   0  0  0  0  0  0  0  0  0  0  0  0
   27.8402    9.6199   57.4193 C   0  0  0  0  0  0  0  0  0  0  0  0
   28.2897    8.6233   58.2699 C   0  0  0  0  0  0  0  0  0  0  0  0
   28.8759    8.9655   59.4596 C   0  0  0  0  0  0  0  0  0  0  0  0
   29.0235   10.2869   59.8199 C   0  0  0  0  0  0  0  0  0  0  0  0
   28.5888   11.2945   58.9999 C   0  0  0  0  0  0  0  0  0  0  0  0
   27.9910   10.9249   57.7860 C   0  0  0  0  0  0  0  0  0  0  0  0
   28.7368   12.6608   59.3630 N   0  0  0  0  0  0  0  0  0  0  0  0
   29.7539   13.1981   60.0610 C   0  0  0  0  0  0  0  0  0  0  0  0
   29.5314   14.5495   60.2065 C   0  0  0  0  0  0  0  0  0  0  0  0
   28.3618   14.8229   59.5846 N   0  0  0  0  0  0  0  0  0  0  0  0
   27.8847   13.6519   59.0706 C   0  0  0  0  0  0  0  0  0  0  0  0
   21.7382    8.2047   52.5089 C   0  0  0  0  0  0  0  0  0  0  0  0
   21.5120    9.3187   51.6880 F   0  0  0  0  0  0  0  0  0  0  0  0
   22.1046    7.1978   51.6380 F   0  0  0  0  0  0  0  0  0  0  0  0
   20.5749    7.7774   53.1176 F   0  0  0  0  0  0  0  0  0  0  0  0
  1  2  1  0  0  0
  2  3  2  0  0  0
  3  4  1  0  0  0
  4  5  1  0  0  0
  5  6  2  0  0  0
  6  7  1  0  0  0
  7  8  1  0  0  0
  8  9  2  0  0  0
  8 10  1  0  0  0
 10 11  1  0  0  0
 11 12  1  0  0  0
 12 13  2  0  0  0
 13 26  1  0  0  0
 26 27  1  0  0  0
 26 28  1  0  0  0
 26 29  1  0  0  0
  6 15  1  0  0  0
 15 16  2  0  0  0
 16 17  1  0  0  0
 17 18  2  0  0  0
 18 19  1  0  0  0
 19 20  2  0  0  0
 19 21  1  0  0  0
 21 22  1  0  0  0
 22 23  2  0  0  0
 23 24  1  0  0  0
 24 25  2  0  0  0
 13  2  1  0  0  0
 20 15  1  0  0  0
 25 21  1  0  0  0
 11  4  2  0  0  0
 10 14  1  0  0  0
M  END
> <minimizedAffinity>
5.78609

> <CNNscore>
0.4883464873

> <CNNaffinity>
6.1323866844

> <CNN_VS>
2.9947295189

> <CNNaffinity_variance>
0.0547127500

$$$$
[H]c1nc([H])n(-c2c([H])c([H])c([H])c(C3=Nc4c([H])c(C([H])([H])[H])c(C(F)(F)F)c([H])c4N([H])C(=O)C3([H])[H])c2[H])c1[H]


 29 32  0  0  0  0  0  0  0  0999 V2000
   21.2444    3.2742   53.4639 C   0  0  0  0  0  0  0  0  0  0  0  0
   21.2455    4.7685   53.6495 C   0  0  0  0  0  0  0  0  0  0  0  0
   22.4062    5.4547   53.9064 C   0  0  0  0  0  0  0  0  0  0  0  0
   22.4016    6.8178   54.0758 C   0  0  0  0  0  0  0  0  0  0  0  0
   23.6929    7.3471   54.3307 N   0  0  0  0  0  0  0  0  0  0  0  0
   24.0429    8.4501   54.9648 C   0  0  0  0  0  0  0  0  0  0  0  0
   23.1448    9.4344   55.5832 C   0  0  0  0  0  0  0  0  0  0  0  0
   21.9878    9.8184   54.6920 C   0  0  0  0  0  0  0  0  0  0  0  0
   21.8302   11.0360   54.4175 O   0  0  0  0  0  0  0  0  0  0  0  0
   21.0579    8.9004   54.1375 N   0  0  0  0  0  0  0  0  0  0  0  0
   21.1749    7.4897   53.9785 C   0  0  0  0  0  0  0  0  0  0  0  0
   20.0085    6.8234   53.7231 C   0  0  0  0  0  0  0  0  0  0  0  0
   20.0499    5.4610   53.5594 C   0  0  0  0  0  0  0  0  0  0  0  0
   20.1406    9.2895   53.7846 H   0  0  0  0  0  0  0  0  0  0  0  0
   25.4997    8.6578   55.0266 C   0  0  0  0  0  0  0  0  0  0  0  0
   26.2803    8.4081   53.9099 C   0  0  0  0  0  0  0  0  0  0  0  0
   27.6356    8.5937   53.9790 C   0  0  0  0  0  0  0  0  0  0  0  0
   28.2308    9.0250   55.1441 C   0  0  0  0  0  0  0  0  0  0  0  0
   27.4853    9.2800   56.2648 C   0  0  0  0  0  0  0  0  0  0  0  0
   26.0993    9.0841   56.1751 C   0  0  0  0  0  0  0  0  0  0  0  0
   28.0905    9.7253   57.4714 N   0  0  0  0  0  0  0  0  0  0  0  0
   28.3999    8.9672   58.5392 C   0  0  0  0  0  0  0  0  0  0  0  0
   28.9710    9.7667   59.5045 C   0  0  0  0  0  0  0  0  0  0  0  0
   29.0030   11.0228   59.0038 N   0  0  0  0  0  0  0  0  0  0  0  0
   28.4582   10.9820   57.7530 C   0  0  0  0  0  0  0  0  0  0  0  0
   18.7938    4.7416   53.2822 C   0  0  0  0  0  0  0  0  0  0  0  0
   18.8435    4.0613   52.0572 F   0  0  0  0  0  0  0  0  0  0  0  0
   18.6411    3.7471   54.2279 F   0  0  0  0  0  0  0  0  0  0  0  0
   17.6674    5.5344   53.3778 F   0  0  0  0  0  0  0  0  0  0  0  0
  1  2  1  0  0  0
  2  3  2  0  0  0
  3  4  1  0  0  0
  4  5  1  0  0  0
  5  6  2  0  0  0
  6  7  1  0  0  0
  7  8  1  0  0  0
  8  9  2  0  0  0
  8 10  1  0  0  0
 10 11  1  0  0  0
 11 12  1  0  0  0
 12 13  2  0  0  0
 13 26  1  0  0  0
 26 27  1  0  0  0
 26 28  1  0  0  0
 26 29  1  0  0  0
  6 15  1  0  0  0
 15 16  2  0  0  0
 16 17  1  0  0  0
 17 18  2  0  0  0
 18 19  1  0  0  0
 19 20  2  0  0  0
 19 21  1  0  0  0
 21 22  1  0  0  0
 22 23  2  0  0  0
 23 24  1  0  0  0
 24 25  2  0  0  0
 13  2  1  0  0  0
 20 15  1  0  0  0
 25 21  1  0  0  0
 11  4  2  0  0  0
 10 14  1  0  0  0
M  END
> <minimizedAffinity>
18.56870

> <CNNscore>
0.4767787457

> <CNNaffinity>
6.2519440651

> <CNN_VS>
2.9807939529

> <CNNaffinity_variance>
0.0521786809

$$$$
[H]c1nc([H])n(-c2c([H])c([H])c([H])c(C3=Nc4c([H])c(C([H])([H])[H])c(C(F)(F)F)c([H])c4N([H])C(=O)C3([H])[H])c2[H])c1[H]


 29 32  0  0  0  0  0  0  0  0999 V2000
   22.9013    2.4297   53.2973 C   0  0  0  0  0  0  0  0  0  0  0  0
   22.6581    3.9149   53.3466 C   0  0  0  0  0  0  0  0  0  0  0  0
   23.6772    4.7965   53.6082 C   0  0  0  0  0  0  0  0  0  0  0  0
   23.4499    6.1504   53.6529 C   0  0  0  0  0  0  0  0  0  0  0  0
   24.6219    6.8983   53.9344 N   0  0  0  0  0  0  0  0  0  0  0  0
   24.7506    8.0903   54.4855 C   0  0  0  0  0  0  0  0  0  0  0  0
   23.6688    8.9645   54.9584 C   0  0  0  0  0  0  0  0  0  0  0  0
   22.5339    9.0856   53.9696 C   0  0  0  0  0  0  0  0  0  0  0  0
   22.2104   10.2363   53.5773 O   0  0  0  0  0  0  0  0  0  0  0  0
   21.7996    7.9891   53.4468 N   0  0  0  0  0  0  0  0  0  0  0  0
   22.1443    6.6072   53.4233 C   0  0  0  0  0  0  0  0  0  0  0  0
   21.1164    5.7444   53.1611 C   0  0  0  0  0  0  0  0  0  0  0  0
   21.3795    4.3976   53.1241 C   0  0  0  0  0  0  0  0  0  0  0  0
   20.8612    8.1967   53.0068 H   0  0  0  0  0  0  0  0  0  0  0  0
   26.1494    8.5329   54.6138 C   0  0  0  0  0  0  0  0  0  0  0  0
   26.9763    8.5379   53.5025 C   0  0  0  0  0  0  0  0  0  0  0  0
   28.2789    8.9409   53.6326 C   0  0  0  0  0  0  0  0  0  0  0  0
   28.7758    9.3407   54.8536 C   0  0  0  0  0  0  0  0  0  0  0  0
   27.9826    9.3464   55.9705 C   0  0  0  0  0  0  0  0  0  0  0  0
   26.6518    8.9303   55.8180 C   0  0  0  0  0  0  0  0  0  0  0  0
   28.4864    9.7571   57.2346 N   0  0  0  0  0  0  0  0  0  0  0  0
   28.2652   10.9388   57.8391 C   0  0  0  0  0  0  0  0  0  0  0  0
   28.9248   10.9527   59.0481 C   0  0  0  0  0  0  0  0  0  0  0  0
   29.5498    9.7591   59.1669 N   0  0  0  0  0  0  0  0  0  0  0  0
   29.2712    9.0344   58.0443 C   0  0  0  0  0  0  0  0  0  0  0  0
   20.2730    3.4664   52.8398 C   0  0  0  0  0  0  0  0  0  0  0  0
   19.1598    4.1296   52.3042 F   0  0  0  0  0  0  0  0  0  0  0  0
   20.6757    2.5992   51.8435 F   0  0  0  0  0  0  0  0  0  0  0  0
   19.9237    2.6747   53.9157 F   0  0  0  0  0  0  0  0  0  0  0  0
  1  2  1  0  0  0
  2  3  2  0  0  0
  3  4  1  0  0  0
  4  5  1  0  0  0
  5  6  2  0  0  0
  6  7  1  0  0  0
  7  8  1  0  0  0
  8  9  2  0  0  0
  8 10  1  0  0  0
 10 11  1  0  0  0
 11 12  1  0  0  0
 12 13  2  0  0  0
 13 26  1  0  0  0
 26 27  1  0  0  0
 26 28  1  0  0  0
 26 29  1  0  0  0
  6 15  1  0  0  0
 15 16  2  0  0  0
 16 17  1  0  0  0
 17 18  2  0  0  0
 18 19  1  0  0  0
 19 20  2  0  0  0
 19 21  1  0  0  0
 21 22  1  0  0  0
 22 23  2  0  0  0
 23 24  1  0  0  0
 24 25  2  0  0  0
 13  2  1  0  0  0
 20 15  1  0  0  0
 25 21  1  0  0  0
 11  4  2  0  0  0
 10 14  1  0  0  0
M  END
> <minimizedAffinity>
37.49265

> <CNNscore>
0.4756788611

> <CNNaffinity>
5.9938378334

> <CNN_VS>
2.8511419296

> <CNNaffinity_variance>
0.1300192177

$$$$
[H]c1nc([H])n(-c2c([H])c([H])c([H])c(C3=Nc4c([H])c(C([H])([H])[H])c(C(F)(F)F)c([H])c4N([H])C(=O)C3([H])[H])c2[H])c1[H]


 29 32  0  0  0  0  0  0  0  0999 V2000
   21.1343    7.6159   52.4299 C   0  0  0  0  0  0  0  0  0  0  0  0
   22.4382    7.8456   53.1472 C   0  0  0  0  0  0  0  0  0  0  0  0
   23.5497    8.2970   52.4800 C   0  0  0  0  0  0  0  0  0  0  0  0
   24.7370    8.5041   53.1389 C   0  0  0  0  0  0  0  0  0  0  0  0
   25.7684    8.9720   52.2847 N   0  0  0  0  0  0  0  0  0  0  0  0
   27.0779    8.8599   52.4026 C   0  0  0  0  0  0  0  0  0  0  0  0
   27.8119    8.1982   53.4895 C   0  0  0  0  0  0  0  0  0  0  0  0
   27.3035    8.5769   54.8601 C   0  0  0  0  0  0  0  0  0  0  0  0
   28.1219    9.0650   55.6814 O   0  0  0  0  0  0  0  0  0  0  0  0
   25.9608    8.4210   55.2935 N   0  0  0  0  0  0  0  0  0  0  0  0
   24.7814    8.2405   54.5153 C   0  0  0  0  0  0  0  0  0  0  0  0
   23.6848    7.7905   55.1968 C   0  0  0  0  0  0  0  0  0  0  0  0
   22.5144    7.5945   54.5067 C   0  0  0  0  0  0  0  0  0  0  0  0
   25.7800    8.4370   56.3348 H   0  0  0  0  0  0  0  0  0  0  0  0
   27.8250    9.4817   51.2962 C   0  0  0  0  0  0  0  0  0  0  0  0
   28.4451   10.7060   51.4845 C   0  0  0  0  0  0  0  0  0  0  0  0
   29.1291   11.2824   50.4471 C   0  0  0  0  0  0  0  0  0  0  0  0
   29.2076   10.6602   49.2206 C   0  0  0  0  0  0  0  0  0  0  0  0
   28.6046    9.4492   49.0040 C   0  0  0  0  0  0  0  0  0  0  0  0
   27.9087    8.8745   50.0777 C   0  0  0  0  0  0  0  0  0  0  0  0
   28.6801    8.7995   47.7420 N   0  0  0  0  0  0  0  0  0  0  0  0
   28.2146    9.2696   46.5703 C   0  0  0  0  0  0  0  0  0  0  0  0
   28.4797    8.3479   45.5819 C   0  0  0  0  0  0  0  0  0  0  0  0
   29.1143    7.3105   46.1740 N   0  0  0  0  0  0  0  0  0  0  0  0
   29.2305    7.6023   47.5023 C   0  0  0  0  0  0  0  0  0  0  0  0
   21.3310    7.1111   55.2403 C   0  0  0  0  0  0  0  0  0  0  0  0
   20.2773    8.0350   55.1939 F   0  0  0  0  0  0  0  0  0  0  0  0
   20.8430    5.9921   54.5952 F   0  0  0  0  0  0  0  0  0  0  0  0
   21.6037    6.7160   56.5348 F   0  0  0  0  0  0  0  0  0  0  0  0
  1  2  1  0  0  0
  2  3  2  0  0  0
  3  4  1  0  0  0
  4  5  1  0  0  0
  5  6  2  0  0  0
  6  7  1  0  0  0
  7  8  1  0  0  0
  8  9  2  0  0  0
  8 10  1  0  0  0
 10 11  1  0  0  0
 11 12  1  0  0  0
 12 13  2  0  0  0
 13 26  1  0  0  0
 26 27  1  0  0  0
 26 28  1  0  0  0
 26 29  1  0  0  0
  6 15  1  0  0  0
 15 16  2  0  0  0
 16 17  1  0  0  0
 17 18  2  0  0  0
 18 19  1  0  0  0
 19 20  2  0  0  0
 19 21  1  0  0  0
 21 22  1  0  0  0
 22 23  2  0  0  0
 23 24  1  0  0  0
 24 25  2  0  0  0
 13  2  1  0  0  0
 20 15  1  0  0  0
 25 21  1  0  0  0
 11  4  2  0  0  0
 10 14  1  0  0  0
M  END
> <minimizedAffinity>
26.54435

> <CNNscore>
0.4650210738

> <CNNaffinity>
5.8781781197

> <CNN_VS>
2.7334766388

> <CNNaffinity_variance>
0.0870750695

$$$$
[H]c1nc([H])n(-c2c([H])c([H])c([H])c(C3=Nc4c([H])c(C([H])([H])[H])c(C(F)(F)F)c([H])c4N([H])C(=O)C3([H])[H])c2[H])c1[H]


 29 32  0  0  0  0  0  0  0  0999 V2000
   21.0539    3.0032   53.1388 C   0  0  0  0  0  0  0  0  0  0  0  0
   21.0892    4.4890   53.3809 C   0  0  0  0  0  0  0  0  0  0  0  0
   22.2745    5.1811   53.3980 C   0  0  0  0  0  0  0  0  0  0  0  0
   22.3012    6.5364   53.6201 C   0  0  0  0  0  0  0  0  0  0  0  0
   23.6139    7.0737   53.5995 N   0  0  0  0  0  0  0  0  0  0  0  0
   24.0923    8.1560   54.1834 C   0  0  0  0  0  0  0  0  0  0  0  0
   23.3517    9.1025   55.0282 C   0  0  0  0  0  0  0  0  0  0  0  0
   22.0216    9.5044   54.4369 C   0  0  0  0  0  0  0  0  0  0  0  0
   21.8000   10.7294   54.2554 O   0  0  0  0  0  0  0  0  0  0  0  0
   20.9953    8.5956   54.0686 N   0  0  0  0  0  0  0  0  0  0  0  0
   21.0807    7.1940   53.8293 C   0  0  0  0  0  0  0  0  0  0  0  0
   19.8902    6.5216   53.8157 C   0  0  0  0  0  0  0  0  0  0  0  0
   19.9005    5.1674   53.5908 C   0  0  0  0  0  0  0  0  0  0  0  0
   20.0202    8.9850   53.9476 H   0  0  0  0  0  0  0  0  0  0  0  0
   25.5244    8.3819   53.9243 C   0  0  0  0  0  0  0  0  0  0  0  0
   26.4441    8.2249   54.9482 C   0  0  0  0  0  0  0  0  0  0  0  0
   27.7729    8.4472   54.7014 C   0  0  0  0  0  0  0  0  0  0  0  0
   28.2051    8.8245   53.4490 C   0  0  0  0  0  0  0  0  0  0  0  0
   27.3195    8.9879   52.4165 C   0  0  0  0  0  0  0  0  0  0  0  0
   25.9631    8.7561   52.6882 C   0  0  0  0  0  0  0  0  0  0  0  0
   27.7560    9.3769   51.1209 N   0  0  0  0  0  0  0  0  0  0  0  0
   28.1910   10.5966   50.7553 C   0  0  0  0  0  0  0  0  0  0  0  0
   28.5214   10.5710   49.4184 C   0  0  0  0  0  0  0  0  0  0  0  0
   28.2795    9.3147   48.9793 N   0  0  0  0  0  0  0  0  0  0  0  0
   27.8093    8.5917   50.0372 C   0  0  0  0  0  0  0  0  0  0  0  0
   18.6180    4.4414   53.5741 C   0  0  0  0  0  0  0  0  0  0  0  0
   18.5529    3.5249   52.5150 F   0  0  0  0  0  0  0  0  0  0  0  0
   18.5396    3.6649   54.7132 F   0  0  0  0  0  0  0  0  0  0  0  0
   17.5122    5.2678   53.5996 F   0  0  0  0  0  0  0  0  0  0  0  0
  1  2  1  0  0  0
  2  3  2  0  0  0
  3  4  1  0  0  0
  4  5  1  0  0  0
  5  6  2  0  0  0
  6  7  1  0  0  0
  7  8  1  0  0  0
  8  9  2  0  0  0
  8 10  1  0  0  0
 10 11  1  0  0  0
 11 12  1  0  0  0
 12 13  2  0  0  0
 13 26  1  0  0  0
 26 27  1  0  0  0
 26 28  1  0  0  0
 26 29  1  0  0  0
  6 15  1  0  0  0
 15 16  2  0  0  0
 16 17  1  0  0  0
 17 18  2  0  0  0
 18 19  1  0  0  0
 19 20  2  0  0  0
 19 21  1  0  0  0
 21 22  1  0  0  0
 22 23  2  0  0  0
 23 24  1  0  0  0
 24 25  2  0  0  0
 13  2  1  0  0  0
 20 15  1  0  0  0
 25 21  1  0  0  0
 11  4  2  0  0  0
 10 14  1  0  0  0
M  END
> <minimizedAffinity>
31.20081

> <CNNscore>
0.4587472975

> <CNNaffinity>
6.0351781845

> <CNN_VS>
2.7686216831

> <CNNaffinity_variance>
0.4366939962

$$$$
[H]c1nc([H])n(-c2c([H])c([H])c([H])c(C3=Nc4c([H])c(C([H])([H])[H])c(C(F)(F)F)c([H])c4N([H])C(=O)C3([H])[H])c2[H])c1[H]


 29 32  0  0  0  0  0  0  0  0999 V2000
   21.2354    3.6464   53.4620 C   0  0  0  0  0  0  0  0  0  0  0  0
   21.2934    5.1340   53.6881 C   0  0  0  0  0  0  0  0  0  0  0  0
   22.4739    5.7636   53.9947 C   0  0  0  0  0  0  0  0  0  0  0  0
   22.5212    7.1208   54.2009 C   0  0  0  0  0  0  0  0  0  0  0  0
   23.8257    7.5883   54.5046 N   0  0  0  0  0  0  0  0  0  0  0  0
   24.2034    8.6586   55.1776 C   0  0  0  0  0  0  0  0  0  0  0  0
   23.3300    9.6635   55.7984 C   0  0  0  0  0  0  0  0  0  0  0  0
   22.2152   10.1191   54.8873 C   0  0  0  0  0  0  0  0  0  0  0  0
   22.1159   11.3490   54.6420 O   0  0  0  0  0  0  0  0  0  0  0  0
   21.2638    9.2560   54.2833 N   0  0  0  0  0  0  0  0  0  0  0  0
   21.3265    7.8462   54.0892 C   0  0  0  0  0  0  0  0  0  0  0  0
   20.1411    7.2367   53.7846 C   0  0  0  0  0  0  0  0  0  0  0  0
   20.1305    5.8785   53.5850 C   0  0  0  0  0  0  0  0  0  0  0  0
   20.3737    9.6925   53.9168 H   0  0  0  0  0  0  0  0  0  0  0  0
   25.6652    8.8029   55.2841 C   0  0  0  0  0  0  0  0  0  0  0  0
   26.4701    8.4904   54.2009 C   0  0  0  0  0  0  0  0  0  0  0  0
   27.8294    8.6173   54.3117 C   0  0  0  0  0  0  0  0  0  0  0  0
   28.4048    9.0514   55.4856 C   0  0  0  0  0  0  0  0  0  0  0  0
   27.6351    9.3678   56.5738 C   0  0  0  0  0  0  0  0  0  0  0  0
   26.2453    9.2314   56.4417 C   0  0  0  0  0  0  0  0  0  0  0  0
   28.2197    9.8165   57.7893 N   0  0  0  0  0  0  0  0  0  0  0  0
   28.5374   11.0855   58.1043 C   0  0  0  0  0  0  0  0  0  0  0  0
   29.0818   11.1091   59.3692 C   0  0  0  0  0  0  0  0  0  0  0  0
   29.0888    9.8325   59.8163 N   0  0  0  0  0  0  0  0  0  0  0  0
   28.5556    9.0488   58.8341 C   0  0  0  0  0  0  0  0  0  0  0  0
   18.8538    5.2202   53.2548 C   0  0  0  0  0  0  0  0  0  0  0  0
   17.7718    6.1069   53.3492 F   0  0  0  0  0  0  0  0  0  0  0  0
   18.8847    4.8470   51.9257 F   0  0  0  0  0  0  0  0  0  0  0  0
   18.6254    4.0618   53.9705 F   0  0  0  0  0  0  0  0  0  0  0  0
  1  2  1  0  0  0
  2  3  2  0  0  0
  3  4  1  0  0  0
  4  5  1  0  0  0
  5  6  2  0  0  0
  6  7  1  0  0  0
  7  8  1  0  0  0
  8  9  2  0  0  0
  8 10  1  0  0  0
 10 11  1  0  0  0
 11 12  1  0  0  0
 12 13  2  0  0  0
 13 26  1  0  0  0
 26 27  1  0  0  0
 26 28  1  0  0  0
 26 29  1  0  0  0
  6 15  1  0  0  0
 15 16  2  0  0  0
 16 17  1  0  0  0
 17 18  2  0  0  0
 18 19  1  0  0  0
 19 20  2  0  0  0
 19 21  1  0  0  0
 21 22  1  0  0  0
 22 23  2  0  0  0
 23 24  1  0  0  0
 24 25  2  0  0  0
 13  2  1  0  0  0
 20 15  1  0  0  0
 25 21  1  0  0  0
 11  4  2  0  0  0
 10 14  1  0  0  0
M  END
> <minimizedAffinity>
19.41497

> <CNNscore>
0.4577367604

> <CNNaffinity>
6.2039732933

> <CNN_VS>
2.8397865295

> <CNNaffinity_variance>
0.0527370349

$$$$
[H]c1nc([H])n(-c2c([H])c([H])c([H])c(C3=Nc4c([H])c(C([H])([H])[H])c(C(F)(F)F)c([H])c4N([H])C(=O)C3([H])[H])c2[H])c1[H]


 29 32  0  0  0  0  0  0  0  0999 V2000
   16.4297    4.7896   53.5980 C   0  0  0  0  0  0  0  0  0  0  0  0
   17.9313    4.8843   53.5387 C   0  0  0  0  0  0  0  0  0  0  0  0
   18.5763    6.0882   53.6754 C   0  0  0  0  0  0  0  0  0  0  0  0
   19.9464    6.1692   53.6197 C   0  0  0  0  0  0  0  0  0  0  0  0
   20.4285    7.4933   53.7829 N   0  0  0  0  0  0  0  0  0  0  0  0
   21.5537    8.0397   53.3627 C   0  0  0  0  0  0  0  0  0  0  0  0
   22.6201    7.3828   52.5950 C   0  0  0  0  0  0  0  0  0  0  0  0
   22.9983    6.0302   53.1499 C   0  0  0  0  0  0  0  0  0  0  0  0
   24.2007    5.8339   53.4636 O   0  0  0  0  0  0  0  0  0  0  0  0
   22.0910    4.9561   53.3446 N   0  0  0  0  0  0  0  0  0  0  0  0
   20.6688    4.9845   53.4185 C   0  0  0  0  0  0  0  0  0  0  0  0
   20.0440    3.7761   53.2803 C   0  0  0  0  0  0  0  0  0  0  0  0
   18.6732    3.7320   53.3412 C   0  0  0  0  0  0  0  0  0  0  0  0
   22.4992    3.9872   53.4531 H   0  0  0  0  0  0  0  0  0  0  0  0
   21.6943    9.4585   53.7320 C   0  0  0  0  0  0  0  0  0  0  0  0
   22.1121    9.8014   55.0074 C   0  0  0  0  0  0  0  0  0  0  0  0
   22.2301   11.1233   55.3460 C   0  0  0  0  0  0  0  0  0  0  0  0
   21.9386   12.1145   54.4348 C   0  0  0  0  0  0  0  0  0  0  0  0
   21.5230   11.8066   53.1662 C   0  0  0  0  0  0  0  0  0  0  0  0
   21.4079   10.4478   52.8377 C   0  0  0  0  0  0  0  0  0  0  0  0
   21.2200   12.8223   52.2191 N   0  0  0  0  0  0  0  0  0  0  0  0
   21.6193   12.8644   50.9349 C   0  0  0  0  0  0  0  0  0  0  0  0
   21.1201   14.0065   50.3489 C   0  0  0  0  0  0  0  0  0  0  0  0
   20.4109   14.6565   51.2996 N   0  0  0  0  0  0  0  0  0  0  0  0
   20.4812   13.9165   52.4444 C   0  0  0  0  0  0  0  0  0  0  0  0
   17.9983    2.4300   53.1941 C   0  0  0  0  0  0  0  0  0  0  0  0
   18.8913    1.3606   53.3518 F   0  0  0  0  0  0  0  0  0  0  0  0
   17.0949    2.2860   54.2283 F   0  0  0  0  0  0  0  0  0  0  0  0
   17.2660    2.3129   52.0295 F   0  0  0  0  0  0  0  0  0  0  0  0
  1  2  1  0  0  0
  2  3  2  0  0  0
  3  4  1  0  0  0
  4  5  1  0  0  0
  5  6  2  0  0  0
  6  7  1  0  0  0
  7  8  1  0  0  0
  8  9  2  0  0  0
  8 10  1  0  0  0
 10 11  1  0  0  0
 11 12  1  0  0  0
 12 13  2  0  0  0
 13 26  1  0  0  0
 26 27  1  0  0  0
 26 28  1  0  0  0
 26 29  1  0  0  0
  6 15  1  0  0  0
 15 16  2  0  0  0
 16 17  1  0  0  0
 17 18  2  0  0  0
 18 19  1  0  0  0
 19 20  2  0  0  0
 19 21  1  0  0  0
 21 22  1  0  0  0
 22 23  2  0  0  0
 23 24  1  0  0  0
 24 25  2  0  0  0
 13  2  1  0  0  0
 20 15  1  0  0  0
 25 21  1  0  0  0
 11  4  2  0  0  0
 10 14  1  0  0  0
M  END
> <minimizedAffinity>
44.84391

> <CNNscore>
0.4576938450

> <CNNaffinity>
6.2423391342

> <CNN_VS>
2.8570802212

> <CNNaffinity_variance>
0.4928959012

$$$$
[H]c1nc([H])n(-c2c([H])c([H])c([H])c(C3=Nc4c([H])c(C([H])([H])[H])c(C(F)(F)F)c([H])c4N([H])C(=O)C3([H])[H])c2[H])c1[H]


 29 32  0  0  0  0  0  0  0  0999 V2000
   27.6966    6.5161   53.9152 C   0  0  0  0  0  0  0  0  0  0  0  0
   26.3442    7.1027   54.2223 C   0  0  0  0  0  0  0  0  0  0  0  0
   25.1914    6.3892   54.0072 C   0  0  0  0  0  0  0  0  0  0  0  0
   23.9602    6.9294   54.2883 C   0  0  0  0  0  0  0  0  0  0  0  0
   22.8899    6.0431   54.0026 N   0  0  0  0  0  0  0  0  0  0  0  0
   21.6313    6.3071   53.7071 C   0  0  0  0  0  0  0  0  0  0  0  0
   21.0107    7.6342   53.5989 C   0  0  0  0  0  0  0  0  0  0  0  0
   21.3665    8.5468   54.7483 C   0  0  0  0  0  0  0  0  0  0  0  0
   20.4278    9.0446   55.4219 O   0  0  0  0  0  0  0  0  0  0  0  0
   22.6914    8.8873   55.1270 N   0  0  0  0  0  0  0  0  0  0  0  0
   23.9144    8.2331   54.8020 C   0  0  0  0  0  0  0  0  0  0  0  0
   25.0517    8.9592   55.0230 C   0  0  0  0  0  0  0  0  0  0  0  0
   26.2655    8.3882   54.7308 C   0  0  0  0  0  0  0  0  0  0  0  0
   22.8197    9.7418   55.7358 H   0  0  0  0  0  0  0  0  0  0  0  0
   20.8162    5.1036   53.4701 C   0  0  0  0  0  0  0  0  0  0  0  0
   21.4134    3.9491   52.9912 C   0  0  0  0  0  0  0  0  0  0  0  0
   20.6463    2.8374   52.7635 C   0  0  0  0  0  0  0  0  0  0  0  0
   19.2902    2.8536   53.0045 C   0  0  0  0  0  0  0  0  0  0  0  0
   18.6712    3.9803   53.4780 C   0  0  0  0  0  0  0  0  0  0  0  0
   19.4727    5.1088   53.7050 C   0  0  0  0  0  0  0  0  0  0  0  0
   17.2725    4.0066   53.7299 N   0  0  0  0  0  0  0  0  0  0  0  0
   16.3814    3.0542   53.3992 C   0  0  0  0  0  0  0  0  0  0  0  0
   15.1291    3.4506   53.8135 C   0  0  0  0  0  0  0  0  0  0  0  0
   15.2758    4.6599   54.4015 N   0  0  0  0  0  0  0  0  0  0  0  0
   16.5992    4.9890   54.3426 C   0  0  0  0  0  0  0  0  0  0  0  0
   27.4925    9.1688   54.9701 C   0  0  0  0  0  0  0  0  0  0  0  0
   27.3345   10.0744   56.0288 F   0  0  0  0  0  0  0  0  0  0  0  0
   28.4844    8.3064   55.3933 F   0  0  0  0  0  0  0  0  0  0  0  0
   27.9845    9.7898   53.8393 F   0  0  0  0  0  0  0  0  0  0  0  0
  1  2  1  0  0  0
  2  3  2  0  0  0
  3  4  1  0  0  0
  4  5  1  0  0  0
  5  6  2  0  0  0
  6  7  1  0  0  0
  7  8  1  0  0  0
  8  9  2  0  0  0
  8 10  1  0  0  0
 10 11  1  0  0  0
 11 12  1  0  0  0
 12 13  2  0  0  0
 13 26  1  0  0  0
 26 27  1  0  0  0
 26 28  1  0  0  0
 26 29  1  0  0  0
  6 15  1  0  0  0
 15 16  2  0  0  0
 16 17  1  0  0  0
 17 18  2  0  0  0
 18 19  1  0  0  0
 19 20  2  0  0  0
 19 21  1  0  0  0
 21 22  1  0  0  0
 22 23  2  0  0  0
 23 24  1  0  0  0
 24 25  2  0  0  0
 13  2  1  0  0  0
 20 15  1  0  0  0
 25 21  1  0  0  0
 11  4  2  0  0  0
 10 14  1  0  0  0
M  END
> <minimizedAffinity>
31.03270

> <CNNscore>
0.4524905682

> <CNNaffinity>
6.3115544319

> <CNN_VS>
2.8559188843

> <CNNaffinity_variance>
0.5840060115

$$$$
[H]c1nc(C([H])([H])[H])c([H])c(-c2nc(-c3c([H])c([H])c(Cl)c(C(F)(F)F)c3[H])n3c2C([H])([H])C([H])([H])O[C@]([H])(C([H])([H])[H])C3([H])[H])c1[H]


 29 32  0  0  0  0  0  0  0  0999 V2000
   21.6402   11.5552   51.6427 C   0  0  0  0  0  0  0  0  0  0  0  0
   21.5166   10.3448   52.4944 C   0  0  0  0  0  0  0  0  0  0  0  0
   22.6282    9.3726   52.1415 C   0  0  0  0  0  0  0  0  0  0  0  0
   22.3382    8.1662   52.8894 N   0  0  0  0  0  0  0  0  0  0  0  0
   21.3291    7.2759   52.5617 C   0  0  0  0  0  0  0  0  0  0  0  0
   20.3879    7.4828   51.4536 C   0  0  0  0  0  0  0  0  0  0  0  0
   20.0874    8.9538   51.3227 C   0  0  0  0  0  0  0  0  0  0  0  0
   20.2782    9.7073   52.4428 O   0  0  0  0  0  0  0  0  0  0  0  0
   21.3681    6.2248   53.4405 C   0  0  0  0  0  0  0  0  0  0  0  0
   22.3676    6.4850   54.2645 N   0  0  0  0  0  0  0  0  0  0  0  0
   22.9735    7.6830   53.9353 C   0  0  0  0  0  0  0  0  0  0  0  0
   24.1229    8.1681   54.6924 C   0  0  0  0  0  0  0  0  0  0  0  0
   24.0783    8.8542   55.8681 C   0  0  0  0  0  0  0  0  0  0  0  0
   25.2238    9.3501   56.5011 C   0  0  0  0  0  0  0  0  0  0  0  0
   26.4335    9.1234   55.8966 C   0  0  0  0  0  0  0  0  0  0  0  0
   27.9124    9.7298   56.6566 Cl  0  0  0  0  0  0  0  0  0  0  0  0
   26.5075    8.4385   54.7214 C   0  0  0  0  0  0  0  0  0  0  0  0
   25.3870    7.9657   54.1213 C   0  0  0  0  0  0  0  0  0  0  0  0
   27.8638    8.2285   54.1188 C   0  0  0  0  0  0  0  0  0  0  0  0
   28.2224    6.9039   54.1219 F   0  0  0  0  0  0  0  0  0  0  0  0
   28.7460    8.9892   54.8732 F   0  0  0  0  0  0  0  0  0  0  0  0
   27.7982    8.7462   52.8376 F   0  0  0  0  0  0  0  0  0  0  0  0
   20.4668    5.0776   53.4277 C   0  0  0  0  0  0  0  0  0  0  0  0
   20.8788    3.8472   52.9746 C   0  0  0  0  0  0  0  0  0  0  0  0
   19.9817    2.8103   52.9893 C   0  0  0  0  0  0  0  0  0  0  0  0
   18.7255    2.9726   53.4320 N   0  0  0  0  0  0  0  0  0  0  0  0
   18.2705    4.1511   53.8853 C   0  0  0  0  0  0  0  0  0  0  0  0
   16.8589    4.3139   54.3777 C   0  0  0  0  0  0  0  0  0  0  0  0
   19.1619    5.1951   53.8743 C   0  0  0  0  0  0  0  0  0  0  0  0
  1  2  1  0  0  0
  2  3  1  0  0  0
  3  4  1  0  0  0
  4  5  1  0  0  0
  5  6  1  0  0  0
  6  7  1  0  0  0
  7  8  1  0  0  0
  5  9  2  0  0  0
  9 10  1  0  0  0
 10 11  2  0  0  0
 11 12  1  0  0  0
 12 13  2  0  0  0
 13 14  1  0  0  0
 14 15  2  0  0  0
 15 16  1  0  0  0
 15 17  1  0  0  0
 17 18  2  0  0  0
 17 19  1  0  0  0
 19 20  1  0  0  0
 19 21  1  0  0  0
 19 22  1  0  0  0
  9 23  1  0  0  0
 23 24  2  0  0  0
 24 25  1  0  0  0
 25 26  2  0  0  0
 26 27  1  0  0  0
 27 28  1  0  0  0
 27 29  2  0  0  0
  8  2  1  0  0  0
 18 12  1  0  0  0
 29 23  1  0  0  0
 11  4  1  0  0  0
M  END
> <minimizedAffinity>
22.97717

> <CNNscore>
0.4816404581

> <CNNaffinity>
6.5947709084

> <CNN_VS>
3.1763083935

> <CNNaffinity_variance>
0.7972050905

$$$$
[H]c1nc(C([H])([H])[H])c([H])c(-c2nc(-c3c([H])c([H])c(Cl)c(C(F)(F)F)c3[H])n3c2C([H])([H])C([H])([H])O[C@]([H])(C([H])([H])[H])C3([H])[H])c1[H]


 29 32  0  0  0  0  0  0  0  0999 V2000
   21.6530   11.4266   54.9241 C   0  0  0  0  0  0  0  0  0  0  0  0
   21.8661    9.9570   54.9505 C   0  0  0  0  0  0  0  0  0  0  0  0
   22.4800    9.5197   53.6325 C   0  0  0  0  0  0  0  0  0  0  0  0
   22.4989    8.0717   53.6768 N   0  0  0  0  0  0  0  0  0  0  0  0
   21.3744    7.2777   53.5232 C   0  0  0  0  0  0  0  0  0  0  0  0
   20.0157    7.8114   53.3629 C   0  0  0  0  0  0  0  0  0  0  0  0
   19.8734    9.0676   54.1831 C   0  0  0  0  0  0  0  0  0  0  0  0
   20.7317    9.1985   55.2343 O   0  0  0  0  0  0  0  0  0  0  0  0
   21.7565    5.9621   53.5649 C   0  0  0  0  0  0  0  0  0  0  0  0
   23.0661    5.9759   53.7399 N   0  0  0  0  0  0  0  0  0  0  0  0
   23.5361    7.2737   53.8126 C   0  0  0  0  0  0  0  0  0  0  0  0
   24.9611    7.5406   53.9790 C   0  0  0  0  0  0  0  0  0  0  0  0
   25.9681    7.0284   53.2183 C   0  0  0  0  0  0  0  0  0  0  0  0
   27.3200    7.2748   53.4834 C   0  0  0  0  0  0  0  0  0  0  0  0
   27.6229    8.0701   54.5586 C   0  0  0  0  0  0  0  0  0  0  0  0
   29.3177    8.4124   54.9368 Cl  0  0  0  0  0  0  0  0  0  0  0  0
   26.6357    8.5971   55.3354 C   0  0  0  0  0  0  0  0  0  0  0  0
   25.3306    8.3472   55.0644 C   0  0  0  0  0  0  0  0  0  0  0  0
   27.0417    9.4573   56.4939 C   0  0  0  0  0  0  0  0  0  0  0  0
   27.3664    8.7067   57.5958 F   0  0  0  0  0  0  0  0  0  0  0  0
   25.9638   10.2916   56.7546 F   0  0  0  0  0  0  0  0  0  0  0  0
   28.1086   10.2183   56.0506 F   0  0  0  0  0  0  0  0  0  0  0  0
   20.8615    4.8169   53.4386 C   0  0  0  0  0  0  0  0  0  0  0  0
   21.2939    3.6237   52.9110 C   0  0  0  0  0  0  0  0  0  0  0  0
   20.4017    2.5866   52.8202 C   0  0  0  0  0  0  0  0  0  0  0  0
   19.1309    2.7133   53.2316 N   0  0  0  0  0  0  0  0  0  0  0  0
   18.6557    3.8545   53.7541 C   0  0  0  0  0  0  0  0  0  0  0  0
   17.2278    3.9778   54.2099 C   0  0  0  0  0  0  0  0  0  0  0  0
   19.5420    4.8985   53.8489 C   0  0  0  0  0  0  0  0  0  0  0  0
  1  2  1  0  0  0
  2  3  1  0  0  0
  3  4  1  0  0  0
  4  5  1  0  0  0
  5  6  1  0  0  0
  6  7  1  0  0  0
  7  8  1  0  0  0
  5  9  2  0  0  0
  9 10  1  0  0  0
 10 11  2  0  0  0
 11 12  1  0  0  0
 12 13  2  0  0  0
 13 14  1  0  0  0
 14 15  2  0  0  0
 15 16  1  0  0  0
 15 17  1  0  0  0
 17 18  2  0  0  0
 17 19  1  0  0  0
 19 20  1  0  0  0
 19 21  1  0  0  0
 19 22  1  0  0  0
  9 23  1  0  0  0
 23 24  2  0  0  0
 24 25  1  0  0  0
 25 26  2  0  0  0
 26 27  1  0  0  0
 27 28  1  0  0  0
 27 29  2  0  0  0
  8  2  1  0  0  0
 18 12  1  0  0  0
 29 23  1  0  0  0
 11  4  1  0  0  0
M  END
> <minimizedAffinity>
28.68227

> <CNNscore>
0.4437499642

> <CNNaffinity>
6.3558559418

> <CNN_VS>
2.8204107285

> <CNNaffinity_variance>
0.4935446680

$$$$
[H]c1nc(C([H])([H])[H])c([H])c(-c2nc(-c3c([H])c([H])c(Cl)c(C(F)(F)F)c3[H])n3c2C([H])([H])C([H])([H])O[C@]([H])(C([H])([H])[H])C3([H])[H])c1[H]


 29 32  0  0  0  0  0  0  0  0999 V2000
   26.2238    7.3462   53.4673 C   0  0  0  0  0  0  0  0  0  0  0  0
   24.7899    7.1312   53.1455 C   0  0  0  0  0  0  0  0  0  0  0  0
   23.9589    7.3695   54.3937 C   0  0  0  0  0  0  0  0  0  0  0  0
   22.6091    6.9803   54.0393 N   0  0  0  0  0  0  0  0  0  0  0  0
   22.1933    5.6664   53.9007 C   0  0  0  0  0  0  0  0  0  0  0  0
   23.0890    4.5101   54.0318 C   0  0  0  0  0  0  0  0  0  0  0  0
   24.4497    4.8697   53.4927 C   0  0  0  0  0  0  0  0  0  0  0  0
   24.4868    5.8898   52.5890 O   0  0  0  0  0  0  0  0  0  0  0  0
   20.8529    5.6577   53.6148 C   0  0  0  0  0  0  0  0  0  0  0  0
   20.4862    6.9266   53.5829 N   0  0  0  0  0  0  0  0  0  0  0  0
   21.5631    7.7535   53.8416 C   0  0  0  0  0  0  0  0  0  0  0  0
   21.3950    9.2025   53.8847 C   0  0  0  0  0  0  0  0  0  0  0  0
   21.0846    9.9424   54.9853 C   0  0  0  0  0  0  0  0  0  0  0  0
   20.8694   11.3243   54.9346 C   0  0  0  0  0  0  0  0  0  0  0  0
   20.9822   11.9416   53.7154 C   0  0  0  0  0  0  0  0  0  0  0  0
   20.7196   13.6879   53.5973 Cl  0  0  0  0  0  0  0  0  0  0  0  0
   21.2932   11.2263   52.5985 C   0  0  0  0  0  0  0  0  0  0  0  0
   21.4977    9.8873   52.6658 C   0  0  0  0  0  0  0  0  0  0  0  0
   21.3998   11.9680   51.3004 C   0  0  0  0  0  0  0  0  0  0  0  0
   20.8834   11.2429   50.2561 F   0  0  0  0  0  0  0  0  0  0  0  0
   22.7498   12.2285   51.1116 F   0  0  0  0  0  0  0  0  0  0  0  0
   20.7280   13.1630   51.4857 F   0  0  0  0  0  0  0  0  0  0  0  0
   20.0422    4.4644   53.3974 C   0  0  0  0  0  0  0  0  0  0  0  0
   20.5625    3.3439   52.7951 C   0  0  0  0  0  0  0  0  0  0  0  0
   19.7466    2.2559   52.6207 C   0  0  0  0  0  0  0  0  0  0  0  0
   18.4662    2.2647   53.0217 N   0  0  0  0  0  0  0  0  0  0  0  0
   17.9068    3.3309   53.6148 C   0  0  0  0  0  0  0  0  0  0  0  0
   16.4696    3.3223   54.0577 C   0  0  0  0  0  0  0  0  0  0  0  0
   18.7164    4.4250   53.7937 C   0  0  0  0  0  0  0  0  0  0  0  0
  1  2  1  0  0  0
  2  3  1  0  0  0
  3  4  1  0  0  0
  4  5  1  0  0  0
  5  6  1  0  0  0
  6  7  1  0  0  0
  7  8  1  0  0  0
  5  9  2  0  0  0
  9 10  1  0  0  0
 10 11  2  0  0  0
 11 12  1  0  0  0
 12 13  2  0  0  0
 13 14  1  0  0  0
 14 15  2  0  0  0
 15 16  1  0  0  0
 15 17  1  0  0  0
 17 18  2  0  0  0
 17 19  1  0  0  0
 19 20  1  0  0  0
 19 21  1  0  0  0
 19 22  1  0  0  0
  9 23  1  0  0  0
 23 24  2  0  0  0
 24 25  1  0  0  0
 25 26  2  0  0  0
 26 27  1  0  0  0
 27 28  1  0  0  0
 27 29  2  0  0  0
  8  2  1  0  0  0
 18 12  1  0  0  0
 29 23  1  0  0  0
 11  4  1  0  0  0
M  END
> <minimizedAffinity>
36.80536

> <CNNscore>
0.4424462914

> <CNNaffinity>
6.3688130379

> <CNN_VS>
2.8178577423

> <CNNaffinity_variance>
0.9017769098

$$$$
[H]c1nc(C([H])([H])[H])c([H])c(-c2nc(-c3c([H])c([H])c(Cl)c(C(F)(F)F)c3[H])n3c2C([H])([H])C([H])([H])O[C@]([H])(C([H])([H])[H])C3([H])[H])c1[H]


 29 32  0  0  0  0  0  0  0  0999 V2000
   25.6959    7.4808   53.8727 C   0  0  0  0  0  0  0  0  0  0  0  0
   24.3811    7.0873   53.3050 C   0  0  0  0  0  0  0  0  0  0  0  0
   23.2777    7.8054   54.0615 C   0  0  0  0  0  0  0  0  0  0  0  0
   22.0387    7.2444   53.5623 N   0  0  0  0  0  0  0  0  0  0  0  0
   21.5715    5.9830   53.8925 C   0  0  0  0  0  0  0  0  0  0  0  0
   22.3102    5.0358   54.7373 C   0  0  0  0  0  0  0  0  0  0  0  0
   23.7876    5.1850   54.4795 C   0  0  0  0  0  0  0  0  0  0  0  0
   24.1357    5.7156   53.2729 O   0  0  0  0  0  0  0  0  0  0  0  0
   20.3536    5.7948   53.2928 C   0  0  0  0  0  0  0  0  0  0  0  0
   20.1076    6.9088   52.6263 N   0  0  0  0  0  0  0  0  0  0  0  0
   21.1426    7.8113   52.7834 C   0  0  0  0  0  0  0  0  0  0  0  0
   21.0826    9.1284   52.1579 C   0  0  0  0  0  0  0  0  0  0  0  0
   20.6710    9.3958   50.8874 C   0  0  0  0  0  0  0  0  0  0  0  0
   20.7083   10.6799   50.3322 C   0  0  0  0  0  0  0  0  0  0  0  0
   21.1814   11.6994   51.1178 C   0  0  0  0  0  0  0  0  0  0  0  0
   21.2493   13.3422   50.4628 Cl  0  0  0  0  0  0  0  0  0  0  0  0
   21.5980   11.4607   52.3926 C   0  0  0  0  0  0  0  0  0  0  0  0
   21.5556   10.2097   52.9144 C   0  0  0  0  0  0  0  0  0  0  0  0
   22.1027   12.6235   53.1925 C   0  0  0  0  0  0  0  0  0  0  0  0
   22.9696   12.2248   54.1787 F   0  0  0  0  0  0  0  0  0  0  0  0
   20.9819   13.2414   53.7291 F   0  0  0  0  0  0  0  0  0  0  0  0
   22.7037   13.4794   52.2870 F   0  0  0  0  0  0  0  0  0  0  0  0
   19.5357    4.5912   53.3984 C   0  0  0  0  0  0  0  0  0  0  0  0
   20.0405    3.3516   53.0860 C   0  0  0  0  0  0  0  0  0  0  0  0
   19.2186    2.2608   53.2068 C   0  0  0  0  0  0  0  0  0  0  0  0
   17.9472    2.3796   53.6191 N   0  0  0  0  0  0  0  0  0  0  0  0
   17.4032    3.5646   53.9370 C   0  0  0  0  0  0  0  0  0  0  0  0
   15.9760    3.6782   54.3972 C   0  0  0  0  0  0  0  0  0  0  0  0
   18.2188    4.6625   53.8190 C   0  0  0  0  0  0  0  0  0  0  0  0
  1  2  1  0  0  0
  2  3  1  0  0  0
  3  4  1  0  0  0
  4  5  1  0  0  0
  5  6  1  0  0  0
  6  7  1  0  0  0
  7  8  1  0  0  0
  5  9  2  0  0  0
  9 10  1  0  0  0
 10 11  2  0  0  0
 11 12  1  0  0  0
 12 13  2  0  0  0
 13 14  1  0  0  0
 14 15  2  0  0  0
 15 16  1  0  0  0
 15 17  1  0  0  0
 17 18  2  0  0  0
 17 19  1  0  0  0
 19 20  1  0  0  0
 19 21  1  0  0  0
 19 22  1  0  0  0
  9 23  1  0  0  0
 23 24  2  0  0  0
 24 25  1  0  0  0
 25 26  2  0  0  0
 26 27  1  0  0  0
 27 28  1  0  0  0
 27 29  2  0  0  0
  8  2  1  0  0  0
 18 12  1  0  0  0
 29 23  1  0  0  0
 11  4  1  0  0  0
M  END
> <minimizedAffinity>
40.19014

> <CNNscore>
0.4239485264

> <CNNaffinity>
6.2809920311

> <CNN_VS>
2.6628172398

> <CNNaffinity_variance>
0.5500644445

$$$$
[H]c1nc(C([H])([H])[H])c([H])c(-c2nc(-c3c([H])c([H])c(Cl)c(C(F)(F)F)c3[H])n3c2C([H])([H])C([H])([H])O[C@]([H])(C([H])([H])[H])C3([H])[H])c1[H]


 29 32  0  0  0  0  0  0  0  0999 V2000
   24.0120    5.0199   55.3871 C   0  0  0  0  0  0  0  0  0  0  0  0
   23.0658    6.1126   55.0460 C   0  0  0  0  0  0  0  0  0  0  0  0
   22.5403    5.8942   53.6383 C   0  0  0  0  0  0  0  0  0  0  0  0
   21.7652    7.0780   53.3272 N   0  0  0  0  0  0  0  0  0  0  0  0
   22.3211    8.3109   53.0282 C   0  0  0  0  0  0  0  0  0  0  0  0
   23.7640    8.5824   53.0558 C   0  0  0  0  0  0  0  0  0  0  0  0
   24.4010    7.7822   54.1626 C   0  0  0  0  0  0  0  0  0  0  0  0
   23.5765    7.4026   55.1798 O   0  0  0  0  0  0  0  0  0  0  0  0
   21.3105    9.1884   52.7329 C   0  0  0  0  0  0  0  0  0  0  0  0
   20.1907    8.4979   52.8551 N   0  0  0  0  0  0  0  0  0  0  0  0
   20.4586    7.1930   53.2240 C   0  0  0  0  0  0  0  0  0  0  0  0
   19.3749    6.2308   53.3950 C   0  0  0  0  0  0  0  0  0  0  0  0
   18.1083    6.5132   53.8085 C   0  0  0  0  0  0  0  0  0  0  0  0
   17.1402    5.5244   54.0175 C   0  0  0  0  0  0  0  0  0  0  0  0
   17.5016    4.2215   53.7890 C   0  0  0  0  0  0  0  0  0  0  0  0
   16.3140    2.9332   54.0387 Cl  0  0  0  0  0  0  0  0  0  0  0  0
   18.7610    3.9106   53.3733 C   0  0  0  0  0  0  0  0  0  0  0  0
   19.6870    4.8817   53.1765 C   0  0  0  0  0  0  0  0  0  0  0  0
   19.0846    2.4653   53.1434 C   0  0  0  0  0  0  0  0  0  0  0  0
   20.1306    2.3108   52.2687 F   0  0  0  0  0  0  0  0  0  0  0  0
   17.9264    1.8819   52.6491 F   0  0  0  0  0  0  0  0  0  0  0  0
   19.3657    1.9328   54.3889 F   0  0  0  0  0  0  0  0  0  0  0  0
   21.4871   10.5893   52.3658 C   0  0  0  0  0  0  0  0  0  0  0  0
   22.0896   11.4835   53.2181 C   0  0  0  0  0  0  0  0  0  0  0  0
   22.2244   12.7860   52.8118 C   0  0  0  0  0  0  0  0  0  0  0  0
   21.7847   13.1985   51.6130 N   0  0  0  0  0  0  0  0  0  0  0  0
   21.1896   12.3688   50.7420 C   0  0  0  0  0  0  0  0  0  0  0  0
   20.7032   12.8494   49.4026 C   0  0  0  0  0  0  0  0  0  0  0  0
   21.0503   11.0625   51.1404 C   0  0  0  0  0  0  0  0  0  0  0  0
  1  2  1  0  0  0
  2  3  1  0  0  0
  3  4  1  0  0  0
  4  5  1  0  0  0
  5  6  1  0  0  0
  6  7  1  0  0  0
  7  8  1  0  0  0
  5  9  2  0  0  0
  9 10  1  0  0  0
 10 11  2  0  0  0
 11 12  1  0  0  0
 12 13  2  0  0  0
 13 14  1  0  0  0
 14 15  2  0  0  0
 15 16  1  0  0  0
 15 17  1  0  0  0
 17 18  2  0  0  0
 17 19  1  0  0  0
 19 20  1  0  0  0
 19 21  1  0  0  0
 19 22  1  0  0  0
  9 23  1  0  0  0
 23 24  2  0  0  0
 24 25  1  0  0  0
 25 26  2  0  0  0
 26 27  1  0  0  0
 27 28  1  0  0  0
 27 29  2  0  0  0
  8  2  1  0  0  0
 18 12  1  0  0  0
 29 23  1  0  0  0
 11  4  1  0  0  0
M  END
> <minimizedAffinity>
38.99277

> <CNNscore>
0.4209095836

> <CNNaffinity>
6.1293168068

> <CNN_VS>
2.5798881054

> <CNNaffinity_variance>
0.4559696615

$$$$
[H]c1nc(C([H])([H])[H])c([H])c(-c2nc(-c3c([H])c([H])c(Cl)c(C(F)(F)F)c3[H])n3c2C([H])([H])C([H])([H])O[C@]([H])(C([H])([H])[H])C3([H])[H])c1[H]


 29 32  0  0  0  0  0  0  0  0999 V2000
   19.5571   10.6321   50.9830 C   0  0  0  0  0  0  0  0  0  0  0  0
   20.5688    9.6468   51.4428 C   0  0  0  0  0  0  0  0  0  0  0  0
   20.3139    9.3167   52.9028 C   0  0  0  0  0  0  0  0  0  0  0  0
   21.4305    8.4894   53.3124 N   0  0  0  0  0  0  0  0  0  0  0  0
   22.7068    8.9730   53.5483 C   0  0  0  0  0  0  0  0  0  0  0  0
   23.0974   10.3742   53.3469 C   0  0  0  0  0  0  0  0  0  0  0  0
   22.3478   10.9361   52.1664 C   0  0  0  0  0  0  0  0  0  0  0  0
   21.8962   10.0284   51.2550 O   0  0  0  0  0  0  0  0  0  0  0  0
   23.4985    7.9365   53.9693 C   0  0  0  0  0  0  0  0  0  0  0  0
   22.7166    6.8715   53.9805 N   0  0  0  0  0  0  0  0  0  0  0  0
   21.4369    7.2001   53.5745 C   0  0  0  0  0  0  0  0  0  0  0  0
   20.3871    6.1874   53.5312 C   0  0  0  0  0  0  0  0  0  0  0  0
   19.0688    6.3850   53.8110 C   0  0  0  0  0  0  0  0  0  0  0  0
   18.1305    5.3467   53.8171 C   0  0  0  0  0  0  0  0  0  0  0  0
   18.5771    4.0836   53.5244 C   0  0  0  0  0  0  0  0  0  0  0  0
   17.4304    2.7355   53.5188 Cl  0  0  0  0  0  0  0  0  0  0  0  0
   19.8898    3.8576   53.2392 C   0  0  0  0  0  0  0  0  0  0  0  0
   20.7858    4.8756   53.2386 C   0  0  0  0  0  0  0  0  0  0  0  0
   20.3057    2.4515   52.9286 C   0  0  0  0  0  0  0  0  0  0  0  0
   21.6505    2.3639   52.6698 F   0  0  0  0  0  0  0  0  0  0  0  0
   19.5563    2.0588   51.8285 F   0  0  0  0  0  0  0  0  0  0  0  0
   19.9367    1.6919   54.0243 F   0  0  0  0  0  0  0  0  0  0  0  0
   24.9110    8.0392   54.3200 C   0  0  0  0  0  0  0  0  0  0  0  0
   25.8825    7.4186   53.5718 C   0  0  0  0  0  0  0  0  0  0  0  0
   27.1916    7.5552   53.9560 C   0  0  0  0  0  0  0  0  0  0  0  0
   27.5371    8.2742   55.0349 N   0  0  0  0  0  0  0  0  0  0  0  0
   26.6305    8.9007   55.8008 C   0  0  0  0  0  0  0  0  0  0  0  0
   27.0368    9.7023   57.0066 C   0  0  0  0  0  0  0  0  0  0  0  0
   25.3170    8.7695   55.4236 C   0  0  0  0  0  0  0  0  0  0  0  0
  1  2  1  0  0  0
  2  3  1  0  0  0
  3  4  1  0  0  0
  4  5  1  0  0  0
  5  6  1  0  0  0
  6  7  1  0  0  0
  7  8  1  0  0  0
  5  9  2  0  0  0
  9 10  1  0  0  0
 10 11  2  0  0  0
 11 12  1  0  0  0
 12 13  2  0  0  0
 13 14  1  0  0  0
 14 15  2  0  0  0
 15 16  1  0  0  0
 15 17  1  0  0  0
 17 18  2  0  0  0
 17 19  1  0  0  0
 19 20  1  0  0  0
 19 21  1  0  0  0
 19 22  1  0  0  0
  9 23  1  0  0  0
 23 24  2  0  0  0
 24 25  1  0  0  0
 25 26  2  0  0  0
 26 27  1  0  0  0
 27 28  1  0  0  0
 27 29  2  0  0  0
  8  2  1  0  0  0
 18 12  1  0  0  0
 29 23  1  0  0  0
 11  4  1  0  0  0
M  END
> <minimizedAffinity>
46.26267

> <CNNscore>
0.4066075087

> <CNNaffinity>
6.1860976219

> <CNN_VS>
2.5153136253

> <CNNaffinity_variance>
0.5474153757

$$$$
[H]c1nc(C([H])([H])[H])c([H])c(-c2nc(-c3c([H])c([H])c(Cl)c(C(F)(F)F)c3[H])n3c2C([H])([H])C([H])([H])O[C@]([H])(C([H])([H])[H])C3([H])[H])c1[H]


 29 32  0  0  0  0  0  0  0  0999 V2000
   18.9235    9.2440   50.4547 C   0  0  0  0  0  0  0  0  0  0  0  0
   20.0496    8.5511   51.1311 C   0  0  0  0  0  0  0  0  0  0  0  0
   19.6583    8.2508   52.5671 C   0  0  0  0  0  0  0  0  0  0  0  0
   20.8573    7.7330   53.1940 N   0  0  0  0  0  0  0  0  0  0  0  0
   21.9417    8.5154   53.5552 C   0  0  0  0  0  0  0  0  0  0  0  0
   22.0332    9.9560   53.2851 C   0  0  0  0  0  0  0  0  0  0  0  0
   21.3633   10.2602   51.9699 C   0  0  0  0  0  0  0  0  0  0  0  0
   21.2699    9.2231   51.0898 O   0  0  0  0  0  0  0  0  0  0  0  0
   22.8733    7.7188   54.1683 C   0  0  0  0  0  0  0  0  0  0  0  0
   22.3583    6.5020   54.1686 N   0  0  0  0  0  0  0  0  0  0  0  0
   21.1137    6.4978   53.5674 C   0  0  0  0  0  0  0  0  0  0  0  0
   20.3371    5.2658   53.4734 C   0  0  0  0  0  0  0  0  0  0  0  0
   20.7717    4.0796   52.9644 C   0  0  0  0  0  0  0  0  0  0  0  0
   19.9440    2.9577   52.8420 C   0  0  0  0  0  0  0  0  0  0  0  0
   18.6435    3.0777   53.2598 C   0  0  0  0  0  0  0  0  0  0  0  0
   17.5557    1.6880   53.1265 Cl  0  0  0  0  0  0  0  0  0  0  0  0
   18.1827    4.2517   53.7745 C   0  0  0  0  0  0  0  0  0  0  0  0
   18.9985    5.3294   53.8850 C   0  0  0  0  0  0  0  0  0  0  0  0
   16.7499    4.3093   54.2108 C   0  0  0  0  0  0  0  0  0  0  0  0
   15.9421    3.5447   53.4071 F   0  0  0  0  0  0  0  0  0  0  0  0
   16.3831    5.6469   54.1641 F   0  0  0  0  0  0  0  0  0  0  0  0
   16.7321    3.8789   55.5254 F   0  0  0  0  0  0  0  0  0  0  0  0
   24.1571    8.1698   54.6946 C   0  0  0  0  0  0  0  0  0  0  0  0
   24.2317    9.0180   55.7735 C   0  0  0  0  0  0  0  0  0  0  0  0
   25.4699    9.4039   56.2184 C   0  0  0  0  0  0  0  0  0  0  0  0
   26.5954    8.9744   55.6276 N   0  0  0  0  0  0  0  0  0  0  0  0
   26.5812    8.1460   54.5718 C   0  0  0  0  0  0  0  0  0  0  0  0
   27.8534    7.6751   53.9226 C   0  0  0  0  0  0  0  0  0  0  0  0
   25.3457    7.7543   54.1194 C   0  0  0  0  0  0  0  0  0  0  0  0
  1  2  1  0  0  0
  2  3  1  0  0  0
  3  4  1  0  0  0
  4  5  1  0  0  0
  5  6  1  0  0  0
  6  7  1  0  0  0
  7  8  1  0  0  0
  5  9  2  0  0  0
  9 10  1  0  0  0
 10 11  2  0  0  0
 11 12  1  0  0  0
 12 13  2  0  0  0
 13 14  1  0  0  0
 14 15  2  0  0  0
 15 16  1  0  0  0
 15 17  1  0  0  0
 17 18  2  0  0  0
 17 19  1  0  0  0
 19 20  1  0  0  0
 19 21  1  0  0  0
 19 22  1  0  0  0
  9 23  1  0  0  0
 23 24  2  0  0  0
 24 25  1  0  0  0
 25 26  2  0  0  0
 26 27  1  0  0  0
 27 28  1  0  0  0
 27 29  2  0  0  0
  8  2  1  0  0  0
 18 12  1  0  0  0
 29 23  1  0  0  0
 11  4  1  0  0  0
M  END
> <minimizedAffinity>
30.23705

> <CNNscore>
0.3979992568

> <CNNaffinity>
6.2760248184

> <CNN_VS>
2.4978532791

> <CNNaffinity_variance>
0.4042872488

$$$$
[H]c1nc(C([H])([H])[H])c([H])c(-c2nc(-c3c([H])c([H])c(Cl)c(C(F)(F)F)c3[H])n3c2C([H])([H])C([H])([H])O[C@]([H])(C([H])([H])[H])C3([H])[H])c1[H]


 29 32  0  0  0  0  0  0  0  0999 V2000
   24.7537    4.8266   55.3998 C   0  0  0  0  0  0  0  0  0  0  0  0
   24.6348    6.1602   54.7571 C   0  0  0  0  0  0  0  0  0  0  0  0
   23.9199    7.1070   55.7047 C   0  0  0  0  0  0  0  0  0  0  0  0
   23.6994    8.3206   54.9447 N   0  0  0  0  0  0  0  0  0  0  0  0
   22.7450    8.4479   53.9491 C   0  0  0  0  0  0  0  0  0  0  0  0
   21.8855    7.3457   53.4983 C   0  0  0  0  0  0  0  0  0  0  0  0
   22.6585    6.0535   53.5598 C   0  0  0  0  0  0  0  0  0  0  0  0
   24.0164    6.1634   53.5080 O   0  0  0  0  0  0  0  0  0  0  0  0
   22.7699    9.7350   53.4786 C   0  0  0  0  0  0  0  0  0  0  0  0
   23.7110   10.3506   54.1722 N   0  0  0  0  0  0  0  0  0  0  0  0
   24.2940    9.4864   55.0798 C   0  0  0  0  0  0  0  0  0  0  0  0
   25.3459    9.9502   55.9787 C   0  0  0  0  0  0  0  0  0  0  0  0
   25.5779   11.2415   56.3445 C   0  0  0  0  0  0  0  0  0  0  0  0
   26.6531   11.6184   57.1572 C   0  0  0  0  0  0  0  0  0  0  0  0
   27.4969   10.6302   57.5950 C   0  0  0  0  0  0  0  0  0  0  0  0
   28.8720   11.0544   58.6253 Cl  0  0  0  0  0  0  0  0  0  0  0  0
   27.2876    9.3302   57.2459 C   0  0  0  0  0  0  0  0  0  0  0  0
   26.2408    8.9828   56.4568 C   0  0  0  0  0  0  0  0  0  0  0  0
   28.2507    8.3040   57.7618 C   0  0  0  0  0  0  0  0  0  0  0  0
   27.6066    7.1678   58.1829 F   0  0  0  0  0  0  0  0  0  0  0  0
   28.9388    8.9070   58.8052 F   0  0  0  0  0  0  0  0  0  0  0  0
   29.1303    8.0487   56.7249 F   0  0  0  0  0  0  0  0  0  0  0  0
   21.9128   10.2672   52.4247 C   0  0  0  0  0  0  0  0  0  0  0  0
   21.0836    9.4503   51.6939 C   0  0  0  0  0  0  0  0  0  0  0  0
   20.3036   10.0143   50.7175 C   0  0  0  0  0  0  0  0  0  0  0  0
   20.3345   11.3318   50.4655 N   0  0  0  0  0  0  0  0  0  0  0  0
   21.1247   12.1751   51.1479 C   0  0  0  0  0  0  0  0  0  0  0  0
   21.1458   13.6493   50.8512 C   0  0  0  0  0  0  0  0  0  0  0  0
   21.9093   11.6192   52.1277 C   0  0  0  0  0  0  0  0  0  0  0  0
  1  2  1  0  0  0
  2  3  1  0  0  0
  3  4  1  0  0  0
  4  5  1  0  0  0
  5  6  1  0  0  0
  6  7  1  0  0  0
  7  8  1  0  0  0
  5  9  2  0  0  0
  9 10  1  0  0  0
 10 11  2  0  0  0
 11 12  1  0  0  0
 12 13  2  0  0  0
 13 14  1  0  0  0
 14 15  2  0  0  0
 15 16  1  0  0  0
 15 17  1  0  0  0
 17 18  2  0  0  0
 17 19  1  0  0  0
 19 20  1  0  0  0
 19 21  1  0  0  0
 19 22  1  0  0  0
  9 23  1  0  0  0
 23 24  2  0  0  0
 24 25  1  0  0  0
 25 26  2  0  0  0
 26 27  1  0  0  0
 27 28  1  0  0  0
 27 29  2  0  0  0
  8  2  1  0  0  0
 18 12  1  0  0  0
 29 23  1  0  0  0
 11  4  1  0  0  0
M  END
> <minimizedAffinity>
52.65733

> <CNNscore>
0.3907012939

> <CNNaffinity>
5.6940155029

> <CNN_VS>
2.2246592045

> <CNNaffinity_variance>
0.6071507931

$$$$
[H]c1nc(C([H])([H])[H])c([H])c(-c2nc(-c3c([H])c([H])c(Cl)c(C(F)(F)F)c3[H])n3c2C([H])([H])C([H])([H])O[C@]([H])(C([H])([H])[H])C3([H])[H])c1[H]


 29 32  0  0  0  0  0  0  0  0999 V2000
   20.7905    5.5881   53.4837 C   0  0  0  0  0  0  0  0  0  0  0  0
   21.7501    6.5101   54.1431 C   0  0  0  0  0  0  0  0  0  0  0  0
   22.3167    7.4633   53.1059 C   0  0  0  0  0  0  0  0  0  0  0  0
   23.3542    8.2072   53.7908 N   0  0  0  0  0  0  0  0  0  0  0  0
   24.5929    7.6830   54.1213 C   0  0  0  0  0  0  0  0  0  0  0  0
   24.9792    6.2877   53.8755 C   0  0  0  0  0  0  0  0  0  0  0  0
   23.7764    5.3979   54.0571 C   0  0  0  0  0  0  0  0  0  0  0  0
   22.7802    5.8894   54.8475 O   0  0  0  0  0  0  0  0  0  0  0  0
   25.3441    8.6675   54.7085 C   0  0  0  0  0  0  0  0  0  0  0  0
   24.5741    9.7411   54.7275 N   0  0  0  0  0  0  0  0  0  0  0  0
   23.3412    9.4685   54.1651 C   0  0  0  0  0  0  0  0  0  0  0  0
   22.3281   10.5126   54.0516 C   0  0  0  0  0  0  0  0  0  0  0  0
   21.3893   10.8256   54.9875 C   0  0  0  0  0  0  0  0  0  0  0  0
   20.4025   11.7955   54.7775 C   0  0  0  0  0  0  0  0  0  0  0  0
   20.3986   12.4487   53.5719 C   0  0  0  0  0  0  0  0  0  0  0  0
   19.1712   13.6842   53.2565 Cl  0  0  0  0  0  0  0  0  0  0  0  0
   21.3267   12.1569   52.6184 C   0  0  0  0  0  0  0  0  0  0  0  0
   22.2756   11.2134   52.8386 C   0  0  0  0  0  0  0  0  0  0  0  0
   21.2612   12.9113   51.3249 C   0  0  0  0  0  0  0  0  0  0  0  0
   20.1296   13.6833   51.2427 F   0  0  0  0  0  0  0  0  0  0  0  0
   21.2925   11.9577   50.3171 F   0  0  0  0  0  0  0  0  0  0  0  0
   22.4149   13.6724   51.2663 F   0  0  0  0  0  0  0  0  0  0  0  0
   26.7098    8.5115   55.1974 C   0  0  0  0  0  0  0  0  0  0  0  0
   27.7027    7.9957   54.3992 C   0  0  0  0  0  0  0  0  0  0  0  0
   28.9652    7.8755   54.9202 C   0  0  0  0  0  0  0  0  0  0  0  0
   29.2457    8.2472   56.1786 N   0  0  0  0  0  0  0  0  0  0  0  0
   28.3156    8.7566   57.0011 C   0  0  0  0  0  0  0  0  0  0  0  0
   28.6488    9.1678   58.4088 C   0  0  0  0  0  0  0  0  0  0  0  0
   27.0483    8.8807   56.4879 C   0  0  0  0  0  0  0  0  0  0  0  0
  1  2  1  0  0  0
  2  3  1  0  0  0
  3  4  1  0  0  0
  4  5  1  0  0  0
  5  6  1  0  0  0
  6  7  1  0  0  0
  7  8  1  0  0  0
  5  9  2  0  0  0
  9 10  1  0  0  0
 10 11  2  0  0  0
 11 12  1  0  0  0
 12 13  2  0  0  0
 13 14  1  0  0  0
 14 15  2  0  0  0
 15 16  1  0  0  0
 15 17  1  0  0  0
 17 18  2  0  0  0
 17 19  1  0  0  0
 19 20  1  0  0  0
 19 21  1  0  0  0
 19 22  1  0  0  0
  9 23  1  0  0  0
 23 24  2  0  0  0
 24 25  1  0  0  0
 25 26  2  0  0  0
 26 27  1  0  0  0
 27 28  1  0  0  0
 27 29  2  0  0  0
  8  2  1  0  0  0
 18 12  1  0  0  0
 29 23  1  0  0  0
 11  4  1  0  0  0
M  END
> <minimizedAffinity>
33.24035

> <CNNscore>
0.3895530105

> <CNNaffinity>
5.9081430435

> <CNN_VS>
2.3015348911

> <CNNaffinity_variance>
0.2362530679

$$$$
[H]c1c([H])c(-c2nc(-c3c([H])c(C([H])([H])[H])nc(C([H])([H])F)c3[H])c3n2C([H])([H])[C@@]([H])(C([H])([H])[H])OC([H])([H])C3([H])[H])c([H])c([H])c1F


 27 30  0  0  0  0  0  0  0  0999 V2000
   20.9722    7.1905   51.6658 C   0  0  0  0  0  0  0  0  0  0  0  0
   21.7875    6.7712   52.8584 C   0  0  0  0  0  0  0  0  0  0  0  0
   21.4357    7.5238   54.1171 C   0  0  0  0  0  0  0  0  0  0  0  0
   22.5402    8.3908   54.4501 N   0  0  0  0  0  0  0  0  0  0  0  0
   23.7761    7.8492   54.7373 C   0  0  0  0  0  0  0  0  0  0  0  0
   24.1579    6.3916   54.6728 C   0  0  0  0  0  0  0  0  0  0  0  0
   23.8822    5.8897   53.2459 C   0  0  0  0  0  0  0  0  0  0  0  0
   23.1473    6.8702   52.5608 O   0  0  0  0  0  0  0  0  0  0  0  0
   24.6430    8.8512   55.0765 C   0  0  0  0  0  0  0  0  0  0  0  0
   23.9090    9.9615   54.9819 N   0  0  0  0  0  0  0  0  0  0  0  0
   22.6210    9.6864   54.5976 C   0  0  0  0  0  0  0  0  0  0  0  0
   21.5949   10.6978   54.4615 C   0  0  0  0  0  0  0  0  0  0  0  0
   20.5728   10.9339   55.3155 C   0  0  0  0  0  0  0  0  0  0  0  0
   19.7107   11.9978   55.0788 C   0  0  0  0  0  0  0  0  0  0  0  0
   19.8576   12.8264   53.9982 C   0  0  0  0  0  0  0  0  0  0  0  0
   19.0068   13.8748   53.7665 F   0  0  0  0  0  0  0  0  0  0  0  0
   20.8883   12.6038   53.1166 C   0  0  0  0  0  0  0  0  0  0  0  0
   21.7280   11.5477   53.3705 C   0  0  0  0  0  0  0  0  0  0  0  0
   26.0593    8.7548   55.4486 C   0  0  0  0  0  0  0  0  0  0  0  0
   27.0025    8.2982   54.5242 C   0  0  0  0  0  0  0  0  0  0  0  0
   28.3368    8.2314   54.8556 C   0  0  0  0  0  0  0  0  0  0  0  0
   29.3099    7.7401   53.8448 C   0  0  0  0  0  0  0  0  0  0  0  0
   28.7475    8.6093   56.0852 N   0  0  0  0  0  0  0  0  0  0  0  0
   27.8864    9.0538   57.0066 C   0  0  0  0  0  0  0  0  0  0  0  0
   26.5499    9.1205   56.6739 C   0  0  0  0  0  0  0  0  0  0  0  0
   28.3042    9.4776   58.3690 C   0  0  0  0  0  0  0  0  0  0  0  0
   28.5291   10.8466   58.3221 F   0  0  0  0  0  0  0  0  0  0  0  0
  1  2  1  0  0  0
  2  3  1  0  0  0
  3  4  1  0  0  0
  4  5  1  0  0  0
  5  6  1  0  0  0
  6  7  1  0  0  0
  7  8  1  0  0  0
  5  9  2  0  0  0
  9 10  1  0  0  0
 10 11  2  0  0  0
 11 12  1  0  0  0
 12 13  2  0  0  0
 13 14  1  0  0  0
 14 15  2  0  0  0
 15 16  1  0  0  0
 15 17  1  0  0  0
 17 18  2  0  0  0
  9 19  1  0  0  0
 19 20  2  0  0  0
 20 21  1  0  0  0
 21 22  1  0  0  0
 21 23  2  0  0  0
 23 24  1  0  0  0
 24 26  1  0  0  0
 26 27  1  0  0  0
 24 25  2  0  0  0
  8  2  1  0  0  0
 18 12  1  0  0  0
 25 19  1  0  0  0
 11  4  1  0  0  0
M  END
> <minimizedAffinity>
28.19310

> <CNNscore>
0.5812145472

> <CNNaffinity>
5.9752287865

> <CNN_VS>
3.4728899002

> <CNNaffinity_variance>
0.3097451925

$$$$
[H]c1c([H])c(-c2nc(-c3c([H])c(C([H])([H])[H])nc(C([H])([H])F)c3[H])c3n2C([H])([H])[C@@]([H])(C([H])([H])[H])OC([H])([H])C3([H])[H])c([H])c([H])c1F


 27 30  0  0  0  0  0  0  0  0999 V2000
   19.6594    9.5774   55.7907 C   0  0  0  0  0  0  0  0  0  0  0  0
   20.9239   10.0438   55.1225 C   0  0  0  0  0  0  0  0  0  0  0  0
   21.2588    9.2706   53.8717 C   0  0  0  0  0  0  0  0  0  0  0  0
   22.4311    8.4709   54.1338 N   0  0  0  0  0  0  0  0  0  0  0  0
   23.6231    9.0852   54.4580 C   0  0  0  0  0  0  0  0  0  0  0  0
   23.8507   10.5629   54.6547 C   0  0  0  0  0  0  0  0  0  0  0  0
   22.8985   11.0486   55.7599 C   0  0  0  0  0  0  0  0  0  0  0  0
   21.9772   10.0264   56.0377 O   0  0  0  0  0  0  0  0  0  0  0  0
   24.5972    8.1365   54.6047 C   0  0  0  0  0  0  0  0  0  0  0  0
   23.9668    6.9844   54.3688 N   0  0  0  0  0  0  0  0  0  0  0  0
   22.6401    7.1823   54.0811 C   0  0  0  0  0  0  0  0  0  0  0  0
   21.7287    6.1116   53.7387 C   0  0  0  0  0  0  0  0  0  0  0  0
   22.0258    4.7954   53.6427 C   0  0  0  0  0  0  0  0  0  0  0  0
   21.0149    3.8799   53.3763 C   0  0  0  0  0  0  0  0  0  0  0  0
   19.7119    4.2649   53.2034 C   0  0  0  0  0  0  0  0  0  0  0  0
   18.7167    3.3610   52.9410 F   0  0  0  0  0  0  0  0  0  0  0  0
   19.3878    5.5975   53.2950 C   0  0  0  0  0  0  0  0  0  0  0  0
   20.4022    6.4839   53.5595 C   0  0  0  0  0  0  0  0  0  0  0  0
   26.0112    8.3170   54.9538 C   0  0  0  0  0  0  0  0  0  0  0  0
   27.0131    7.7779   54.1424 C   0  0  0  0  0  0  0  0  0  0  0  0
   28.3420    7.9665   54.4470 C   0  0  0  0  0  0  0  0  0  0  0  0
   29.3787    7.3771   53.5593 C   0  0  0  0  0  0  0  0  0  0  0  0
   28.6904    8.6788   55.5400 N   0  0  0  0  0  0  0  0  0  0  0  0
   27.7717    9.2162   56.3493 C   0  0  0  0  0  0  0  0  0  0  0  0
   26.4404    9.0270   56.0436 C   0  0  0  0  0  0  0  0  0  0  0  0
   28.1200   10.0055   57.5600 C   0  0  0  0  0  0  0  0  0  0  0  0
   28.3615    9.1006   58.5846 F   0  0  0  0  0  0  0  0  0  0  0  0
  1  2  1  0  0  0
  2  3  1  0  0  0
  3  4  1  0  0  0
  4  5  1  0  0  0
  5  6  1  0  0  0
  6  7  1  0  0  0
  7  8  1  0  0  0
  5  9  2  0  0  0
  9 10  1  0  0  0
 10 11  2  0  0  0
 11 12  1  0  0  0
 12 13  2  0  0  0
 13 14  1  0  0  0
 14 15  2  0  0  0
 15 16  1  0  0  0
 15 17  1  0  0  0
 17 18  2  0  0  0
  9 19  1  0  0  0
 19 20  2  0  0  0
 20 21  1  0  0  0
 21 22  1  0  0  0
 21 23  2  0  0  0
 23 24  1  0  0  0
 24 26  1  0  0  0
 26 27  1  0  0  0
 24 25  2  0  0  0
  8  2  1  0  0  0
 18 12  1  0  0  0
 25 19  1  0  0  0
 11  4  1  0  0  0
M  END
> <minimizedAffinity>
28.23836

> <CNNscore>
0.5472648144

> <CNNaffinity>
6.2084431648

> <CNN_VS>
3.3976624012

> <CNNaffinity_variance>
0.3661158383

$$$$
[H]c1c([H])c(-c2nc(-c3c([H])c(C([H])([H])[H])nc(C([H])([H])F)c3[H])c3n2C([H])([H])[C@@]([H])(C([H])([H])[H])OC([H])([H])C3([H])[H])c([H])c([H])c1F


 27 30  0  0  0  0  0  0  0  0999 V2000
   19.6299    9.5513   55.8195 C   0  0  0  0  0  0  0  0  0  0  0  0
   20.8834   10.0293   55.1389 C   0  0  0  0  0  0  0  0  0  0  0  0
   21.2106    9.2621   53.8823 C   0  0  0  0  0  0  0  0  0  0  0  0
   22.3918    8.4707   54.1295 N   0  0  0  0  0  0  0  0  0  0  0  0
   23.5826    9.0933   54.4423 C   0  0  0  0  0  0  0  0  0  0  0  0
   23.8009   10.5722   54.6407 C   0  0  0  0  0  0  0  0  0  0  0  0
   22.8571   11.0475   55.7576 C   0  0  0  0  0  0  0  0  0  0  0  0
   21.9468   10.0175   56.0425 O   0  0  0  0  0  0  0  0  0  0  0  0
   24.5655    8.1517   54.5758 C   0  0  0  0  0  0  0  0  0  0  0  0
   23.9414    6.9954   54.3435 N   0  0  0  0  0  0  0  0  0  0  0  0
   22.6101    7.1839   54.0708 C   0  0  0  0  0  0  0  0  0  0  0  0
   21.7033    6.1072   53.7353 C   0  0  0  0  0  0  0  0  0  0  0  0
   21.9965    4.7875   53.6867 C   0  0  0  0  0  0  0  0  0  0  0  0
   20.9889    3.8685   53.4198 C   0  0  0  0  0  0  0  0  0  0  0  0
   19.6931    4.2535   53.1996 C   0  0  0  0  0  0  0  0  0  0  0  0
   18.7010    3.3462   52.9368 F   0  0  0  0  0  0  0  0  0  0  0  0
   19.3730    5.5896   53.2426 C   0  0  0  0  0  0  0  0  0  0  0  0
   20.3841    6.4794   53.5085 C   0  0  0  0  0  0  0  0  0  0  0  0
   25.9818    8.3421   54.9100 C   0  0  0  0  0  0  0  0  0  0  0  0
   26.3470    9.0288   56.0709 C   0  0  0  0  0  0  0  0  0  0  0  0
   27.6725    9.1874   56.4065 C   0  0  0  0  0  0  0  0  0  0  0  0
   28.0211    9.9241   57.6498 C   0  0  0  0  0  0  0  0  0  0  0  0
   28.6368    8.6771   55.6109 N   0  0  0  0  0  0  0  0  0  0  0  0
   28.3416    8.0116   54.4893 C   0  0  0  0  0  0  0  0  0  0  0  0
   27.0136    7.8530   54.1537 C   0  0  0  0  0  0  0  0  0  0  0  0
   29.3776    7.4373   53.5909 C   0  0  0  0  0  0  0  0  0  0  0  0
   29.0067    6.1271   53.3215 F   0  0  0  0  0  0  0  0  0  0  0  0
  1  2  1  0  0  0
  2  3  1  0  0  0
  3  4  1  0  0  0
  4  5  1  0  0  0
  5  6  1  0  0  0
  6  7  1  0  0  0
  7  8  1  0  0  0
  5  9  2  0  0  0
  9 10  1  0  0  0
 10 11  2  0  0  0
 11 12  1  0  0  0
 12 13  2  0  0  0
 13 14  1  0  0  0
 14 15  2  0  0  0
 15 16  1  0  0  0
 15 17  1  0  0  0
 17 18  2  0  0  0
  9 19  1  0  0  0
 19 20  2  0  0  0
 20 21  1  0  0  0
 21 22  1  0  0  0
 21 23  2  0  0  0
 23 24  1  0  0  0
 24 26  1  0  0  0
 26 27  1  0  0  0
 24 25  2  0  0  0
  8  2  1  0  0  0
 18 12  1  0  0  0
 25 19  1  0  0  0
 11  4  1  0  0  0
M  END
> <minimizedAffinity>
29.93278

> <CNNscore>
0.4957171679

> <CNNaffinity>
6.0695390701

> <CNN_VS>
3.0087747574

> <CNNaffinity_variance>
0.3592115641

$$$$
[H]c1c([H])c(-c2nc(-c3c([H])c(C([H])([H])[H])nc(C([H])([H])F)c3[H])c3n2C([H])([H])[C@@]([H])(C([H])([H])[H])OC([H])([H])C3([H])[H])c([H])c([H])c1F


 27 30  0  0  0  0  0  0  0  0999 V2000
   28.7913    6.8389   54.5308 C   0  0  0  0  0  0  0  0  0  0  0  0
   27.6209    7.3746   53.7523 C   0  0  0  0  0  0  0  0  0  0  0  0
   27.4057    8.8554   53.9403 C   0  0  0  0  0  0  0  0  0  0  0  0
   26.1911    9.0442   54.6965 N   0  0  0  0  0  0  0  0  0  0  0  0
   24.9871    8.6097   54.1817 C   0  0  0  0  0  0  0  0  0  0  0  0
   24.7780    7.8569   52.8918 C   0  0  0  0  0  0  0  0  0  0  0  0
   25.6150    6.5685   52.9513 C   0  0  0  0  0  0  0  0  0  0  0  0
   26.4730    6.6430   54.0599 O   0  0  0  0  0  0  0  0  0  0  0  0
   23.9782    8.9457   55.0418 C   0  0  0  0  0  0  0  0  0  0  0  0
   24.6005    9.5669   56.0455 N   0  0  0  0  0  0  0  0  0  0  0  0
   25.9555    9.6294   55.8406 C   0  0  0  0  0  0  0  0  0  0  0  0
   26.8707   10.2894   56.7467 C   0  0  0  0  0  0  0  0  0  0  0  0
   27.9033    9.7211   57.4104 C   0  0  0  0  0  0  0  0  0  0  0  0
   28.7392   10.5125   58.1891 C   0  0  0  0  0  0  0  0  0  0  0  0
   28.5537   11.8638   58.3130 C   0  0  0  0  0  0  0  0  0  0  0  0
   29.3787   12.6423   59.0809 F   0  0  0  0  0  0  0  0  0  0  0  0
   27.5095   12.4619   57.6485 C   0  0  0  0  0  0  0  0  0  0  0  0
   26.6972   11.6610   56.8847 C   0  0  0  0  0  0  0  0  0  0  0  0
   22.5396    8.6829   54.9188 C   0  0  0  0  0  0  0  0  0  0  0  0
   21.6181    9.4489   55.6377 C   0  0  0  0  0  0  0  0  0  0  0  0
   20.2659    9.2279   55.5067 C   0  0  0  0  0  0  0  0  0  0  0  0
   19.3169   10.0637   56.2884 C   0  0  0  0  0  0  0  0  0  0  0  0
   19.8162    8.2624   54.6768 N   0  0  0  0  0  0  0  0  0  0  0  0
   20.6551    7.5015   53.9659 C   0  0  0  0  0  0  0  0  0  0  0  0
   22.0097    7.7235   54.0976 C   0  0  0  0  0  0  0  0  0  0  0  0
   20.1943    6.4305   53.0435 C   0  0  0  0  0  0  0  0  0  0  0  0
   18.8731    6.1519   53.3655 F   0  0  0  0  0  0  0  0  0  0  0  0
  1  2  1  0  0  0
  2  3  1  0  0  0
  3  4  1  0  0  0
  4  5  1  0  0  0
  5  6  1  0  0  0
  6  7  1  0  0  0
  7  8  1  0  0  0
  5  9  2  0  0  0
  9 10  1  0  0  0
 10 11  2  0  0  0
 11 12  1  0  0  0
 12 13  2  0  0  0
 13 14  1  0  0  0
 14 15  2  0  0  0
 15 16  1  0  0  0
 15 17  1  0  0  0
 17 18  2  0  0  0
  9 19  1  0  0  0
 19 20  2  0  0  0
 20 21  1  0  0  0
 21 22  1  0  0  0
 21 23  2  0  0  0
 23 24  1  0  0  0
 24 26  1  0  0  0
 26 27  1  0  0  0
 24 25  2  0  0  0
  8  2  1  0  0  0
 18 12  1  0  0  0
 25 19  1  0  0  0
 11  4  1  0  0  0
M  END
> <minimizedAffinity>
36.52158

> <CNNscore>
0.4679342508

> <CNNaffinity>
5.7979722023

> <CNN_VS>
2.7130696774

> <CNNaffinity_variance>
0.6058279276

$$$$
[H]c1c([H])c(-c2nc(-c3c([H])c(C([H])([H])[H])nc(C([H])([H])F)c3[H])c3n2C([H])([H])[C@@]([H])(C([H])([H])[H])OC([H])([H])C3([H])[H])c([H])c([H])c1F


 27 30  0  0  0  0  0  0  0  0999 V2000
   22.2268   10.8374   51.2009 C   0  0  0  0  0  0  0  0  0  0  0  0
   21.1775   10.1308   52.0149 C   0  0  0  0  0  0  0  0  0  0  0  0
   21.6167    9.8330   53.4266 C   0  0  0  0  0  0  0  0  0  0  0  0
   21.7879    8.4059   53.5561 N   0  0  0  0  0  0  0  0  0  0  0  0
   20.7093    7.5654   53.3735 C   0  0  0  0  0  0  0  0  0  0  0  0
   19.3147    7.9658   52.9622 C   0  0  0  0  0  0  0  0  0  0  0  0
   19.4087    8.7064   51.6181 C   0  0  0  0  0  0  0  0  0  0  0  0
   20.7598    8.9772   51.3499 O   0  0  0  0  0  0  0  0  0  0  0  0
   21.0969    6.2737   53.6011 C   0  0  0  0  0  0  0  0  0  0  0  0
   22.3913    6.3726   53.9097 N   0  0  0  0  0  0  0  0  0  0  0  0
   22.8206    7.6754   53.8827 C   0  0  0  0  0  0  0  0  0  0  0  0
   24.1681    8.0794   54.2223 C   0  0  0  0  0  0  0  0  0  0  0  0
   24.5901    8.5746   55.4082 C   0  0  0  0  0  0  0  0  0  0  0  0
   25.9396    8.8455   55.5993 C   0  0  0  0  0  0  0  0  0  0  0  0
   26.8709    8.6287   54.6188 C   0  0  0  0  0  0  0  0  0  0  0  0
   28.2009    8.8961   54.8090 F   0  0  0  0  0  0  0  0  0  0  0  0
   26.4641    8.1275   53.4053 C   0  0  0  0  0  0  0  0  0  0  0  0
   25.1265    7.8667   53.2391 C   0  0  0  0  0  0  0  0  0  0  0  0
   20.2976    5.0457   53.5180 C   0  0  0  0  0  0  0  0  0  0  0  0
   18.9681    5.0383   53.9483 C   0  0  0  0  0  0  0  0  0  0  0  0
   18.2029    3.8986   53.8478 C   0  0  0  0  0  0  0  0  0  0  0  0
   16.7924    3.9303   54.3165 C   0  0  0  0  0  0  0  0  0  0  0  0
   18.7346    2.7710   53.3291 N   0  0  0  0  0  0  0  0  0  0  0  0
   20.0011    2.7244   52.9025 C   0  0  0  0  0  0  0  0  0  0  0  0
   20.7672    3.8665   53.0033 C   0  0  0  0  0  0  0  0  0  0  0  0
   20.6180    1.5005   52.3265 C   0  0  0  0  0  0  0  0  0  0  0  0
   21.9562    1.5029   52.6954 F   0  0  0  0  0  0  0  0  0  0  0  0
  1  2  1  0  0  0
  2  3  1  0  0  0
  3  4  1  0  0  0
  4  5  1  0  0  0
  5  6  1  0  0  0
  6  7  1  0  0  0
  7  8  1  0  0  0
  5  9  2  0  0  0
  9 10  1  0  0  0
 10 11  2  0  0  0
 11 12  1  0  0  0
 12 13  2  0  0  0
 13 14  1  0  0  0
 14 15  2  0  0  0
 15 16  1  0  0  0
 15 17  1  0  0  0
 17 18  2  0  0  0
  9 19  1  0  0  0
 19 20  2  0  0  0
 20 21  1  0  0  0
 21 22  1  0  0  0
 21 23  2  0  0  0
 23 24  1  0  0  0
 24 26  1  0  0  0
 26 27  1  0  0  0
 24 25  2  0  0  0
  8  2  1  0  0  0
 18 12  1  0  0  0
 25 19  1  0  0  0
 11  4  1  0  0  0
M  END
> <minimizedAffinity>
28.38326

> <CNNscore>
0.4597490132

> <CNNaffinity>
6.5524458885

> <CNN_VS>
3.0124804974

> <CNNaffinity_variance>
0.6919319034

$$$$
[H]c1c([H])c(-c2nc(-c3c([H])c(C([H])([H])[H])nc(C([H])([H])F)c3[H])c3n2C([H])([H])[C@@]([H])(C([H])([H])[H])OC([H])([H])C3([H])[H])c([H])c([H])c1F


 27 30  0  0  0  0  0  0  0  0999 V2000
   20.6683    6.7579   51.9779 C   0  0  0  0  0  0  0  0  0  0  0  0
   21.4233    6.6923   53.2774 C   0  0  0  0  0  0  0  0  0  0  0  0
   21.2432    7.9195   54.1355 C   0  0  0  0  0  0  0  0  0  0  0  0
   22.4935    8.6395   54.1643 N   0  0  0  0  0  0  0  0  0  0  0  0
   23.6182    8.0417   54.6945 C   0  0  0  0  0  0  0  0  0  0  0  0
   23.7294    6.6285   55.2093 C   0  0  0  0  0  0  0  0  0  0  0  0
   23.3335    5.6742   54.0707 C   0  0  0  0  0  0  0  0  0  0  0  0
   22.7711    6.4292   53.0293 O   0  0  0  0  0  0  0  0  0  0  0  0
   24.6592    8.9282   54.6664 C   0  0  0  0  0  0  0  0  0  0  0  0
   24.1353   10.0273   54.1206 N   0  0  0  0  0  0  0  0  0  0  0  0
   22.8100    9.8565   53.8099 C   0  0  0  0  0  0  0  0  0  0  0  0
   21.9799   10.9012   53.2497 C   0  0  0  0  0  0  0  0  0  0  0  0
   21.2392   11.8016   53.9356 C   0  0  0  0  0  0  0  0  0  0  0  0
   20.5525   12.7944   53.2470 C   0  0  0  0  0  0  0  0  0  0  0  0
   20.5966   12.8961   51.8819 C   0  0  0  0  0  0  0  0  0  0  0  0
   19.9193   13.8755   51.2048 F   0  0  0  0  0  0  0  0  0  0  0  0
   21.3418   11.9907   51.1648 C   0  0  0  0  0  0  0  0  0  0  0  0
   22.0122   11.0191   51.8657 C   0  0  0  0  0  0  0  0  0  0  0  0
   26.0436    8.7350   55.1136 C   0  0  0  0  0  0  0  0  0  0  0  0
   26.4313    9.1246   56.3983 C   0  0  0  0  0  0  0  0  0  0  0  0
   27.7205    8.9213   56.8357 C   0  0  0  0  0  0  0  0  0  0  0  0
   28.0947    9.3496   58.2093 C   0  0  0  0  0  0  0  0  0  0  0  0
   28.6268    8.3398   56.0211 N   0  0  0  0  0  0  0  0  0  0  0  0
   28.3079    7.9482   54.7830 C   0  0  0  0  0  0  0  0  0  0  0  0
   27.0162    8.1521   54.3454 C   0  0  0  0  0  0  0  0  0  0  0  0
   29.2803    7.3053   53.8602 C   0  0  0  0  0  0  0  0  0  0  0  0
   28.7119    6.1143   53.4297 F   0  0  0  0  0  0  0  0  0  0  0  0
  1  2  1  0  0  0
  2  3  1  0  0  0
  3  4  1  0  0  0
  4  5  1  0  0  0
  5  6  1  0  0  0
  6  7  1  0  0  0
  7  8  1  0  0  0
  5  9  2  0  0  0
  9 10  1  0  0  0
 10 11  2  0  0  0
 11 12  1  0  0  0
 12 13  2  0  0  0
 13 14  1  0  0  0
 14 15  2  0  0  0
 15 16  1  0  0  0
 15 17  1  0  0  0
 17 18  2  0  0  0
  9 19  1  0  0  0
 19 20  2  0  0  0
 20 21  1  0  0  0
 21 22  1  0  0  0
 21 23  2  0  0  0
 23 24  1  0  0  0
 24 26  1  0  0  0
 26 27  1  0  0  0
 24 25  2  0  0  0
  8  2  1  0  0  0
 18 12  1  0  0  0
 25 19  1  0  0  0
 11  4  1  0  0  0
M  END
> <minimizedAffinity>
28.36872

> <CNNscore>
0.4569031000

> <CNNaffinity>
5.6388835907

> <CNN_VS>
2.5764234066

> <CNNaffinity_variance>
0.2121941298

$$$$
[H]c1c([H])c(-c2nc(-c3c([H])c(C([H])([H])[H])nc(C([H])([H])F)c3[H])c3n2C([H])([H])[C@@]([H])(C([H])([H])[H])OC([H])([H])C3([H])[H])c([H])c([H])c1F


 27 30  0  0  0  0  0  0  0  0999 V2000
   20.3714    6.8681   52.0362 C   0  0  0  0  0  0  0  0  0  0  0  0
   21.1132    6.8606   53.3449 C   0  0  0  0  0  0  0  0  0  0  0  0
   21.0007    8.1596   54.1028 C   0  0  0  0  0  0  0  0  0  0  0  0
   22.2912    8.8054   54.0889 N   0  0  0  0  0  0  0  0  0  0  0  0
   23.3753    8.1863   54.6761 C   0  0  0  0  0  0  0  0  0  0  0  0
   23.3997    6.8138   55.3005 C   0  0  0  0  0  0  0  0  0  0  0  0
   22.9550    5.7979   54.2354 C   0  0  0  0  0  0  0  0  0  0  0  0
   22.4446    6.5005   53.1325 O   0  0  0  0  0  0  0  0  0  0  0  0
   24.4671    9.0055   54.5901 C   0  0  0  0  0  0  0  0  0  0  0  0
   24.0123   10.0872   53.9548 N   0  0  0  0  0  0  0  0  0  0  0  0
   22.6812    9.9703   53.6441 C   0  0  0  0  0  0  0  0  0  0  0  0
   21.9177   11.0146   52.9955 C   0  0  0  0  0  0  0  0  0  0  0  0
   21.3762   12.1058   53.5836 C   0  0  0  0  0  0  0  0  0  0  0  0
   20.7325   13.0591   52.8040 C   0  0  0  0  0  0  0  0  0  0  0  0
   20.6227   12.9334   51.4446 C   0  0  0  0  0  0  0  0  0  0  0  0
   19.9879   13.8743   50.6776 F   0  0  0  0  0  0  0  0  0  0  0  0
   21.1641   11.8317   50.8262 C   0  0  0  0  0  0  0  0  0  0  0  0
   21.7958   10.9032   51.6159 C   0  0  0  0  0  0  0  0  0  0  0  0
   25.8348    8.7674   55.0658 C   0  0  0  0  0  0  0  0  0  0  0  0
   26.7545    8.0904   54.2606 C   0  0  0  0  0  0  0  0  0  0  0  0
   28.0473    7.8876   54.6873 C   0  0  0  0  0  0  0  0  0  0  0  0
   28.9964    7.1628   53.8019 C   0  0  0  0  0  0  0  0  0  0  0  0
   28.4396    8.3446   55.8959 N   0  0  0  0  0  0  0  0  0  0  0  0
   27.5997    8.9986   56.7051 C   0  0  0  0  0  0  0  0  0  0  0  0
   26.3047    9.2015   56.2769 C   0  0  0  0  0  0  0  0  0  0  0  0
   27.9981    9.5148   58.0411 C   0  0  0  0  0  0  0  0  0  0  0  0
   28.5491    8.4522   58.7441 F   0  0  0  0  0  0  0  0  0  0  0  0
  1  2  1  0  0  0
  2  3  1  0  0  0
  3  4  1  0  0  0
  4  5  1  0  0  0
  5  6  1  0  0  0
  6  7  1  0  0  0
  7  8  1  0  0  0
  5  9  2  0  0  0
  9 10  1  0  0  0
 10 11  2  0  0  0
 11 12  1  0  0  0
 12 13  2  0  0  0
 13 14  1  0  0  0
 14 15  2  0  0  0
 15 16  1  0  0  0
 15 17  1  0  0  0
 17 18  2  0  0  0
  9 19  1  0  0  0
 19 20  2  0  0  0
 20 21  1  0  0  0
 21 22  1  0  0  0
 21 23  2  0  0  0
 23 24  1  0  0  0
 24 26  1  0  0  0
 26 27  1  0  0  0
 24 25  2  0  0  0
  8  2  1  0  0  0
 18 12  1  0  0  0
 25 19  1  0  0  0
 11  4  1  0  0  0
M  END
> <minimizedAffinity>
26.07108

> <CNNscore>
0.4545726478

> <CNNaffinity>
5.6003575325

> <CNN_VS>
2.5457694530

> <CNNaffinity_variance>
0.1601379663

$$$$
[H]c1c([H])c(-c2nc(-c3c([H])c(C([H])([H])[H])nc(C([H])([H])F)c3[H])c3n2C([H])([H])[C@@]([H])(C([H])([H])[H])OC([H])([H])C3([H])[H])c([H])c([H])c1F


 27 30  0  0  0  0  0  0  0  0999 V2000
   25.1358    8.7870   55.1808 C   0  0  0  0  0  0  0  0  0  0  0  0
   24.6938    7.6183   54.3431 C   0  0  0  0  0  0  0  0  0  0  0  0
   24.0631    8.0255   53.0351 C   0  0  0  0  0  0  0  0  0  0  0  0
   22.6549    7.7157   53.0953 N   0  0  0  0  0  0  0  0  0  0  0  0
   22.2457    6.4077   53.2532 C   0  0  0  0  0  0  0  0  0  0  0  0
   23.1322    5.2044   53.4546 C   0  0  0  0  0  0  0  0  0  0  0  0
   23.9941    5.4515   54.7037 C   0  0  0  0  0  0  0  0  0  0  0  0
   23.8499    6.7938   55.0885 O   0  0  0  0  0  0  0  0  0  0  0  0
   20.8794    6.3532   53.2251 C   0  0  0  0  0  0  0  0  0  0  0  0
   20.5071    7.6232   53.0548 N   0  0  0  0  0  0  0  0  0  0  0  0
   21.5896    8.4624   52.9758 C   0  0  0  0  0  0  0  0  0  0  0  0
   21.4806    9.8868   52.7448 C   0  0  0  0  0  0  0  0  0  0  0  0
   21.5386   10.8648   53.6775 C   0  0  0  0  0  0  0  0  0  0  0  0
   21.4924   12.1962   53.2817 C   0  0  0  0  0  0  0  0  0  0  0  0
   21.3874   12.5605   51.9657 C   0  0  0  0  0  0  0  0  0  0  0  0
   21.3422   13.8734   51.5774 F   0  0  0  0  0  0  0  0  0  0  0  0
   21.3253   11.5830   51.0013 C   0  0  0  0  0  0  0  0  0  0  0  0
   21.3732   10.2749   51.4151 C   0  0  0  0  0  0  0  0  0  0  0  0
   20.0029    5.1841   53.3622 C   0  0  0  0  0  0  0  0  0  0  0  0
   18.7128    5.3259   53.8799 C   0  0  0  0  0  0  0  0  0  0  0  0
   17.8742    4.2395   53.9856 C   0  0  0  0  0  0  0  0  0  0  0  0
   16.5087    4.4307   54.5416 C   0  0  0  0  0  0  0  0  0  0  0  0
   18.2947    3.0199   53.5871 N   0  0  0  0  0  0  0  0  0  0  0  0
   19.5191    2.8295   53.0846 C   0  0  0  0  0  0  0  0  0  0  0  0
   20.3587    3.9183   52.9789 C   0  0  0  0  0  0  0  0  0  0  0  0
   20.0141    1.5012   52.6365 C   0  0  0  0  0  0  0  0  0  0  0  0
   21.4011    1.5565   52.6428 F   0  0  0  0  0  0  0  0  0  0  0  0
  1  2  1  0  0  0
  2  3  1  0  0  0
  3  4  1  0  0  0
  4  5  1  0  0  0
  5  6  1  0  0  0
  6  7  1  0  0  0
  7  8  1  0  0  0
  5  9  2  0  0  0
  9 10  1  0  0  0
 10 11  2  0  0  0
 11 12  1  0  0  0
 12 13  2  0  0  0
 13 14  1  0  0  0
 14 15  2  0  0  0
 15 16  1  0  0  0
 15 17  1  0  0  0
 17 18  2  0  0  0
  9 19  1  0  0  0
 19 20  2  0  0  0
 20 21  1  0  0  0
 21 22  1  0  0  0
 21 23  2  0  0  0
 23 24  1  0  0  0
 24 26  1  0  0  0
 26 27  1  0  0  0
 24 25  2  0  0  0
  8  2  1  0  0  0
 18 12  1  0  0  0
 25 19  1  0  0  0
 11  4  1  0  0  0
M  END
> <minimizedAffinity>
23.49838

> <CNNscore>
0.4509251714

> <CNNaffinity>
6.1906175613

> <CNN_VS>
2.7915053368

> <CNNaffinity_variance>
0.2976785600

$$$$
[H]c1c([H])c(-c2nc(-c3c([H])c(C([H])([H])[H])nc(C([H])([H])F)c3[H])c3n2C([H])([H])[C@@]([H])(C([H])([H])[H])OC([H])([H])C3([H])[H])c([H])c([H])c1F


 27 30  0  0  0  0  0  0  0  0999 V2000
   22.2613   10.9454   51.3233 C   0  0  0  0  0  0  0  0  0  0  0  0
   21.2210   10.2087   52.1220 C   0  0  0  0  0  0  0  0  0  0  0  0
   21.6668    9.8806   53.5250 C   0  0  0  0  0  0  0  0  0  0  0  0
   21.8523    8.4525   53.6189 N   0  0  0  0  0  0  0  0  0  0  0  0
   20.7815    7.6062   53.4183 C   0  0  0  0  0  0  0  0  0  0  0  0
   19.3820    8.0028   53.0202 C   0  0  0  0  0  0  0  0  0  0  0  0
   19.4653    8.7772   51.6945 C   0  0  0  0  0  0  0  0  0  0  0  0
   20.8130    9.0677   51.4299 O   0  0  0  0  0  0  0  0  0  0  0  0
   21.1823    6.3132   53.6130 C   0  0  0  0  0  0  0  0  0  0  0  0
   22.4765    6.4172   53.9210 N   0  0  0  0  0  0  0  0  0  0  0  0
   22.8930    7.7244   53.9251 C   0  0  0  0  0  0  0  0  0  0  0  0
   24.2373    8.1332   54.2714 C   0  0  0  0  0  0  0  0  0  0  0  0
   24.6369    8.7010   55.4323 C   0  0  0  0  0  0  0  0  0  0  0  0
   25.9851    8.9670   55.6393 C   0  0  0  0  0  0  0  0  0  0  0  0
   26.9371    8.6737   54.6994 C   0  0  0  0  0  0  0  0  0  0  0  0
   28.2656    8.9366   54.9053 F   0  0  0  0  0  0  0  0  0  0  0  0
   26.5531    8.0980   53.5118 C   0  0  0  0  0  0  0  0  0  0  0  0
   25.2164    7.8436   53.3292 C   0  0  0  0  0  0  0  0  0  0  0  0
   20.3948    5.0798   53.5016 C   0  0  0  0  0  0  0  0  0  0  0  0
   20.9894    3.9017   53.0418 C   0  0  0  0  0  0  0  0  0  0  0  0
   20.2654    2.7339   52.9610 C   0  0  0  0  0  0  0  0  0  0  0  0
   20.9334    1.5011   52.4668 C   0  0  0  0  0  0  0  0  0  0  0  0
   18.9661    2.7173   53.3279 N   0  0  0  0  0  0  0  0  0  0  0  0
   18.3493    3.8164   53.7749 C   0  0  0  0  0  0  0  0  0  0  0  0
   19.0751    4.9861   53.8557 C   0  0  0  0  0  0  0  0  0  0  0  0
   16.9209    3.8336   54.1868 C   0  0  0  0  0  0  0  0  0  0  0  0
   16.5085    5.1590   54.1830 F   0  0  0  0  0  0  0  0  0  0  0  0
  1  2  1  0  0  0
  2  3  1  0  0  0
  3  4  1  0  0  0
  4  5  1  0  0  0
  5  6  1  0  0  0
  6  7  1  0  0  0
  7  8  1  0  0  0
  5  9  2  0  0  0
  9 10  1  0  0  0
 10 11  2  0  0  0
 11 12  1  0  0  0
 12 13  2  0  0  0
 13 14  1  0  0  0
 14 15  2  0  0  0
 15 16  1  0  0  0
 15 17  1  0  0  0
 17 18  2  0  0  0
  9 19  1  0  0  0
 19 20  2  0  0  0
 20 21  1  0  0  0
 21 22  1  0  0  0
 21 23  2  0  0  0
 23 24  1  0  0  0
 24 26  1  0  0  0
 26 27  1  0  0  0
 24 25  2  0  0  0
  8  2  1  0  0  0
 18 12  1  0  0  0
 25 19  1  0  0  0
 11  4  1  0  0  0
M  END
> <minimizedAffinity>
26.27633

> <CNNscore>
0.4487381876

> <CNNaffinity>
6.5069212914

> <CNN_VS>
2.9199039936

> <CNNaffinity_variance>
0.6223535538

$$$$
[H]c1c([H])c(-c2nc(-c3c([H])c(C([H])([H])[H])nc(C(F)(F)F)c3[H])c3n2C([H])([H])[C@@]([H])(C([H])([H])[H])OC([H])([H])C3([H])[H])c([H])c([H])c1F


 29 32  0  0  0  0  0  0  0  0999 V2000
   20.2484   11.3009   52.8518 C   0  0  0  0  0  0  0  0  0  0  0  0
   21.5186   10.9030   53.5219 C   0  0  0  0  0  0  0  0  0  0  0  0
   21.1670    9.7386   54.5025 C   0  0  0  0  0  0  0  0  0  0  0  0
   22.4022    8.9812   54.6493 N   0  0  0  0  0  0  0  0  0  0  0  0
   23.6200    9.4646   55.0236 C   0  0  0  0  0  0  0  0  0  0  0  0
   23.8726   10.8577   55.4290 C   0  0  0  0  0  0  0  0  0  0  0  0
   23.4616   11.8149   54.3225 C   0  0  0  0  0  0  0  0  0  0  0  0
   22.0666   11.9182   54.2785 O   0  0  0  0  0  0  0  0  0  0  0  0
   24.5695    8.4787   54.9709 C   0  0  0  0  0  0  0  0  0  0  0  0
   23.9050    7.3849   54.5567 N   0  0  0  0  0  0  0  0  0  0  0  0
   22.5733    7.6802   54.3603 C   0  0  0  0  0  0  0  0  0  0  0  0
   21.6835    6.6582   53.8788 C   0  0  0  0  0  0  0  0  0  0  0  0
   22.1151    5.3283   53.8900 C   0  0  0  0  0  0  0  0  0  0  0  0
   21.2796    4.3034   53.5073 C   0  0  0  0  0  0  0  0  0  0  0  0
   19.9954    4.5902   53.1071 C   0  0  0  0  0  0  0  0  0  0  0  0
   19.1553    3.5839   52.7157 F   0  0  0  0  0  0  0  0  0  0  0  0
   19.5476    5.8882   53.0889 C   0  0  0  0  0  0  0  0  0  0  0  0
   20.4079    6.9236   53.4814 C   0  0  0  0  0  0  0  0  0  0  0  0
   25.9904    8.5745   55.2973 C   0  0  0  0  0  0  0  0  0  0  0  0
   26.9717    8.2563   54.4005 C   0  0  0  0  0  0  0  0  0  0  0  0
   28.3284    8.3445   54.7113 C   0  0  0  0  0  0  0  0  0  0  0  0
   29.3789    7.9845   53.6993 C   0  0  0  0  0  0  0  0  0  0  0  0
   28.6405    8.7614   55.9497 N   0  0  0  0  0  0  0  0  0  0  0  0
   27.7522    9.0917   56.8857 C   0  0  0  0  0  0  0  0  0  0  0  0
   26.4121    8.9939   56.5481 C   0  0  0  0  0  0  0  0  0  0  0  0
   28.1584    9.5470   58.2564 C   0  0  0  0  0  0  0  0  0  0  0  0
   27.0373    9.3783   59.0791 F   0  0  0  0  0  0  0  0  0  0  0  0
   28.5229   10.8533   58.3004 F   0  0  0  0  0  0  0  0  0  0  0  0
   29.1186    8.7034   58.7598 F   0  0  0  0  0  0  0  0  0  0  0  0
  1  2  1  0  0  0
  2  3  1  0  0  0
  3  4  1  0  0  0
  4  5  1  0  0  0
  5  6  1  0  0  0
  6  7  1  0  0  0
  7  8  1  0  0  0
  5  9  2  0  0  0
  9 10  1  0  0  0
 10 11  2  0  0  0
 11 12  1  0  0  0
 12 13  2  0  0  0
 13 14  1  0  0  0
 14 15  2  0  0  0
 15 16  1  0  0  0
 15 17  1  0  0  0
 17 18  2  0  0  0
  9 19  1  0  0  0
 19 20  2  0  0  0
 20 21  1  0  0  0
 21 22  1  0  0  0
 21 23  2  0  0  0
 23 24  1  0  0  0
 24 25  2  0  0  0
 24 26  1  0  0  0
 26 27  1  0  0  0
 26 28  1  0  0  0
 26 29  1  0  0  0
  8  2  1  0  0  0
 18 12  1  0  0  0
 25 19  1  0  0  0
 11  4  1  0  0  0
M  END
> <minimizedAffinity>
34.98857

> <CNNscore>
0.4721970260

> <CNNaffinity>
6.1545972824

> <CNN_VS>
2.9061825275

> <CNNaffinity_variance>
0.4333902299

$$$$
[H]c1c([H])c(-c2nc(-c3c([H])c(C([H])([H])[H])nc(C(F)(F)F)c3[H])c3n2C([H])([H])[C@@]([H])(C([H])([H])[H])OC([H])([H])C3([H])[H])c([H])c([H])c1F


 29 32  0  0  0  0  0  0  0  0999 V2000
   19.8269    6.1474   53.5103 C   0  0  0  0  0  0  0  0  0  0  0  0
   21.2736    6.4697   53.6649 C   0  0  0  0  0  0  0  0  0  0  0  0
   21.5704    7.6800   52.7224 C   0  0  0  0  0  0  0  0  0  0  0  0
   22.7183    8.3505   53.3171 N   0  0  0  0  0  0  0  0  0  0  0  0
   23.9183    7.7906   53.6382 C   0  0  0  0  0  0  0  0  0  0  0  0
   24.2865    6.3933   53.3536 C   0  0  0  0  0  0  0  0  0  0  0  0
   23.2931    5.4412   53.9985 C   0  0  0  0  0  0  0  0  0  0  0  0
   22.0984    5.4368   53.2697 O   0  0  0  0  0  0  0  0  0  0  0  0
   24.7289    8.7045   54.2579 C   0  0  0  0  0  0  0  0  0  0  0  0
   23.9978    9.8326   54.3078 N   0  0  0  0  0  0  0  0  0  0  0  0
   22.7636    9.6285   53.7296 C   0  0  0  0  0  0  0  0  0  0  0  0
   21.8041   10.6994   53.7088 C   0  0  0  0  0  0  0  0  0  0  0  0
   21.0114   10.9166   54.8400 C   0  0  0  0  0  0  0  0  0  0  0  0
   20.1277   11.9704   54.9008 C   0  0  0  0  0  0  0  0  0  0  0  0
   20.0215   12.8277   53.8306 C   0  0  0  0  0  0  0  0  0  0  0  0
   19.1420   13.8747   53.8719 F   0  0  0  0  0  0  0  0  0  0  0  0
   20.7902   12.6362   52.7089 C   0  0  0  0  0  0  0  0  0  0  0  0
   21.6871   11.5596   52.6590 C   0  0  0  0  0  0  0  0  0  0  0  0
   26.0906    8.5154   54.7527 C   0  0  0  0  0  0  0  0  0  0  0  0
   27.0508    7.8673   54.0270 C   0  0  0  0  0  0  0  0  0  0  0  0
   28.3502    7.6834   54.4989 C   0  0  0  0  0  0  0  0  0  0  0  0
   29.3786    6.9641   53.6728 C   0  0  0  0  0  0  0  0  0  0  0  0
   28.6278    8.1761   55.7175 N   0  0  0  0  0  0  0  0  0  0  0  0
   27.7564    8.8198   56.4925 C   0  0  0  0  0  0  0  0  0  0  0  0
   26.4733    8.9872   55.9973 C   0  0  0  0  0  0  0  0  0  0  0  0
   28.1208    9.3453   57.8497 C   0  0  0  0  0  0  0  0  0  0  0  0
   26.9623    9.2601   58.6324 F   0  0  0  0  0  0  0  0  0  0  0  0
   28.5249   10.6406   57.8313 F   0  0  0  0  0  0  0  0  0  0  0  0
   29.0321    8.5059   58.4428 F   0  0  0  0  0  0  0  0  0  0  0  0
  1  2  1  0  0  0
  2  3  1  0  0  0
  3  4  1  0  0  0
  4  5  1  0  0  0
  5  6  1  0  0  0
  6  7  1  0  0  0
  7  8  1  0  0  0
  5  9  2  0  0  0
  9 10  1  0  0  0
 10 11  2  0  0  0
 11 12  1  0  0  0
 12 13  2  0  0  0
 13 14  1  0  0  0
 14 15  2  0  0  0
 15 16  1  0  0  0
 15 17  1  0  0  0
 17 18  2  0  0  0
  9 19  1  0  0  0
 19 20  2  0  0  0
 20 21  1  0  0  0
 21 22  1  0  0  0
 21 23  2  0  0  0
 23 24  1  0  0  0
 24 25  2  0  0  0
 24 26  1  0  0  0
 26 27  1  0  0  0
 26 28  1  0  0  0
 26 29  1  0  0  0
  8  2  1  0  0  0
 18 12  1  0  0  0
 25 19  1  0  0  0
 11  4  1  0  0  0
M  END
> <minimizedAffinity>
29.85023

> <CNNscore>
0.4720382392

> <CNNaffinity>
5.9318485260

> <CNN_VS>
2.8000593185

> <CNNaffinity_variance>
0.2504487634

$$$$
[H]c1c([H])c(-c2nc(-c3c([H])c(C([H])([H])[H])nc(C(F)(F)F)c3[H])c3n2C([H])([H])[C@@]([H])(C([H])([H])[H])OC([H])([H])C3([H])[H])c([H])c([H])c1F


 29 32  0  0  0  0  0  0  0  0999 V2000
   19.1793    9.5597   53.2684 C   0  0  0  0  0  0  0  0  0  0  0  0
   20.5842    9.4807   53.7594 C   0  0  0  0  0  0  0  0  0  0  0  0
   20.6647    8.2366   54.7010 C   0  0  0  0  0  0  0  0  0  0  0  0
   22.0585    7.8167   54.6552 N   0  0  0  0  0  0  0  0  0  0  0  0
   23.1543    8.5845   54.9132 C   0  0  0  0  0  0  0  0  0  0  0  0
   23.1002    9.9833   55.3710 C   0  0  0  0  0  0  0  0  0  0  0  0
   22.3235   10.8356   54.3813 C   0  0  0  0  0  0  0  0  0  0  0  0
   20.9534   10.5795   54.5075 O   0  0  0  0  0  0  0  0  0  0  0  0
   24.3054    7.8766   54.6891 C   0  0  0  0  0  0  0  0  0  0  0  0
   23.8882    6.6619   54.2893 N   0  0  0  0  0  0  0  0  0  0  0  0
   22.5111    6.6121   54.2688 C   0  0  0  0  0  0  0  0  0  0  0  0
   21.8511    5.4110   53.8331 C   0  0  0  0  0  0  0  0  0  0  0  0
   20.4772    5.4517   53.5763 C   0  0  0  0  0  0  0  0  0  0  0  0
   19.8090    4.3509   53.0898 C   0  0  0  0  0  0  0  0  0  0  0  0
   20.5037    3.1884   52.8498 C   0  0  0  0  0  0  0  0  0  0  0  0
   19.8528    2.0831   52.3743 F   0  0  0  0  0  0  0  0  0  0  0  0
   21.8538    3.1240   53.0926 C   0  0  0  0  0  0  0  0  0  0  0  0
   22.5234    4.2520   53.5877 C   0  0  0  0  0  0  0  0  0  0  0  0
   25.6869    8.3234   54.8521 C   0  0  0  0  0  0  0  0  0  0  0  0
   26.5530    8.4265   53.7996 C   0  0  0  0  0  0  0  0  0  0  0  0
   27.8727    8.8501   53.9537 C   0  0  0  0  0  0  0  0  0  0  0  0
   28.7962    8.9494   52.7727 C   0  0  0  0  0  0  0  0  0  0  0  0
   28.2686    9.1582   55.1999 N   0  0  0  0  0  0  0  0  0  0  0  0
   27.4945    9.0874   56.2816 C   0  0  0  0  0  0  0  0  0  0  0  0
   26.1884    8.6632   56.0975 C   0  0  0  0  0  0  0  0  0  0  0  0
   27.9921    9.4398   57.6524 C   0  0  0  0  0  0  0  0  0  0  0  0
   26.8921    9.3339   58.5133 F   0  0  0  0  0  0  0  0  0  0  0  0
   28.4758   10.7047   57.7374 F   0  0  0  0  0  0  0  0  0  0  0  0
   28.8894    8.4909   58.0783 F   0  0  0  0  0  0  0  0  0  0  0  0
  1  2  1  0  0  0
  2  3  1  0  0  0
  3  4  1  0  0  0
  4  5  1  0  0  0
  5  6  1  0  0  0
  6  7  1  0  0  0
  7  8  1  0  0  0
  5  9  2  0  0  0
  9 10  1  0  0  0
 10 11  2  0  0  0
 11 12  1  0  0  0
 12 13  2  0  0  0
 13 14  1  0  0  0
 14 15  2  0  0  0
 15 16  1  0  0  0
 15 17  1  0  0  0
 17 18  2  0  0  0
  9 19  1  0  0  0
 19 20  2  0  0  0
 20 21  1  0  0  0
 21 22  1  0  0  0
 21 23  2  0  0  0
 23 24  1  0  0  0
 24 25  2  0  0  0
 24 26  1  0  0  0
 26 27  1  0  0  0
 26 28  1  0  0  0
 26 29  1  0  0  0
  8  2  1  0  0  0
 18 12  1  0  0  0
 25 19  1  0  0  0
 11  4  1  0  0  0
M  END
> <minimizedAffinity>
41.15480

> <CNNscore>
0.4639108777

> <CNNaffinity>
6.0227761269

> <CNN_VS>
2.7940313816

> <CNNaffinity_variance>
0.3772953749

$$$$
[H]c1c([H])c(-c2nc(-c3c([H])c(C([H])([H])[H])nc(C(F)(F)F)c3[H])c3n2C([H])([H])[C@@]([H])(C([H])([H])[H])OC([H])([H])C3([H])[H])c([H])c([H])c1F


 29 32  0  0  0  0  0  0  0  0999 V2000
   26.0446    8.4223   53.9102 C   0  0  0  0  0  0  0  0  0  0  0  0
   24.8072    7.5983   54.0131 C   0  0  0  0  0  0  0  0  0  0  0  0
   23.6821    8.5378   54.5541 C   0  0  0  0  0  0  0  0  0  0  0  0
   22.4379    7.9566   54.0694 N   0  0  0  0  0  0  0  0  0  0  0  0
   22.0083    6.6757   54.2467 C   0  0  0  0  0  0  0  0  0  0  0  0
   22.7174    5.6646   55.0492 C   0  0  0  0  0  0  0  0  0  0  0  0
   24.1318    5.4710   54.5286 C   0  0  0  0  0  0  0  0  0  0  0  0
   24.9299    6.5560   54.9085 O   0  0  0  0  0  0  0  0  0  0  0  0
   20.8314    6.4626   53.5788 C   0  0  0  0  0  0  0  0  0  0  0  0
   20.5532    7.6401   52.9909 N   0  0  0  0  0  0  0  0  0  0  0  0
   21.5299    8.5657   53.2885 C   0  0  0  0  0  0  0  0  0  0  0  0
   21.4484    9.8878   52.7286 C   0  0  0  0  0  0  0  0  0  0  0  0
   21.6291   10.9892   53.5710 C   0  0  0  0  0  0  0  0  0  0  0  0
   21.6317   12.2737   53.0760 C   0  0  0  0  0  0  0  0  0  0  0  0
   21.4549   12.4802   51.7277 C   0  0  0  0  0  0  0  0  0  0  0  0
   21.4466   13.7509   51.2212 F   0  0  0  0  0  0  0  0  0  0  0  0
   21.2771   11.4147   50.8798 C   0  0  0  0  0  0  0  0  0  0  0  0
   21.2767   10.1110   51.3958 C   0  0  0  0  0  0  0  0  0  0  0  0
   20.0373    5.2378   53.5161 C   0  0  0  0  0  0  0  0  0  0  0  0
   20.5615    4.0445   53.1043 C   0  0  0  0  0  0  0  0  0  0  0  0
   19.8043    2.8751   53.0410 C   0  0  0  0  0  0  0  0  0  0  0  0
   20.4153    1.5817   52.5815 C   0  0  0  0  0  0  0  0  0  0  0  0
   18.5149    2.9677   53.4064 N   0  0  0  0  0  0  0  0  0  0  0  0
   17.9215    4.0864   53.8198 C   0  0  0  0  0  0  0  0  0  0  0  0
   18.6989    5.2321   53.8720 C   0  0  0  0  0  0  0  0  0  0  0  0
   16.4740    4.1327   54.2116 C   0  0  0  0  0  0  0  0  0  0  0  0
   16.4190    3.7896   55.5686 F   0  0  0  0  0  0  0  0  0  0  0  0
   15.7043    3.2537   53.5214 F   0  0  0  0  0  0  0  0  0  0  0  0
   16.0141    5.4249   54.1364 F   0  0  0  0  0  0  0  0  0  0  0  0
  1  2  1  0  0  0
  2  3  1  0  0  0
  3  4  1  0  0  0
  4  5  1  0  0  0
  5  6  1  0  0  0
  6  7  1  0  0  0
  7  8  1  0  0  0
  5  9  2  0  0  0
  9 10  1  0  0  0
 10 11  2  0  0  0
 11 12  1  0  0  0
 12 13  2  0  0  0
 13 14  1  0  0  0
 14 15  2  0  0  0
 15 16  1  0  0  0
 15 17  1  0  0  0
 17 18  2  0  0  0
  9 19  1  0  0  0
 19 20  2  0  0  0
 20 21  1  0  0  0
 21 22  1  0  0  0
 21 23  2  0  0  0
 23 24  1  0  0  0
 24 25  2  0  0  0
 24 26  1  0  0  0
 26 27  1  0  0  0
 26 28  1  0  0  0
 26 29  1  0  0  0
  8  2  1  0  0  0
 18 12  1  0  0  0
 25 19  1  0  0  0
 11  4  1  0  0  0
M  END
> <minimizedAffinity>
19.69655

> <CNNscore>
0.4611599743

> <CNNaffinity>
6.3612232208

> <CNN_VS>
2.9335415363

> <CNNaffinity_variance>
0.3373675048

$$$$
[H]c1c([H])c(-c2nc(-c3c([H])c(C([H])([H])[H])nc(C(F)(F)F)c3[H])c3n2C([H])([H])[C@@]([H])(C([H])([H])[H])OC([H])([H])C3([H])[H])c([H])c([H])c1F


 29 32  0  0  0  0  0  0  0  0999 V2000
   19.8526    9.2509   49.8569 C   0  0  0  0  0  0  0  0  0  0  0  0
   20.6888    9.6215   51.0335 C   0  0  0  0  0  0  0  0  0  0  0  0
   20.0398    8.9416   52.2815 C   0  0  0  0  0  0  0  0  0  0  0  0
   21.1306    8.7751   53.2320 N   0  0  0  0  0  0  0  0  0  0  0  0
   21.9683    9.7446   53.6958 C   0  0  0  0  0  0  0  0  0  0  0  0
   21.8513   11.1741   53.3612 C   0  0  0  0  0  0  0  0  0  0  0  0
   21.9144   11.3733   51.8560 C   0  0  0  0  0  0  0  0  0  0  0  0
   20.7039   10.9798   51.2742 O   0  0  0  0  0  0  0  0  0  0  0  0
   22.9274    9.2062   54.5122 C   0  0  0  0  0  0  0  0  0  0  0  0
   22.6567    7.8887   54.5361 N   0  0  0  0  0  0  0  0  0  0  0  0
   21.5535    7.6130   53.7575 C   0  0  0  0  0  0  0  0  0  0  0  0
   21.1100    6.2529   53.6119 C   0  0  0  0  0  0  0  0  0  0  0  0
   22.0652    5.2323   53.5757 C   0  0  0  0  0  0  0  0  0  0  0  0
   21.6933    3.9086   53.5090 C   0  0  0  0  0  0  0  0  0  0  0  0
   20.3578    3.5810   53.4786 C   0  0  0  0  0  0  0  0  0  0  0  0
   19.9719    2.2707   53.4038 F   0  0  0  0  0  0  0  0  0  0  0  0
   19.4008    4.5652   53.5145 C   0  0  0  0  0  0  0  0  0  0  0  0
   19.7920    5.9100   53.5829 C   0  0  0  0  0  0  0  0  0  0  0  0
   24.0061    9.8962   55.2157 C   0  0  0  0  0  0  0  0  0  0  0  0
   23.9614   11.2335   55.4951 C   0  0  0  0  0  0  0  0  0  0  0  0
   24.9913   11.8944   56.1640 C   0  0  0  0  0  0  0  0  0  0  0  0
   24.9071   13.3665   56.4521 C   0  0  0  0  0  0  0  0  0  0  0  0
   26.0500   11.1527   56.5299 N   0  0  0  0  0  0  0  0  0  0  0  0
   26.1780    9.8469   56.2997 C   0  0  0  0  0  0  0  0  0  0  0  0
   25.1391    9.2178   55.6331 C   0  0  0  0  0  0  0  0  0  0  0  0
   27.3872    9.0687   56.7275 C   0  0  0  0  0  0  0  0  0  0  0  0
   26.9457    8.1411   57.6798 F   0  0  0  0  0  0  0  0  0  0  0  0
   28.3451    9.8402   57.3006 F   0  0  0  0  0  0  0  0  0  0  0  0
   27.8562    8.3235   55.6730 F   0  0  0  0  0  0  0  0  0  0  0  0
  1  2  1  0  0  0
  2  3  1  0  0  0
  3  4  1  0  0  0
  4  5  1  0  0  0
  5  6  1  0  0  0
  6  7  1  0  0  0
  7  8  1  0  0  0
  5  9  2  0  0  0
  9 10  1  0  0  0
 10 11  2  0  0  0
 11 12  1  0  0  0
 12 13  2  0  0  0
 13 14  1  0  0  0
 14 15  2  0  0  0
 15 16  1  0  0  0
 15 17  1  0  0  0
 17 18  2  0  0  0
  9 19  1  0  0  0
 19 20  2  0  0  0
 20 21  1  0  0  0
 21 22  1  0  0  0
 21 23  2  0  0  0
 23 24  1  0  0  0
 24 25  2  0  0  0
 24 26  1  0  0  0
 26 27  1  0  0  0
 26 28  1  0  0  0
 26 29  1  0  0  0
  8  2  1  0  0  0
 18 12  1  0  0  0
 25 19  1  0  0  0
 11  4  1  0  0  0
M  END
> <minimizedAffinity>
56.62795

> <CNNscore>
0.4514584839

> <CNNaffinity>
6.1925969124

> <CNN_VS>
2.7957003117

> <CNNaffinity_variance>
1.1983692646

$$$$
[H]c1c([H])c(-c2nc(-c3c([H])c(C([H])([H])[H])nc(C(F)(F)F)c3[H])c3n2C([H])([H])[C@@]([H])(C([H])([H])[H])OC([H])([H])C3([H])[H])c([H])c([H])c1F


 29 32  0  0  0  0  0  0  0  0999 V2000
   19.5214    6.4986   53.6440 C   0  0  0  0  0  0  0  0  0  0  0  0
   20.9957    6.6757   53.7698 C   0  0  0  0  0  0  0  0  0  0  0  0
   21.4727    7.4229   52.4832 C   0  0  0  0  0  0  0  0  0  0  0  0
   22.6911    8.1163   52.8779 N   0  0  0  0  0  0  0  0  0  0  0  0
   23.7969    7.5663   53.4534 C   0  0  0  0  0  0  0  0  0  0  0  0
   23.9746    6.1258   53.7037 C   0  0  0  0  0  0  0  0  0  0  0  0
   22.8484    5.5962   54.5758 C   0  0  0  0  0  0  0  0  0  0  0  0
   21.6776    5.4774   53.8185 O   0  0  0  0  0  0  0  0  0  0  0  0
   24.7143    8.5351   53.7636 C   0  0  0  0  0  0  0  0  0  0  0  0
   24.1443    9.6866   53.3651 N   0  0  0  0  0  0  0  0  0  0  0  0
   22.9043    9.4415   52.8160 C   0  0  0  0  0  0  0  0  0  0  0  0
   22.1015   10.5427   52.3568 C   0  0  0  0  0  0  0  0  0  0  0  0
   21.9711   11.6693   53.1746 C   0  0  0  0  0  0  0  0  0  0  0  0
   21.2735   12.7793   52.7547 C   0  0  0  0  0  0  0  0  0  0  0  0
   20.6942   12.7832   51.5073 C   0  0  0  0  0  0  0  0  0  0  0  0
   19.9905   13.8751   51.0784 F   0  0  0  0  0  0  0  0  0  0  0  0
   20.8095   11.6894   50.6850 C   0  0  0  0  0  0  0  0  0  0  0  0
   21.5229   10.5648   51.1237 C   0  0  0  0  0  0  0  0  0  0  0  0
   26.0280    8.3707   54.3814 C   0  0  0  0  0  0  0  0  0  0  0  0
   27.0387    7.6739   53.7803 C   0  0  0  0  0  0  0  0  0  0  0  0
   28.2924    7.5135   54.3699 C   0  0  0  0  0  0  0  0  0  0  0  0
   29.3788    6.7390   53.6790 C   0  0  0  0  0  0  0  0  0  0  0  0
   28.4724    8.0802   55.5746 N   0  0  0  0  0  0  0  0  0  0  0  0
   27.5460    8.7753   56.2324 C   0  0  0  0  0  0  0  0  0  0  0  0
   26.3104    8.9176   55.6221 C   0  0  0  0  0  0  0  0  0  0  0  0
   27.8014    9.3830   57.5802 C   0  0  0  0  0  0  0  0  0  0  0  0
   26.6740    9.1014   58.3625 F   0  0  0  0  0  0  0  0  0  0  0  0
   27.9618   10.7298   57.5384 F   0  0  0  0  0  0  0  0  0  0  0  0
   28.8478    8.7353   58.1904 F   0  0  0  0  0  0  0  0  0  0  0  0
  1  2  1  0  0  0
  2  3  1  0  0  0
  3  4  1  0  0  0
  4  5  1  0  0  0
  5  6  1  0  0  0
  6  7  1  0  0  0
  7  8  1  0  0  0
  5  9  2  0  0  0
  9 10  1  0  0  0
 10 11  2  0  0  0
 11 12  1  0  0  0
 12 13  2  0  0  0
 13 14  1  0  0  0
 14 15  2  0  0  0
 15 16  1  0  0  0
 15 17  1  0  0  0
 17 18  2  0  0  0
  9 19  1  0  0  0
 19 20  2  0  0  0
 20 21  1  0  0  0
 21 22  1  0  0  0
 21 23  2  0  0  0
 23 24  1  0  0  0
 24 25  2  0  0  0
 24 26  1  0  0  0
 26 27  1  0  0  0
 26 28  1  0  0  0
 26 29  1  0  0  0
  8  2  1  0  0  0
 18 12  1  0  0  0
 25 19  1  0  0  0
 11  4  1  0  0  0
M  END
> <minimizedAffinity>
28.67646

> <CNNscore>
0.4512886405

> <CNNaffinity>
5.8422646523

> <CNN_VS>
2.6365475655

> <CNNaffinity_variance>
0.1838133633

$$$$
[H]c1c([H])c(-c2nc(-c3c([H])c(C([H])([H])[H])nc(C(F)(F)F)c3[H])c3n2C([H])([H])[C@@]([H])(C([H])([H])[H])OC([H])([H])C3([H])[H])c([H])c([H])c1F


 29 32  0  0  0  0  0  0  0  0999 V2000
   22.3023   12.1946   52.0563 C   0  0  0  0  0  0  0  0  0  0  0  0
   21.7343   10.8195   52.1408 C   0  0  0  0  0  0  0  0  0  0  0  0
   22.9281    9.8260   51.9705 C   0  0  0  0  0  0  0  0  0  0  0  0
   22.5086    8.6095   52.6526 N   0  0  0  0  0  0  0  0  0  0  0  0
   21.3651    7.9011   52.4350 C   0  0  0  0  0  0  0  0  0  0  0  0
   20.3781    8.2166   51.3885 C   0  0  0  0  0  0  0  0  0  0  0  0
   19.8619    9.6360   51.5569 C   0  0  0  0  0  0  0  0  0  0  0  0
   20.8342   10.5480   51.1311 O   0  0  0  0  0  0  0  0  0  0  0  0
   21.2642    6.8605   53.3201 C   0  0  0  0  0  0  0  0  0  0  0  0
   22.3697    6.9499   54.0813 N   0  0  0  0  0  0  0  0  0  0  0  0
   23.1430    8.0169   53.6781 C   0  0  0  0  0  0  0  0  0  0  0  0
   24.3587    8.3190   54.3843 C   0  0  0  0  0  0  0  0  0  0  0  0
   25.5787    7.9254   53.8258 C   0  0  0  0  0  0  0  0  0  0  0  0
   26.7754    8.2506   54.4235 C   0  0  0  0  0  0  0  0  0  0  0  0
   26.7737    8.9773   55.5912 C   0  0  0  0  0  0  0  0  0  0  0  0
   27.9541    9.3013   56.2021 F   0  0  0  0  0  0  0  0  0  0  0  0
   25.5886    9.3767   56.1584 C   0  0  0  0  0  0  0  0  0  0  0  0
   24.3761    9.0398   55.5401 C   0  0  0  0  0  0  0  0  0  0  0  0
   20.2032    5.8612   53.4224 C   0  0  0  0  0  0  0  0  0  0  0  0
   18.9289    6.1809   53.7998 C   0  0  0  0  0  0  0  0  0  0  0  0
   17.9157    5.2280   53.9007 C   0  0  0  0  0  0  0  0  0  0  0  0
   16.5266    5.6172   54.3205 C   0  0  0  0  0  0  0  0  0  0  0  0
   18.2460    3.9591   53.6081 N   0  0  0  0  0  0  0  0  0  0  0  0
   19.4594    3.5579   53.2327 C   0  0  0  0  0  0  0  0  0  0  0  0
   20.4455    4.5268   53.1416 C   0  0  0  0  0  0  0  0  0  0  0  0
   19.7732    2.1240   52.9224 C   0  0  0  0  0  0  0  0  0  0  0  0
   20.0425    1.5023   54.1485 F   0  0  0  0  0  0  0  0  0  0  0  0
   20.8605    1.9745   52.1244 F   0  0  0  0  0  0  0  0  0  0  0  0
   18.6534    1.5005   52.4281 F   0  0  0  0  0  0  0  0  0  0  0  0
  1  2  1  0  0  0
  2  3  1  0  0  0
  3  4  1  0  0  0
  4  5  1  0  0  0
  5  6  1  0  0  0
  6  7  1  0  0  0
  7  8  1  0  0  0
  5  9  2  0  0  0
  9 10  1  0  0  0
 10 11  2  0  0  0
 11 12  1  0  0  0
 12 13  2  0  0  0
 13 14  1  0  0  0
 14 15  2  0  0  0
 15 16  1  0  0  0
 15 17  1  0  0  0
 17 18  2  0  0  0
  9 19  1  0  0  0
 19 20  2  0  0  0
 20 21  1  0  0  0
 21 22  1  0  0  0
 21 23  2  0  0  0
 23 24  1  0  0  0
 24 25  2  0  0  0
 24 26  1  0  0  0
 26 27  1  0  0  0
 26 28  1  0  0  0
 26 29  1  0  0  0
  8  2  1  0  0  0
 18 12  1  0  0  0
 25 19  1  0  0  0
 11  4  1  0  0  0
M  END
> <minimizedAffinity>
35.31208

> <CNNscore>
0.4432484210

> <CNNaffinity>
6.4373474121

> <CNN_VS>
2.8533439636

> <CNNaffinity_variance>
0.7260397673

$$$$
[H]c1c([H])c(-c2nc(-c3c([H])c(C([H])([H])[H])nc(C(F)(F)F)c3[H])c3n2C([H])([H])[C@@]([H])(C([H])([H])[H])OC([H])([H])C3([H])[H])c([H])c([H])c1F


 29 32  0  0  0  0  0  0  0  0999 V2000
   19.4521    6.4185   53.6821 C   0  0  0  0  0  0  0  0  0  0  0  0
   20.9211    6.5973   53.8580 C   0  0  0  0  0  0  0  0  0  0  0  0
   21.4834    7.0938   52.4874 C   0  0  0  0  0  0  0  0  0  0  0  0
   22.6940    7.8320   52.8199 N   0  0  0  0  0  0  0  0  0  0  0  0
   23.7545    7.3815   53.5472 C   0  0  0  0  0  0  0  0  0  0  0  0
   23.8861    6.0079   54.0620 C   0  0  0  0  0  0  0  0  0  0  0  0
   22.7030    5.6586   54.9494 C   0  0  0  0  0  0  0  0  0  0  0  0
   21.5723    5.4192   54.1602 O   0  0  0  0  0  0  0  0  0  0  0  0
   24.6753    8.3791   53.7300 C   0  0  0  0  0  0  0  0  0  0  0  0
   24.1536    9.4465   53.0991 N   0  0  0  0  0  0  0  0  0  0  0  0
   22.9399    9.1215   52.5332 C   0  0  0  0  0  0  0  0  0  0  0  0
   22.1879   10.1313   51.8384 C   0  0  0  0  0  0  0  0  0  0  0  0
   21.0101    9.7625   51.1813 C   0  0  0  0  0  0  0  0  0  0  0  0
   20.2151   10.6998   50.5611 C   0  0  0  0  0  0  0  0  0  0  0  0
   20.5835   12.0246   50.5880 C   0  0  0  0  0  0  0  0  0  0  0  0
   19.8089   12.9673   49.9693 F   0  0  0  0  0  0  0  0  0  0  0  0
   21.7350   12.4120   51.2282 C   0  0  0  0  0  0  0  0  0  0  0  0
   22.5362   11.4481   51.8566 C   0  0  0  0  0  0  0  0  0  0  0  0
   25.9498    8.3129   54.4414 C   0  0  0  0  0  0  0  0  0  0  0  0
   27.0018    7.5645   53.9925 C   0  0  0  0  0  0  0  0  0  0  0  0
   28.2181    7.4978   54.6716 C   0  0  0  0  0  0  0  0  0  0  0  0
   29.3518    6.6626   54.1479 C   0  0  0  0  0  0  0  0  0  0  0  0
   28.3183    8.2103   55.8062 N   0  0  0  0  0  0  0  0  0  0  0  0
   27.3469    8.9654   56.3166 C   0  0  0  0  0  0  0  0  0  0  0  0
   26.1502    9.0118   55.6201 C   0  0  0  0  0  0  0  0  0  0  0  0
   27.5132    9.7372   57.5924 C   0  0  0  0  0  0  0  0  0  0  0  0
   26.2224   10.0449   58.0412 F   0  0  0  0  0  0  0  0  0  0  0  0
   28.1930   10.9002   57.4296 F   0  0  0  0  0  0  0  0  0  0  0  0
   28.0583    8.9260   58.5577 F   0  0  0  0  0  0  0  0  0  0  0  0
  1  2  1  0  0  0
  2  3  1  0  0  0
  3  4  1  0  0  0
  4  5  1  0  0  0
  5  6  1  0  0  0
  6  7  1  0  0  0
  7  8  1  0  0  0
  5  9  2  0  0  0
  9 10  1  0  0  0
 10 11  2  0  0  0
 11 12  1  0  0  0
 12 13  2  0  0  0
 13 14  1  0  0  0
 14 15  2  0  0  0
 15 16  1  0  0  0
 15 17  1  0  0  0
 17 18  2  0  0  0
  9 19  1  0  0  0
 19 20  2  0  0  0
 20 21  1  0  0  0
 21 22  1  0  0  0
 21 23  2  0  0  0
 23 24  1  0  0  0
 24 25  2  0  0  0
 24 26  1  0  0  0
 26 27  1  0  0  0
 26 28  1  0  0  0
 26 29  1  0  0  0
  8  2  1  0  0  0
 18 12  1  0  0  0
 25 19  1  0  0  0
 11  4  1  0  0  0
M  END
> <minimizedAffinity>
37.18418

> <CNNscore>
0.4346786737

> <CNNaffinity>
5.8831911087

> <CNN_VS>
2.5572977066

> <CNNaffinity_variance>
0.4318901002

$$$$
[H]c1c([H])c(-c2nc(-c3c([H])c(C([H])([H])[H])nc(C(F)(F)F)c3[H])c3n2C([H])([H])[C@@]([H])(C([H])([H])[H])OC([H])([H])C3([H])[H])c([H])c([H])c1F


 29 32  0  0  0  0  0  0  0  0999 V2000
   19.4803    5.9374   53.9452 C   0  0  0  0  0  0  0  0  0  0  0  0
   20.9452    6.1959   54.0361 C   0  0  0  0  0  0  0  0  0  0  0  0
   21.4004    6.7150   52.6346 C   0  0  0  0  0  0  0  0  0  0  0  0
   22.5863    7.5191   52.8955 N   0  0  0  0  0  0  0  0  0  0  0  0
   23.7096    7.1301   53.5616 C   0  0  0  0  0  0  0  0  0  0  0  0
   23.9445    5.7683   54.0708 C   0  0  0  0  0  0  0  0  0  0  0  0
   22.8347    5.3603   55.0254 C   0  0  0  0  0  0  0  0  0  0  0  0
   21.6754    5.0562   54.3029 O   0  0  0  0  0  0  0  0  0  0  0  0
   24.5840    8.1769   53.6892 C   0  0  0  0  0  0  0  0  0  0  0  0
   23.9700    9.2114   53.0872 N   0  0  0  0  0  0  0  0  0  0  0  0
   22.7453    8.8184   52.5925 C   0  0  0  0  0  0  0  0  0  0  0  0
   21.9012    9.7827   51.9400 C   0  0  0  0  0  0  0  0  0  0  0  0
   22.1836   11.1430   52.0986 C   0  0  0  0  0  0  0  0  0  0  0  0
   21.4521   12.1054   51.4401 C   0  0  0  0  0  0  0  0  0  0  0  0
   20.4246   11.7245   50.6091 C   0  0  0  0  0  0  0  0  0  0  0  0
   19.6827   12.6689   49.9541 F   0  0  0  0  0  0  0  0  0  0  0  0
   20.1288   10.3947   50.4357 C   0  0  0  0  0  0  0  0  0  0  0  0
   20.8813    9.4236   51.1115 C   0  0  0  0  0  0  0  0  0  0  0  0
   25.8988    8.1831   54.3264 C   0  0  0  0  0  0  0  0  0  0  0  0
   26.9687    7.5101   53.8061 C   0  0  0  0  0  0  0  0  0  0  0  0
   28.2237    7.5126   54.4144 C   0  0  0  0  0  0  0  0  0  0  0  0
   29.3762    6.7592   53.8133 C   0  0  0  0  0  0  0  0  0  0  0  0
   28.3434    8.2145   55.5536 N   0  0  0  0  0  0  0  0  0  0  0  0
   27.3569    8.8986   56.1309 C   0  0  0  0  0  0  0  0  0  0  0  0
   26.1217    8.8774   55.5038 C   0  0  0  0  0  0  0  0  0  0  0  0
   27.5467    9.6621   57.4084 C   0  0  0  0  0  0  0  0  0  0  0  0
   27.5428   11.0198   57.0635 F   0  0  0  0  0  0  0  0  0  0  0  0
   28.7224    9.3861   58.0272 F   0  0  0  0  0  0  0  0  0  0  0  0
   26.4551    9.4828   58.2226 F   0  0  0  0  0  0  0  0  0  0  0  0
  1  2  1  0  0  0
  2  3  1  0  0  0
  3  4  1  0  0  0
  4  5  1  0  0  0
  5  6  1  0  0  0
  6  7  1  0  0  0
  7  8  1  0  0  0
  5  9  2  0  0  0
  9 10  1  0  0  0
 10 11  2  0  0  0
 11 12  1  0  0  0
 12 13  2  0  0  0
 13 14  1  0  0  0
 14 15  2  0  0  0
 15 16  1  0  0  0
 15 17  1  0  0  0
 17 18  2  0  0  0
  9 19  1  0  0  0
 19 20  2  0  0  0
 20 21  1  0  0  0
 21 22  1  0  0  0
 21 23  2  0  0  0
 23 24  1  0  0  0
 24 25  2  0  0  0
 24 26  1  0  0  0
 26 27  1  0  0  0
 26 28  1  0  0  0
 26 29  1  0  0  0
  8  2  1  0  0  0
 18 12  1  0  0  0
 25 19  1  0  0  0
 11  4  1  0  0  0
M  END
> <minimizedAffinity>
34.84927

> <CNNscore>
0.4329313338

> <CNNaffinity>
5.9071927071

> <CNN_VS>
2.5574088097

> <CNNaffinity_variance>
0.4894104004

$$$$
[H]c1c([H])c(-c2c([H])c(C(=O)N([H])[H])nc3c([H])c(C([H])([H])N4C([H])([H])[C@@]([H])(C([H])([H])[H])O[C@]([H])(C([H])([H])[H])C4([H])[H])c([H])c([H])c23)c([H])c([H])c1F


 31 34  0  0  0  0  0  0  0  0999 V2000
   23.6075    6.8464   54.0951 C   0  0  0  0  0  0  0  0  0  0  0  0
   24.0394    7.0879   55.3699 C   0  0  0  0  0  0  0  0  0  0  0  0
   25.2028    7.8039   55.6463 C   0  0  0  0  0  0  0  0  0  0  0  0
   25.9446    8.2870   54.5863 C   0  0  0  0  0  0  0  0  0  0  0  0
   27.0956    8.9867   54.7830 C   0  0  0  0  0  0  0  0  0  0  0  0
   27.7907    9.4279   53.6421 C   0  0  0  0  0  0  0  0  0  0  0  0
   27.3788    9.1970   52.3718 C   0  0  0  0  0  0  0  0  0  0  0  0
   26.2434    8.5083   52.2001 N   0  0  0  0  0  0  0  0  0  0  0  0
   25.5411    8.0628   53.2807 C   0  0  0  0  0  0  0  0  0  0  0  0
   24.3724    7.3417   53.0758 C   0  0  0  0  0  0  0  0  0  0  0  0
   27.6079    9.3267   56.1014 C   0  0  0  0  0  0  0  0  0  0  0  0
   27.7576    8.4493   57.1430 C   0  0  0  0  0  0  0  0  0  0  0  0
   28.2488    8.8185   58.3779 C   0  0  0  0  0  0  0  0  0  0  0  0
   28.6179   10.1284   58.6121 C   0  0  0  0  0  0  0  0  0  0  0  0
   29.0996   10.4786   59.8314 F   0  0  0  0  0  0  0  0  0  0  0  0
   28.4783   11.0338   57.5822 C   0  0  0  0  0  0  0  0  0  0  0  0
   27.9864   10.6506   56.3548 C   0  0  0  0  0  0  0  0  0  0  0  0
   28.1677    9.6949   51.2537 C   0  0  0  0  0  0  0  0  0  0  0  0
   29.1744   10.6547   51.4961 N   0  0  0  0  0  0  0  0  0  0  0  0
   27.9669    9.2862   50.0879 O   0  0  0  0  0  0  0  0  0  0  0  0
   28.9026   11.6373   51.7407 H   0  0  0  0  0  0  0  0  0  0  0  0
   30.1966   10.4528   51.4484 H   0  0  0  0  0  0  0  0  0  0  0  0
   22.3716    6.0794   53.7894 C   0  0  0  0  0  0  0  0  0  0  0  0
   20.4752    9.4726   51.3411 C   0  0  0  0  0  0  0  0  0  0  0  0
   21.7564    8.9973   52.0078 C   0  0  0  0  0  0  0  0  0  0  0  0
   21.9176    7.4988   51.8845 C   0  0  0  0  0  0  0  0  0  0  0  0
   21.4067    6.7930   53.0229 N   0  0  0  0  0  0  0  0  0  0  0  0
   20.4512    7.5196   53.7830 C   0  0  0  0  0  0  0  0  0  0  0  0
   20.8769    8.9127   54.1456 C   0  0  0  0  0  0  0  0  0  0  0  0
   21.4424    8.8966   55.5477 C   0  0  0  0  0  0  0  0  0  0  0  0
   21.8474    9.4327   53.3120 O   0  0  0  0  0  0  0  0  0  0  0  0
 24 25  1  0  0  0
 25 26  1  0  0  0
 26 27  1  0  0  0
 27 23  1  0  0  0
 23  1  1  0  0  0
  1  2  2  0  0  0
  2  3  1  0  0  0
  3  4  2  0  0  0
  4  5  1  0  0  0
  5  6  2  0  0  0
  6  7  1  0  0  0
  7  8  2  0  0  0
  8  9  1  0  0  0
  9 10  2  0  0  0
  7 18  1  0  0  0
 18 19  1  0  0  0
 18 20  2  0  0  0
  5 11  1  0  0  0
 11 12  2  0  0  0
 12 13  1  0  0  0
 13 14  2  0  0  0
 14 15  1  0  0  0
 14 16  1  0  0  0
 16 17  2  0  0  0
 27 28  1  0  0  0
 28 29  1  0  0  0
 29 30  1  0  0  0
 29 31  1  0  0  0
 31 25  1  0  0  0
 10  1  1  0  0  0
 17 11  1  0  0  0
  9  4  1  0  0  0
 19 21  1  0  0  0
 19 22  1  0  0  0
M  END
> <minimizedAffinity>
23.49611

> <CNNscore>
0.6988833547

> <CNNaffinity>
6.1987867355

> <CNN_VS>
4.3322286606

> <CNNaffinity_variance>
0.4952434897

$$$$
[H]c1c([H])c(-c2c([H])c(C(=O)N([H])[H])nc3c([H])c(C([H])([H])N4C([H])([H])[C@@]([H])(C([H])([H])[H])O[C@]([H])(C([H])([H])[H])C4([H])[H])c([H])c([H])c23)c([H])c([H])c1F


 31 34  0  0  0  0  0  0  0  0999 V2000
   27.8879    9.0536   51.6864 C   0  0  0  0  0  0  0  0  0  0  0  0
   26.5502    8.7879   51.5857 C   0  0  0  0  0  0  0  0  0  0  0  0
   25.7165    8.6951   52.6987 C   0  0  0  0  0  0  0  0  0  0  0  0
   26.2690    8.8804   53.9508 C   0  0  0  0  0  0  0  0  0  0  0  0
   25.5154    8.7952   55.0813 C   0  0  0  0  0  0  0  0  0  0  0  0
   26.1680    8.9861   56.3130 C   0  0  0  0  0  0  0  0  0  0  0  0
   27.4921    9.2487   56.4322 C   0  0  0  0  0  0  0  0  0  0  0  0
   28.2152    9.3299   55.3082 N   0  0  0  0  0  0  0  0  0  0  0  0
   27.6195    9.1503   54.0947 C   0  0  0  0  0  0  0  0  0  0  0  0
   28.3933    9.2291   52.9446 C   0  0  0  0  0  0  0  0  0  0  0  0
   24.0800    8.5590   55.0681 C   0  0  0  0  0  0  0  0  0  0  0  0
   23.1200    9.5036   55.3195 C   0  0  0  0  0  0  0  0  0  0  0  0
   21.7678    9.2324   55.2955 C   0  0  0  0  0  0  0  0  0  0  0  0
   21.3231    7.9572   55.0075 C   0  0  0  0  0  0  0  0  0  0  0  0
   19.9902    7.7034   54.9871 F   0  0  0  0  0  0  0  0  0  0  0  0
   22.2666    6.9858   54.7502 C   0  0  0  0  0  0  0  0  0  0  0  0
   23.6131    7.2715   54.7779 C   0  0  0  0  0  0  0  0  0  0  0  0
   28.0775    9.4311   57.7530 C   0  0  0  0  0  0  0  0  0  0  0  0
   28.0380    8.3633   58.6759 N   0  0  0  0  0  0  0  0  0  0  0  0
   28.6118   10.5147   58.0794 O   0  0  0  0  0  0  0  0  0  0  0  0
   27.1255    8.0967   59.1181 H   0  0  0  0  0  0  0  0  0  0  0  0
   28.8726    7.8048   58.9579 H   0  0  0  0  0  0  0  0  0  0  0  0
   28.7866    9.1491   50.5064 C   0  0  0  0  0  0  0  0  0  0  0  0
   28.3028    8.4597   45.9903 C   0  0  0  0  0  0  0  0  0  0  0  0
   29.2949    8.8151   47.0863 C   0  0  0  0  0  0  0  0  0  0  0  0
   29.0030    8.0548   48.3604 C   0  0  0  0  0  0  0  0  0  0  0  0
   28.1776    8.7956   49.2686 N   0  0  0  0  0  0  0  0  0  0  0  0
   27.4116    9.8250   48.6584 C   0  0  0  0  0  0  0  0  0  0  0  0
   28.1997   10.7368   47.7635 C   0  0  0  0  0  0  0  0  0  0  0  0
   28.5737   11.9766   48.5438 C   0  0  0  0  0  0  0  0  0  0  0  0
   29.3690   10.1761   47.2887 O   0  0  0  0  0  0  0  0  0  0  0  0
 24 25  1  0  0  0
 25 26  1  0  0  0
 26 27  1  0  0  0
 27 23  1  0  0  0
 23  1  1  0  0  0
  1  2  2  0  0  0
  2  3  1  0  0  0
  3  4  2  0  0  0
  4  5  1  0  0  0
  5  6  2  0  0  0
  6  7  1  0  0  0
  7  8  2  0  0  0
  8  9  1  0  0  0
  9 10  2  0  0  0
  7 18  1  0  0  0
 18 19  1  0  0  0
 18 20  2  0  0  0
  5 11  1  0  0  0
 11 12  2  0  0  0
 12 13  1  0  0  0
 13 14  2  0  0  0
 14 15  1  0  0  0
 14 16  1  0  0  0
 16 17  2  0  0  0
 27 28  1  0  0  0
 28 29  1  0  0  0
 29 30  1  0  0  0
 29 31  1  0  0  0
 31 25  1  0  0  0
 10  1  1  0  0  0
 17 11  1  0  0  0
  9  4  1  0  0  0
 19 21  1  0  0  0
 19 22  1  0  0  0
M  END
> <minimizedAffinity>
30.98295

> <CNNscore>
0.5472777486

> <CNNaffinity>
5.9017353058

> <CNN_VS>
3.2298884392

> <CNNaffinity_variance>
0.1700231582

$$$$
[H]c1c([H])c(-c2c([H])c(C(=O)N([H])[H])nc3c([H])c(C([H])([H])N4C([H])([H])[C@@]([H])(C([H])([H])[H])O[C@]([H])(C([H])([H])[H])C4([H])[H])c([H])c([H])c23)c([H])c([H])c1F


 31 34  0  0  0  0  0  0  0  0999 V2000
   23.7130    6.9996   54.1869 C   0  0  0  0  0  0  0  0  0  0  0  0
   24.1482    7.3535   52.9398 C   0  0  0  0  0  0  0  0  0  0  0  0
   25.3150    8.0866   52.7309 C   0  0  0  0  0  0  0  0  0  0  0  0
   26.0575    8.4675   53.8313 C   0  0  0  0  0  0  0  0  0  0  0  0
   27.2026    9.1921   53.7014 C   0  0  0  0  0  0  0  0  0  0  0  0
   27.8852    9.5452   54.8799 C   0  0  0  0  0  0  0  0  0  0  0  0
   27.4684    9.2048   56.1237 C   0  0  0  0  0  0  0  0  0  0  0  0
   26.3407    8.4907   56.2295 N   0  0  0  0  0  0  0  0  0  0  0  0
   25.6498    8.1294   55.1108 C   0  0  0  0  0  0  0  0  0  0  0  0
   24.4776    7.3981   55.2480 C   0  0  0  0  0  0  0  0  0  0  0  0
   27.7629    9.5761   52.4150 C   0  0  0  0  0  0  0  0  0  0  0  0
   28.7576   10.4996   52.2287 C   0  0  0  0  0  0  0  0  0  0  0  0
   29.2580   10.8319   50.9870 C   0  0  0  0  0  0  0  0  0  0  0  0
   28.7557   10.2239   49.8535 C   0  0  0  0  0  0  0  0  0  0  0  0
   29.2566   10.5596   48.6379 F   0  0  0  0  0  0  0  0  0  0  0  0
   27.7539    9.2902   50.0103 C   0  0  0  0  0  0  0  0  0  0  0  0
   27.2643    8.9689   51.2562 C   0  0  0  0  0  0  0  0  0  0  0  0
   28.2441    9.6175   57.2849 C   0  0  0  0  0  0  0  0  0  0  0  0
   28.5494    8.6651   58.2815 N   0  0  0  0  0  0  0  0  0  0  0  0
   28.6415   10.7976   57.4108 O   0  0  0  0  0  0  0  0  0  0  0  0
   27.7888    8.3181   58.9141 H   0  0  0  0  0  0  0  0  0  0  0  0
   29.5021    8.2706   58.4391 H   0  0  0  0  0  0  0  0  0  0  0  0
   22.4674    6.2229   54.4208 C   0  0  0  0  0  0  0  0  0  0  0  0
   20.0115    8.5840   51.3388 C   0  0  0  0  0  0  0  0  0  0  0  0
   21.4188    8.2919   51.8349 C   0  0  0  0  0  0  0  0  0  0  0  0
   21.5614    6.8500   52.2678 C   0  0  0  0  0  0  0  0  0  0  0  0
   21.3414    6.6711   53.6730 N   0  0  0  0  0  0  0  0  0  0  0  0
   20.5856    7.7069   54.2848 C   0  0  0  0  0  0  0  0  0  0  0  0
   21.0709    9.0936   53.9767 C   0  0  0  0  0  0  0  0  0  0  0  0
   21.9521    9.5618   55.1125 C   0  0  0  0  0  0  0  0  0  0  0  0
   21.8113    9.1784   52.8141 O   0  0  0  0  0  0  0  0  0  0  0  0
 24 25  1  0  0  0
 25 26  1  0  0  0
 26 27  1  0  0  0
 27 23  1  0  0  0
 23  1  1  0  0  0
  1  2  2  0  0  0
  2  3  1  0  0  0
  3  4  2  0  0  0
  4  5  1  0  0  0
  5  6  2  0  0  0
  6  7  1  0  0  0
  7  8  2  0  0  0
  8  9  1  0  0  0
  9 10  2  0  0  0
  7 18  1  0  0  0
 18 19  1  0  0  0
 18 20  2  0  0  0
  5 11  1  0  0  0
 11 12  2  0  0  0
 12 13  1  0  0  0
 13 14  2  0  0  0
 14 15  1  0  0  0
 14 16  1  0  0  0
 16 17  2  0  0  0
 27 28  1  0  0  0
 28 29  1  0  0  0
 29 30  1  0  0  0
 29 31  1  0  0  0
 31 25  1  0  0  0
 10  1  1  0  0  0
 17 11  1  0  0  0
  9  4  1  0  0  0
 19 21  1  0  0  0
 19 22  1  0  0  0
M  END
> <minimizedAffinity>
25.39184

> <CNNscore>
0.5353593826

> <CNNaffinity>
6.3475947380

> <CNN_VS>
3.3982443810

> <CNNaffinity_variance>
0.4952390194

$$$$
[H]c1c([H])c(-c2c([H])c(C(=O)N([H])[H])nc3c([H])c(C([H])([H])N4C([H])([H])[C@@]([H])(C([H])([H])[H])O[C@]([H])(C([H])([H])[H])C4([H])[H])c([H])c([H])c23)c([H])c([H])c1F


 31 34  0  0  0  0  0  0  0  0999 V2000
   22.8072    9.3182   55.0242 C   0  0  0  0  0  0  0  0  0  0  0  0
   23.3351   10.0691   56.0379 C   0  0  0  0  0  0  0  0  0  0  0  0
   24.6869   10.0317   56.3755 C   0  0  0  0  0  0  0  0  0  0  0  0
   25.5218    9.2018   55.6534 C   0  0  0  0  0  0  0  0  0  0  0  0
   26.8505    9.1092   55.9344 C   0  0  0  0  0  0  0  0  0  0  0  0
   27.6199    8.2274   55.1533 C   0  0  0  0  0  0  0  0  0  0  0  0
   27.1140    7.4748   54.1462 C   0  0  0  0  0  0  0  0  0  0  0  0
   25.8052    7.5818   53.8849 N   0  0  0  0  0  0  0  0  0  0  0  0
   25.0254    8.4250   54.6201 C   0  0  0  0  0  0  0  0  0  0  0  0
   23.6689    8.5099   54.3362 C   0  0  0  0  0  0  0  0  0  0  0  0
   27.5057    9.9001   56.9647 C   0  0  0  0  0  0  0  0  0  0  0  0
   28.1406    9.3931   58.0679 C   0  0  0  0  0  0  0  0  0  0  0  0
   28.7491   10.1840   59.0201 C   0  0  0  0  0  0  0  0  0  0  0  0
   28.7378   11.5585   58.8878 C   0  0  0  0  0  0  0  0  0  0  0  0
   29.3401   12.3253   59.8315 F   0  0  0  0  0  0  0  0  0  0  0  0
   28.1062   12.0971   57.7874 C   0  0  0  0  0  0  0  0  0  0  0  0
   27.5029   11.2950   56.8451 C   0  0  0  0  0  0  0  0  0  0  0  0
   27.9917    6.5898   53.3932 C   0  0  0  0  0  0  0  0  0  0  0  0
   29.3778    6.8565   53.3661 N   0  0  0  0  0  0  0  0  0  0  0  0
   27.5369    5.6021   52.7737 O   0  0  0  0  0  0  0  0  0  0  0  0
   29.7352    7.6758   52.8180 H   0  0  0  0  0  0  0  0  0  0  0  0
   30.0922    6.2829   53.8647 H   0  0  0  0  0  0  0  0  0  0  0  0
   21.3665    9.3465   54.6599 C   0  0  0  0  0  0  0  0  0  0  0  0
   20.9377    4.9257   53.4862 C   0  0  0  0  0  0  0  0  0  0  0  0
   21.9149    6.0853   53.5964 C   0  0  0  0  0  0  0  0  0  0  0  0
   21.6147    6.9450   54.8037 C   0  0  0  0  0  0  0  0  0  0  0  0
   20.7738    8.0628   54.4902 N   0  0  0  0  0  0  0  0  0  0  0  0
   20.0069    7.9054   53.3046 C   0  0  0  0  0  0  0  0  0  0  0  0
   20.7979    7.4602   52.1089 C   0  0  0  0  0  0  0  0  0  0  0  0
   21.1539    8.6762   51.2838 C   0  0  0  0  0  0  0  0  0  0  0  0
   21.9766    6.8162   52.4299 O   0  0  0  0  0  0  0  0  0  0  0  0
 24 25  1  0  0  0
 25 26  1  0  0  0
 26 27  1  0  0  0
 27 23  1  0  0  0
 23  1  1  0  0  0
  1  2  2  0  0  0
  2  3  1  0  0  0
  3  4  2  0  0  0
  4  5  1  0  0  0
  5  6  2  0  0  0
  6  7  1  0  0  0
  7  8  2  0  0  0
  8  9  1  0  0  0
  9 10  2  0  0  0
  7 18  1  0  0  0
 18 19  1  0  0  0
 18 20  2  0  0  0
  5 11  1  0  0  0
 11 12  2  0  0  0
 12 13  1  0  0  0
 13 14  2  0  0  0
 14 15  1  0  0  0
 14 16  1  0  0  0
 16 17  2  0  0  0
 27 28  1  0  0  0
 28 29  1  0  0  0
 29 30  1  0  0  0
 29 31  1  0  0  0
 31 25  1  0  0  0
 10  1  1  0  0  0
 17 11  1  0  0  0
  9  4  1  0  0  0
 19 21  1  0  0  0
 19 22  1  0  0  0
M  END
> <minimizedAffinity>
23.93434

> <CNNscore>
0.5214892626

> <CNNaffinity>
6.0031051636

> <CNN_VS>
3.1305549145

> <CNNaffinity_variance>
0.6919978857

$$$$
[H]c1c([H])c(-c2c([H])c(C(=O)N([H])[H])nc3c([H])c(C([H])([H])N4C([H])([H])[C@@]([H])(C([H])([H])[H])O[C@]([H])(C([H])([H])[H])C4([H])[H])c([H])c([H])c23)c([H])c([H])c1F


 31 34  0  0  0  0  0  0  0  0999 V2000
   25.6684    7.4699   53.6055 C   0  0  0  0  0  0  0  0  0  0  0  0
   24.8698    6.3970   53.8900 C   0  0  0  0  0  0  0  0  0  0  0  0
   23.4866    6.4239   53.7208 C   0  0  0  0  0  0  0  0  0  0  0  0
   22.9051    7.5830   53.2460 C   0  0  0  0  0  0  0  0  0  0  0  0
   21.5595    7.6822   53.0651 C   0  0  0  0  0  0  0  0  0  0  0  0
   21.0565    8.9071   52.5894 C   0  0  0  0  0  0  0  0  0  0  0  0
   21.8321    9.9809   52.3036 C   0  0  0  0  0  0  0  0  0  0  0  0
   23.1532    9.8621   52.4868 N   0  0  0  0  0  0  0  0  0  0  0  0
   23.6795    8.6914   52.9472 C   0  0  0  0  0  0  0  0  0  0  0  0
   25.0514    8.5972   53.1389 C   0  0  0  0  0  0  0  0  0  0  0  0
   20.6389    6.5807   53.3005 C   0  0  0  0  0  0  0  0  0  0  0  0
   20.9914    5.2597   53.3897 C   0  0  0  0  0  0  0  0  0  0  0  0
   20.0813    4.2479   53.6146 C   0  0  0  0  0  0  0  0  0  0  0  0
   18.7406    4.5436   53.7621 C   0  0  0  0  0  0  0  0  0  0  0  0
   17.8555    3.5390   53.9829 F   0  0  0  0  0  0  0  0  0  0  0  0
   18.3564    5.8647   53.6772 C   0  0  0  0  0  0  0  0  0  0  0  0
   19.2763    6.8639   53.4522 C   0  0  0  0  0  0  0  0  0  0  0  0
   21.2179   11.2076   51.8154 C   0  0  0  0  0  0  0  0  0  0  0  0
   21.1983   12.3461   52.6502 N   0  0  0  0  0  0  0  0  0  0  0  0
   20.7103   11.2663   50.6729 O   0  0  0  0  0  0  0  0  0  0  0  0
   20.5651   12.3627   53.4857 H   0  0  0  0  0  0  0  0  0  0  0  0
   21.7833   13.1952   52.4926 H   0  0  0  0  0  0  0  0  0  0  0  0
   27.1435    7.4535   53.7876 C   0  0  0  0  0  0  0  0  0  0  0  0
   27.7687    9.4518   57.8767 C   0  0  0  0  0  0  0  0  0  0  0  0
   27.0668    9.5792   56.5340 C   0  0  0  0  0  0  0  0  0  0  0  0
   26.6189    8.2305   56.0171 C   0  0  0  0  0  0  0  0  0  0  0  0
   27.5757    7.6328   55.1327 N   0  0  0  0  0  0  0  0  0  0  0  0
   28.8992    8.1280   55.2792 C   0  0  0  0  0  0  0  0  0  0  0  0
   29.0053    9.6254   55.2727 C   0  0  0  0  0  0  0  0  0  0  0  0
   29.3782   10.0784   53.8793 C   0  0  0  0  0  0  0  0  0  0  0  0
   27.8328   10.2678   55.6186 O   0  0  0  0  0  0  0  0  0  0  0  0
 24 25  1  0  0  0
 25 26  1  0  0  0
 26 27  1  0  0  0
 27 23  1  0  0  0
 23  1  1  0  0  0
  1  2  2  0  0  0
  2  3  1  0  0  0
  3  4  2  0  0  0
  4  5  1  0  0  0
  5  6  2  0  0  0
  6  7  1  0  0  0
  7  8  2  0  0  0
  8  9  1  0  0  0
  9 10  2  0  0  0
  7 18  1  0  0  0
 18 19  1  0  0  0
 18 20  2  0  0  0
  5 11  1  0  0  0
 11 12  2  0  0  0
 12 13  1  0  0  0
 13 14  2  0  0  0
 14 15  1  0  0  0
 14 16  1  0  0  0
 16 17  2  0  0  0
 27 28  1  0  0  0
 28 29  1  0  0  0
 29 30  1  0  0  0
 29 31  1  0  0  0
 31 25  1  0  0  0
 10  1  1  0  0  0
 17 11  1  0  0  0
  9  4  1  0  0  0
 19 21  1  0  0  0
 19 22  1  0  0  0
M  END
> <minimizedAffinity>
30.61876

> <CNNscore>
0.5124497414

> <CNNaffinity>
6.0199847221

> <CNN_VS>
3.0849397182

> <CNNaffinity_variance>
0.3189995587

$$$$
[H]c1c([H])c(-c2c([H])c(C(=O)N([H])[H])nc3c([H])c(C([H])([H])N4C([H])([H])[C@@]([H])(C([H])([H])[H])O[C@]([H])(C([H])([H])[H])C4([H])[H])c([H])c([H])c23)c([H])c([H])c1F


 31 34  0  0  0  0  0  0  0  0999 V2000
   21.0439    5.3143   53.8325 C   0  0  0  0  0  0  0  0  0  0  0  0
   22.3283    5.2152   54.2912 C   0  0  0  0  0  0  0  0  0  0  0  0
   23.2300    6.2766   54.2363 C   0  0  0  0  0  0  0  0  0  0  0  0
   22.8033    7.4740   53.6965 C   0  0  0  0  0  0  0  0  0  0  0  0
   23.6332    8.5491   53.6036 C   0  0  0  0  0  0  0  0  0  0  0  0
   23.1139    9.7228   53.0274 C   0  0  0  0  0  0  0  0  0  0  0  0
   21.8448    9.8390   52.5664 C   0  0  0  0  0  0  0  0  0  0  0  0
   21.0442    8.7706   52.6687 N   0  0  0  0  0  0  0  0  0  0  0  0
   21.5105    7.6141   53.2205 C   0  0  0  0  0  0  0  0  0  0  0  0
   20.6636    6.5171   53.3053 C   0  0  0  0  0  0  0  0  0  0  0  0
   24.9995    8.5485   54.1031 C   0  0  0  0  0  0  0  0  0  0  0  0
   25.3709    8.8228   55.3931 C   0  0  0  0  0  0  0  0  0  0  0  0
   26.6819    8.8101   55.8214 C   0  0  0  0  0  0  0  0  0  0  0  0
   27.6966    8.5103   54.9341 C   0  0  0  0  0  0  0  0  0  0  0  0
   28.9823    8.5011   55.3681 F   0  0  0  0  0  0  0  0  0  0  0  0
   27.3528    8.2299   53.6290 C   0  0  0  0  0  0  0  0  0  0  0  0
   26.0397    8.2466   53.2160 C   0  0  0  0  0  0  0  0  0  0  0  0
   21.3985   11.0974   51.9853 C   0  0  0  0  0  0  0  0  0  0  0  0
   21.4271   12.2676   52.7748 N   0  0  0  0  0  0  0  0  0  0  0  0
   20.9926   11.1556   50.8028 O   0  0  0  0  0  0  0  0  0  0  0  0
   20.7340   12.3823   53.5530 H   0  0  0  0  0  0  0  0  0  0  0  0
   22.1055   13.0479   52.6371 H   0  0  0  0  0  0  0  0  0  0  0  0
   20.0763    4.1871   53.8814 C   0  0  0  0  0  0  0  0  0  0  0  0
   15.5047    4.1402   53.4309 C   0  0  0  0  0  0  0  0  0  0  0  0
   16.6661    3.6669   54.2904 C   0  0  0  0  0  0  0  0  0  0  0  0
   17.7622    4.7067   54.3553 C   0  0  0  0  0  0  0  0  0  0  0  0
   18.7829    4.4950   53.3712 N   0  0  0  0  0  0  0  0  0  0  0  0
   18.3719    3.7122   52.2590 C   0  0  0  0  0  0  0  0  0  0  0  0
   17.6859    2.4279   52.6243 C   0  0  0  0  0  0  0  0  0  0  0  0
   18.6995    1.3070   52.5768 C   0  0  0  0  0  0  0  0  0  0  0  0
   17.1314    2.4335   53.8891 O   0  0  0  0  0  0  0  0  0  0  0  0
 24 25  1  0  0  0
 25 26  1  0  0  0
 26 27  1  0  0  0
 27 23  1  0  0  0
 23  1  1  0  0  0
  1  2  2  0  0  0
  2  3  1  0  0  0
  3  4  2  0  0  0
  4  5  1  0  0  0
  5  6  2  0  0  0
  6  7  1  0  0  0
  7  8  2  0  0  0
  8  9  1  0  0  0
  9 10  2  0  0  0
  7 18  1  0  0  0
 18 19  1  0  0  0
 18 20  2  0  0  0
  5 11  1  0  0  0
 11 12  2  0  0  0
 12 13  1  0  0  0
 13 14  2  0  0  0
 14 15  1  0  0  0
 14 16  1  0  0  0
 16 17  2  0  0  0
 27 28  1  0  0  0
 28 29  1  0  0  0
 29 30  1  0  0  0
 29 31  1  0  0  0
 31 25  1  0  0  0
 10  1  1  0  0  0
 17 11  1  0  0  0
  9  4  1  0  0  0
 19 21  1  0  0  0
 19 22  1  0  0  0
M  END
> <minimizedAffinity>
32.50653

> <CNNscore>
0.4841335714

> <CNNaffinity>
6.4777860641

> <CNN_VS>
3.1361136436

> <CNNaffinity_variance>
0.5407966375

$$$$
[H]c1c([H])c(-c2c([H])c(C(=O)N([H])[H])nc3c([H])c(C([H])([H])N4C([H])([H])[C@@]([H])(C([H])([H])[H])O[C@]([H])(C([H])([H])[H])C4([H])[H])c([H])c([H])c23)c([H])c([H])c1F


 31 34  0  0  0  0  0  0  0  0999 V2000
   20.0551    5.7011   53.3382 C   0  0  0  0  0  0  0  0  0  0  0  0
   21.2857    5.4883   53.8952 C   0  0  0  0  0  0  0  0  0  0  0  0
   22.3040    6.4391   53.8537 C   0  0  0  0  0  0  0  0  0  0  0  0
   22.0541    7.6426   53.2240 C   0  0  0  0  0  0  0  0  0  0  0  0
   23.0053    8.6126   53.1386 C   0  0  0  0  0  0  0  0  0  0  0  0
   22.6634    9.8006   52.4670 C   0  0  0  0  0  0  0  0  0  0  0  0
   21.4500   10.0284   51.9080 C   0  0  0  0  0  0  0  0  0  0  0  0
   20.5279    9.0624   52.0045 N   0  0  0  0  0  0  0  0  0  0  0  0
   20.8210    7.8959   52.6470 C   0  0  0  0  0  0  0  0  0  0  0  0
   19.8509    6.9055   52.7242 C   0  0  0  0  0  0  0  0  0  0  0  0
   24.3256    8.4910   53.7374 C   0  0  0  0  0  0  0  0  0  0  0  0
   25.4301    7.9669   53.1190 C   0  0  0  0  0  0  0  0  0  0  0  0
   26.6640    7.8720   53.7281 C   0  0  0  0  0  0  0  0  0  0  0  0
   26.8315    8.3172   55.0244 C   0  0  0  0  0  0  0  0  0  0  0  0
   28.0505    8.2181   55.6123 F   0  0  0  0  0  0  0  0  0  0  0  0
   25.7373    8.8496   55.6720 C   0  0  0  0  0  0  0  0  0  0  0  0
   24.5118    8.9377   55.0511 C   0  0  0  0  0  0  0  0  0  0  0  0
   21.1905   11.2921   51.2325 C   0  0  0  0  0  0  0  0  0  0  0  0
   21.6392   12.4928   51.8245 N   0  0  0  0  0  0  0  0  0  0  0  0
   20.5789   11.3283   50.1412 O   0  0  0  0  0  0  0  0  0  0  0  0
   21.1604   12.8549   52.6841 H   0  0  0  0  0  0  0  0  0  0  0  0
   22.4337   13.0618   51.4597 H   0  0  0  0  0  0  0  0  0  0  0  0
   18.9644    4.6919   53.3721 C   0  0  0  0  0  0  0  0  0  0  0  0
   16.1240    3.3127   56.7090 C   0  0  0  0  0  0  0  0  0  0  0  0
   16.9750    2.8444   55.5393 C   0  0  0  0  0  0  0  0  0  0  0  0
   18.2533    3.6454   55.4334 C   0  0  0  0  0  0  0  0  0  0  0  0
   18.1378    4.7526   54.5302 N   0  0  0  0  0  0  0  0  0  0  0  0
   16.8039    5.1820   54.2963 C   0  0  0  0  0  0  0  0  0  0  0  0
   15.8511    4.0787   53.9379 C   0  0  0  0  0  0  0  0  0  0  0  0
   15.7133    4.0276   52.4331 C   0  0  0  0  0  0  0  0  0  0  0  0
   16.2619    2.8297   54.3602 O   0  0  0  0  0  0  0  0  0  0  0  0
 24 25  1  0  0  0
 25 26  1  0  0  0
 26 27  1  0  0  0
 27 23  1  0  0  0
 23  1  1  0  0  0
  1  2  2  0  0  0
  2  3  1  0  0  0
  3  4  2  0  0  0
  4  5  1  0  0  0
  5  6  2  0  0  0
  6  7  1  0  0  0
  7  8  2  0  0  0
  8  9  1  0  0  0
  9 10  2  0  0  0
  7 18  1  0  0  0
 18 19  1  0  0  0
 18 20  2  0  0  0
  5 11  1  0  0  0
 11 12  2  0  0  0
 12 13  1  0  0  0
 13 14  2  0  0  0
 14 15  1  0  0  0
 14 16  1  0  0  0
 16 17  2  0  0  0
 27 28  1  0  0  0
 28 29  1  0  0  0
 29 30  1  0  0  0
 29 31  1  0  0  0
 31 25  1  0  0  0
 10  1  1  0  0  0
 17 11  1  0  0  0
  9  4  1  0  0  0
 19 21  1  0  0  0
 19 22  1  0  0  0
M  END
> <minimizedAffinity>
31.21251

> <CNNscore>
0.4724350572

> <CNNaffinity>
6.4615020752

> <CNN_VS>
3.0526401997

> <CNNaffinity_variance>
0.7603367567

$$$$
[H]c1c([H])c(-c2c([H])c(C(=O)N([H])[H])nc3c([H])c(C([H])([H])N4C([H])([H])[C@@]([H])(C([H])([H])[H])O[C@]([H])(C([H])([H])[H])C4([H])[H])c([H])c([H])c23)c([H])c([H])c1F


 31 34  0  0  0  0  0  0  0  0999 V2000
   25.7421    7.3811   53.7916 C   0  0  0  0  0  0  0  0  0  0  0  0
   25.5452    8.6764   53.3999 C   0  0  0  0  0  0  0  0  0  0  0  0
   24.2853    9.1838   53.0872 C   0  0  0  0  0  0  0  0  0  0  0  0
   23.1958    8.3401   53.1792 C   0  0  0  0  0  0  0  0  0  0  0  0
   21.9380    8.7664   52.8805 C   0  0  0  0  0  0  0  0  0  0  0  0
   20.8920    7.8319   52.9909 C   0  0  0  0  0  0  0  0  0  0  0  0
   21.0682    6.5446   53.3760 C   0  0  0  0  0  0  0  0  0  0  0  0
   22.3129    6.1459   53.6668 N   0  0  0  0  0  0  0  0  0  0  0  0
   23.3539    7.0215   53.5714 C   0  0  0  0  0  0  0  0  0  0  0  0
   24.6365    6.5804   53.8682 C   0  0  0  0  0  0  0  0  0  0  0  0
   21.6288   10.1352   52.4971 C   0  0  0  0  0  0  0  0  0  0  0  0
   21.3947   10.5653   51.2175 C   0  0  0  0  0  0  0  0  0  0  0  0
   21.1047   11.8762   50.9016 C   0  0  0  0  0  0  0  0  0  0  0  0
   21.0386   12.8296   51.8983 C   0  0  0  0  0  0  0  0  0  0  0  0
   20.7524   14.1158   51.5743 F   0  0  0  0  0  0  0  0  0  0  0  0
   21.2697   12.4259   53.1959 C   0  0  0  0  0  0  0  0  0  0  0  0
   21.5582   11.1137   53.4960 C   0  0  0  0  0  0  0  0  0  0  0  0
   19.9214    5.6512   53.4604 C   0  0  0  0  0  0  0  0  0  0  0  0
   20.1367    4.2560   53.4772 N   0  0  0  0  0  0  0  0  0  0  0  0
   18.7547    6.1005   53.5179 O   0  0  0  0  0  0  0  0  0  0  0  0
   20.4488    3.7712   52.6015 H   0  0  0  0  0  0  0  0  0  0  0  0
   20.0046    3.6554   54.3198 H   0  0  0  0  0  0  0  0  0  0  0  0
   27.0819    6.8287   54.1219 C   0  0  0  0  0  0  0  0  0  0  0  0
   27.9672    9.7386   57.5647 C   0  0  0  0  0  0  0  0  0  0  0  0
   27.0908    9.4970   56.3460 C   0  0  0  0  0  0  0  0  0  0  0  0
   26.7514    8.0312   56.1941 C   0  0  0  0  0  0  0  0  0  0  0  0
   27.6552    7.3431   55.3196 N   0  0  0  0  0  0  0  0  0  0  0  0
   28.9151    7.9799   55.1593 C   0  0  0  0  0  0  0  0  0  0  0  0
   28.8334    9.4413   54.8258 C   0  0  0  0  0  0  0  0  0  0  0  0
   28.9681    9.6045   53.3287 C   0  0  0  0  0  0  0  0  0  0  0  0
   27.6436   10.0323   55.2029 O   0  0  0  0  0  0  0  0  0  0  0  0
 24 25  1  0  0  0
 25 26  1  0  0  0
 26 27  1  0  0  0
 27 23  1  0  0  0
 23  1  1  0  0  0
  1  2  2  0  0  0
  2  3  1  0  0  0
  3  4  2  0  0  0
  4  5  1  0  0  0
  5  6  2  0  0  0
  6  7  1  0  0  0
  7  8  2  0  0  0
  8  9  1  0  0  0
  9 10  2  0  0  0
  7 18  1  0  0  0
 18 19  1  0  0  0
 18 20  2  0  0  0
  5 11  1  0  0  0
 11 12  2  0  0  0
 12 13  1  0  0  0
 13 14  2  0  0  0
 14 15  1  0  0  0
 14 16  1  0  0  0
 16 17  2  0  0  0
 27 28  1  0  0  0
 28 29  1  0  0  0
 29 30  1  0  0  0
 29 31  1  0  0  0
 31 25  1  0  0  0
 10  1  1  0  0  0
 17 11  1  0  0  0
  9  4  1  0  0  0
 19 21  1  0  0  0
 19 22  1  0  0  0
M  END
> <minimizedAffinity>
28.52475

> <CNNscore>
0.4632556736

> <CNNaffinity>
5.9791178703

> <CNN_VS>
2.7698602676

> <CNNaffinity_variance>
0.2113407552

$$$$
[H]c1c([H])c(-c2c([H])c(C(=O)N([H])[H])nc3c([H])c(C([H])([H])N4C([H])([H])[C@@]([H])(C([H])([H])[H])O[C@]([H])(C([H])([H])[H])C4([H])[H])c([H])c([H])c23)c([H])c([H])c1F


 31 34  0  0  0  0  0  0  0  0999 V2000
   25.5711    8.4149   55.3118 C   0  0  0  0  0  0  0  0  0  0  0  0
   24.9350    7.2077   55.4010 C   0  0  0  0  0  0  0  0  0  0  0  0
   23.7198    6.9500   54.7689 C   0  0  0  0  0  0  0  0  0  0  0  0
   23.1400    7.9579   54.0237 C   0  0  0  0  0  0  0  0  0  0  0  0
   21.9502    7.7785   53.3871 C   0  0  0  0  0  0  0  0  0  0  0  0
   21.4307    8.8665   52.6621 C   0  0  0  0  0  0  0  0  0  0  0  0
   22.0460   10.0700   52.5638 C   0  0  0  0  0  0  0  0  0  0  0  0
   23.2161   10.2253   53.1959 N   0  0  0  0  0  0  0  0  0  0  0  0
   23.7525    9.1946   53.9098 C   0  0  0  0  0  0  0  0  0  0  0  0
   24.9618    9.3845   54.5650 C   0  0  0  0  0  0  0  0  0  0  0  0
   21.2246    6.5176   53.3914 C   0  0  0  0  0  0  0  0  0  0  0  0
   21.7979    5.2746   53.4504 C   0  0  0  0  0  0  0  0  0  0  0  0
   21.0675    4.1045   53.4519 C   0  0  0  0  0  0  0  0  0  0  0  0
   19.6887    4.1496   53.3922 C   0  0  0  0  0  0  0  0  0  0  0  0
   18.9819    2.9913   53.3944 F   0  0  0  0  0  0  0  0  0  0  0  0
   19.0840    5.3868   53.3320 C   0  0  0  0  0  0  0  0  0  0  0  0
   19.8262    6.5463   53.3312 C   0  0  0  0  0  0  0  0  0  0  0  0
   21.4285   11.1371   51.7889 C   0  0  0  0  0  0  0  0  0  0  0  0
   21.6738   12.4796   52.1505 N   0  0  0  0  0  0  0  0  0  0  0  0
   20.6880   10.8820   50.8128 O   0  0  0  0  0  0  0  0  0  0  0  0
   21.2424   12.8659   53.0245 H   0  0  0  0  0  0  0  0  0  0  0  0
   22.2689   13.1335   51.5970 H   0  0  0  0  0  0  0  0  0  0  0  0
   26.8643    8.7017   55.9863 C   0  0  0  0  0  0  0  0  0  0  0  0
   28.2431   11.9787   58.8957 C   0  0  0  0  0  0  0  0  0  0  0  0
   28.6816   11.0780   57.7519 C   0  0  0  0  0  0  0  0  0  0  0  0
   27.5700   10.8872   56.7445 C   0  0  0  0  0  0  0  0  0  0  0  0
   26.7963    9.7063   56.9933 N   0  0  0  0  0  0  0  0  0  0  0  0
   26.8709    9.2268   58.3286 C   0  0  0  0  0  0  0  0  0  0  0  0
   28.2676    9.0911   58.8617 C   0  0  0  0  0  0  0  0  0  0  0  0
   28.7079    7.6531   58.7054 C   0  0  0  0  0  0  0  0  0  0  0  0
   29.1919    9.8820   58.2081 O   0  0  0  0  0  0  0  0  0  0  0  0
 24 25  1  0  0  0
 25 26  1  0  0  0
 26 27  1  0  0  0
 27 23  1  0  0  0
 23  1  1  0  0  0
  1  2  2  0  0  0
  2  3  1  0  0  0
  3  4  2  0  0  0
  4  5  1  0  0  0
  5  6  2  0  0  0
  6  7  1  0  0  0
  7  8  2  0  0  0
  8  9  1  0  0  0
  9 10  2  0  0  0
  7 18  1  0  0  0
 18 19  1  0  0  0
 18 20  2  0  0  0
  5 11  1  0  0  0
 11 12  2  0  0  0
 12 13  1  0  0  0
 13 14  2  0  0  0
 14 15  1  0  0  0
 14 16  1  0  0  0
 16 17  2  0  0  0
 27 28  1  0  0  0
 28 29  1  0  0  0
 29 30  1  0  0  0
 29 31  1  0  0  0
 31 25  1  0  0  0
 10  1  1  0  0  0
 17 11  1  0  0  0
  9  4  1  0  0  0
 19 21  1  0  0  0
 19 22  1  0  0  0
M  END
> <minimizedAffinity>
32.74022

> <CNNscore>
0.4619344473

> <CNNaffinity>
5.8357043266

> <CNN_VS>
2.6957128048

> <CNNaffinity_variance>
0.7716675997

$$$$
