[H]O[C@@]1([H])C([H])([H])C([H])([H])[C@]2([H])[C@]1(C([H])([H])[H])C([H])([H])C([H])([H])[C@]1([H])[C@]3(C([H])([H])[H])C(=C([H])C(=O)C([H])([H])C3([H])[H])C([H])([H])C([H])([H])[C@@]21[H]
     RDKit          3D

 49 52  0  0  0  0  0  0  0  0999 V2000
    2.6003    1.3949    0.7370 C   0  0  0  0  0  0  0  0  0  0  0  0
    2.3315    0.4990   -0.4424 C   0  0  2  0  0  0  0  0  0  0  0  0
    1.5103    1.1614   -1.4949 C   0  0  0  0  0  0  0  0  0  0  0  0
    0.1483    1.4556   -0.9170 C   0  0  0  0  0  0  0  0  0  0  0  0
   -0.5369    0.1560   -0.5507 C   0  0  1  0  0  0  0  0  0  0  0  0
    0.2754   -0.6369    0.4710 C   0  0  1  0  0  0  0  0  0  0  0  0
   -0.3169   -2.0384    0.5263 C   0  0  0  0  0  0  0  0  0  0  0  0
   -1.7749   -2.0482    0.8169 C   0  0  0  0  0  0  0  0  0  0  0  0
   -2.5405   -0.9871    0.1457 C   0  0  0  0  0  0  0  0  0  0  0  0
   -3.7658   -1.2727   -0.2625 C   0  0  0  0  0  0  0  0  0  0  0  0
   -4.6079   -0.3042   -0.9341 C   0  0  0  0  0  0  0  0  0  0  0  0
   -5.6066   -0.6232   -1.6118 O   0  0  0  0  0  0  0  0  0  0  0  0
   -4.2087    1.1393   -0.7699 C   0  0  0  0  0  0  0  0  0  0  0  0
   -2.7163    1.1869   -1.0278 C   0  0  0  0  0  0  0  0  0  0  0  0
   -1.9296    0.3620   -0.0560 C   0  0  2  0  0  0  0  0  0  0  0  0
   -1.9459    1.0713    1.2829 C   0  0  0  0  0  0  0  0  0  0  0  0
    1.6457   -0.7900   -0.0472 C   0  0  2  0  0  0  0  0  0  0  0  0
    2.6444   -1.3862    0.8737 C   0  0  0  0  0  0  0  0  0  0  0  0
    3.9631   -1.0731    0.1623 C   0  0  0  0  0  0  0  0  0  0  0  0
    3.6050   -0.1289   -0.9688 C   0  0  2  0  0  0  0  0  0  0  0  0
    4.5812    0.7519   -1.2889 O   0  0  0  0  0  0  0  0  0  0  0  0
    3.6756    1.2716    1.0471 H   0  0  0  0  0  0  0  0  0  0  0  0
    1.9625    1.2047    1.6015 H   0  0  0  0  0  0  0  0  0  0  0  0
    2.4819    2.4492    0.4115 H   0  0  0  0  0  0  0  0  0  0  0  0
    1.9872    2.1545   -1.7263 H   0  0  0  0  0  0  0  0  0  0  0  0
    1.4562    0.5158   -2.3781 H   0  0  0  0  0  0  0  0  0  0  0  0
   -0.4734    1.9510   -1.6671 H   0  0  0  0  0  0  0  0  0  0  0  0
    0.2714    2.1214   -0.0498 H   0  0  0  0  0  0  0  0  0  0  0  0
   -0.5888   -0.4547   -1.4753 H   0  0  0  0  0  0  0  0  0  0  0  0
    0.1940   -0.1895    1.4684 H   0  0  0  0  0  0  0  0  0  0  0  0
   -0.0876   -2.5040   -0.4691 H   0  0  0  0  0  0  0  0  0  0  0  0
    0.2474   -2.5825    1.3004 H   0  0  0  0  0  0  0  0  0  0  0  0
   -2.1698   -3.0559    0.5263 H   0  0  0  0  0  0  0  0  0  0  0  0
   -1.9002   -2.0016    1.9294 H   0  0  0  0  0  0  0  0  0  0  0  0
   -4.1853   -2.2671   -0.1012 H   0  0  0  0  0  0  0  0  0  0  0  0
   -4.4637    1.4087    0.2637 H   0  0  0  0  0  0  0  0  0  0  0  0
   -4.7180    1.7173   -1.5432 H   0  0  0  0  0  0  0  0  0  0  0  0
   -2.5697    0.8169   -2.0700 H   0  0  0  0  0  0  0  0  0  0  0  0
   -2.4147    2.2480   -0.9356 H   0  0  0  0  0  0  0  0  0  0  0  0
   -2.6695    1.9362    1.2729 H   0  0  0  0  0  0  0  0  0  0  0  0
   -2.2828    0.4031    2.1004 H   0  0  0  0  0  0  0  0  0  0  0  0
   -0.9566    1.5164    1.5155 H   0  0  0  0  0  0  0  0  0  0  0  0
    1.6091   -1.4204   -0.9702 H   0  0  0  0  0  0  0  0  0  0  0  0
    2.6340   -0.7940    1.8359 H   0  0  0  0  0  0  0  0  0  0  0  0
    2.5188   -2.4554    1.0564 H   0  0  0  0  0  0  0  0  0  0  0  0
    4.3735   -2.0337   -0.2265 H   0  0  0  0  0  0  0  0  0  0  0  0
    4.6899   -0.6220    0.8558 H   0  0  0  0  0  0  0  0  0  0  0  0
    3.3380   -0.7531   -1.8418 H   0  0  0  0  0  0  0  0  0  0  0  0
    4.6855    1.5297   -0.7163 H   0  0  0  0  0  0  0  0  0  0  0  0
  2  1  1  1
  2  3  1  0
  3  4  1  0
  4  5  1  0
  5  6  1  0
  6  7  1  0
  7  8  1  0
  8  9  1  0
  9 10  2  0
 10 11  1  0
 11 12  2  0
 11 13  1  0
 13 14  1  0
 14 15  1  0
 15 16  1  1
  6 17  1  0
 17 18  1  0
 18 19  1  0
 19 20  1  0
 20 21  1  0
 17  2  1  0
 20  2  1  0
 15  5  1  0
 15  9  1  0
  1 22  1  0
  1 23  1  0
  1 24  1  0
  3 25  1  0
  3 26  1  0
  4 27  1  0
  4 28  1  0
  5 29  1  6
  6 30  1  1
  7 31  1  0
  7 32  1  0
  8 33  1  0
  8 34  1  0
 10 35  1  0
 13 36  1  0
 13 37  1  0
 14 38  1  0
 14 39  1  0
 16 40  1  0
 16 41  1  0
 16 42  1  0
 17 43  1  6
 18 44  1  0
 18 45  1  0
 19 46  1  0
 19 47  1  0
 20 48  1  6
 21 49  1  0
M  END
$$$$
[H]O[C@@]1([H])C([H])([H])C([H])([H])[C@]2([H])[C@]1(C([H])([H])[H])C([H])([H])C([H])([H])[C@]1([H])[C@@]3(C([H])([H])[H])C(=C([H])C(=O)C([H])([H])C3([H])[H])C([H])([H])C([H])([H])[C@]12[H]
     RDKit          3D

 49 52  0  0  0  0  0  0  0  0999 V2000
    2.4635    1.3696    0.9946 C   0  0  0  0  0  0  0  0  0  0  0  0
    2.3057    0.6199   -0.2813 C   0  0  2  0  0  0  0  0  0  0  0  0
    1.5501    1.3576   -1.3464 C   0  0  0  0  0  0  0  0  0  0  0  0
    0.1081    1.4425   -0.8922 C   0  0  0  0  0  0  0  0  0  0  0  0
   -0.4952    0.0819   -0.7343 C   0  0  1  0  0  0  0  0  0  0  0  0
    0.2476   -0.6537    0.3796 C   0  0  1  0  0  0  0  0  0  0  0  0
   -0.2601   -2.0916    0.5023 C   0  0  0  0  0  0  0  0  0  0  0  0
   -1.7290   -2.2018    0.6696 C   0  0  0  0  0  0  0  0  0  0  0  0
   -2.4830   -0.9898    0.2943 C   0  0  0  0  0  0  0  0  0  0  0  0
   -3.7444   -0.8997    0.7416 C   0  0  0  0  0  0  0  0  0  0  0  0
   -4.5744    0.2523    0.4302 C   0  0  0  0  0  0  0  0  0  0  0  0
   -5.8127    0.1508    0.4519 O   0  0  0  0  0  0  0  0  0  0  0  0
   -3.9319    1.5256    0.0930 C   0  0  0  0  0  0  0  0  0  0  0  0
   -2.4200    1.4162    0.0814 C   0  0  0  0  0  0  0  0  0  0  0  0
   -1.9735    0.1074   -0.5200 C   0  0  1  0  0  0  0  0  0  0  0  0
   -2.6157   -0.0255   -1.9077 C   0  0  0  0  0  0  0  0  0  0  0  0
    1.6571   -0.7469   -0.0869 C   0  0  2  0  0  0  0  0  0  0  0  0
    2.6178   -1.3943    0.8227 C   0  0  0  0  0  0  0  0  0  0  0  0
    3.9727   -0.9314    0.2908 C   0  0  0  0  0  0  0  0  0  0  0  0
    3.6732    0.1505   -0.7313 C   0  0  2  0  0  0  0  0  0  0  0  0
    4.6121    1.1524   -0.7496 O   0  0  0  0  0  0  0  0  0  0  0  0
    3.5227    1.3184    1.3845 H   0  0  0  0  0  0  0  0  0  0  0  0
    1.8292    1.0301    1.8208 H   0  0  0  0  0  0  0  0  0  0  0  0
    2.2954    2.4710    0.8216 H   0  0  0  0  0  0  0  0  0  0  0  0
    1.9518    2.4060   -1.3607 H   0  0  0  0  0  0  0  0  0  0  0  0
    1.6732    0.8373   -2.2948 H   0  0  0  0  0  0  0  0  0  0  0  0
   -0.4368    2.0389   -1.6536 H   0  0  0  0  0  0  0  0  0  0  0  0
    0.1216    1.9983    0.0779 H   0  0  0  0  0  0  0  0  0  0  0  0
   -0.2601   -0.4913   -1.6632 H   0  0  0  0  0  0  0  0  0  0  0  0
    0.1361   -0.1279    1.3480 H   0  0  0  0  0  0  0  0  0  0  0  0
    0.0977   -2.6149   -0.4143 H   0  0  0  0  0  0  0  0  0  0  0  0
    0.2444   -2.5220    1.3813 H   0  0  0  0  0  0  0  0  0  0  0  0
   -2.0894   -3.0185   -0.0229 H   0  0  0  0  0  0  0  0  0  0  0  0
   -1.9923   -2.5654    1.6944 H   0  0  0  0  0  0  0  0  0  0  0  0
   -4.1588   -1.6849    1.3394 H   0  0  0  0  0  0  0  0  0  0  0  0
   -4.1871    2.2466    0.9240 H   0  0  0  0  0  0  0  0  0  0  0  0
   -4.3348    2.0016   -0.8219 H   0  0  0  0  0  0  0  0  0  0  0  0
   -2.0846    1.4774    1.1403 H   0  0  0  0  0  0  0  0  0  0  0  0
   -2.0379    2.3064   -0.4288 H   0  0  0  0  0  0  0  0  0  0  0  0
   -1.9040    0.3240   -2.6836 H   0  0  0  0  0  0  0  0  0  0  0  0
   -2.8129   -1.1041   -2.1378 H   0  0  0  0  0  0  0  0  0  0  0  0
   -3.5253    0.5595   -2.0119 H   0  0  0  0  0  0  0  0  0  0  0  0
    1.6740   -1.2531   -1.0647 H   0  0  0  0  0  0  0  0  0  0  0  0
    2.5491   -2.4993    0.8658 H   0  0  0  0  0  0  0  0  0  0  0  0
    2.5279   -1.0486    1.8830 H   0  0  0  0  0  0  0  0  0  0  0  0
    4.4352   -1.8169   -0.2121 H   0  0  0  0  0  0  0  0  0  0  0  0
    4.6461   -0.5983    1.0884 H   0  0  0  0  0  0  0  0  0  0  0  0
    3.5803   -0.3701   -1.7203 H   0  0  0  0  0  0  0  0  0  0  0  0
    5.3713    1.0080   -0.1232 H   0  0  0  0  0  0  0  0  0  0  0  0
  2  1  1  1
  2  3  1  0
  3  4  1  0
  4  5  1  0
  5  6  1  0
  6  7  1  0
  7  8  1  0
  8  9  1  0
  9 10  2  0
 10 11  1  0
 11 12  2  0
 11 13  1  0
 13 14  1  0
 14 15  1  0
 15 16  1  6
  6 17  1  0
 17 18  1  0
 18 19  1  0
 19 20  1  0
 20 21  1  0
 17  2  1  0
 20  2  1  0
 15  5  1  0
 15  9  1  0
  1 22  1  0
  1 23  1  0
  1 24  1  0
  3 25  1  0
  3 26  1  0
  4 27  1  0
  4 28  1  0
  5 29  1  6
  6 30  1  1
  7 31  1  0
  7 32  1  0
  8 33  1  0
  8 34  1  0
 10 35  1  0
 13 36  1  0
 13 37  1  0
 14 38  1  0
 14 39  1  0
 16 40  1  0
 16 41  1  0
 16 42  1  0
 17 43  1  6
 18 44  1  0
 18 45  1  0
 19 46  1  0
 19 47  1  0
 20 48  1  6
 21 49  1  0
M  END
$$$$
[H]C1=C2C([H])([H])C([H])([H])[C@@]3([H])[C@]4([H])C([H])([H])C([H])([H])C(=O)[C@@]4(C([H])([H])[H])C([H])([H])C([H])([H])[C@]3([H])[C@@]2(C([H])([H])[H])C([H])([H])C([H])([H])C1=O
     RDKit          3D

 47 50  0  0  0  0  0  0  0  0999 V2000
    2.6396    1.2197    0.9531 C   0  0  0  0  0  0  0  0  0  0  0  0
    2.3973    0.7670   -0.4636 C   0  0  2  0  0  0  0  0  0  0  0  0
    1.5004    1.7083   -1.1903 C   0  0  0  0  0  0  0  0  0  0  0  0
    0.0585    1.4268   -1.1366 C   0  0  0  0  0  0  0  0  0  0  0  0
   -0.4200    0.1692   -0.5425 C   0  0  1  0  0  0  0  0  0  0  0  0
    0.5806   -0.5825    0.3126 C   0  0  1  0  0  0  0  0  0  0  0  0
    0.1337   -1.9966    0.5570 C   0  0  0  0  0  0  0  0  0  0  0  0
   -1.2806   -2.1434    0.9939 C   0  0  0  0  0  0  0  0  0  0  0  0
   -2.1914   -1.0906    0.4737 C   0  0  0  0  0  0  0  0  0  0  0  0
   -3.4545   -1.4865    0.2593 C   0  0  0  0  0  0  0  0  0  0  0  0
   -4.4611   -0.5844   -0.2442 C   0  0  0  0  0  0  0  0  0  0  0  0
   -5.5573   -0.9581   -0.6885 O   0  0  0  0  0  0  0  0  0  0  0  0
   -4.1546    0.8633   -0.2228 C   0  0  0  0  0  0  0  0  0  0  0  0
   -2.7156    1.0067   -0.6775 C   0  0  0  0  0  0  0  0  0  0  0  0
   -1.7394    0.2983    0.2106 C   0  0  2  0  0  0  0  0  0  0  0  0
   -1.5800    1.0895    1.4819 C   0  0  0  0  0  0  0  0  0  0  0  0
    1.8180   -0.6297   -0.5366 C   0  0  2  0  0  0  0  0  0  0  0  0
    2.9282   -1.4611   -0.0121 C   0  0  0  0  0  0  0  0  0  0  0  0
    4.1567   -0.7973   -0.6492 C   0  0  0  0  0  0  0  0  0  0  0  0
    3.7018    0.5344   -1.1052 C   0  0  0  0  0  0  0  0  0  0  0  0
    4.2746    1.2859   -1.8507 O   0  0  0  0  0  0  0  0  0  0  0  0
    1.7712    1.8477    1.2604 H   0  0  0  0  0  0  0  0  0  0  0  0
    2.7266    0.4035    1.6756 H   0  0  0  0  0  0  0  0  0  0  0  0
    3.5214    1.8914    0.9729 H   0  0  0  0  0  0  0  0  0  0  0  0
    1.8789    1.7499   -2.2564 H   0  0  0  0  0  0  0  0  0  0  0  0
    1.7402    2.7420   -0.8001 H   0  0  0  0  0  0  0  0  0  0  0  0
   -0.4404    2.2735   -0.5752 H   0  0  0  0  0  0  0  0  0  0  0  0
   -0.3602    1.5492   -2.1819 H   0  0  0  0  0  0  0  0  0  0  0  0
   -0.6589   -0.5442   -1.3888 H   0  0  0  0  0  0  0  0  0  0  0  0
    0.7781   -0.0594    1.2582 H   0  0  0  0  0  0  0  0  0  0  0  0
    0.7903   -2.4104    1.3648 H   0  0  0  0  0  0  0  0  0  0  0  0
    0.3907   -2.5922   -0.3519 H   0  0  0  0  0  0  0  0  0  0  0  0
   -1.3979   -2.1615    2.1070 H   0  0  0  0  0  0  0  0  0  0  0  0
   -1.6216   -3.1660    0.6591 H   0  0  0  0  0  0  0  0  0  0  0  0
   -3.7681   -2.5167    0.4605 H   0  0  0  0  0  0  0  0  0  0  0  0
   -4.7752    1.4295   -0.9440 H   0  0  0  0  0  0  0  0  0  0  0  0
   -4.3247    1.3148    0.7715 H   0  0  0  0  0  0  0  0  0  0  0  0
   -2.6491    0.5341   -1.6834 H   0  0  0  0  0  0  0  0  0  0  0  0
   -2.5320    2.0823   -0.7620 H   0  0  0  0  0  0  0  0  0  0  0  0
   -0.5943    1.5687    1.5658 H   0  0  0  0  0  0  0  0  0  0  0  0
   -1.7887    0.4451    2.3660 H   0  0  0  0  0  0  0  0  0  0  0  0
   -2.3447    1.9188    1.5386 H   0  0  0  0  0  0  0  0  0  0  0  0
    1.6351   -0.8716   -1.5820 H   0  0  0  0  0  0  0  0  0  0  0  0
    2.8557   -2.4806   -0.4224 H   0  0  0  0  0  0  0  0  0  0  0  0
    3.0100   -1.5258    1.0686 H   0  0  0  0  0  0  0  0  0  0  0  0
    4.9358   -0.6443    0.1243 H   0  0  0  0  0  0  0  0  0  0  0  0
    4.5869   -1.4168   -1.4417 H   0  0  0  0  0  0  0  0  0  0  0  0
  2  1  1  1
  2  3  1  0
  3  4  1  0
  4  5  1  0
  5  6  1  0
  6  7  1  0
  7  8  1  0
  8  9  1  0
  9 10  2  0
 10 11  1  0
 11 12  2  0
 11 13  1  0
 13 14  1  0
 14 15  1  0
 15 16  1  1
  6 17  1  0
 17 18  1  0
 18 19  1  0
 19 20  1  0
 20 21  2  0
 17  2  1  0
 20  2  1  0
 15  5  1  0
 15  9  1  0
  1 22  1  0
  1 23  1  0
  1 24  1  0
  3 25  1  0
  3 26  1  0
  4 27  1  0
  4 28  1  0
  5 29  1  6
  6 30  1  1
  7 31  1  0
  7 32  1  0
  8 33  1  0
  8 34  1  0
 10 35  1  0
 13 36  1  0
 13 37  1  0
 14 38  1  0
 14 39  1  0
 16 40  1  0
 16 41  1  0
 16 42  1  0
 17 43  1  6
 18 44  1  0
 18 45  1  0
 19 46  1  0
 19 47  1  0
M  END
$$$$
[H]OC1([H])C([H])([H])C([H])([H])[C@]2([H])[C@]1(C([H])([H])[H])C([H])([H])C([H])([H])[C@]1([H])[C@]3(C([H])([H])[H])C(=C([H])C(=O)C([H])([H])C3([H])[H])C([H])([H])C([H])([H])[C@@]21[H]
     RDKit          3D

 49 52  0  0  0  0  0  0  0  0999 V2000
    2.5044    1.3065    0.8140 C   0  0  0  0  0  0  0  0  0  0  0  0
    2.3301    0.4741   -0.4278 C   0  0  2  0  0  0  0  0  0  0  0  0
    1.5139    1.1712   -1.4544 C   0  0  0  0  0  0  0  0  0  0  0  0
    0.1497    1.4554   -0.8510 C   0  0  0  0  0  0  0  0  0  0  0  0
   -0.5279    0.1517   -0.5077 C   0  0  1  0  0  0  0  0  0  0  0  0
    0.2938   -0.6825    0.4682 C   0  0  1  0  0  0  0  0  0  0  0  0
   -0.3694   -2.0662    0.4738 C   0  0  0  0  0  0  0  0  0  0  0  0
   -1.8029   -1.9756    0.9303 C   0  0  0  0  0  0  0  0  0  0  0  0
   -2.5587   -0.9603    0.1871 C   0  0  0  0  0  0  0  0  0  0  0  0
   -3.7841   -1.2592   -0.2568 C   0  0  0  0  0  0  0  0  0  0  0  0
   -4.5462   -0.2780   -0.9896 C   0  0  0  0  0  0  0  0  0  0  0  0
   -5.4997   -0.6177   -1.7314 O   0  0  0  0  0  0  0  0  0  0  0  0
   -4.1489    1.1555   -0.8247 C   0  0  0  0  0  0  0  0  0  0  0  0
   -2.6511    1.2067   -1.0419 C   0  0  0  0  0  0  0  0  0  0  0  0
   -1.9357    0.3591   -0.0440 C   0  0  2  0  0  0  0  0  0  0  0  0
   -1.9257    1.0912    1.2812 C   0  0  0  0  0  0  0  0  0  0  0  0
    1.6406   -0.8586   -0.1262 C   0  0  2  0  0  0  0  0  0  0  0  0
    2.6560   -1.5157    0.7361 C   0  0  0  0  0  0  0  0  0  0  0  0
    3.9657   -1.1405    0.0675 C   0  0  0  0  0  0  0  0  0  0  0  0
    3.6530   -0.0454   -0.9251 C   0  0  0  0  0  0  0  0  0  0  0  0
    4.6274    0.9212   -0.9920 O   0  0  0  0  0  0  0  0  0  0  0  0
    3.5761    1.3378    1.1399 H   0  0  0  0  0  0  0  0  0  0  0  0
    1.9306    0.9458    1.6666 H   0  0  0  0  0  0  0  0  0  0  0  0
    2.2387    2.3726    0.6108 H   0  0  0  0  0  0  0  0  0  0  0  0
    2.0038    2.1562   -1.6807 H   0  0  0  0  0  0  0  0  0  0  0  0
    1.4351    0.5451   -2.3629 H   0  0  0  0  0  0  0  0  0  0  0  0
   -0.4471    1.9446   -1.6252 H   0  0  0  0  0  0  0  0  0  0  0  0
    0.3020    2.1008    0.0305 H   0  0  0  0  0  0  0  0  0  0  0  0
   -0.5616   -0.4478   -1.4527 H   0  0  0  0  0  0  0  0  0  0  0  0
    0.2859   -0.2453    1.4784 H   0  0  0  0  0  0  0  0  0  0  0  0
   -0.2833   -2.4519   -0.5600 H   0  0  0  0  0  0  0  0  0  0  0  0
    0.2144   -2.6991    1.1443 H   0  0  0  0  0  0  0  0  0  0  0  0
   -2.2537   -2.9760    0.7666 H   0  0  0  0  0  0  0  0  0  0  0  0
   -1.8166   -1.8113    2.0281 H   0  0  0  0  0  0  0  0  0  0  0  0
   -4.1820   -2.2395   -0.0552 H   0  0  0  0  0  0  0  0  0  0  0  0
   -4.4237    1.4778    0.1945 H   0  0  0  0  0  0  0  0  0  0  0  0
   -4.6651    1.7545   -1.5922 H   0  0  0  0  0  0  0  0  0  0  0  0
   -2.4640    0.9044   -2.0940 H   0  0  0  0  0  0  0  0  0  0  0  0
   -2.3433    2.2699   -0.8735 H   0  0  0  0  0  0  0  0  0  0  0  0
   -2.5799    1.9891    1.2502 H   0  0  0  0  0  0  0  0  0  0  0  0
   -2.3065    0.4542    2.1176 H   0  0  0  0  0  0  0  0  0  0  0  0
   -0.9082    1.4392    1.5335 H   0  0  0  0  0  0  0  0  0  0  0  0
    1.5582   -1.4094   -1.0686 H   0  0  0  0  0  0  0  0  0  0  0  0
    2.5446   -2.6103    0.8176 H   0  0  0  0  0  0  0  0  0  0  0  0
    2.6966   -1.0616    1.7614 H   0  0  0  0  0  0  0  0  0  0  0  0
    4.7373   -0.8612    0.7935 H   0  0  0  0  0  0  0  0  0  0  0  0
    4.3122   -2.0581   -0.4828 H   0  0  0  0  0  0  0  0  0  0  0  0
    3.4537   -0.5240   -1.9214 H   0  0  0  0  0  0  0  0  0  0  0  0
    4.3613    1.8104   -0.6917 H   0  0  0  0  0  0  0  0  0  0  0  0
  2  1  1  1
  2  3  1  0
  3  4  1  0
  4  5  1  0
  5  6  1  0
  6  7  1  0
  7  8  1  0
  8  9  1  0
  9 10  2  0
 10 11  1  0
 11 12  2  0
 11 13  1  0
 13 14  1  0
 14 15  1  0
 15 16  1  1
  6 17  1  0
 17 18  1  0
 18 19  1  0
 19 20  1  0
 20 21  1  0
 17  2  1  0
 20  2  1  0
 15  5  1  0
 15  9  1  0
  1 22  1  0
  1 23  1  0
  1 24  1  0
  3 25  1  0
  3 26  1  0
  4 27  1  0
  4 28  1  0
  5 29  1  6
  6 30  1  1
  7 31  1  0
  7 32  1  0
  8 33  1  0
  8 34  1  0
 10 35  1  0
 13 36  1  0
 13 37  1  0
 14 38  1  0
 14 39  1  0
 16 40  1  0
 16 41  1  0
 16 42  1  0
 17 43  1  6
 18 44  1  0
 18 45  1  0
 19 46  1  0
 19 47  1  0
 20 48  1  0
 21 49  1  0
M  END
$$$$
[H]C#C[C@]1(O[H])C([H])([H])C([H])([H])[C@]2([H])[C@]1(C([H])([H])[H])C([H])([H])C([H])([H])[C@]1([H])c3c([H])c([H])c(O[H])c([H])c3C([H])([H])C([H])([H])[C@]12[H]
     RDKit          3D

 46 49  0  0  0  0  0  0  0  0999 V2000
    1.7068    0.6022   -1.6366 C   0  0  0  0  0  0  0  0  0  0  0  0
    1.9001   -0.2982   -0.4656 C   0  0  2  0  0  0  0  0  0  0  0  0
    1.2587   -1.6298   -0.6581 C   0  0  0  0  0  0  0  0  0  0  0  0
   -0.2243   -1.4684   -0.7962 C   0  0  0  0  0  0  0  0  0  0  0  0
   -0.8554   -0.6372    0.2739 C   0  0  1  0  0  0  0  0  0  0  0  0
   -0.0932    0.6670    0.5139 C   0  0  1  0  0  0  0  0  0  0  0  0
   -0.7573    1.4815    1.5610 C   0  0  0  0  0  0  0  0  0  0  0  0
   -2.2222    1.3213    1.7156 C   0  0  0  0  0  0  0  0  0  0  0  0
   -2.9114    0.6127    0.6328 C   0  0  0  0  0  0  0  0  0  0  0  0
   -4.2168    0.9181    0.3399 C   0  0  0  0  0  0  0  0  0  0  0  0
   -4.8958    0.2518   -0.6904 C   0  0  0  0  0  0  0  0  0  0  0  0
   -6.2135    0.5312   -1.0168 O   0  0  0  0  0  0  0  0  0  0  0  0
   -4.2353   -0.7270   -1.4190 C   0  0  0  0  0  0  0  0  0  0  0  0
   -2.9235   -1.0285   -1.1189 C   0  0  0  0  0  0  0  0  0  0  0  0
   -2.2600   -0.3537   -0.0871 C   0  0  0  0  0  0  0  0  0  0  0  0
    1.3047    0.2708    0.8234 C   0  0  2  0  0  0  0  0  0  0  0  0
    2.2408    1.3570    1.1658 C   0  0  0  0  0  0  0  0  0  0  0  0
    3.5922    0.6847    0.9600 C   0  0  0  0  0  0  0  0  0  0  0  0
    3.3584   -0.3611   -0.1105 C   0  0  2  0  0  0  0  0  0  0  0  0
    4.1282    0.0365   -1.2275 O   0  0  0  0  0  0  0  0  0  0  0  0
    3.7922   -1.6813    0.2744 C   0  0  0  0  0  0  0  0  0  0  0  0
    4.1565   -2.7808    0.5998 C   0  0  0  0  0  0  0  0  0  0  0  0
    1.8831    1.6629   -1.4324 H   0  0  0  0  0  0  0  0  0  0  0  0
    2.4789    0.3088   -2.4067 H   0  0  0  0  0  0  0  0  0  0  0  0
    0.7381    0.5066   -2.1459 H   0  0  0  0  0  0  0  0  0  0  0  0
    1.6383   -2.1092   -1.5700 H   0  0  0  0  0  0  0  0  0  0  0  0
    1.4458   -2.2423    0.2553 H   0  0  0  0  0  0  0  0  0  0  0  0
   -0.6751   -2.4817   -0.7436 H   0  0  0  0  0  0  0  0  0  0  0  0
   -0.5198   -1.0585   -1.7918 H   0  0  0  0  0  0  0  0  0  0  0  0
   -0.8292   -1.2283    1.2163 H   0  0  0  0  0  0  0  0  0  0  0  0
   -0.1340    1.2447   -0.4560 H   0  0  0  0  0  0  0  0  0  0  0  0
   -0.5264    2.5615    1.3310 H   0  0  0  0  0  0  0  0  0  0  0  0
   -0.2356    1.2869    2.5415 H   0  0  0  0  0  0  0  0  0  0  0  0
   -2.6954    2.3205    1.8761 H   0  0  0  0  0  0  0  0  0  0  0  0
   -2.4169    0.7749    2.6852 H   0  0  0  0  0  0  0  0  0  0  0  0
   -4.7959    1.6737    0.8697 H   0  0  0  0  0  0  0  0  0  0  0  0
   -7.0137    0.0853   -0.6242 H   0  0  0  0  0  0  0  0  0  0  0  0
   -4.7726   -1.2396   -2.2186 H   0  0  0  0  0  0  0  0  0  0  0  0
   -2.4235   -1.7786   -1.6800 H   0  0  0  0  0  0  0  0  0  0  0  0
    1.3081   -0.5277    1.5841 H   0  0  0  0  0  0  0  0  0  0  0  0
    2.1537    2.2272    0.5083 H   0  0  0  0  0  0  0  0  0  0  0  0
    2.1429    1.6990    2.2278 H   0  0  0  0  0  0  0  0  0  0  0  0
    3.9077    0.1971    1.9114 H   0  0  0  0  0  0  0  0  0  0  0  0
    4.3696    1.4220    0.6746 H   0  0  0  0  0  0  0  0  0  0  0  0
    4.8482    0.6699   -0.9591 H   0  0  0  0  0  0  0  0  0  0  0  0
    4.4940   -3.7438    0.8821 H   0  0  0  0  0  0  0  0  0  0  0  0
  2  1  1  6
  2  3  1  0
  3  4  1  0
  4  5  1  0
  5  6  1  0
  6  7  1  0
  7  8  1  0
  8  9  1  0
  9 10  2  0
 10 11  1  0
 11 12  1  0
 11 13  2  0
 13 14  1  0
 14 15  2  0
  6 16  1  0
 16 17  1  0
 17 18  1  0
 18 19  1  0
 19 20  1  0
 19 21  1  1
 21 22  3  0
 16  2  1  0
 19  2  1  0
 15  5  1  0
 15  9  1  0
  1 23  1  0
  1 24  1  0
  1 25  1  0
  3 26  1  0
  3 27  1  0
  4 28  1  0
  4 29  1  0
  5 30  1  1
  6 31  1  6
  7 32  1  0
  7 33  1  0
  8 34  1  0
  8 35  1  0
 10 36  1  0
 12 37  1  0
 13 38  1  0
 14 39  1  0
 16 40  1  1
 17 41  1  0
 17 42  1  0
 18 43  1  0
 18 44  1  0
 20 45  1  0
 22 46  1  0
M  END
$$$$
[H]Oc1c([H])c([H])c2c(c1[H])C([H])([H])C([H])([H])[C@]1([H])[C@]2([H])C([H])([H])C([H])([H])[C@]2(C([H])([H])[H])[C@@]([H])(O[H])C([H])([H])C([H])([H])[C@]21[H]
     RDKit          3D

 44 47  0  0  0  0  0  0  0  0999 V2000
   -2.2616   -0.7647    1.3456 C   0  0  0  0  0  0  0  0  0  0  0  0
   -2.1872   -0.4820   -0.1355 C   0  0  2  0  0  0  0  0  0  0  0  0
   -1.4972   -1.6125   -0.8188 C   0  0  0  0  0  0  0  0  0  0  0  0
   -0.0355   -1.6614   -0.5111 C   0  0  0  0  0  0  0  0  0  0  0  0
    0.6317   -0.3276   -0.6087 C   0  0  1  0  0  0  0  0  0  0  0  0
   -0.1167    0.7120    0.2397 C   0  0  1  0  0  0  0  0  0  0  0  0
    0.6973    1.9517    0.3346 C   0  0  0  0  0  0  0  0  0  0  0  0
    1.8991    1.6281    1.2348 C   0  0  0  0  0  0  0  0  0  0  0  0
    2.6681    0.5258    0.5618 C   0  0  0  0  0  0  0  0  0  0  0  0
    4.0208    0.4137    0.8075 C   0  0  0  0  0  0  0  0  0  0  0  0
    4.8096   -0.5725    0.2292 C   0  0  0  0  0  0  0  0  0  0  0  0
    6.1817   -0.6599    0.4990 O   0  0  0  0  0  0  0  0  0  0  0  0
    4.1863   -1.4604   -0.6201 C   0  0  0  0  0  0  0  0  0  0  0  0
    2.8307   -1.3536   -0.8705 C   0  0  0  0  0  0  0  0  0  0  0  0
    2.0522   -0.3730   -0.2941 C   0  0  0  0  0  0  0  0  0  0  0  0
   -1.4489    0.8431   -0.3896 C   0  0  2  0  0  0  0  0  0  0  0  0
   -2.3800    1.8245    0.1898 C   0  0  0  0  0  0  0  0  0  0  0  0
   -3.7490    1.2757   -0.1912 C   0  0  0  0  0  0  0  0  0  0  0  0
   -3.5339   -0.1411   -0.6696 C   0  0  2  0  0  0  0  0  0  0  0  0
   -4.4822   -1.0192   -0.1693 O   0  0  0  0  0  0  0  0  0  0  0  0
   -3.3190   -1.0974    1.5551 H   0  0  0  0  0  0  0  0  0  0  0  0
   -1.6242   -1.6159    1.6570 H   0  0  0  0  0  0  0  0  0  0  0  0
   -2.0942    0.1160    1.9735 H   0  0  0  0  0  0  0  0  0  0  0  0
   -1.7135   -1.6572   -1.9098 H   0  0  0  0  0  0  0  0  0  0  0  0
   -1.9450   -2.5631   -0.4048 H   0  0  0  0  0  0  0  0  0  0  0  0
    0.1510   -2.1510    0.4861 H   0  0  0  0  0  0  0  0  0  0  0  0
    0.4339   -2.3403   -1.2525 H   0  0  0  0  0  0  0  0  0  0  0  0
    0.5187    0.0259   -1.6572 H   0  0  0  0  0  0  0  0  0  0  0  0
   -0.1882    0.2644    1.2522 H   0  0  0  0  0  0  0  0  0  0  0  0
    1.1649    2.2436   -0.6508 H   0  0  0  0  0  0  0  0  0  0  0  0
    0.1574    2.7804    0.7893 H   0  0  0  0  0  0  0  0  0  0  0  0
    2.5196    2.5130    1.4035 H   0  0  0  0  0  0  0  0  0  0  0  0
    1.4780    1.1823    2.1542 H   0  0  0  0  0  0  0  0  0  0  0  0
    4.5228    1.1037    1.4718 H   0  0  0  0  0  0  0  0  0  0  0  0
    6.5756    0.0194    1.1283 H   0  0  0  0  0  0  0  0  0  0  0  0
    4.7934   -2.2292   -1.0728 H   0  0  0  0  0  0  0  0  0  0  0  0
    2.4286   -2.0954   -1.5517 H   0  0  0  0  0  0  0  0  0  0  0  0
   -1.3743    0.9848   -1.4780 H   0  0  0  0  0  0  0  0  0  0  0  0
   -2.2899    2.0186    1.2621 H   0  0  0  0  0  0  0  0  0  0  0  0
   -2.2758    2.8067   -0.3367 H   0  0  0  0  0  0  0  0  0  0  0  0
   -4.1755    1.8381   -1.0706 H   0  0  0  0  0  0  0  0  0  0  0  0
   -4.4356    1.2437    0.6584 H   0  0  0  0  0  0  0  0  0  0  0  0
   -3.4818   -0.1892   -1.7851 H   0  0  0  0  0  0  0  0  0  0  0  0
   -4.1124   -1.9488   -0.1478 H   0  0  0  0  0  0  0  0  0  0  0  0
  2  1  1  1
  2  3  1  0
  3  4  1  0
  4  5  1  0
  5  6  1  0
  6  7  1  0
  7  8  1  0
  8  9  1  0
  9 10  2  0
 10 11  1  0
 11 12  1  0
 11 13  2  0
 13 14  1  0
 14 15  2  0
  6 16  1  0
 16 17  1  0
 17 18  1  0
 18 19  1  0
 19 20  1  0
 16  2  1  0
 19  2  1  0
 15  5  1  0
 15  9  1  0
  1 21  1  0
  1 22  1  0
  1 23  1  0
  3 24  1  0
  3 25  1  0
  4 26  1  0
  4 27  1  0
  5 28  1  6
  6 29  1  1
  7 30  1  0
  7 31  1  0
  8 32  1  0
  8 33  1  0
 10 34  1  0
 12 35  1  0
 13 36  1  0
 14 37  1  0
 16 38  1  6
 17 39  1  0
 17 40  1  0
 18 41  1  0
 18 42  1  0
 19 43  1  6
 20 44  1  0
M  END
$$$$
[H]O[C@@]1([H])C([H])([H])C([H])([H])[C@]2([H])[C@]1(C([H])([H])[H])C([H])([H])C([H])([H])[C@]1([H])[C@]3([H])C(=C([H])C(=O)C([H])([H])C3([H])[H])C([H])([H])C([H])([H])[C@@]21[H]
     RDKit          3D

 46 49  0  0  0  0  0  0  0  0999 V2000
    2.5880    1.2762    1.0752 C   0  0  0  0  0  0  0  0  0  0  0  0
    2.1587    0.6304   -0.2204 C   0  0  2  0  0  0  0  0  0  0  0  0
    1.3387    1.5512   -1.0337 C   0  0  0  0  0  0  0  0  0  0  0  0
   -0.1184    1.5810   -0.6680 C   0  0  0  0  0  0  0  0  0  0  0  0
   -0.7031    0.2581   -0.3304 C   0  0  1  0  0  0  0  0  0  0  0  0
    0.1291   -0.5428    0.6522 C   0  0  1  0  0  0  0  0  0  0  0  0
   -0.5042   -1.9278    0.7543 C   0  0  0  0  0  0  0  0  0  0  0  0
   -1.8820   -1.8018    1.3575 C   0  0  0  0  0  0  0  0  0  0  0  0
   -2.6554   -0.8548    0.5090 C   0  0  0  0  0  0  0  0  0  0  0  0
   -3.8048   -1.2509    0.0219 C   0  0  0  0  0  0  0  0  0  0  0  0
   -4.5670   -0.3302   -0.8086 C   0  0  0  0  0  0  0  0  0  0  0  0
   -5.3146   -0.7324   -1.7321 O   0  0  0  0  0  0  0  0  0  0  0  0
   -4.3996    1.1327   -0.4870 C   0  0  0  0  0  0  0  0  0  0  0  0
   -2.9090    1.3786   -0.5748 C   0  0  0  0  0  0  0  0  0  0  0  0
   -2.0819    0.4757    0.2649 C   0  0  2  0  0  0  0  0  0  0  0  0
    1.4576   -0.6969    0.0229 C   0  0  2  0  0  0  0  0  0  0  0  0
    2.4889   -1.4464    0.7544 C   0  0  0  0  0  0  0  0  0  0  0  0
    3.7752   -1.0421    0.0304 C   0  0  0  0  0  0  0  0  0  0  0  0
    3.3834    0.0904   -0.9032 C   0  0  2  0  0  0  0  0  0  0  0  0
    4.3842    1.0233   -1.0611 O   0  0  0  0  0  0  0  0  0  0  0  0
    1.7533    1.5417    1.7252 H   0  0  0  0  0  0  0  0  0  0  0  0
    3.3099    0.6562    1.6377 H   0  0  0  0  0  0  0  0  0  0  0  0
    3.1188    2.2116    0.8043 H   0  0  0  0  0  0  0  0  0  0  0  0
    1.5075    1.3525   -2.1108 H   0  0  0  0  0  0  0  0  0  0  0  0
    1.7251    2.5975   -0.8609 H   0  0  0  0  0  0  0  0  0  0  0  0
   -0.6666    1.9869   -1.5431 H   0  0  0  0  0  0  0  0  0  0  0  0
   -0.3307    2.2818    0.1724 H   0  0  0  0  0  0  0  0  0  0  0  0
   -0.8249   -0.3869   -1.2413 H   0  0  0  0  0  0  0  0  0  0  0  0
    0.1373   -0.0373    1.6237 H   0  0  0  0  0  0  0  0  0  0  0  0
    0.1313   -2.5986    1.3572 H   0  0  0  0  0  0  0  0  0  0  0  0
   -0.5978   -2.3391   -0.2647 H   0  0  0  0  0  0  0  0  0  0  0  0
   -1.7768   -1.3733    2.3760 H   0  0  0  0  0  0  0  0  0  0  0  0
   -2.3520   -2.8012    1.3954 H   0  0  0  0  0  0  0  0  0  0  0  0
   -4.2151   -2.2452    0.2128 H   0  0  0  0  0  0  0  0  0  0  0  0
   -4.7838    1.3660    0.5088 H   0  0  0  0  0  0  0  0  0  0  0  0
   -4.8690    1.7374   -1.3036 H   0  0  0  0  0  0  0  0  0  0  0  0
   -2.6526    1.3319   -1.6626 H   0  0  0  0  0  0  0  0  0  0  0  0
   -2.7481    2.4303   -0.2383 H   0  0  0  0  0  0  0  0  0  0  0  0
   -1.8775    0.9284    1.2820 H   0  0  0  0  0  0  0  0  0  0  0  0
    1.3205   -1.1557   -0.9844 H   0  0  0  0  0  0  0  0  0  0  0  0
    2.3542   -2.5565    0.6387 H   0  0  0  0  0  0  0  0  0  0  0  0
    2.5607   -1.2582    1.8278 H   0  0  0  0  0  0  0  0  0  0  0  0
    4.1627   -1.9060   -0.5603 H   0  0  0  0  0  0  0  0  0  0  0  0
    4.5680   -0.7488    0.7277 H   0  0  0  0  0  0  0  0  0  0  0  0
    3.0575   -0.3791   -1.8531 H   0  0  0  0  0  0  0  0  0  0  0  0
    5.2241    0.5921   -1.2901 H   0  0  0  0  0  0  0  0  0  0  0  0
  2  1  1  1
  2  3  1  0
  3  4  1  0
  4  5  1  0
  5  6  1  0
  6  7  1  0
  7  8  1  0
  8  9  1  0
  9 10  2  0
 10 11  1  0
 11 12  2  0
 11 13  1  0
 13 14  1  0
 14 15  1  0
  6 16  1  0
 16 17  1  0
 17 18  1  0
 18 19  1  0
 19 20  1  0
 16  2  1  0
 19  2  1  0
 15  5  1  0
 15  9  1  0
  1 21  1  0
  1 22  1  0
  1 23  1  0
  3 24  1  0
  3 25  1  0
  4 26  1  0
  4 27  1  0
  5 28  1  6
  6 29  1  1
  7 30  1  0
  7 31  1  0
  8 32  1  0
  8 33  1  0
 10 34  1  0
 13 35  1  0
 13 36  1  0
 14 37  1  0
 14 38  1  0
 15 39  1  1
 16 40  1  6
 17 41  1  0
 17 42  1  0
 18 43  1  0
 18 44  1  0
 19 45  1  6
 20 46  1  0
M  END
$$$$
[H]C#C[C@]1(O[H])C([H])([H])C([H])([H])[C@]2([H])[C@]1(C([H])([H])[H])C([H])([H])C([H])([H])[C@]1([H])C3(C([H])([H])[H])C(=C([H])C(=O)C([H])([H])C3([H])[H])C([H])([H])C([H])([H])[C@]12[H]
     RDKit          3D

 51 54  0  0  0  0  0  0  0  0999 V2000
    1.7768   -1.1211    1.6164 C   0  0  0  0  0  0  0  0  0  0  0  0
    2.1181   -0.0356    0.6303 C   0  0  2  0  0  0  0  0  0  0  0  0
    1.5636    1.2681    1.0596 C   0  0  0  0  0  0  0  0  0  0  0  0
    0.0747    1.2149    1.1629 C   0  0  0  0  0  0  0  0  0  0  0  0
   -0.6206    0.5292    0.0359 C   0  0  1  0  0  0  0  0  0  0  0  0
    0.1001   -0.7198   -0.4545 C   0  0  1  0  0  0  0  0  0  0  0  0
   -0.6707   -1.1717   -1.7021 C   0  0  0  0  0  0  0  0  0  0  0  0
   -1.9387   -1.8111   -1.1733 C   0  0  0  0  0  0  0  0  0  0  0  0
   -2.7160   -0.7267   -0.4805 C   0  0  0  0  0  0  0  0  0  0  0  0
   -4.0304   -0.6992   -0.6358 C   0  0  0  0  0  0  0  0  0  0  0  0
   -4.8676    0.3167   -0.0015 C   0  0  0  0  0  0  0  0  0  0  0  0
   -6.0973    0.1538    0.1201 O   0  0  0  0  0  0  0  0  0  0  0  0
   -4.2298    1.5556    0.5007 C   0  0  0  0  0  0  0  0  0  0  0  0
   -2.7810    1.6332    0.1255 C   0  0  0  0  0  0  0  0  0  0  0  0
   -2.0592    0.2988    0.3607 C   0  0  0  0  0  0  0  0  0  0  0  0
   -2.2653   -0.1095    1.8057 C   0  0  0  0  0  0  0  0  0  0  0  0
    1.4778   -0.3038   -0.7422 C   0  0  2  0  0  0  0  0  0  0  0  0
    2.4117   -1.2650   -1.3294 C   0  0  0  0  0  0  0  0  0  0  0  0
    3.7454   -0.5356   -1.0843 C   0  0  0  0  0  0  0  0  0  0  0  0
    3.5701   -0.0778    0.3491 C   0  0  2  0  0  0  0  0  0  0  0  0
    4.2195   -1.0527    1.1401 O   0  0  0  0  0  0  0  0  0  0  0  0
    4.2621    1.1772    0.6092 C   0  0  0  0  0  0  0  0  0  0  0  0
    4.8281    2.2152    0.8350 C   0  0  0  0  0  0  0  0  0  0  0  0
    0.8685   -0.8917    2.2022 H   0  0  0  0  0  0  0  0  0  0  0  0
    2.6114   -1.1447    2.3726 H   0  0  0  0  0  0  0  0  0  0  0  0
    1.7627   -2.1236    1.1537 H   0  0  0  0  0  0  0  0  0  0  0  0
    1.9401    2.0731    0.3983 H   0  0  0  0  0  0  0  0  0  0  0  0
    1.9641    1.4996    2.0790 H   0  0  0  0  0  0  0  0  0  0  0  0
   -0.2843    2.2874    1.1551 H   0  0  0  0  0  0  0  0  0  0  0  0
   -0.2143    0.8364    2.1693 H   0  0  0  0  0  0  0  0  0  0  0  0
   -0.5960    1.2385   -0.8421 H   0  0  0  0  0  0  0  0  0  0  0  0
    0.0065   -1.5537    0.2676 H   0  0  0  0  0  0  0  0  0  0  0  0
   -0.8877   -0.3100   -2.3648 H   0  0  0  0  0  0  0  0  0  0  0  0
   -0.0885   -1.9508   -2.2504 H   0  0  0  0  0  0  0  0  0  0  0  0
   -1.6083   -2.5633   -0.4083 H   0  0  0  0  0  0  0  0  0  0  0  0
   -2.5592   -2.2606   -1.9579 H   0  0  0  0  0  0  0  0  0  0  0  0
   -4.4809   -1.4741   -1.2652 H   0  0  0  0  0  0  0  0  0  0  0  0
   -4.3521    1.6731    1.5869 H   0  0  0  0  0  0  0  0  0  0  0  0
   -4.7470    2.4044   -0.0352 H   0  0  0  0  0  0  0  0  0  0  0  0
   -2.2927    2.4633    0.6423 H   0  0  0  0  0  0  0  0  0  0  0  0
   -2.7424    1.7836   -0.9869 H   0  0  0  0  0  0  0  0  0  0  0  0
   -1.5280   -0.8562    2.1425 H   0  0  0  0  0  0  0  0  0  0  0  0
   -2.2397    0.8330    2.4090 H   0  0  0  0  0  0  0  0  0  0  0  0
   -3.2647   -0.5743    1.9489 H   0  0  0  0  0  0  0  0  0  0  0  0
    1.4754    0.6428   -1.3056 H   0  0  0  0  0  0  0  0  0  0  0  0
    2.3119   -1.3759   -2.4405 H   0  0  0  0  0  0  0  0  0  0  0  0
    2.4285   -2.2357   -0.8321 H   0  0  0  0  0  0  0  0  0  0  0  0
    4.6027   -1.1880   -1.2323 H   0  0  0  0  0  0  0  0  0  0  0  0
    3.7460    0.3714   -1.7343 H   0  0  0  0  0  0  0  0  0  0  0  0
    4.9525   -1.4685    0.6181 H   0  0  0  0  0  0  0  0  0  0  0  0
    5.3440    3.1315    1.0477 H   0  0  0  0  0  0  0  0  0  0  0  0
  2  1  1  1
  2  3  1  0
  3  4  1  0
  4  5  1  0
  5  6  1  0
  6  7  1  0
  7  8  1  0
  8  9  1  0
  9 10  2  0
 10 11  1  0
 11 12  2  0
 11 13  1  0
 13 14  1  0
 14 15  1  0
 15 16  1  0
  6 17  1  0
 17 18  1  0
 18 19  1  0
 19 20  1  0
 20 21  1  0
 20 22  1  6
 22 23  3  0
 17  2  1  0
 20  2  1  0
 15  5  1  0
 15  9  1  0
  1 24  1  0
  1 25  1  0
  1 26  1  0
  3 27  1  0
  3 28  1  0
  4 29  1  0
  4 30  1  0
  5 31  1  6
  6 32  1  1
  7 33  1  0
  7 34  1  0
  8 35  1  0
  8 36  1  0
 10 37  1  0
 13 38  1  0
 13 39  1  0
 14 40  1  0
 14 41  1  0
 16 42  1  0
 16 43  1  0
 16 44  1  0
 17 45  1  6
 18 46  1  0
 18 47  1  0
 19 48  1  0
 19 49  1  0
 21 50  1  0
 23 51  1  0
M  END
$$$$
[H]O[C@@]1([H])C([H])([H])C([H])([H])[C@]2(C([H])([H])[H])C3([H])C([H])([H])C([H])([H])[C@@]4(C([H])([H])[H])C([H])(C([H])([H])C([H])([H])[C@]4([H])O[H])C3([H])C([H])([H])C([H])([H])C2([H])C1([H])[H]
     RDKit          3D

 53 56  0  0  0  0  0  0  0  0999 V2000
    3.1167   -1.1483   -0.6866 C   0  0  0  0  0  0  0  0  0  0  0  0
    2.6694   -0.0890    0.2703 C   0  0  2  0  0  0  0  0  0  0  0  0
    1.9021   -0.6094    1.4346 C   0  0  0  0  0  0  0  0  0  0  0  0
    0.3955   -0.3407    1.3162 C   0  0  0  0  0  0  0  0  0  0  0  0
   -0.0458   -0.5980   -0.1325 C   0  0  0  0  0  0  0  0  0  0  0  0
    0.6163    0.3660   -1.0462 C   0  0  0  0  0  0  0  0  0  0  0  0
   -0.2426    1.4827   -1.5421 C   0  0  0  0  0  0  0  0  0  0  0  0
   -1.4440    1.7111   -0.7015 C   0  0  0  0  0  0  0  0  0  0  0  0
   -2.2599    0.4081   -0.7877 C   0  0  0  0  0  0  0  0  0  0  0  0
   -3.5822    0.6877   -0.1757 C   0  0  0  0  0  0  0  0  0  0  0  0
   -4.3038   -0.4347    0.4504 C   0  0  1  0  0  0  0  0  0  0  0  0
   -5.3883   -0.8595   -0.3595 O   0  0  0  0  0  0  0  0  0  0  0  0
   -3.5125   -1.6443    0.7664 C   0  0  0  0  0  0  0  0  0  0  0  0
   -2.0651   -1.2777    1.0545 C   0  0  0  0  0  0  0  0  0  0  0  0
   -1.5087   -0.7594   -0.2806 C   0  0  2  0  0  0  0  0  0  0  0  0
   -1.7884   -1.9406   -1.2334 C   0  0  0  0  0  0  0  0  0  0  0  0
    1.7980    0.9687   -0.3696 C   0  0  0  0  0  0  0  0  0  0  0  0
    2.7059    1.7637   -1.2160 C   0  0  0  0  0  0  0  0  0  0  0  0
    4.0466    1.6429   -0.5268 C   0  0  0  0  0  0  0  0  0  0  0  0
    3.8762    0.7415    0.6586 C   0  0  2  0  0  0  0  0  0  0  0  0
    5.0234   -0.0276    0.8064 O   0  0  0  0  0  0  0  0  0  0  0  0
    2.8741   -0.9468   -1.7404 H   0  0  0  0  0  0  0  0  0  0  0  0
    2.7588   -2.1680   -0.3568 H   0  0  0  0  0  0  0  0  0  0  0  0
    4.2419   -1.2507   -0.6578 H   0  0  0  0  0  0  0  0  0  0  0  0
    2.2582   -0.0950    2.3549 H   0  0  0  0  0  0  0  0  0  0  0  0
    2.0737   -1.6982    1.5159 H   0  0  0  0  0  0  0  0  0  0  0  0
   -0.0528   -1.0878    2.0034 H   0  0  0  0  0  0  0  0  0  0  0  0
    0.1184    0.6440    1.6774 H   0  0  0  0  0  0  0  0  0  0  0  0
    0.4267   -1.6082   -0.3414 H   0  0  0  0  0  0  0  0  0  0  0  0
    1.0062   -0.1620   -1.9677 H   0  0  0  0  0  0  0  0  0  0  0  0
   -0.5951    1.3034   -2.5934 H   0  0  0  0  0  0  0  0  0  0  0  0
    0.3359    2.4453   -1.6096 H   0  0  0  0  0  0  0  0  0  0  0  0
   -1.2776    2.0359    0.3165 H   0  0  0  0  0  0  0  0  0  0  0  0
   -2.0896    2.4643   -1.2436 H   0  0  0  0  0  0  0  0  0  0  0  0
   -2.4034    0.2879   -1.8847 H   0  0  0  0  0  0  0  0  0  0  0  0
   -3.4751    1.5046    0.5953 H   0  0  0  0  0  0  0  0  0  0  0  0
   -4.2570    1.1544   -0.9413 H   0  0  0  0  0  0  0  0  0  0  0  0
   -4.8115   -0.1132    1.4093 H   0  0  0  0  0  0  0  0  0  0  0  0
   -5.9866   -0.0560   -0.4440 H   0  0  0  0  0  0  0  0  0  0  0  0
   -3.5553   -2.4293   -0.0149 H   0  0  0  0  0  0  0  0  0  0  0  0
   -3.8850   -2.1399    1.6981 H   0  0  0  0  0  0  0  0  0  0  0  0
   -1.5609   -2.2417    1.2696 H   0  0  0  0  0  0  0  0  0  0  0  0
   -2.0056   -0.5350    1.8465 H   0  0  0  0  0  0  0  0  0  0  0  0
   -1.6907   -2.9011   -0.7171 H   0  0  0  0  0  0  0  0  0  0  0  0
   -0.9633   -1.9026   -1.9939 H   0  0  0  0  0  0  0  0  0  0  0  0
   -2.7216   -1.7969   -1.7780 H   0  0  0  0  0  0  0  0  0  0  0  0
    1.4362    1.6209    0.4670 H   0  0  0  0  0  0  0  0  0  0  0  0
    2.4353    2.8458   -1.1905 H   0  0  0  0  0  0  0  0  0  0  0  0
    2.7416    1.4758   -2.2839 H   0  0  0  0  0  0  0  0  0  0  0  0
    4.4388    2.6187   -0.1760 H   0  0  0  0  0  0  0  0  0  0  0  0
    4.7688    1.2613   -1.2665 H   0  0  0  0  0  0  0  0  0  0  0  0
    3.7097    1.2837    1.6111 H   0  0  0  0  0  0  0  0  0  0  0  0
    5.6978    0.1430    0.0984 H   0  0  0  0  0  0  0  0  0  0  0  0
  2  1  1  6
  2  3  1  0
  3  4  1  0
  4  5  1  0
  5  6  1  0
  6  7  1  0
  7  8  1  0
  8  9  1  0
  9 10  1  0
 10 11  1  0
 11 12  1  0
 11 13  1  0
 13 14  1  0
 14 15  1  0
 15 16  1  6
  6 17  1  0
 17 18  1  0
 18 19  1  0
 19 20  1  0
 20 21  1  0
 17  2  1  0
 20  2  1  0
 15  5  1  0
 15  9  1  0
  1 22  1  0
  1 23  1  0
  1 24  1  0
  3 25  1  0
  3 26  1  0
  4 27  1  0
  4 28  1  0
  5 29  1  0
  6 30  1  0
  7 31  1  0
  7 32  1  0
  8 33  1  0
  8 34  1  0
  9 35  1  0
 10 36  1  0
 10 37  1  0
 11 38  1  1
 12 39  1  0
 13 40  1  0
 13 41  1  0
 14 42  1  0
 14 43  1  0
 16 44  1  0
 16 45  1  0
 16 46  1  0
 17 47  1  0
 18 48  1  0
 18 49  1  0
 19 50  1  0
 19 51  1  0
 20 52  1  1
 21 53  1  0
M  END
$$$$
[H]O[C@]1([H])C([H])([H])C([H])([H])[C@]2([H])[C@]1(C([H])([H])[H])C([H])([H])C([H])([H])[C@]1([H])[C@]3(C([H])([H])[H])C(=C([H])C(=O)C([H])([H])C3([H])[H])C([H])([H])C([H])([H])[C@@]21[H]
     RDKit          3D

 49 52  0  0  0  0  0  0  0  0999 V2000
    2.3098    1.1665    1.1892 C   0  0  0  0  0  0  0  0  0  0  0  0
    2.3243    0.5419   -0.1819 C   0  0  2  0  0  0  0  0  0  0  0  0
    1.6014    1.3628   -1.1999 C   0  0  0  0  0  0  0  0  0  0  0  0
    0.1551    1.4659   -0.7958 C   0  0  0  0  0  0  0  0  0  0  0  0
   -0.4997    0.1591   -0.5151 C   0  0  1  0  0  0  0  0  0  0  0  0
    0.3112   -0.7403    0.3974 C   0  0  1  0  0  0  0  0  0  0  0  0
   -0.3517   -2.0998    0.4456 C   0  0  0  0  0  0  0  0  0  0  0  0
   -1.7931   -2.0250    0.8334 C   0  0  0  0  0  0  0  0  0  0  0  0
   -2.5364   -0.9423    0.1584 C   0  0  0  0  0  0  0  0  0  0  0  0
   -3.7648   -1.1937   -0.2733 C   0  0  0  0  0  0  0  0  0  0  0  0
   -4.5558   -0.1779   -0.9459 C   0  0  0  0  0  0  0  0  0  0  0  0
   -5.5635   -0.5108   -1.6098 O   0  0  0  0  0  0  0  0  0  0  0  0
   -4.1079    1.2429   -0.8018 C   0  0  0  0  0  0  0  0  0  0  0  0
   -2.6148    1.2500   -1.0177 C   0  0  0  0  0  0  0  0  0  0  0  0
   -1.8888    0.3932   -0.0173 C   0  0  2  0  0  0  0  0  0  0  0  0
   -1.9056    1.0675    1.3341 C   0  0  0  0  0  0  0  0  0  0  0  0
    1.6554   -0.8197   -0.1970 C   0  0  2  0  0  0  0  0  0  0  0  0
    2.6538   -1.6901    0.4377 C   0  0  0  0  0  0  0  0  0  0  0  0
    3.8967   -1.2976   -0.3651 C   0  0  0  0  0  0  0  0  0  0  0  0
    3.7334    0.1942   -0.5484 C   0  0  1  0  0  0  0  0  0  0  0  0
    4.0709    0.6044   -1.8353 O   0  0  0  0  0  0  0  0  0  0  0  0
    3.3493    1.5287    1.4328 H   0  0  0  0  0  0  0  0  0  0  0  0
    2.0531    0.4567    1.9903 H   0  0  0  0  0  0  0  0  0  0  0  0
    1.6815    2.0809    1.2037 H   0  0  0  0  0  0  0  0  0  0  0  0
    2.0085    2.3941   -1.2492 H   0  0  0  0  0  0  0  0  0  0  0  0
    1.6689    0.8261   -2.1725 H   0  0  0  0  0  0  0  0  0  0  0  0
   -0.3814    1.9135   -1.6840 H   0  0  0  0  0  0  0  0  0  0  0  0
    0.0308    2.2113    0.0131 H   0  0  0  0  0  0  0  0  0  0  0  0
   -0.5848   -0.3912   -1.4862 H   0  0  0  0  0  0  0  0  0  0  0  0
    0.2568   -0.3168    1.4064 H   0  0  0  0  0  0  0  0  0  0  0  0
   -0.1605   -2.6634   -0.4712 H   0  0  0  0  0  0  0  0  0  0  0  0
    0.1759   -2.6628    1.2688 H   0  0  0  0  0  0  0  0  0  0  0  0
   -2.2546   -3.0206    0.5832 H   0  0  0  0  0  0  0  0  0  0  0  0
   -1.9139   -1.9460    1.9501 H   0  0  0  0  0  0  0  0  0  0  0  0
   -4.1826   -2.1748   -0.1200 H   0  0  0  0  0  0  0  0  0  0  0  0
   -4.3888    1.5766    0.2155 H   0  0  0  0  0  0  0  0  0  0  0  0
   -4.5705    1.8946   -1.5576 H   0  0  0  0  0  0  0  0  0  0  0  0
   -2.4384    0.8809   -2.0492 H   0  0  0  0  0  0  0  0  0  0  0  0
   -2.2702    2.2900   -0.9010 H   0  0  0  0  0  0  0  0  0  0  0  0
   -2.5967    1.9380    1.3158 H   0  0  0  0  0  0  0  0  0  0  0  0
   -2.2745    0.3972    2.1436 H   0  0  0  0  0  0  0  0  0  0  0  0
   -0.9191    1.4304    1.6500 H   0  0  0  0  0  0  0  0  0  0  0  0
    1.5565   -1.1000   -1.2712 H   0  0  0  0  0  0  0  0  0  0  0  0
    2.4450   -2.7733    0.3313 H   0  0  0  0  0  0  0  0  0  0  0  0
    2.8555   -1.4109    1.4949 H   0  0  0  0  0  0  0  0  0  0  0  0
    4.8181   -1.5879    0.1300 H   0  0  0  0  0  0  0  0  0  0  0  0
    3.7696   -1.7690   -1.3750 H   0  0  0  0  0  0  0  0  0  0  0  0
    4.4514    0.6775    0.1739 H   0  0  0  0  0  0  0  0  0  0  0  0
    4.6853    1.3688   -1.7993 H   0  0  0  0  0  0  0  0  0  0  0  0
  2  1  1  1
  2  3  1  0
  3  4  1  0
  4  5  1  0
  5  6  1  0
  6  7  1  0
  7  8  1  0
  8  9  1  0
  9 10  2  0
 10 11  1  0
 11 12  2  0
 11 13  1  0
 13 14  1  0
 14 15  1  0
 15 16  1  1
  6 17  1  0
 17 18  1  0
 18 19  1  0
 19 20  1  0
 20 21  1  0
 17  2  1  0
 20  2  1  0
 15  5  1  0
 15  9  1  0
  1 22  1  0
  1 23  1  0
  1 24  1  0
  3 25  1  0
  3 26  1  0
  4 27  1  0
  4 28  1  0
  5 29  1  6
  6 30  1  1
  7 31  1  0
  7 32  1  0
  8 33  1  0
  8 34  1  0
 10 35  1  0
 13 36  1  0
 13 37  1  0
 14 38  1  0
 14 39  1  0
 16 40  1  0
 16 41  1  0
 16 42  1  0
 17 43  1  6
 18 44  1  0
 18 45  1  0
 19 46  1  0
 19 47  1  0
 20 48  1  1
 21 49  1  0
M  END
$$$$
[H]Oc1c([H])c([H])c2c(c1[H])C([H])([H])C([H])([H])[C@]1([H])[C@]2([H])C([H])([H])C([H])([H])[C@]2(C([H])([H])[H])[C@@](C#CC([H])([H])[H])(O[H])C([H])([H])C([H])([H])[C@]21[H]
     RDKit          3D

 49 52  0  0  0  0  0  0  0  0999 V2000
   -0.7576    2.3480   -0.9310 C   0  0  0  0  0  0  0  0  0  0  0  0
   -1.4362    1.2284   -0.1901 C   0  0  2  0  0  0  0  0  0  0  0  0
   -1.0154    1.2111    1.2255 C   0  0  0  0  0  0  0  0  0  0  0  0
    0.5070    1.1870    1.2427 C   0  0  0  0  0  0  0  0  0  0  0  0
    0.9700   -0.0830    0.6150 C   0  0  1  0  0  0  0  0  0  0  0  0
    0.3785   -0.3648   -0.7372 C   0  0  1  0  0  0  0  0  0  0  0  0
    0.6428   -1.8289   -1.0299 C   0  0  0  0  0  0  0  0  0  0  0  0
    2.0841   -2.2037   -0.9799 C   0  0  0  0  0  0  0  0  0  0  0  0
    2.9462   -1.2107   -0.2736 C   0  0  0  0  0  0  0  0  0  0  0  0
    4.3227   -1.3731   -0.4337 C   0  0  0  0  0  0  0  0  0  0  0  0
    5.1808   -0.4827    0.1974 C   0  0  0  0  0  0  0  0  0  0  0  0
    6.5654   -0.6569    0.0284 O   0  0  0  0  0  0  0  0  0  0  0  0
    4.6782    0.5407    0.9665 C   0  0  0  0  0  0  0  0  0  0  0  0
    3.2922    0.6750    1.1062 C   0  0  0  0  0  0  0  0  0  0  0  0
    2.4274   -0.1939    0.4910 C   0  0  0  0  0  0  0  0  0  0  0  0
   -1.0810   -0.1396   -0.7922 C   0  0  2  0  0  0  0  0  0  0  0  0
   -1.6638    0.0130   -2.1527 C   0  0  0  0  0  0  0  0  0  0  0  0
   -2.9423    0.8197   -1.9181 C   0  0  0  0  0  0  0  0  0  0  0  0
   -2.9022    1.2297   -0.4459 C   0  0  2  0  0  0  0  0  0  0  0  0
   -3.5038    2.4595   -0.2435 O   0  0  0  0  0  0  0  0  0  0  0  0
   -3.5481    0.1801    0.3635 C   0  0  0  0  0  0  0  0  0  0  0  0
   -4.0616   -0.6837    1.0340 C   0  0  0  0  0  0  0  0  0  0  0  0
   -4.7007   -1.7232    1.8659 C   0  0  0  0  0  0  0  0  0  0  0  0
   -1.2880    2.6538   -1.8508 H   0  0  0  0  0  0  0  0  0  0  0  0
   -0.8065    3.2482   -0.2519 H   0  0  0  0  0  0  0  0  0  0  0  0
    0.2924    2.1267   -1.1318 H   0  0  0  0  0  0  0  0  0  0  0  0
   -1.3562    0.3004    1.7575 H   0  0  0  0  0  0  0  0  0  0  0  0
   -1.4191    2.1014    1.7455 H   0  0  0  0  0  0  0  0  0  0  0  0
    0.8020    1.1678    2.3122 H   0  0  0  0  0  0  0  0  0  0  0  0
    0.9413    2.0965    0.8019 H   0  0  0  0  0  0  0  0  0  0  0  0
    0.6370   -0.9230    1.2855 H   0  0  0  0  0  0  0  0  0  0  0  0
    0.9207    0.2234   -1.5067 H   0  0  0  0  0  0  0  0  0  0  0  0
    0.1343   -2.1304   -1.9683 H   0  0  0  0  0  0  0  0  0  0  0  0
    0.1117   -2.3977   -0.2109 H   0  0  0  0  0  0  0  0  0  0  0  0
    2.2085   -3.2082   -0.4933 H   0  0  0  0  0  0  0  0  0  0  0  0
    2.4284   -2.3590   -2.0351 H   0  0  0  0  0  0  0  0  0  0  0  0
    4.6964   -2.1857   -1.0437 H   0  0  0  0  0  0  0  0  0  0  0  0
    6.9178   -1.4067   -0.5346 H   0  0  0  0  0  0  0  0  0  0  0  0
    5.3299    1.2398    1.4628 H   0  0  0  0  0  0  0  0  0  0  0  0
    2.8619    1.4694    1.7043 H   0  0  0  0  0  0  0  0  0  0  0  0
   -1.6247   -0.9017   -0.2163 H   0  0  0  0  0  0  0  0  0  0  0  0
   -1.8955   -0.9893   -2.5744 H   0  0  0  0  0  0  0  0  0  0  0  0
   -0.9875    0.5386   -2.8578 H   0  0  0  0  0  0  0  0  0  0  0  0
   -3.0048    1.6927   -2.5804 H   0  0  0  0  0  0  0  0  0  0  0  0
   -3.8083    0.1238   -2.0251 H   0  0  0  0  0  0  0  0  0  0  0  0
   -3.9219    2.5602    0.6331 H   0  0  0  0  0  0  0  0  0  0  0  0
   -5.7861   -1.5117    2.0141 H   0  0  0  0  0  0  0  0  0  0  0  0
   -4.1411   -1.7570    2.8148 H   0  0  0  0  0  0  0  0  0  0  0  0
   -4.6253   -2.7204    1.3992 H   0  0  0  0  0  0  0  0  0  0  0  0
  2  1  1  6
  2  3  1  0
  3  4  1  0
  4  5  1  0
  5  6  1  0
  6  7  1  0
  7  8  1  0
  8  9  1  0
  9 10  2  0
 10 11  1  0
 11 12  1  0
 11 13  2  0
 13 14  1  0
 14 15  2  0
  6 16  1  0
 16 17  1  0
 17 18  1  0
 18 19  1  0
 19 20  1  0
 19 21  1  1
 21 22  3  0
 22 23  1  0
 16  2  1  0
 19  2  1  0
 15  5  1  0
 15  9  1  0
  1 24  1  0
  1 25  1  0
  1 26  1  0
  3 27  1  0
  3 28  1  0
  4 29  1  0
  4 30  1  0
  5 31  1  1
  6 32  1  6
  7 33  1  0
  7 34  1  0
  8 35  1  0
  8 36  1  0
 10 37  1  0
 12 38  1  0
 13 39  1  0
 14 40  1  0
 16 41  1  1
 17 42  1  0
 17 43  1  0
 18 44  1  0
 18 45  1  0
 20 46  1  0
 23 47  1  0
 23 48  1  0
 23 49  1  0
M  END
$$$$
[H]O[C@@]1([H])C([H])([H])C([H])([H])[C@]2([H])[C@]1(C([H])([H])[H])C([H])([H])C([H])([H])[C@]1([H])C3(C([H])([H])[H])C(=C([H])C(=O)C([H])([H])C3([H])[H])C([H])([H])C([H])([H])[C@]12[H]
     RDKit          3D

 49 52  0  0  0  0  0  0  0  0999 V2000
    2.5842    1.3809    0.6952 C   0  0  0  0  0  0  0  0  0  0  0  0
    2.3330    0.4890   -0.4809 C   0  0  2  0  0  0  0  0  0  0  0  0
    1.4881    1.1709   -1.4976 C   0  0  0  0  0  0  0  0  0  0  0  0
    0.1420    1.4631   -0.8274 C   0  0  0  0  0  0  0  0  0  0  0  0
   -0.5443    0.1474   -0.5347 C   0  0  1  0  0  0  0  0  0  0  0  0
    0.2922   -0.6539    0.4513 C   0  0  1  0  0  0  0  0  0  0  0  0
   -0.3191   -2.0407    0.5489 C   0  0  0  0  0  0  0  0  0  0  0  0
   -1.7698   -2.0222    0.8888 C   0  0  0  0  0  0  0  0  0  0  0  0
   -2.5485   -0.9888    0.1961 C   0  0  0  0  0  0  0  0  0  0  0  0
   -3.7860   -1.2901   -0.1921 C   0  0  0  0  0  0  0  0  0  0  0  0
   -4.6020   -0.3131   -0.8792 C   0  0  0  0  0  0  0  0  0  0  0  0
   -5.6287   -0.6376   -1.5288 O   0  0  0  0  0  0  0  0  0  0  0  0
   -4.2121    1.1041   -0.8115 C   0  0  0  0  0  0  0  0  0  0  0  0
   -2.7064    1.1736   -1.0282 C   0  0  0  0  0  0  0  0  0  0  0  0
   -1.9415    0.3450   -0.0483 C   0  0  0  0  0  0  0  0  0  0  0  0
   -1.9259    1.1126    1.2752 C   0  0  0  0  0  0  0  0  0  0  0  0
    1.6468   -0.8064   -0.0946 C   0  0  2  0  0  0  0  0  0  0  0  0
    2.6662   -1.4248    0.7902 C   0  0  0  0  0  0  0  0  0  0  0  0
    3.9773   -1.0754    0.0889 C   0  0  0  0  0  0  0  0  0  0  0  0
    3.6023   -0.1095   -1.0253 C   0  0  2  0  0  0  0  0  0  0  0  0
    4.5789    0.7908   -1.3162 O   0  0  0  0  0  0  0  0  0  0  0  0
    3.6512    1.2562    1.0428 H   0  0  0  0  0  0  0  0  0  0  0  0
    1.9656    1.1332    1.5752 H   0  0  0  0  0  0  0  0  0  0  0  0
    2.3846    2.4552    0.4487 H   0  0  0  0  0  0  0  0  0  0  0  0
    1.9264    2.1705   -1.7212 H   0  0  0  0  0  0  0  0  0  0  0  0
    1.3688    0.5860   -2.4107 H   0  0  0  0  0  0  0  0  0  0  0  0
    0.3982    1.9239    0.1513 H   0  0  0  0  0  0  0  0  0  0  0  0
   -0.4646    2.1050   -1.4609 H   0  0  0  0  0  0  0  0  0  0  0  0
   -0.5802   -0.4261   -1.4771 H   0  0  0  0  0  0  0  0  0  0  0  0
    0.2927   -0.1819    1.4539 H   0  0  0  0  0  0  0  0  0  0  0  0
   -0.1802   -2.5111   -0.4624 H   0  0  0  0  0  0  0  0  0  0  0  0
    0.2148   -2.6703    1.2684 H   0  0  0  0  0  0  0  0  0  0  0  0
   -2.1814   -3.0350    0.6624 H   0  0  0  0  0  0  0  0  0  0  0  0
   -1.8989   -1.8970    1.9909 H   0  0  0  0  0  0  0  0  0  0  0  0
   -4.1962   -2.2733    0.0030 H   0  0  0  0  0  0  0  0  0  0  0  0
   -4.5009    1.5416    0.1618 H   0  0  0  0  0  0  0  0  0  0  0  0
   -4.6741    1.7083   -1.6180 H   0  0  0  0  0  0  0  0  0  0  0  0
   -2.5250    0.8535   -2.0745 H   0  0  0  0  0  0  0  0  0  0  0  0
   -2.4231    2.2430   -0.8698 H   0  0  0  0  0  0  0  0  0  0  0  0
   -2.9828    1.4230    1.5195 H   0  0  0  0  0  0  0  0  0  0  0  0
   -1.3635    2.0530    1.1719 H   0  0  0  0  0  0  0  0  0  0  0  0
   -1.5684    0.4840    2.1031 H   0  0  0  0  0  0  0  0  0  0  0  0
    1.5982   -1.4223   -1.0354 H   0  0  0  0  0  0  0  0  0  0  0  0
    2.6599   -1.0055    1.8204 H   0  0  0  0  0  0  0  0  0  0  0  0
    2.5328   -2.5252    0.8641 H   0  0  0  0  0  0  0  0  0  0  0  0
    4.4172   -1.9848   -0.3582 H   0  0  0  0  0  0  0  0  0  0  0  0
    4.6682   -0.6009    0.8277 H   0  0  0  0  0  0  0  0  0  0  0  0
    3.3448   -0.6694   -1.9465 H   0  0  0  0  0  0  0  0  0  0  0  0
    4.7892    1.4514   -0.6423 H   0  0  0  0  0  0  0  0  0  0  0  0
  2  1  1  1
  2  3  1  0
  3  4  1  0
  4  5  1  0
  5  6  1  0
  6  7  1  0
  7  8  1  0
  8  9  1  0
  9 10  2  0
 10 11  1  0
 11 12  2  0
 11 13  1  0
 13 14  1  0
 14 15  1  0
 15 16  1  0
  6 17  1  0
 17 18  1  0
 18 19  1  0
 19 20  1  0
 20 21  1  0
 17  2  1  0
 20  2  1  0
 15  5  1  0
 15  9  1  0
  1 22  1  0
  1 23  1  0
  1 24  1  0
  3 25  1  0
  3 26  1  0
  4 27  1  0
  4 28  1  0
  5 29  1  6
  6 30  1  1
  7 31  1  0
  7 32  1  0
  8 33  1  0
  8 34  1  0
 10 35  1  0
 13 36  1  0
 13 37  1  0
 14 38  1  0
 14 39  1  0
 16 40  1  0
 16 41  1  0
 16 42  1  0
 17 43  1  6
 18 44  1  0
 18 45  1  0
 19 46  1  0
 19 47  1  0
 20 48  1  6
 21 49  1  0
M  END
$$$$
[H]O[C@@]1([H])C([H])([H])C([H])([H])C2([H])C3([H])C([H])([H])C([H])([H])C4([H])C([H])([H])[C@]([H])(O[H])C([H])([H])C([H])([H])[C@]4(C([H])([H])[H])C3([H])C([H])([H])C([H])([H])[C@@]21C([H])([H])[H]
     RDKit          3D

 53 56  0  0  0  0  0  0  0  0999 V2000
    3.2531   -1.4473   -0.3415 C   0  0  0  0  0  0  0  0  0  0  0  0
    2.7212   -0.1048    0.0651 C   0  0  2  0  0  0  0  0  0  0  0  0
    1.9831   -0.2186    1.3743 C   0  0  0  0  0  0  0  0  0  0  0  0
    0.5122   -0.2832    1.2767 C   0  0  0  0  0  0  0  0  0  0  0  0
    0.0200   -0.7205   -0.0761 C   0  0  0  0  0  0  0  0  0  0  0  0
    0.5037    0.2726   -1.0952 C   0  0  0  0  0  0  0  0  0  0  0  0
   -0.3078    1.5455   -1.1156 C   0  0  0  0  0  0  0  0  0  0  0  0
   -1.7667    1.3178   -0.8225 C   0  0  0  0  0  0  0  0  0  0  0  0
   -2.0992   -0.0987   -1.1543 C   0  0  0  0  0  0  0  0  0  0  0  0
   -3.5927   -0.2461   -1.1902 C   0  0  0  0  0  0  0  0  0  0  0  0
   -4.2496   -0.1239    0.1457 C   0  0  2  0  0  0  0  0  0  0  0  0
   -4.3167    1.1781    0.6220 O   0  0  0  0  0  0  0  0  0  0  0  0
   -3.5912   -1.0625    1.1000 C   0  0  0  0  0  0  0  0  0  0  0  0
   -2.1105   -0.8927    1.2171 C   0  0  0  0  0  0  0  0  0  0  0  0
   -1.4328   -0.9953   -0.1425 C   0  0  2  0  0  0  0  0  0  0  0  0
   -1.7178   -2.4345   -0.6065 C   0  0  0  0  0  0  0  0  0  0  0  0
    1.9365    0.5803   -1.0028 C   0  0  0  0  0  0  0  0  0  0  0  0
    2.2275    2.0560   -0.6891 C   0  0  0  0  0  0  0  0  0  0  0  0
    3.7421    1.9860   -0.6667 C   0  0  0  0  0  0  0  0  0  0  0  0
    3.9096    0.8052    0.3023 C   0  0  2  0  0  0  0  0  0  0  0  0
    5.1294    0.2571    0.0312 O   0  0  0  0  0  0  0  0  0  0  0  0
    3.0425   -1.5735   -1.4229 H   0  0  0  0  0  0  0  0  0  0  0  0
    2.8033   -2.2881    0.2621 H   0  0  0  0  0  0  0  0  0  0  0  0
    4.3445   -1.5811   -0.1994 H   0  0  0  0  0  0  0  0  0  0  0  0
    2.2519    0.6328    2.0560 H   0  0  0  0  0  0  0  0  0  0  0  0
    2.3910   -1.1263    1.8965 H   0  0  0  0  0  0  0  0  0  0  0  0
    0.1374   -1.0173    2.0204 H   0  0  0  0  0  0  0  0  0  0  0  0
    0.0511    0.7020    1.5720 H   0  0  0  0  0  0  0  0  0  0  0  0
    0.5584   -1.6811   -0.3078 H   0  0  0  0  0  0  0  0  0  0  0  0
    0.3139   -0.2139   -2.0995 H   0  0  0  0  0  0  0  0  0  0  0  0
   -0.2411    1.9703   -2.1600 H   0  0  0  0  0  0  0  0  0  0  0  0
    0.0536    2.3229   -0.4490 H   0  0  0  0  0  0  0  0  0  0  0  0
   -1.8901    1.4464    0.2841 H   0  0  0  0  0  0  0  0  0  0  0  0
   -2.3869    2.0446   -1.3747 H   0  0  0  0  0  0  0  0  0  0  0  0
   -1.7187   -0.3593   -2.1601 H   0  0  0  0  0  0  0  0  0  0  0  0
   -3.9739    0.6132   -1.8173 H   0  0  0  0  0  0  0  0  0  0  0  0
   -3.9418   -1.1548   -1.7099 H   0  0  0  0  0  0  0  0  0  0  0  0
   -5.3094   -0.4659    0.0240 H   0  0  0  0  0  0  0  0  0  0  0  0
   -4.4775    1.8151   -0.1017 H   0  0  0  0  0  0  0  0  0  0  0  0
   -3.8600   -2.1011    0.7881 H   0  0  0  0  0  0  0  0  0  0  0  0
   -4.0372   -0.9309    2.1063 H   0  0  0  0  0  0  0  0  0  0  0  0
   -1.7346   -1.7883    1.7944 H   0  0  0  0  0  0  0  0  0  0  0  0
   -1.8587    0.0118    1.7615 H   0  0  0  0  0  0  0  0  0  0  0  0
   -1.3828   -3.0763    0.2557 H   0  0  0  0  0  0  0  0  0  0  0  0
   -1.0100   -2.6683   -1.4279 H   0  0  0  0  0  0  0  0  0  0  0  0
   -2.7616   -2.5854   -0.8611 H   0  0  0  0  0  0  0  0  0  0  0  0
    2.4827    0.3956   -1.9729 H   0  0  0  0  0  0  0  0  0  0  0  0
    1.9271    2.3000    0.3558 H   0  0  0  0  0  0  0  0  0  0  0  0
    1.8275    2.7248   -1.4441 H   0  0  0  0  0  0  0  0  0  0  0  0
    4.1947    2.8999   -0.2871 H   0  0  0  0  0  0  0  0  0  0  0  0
    4.1041    1.6817   -1.6746 H   0  0  0  0  0  0  0  0  0  0  0  0
    3.8812    1.2714    1.3111 H   0  0  0  0  0  0  0  0  0  0  0  0
    5.4661    0.4084   -0.8885 H   0  0  0  0  0  0  0  0  0  0  0  0
  2  1  1  6
  2  3  1  0
  3  4  1  0
  4  5  1  0
  5  6  1  0
  6  7  1  0
  7  8  1  0
  8  9  1  0
  9 10  1  0
 10 11  1  0
 11 12  1  0
 11 13  1  0
 13 14  1  0
 14 15  1  0
 15 16  1  6
  6 17  1  0
 17 18  1  0
 18 19  1  0
 19 20  1  0
 20 21  1  0
 17  2  1  0
 20  2  1  0
 15  5  1  0
 15  9  1  0
  1 22  1  0
  1 23  1  0
  1 24  1  0
  3 25  1  0
  3 26  1  0
  4 27  1  0
  4 28  1  0
  5 29  1  0
  6 30  1  0
  7 31  1  0
  7 32  1  0
  8 33  1  0
  8 34  1  0
  9 35  1  0
 10 36  1  0
 10 37  1  0
 11 38  1  6
 12 39  1  0
 13 40  1  0
 13 41  1  0
 14 42  1  0
 14 43  1  0
 16 44  1  0
 16 45  1  0
 16 46  1  0
 17 47  1  0
 18 48  1  0
 18 49  1  0
 19 50  1  0
 19 51  1  0
 20 52  1  1
 21 53  1  0
M  END
$$$$
[H]C1=C2C([H])([H])C([H])([H])[C@@]3([H])[C@]4([H])C([H])([H])C([H])([H])C([H])([H])[C@@]4(C([H])([H])[H])C([H])([H])C([H])([H])[C@]3([H])[C@@]2(C([H])([H])[H])C([H])([H])C([H])([H])C1=O
     RDKit          3D

 48 51  0  0  0  0  0  0  0  0999 V2000
   -2.4762    0.9493   -1.1816 C   0  0  0  0  0  0  0  0  0  0  0  0
   -2.4391    0.4620    0.2269 C   0  0  2  0  0  0  0  0  0  0  0  0
   -1.6761    1.4213    1.0668 C   0  0  0  0  0  0  0  0  0  0  0  0
   -0.1996    1.4577    0.8089 C   0  0  0  0  0  0  0  0  0  0  0  0
    0.4251    0.1750    0.4463 C   0  0  1  0  0  0  0  0  0  0  0  0
   -0.4407   -0.7387   -0.3914 C   0  0  1  0  0  0  0  0  0  0  0  0
    0.2122   -2.0391   -0.6567 C   0  0  0  0  0  0  0  0  0  0  0  0
    1.6668   -2.1472   -0.3981 C   0  0  0  0  0  0  0  0  0  0  0  0
    2.4350   -0.8965   -0.4266 C   0  0  0  0  0  0  0  0  0  0  0  0
    3.7348   -0.8812   -0.6217 C   0  0  0  0  0  0  0  0  0  0  0  0
    4.4917    0.3914   -0.6459 C   0  0  0  0  0  0  0  0  0  0  0  0
    5.5265    0.5256   -1.3120 O   0  0  0  0  0  0  0  0  0  0  0  0
    3.9756    1.5267    0.1603 C   0  0  0  0  0  0  0  0  0  0  0  0
    2.6316    1.1631    0.7858 C   0  0  0  0  0  0  0  0  0  0  0  0
    1.7546    0.4184   -0.2283 C   0  0  2  0  0  0  0  0  0  0  0  0
    1.6676    1.2183   -1.4848 C   0  0  0  0  0  0  0  0  0  0  0  0
   -1.7167   -0.8856    0.3749 C   0  0  2  0  0  0  0  0  0  0  0  0
   -2.7205   -1.8187   -0.1683 C   0  0  0  0  0  0  0  0  0  0  0  0
   -3.9584   -1.3928    0.6062 C   0  0  0  0  0  0  0  0  0  0  0  0
   -3.7873    0.1026    0.7678 C   0  0  0  0  0  0  0  0  0  0  0  0
   -1.6027    1.6389   -1.3707 H   0  0  0  0  0  0  0  0  0  0  0  0
   -2.5346    0.1584   -1.9472 H   0  0  0  0  0  0  0  0  0  0  0  0
   -3.3809    1.5884   -1.3039 H   0  0  0  0  0  0  0  0  0  0  0  0
   -2.0984    2.4345    0.9165 H   0  0  0  0  0  0  0  0  0  0  0  0
   -1.8728    1.1733    2.1457 H   0  0  0  0  0  0  0  0  0  0  0  0
    0.2615    1.8010    1.7846 H   0  0  0  0  0  0  0  0  0  0  0  0
    0.0016    2.2903    0.1014 H   0  0  0  0  0  0  0  0  0  0  0  0
    0.6603   -0.4002    1.3818 H   0  0  0  0  0  0  0  0  0  0  0  0
   -0.6198   -0.2137   -1.3509 H   0  0  0  0  0  0  0  0  0  0  0  0
   -0.3017   -2.8980   -0.1224 H   0  0  0  0  0  0  0  0  0  0  0  0
    0.0425   -2.3108   -1.7438 H   0  0  0  0  0  0  0  0  0  0  0  0
    2.1687   -2.8559   -1.1252 H   0  0  0  0  0  0  0  0  0  0  0  0
    1.8052   -2.6787    0.5890 H   0  0  0  0  0  0  0  0  0  0  0  0
    4.2625   -1.7980   -0.7668 H   0  0  0  0  0  0  0  0  0  0  0  0
    4.6521    1.7407    1.0315 H   0  0  0  0  0  0  0  0  0  0  0  0
    3.8174    2.4055   -0.4701 H   0  0  0  0  0  0  0  0  0  0  0  0
    2.7394    0.5221    1.6649 H   0  0  0  0  0  0  0  0  0  0  0  0
    2.1474    2.1171    1.1026 H   0  0  0  0  0  0  0  0  0  0  0  0
    2.4225    0.9239   -2.2514 H   0  0  0  0  0  0  0  0  0  0  0  0
    1.9330    2.2834   -1.2297 H   0  0  0  0  0  0  0  0  0  0  0  0
    0.6935    1.1718   -2.0099 H   0  0  0  0  0  0  0  0  0  0  0  0
   -1.5623   -1.0355    1.4392 H   0  0  0  0  0  0  0  0  0  0  0  0
   -2.5149   -2.8671    0.1307 H   0  0  0  0  0  0  0  0  0  0  0  0
   -2.9130   -1.7158   -1.2401 H   0  0  0  0  0  0  0  0  0  0  0  0
   -4.8898   -1.6541    0.0715 H   0  0  0  0  0  0  0  0  0  0  0  0
   -3.9043   -1.8731    1.6113 H   0  0  0  0  0  0  0  0  0  0  0  0
   -4.5493    0.5940    0.1229 H   0  0  0  0  0  0  0  0  0  0  0  0
   -3.9700    0.4458    1.7910 H   0  0  0  0  0  0  0  0  0  0  0  0
  2  1  1  6
  2  3  1  0
  3  4  1  0
  4  5  1  0
  5  6  1  0
  6  7  1  0
  7  8  1  0
  8  9  1  0
  9 10  2  0
 10 11  1  0
 11 12  2  0
 11 13  1  0
 13 14  1  0
 14 15  1  0
 15 16  1  6
  6 17  1  0
 17 18  1  0
 18 19  1  0
 19 20  1  0
 17  2  1  0
 20  2  1  0
 15  5  1  0
 15  9  1  0
  1 21  1  0
  1 22  1  0
  1 23  1  0
  3 24  1  0
  3 25  1  0
  4 26  1  0
  4 27  1  0
  5 28  1  1
  6 29  1  6
  7 30  1  0
  7 31  1  0
  8 32  1  0
  8 33  1  0
 10 34  1  0
 13 35  1  0
 13 36  1  0
 14 37  1  0
 14 38  1  0
 16 39  1  0
 16 40  1  0
 16 41  1  0
 17 42  1  1
 18 43  1  0
 18 44  1  0
 19 45  1  0
 19 46  1  0
 20 47  1  0
 20 48  1  0
M  END
$$$$
[H]O[C@@]1([H])C([H])([H])C([H])([H])C2([H])C3([H])C([H])([H])C([H])([H])C4=C([H])C(=O)C([H])([H])C([H])([H])[C@]4(C([H])([H])[H])C3([H])C([H])([H])C([H])([H])[C@@]21C([H])([H])[H]
     RDKit          3D

 49 52  0  0  0  0  0  0  0  0999 V2000
    2.6521    1.4631    1.0244 C   0  0  0  0  0  0  0  0  0  0  0  0
    2.2689    0.5739   -0.1613 C   0  0  2  0  0  0  0  0  0  0  0  0
    1.4754    1.4332   -1.1180 C   0  0  0  0  0  0  0  0  0  0  0  0
    0.0940    1.5678   -0.5006 C   0  0  0  0  0  0  0  0  0  0  0  0
   -0.5971    0.2146   -0.7480 C   0  0  0  0  0  0  0  0  0  0  0  0
    0.2749   -0.9272   -0.4778 C   0  0  0  0  0  0  0  0  0  0  0  0
   -0.3267   -2.1622    0.0922 C   0  0  0  0  0  0  0  0  0  0  0  0
   -1.6341   -2.0064    0.7788 C   0  0  0  0  0  0  0  0  0  0  0  0
   -2.5012   -1.0156    0.0917 C   0  0  0  0  0  0  0  0  0  0  0  0
   -3.6803   -1.3647   -0.3606 C   0  0  0  0  0  0  0  0  0  0  0  0
   -4.5178   -0.3536   -1.0392 C   0  0  0  0  0  0  0  0  0  0  0  0
   -5.3888   -0.6955   -1.8628 O   0  0  0  0  0  0  0  0  0  0  0  0
   -4.2238    1.0530   -0.6518 C   0  0  0  0  0  0  0  0  0  0  0  0
   -2.7572    1.3093   -0.7519 C   0  0  0  0  0  0  0  0  0  0  0  0
   -1.8954    0.3217   -0.0053 C   0  0  2  0  0  0  0  0  0  0  0  0
   -1.6903    0.8932    1.3990 C   0  0  0  0  0  0  0  0  0  0  0  0
    1.5133   -0.5842    0.3677 C   0  0  0  0  0  0  0  0  0  0  0  0
    2.4688   -1.7658    0.1519 C   0  0  0  0  0  0  0  0  0  0  0  0
    3.8551   -1.1394    0.0549 C   0  0  0  0  0  0  0  0  0  0  0  0
    3.5365    0.0995   -0.7854 C   0  0  2  0  0  0  0  0  0  0  0  0
    4.5961    0.9667   -0.6704 O   0  0  0  0  0  0  0  0  0  0  0  0
    3.7174    1.7688    0.9745 H   0  0  0  0  0  0  0  0  0  0  0  0
    2.5439    0.9011    1.9796 H   0  0  0  0  0  0  0  0  0  0  0  0
    2.0462    2.3666    1.0862 H   0  0  0  0  0  0  0  0  0  0  0  0
    1.9731    2.3979   -1.2579 H   0  0  0  0  0  0  0  0  0  0  0  0
    1.3401    0.8904   -2.0810 H   0  0  0  0  0  0  0  0  0  0  0  0
   -0.4317    2.3646   -1.0228 H   0  0  0  0  0  0  0  0  0  0  0  0
    0.1558    1.7851    0.5874 H   0  0  0  0  0  0  0  0  0  0  0  0
   -0.8759    0.2677   -1.8443 H   0  0  0  0  0  0  0  0  0  0  0  0
    0.7458   -1.2409   -1.4634 H   0  0  0  0  0  0  0  0  0  0  0  0
   -0.4695   -2.9712   -0.6879 H   0  0  0  0  0  0  0  0  0  0  0  0
    0.3632   -2.6546    0.8383 H   0  0  0  0  0  0  0  0  0  0  0  0
   -2.1416   -2.9832    0.8460 H   0  0  0  0  0  0  0  0  0  0  0  0
   -1.5016   -1.6247    1.8291 H   0  0  0  0  0  0  0  0  0  0  0  0
   -4.0453   -2.3798   -0.2436 H   0  0  0  0  0  0  0  0  0  0  0  0
   -4.6020    1.2289    0.3753 H   0  0  0  0  0  0  0  0  0  0  0  0
   -4.7431    1.6996   -1.3600 H   0  0  0  0  0  0  0  0  0  0  0  0
   -2.4826    1.2678   -1.8398 H   0  0  0  0  0  0  0  0  0  0  0  0
   -2.5652    2.3332   -0.3647 H   0  0  0  0  0  0  0  0  0  0  0  0
   -1.7112    1.9904    1.3808 H   0  0  0  0  0  0  0  0  0  0  0  0
   -2.6097    0.5769    1.9680 H   0  0  0  0  0  0  0  0  0  0  0  0
   -0.8425    0.4492    1.9179 H   0  0  0  0  0  0  0  0  0  0  0  0
    1.2750   -0.5605    1.4289 H   0  0  0  0  0  0  0  0  0  0  0  0
    2.4000   -2.4888    0.9704 H   0  0  0  0  0  0  0  0  0  0  0  0
    2.2812   -2.2285   -0.8440 H   0  0  0  0  0  0  0  0  0  0  0  0
    4.5522   -1.7941   -0.4642 H   0  0  0  0  0  0  0  0  0  0  0  0
    4.2022   -0.8563    1.0623 H   0  0  0  0  0  0  0  0  0  0  0  0
    3.4201   -0.2142   -1.8344 H   0  0  0  0  0  0  0  0  0  0  0  0
    4.4833    1.8273   -1.1060 H   0  0  0  0  0  0  0  0  0  0  0  0
  2  1  1  1
  2  3  1  0
  3  4  1  0
  4  5  1  0
  5  6  1  0
  6  7  1  0
  7  8  1  0
  8  9  1  0
  9 10  2  0
 10 11  1  0
 11 12  2  0
 11 13  1  0
 13 14  1  0
 14 15  1  0
 15 16  1  1
  6 17  1  0
 17 18  1  0
 18 19  1  0
 19 20  1  0
 20 21  1  0
 17  2  1  0
 20  2  1  0
 15  5  1  0
 15  9  1  0
  1 22  1  0
  1 23  1  0
  1 24  1  0
  3 25  1  0
  3 26  1  0
  4 27  1  0
  4 28  1  0
  5 29  1  0
  6 30  1  0
  7 31  1  0
  7 32  1  0
  8 33  1  0
  8 34  1  0
 10 35  1  0
 13 36  1  0
 13 37  1  0
 14 38  1  0
 14 39  1  0
 16 40  1  0
 16 41  1  0
 16 42  1  0
 17 43  1  0
 18 44  1  0
 18 45  1  0
 19 46  1  0
 19 47  1  0
 20 48  1  6
 21 49  1  0
M  END
$$$$
[H]O[C@@]1([H])C([H])([H])C([H])([H])C2([H])C3([H])C([H])([H])C([H])([H])C4([H])N([H])C(=O)C([H])=C([H])[C@]4(C([H])([H])[H])C3([H])C([H])([H])C([H])([H])[C@@]21C([H])([H])[H]
     RDKit          3D

 48 51  0  0  0  0  0  0  0  0999 V2000
    2.6975    1.0614    1.4788 C   0  0  0  0  0  0  0  0  0  0  0  0
    2.3346    0.6197    0.1003 C   0  0  2  0  0  0  0  0  0  0  0  0
    1.5106    1.7168   -0.5530 C   0  0  0  0  0  0  0  0  0  0  0  0
    0.0910    1.6803   -0.0872 C   0  0  0  0  0  0  0  0  0  0  0  0
   -0.5698    0.3413   -0.3251 C   0  0  0  0  0  0  0  0  0  0  0  0
    0.2172   -0.6891    0.4477 C   0  0  0  0  0  0  0  0  0  0  0  0
   -0.3537   -2.0718    0.3331 C   0  0  0  0  0  0  0  0  0  0  0  0
   -1.7484   -1.9281   -0.2795 C   0  0  0  0  0  0  0  0  0  0  0  0
   -2.4835   -0.9264    0.5960 C   0  0  0  0  0  0  0  0  0  0  0  0
   -3.9010   -1.0686    0.5129 N   0  0  0  0  0  0  0  0  0  0  0  0
   -4.6625   -0.3830   -0.4873 C   0  0  0  0  0  0  0  0  0  0  0  0
   -5.8329   -0.7650   -0.7805 O   0  0  0  0  0  0  0  0  0  0  0  0
   -4.0200    0.7519   -1.1283 C   0  0  0  0  0  0  0  0  0  0  0  0
   -2.8028    1.1159   -0.7945 C   0  0  0  0  0  0  0  0  0  0  0  0
   -1.9761    0.4391    0.2329 C   0  0  2  0  0  0  0  0  0  0  0  0
   -2.0019    1.2822    1.5028 C   0  0  0  0  0  0  0  0  0  0  0  0
    1.6512   -0.7174    0.0560 C   0  0  0  0  0  0  0  0  0  0  0  0
    1.8796   -1.1138   -1.3807 C   0  0  0  0  0  0  0  0  0  0  0  0
    3.3953   -0.9240   -1.4457 C   0  0  0  0  0  0  0  0  0  0  0  0
    3.5947    0.3554   -0.7012 C   0  0  2  0  0  0  0  0  0  0  0  0
    4.6518    0.1867    0.2126 O   0  0  0  0  0  0  0  0  0  0  0  0
    3.0157    0.2450    2.1408 H   0  0  0  0  0  0  0  0  0  0  0  0
    3.5340    1.8062    1.3839 H   0  0  0  0  0  0  0  0  0  0  0  0
    1.8748    1.6052    1.9817 H   0  0  0  0  0  0  0  0  0  0  0  0
    1.9484    2.6818   -0.2241 H   0  0  0  0  0  0  0  0  0  0  0  0
    1.6060    1.6942   -1.6591 H   0  0  0  0  0  0  0  0  0  0  0  0
    0.0955    1.8795    1.0109 H   0  0  0  0  0  0  0  0  0  0  0  0
   -0.4890    2.4685   -0.5629 H   0  0  0  0  0  0  0  0  0  0  0  0
   -0.5963    0.1250   -1.3957 H   0  0  0  0  0  0  0  0  0  0  0  0
    0.1627   -0.3968    1.5159 H   0  0  0  0  0  0  0  0  0  0  0  0
    0.2713   -2.7840   -0.2071 H   0  0  0  0  0  0  0  0  0  0  0  0
   -0.5401   -2.5323    1.3476 H   0  0  0  0  0  0  0  0  0  0  0  0
   -2.2882   -2.9045   -0.2456 H   0  0  0  0  0  0  0  0  0  0  0  0
   -1.6941   -1.5972   -1.3230 H   0  0  0  0  0  0  0  0  0  0  0  0
   -2.1566   -1.1285    1.6423 H   0  0  0  0  0  0  0  0  0  0  0  0
   -4.3894   -1.6863    1.1974 H   0  0  0  0  0  0  0  0  0  0  0  0
   -4.5639    1.2941   -1.8882 H   0  0  0  0  0  0  0  0  0  0  0  0
   -2.3764    1.9647   -1.3028 H   0  0  0  0  0  0  0  0  0  0  0  0
   -3.0267    1.1540    1.9261 H   0  0  0  0  0  0  0  0  0  0  0  0
   -1.2942    0.8421    2.2266 H   0  0  0  0  0  0  0  0  0  0  0  0
   -1.8678    2.3468    1.3128 H   0  0  0  0  0  0  0  0  0  0  0  0
    2.2068   -1.4118    0.6928 H   0  0  0  0  0  0  0  0  0  0  0  0
    1.5825   -2.1280   -1.6250 H   0  0  0  0  0  0  0  0  0  0  0  0
    1.4648   -0.3486   -2.0902 H   0  0  0  0  0  0  0  0  0  0  0  0
    3.7809   -0.9263   -2.4617 H   0  0  0  0  0  0  0  0  0  0  0  0
    3.8147   -1.7732   -0.8303 H   0  0  0  0  0  0  0  0  0  0  0  0
    3.8231    1.1559   -1.4198 H   0  0  0  0  0  0  0  0  0  0  0  0
    4.4304   -0.6086    0.7591 H   0  0  0  0  0  0  0  0  0  0  0  0
  2  1  1  1
  2  3  1  0
  3  4  1  0
  4  5  1  0
  5  6  1  0
  6  7  1  0
  7  8  1  0
  8  9  1  0
  9 10  1  0
 10 11  1  0
 11 12  2  0
 11 13  1  0
 13 14  2  0
 14 15  1  0
 15 16  1  1
  6 17  1  0
 17 18  1  0
 18 19  1  0
 19 20  1  0
 20 21  1  0
 17  2  1  0
 20  2  1  0
 15  5  1  0
 15  9  1  0
  1 22  1  0
  1 23  1  0
  1 24  1  0
  3 25  1  0
  3 26  1  0
  4 27  1  0
  4 28  1  0
  5 29  1  0
  6 30  1  0
  7 31  1  0
  7 32  1  0
  8 33  1  0
  8 34  1  0
  9 35  1  0
 10 36  1  0
 13 37  1  0
 14 38  1  0
 16 39  1  0
 16 40  1  0
 16 41  1  0
 17 42  1  0
 18 43  1  0
 18 44  1  0
 19 45  1  0
 19 46  1  0
 20 47  1  6
 21 48  1  0
M  END
$$$$
[H]OC1([H])C([H])([H])C([H])([H])C2([H])C3([H])C([H])([H])C([H])([H])C4([H])C([H])([H])[C@@]([H])(O[H])C([H])([H])C([H])([H])[C@]4(C([H])([H])[H])C3([H])C([H])([H])C([H])([H])[C@]12C([H])([H])[H]
     RDKit          3D

 53 56  0  0  0  0  0  0  0  0999 V2000
    3.1280   -1.1306   -0.9104 C   0  0  0  0  0  0  0  0  0  0  0  0
    2.7155   -0.2116    0.1935 C   0  0  2  0  0  0  0  0  0  0  0  0
    1.9511   -0.9302    1.2528 C   0  0  0  0  0  0  0  0  0  0  0  0
    0.4476   -0.6159    1.1955 C   0  0  0  0  0  0  0  0  0  0  0  0
   -0.0128   -0.6221   -0.2706 C   0  0  0  0  0  0  0  0  0  0  0  0
    0.6076    0.5370   -0.9701 C   0  0  0  0  0  0  0  0  0  0  0  0
   -0.2589    1.7551   -1.0855 C   0  0  0  0  0  0  0  0  0  0  0  0
   -1.5769    1.6314   -0.3781 C   0  0  0  0  0  0  0  0  0  0  0  0
   -2.2145    0.3835   -0.9378 C   0  0  0  0  0  0  0  0  0  0  0  0
   -3.6709    0.3737   -0.7255 C   0  0  0  0  0  0  0  0  0  0  0  0
   -4.1438   -0.1520    0.5878 C   0  0  1  0  0  0  0  0  0  0  0  0
   -5.5323   -0.2511    0.5674 O   0  0  0  0  0  0  0  0  0  0  0  0
   -3.5686   -1.5546    0.7334 C   0  0  0  0  0  0  0  0  0  0  0  0
   -2.0532   -1.3563    0.8727 C   0  0  0  0  0  0  0  0  0  0  0  0
   -1.4661   -0.8131   -0.4367 C   0  0  2  0  0  0  0  0  0  0  0  0
   -1.7565   -1.9261   -1.4616 C   0  0  0  0  0  0  0  0  0  0  0  0
    1.8411    0.9301   -0.2605 C   0  0  0  0  0  0  0  0  0  0  0  0
    2.7967    1.7925   -0.9934 C   0  0  0  0  0  0  0  0  0  0  0  0
    3.8861    1.9159    0.0545 C   0  0  0  0  0  0  0  0  0  0  0  0
    3.9113    0.5680    0.7441 C   0  0  0  0  0  0  0  0  0  0  0  0
    5.1145   -0.0472    0.4026 O   0  0  0  0  0  0  0  0  0  0  0  0
    2.6414   -0.9039   -1.8798 H   0  0  0  0  0  0  0  0  0  0  0  0
    2.8655   -2.1860   -0.6666 H   0  0  0  0  0  0  0  0  0  0  0  0
    4.2258   -1.1277   -1.1016 H   0  0  0  0  0  0  0  0  0  0  0  0
    2.2926   -0.5585    2.2408 H   0  0  0  0  0  0  0  0  0  0  0  0
    2.1196   -2.0270    1.2571 H   0  0  0  0  0  0  0  0  0  0  0  0
   -0.0178   -1.4313    1.7747 H   0  0  0  0  0  0  0  0  0  0  0  0
    0.2070    0.3235    1.6990 H   0  0  0  0  0  0  0  0  0  0  0  0
    0.4973   -1.5445   -0.6875 H   0  0  0  0  0  0  0  0  0  0  0  0
    0.8987    0.2393   -2.0208 H   0  0  0  0  0  0  0  0  0  0  0  0
   -0.4971    2.0025   -2.1579 H   0  0  0  0  0  0  0  0  0  0  0  0
    0.2308    2.6826   -0.6930 H   0  0  0  0  0  0  0  0  0  0  0  0
   -1.5216    1.6603    0.7083 H   0  0  0  0  0  0  0  0  0  0  0  0
   -2.1970    2.5077   -0.6931 H   0  0  0  0  0  0  0  0  0  0  0  0
   -2.0307    0.4239   -2.0531 H   0  0  0  0  0  0  0  0  0  0  0  0
   -4.0434    1.4353   -0.8059 H   0  0  0  0  0  0  0  0  0  0  0  0
   -4.1829   -0.1693   -1.5445 H   0  0  0  0  0  0  0  0  0  0  0  0
   -3.8470    0.5026    1.4336 H   0  0  0  0  0  0  0  0  0  0  0  0
   -5.9238    0.3455   -0.1439 H   0  0  0  0  0  0  0  0  0  0  0  0
   -3.8133   -2.1222   -0.1630 H   0  0  0  0  0  0  0  0  0  0  0  0
   -3.8936   -2.0225    1.6745 H   0  0  0  0  0  0  0  0  0  0  0  0
   -1.6473   -2.3795    1.0097 H   0  0  0  0  0  0  0  0  0  0  0  0
   -1.9106   -0.6808    1.7111 H   0  0  0  0  0  0  0  0  0  0  0  0
   -1.7377   -2.9192   -0.9478 H   0  0  0  0  0  0  0  0  0  0  0  0
   -0.9735   -1.9461   -2.2432 H   0  0  0  0  0  0  0  0  0  0  0  0
   -2.7593   -1.7810   -1.8806 H   0  0  0  0  0  0  0  0  0  0  0  0
    1.5415    1.4774    0.6763 H   0  0  0  0  0  0  0  0  0  0  0  0
    2.3844    2.7749   -1.2861 H   0  0  0  0  0  0  0  0  0  0  0  0
    3.2508    1.2615   -1.8652 H   0  0  0  0  0  0  0  0  0  0  0  0
    4.8602    2.1997   -0.3660 H   0  0  0  0  0  0  0  0  0  0  0  0
    3.5069    2.6713    0.7970 H   0  0  0  0  0  0  0  0  0  0  0  0
    3.8467    0.6582    1.8434 H   0  0  0  0  0  0  0  0  0  0  0  0
    5.4822    0.3566   -0.4389 H   0  0  0  0  0  0  0  0  0  0  0  0
  2  1  1  6
  2  3  1  0
  3  4  1  0
  4  5  1  0
  5  6  1  0
  6  7  1  0
  7  8  1  0
  8  9  1  0
  9 10  1  0
 10 11  1  0
 11 12  1  0
 11 13  1  0
 13 14  1  0
 14 15  1  0
 15 16  1  6
  6 17  1  0
 17 18  1  0
 18 19  1  0
 19 20  1  0
 20 21  1  0
 17  2  1  0
 20  2  1  0
 15  5  1  0
 15  9  1  0
  1 22  1  0
  1 23  1  0
  1 24  1  0
  3 25  1  0
  3 26  1  0
  4 27  1  0
  4 28  1  0
  5 29  1  0
  6 30  1  0
  7 31  1  0
  7 32  1  0
  8 33  1  0
  8 34  1  0
  9 35  1  0
 10 36  1  0
 10 37  1  0
 11 38  1  1
 12 39  1  0
 13 40  1  0
 13 41  1  0
 14 42  1  0
 14 43  1  0
 16 44  1  0
 16 45  1  0
 16 46  1  0
 17 47  1  0
 18 48  1  0
 18 49  1  0
 19 50  1  0
 19 51  1  0
 20 52  1  0
 21 53  1  0
M  END
$$$$
[H]Oc1c([H])c([H])c2c(c1[H])C([H])([H])C([H])([H])[C@]1([H])[C@]2([H])C([H])([H])C([H])([H])[C@]2(C([H])([H])[H])C(=O)C([H])([H])C([H])([H])[C@]21[H]
     RDKit          3D

 42 45  0  0  0  0  0  0  0  0999 V2000
   -2.3836   -1.3778    0.8257 C   0  0  0  0  0  0  0  0  0  0  0  0
   -2.3951   -0.3698   -0.2852 C   0  0  2  0  0  0  0  0  0  0  0  0
   -1.7598   -0.9004   -1.5153 C   0  0  0  0  0  0  0  0  0  0  0  0
   -0.3170   -1.2045   -1.2834 C   0  0  0  0  0  0  0  0  0  0  0  0
    0.4177   -0.0069   -0.7638 C   0  0  1  0  0  0  0  0  0  0  0  0
   -0.2761    0.5001    0.5086 C   0  0  1  0  0  0  0  0  0  0  0  0
    0.5549    1.5641    1.1385 C   0  0  0  0  0  0  0  0  0  0  0  0
    1.7980    0.8874    1.7105 C   0  0  0  0  0  0  0  0  0  0  0  0
    2.4881    0.1807    0.6011 C   0  0  0  0  0  0  0  0  0  0  0  0
    3.8402   -0.0585    0.7570 C   0  0  0  0  0  0  0  0  0  0  0  0
    4.5868   -0.7091   -0.2117 C   0  0  0  0  0  0  0  0  0  0  0  0
    5.9465   -0.9509   -0.0576 O   0  0  0  0  0  0  0  0  0  0  0  0
    3.9471   -1.1249   -1.3612 C   0  0  0  0  0  0  0  0  0  0  0  0
    2.5817   -0.8803   -1.5123 C   0  0  0  0  0  0  0  0  0  0  0  0
    1.8436   -0.2328   -0.5460 C   0  0  0  0  0  0  0  0  0  0  0  0
   -1.6400    0.9102    0.1012 C   0  0  2  0  0  0  0  0  0  0  0  0
   -2.5077    1.4699    1.1580 C   0  0  0  0  0  0  0  0  0  0  0  0
   -3.9136    1.1834    0.6475 C   0  0  0  0  0  0  0  0  0  0  0  0
   -3.7498    0.1559   -0.4387 C   0  0  0  0  0  0  0  0  0  0  0  0
   -4.6384   -0.0938   -1.2208 O   0  0  0  0  0  0  0  0  0  0  0  0
   -3.3914   -1.8879    0.8200 H   0  0  0  0  0  0  0  0  0  0  0  0
   -1.6472   -2.1791    0.7081 H   0  0  0  0  0  0  0  0  0  0  0  0
   -2.2742   -0.9449    1.8221 H   0  0  0  0  0  0  0  0  0  0  0  0
   -2.2635   -1.8816   -1.7581 H   0  0  0  0  0  0  0  0  0  0  0  0
   -1.8882   -0.2573   -2.3877 H   0  0  0  0  0  0  0  0  0  0  0  0
    0.1290   -1.4583   -2.2896 H   0  0  0  0  0  0  0  0  0  0  0  0
   -0.1406   -2.1118   -0.6652 H   0  0  0  0  0  0  0  0  0  0  0  0
    0.2900    0.8123   -1.5159 H   0  0  0  0  0  0  0  0  0  0  0  0
   -0.3503   -0.3647    1.1951 H   0  0  0  0  0  0  0  0  0  0  0  0
    0.8623    2.3405    0.4054 H   0  0  0  0  0  0  0  0  0  0  0  0
    0.0062    2.0374    1.9702 H   0  0  0  0  0  0  0  0  0  0  0  0
    2.4773    1.6117    2.1919 H   0  0  0  0  0  0  0  0  0  0  0  0
    1.4380    0.0989    2.4174 H   0  0  0  0  0  0  0  0  0  0  0  0
    4.3787    0.2541    1.6485 H   0  0  0  0  0  0  0  0  0  0  0  0
    6.5810   -0.2178   -0.4065 H   0  0  0  0  0  0  0  0  0  0  0  0
    4.5311   -1.6331   -2.1172 H   0  0  0  0  0  0  0  0  0  0  0  0
    2.1491   -1.2339   -2.4373 H   0  0  0  0  0  0  0  0  0  0  0  0
   -1.6750    1.5692   -0.7863 H   0  0  0  0  0  0  0  0  0  0  0  0
   -2.3459    1.0738    2.1671 H   0  0  0  0  0  0  0  0  0  0  0  0
   -2.3932    2.5875    1.2018 H   0  0  0  0  0  0  0  0  0  0  0  0
   -4.5388    0.7605    1.4490 H   0  0  0  0  0  0  0  0  0  0  0  0
   -4.3579    2.0825    0.1732 H   0  0  0  0  0  0  0  0  0  0  0  0
  2  1  1  1
  2  3  1  0
  3  4  1  0
  4  5  1  0
  5  6  1  0
  6  7  1  0
  7  8  1  0
  8  9  1  0
  9 10  2  0
 10 11  1  0
 11 12  1  0
 11 13  2  0
 13 14  1  0
 14 15  2  0
  6 16  1  0
 16 17  1  0
 17 18  1  0
 18 19  1  0
 19 20  2  0
 16  2  1  0
 19  2  1  0
 15  5  1  0
 15  9  1  0
  1 21  1  0
  1 22  1  0
  1 23  1  0
  3 24  1  0
  3 25  1  0
  4 26  1  0
  4 27  1  0
  5 28  1  6
  6 29  1  1
  7 30  1  0
  7 31  1  0
  8 32  1  0
  8 33  1  0
 10 34  1  0
 12 35  1  0
 13 36  1  0
 14 37  1  0
 16 38  1  6
 17 39  1  0
 17 40  1  0
 18 41  1  0
 18 42  1  0
M  END
$$$$
[H]OC1([H])C([H])([H])C([H])([H])C2([H])C3([H])C([H])([H])C([H])([H])C4([H])C([H])([H])[C@]([H])(O[H])C([H])([H])C([H])([H])[C@]4(C([H])([H])[H])C3([H])C([H])([H])C([H])([H])[C@]12C([H])([H])[H]
     RDKit          3D

 53 56  0  0  0  0  0  0  0  0999 V2000
    3.1093   -1.0024   -1.0900 C   0  0  0  0  0  0  0  0  0  0  0  0
    2.7568   -0.1336    0.0702 C   0  0  2  0  0  0  0  0  0  0  0  0
    2.1474   -0.9546    1.1532 C   0  0  0  0  0  0  0  0  0  0  0  0
    0.6270   -0.7838    1.2393 C   0  0  0  0  0  0  0  0  0  0  0  0
    0.0315   -0.7188   -0.1787 C   0  0  0  0  0  0  0  0  0  0  0  0
    0.5164    0.4861   -0.9130 C   0  0  0  0  0  0  0  0  0  0  0  0
   -0.4041    1.6471   -0.9819 C   0  0  0  0  0  0  0  0  0  0  0  0
   -1.8333    1.3695   -0.6551 C   0  0  0  0  0  0  0  0  0  0  0  0
   -2.1199   -0.0271   -1.1399 C   0  0  0  0  0  0  0  0  0  0  0  0
   -3.5928   -0.2097   -1.2145 C   0  0  0  0  0  0  0  0  0  0  0  0
   -4.2429   -0.1348    0.1289 C   0  0  2  0  0  0  0  0  0  0  0  0
   -4.3942    1.1638    0.6054 O   0  0  0  0  0  0  0  0  0  0  0  0
   -3.5642   -1.0573    1.0720 C   0  0  0  0  0  0  0  0  0  0  0  0
   -2.0836   -0.9370    1.1661 C   0  0  0  0  0  0  0  0  0  0  0  0
   -1.4223   -0.9773   -0.2045 C   0  0  2  0  0  0  0  0  0  0  0  0
   -1.7416   -2.3892   -0.7302 C   0  0  0  0  0  0  0  0  0  0  0  0
    1.7608    0.9440   -0.2411 C   0  0  0  0  0  0  0  0  0  0  0  0
    2.5693    1.9576   -0.9497 C   0  0  0  0  0  0  0  0  0  0  0  0
    3.7190    2.1027    0.0412 C   0  0  0  0  0  0  0  0  0  0  0  0
    3.9491    0.6848    0.5217 C   0  0  0  0  0  0  0  0  0  0  0  0
    5.1411    0.2596   -0.0623 O   0  0  0  0  0  0  0  0  0  0  0  0
    2.5813   -0.7701   -2.0235 H   0  0  0  0  0  0  0  0  0  0  0  0
    2.8765   -2.0875   -0.8760 H   0  0  0  0  0  0  0  0  0  0  0  0
    4.1983   -1.0054   -1.3392 H   0  0  0  0  0  0  0  0  0  0  0  0
    2.5336   -0.5668    2.1383 H   0  0  0  0  0  0  0  0  0  0  0  0
    2.4468   -1.9990    1.0658 H   0  0  0  0  0  0  0  0  0  0  0  0
    0.2805   -1.7735    1.6485 H   0  0  0  0  0  0  0  0  0  0  0  0
    0.3323    0.0692    1.8504 H   0  0  0  0  0  0  0  0  0  0  0  0
    0.5352   -1.6010   -0.6847 H   0  0  0  0  0  0  0  0  0  0  0  0
    0.7994    0.2210   -1.9754 H   0  0  0  0  0  0  0  0  0  0  0  0
   -0.3927    2.1277   -2.0064 H   0  0  0  0  0  0  0  0  0  0  0  0
   -0.0870    2.4995   -0.3078 H   0  0  0  0  0  0  0  0  0  0  0  0
   -1.9586    1.4906    0.4398 H   0  0  0  0  0  0  0  0  0  0  0  0
   -2.5021    2.0510   -1.2266 H   0  0  0  0  0  0  0  0  0  0  0  0
   -1.6728   -0.1518   -2.1371 H   0  0  0  0  0  0  0  0  0  0  0  0
   -3.9935    0.6641   -1.8101 H   0  0  0  0  0  0  0  0  0  0  0  0
   -3.9221   -1.1038   -1.7855 H   0  0  0  0  0  0  0  0  0  0  0  0
   -5.2956   -0.5232   -0.0058 H   0  0  0  0  0  0  0  0  0  0  0  0
   -4.6735    1.7327   -0.1323 H   0  0  0  0  0  0  0  0  0  0  0  0
   -3.8853   -2.1058    0.8070 H   0  0  0  0  0  0  0  0  0  0  0  0
   -3.9662   -0.9182    2.1167 H   0  0  0  0  0  0  0  0  0  0  0  0
   -1.7459   -1.8387    1.7603 H   0  0  0  0  0  0  0  0  0  0  0  0
   -1.7959   -0.0569    1.7548 H   0  0  0  0  0  0  0  0  0  0  0  0
   -1.3833   -3.1485    0.0243 H   0  0  0  0  0  0  0  0  0  0  0  0
   -1.1448   -2.5348   -1.6367 H   0  0  0  0  0  0  0  0  0  0  0  0
   -2.8078   -2.5421   -0.8677 H   0  0  0  0  0  0  0  0  0  0  0  0
    1.4561    1.3855    0.7538 H   0  0  0  0  0  0  0  0  0  0  0  0
    2.0742    2.9620   -1.0024 H   0  0  0  0  0  0  0  0  0  0  0  0
    2.9188    1.6507   -1.9389 H   0  0  0  0  0  0  0  0  0  0  0  0
    4.6141    2.5381   -0.4361 H   0  0  0  0  0  0  0  0  0  0  0  0
    3.3316    2.7026    0.8783 H   0  0  0  0  0  0  0  0  0  0  0  0
    4.0905    0.6361    1.6185 H   0  0  0  0  0  0  0  0  0  0  0  0
    5.2290    0.7072   -0.9402 H   0  0  0  0  0  0  0  0  0  0  0  0
  2  1  1  6
  2  3  1  0
  3  4  1  0
  4  5  1  0
  5  6  1  0
  6  7  1  0
  7  8  1  0
  8  9  1  0
  9 10  1  0
 10 11  1  0
 11 12  1  0
 11 13  1  0
 13 14  1  0
 14 15  1  0
 15 16  1  6
  6 17  1  0
 17 18  1  0
 18 19  1  0
 19 20  1  0
 20 21  1  0
 17  2  1  0
 20  2  1  0
 15  5  1  0
 15  9  1  0
  1 22  1  0
  1 23  1  0
  1 24  1  0
  3 25  1  0
  3 26  1  0
  4 27  1  0
  4 28  1  0
  5 29  1  0
  6 30  1  0
  7 31  1  0
  7 32  1  0
  8 33  1  0
  8 34  1  0
  9 35  1  0
 10 36  1  0
 10 37  1  0
 11 38  1  6
 12 39  1  0
 13 40  1  0
 13 41  1  0
 14 42  1  0
 14 43  1  0
 16 44  1  0
 16 45  1  0
 16 46  1  0
 17 47  1  0
 18 48  1  0
 18 49  1  0
 19 50  1  0
 19 51  1  0
 20 52  1  0
 21 53  1  0
M  END
$$$$
[H]OC1([H])C([H])([H])C([H])([H])C2([H])C3([H])C([H])([H])C([H])([H])C4=C([H])C(=O)C([H])([H])C([H])([H])[C@]4(C([H])([H])[H])C3([H])C([H])([H])C([H])([H])[C@]12C([H])([H])[H]
     RDKit          3D

 49 52  0  0  0  0  0  0  0  0999 V2000
    2.4951    1.4829    1.0374 C   0  0  0  0  0  0  0  0  0  0  0  0
    2.2239    0.5754   -0.1457 C   0  0  2  0  0  0  0  0  0  0  0  0
    1.4868    1.3409   -1.2073 C   0  0  0  0  0  0  0  0  0  0  0  0
    0.0671    1.4704   -0.7616 C   0  0  0  0  0  0  0  0  0  0  0  0
   -0.5834    0.1191   -0.7973 C   0  0  0  0  0  0  0  0  0  0  0  0
    0.2596   -1.0154   -0.3859 C   0  0  0  0  0  0  0  0  0  0  0  0
   -0.4065   -2.0232    0.5253 C   0  0  0  0  0  0  0  0  0  0  0  0
   -1.8556   -2.1908    0.3591 C   0  0  0  0  0  0  0  0  0  0  0  0
   -2.6013   -0.9960   -0.0772 C   0  0  0  0  0  0  0  0  0  0  0  0
   -3.8295   -1.1534   -0.5220 C   0  0  0  0  0  0  0  0  0  0  0  0
   -4.6083    0.0214   -0.9677 C   0  0  0  0  0  0  0  0  0  0  0  0
   -5.5795   -0.1286   -1.7344 O   0  0  0  0  0  0  0  0  0  0  0  0
   -4.1243    1.3140   -0.4269 C   0  0  0  0  0  0  0  0  0  0  0  0
   -2.6356    1.4288   -0.5532 C   0  0  0  0  0  0  0  0  0  0  0  0
   -1.8656    0.2763    0.0382 C   0  0  2  0  0  0  0  0  0  0  0  0
   -1.5203    0.6063    1.4722 C   0  0  0  0  0  0  0  0  0  0  0  0
    1.5683   -0.7006    0.2489 C   0  0  0  0  0  0  0  0  0  0  0  0
    2.5943   -1.8029   -0.0643 C   0  0  0  0  0  0  0  0  0  0  0  0
    3.9043   -1.0967    0.0144 C   0  0  0  0  0  0  0  0  0  0  0  0
    3.5880    0.2119   -0.7225 C   0  0  0  0  0  0  0  0  0  0  0  0
    4.5690    1.1085   -0.3698 O   0  0  0  0  0  0  0  0  0  0  0  0
    3.2986    2.2150    0.8270 H   0  0  0  0  0  0  0  0  0  0  0  0
    2.7804    0.7898    1.8830 H   0  0  0  0  0  0  0  0  0  0  0  0
    1.6230    2.0337    1.3826 H   0  0  0  0  0  0  0  0  0  0  0  0
    1.9879    2.3153   -1.3309 H   0  0  0  0  0  0  0  0  0  0  0  0
    1.4880    0.7794   -2.1664 H   0  0  0  0  0  0  0  0  0  0  0  0
   -0.4412    2.1634   -1.4849 H   0  0  0  0  0  0  0  0  0  0  0  0
   -0.0535    1.9485    0.2250 H   0  0  0  0  0  0  0  0  0  0  0  0
   -0.9786    0.0143   -1.8442 H   0  0  0  0  0  0  0  0  0  0  0  0
    0.4943   -1.6022   -1.3168 H   0  0  0  0  0  0  0  0  0  0  0  0
    0.0739   -3.0359    0.3683 H   0  0  0  0  0  0  0  0  0  0  0  0
   -0.1522   -1.7736    1.5853 H   0  0  0  0  0  0  0  0  0  0  0  0
   -2.1270   -3.0554   -0.3164 H   0  0  0  0  0  0  0  0  0  0  0  0
   -2.3160   -2.4925    1.3480 H   0  0  0  0  0  0  0  0  0  0  0  0
   -4.2906   -2.1454   -0.5694 H   0  0  0  0  0  0  0  0  0  0  0  0
   -4.4477    1.3555    0.6345 H   0  0  0  0  0  0  0  0  0  0  0  0
   -4.5796    2.1109   -1.0199 H   0  0  0  0  0  0  0  0  0  0  0  0
   -2.4052    1.4642   -1.6497 H   0  0  0  0  0  0  0  0  0  0  0  0
   -2.3331    2.3708   -0.0396 H   0  0  0  0  0  0  0  0  0  0  0  0
   -1.9981    1.5596    1.7635 H   0  0  0  0  0  0  0  0  0  0  0  0
   -1.9862   -0.1827    2.1156 H   0  0  0  0  0  0  0  0  0  0  0  0
   -0.4560    0.6025    1.6977 H   0  0  0  0  0  0  0  0  0  0  0  0
    1.5253   -0.7075    1.3703 H   0  0  0  0  0  0  0  0  0  0  0  0
    2.4839   -2.6302    0.6687 H   0  0  0  0  0  0  0  0  0  0  0  0
    2.4315   -2.1495   -1.1018 H   0  0  0  0  0  0  0  0  0  0  0  0
    4.1666   -0.9038    1.0682 H   0  0  0  0  0  0  0  0  0  0  0  0
    4.7076   -1.6276   -0.5361 H   0  0  0  0  0  0  0  0  0  0  0  0
    3.5436   -0.0172   -1.7900 H   0  0  0  0  0  0  0  0  0  0  0  0
    4.8140    1.7527   -1.0736 H   0  0  0  0  0  0  0  0  0  0  0  0
  2  1  1  1
  2  3  1  0
  3  4  1  0
  4  5  1  0
  5  6  1  0
  6  7  1  0
  7  8  1  0
  8  9  1  0
  9 10  2  0
 10 11  1  0
 11 12  2  0
 11 13  1  0
 13 14  1  0
 14 15  1  0
 15 16  1  1
  6 17  1  0
 17 18  1  0
 18 19  1  0
 19 20  1  0
 20 21  1  0
 17  2  1  0
 20  2  1  0
 15  5  1  0
 15  9  1  0
  1 22  1  0
  1 23  1  0
  1 24  1  0
  3 25  1  0
  3 26  1  0
  4 27  1  0
  4 28  1  0
  5 29  1  0
  6 30  1  0
  7 31  1  0
  7 32  1  0
  8 33  1  0
  8 34  1  0
 10 35  1  0
 13 36  1  0
 13 37  1  0
 14 38  1  0
 14 39  1  0
 16 40  1  0
 16 41  1  0
 16 42  1  0
 17 43  1  0
 18 44  1  0
 18 45  1  0
 19 46  1  0
 19 47  1  0
 20 48  1  0
 21 49  1  0
M  END
$$$$
