[H]/C(=C(/[H])c1c([H])c([H])c([H])c(C([H])([H])C([H])([H])C([H])([H])C([H])([H])C([H])([H])OC(=O)C([H])([H])C([H])([H])C([H])([H])C([H])([H])C([H])([H])C([H])([H])C([H])([H])C([H])([H])C([H])([H])C([H])([H])C([H])([H])C([H])([H])C([H])([H])[H])c1[H])c1nc([H])c([H])s1
     RDKit          3D

 79 80  0  0  0  0  0  0  0  0999 V2000
    5.6855    3.4311    2.2680 C   0  0  0  0  0  0  0  0  0  0  0  0
    6.9811    2.8379    2.6723 C   0  0  0  0  0  0  0  0  0  0  0  0
    8.0437    2.8259    1.6539 C   0  0  0  0  0  0  0  0  0  0  0  0
    7.8359    2.0057    0.4394 C   0  0  0  0  0  0  0  0  0  0  0  0
    6.6928    2.3492   -0.4361 C   0  0  0  0  0  0  0  0  0  0  0  0
    6.6845    1.4485   -1.6879 C   0  0  0  0  0  0  0  0  0  0  0  0
    6.5606    0.0103   -1.3333 C   0  0  0  0  0  0  0  0  0  0  0  0
    5.2981   -0.3044   -0.5401 C   0  0  0  0  0  0  0  0  0  0  0  0
    4.0630    0.0539   -1.2994 C   0  0  0  0  0  0  0  0  0  0  0  0
    2.8450   -0.2349   -0.4731 C   0  0  0  0  0  0  0  0  0  0  0  0
    2.7985   -1.7036   -0.1253 C   0  0  0  0  0  0  0  0  0  0  0  0
    1.6008   -2.0499    0.6934 C   0  0  0  0  0  0  0  0  0  0  0  0
    0.3073   -1.7567    0.0362 C   0  0  0  0  0  0  0  0  0  0  0  0
    0.0603   -2.4812   -1.2037 C   0  0  0  0  0  0  0  0  0  0  0  0
    0.8825   -3.3187   -1.6467 O   0  0  0  0  0  0  0  0  0  0  0  0
   -1.1055   -2.2669   -1.9432 O   0  0  0  0  0  0  0  0  0  0  0  0
   -1.3168   -2.9785   -3.1300 C   0  0  0  0  0  0  0  0  0  0  0  0
   -2.6117   -2.6083   -3.7499 C   0  0  0  0  0  0  0  0  0  0  0  0
   -3.7804   -2.9240   -2.9126 C   0  0  0  0  0  0  0  0  0  0  0  0
   -3.8815   -2.2591   -1.5684 C   0  0  0  0  0  0  0  0  0  0  0  0
   -5.2044   -2.7572   -0.9697 C   0  0  0  0  0  0  0  0  0  0  0  0
   -5.4454   -2.1703    0.3735 C   0  0  0  0  0  0  0  0  0  0  0  0
   -4.9500   -2.8143    1.4720 C   0  0  0  0  0  0  0  0  0  0  0  0
   -5.1893   -2.2598    2.7230 C   0  0  0  0  0  0  0  0  0  0  0  0
   -5.9060   -1.0929    2.8563 C   0  0  0  0  0  0  0  0  0  0  0  0
   -6.4132   -0.4309    1.7584 C   0  0  0  0  0  0  0  0  0  0  0  0
   -7.1706    0.8041    1.9070 C   0  0  0  0  0  0  0  0  0  0  0  0
   -7.6925    1.5144    0.9493 C   0  0  0  0  0  0  0  0  0  0  0  0
   -8.4462    2.7545    1.1816 C   0  0  0  0  0  0  0  0  0  0  0  0
   -8.7428    3.3787    2.3128 N   0  0  0  0  0  0  0  0  0  0  0  0
   -9.4286    4.4734    2.2832 C   0  0  0  0  0  0  0  0  0  0  0  0
   -9.8280    4.9516    1.0635 C   0  0  0  0  0  0  0  0  0  0  0  0
   -9.1679    3.7555    0.0101 S   0  0  0  0  0  0  0  0  0  0  0  0
   -6.1729   -0.9846    0.5223 C   0  0  0  0  0  0  0  0  0  0  0  0
    5.3537    4.1596    3.0751 H   0  0  0  0  0  0  0  0  0  0  0  0
    4.8596    2.6881    2.1129 H   0  0  0  0  0  0  0  0  0  0  0  0
    5.7908    4.0463    1.3800 H   0  0  0  0  0  0  0  0  0  0  0  0
    7.3937    3.3689    3.5775 H   0  0  0  0  0  0  0  0  0  0  0  0
    6.7671    1.8055    3.0768 H   0  0  0  0  0  0  0  0  0  0  0  0
    8.2373    3.8925    1.2678 H   0  0  0  0  0  0  0  0  0  0  0  0
    9.0538    2.5876    2.1258 H   0  0  0  0  0  0  0  0  0  0  0  0
    7.6799    0.9155    0.7348 H   0  0  0  0  0  0  0  0  0  0  0  0
    8.8106    2.0541   -0.1408 H   0  0  0  0  0  0  0  0  0  0  0  0
    6.6492    3.4040   -0.7270 H   0  0  0  0  0  0  0  0  0  0  0  0
    5.7064    2.0970    0.0596 H   0  0  0  0  0  0  0  0  0  0  0  0
    7.6202    1.6061   -2.2384 H   0  0  0  0  0  0  0  0  0  0  0  0
    5.8584    1.8217   -2.3244 H   0  0  0  0  0  0  0  0  0  0  0  0
    6.4858   -0.6435   -2.2520 H   0  0  0  0  0  0  0  0  0  0  0  0
    7.4284   -0.3372   -0.7591 H   0  0  0  0  0  0  0  0  0  0  0  0
    5.3914    0.1354    0.4585 H   0  0  0  0  0  0  0  0  0  0  0  0
    5.3515   -1.4194   -0.3897 H   0  0  0  0  0  0  0  0  0  0  0  0
    4.0216   -0.5932   -2.2253 H   0  0  0  0  0  0  0  0  0  0  0  0
    4.0774    1.0896   -1.6926 H   0  0  0  0  0  0  0  0  0  0  0  0
    1.9074    0.0575   -1.0030 H   0  0  0  0  0  0  0  0  0  0  0  0
    2.9014    0.3410    0.4832 H   0  0  0  0  0  0  0  0  0  0  0  0
    2.9422   -2.2611   -1.0526 H   0  0  0  0  0  0  0  0  0  0  0  0
    3.6987   -1.9545    0.5302 H   0  0  0  0  0  0  0  0  0  0  0  0
    1.6062   -3.1569    0.9340 H   0  0  0  0  0  0  0  0  0  0  0  0
    1.6894   -1.5543    1.6935 H   0  0  0  0  0  0  0  0  0  0  0  0
    0.2211   -0.6614   -0.1661 H   0  0  0  0  0  0  0  0  0  0  0  0
   -0.5585   -1.9919    0.7299 H   0  0  0  0  0  0  0  0  0  0  0  0
   -0.4533   -2.7836   -3.8341 H   0  0  0  0  0  0  0  0  0  0  0  0
   -1.2465   -4.0626   -2.8757 H   0  0  0  0  0  0  0  0  0  0  0  0
   -2.6562   -1.5034   -3.9838 H   0  0  0  0  0  0  0  0  0  0  0  0
   -2.7658   -3.0844   -4.7509 H   0  0  0  0  0  0  0  0  0  0  0  0
   -4.7048   -2.7517   -3.5218 H   0  0  0  0  0  0  0  0  0  0  0  0
   -3.7705   -4.0457   -2.7452 H   0  0  0  0  0  0  0  0  0  0  0  0
   -3.9690   -1.1648   -1.6531 H   0  0  0  0  0  0  0  0  0  0  0  0
   -3.1140   -2.6078   -0.8449 H   0  0  0  0  0  0  0  0  0  0  0  0
   -5.3076   -3.8390   -1.0140 H   0  0  0  0  0  0  0  0  0  0  0  0
   -5.9962   -2.3289   -1.6420 H   0  0  0  0  0  0  0  0  0  0  0  0
   -4.3779   -3.7322    1.4502 H   0  0  0  0  0  0  0  0  0  0  0  0
   -4.8212   -2.7244    3.6344 H   0  0  0  0  0  0  0  0  0  0  0  0
   -6.1030   -0.6434    3.8365 H   0  0  0  0  0  0  0  0  0  0  0  0
   -7.3268    1.1899    2.9246 H   0  0  0  0  0  0  0  0  0  0  0  0
   -7.5676    1.1806   -0.0676 H   0  0  0  0  0  0  0  0  0  0  0  0
   -9.6996    5.0292    3.2025 H   0  0  0  0  0  0  0  0  0  0  0  0
  -10.4150    5.8629    0.8497 H   0  0  0  0  0  0  0  0  0  0  0  0
   -6.5359   -0.5287   -0.3902 H   0  0  0  0  0  0  0  0  0  0  0  0
  1  2  1  0
  2  3  1  0
  3  4  1  0
  4  5  1  0
  5  6  1  0
  6  7  1  0
  7  8  1  0
  8  9  1  0
  9 10  1  0
 10 11  1  0
 11 12  1  0
 12 13  1  0
 13 14  1  0
 14 15  2  0
 14 16  1  0
 16 17  1  0
 17 18  1  0
 18 19  1  0
 19 20  1  0
 20 21  1  0
 21 22  1  0
 22 23  2  0
 23 24  1  0
 24 25  2  0
 25 26  1  0
 26 27  1  0
 27 28  2  0
 28 29  1  0
 29 30  2  0
 30 31  1  0
 31 32  2  0
 32 33  1  0
 26 34  2  0
 34 22  1  0
 33 29  1  0
  1 35  1  0
  1 36  1  0
  1 37  1  0
  2 38  1  0
  2 39  1  0
  3 40  1  0
  3 41  1  0
  4 42  1  0
  4 43  1  0
  5 44  1  0
  5 45  1  0
  6 46  1  0
  6 47  1  0
  7 48  1  0
  7 49  1  0
  8 50  1  0
  8 51  1  0
  9 52  1  0
  9 53  1  0
 10 54  1  0
 10 55  1  0
 11 56  1  0
 11 57  1  0
 12 58  1  0
 12 59  1  0
 13 60  1  0
 13 61  1  0
 17 62  1  0
 17 63  1  0
 18 64  1  0
 18 65  1  0
 19 66  1  0
 19 67  1  0
 20 68  1  0
 20 69  1  0
 21 70  1  0
 21 71  1  0
 23 72  1  0
 24 73  1  0
 25 74  1  0
 27 75  1  0
 28 76  1  0
 31 77  1  0
 32 78  1  0
 34 79  1  0
M  END
$$$$
[H]/C(=C1\SC(C([H])([H])[H])(C([H])([H])[H])N([H])C(=O)N(C([H])([H])C(=O)N2C([H])([H])C([H])([H])N(C([H])([H])[H])C([H])([H])C2([H])[H])C1=O)c1c([H])c([H])c(Cl)c(Cl)c1[H]
     RDKit          3D

 54 56  0  0  0  0  0  0  0  0999 V2000
    4.6822    2.4583    0.6171 C   0  0  0  0  0  0  0  0  0  0  0  0
    4.6657    1.9151   -0.7041 N   0  0  0  0  0  0  0  0  0  0  0  0
    5.0317    0.5390   -0.7968 C   0  0  0  0  0  0  0  0  0  0  0  0
    3.9194   -0.4143   -0.5162 C   0  0  0  0  0  0  0  0  0  0  0  0
    2.6681    0.0539   -1.0745 N   0  0  0  0  0  0  0  0  0  0  0  0
    2.7041    1.1569   -1.9867 C   0  0  0  0  0  0  0  0  0  0  0  0
    3.5405    2.2930   -1.4960 C   0  0  0  0  0  0  0  0  0  0  0  0
    1.4266   -0.5560   -0.7358 C   0  0  0  0  0  0  0  0  0  0  0  0
    1.4524   -1.5209    0.0688 O   0  0  0  0  0  0  0  0  0  0  0  0
    0.1409   -0.0595   -1.3215 C   0  0  0  0  0  0  0  0  0  0  0  0
   -0.9309   -0.8802   -0.7862 N   0  0  0  0  0  0  0  0  0  0  0  0
   -1.2424   -2.0388   -1.5505 C   0  0  0  0  0  0  0  0  0  0  0  0
   -0.7095   -2.1257   -2.7087 O   0  0  0  0  0  0  0  0  0  0  0  0
   -2.0860   -3.1121   -1.1601 N   0  0  0  0  0  0  0  0  0  0  0  0
   -2.4540   -3.6628    0.1004 C   0  0  0  0  0  0  0  0  0  0  0  0
   -3.3089   -4.8995   -0.0824 C   0  0  0  0  0  0  0  0  0  0  0  0
   -1.2088   -4.1186    0.8586 C   0  0  0  0  0  0  0  0  0  0  0  0
   -3.3579   -2.5370    1.1878 S   0  0  0  0  0  0  0  0  0  0  0  0
   -2.7549   -0.8575    1.0162 C   0  0  0  0  0  0  0  0  0  0  0  0
   -3.4982    0.0701    1.5371 C   0  0  0  0  0  0  0  0  0  0  0  0
   -3.2047    1.4801    1.5036 C   0  0  0  0  0  0  0  0  0  0  0  0
   -3.0466    2.1391    0.3149 C   0  0  0  0  0  0  0  0  0  0  0  0
   -2.7655    3.5036    0.2501 C   0  0  0  0  0  0  0  0  0  0  0  0
   -2.6538    4.1599    1.4473 C   0  0  0  0  0  0  0  0  0  0  0  0
   -2.2991    5.8856    1.4173 Cl  0  0  0  0  0  0  0  0  0  0  0  0
   -2.8066    3.5282    2.6614 C   0  0  0  0  0  0  0  0  0  0  0  0
   -2.6485    4.4390    4.1699 Cl  0  0  0  0  0  0  0  0  0  0  0  0
   -3.0833    2.1801    2.6694 C   0  0  0  0  0  0  0  0  0  0  0  0
   -1.4981   -0.4052    0.4175 C   0  0  0  0  0  0  0  0  0  0  0  0
   -0.9137    0.4928    1.0905 O   0  0  0  0  0  0  0  0  0  0  0  0
    5.3809    3.3430    0.6175 H   0  0  0  0  0  0  0  0  0  0  0  0
    3.7182    2.8221    0.9687 H   0  0  0  0  0  0  0  0  0  0  0  0
    5.1340    1.7027    1.3013 H   0  0  0  0  0  0  0  0  0  0  0  0
    5.8782    0.3705   -0.0837 H   0  0  0  0  0  0  0  0  0  0  0  0
    5.4608    0.3392   -1.8059 H   0  0  0  0  0  0  0  0  0  0  0  0
    4.1048   -1.4148   -0.9627 H   0  0  0  0  0  0  0  0  0  0  0  0
    3.8062   -0.5476    0.5967 H   0  0  0  0  0  0  0  0  0  0  0  0
    1.6651    1.5479   -2.1357 H   0  0  0  0  0  0  0  0  0  0  0  0
    3.0702    0.7557   -2.9727 H   0  0  0  0  0  0  0  0  0  0  0  0
    3.9202    2.8371   -2.3947 H   0  0  0  0  0  0  0  0  0  0  0  0
    2.9402    3.0509   -0.9268 H   0  0  0  0  0  0  0  0  0  0  0  0
    0.1375   -0.1402   -2.4318 H   0  0  0  0  0  0  0  0  0  0  0  0
    0.0072    0.9795   -0.9727 H   0  0  0  0  0  0  0  0  0  0  0  0
   -2.5232   -3.5925   -1.9915 H   0  0  0  0  0  0  0  0  0  0  0  0
   -3.2421   -5.5799    0.7914 H   0  0  0  0  0  0  0  0  0  0  0  0
   -2.8724   -5.4414   -0.9677 H   0  0  0  0  0  0  0  0  0  0  0  0
   -4.3428   -4.6052   -0.3291 H   0  0  0  0  0  0  0  0  0  0  0  0
   -0.4179   -4.3144    0.0864 H   0  0  0  0  0  0  0  0  0  0  0  0
   -0.8040   -3.2951    1.4828 H   0  0  0  0  0  0  0  0  0  0  0  0
   -1.3664   -5.0566    1.3893 H   0  0  0  0  0  0  0  0  0  0  0  0
   -4.4390   -0.2098    2.0560 H   0  0  0  0  0  0  0  0  0  0  0  0
   -3.1327    1.6299   -0.6415 H   0  0  0  0  0  0  0  0  0  0  0  0
   -2.6431    4.0111   -0.7074 H   0  0  0  0  0  0  0  0  0  0  0  0
   -3.1997    1.7013    3.6257 H   0  0  0  0  0  0  0  0  0  0  0  0
  1  2  1  0
  2  3  1  0
  3  4  1  0
  4  5  1  0
  5  6  1  0
  6  7  1  0
  5  8  1  0
  8  9  2  0
  8 10  1  0
 10 11  1  0
 11 12  1  0
 12 13  2  0
 12 14  1  0
 14 15  1  0
 15 16  1  0
 15 17  1  0
 15 18  1  0
 18 19  1  0
 19 20  2  0
 20 21  1  0
 21 22  2  0
 22 23  1  0
 23 24  2  0
 24 25  1  0
 24 26  1  0
 26 27  1  0
 26 28  2  0
 19 29  1  0
 29 30  2  0
  7  2  1  0
 29 11  1  0
 28 21  1  0
  1 31  1  0
  1 32  1  0
  1 33  1  0
  3 34  1  0
  3 35  1  0
  4 36  1  0
  4 37  1  0
  6 38  1  0
  6 39  1  0
  7 40  1  0
  7 41  1  0
 10 42  1  0
 10 43  1  0
 14 44  1  0
 16 45  1  0
 16 46  1  0
 16 47  1  0
 17 48  1  0
 17 49  1  0
 17 50  1  0
 20 51  1  0
 22 52  1  0
 23 53  1  0
 28 54  1  0
M  END
$$$$
[H]c1c(O[C@@]2([H])C([H])([H])N([H])C([H])([H])C([H])([H])C2([H])[H])c([H])n(C([H])([H])[H])c1C(=O)N([H])C([H])([H])C(=O)N([H])[C@]1([H])C([H])([H])[C@]1([H])C([H])([H])[H]
     RDKit          3D

 50 52  0  0  0  0  0  0  0  0999 V2000
    3.3425   -1.5121   -1.1609 C   0  0  0  0  0  0  0  0  0  0  0  0
    4.7416   -1.1750   -1.6035 C   0  0  1  0  0  0  0  0  0  0  0  0
    4.8937   -0.4440   -2.9270 C   0  0  0  0  0  0  0  0  0  0  0  0
    5.1758    0.2532   -1.6430 C   0  0  1  0  0  0  0  0  0  0  0  0
    4.1771    1.2044   -1.1305 N   0  0  0  0  0  0  0  0  0  0  0  0
    4.5810    2.3278   -0.4113 C   0  0  0  0  0  0  0  0  0  0  0  0
    5.8380    2.5459   -0.2013 O   0  0  0  0  0  0  0  0  0  0  0  0
    3.6668    3.3233    0.1424 C   0  0  0  0  0  0  0  0  0  0  0  0
    2.2829    2.9384   -0.0536 N   0  0  0  0  0  0  0  0  0  0  0  0
    1.7303    1.8230    0.5806 C   0  0  0  0  0  0  0  0  0  0  0  0
    2.5640    1.1963    1.3584 O   0  0  0  0  0  0  0  0  0  0  0  0
    0.3935    1.3009    0.4802 C   0  0  0  0  0  0  0  0  0  0  0  0
   -0.0103    0.1558    1.1938 C   0  0  0  0  0  0  0  0  0  0  0  0
   -1.3282   -0.0727    0.8776 C   0  0  0  0  0  0  0  0  0  0  0  0
   -2.1166   -1.1321    1.3839 O   0  0  0  0  0  0  0  0  0  0  0  0
   -3.4539   -1.2768    0.9909 C   0  0  2  0  0  0  0  0  0  0  0  0
   -4.3510   -1.0791    2.1825 C   0  0  0  0  0  0  0  0  0  0  0  0
   -5.7421   -1.6302    1.9655 C   0  0  0  0  0  0  0  0  0  0  0  0
   -5.5439   -3.1271    1.6907 C   0  0  0  0  0  0  0  0  0  0  0  0
   -4.8912   -3.2331    0.4364 N   0  0  0  0  0  0  0  0  0  0  0  0
   -3.6660   -2.5642    0.2692 C   0  0  0  0  0  0  0  0  0  0  0  0
   -1.6811    0.9123    0.0042 C   0  0  0  0  0  0  0  0  0  0  0  0
   -0.6290    1.7485   -0.2362 N   0  0  0  0  0  0  0  0  0  0  0  0
   -0.7069    2.9062   -1.1375 C   0  0  0  0  0  0  0  0  0  0  0  0
    3.2038   -2.6192   -1.2178 H   0  0  0  0  0  0  0  0  0  0  0  0
    3.2202   -1.2238   -0.0952 H   0  0  0  0  0  0  0  0  0  0  0  0
    2.5771   -0.9665   -1.7355 H   0  0  0  0  0  0  0  0  0  0  0  0
    5.5251   -1.9082   -1.3095 H   0  0  0  0  0  0  0  0  0  0  0  0
    5.7517   -0.7202   -3.5465 H   0  0  0  0  0  0  0  0  0  0  0  0
    3.9493   -0.2040   -3.4731 H   0  0  0  0  0  0  0  0  0  0  0  0
    6.2215    0.5119   -1.4067 H   0  0  0  0  0  0  0  0  0  0  0  0
    3.2084    0.9866   -1.3613 H   0  0  0  0  0  0  0  0  0  0  0  0
    3.7962    4.3328   -0.3324 H   0  0  0  0  0  0  0  0  0  0  0  0
    3.8248    3.4740    1.2488 H   0  0  0  0  0  0  0  0  0  0  0  0
    1.7241    3.5257   -0.6836 H   0  0  0  0  0  0  0  0  0  0  0  0
    0.5794   -0.4555    1.8732 H   0  0  0  0  0  0  0  0  0  0  0  0
   -3.7017   -0.4673    0.2813 H   0  0  0  0  0  0  0  0  0  0  0  0
   -4.3787   -0.0174    2.5007 H   0  0  0  0  0  0  0  0  0  0  0  0
   -3.9278   -1.6430    3.0574 H   0  0  0  0  0  0  0  0  0  0  0  0
   -6.3490   -1.4465    2.8525 H   0  0  0  0  0  0  0  0  0  0  0  0
   -6.1573   -1.1776    1.0379 H   0  0  0  0  0  0  0  0  0  0  0  0
   -4.8940   -3.5141    2.4889 H   0  0  0  0  0  0  0  0  0  0  0  0
   -6.5192   -3.6515    1.6227 H   0  0  0  0  0  0  0  0  0  0  0  0
   -5.6051   -3.0536   -0.3283 H   0  0  0  0  0  0  0  0  0  0  0  0
   -2.8329   -3.2576    0.5722 H   0  0  0  0  0  0  0  0  0  0  0  0
   -3.4932   -2.4131   -0.8371 H   0  0  0  0  0  0  0  0  0  0  0  0
   -2.6602    1.0445   -0.4581 H   0  0  0  0  0  0  0  0  0  0  0  0
   -0.5722    3.8590   -0.6143 H   0  0  0  0  0  0  0  0  0  0  0  0
   -1.7328    2.9132   -1.5982 H   0  0  0  0  0  0  0  0  0  0  0  0
   -0.0243    2.7021   -1.9749 H   0  0  0  0  0  0  0  0  0  0  0  0
  1  2  1  0
  2  3  1  0
  3  4  1  0
  4  5  1  0
  5  6  1  0
  6  7  2  0
  6  8  1  0
  8  9  1  0
  9 10  1  0
 10 11  2  0
 10 12  1  0
 12 13  2  0
 13 14  1  0
 14 15  1  0
 15 16  1  0
 16 17  1  0
 17 18  1  0
 18 19  1  0
 19 20  1  0
 20 21  1  0
 14 22  2  0
 22 23  1  0
 23 24  1  0
  4  2  1  0
 23 12  1  0
 21 16  1  0
  1 25  1  0
  1 26  1  0
  1 27  1  0
  2 28  1  6
  3 29  1  0
  3 30  1  0
  4 31  1  6
  5 32  1  0
  8 33  1  0
  8 34  1  0
  9 35  1  0
 13 36  1  0
 16 37  1  6
 17 38  1  0
 17 39  1  0
 18 40  1  0
 18 41  1  0
 19 42  1  0
 19 43  1  0
 20 44  1  0
 21 45  1  0
 21 46  1  0
 22 47  1  0
 24 48  1  0
 24 49  1  0
 24 50  1  0
M  END
$$$$
[H]OC(=O)c1c([H])c([H])c([H])c2c([H])c(OC([H])([H])C(=O)O[H])c([H])c([H])c12
     RDKit          3D

 28 29  0  0  0  0  0  0  0  0999 V2000
   -2.8034    2.7196    0.8532 O   0  0  0  0  0  0  0  0  0  0  0  0
   -3.3986    1.5217    0.5941 C   0  0  0  0  0  0  0  0  0  0  0  0
   -4.6868    1.5650    0.7795 O   0  0  0  0  0  0  0  0  0  0  0  0
   -2.8133    0.2707    0.1589 C   0  0  0  0  0  0  0  0  0  0  0  0
   -3.6589   -0.7900   -0.2189 C   0  0  0  0  0  0  0  0  0  0  0  0
   -3.2176   -1.9919   -0.6605 C   0  0  0  0  0  0  0  0  0  0  0  0
   -1.8740   -2.2199   -0.7563 C   0  0  0  0  0  0  0  0  0  0  0  0
   -0.9893   -1.2169   -0.3994 C   0  0  0  0  0  0  0  0  0  0  0  0
    0.3658   -1.4218   -0.4805 C   0  0  0  0  0  0  0  0  0  0  0  0
    1.2858   -0.4659   -0.1341 C   0  0  0  0  0  0  0  0  0  0  0  0
    2.6456   -0.7158   -0.2319 O   0  0  0  0  0  0  0  0  0  0  0  0
    3.5347    0.3117    0.1409 C   0  0  0  0  0  0  0  0  0  0  0  0
    4.9199   -0.1328   -0.0283 C   0  0  0  0  0  0  0  0  0  0  0  0
    6.0227    0.6767    0.2636 O   0  0  0  0  0  0  0  0  0  0  0  0
    5.1471   -1.2899   -0.4537 O   0  0  0  0  0  0  0  0  0  0  0  0
    0.7847    0.7362    0.3089 C   0  0  0  0  0  0  0  0  0  0  0  0
   -0.5651    0.9884    0.4071 C   0  0  0  0  0  0  0  0  0  0  0  0
   -1.4709    0.0213    0.0559 C   0  0  0  0  0  0  0  0  0  0  0  0
   -3.0022    3.5128    0.2802 H   0  0  0  0  0  0  0  0  0  0  0  0
   -4.7302   -0.5916   -0.1368 H   0  0  0  0  0  0  0  0  0  0  0  0
   -3.9170   -2.7705   -0.9370 H   0  0  0  0  0  0  0  0  0  0  0  0
   -1.5028   -3.1726   -1.1069 H   0  0  0  0  0  0  0  0  0  0  0  0
    0.6758   -2.4137   -0.8455 H   0  0  0  0  0  0  0  0  0  0  0  0
    3.3610    0.4960    1.2306 H   0  0  0  0  0  0  0  0  0  0  0  0
    3.3016    1.2434   -0.4241 H   0  0  0  0  0  0  0  0  0  0  0  0
    5.9039    1.6829    0.2587 H   0  0  0  0  0  0  0  0  0  0  0  0
    1.5228    1.5019    0.5867 H   0  0  0  0  0  0  0  0  0  0  0  0
   -0.8413    1.9448    0.7665 H   0  0  0  0  0  0  0  0  0  0  0  0
  1  2  1  0
  2  3  2  0
  2  4  1  0
  4  5  2  0
  5  6  1  0
  6  7  2  0
  7  8  1  0
  8  9  2  0
  9 10  1  0
 10 11  1  0
 11 12  1  0
 12 13  1  0
 13 14  1  0
 13 15  2  0
 10 16  2  0
 16 17  1  0
 17 18  2  0
 18  4  1  0
 18  8  1  0
  1 19  1  0
  5 20  1  0
  6 21  1  0
  7 22  1  0
  9 23  1  0
 12 24  1  0
 12 25  1  0
 14 26  1  0
 16 27  1  0
 17 28  1  0
M  END
$$$$
[H]c1c([H])c([H])c2sc(C(=O)[C@@]([H])(N([H])C(=O)[C@]([H])(N([H])C(=O)[C@@]([H])(N([H])C(=O)c3c([H])n([H])c4c([H])c([H])c([H])c([H])c34)C([H])([H])C([H])([H])C(=O)N([H])[H])C([H])([H])C([H])([H])C([H])([H])N=C(N([H])[H])N([H])[H])C([H])([H])C([H])([H])C([H])([H])C([H])([H])N([H])[H])nc2c1[H]
     RDKit          3D

 91 94  0  0  0  0  0  0  0  0999 V2000
    0.8183    6.9297   -0.4962 N   0  0  0  0  0  0  0  0  0  0  0  0
   -0.3956    6.1955   -0.4362 C   0  0  0  0  0  0  0  0  0  0  0  0
   -1.6569    6.8032   -0.6439 N   0  0  0  0  0  0  0  0  0  0  0  0
   -0.3282    4.9347   -0.1841 N   0  0  0  0  0  0  0  0  0  0  0  0
   -1.4612    4.0570   -0.0919 C   0  0  0  0  0  0  0  0  0  0  0  0
   -1.4686    3.3058    1.2317 C   0  0  0  0  0  0  0  0  0  0  0  0
   -0.2719    2.4701    1.4311 C   0  0  0  0  0  0  0  0  0  0  0  0
    0.0570    1.3856    0.4946 C   0  0  1  0  0  0  0  0  0  0  0  0
    1.3313    0.7775    0.9568 N   0  0  0  0  0  0  0  0  0  0  0  0
    2.3326    0.3029    0.0912 C   0  0  0  0  0  0  0  0  0  0  0  0
    2.1600    0.3752   -1.1462 O   0  0  0  0  0  0  0  0  0  0  0  0
    3.5525   -0.2660    0.7390 C   0  0  2  0  0  0  0  0  0  0  0  0
    4.1745    0.8311    1.6011 C   0  0  0  0  0  0  0  0  0  0  0  0
    5.3825    0.2944    2.3021 C   0  0  0  0  0  0  0  0  0  0  0  0
    6.0226    1.3280    3.1630 C   0  0  0  0  0  0  0  0  0  0  0  0
    7.1580    1.0467    3.9537 N   0  0  0  0  0  0  0  0  0  0  0  0
    5.5329    2.4811    3.1810 O   0  0  0  0  0  0  0  0  0  0  0  0
    4.4451   -0.8538   -0.2011 N   0  0  0  0  0  0  0  0  0  0  0  0
    5.4424   -0.2190   -0.9597 C   0  0  0  0  0  0  0  0  0  0  0  0
    5.5848    1.0613   -0.8311 O   0  0  0  0  0  0  0  0  0  0  0  0
    6.3268   -0.8965   -1.8876 C   0  0  0  0  0  0  0  0  0  0  0  0
    6.7847   -0.2815   -3.0459 C   0  0  0  0  0  0  0  0  0  0  0  0
    7.4985   -1.1728   -3.7088 N   0  0  0  0  0  0  0  0  0  0  0  0
    7.5538   -2.3457   -3.0756 C   0  0  0  0  0  0  0  0  0  0  0  0
    8.1726   -3.5389   -3.3631 C   0  0  0  0  0  0  0  0  0  0  0  0
    8.0614   -4.5903   -2.4903 C   0  0  0  0  0  0  0  0  0  0  0  0
    7.3363   -4.4359   -1.3464 C   0  0  0  0  0  0  0  0  0  0  0  0
    6.7093   -3.2406   -1.0475 C   0  0  0  0  0  0  0  0  0  0  0  0
    6.7976   -2.1701   -1.8979 C   0  0  0  0  0  0  0  0  0  0  0  0
   -0.9192    0.2895    0.4637 C   0  0  0  0  0  0  0  0  0  0  0  0
   -0.5243   -0.8749    0.7839 O   0  0  0  0  0  0  0  0  0  0  0  0
   -2.2685    0.4049    0.1027 N   0  0  0  0  0  0  0  0  0  0  0  0
   -3.1350   -0.7831    0.0807 C   0  0  1  0  0  0  0  0  0  0  0  0
   -3.8631   -0.9782    1.3518 C   0  0  0  0  0  0  0  0  0  0  0  0
   -4.7611    0.0896    1.8506 C   0  0  0  0  0  0  0  0  0  0  0  0
   -5.8593    0.4146    0.9040 C   0  0  0  0  0  0  0  0  0  0  0  0
   -6.8003    1.4766    1.4817 C   0  0  0  0  0  0  0  0  0  0  0  0
   -7.4096    0.9716    2.7078 N   0  0  0  0  0  0  0  0  0  0  0  0
   -3.8563   -0.8639   -1.1749 C   0  0  0  0  0  0  0  0  0  0  0  0
   -3.6916    0.0383   -2.0639 O   0  0  0  0  0  0  0  0  0  0  0  0
   -4.7800   -1.9391   -1.4943 C   0  0  0  0  0  0  0  0  0  0  0  0
   -5.1265   -2.9970   -0.7992 N   0  0  0  0  0  0  0  0  0  0  0  0
   -5.9949   -3.8488   -1.2607 C   0  0  0  0  0  0  0  0  0  0  0  0
   -6.4478   -5.0165   -0.5987 C   0  0  0  0  0  0  0  0  0  0  0  0
   -7.3637   -5.7955   -1.2181 C   0  0  0  0  0  0  0  0  0  0  0  0
   -7.9238   -5.5753   -2.4588 C   0  0  0  0  0  0  0  0  0  0  0  0
   -7.4776   -4.4215   -3.1162 C   0  0  0  0  0  0  0  0  0  0  0  0
   -6.5296   -3.5973   -2.4966 C   0  0  0  0  0  0  0  0  0  0  0  0
   -5.7321   -2.1287   -2.9148 S   0  0  0  0  0  0  0  0  0  0  0  0
    1.3489    7.1076   -1.3739 H   0  0  0  0  0  0  0  0  0  0  0  0
    1.2194    7.3206    0.3872 H   0  0  0  0  0  0  0  0  0  0  0  0
   -2.1800    6.7034   -1.5339 H   0  0  0  0  0  0  0  0  0  0  0  0
   -2.0869    7.3721    0.1161 H   0  0  0  0  0  0  0  0  0  0  0  0
   -1.3400    3.2717   -0.8916 H   0  0  0  0  0  0  0  0  0  0  0  0
   -2.3901    4.6441   -0.2019 H   0  0  0  0  0  0  0  0  0  0  0  0
   -2.4465    2.8883    1.4047 H   0  0  0  0  0  0  0  0  0  0  0  0
   -1.3824    4.1498    2.0037 H   0  0  0  0  0  0  0  0  0  0  0  0
   -0.3402    2.0721    2.5008 H   0  0  0  0  0  0  0  0  0  0  0  0
    0.6101    3.1836    1.5253 H   0  0  0  0  0  0  0  0  0  0  0  0
    0.2843    1.7301   -0.5375 H   0  0  0  0  0  0  0  0  0  0  0  0
    1.4554    0.7144    1.9836 H   0  0  0  0  0  0  0  0  0  0  0  0
    3.2446   -1.0403    1.4890 H   0  0  0  0  0  0  0  0  0  0  0  0
    3.4137    1.0224    2.4288 H   0  0  0  0  0  0  0  0  0  0  0  0
    4.2991    1.7776    1.0804 H   0  0  0  0  0  0  0  0  0  0  0  0
    6.1260   -0.1845    1.6476 H   0  0  0  0  0  0  0  0  0  0  0  0
    4.9877   -0.5255    2.9871 H   0  0  0  0  0  0  0  0  0  0  0  0
    7.0015    0.8584    4.9912 H   0  0  0  0  0  0  0  0  0  0  0  0
    8.1167    1.0249    3.5417 H   0  0  0  0  0  0  0  0  0  0  0  0
    4.3451   -1.9109   -0.3900 H   0  0  0  0  0  0  0  0  0  0  0  0
    6.5999    0.7540   -3.3750 H   0  0  0  0  0  0  0  0  0  0  0  0
    7.9864   -1.0223   -4.6345 H   0  0  0  0  0  0  0  0  0  0  0  0
    8.7526   -3.6679   -4.2757 H   0  0  0  0  0  0  0  0  0  0  0  0
    8.5351   -5.5462   -2.6856 H   0  0  0  0  0  0  0  0  0  0  0  0
    7.2371   -5.2749   -0.6368 H   0  0  0  0  0  0  0  0  0  0  0  0
    6.1545   -3.1288   -0.1177 H   0  0  0  0  0  0  0  0  0  0  0  0
   -2.6963    1.2876   -0.1686 H   0  0  0  0  0  0  0  0  0  0  0  0
   -2.3879   -1.6682    0.0525 H   0  0  0  0  0  0  0  0  0  0  0  0
   -4.4495   -1.9324    1.3870 H   0  0  0  0  0  0  0  0  0  0  0  0
   -3.0865   -1.1414    2.1846 H   0  0  0  0  0  0  0  0  0  0  0  0
   -4.1383    0.9778    2.1216 H   0  0  0  0  0  0  0  0  0  0  0  0
   -5.1839   -0.2936    2.8335 H   0  0  0  0  0  0  0  0  0  0  0  0
   -5.5109    0.8469   -0.0484 H   0  0  0  0  0  0  0  0  0  0  0  0
   -6.4733   -0.4710    0.6930 H   0  0  0  0  0  0  0  0  0  0  0  0
   -6.2983    2.4182    1.7084 H   0  0  0  0  0  0  0  0  0  0  0  0
   -7.5964    1.6408    0.7412 H   0  0  0  0  0  0  0  0  0  0  0  0
   -6.7248    0.8623    3.4909 H   0  0  0  0  0  0  0  0  0  0  0  0
   -7.9144    0.0697    2.5183 H   0  0  0  0  0  0  0  0  0  0  0  0
   -6.0837   -5.2950    0.3774 H   0  0  0  0  0  0  0  0  0  0  0  0
   -7.7334   -6.7131   -0.7250 H   0  0  0  0  0  0  0  0  0  0  0  0
   -8.6508   -6.2016   -2.9410 H   0  0  0  0  0  0  0  0  0  0  0  0
   -7.8121   -4.1147   -4.0814 H   0  0  0  0  0  0  0  0  0  0  0  0
  1  2  1  0
  2  3  1  0
  2  4  2  3
  4  5  1  0
  5  6  1  0
  6  7  1  0
  7  8  1  0
  8  9  1  0
  9 10  1  0
 10 11  2  0
 10 12  1  0
 12 13  1  0
 13 14  1  0
 14 15  1  0
 15 16  1  0
 15 17  2  0
 12 18  1  0
 18 19  1  0
 19 20  2  0
 19 21  1  0
 21 22  2  0
 22 23  1  0
 23 24  1  0
 24 25  2  0
 25 26  1  0
 26 27  2  0
 27 28  1  0
 28 29  2  0
  8 30  1  0
 30 31  2  0
 30 32  1  0
 32 33  1  0
 33 34  1  0
 34 35  1  0
 35 36  1  0
 36 37  1  0
 37 38  1  0
 33 39  1  0
 39 40  2  0
 39 41  1  0
 41 42  2  0
 42 43  1  0
 43 44  2  0
 44 45  1  0
 45 46  2  0
 46 47  1  0
 47 48  2  0
 48 49  1  0
 29 21  1  0
 49 41  1  0
 29 24  1  0
 48 43  1  0
  1 50  1  0
  1 51  1  0
  3 52  1  0
  3 53  1  0
  5 54  1  0
  5 55  1  0
  6 56  1  0
  6 57  1  0
  7 58  1  0
  7 59  1  0
  8 60  1  6
  9 61  1  0
 12 62  1  1
 13 63  1  0
 13 64  1  0
 14 65  1  0
 14 66  1  0
 16 67  1  0
 16 68  1  0
 18 69  1  0
 22 70  1  0
 23 71  1  0
 25 72  1  0
 26 73  1  0
 27 74  1  0
 28 75  1  0
 32 76  1  0
 33 77  1  6
 34 78  1  0
 34 79  1  0
 35 80  1  0
 35 81  1  0
 36 82  1  0
 36 83  1  0
 37 84  1  0
 37 85  1  0
 38 86  1  0
 38 87  1  0
 44 88  1  0
 45 89  1  0
 46 90  1  0
 47 91  1  0
M  END
$$$$
[H]C1=C([H])[C@@]2(C([H])([H])[H])C(=C([H])C1=O)C([H])([H])C([H])([H])[C@@]1([H])[C@]2([H])C([H])([H])C([H])([H])[C@]2(C([H])([H])[H])[C@]([H])(C(C([H])([H])[H])(C([H])([H])[H])C([H])([H])C([H])([H])[H])C([H])([H])C([H])([H])[C@]12C([H])([H])C([H])([H])[H]
     RDKit          3D

 67 70  0  0  0  0  0  0  0  0999 V2000
   -5.5516    0.9848   -0.2034 C   0  0  0  0  0  0  0  0  0  0  0  0
   -4.1461    0.4701   -0.4602 C   0  0  0  0  0  0  0  0  0  0  0  0
   -3.3583    0.3158    0.8201 C   0  0  0  0  0  0  0  0  0  0  0  0
   -3.3154    1.6768    1.4493 C   0  0  0  0  0  0  0  0  0  0  0  0
   -4.2677   -0.4790    1.7638 C   0  0  0  0  0  0  0  0  0  0  0  0
   -2.1157   -0.4507    0.6815 C   0  0  2  0  0  0  0  0  0  0  0  0
   -1.4005   -0.6027    2.0401 C   0  0  0  0  0  0  0  0  0  0  0  0
    0.0806   -0.5895    1.7477 C   0  0  0  0  0  0  0  0  0  0  0  0
    0.0977   -0.9805    0.2452 C   0  0  2  0  0  0  0  0  0  0  0  0
   -0.1972   -2.4398    0.3840 C   0  0  0  0  0  0  0  0  0  0  0  0
   -0.3166   -3.3355   -0.7577 C   0  0  0  0  0  0  0  0  0  0  0  0
    1.4880   -0.6953   -0.1881 C   0  0  1  0  0  0  0  0  0  0  0  0
    1.9156   -1.0558   -1.5493 C   0  0  0  0  0  0  0  0  0  0  0  0
    3.4338   -1.2805   -1.6391 C   0  0  0  0  0  0  0  0  0  0  0  0
    4.0162   -0.2138   -0.7428 C   0  0  0  0  0  0  0  0  0  0  0  0
    5.1794   -0.4860   -0.2341 C   0  0  0  0  0  0  0  0  0  0  0  0
    5.8883    0.4157    0.6525 C   0  0  0  0  0  0  0  0  0  0  0  0
    7.0049    0.1789    1.1521 O   0  0  0  0  0  0  0  0  0  0  0  0
    5.2294    1.6701    0.9611 C   0  0  0  0  0  0  0  0  0  0  0  0
    4.0760    1.8939    0.4301 C   0  0  0  0  0  0  0  0  0  0  0  0
    3.2915    1.0301   -0.4873 C   0  0  1  0  0  0  0  0  0  0  0  0
    3.2815    1.8230   -1.7790 C   0  0  0  0  0  0  0  0  0  0  0  0
    1.9172    0.7432    0.0826 C   0  0  1  0  0  0  0  0  0  0  0  0
    0.8850    1.6047   -0.4946 C   0  0  0  0  0  0  0  0  0  0  0  0
   -0.5212    1.3605   -0.0026 C   0  0  0  0  0  0  0  0  0  0  0  0
   -0.9986   -0.0832   -0.2079 C   0  0  2  0  0  0  0  0  0  0  0  0
   -1.3566   -0.1772   -1.6563 C   0  0  0  0  0  0  0  0  0  0  0  0
   -6.1080    0.8002   -1.1708 H   0  0  0  0  0  0  0  0  0  0  0  0
   -5.6138    2.0614   -0.0519 H   0  0  0  0  0  0  0  0  0  0  0  0
   -6.0846    0.3649    0.5448 H   0  0  0  0  0  0  0  0  0  0  0  0
   -3.6748    1.0924   -1.2278 H   0  0  0  0  0  0  0  0  0  0  0  0
   -4.3297   -0.5348   -0.9497 H   0  0  0  0  0  0  0  0  0  0  0  0
   -4.4188    1.9443    1.5806 H   0  0  0  0  0  0  0  0  0  0  0  0
   -2.9817    1.6375    2.5002 H   0  0  0  0  0  0  0  0  0  0  0  0
   -2.9313    2.4852    0.8397 H   0  0  0  0  0  0  0  0  0  0  0  0
   -3.7163   -1.1188    2.4515 H   0  0  0  0  0  0  0  0  0  0  0  0
   -4.8925   -1.1815    1.1358 H   0  0  0  0  0  0  0  0  0  0  0  0
   -5.0118    0.1764    2.2638 H   0  0  0  0  0  0  0  0  0  0  0  0
   -2.4122   -1.4913    0.4256 H   0  0  0  0  0  0  0  0  0  0  0  0
   -1.7350   -1.5321    2.5685 H   0  0  0  0  0  0  0  0  0  0  0  0
   -1.6659    0.2112    2.7425 H   0  0  0  0  0  0  0  0  0  0  0  0
    0.4318    0.3780    1.9899 H   0  0  0  0  0  0  0  0  0  0  0  0
    0.6386   -1.3324    2.3525 H   0  0  0  0  0  0  0  0  0  0  0  0
    0.7391   -2.8063    0.9394 H   0  0  0  0  0  0  0  0  0  0  0  0
   -0.9745   -2.6929    1.1448 H   0  0  0  0  0  0  0  0  0  0  0  0
    0.6063   -3.9538   -0.9862 H   0  0  0  0  0  0  0  0  0  0  0  0
   -0.7435   -2.9182   -1.6930 H   0  0  0  0  0  0  0  0  0  0  0  0
   -1.0540   -4.1614   -0.5149 H   0  0  0  0  0  0  0  0  0  0  0  0
    2.1401   -1.3143    0.5075 H   0  0  0  0  0  0  0  0  0  0  0  0
    1.6959   -0.2623   -2.2812 H   0  0  0  0  0  0  0  0  0  0  0  0
    1.5069   -1.9771   -1.9955 H   0  0  0  0  0  0  0  0  0  0  0  0
    3.7344   -1.0253   -2.6711 H   0  0  0  0  0  0  0  0  0  0  0  0
    3.7189   -2.2796   -1.3099 H   0  0  0  0  0  0  0  0  0  0  0  0
    5.7077   -1.4401   -0.4517 H   0  0  0  0  0  0  0  0  0  0  0  0
    5.6664    2.4187    1.6151 H   0  0  0  0  0  0  0  0  0  0  0  0
    3.5772    2.8488    0.6702 H   0  0  0  0  0  0  0  0  0  0  0  0
    3.4122    1.2311   -2.6919 H   0  0  0  0  0  0  0  0  0  0  0  0
    2.4756    2.5430   -1.8778 H   0  0  0  0  0  0  0  0  0  0  0  0
    4.2176    2.4750   -1.7934 H   0  0  0  0  0  0  0  0  0  0  0  0
    2.0920    0.8210    1.1751 H   0  0  0  0  0  0  0  0  0  0  0  0
    1.0963    2.6646   -0.2433 H   0  0  0  0  0  0  0  0  0  0  0  0
    0.8501    1.4249   -1.6021 H   0  0  0  0  0  0  0  0  0  0  0  0
   -1.1266    2.0245   -0.6605 H   0  0  0  0  0  0  0  0  0  0  0  0
   -0.6921    1.7343    1.0149 H   0  0  0  0  0  0  0  0  0  0  0  0
   -2.2531   -0.7954   -1.8401 H   0  0  0  0  0  0  0  0  0  0  0  0
   -1.5419    0.8041   -2.1445 H   0  0  0  0  0  0  0  0  0  0  0  0
   -0.5852   -0.6220   -2.3130 H   0  0  0  0  0  0  0  0  0  0  0  0
  1  2  1  0
  2  3  1  0
  3  4  1  0
  3  5  1  0
  3  6  1  0
  6  7  1  0
  7  8  1  0
  8  9  1  0
  9 10  1  1
 10 11  1  0
  9 12  1  0
 12 13  1  0
 13 14  1  0
 14 15  1  0
 15 16  2  0
 16 17  1  0
 17 18  2  0
 17 19  1  0
 19 20  2  0
 20 21  1  0
 21 22  1  6
 21 23  1  0
 23 24  1  0
 24 25  1  0
 25 26  1  0
 26 27  1  6
 26  6  1  0
 26  9  1  0
 23 12  1  0
 21 15  1  0
  1 28  1  0
  1 29  1  0
  1 30  1  0
  2 31  1  0
  2 32  1  0
  4 33  1  0
  4 34  1  0
  4 35  1  0
  5 36  1  0
  5 37  1  0
  5 38  1  0
  6 39  1  6
  7 40  1  0
  7 41  1  0
  8 42  1  0
  8 43  1  0
 10 44  1  0
 10 45  1  0
 11 46  1  0
 11 47  1  0
 11 48  1  0
 12 49  1  1
 13 50  1  0
 13 51  1  0
 14 52  1  0
 14 53  1  0
 16 54  1  0
 19 55  1  0
 20 56  1  0
 22 57  1  0
 22 58  1  0
 22 59  1  0
 23 60  1  1
 24 61  1  0
 24 62  1  0
 25 63  1  0
 25 64  1  0
 27 65  1  0
 27 66  1  0
 27 67  1  0
M  END
$$$$
[H]c1nc(N([H])c2c([H])c([H])c(Oc3c([H])c([H])c(OC([H])(C([H])([H])[H])C([H])([H])[H])c(C#N)c3[H])c(OC([H])([H])[H])c2[H])nc(-c2c([H])nc([H])c([H])c2[H])c1[H]
     RDKit          3D

 57 60  0  0  0  0  0  0  0  0999 V2000
   -0.2895   -2.6848    0.0579 C   0  0  0  0  0  0  0  0  0  0  0  0
   -0.8687   -1.8321   -0.8953 O   0  0  0  0  0  0  0  0  0  0  0  0
   -0.2006   -0.7157   -1.3732 C   0  0  0  0  0  0  0  0  0  0  0  0
    1.0907   -0.4650   -0.8643 C   0  0  0  0  0  0  0  0  0  0  0  0
    1.8469    0.6027   -1.2583 C   0  0  0  0  0  0  0  0  0  0  0  0
    3.1405    0.9285   -0.8311 N   0  0  0  0  0  0  0  0  0  0  0  0
    4.0512    0.1337   -0.1027 C   0  0  0  0  0  0  0  0  0  0  0  0
    3.8461   -1.1135    0.3206 N   0  0  0  0  0  0  0  0  0  0  0  0
    4.7098   -1.8473    1.0028 C   0  0  0  0  0  0  0  0  0  0  0  0
    5.9490   -1.3151    1.3289 C   0  0  0  0  0  0  0  0  0  0  0  0
    6.1988   -0.0366    0.9123 C   0  0  0  0  0  0  0  0  0  0  0  0
    5.2780    0.6457    0.2262 N   0  0  0  0  0  0  0  0  0  0  0  0
    7.4856    0.5693    1.2290 C   0  0  0  0  0  0  0  0  0  0  0  0
    8.4758   -0.0524    1.9205 C   0  0  0  0  0  0  0  0  0  0  0  0
    9.6639    0.6283    2.1631 C   0  0  0  0  0  0  0  0  0  0  0  0
    9.8332    1.9113    1.7095 C   0  0  0  0  0  0  0  0  0  0  0  0
    8.8425    2.5005    1.0312 N   0  0  0  0  0  0  0  0  0  0  0  0
    7.7005    1.8703    0.7882 C   0  0  0  0  0  0  0  0  0  0  0  0
    1.2455    1.4403   -2.2115 C   0  0  0  0  0  0  0  0  0  0  0  0
    0.0064    1.2440   -2.7328 C   0  0  0  0  0  0  0  0  0  0  0  0
   -0.7282    0.1422   -2.3021 C   0  0  0  0  0  0  0  0  0  0  0  0
   -1.9920   -0.0803   -2.8172 O   0  0  0  0  0  0  0  0  0  0  0  0
   -3.1541   -0.1391   -2.0971 C   0  0  0  0  0  0  0  0  0  0  0  0
   -3.8051   -1.3072   -1.7670 C   0  0  0  0  0  0  0  0  0  0  0  0
   -4.9674   -1.3388   -1.0410 C   0  0  0  0  0  0  0  0  0  0  0  0
   -5.5566   -0.1339   -0.5928 C   0  0  0  0  0  0  0  0  0  0  0  0
   -6.6680   -0.1987    0.0991 O   0  0  0  0  0  0  0  0  0  0  0  0
   -7.6667    0.3544    0.7612 C   0  0  0  0  0  0  0  0  0  0  0  0
   -9.0678    0.0008    0.2319 C   0  0  0  0  0  0  0  0  0  0  0  0
   -7.6331   -0.0820    2.2565 C   0  0  0  0  0  0  0  0  0  0  0  0
   -4.8997    1.0215   -0.9284 C   0  0  0  0  0  0  0  0  0  0  0  0
   -3.7249    1.0333   -1.6630 C   0  0  0  0  0  0  0  0  0  0  0  0
   -5.3853    2.3145   -0.5397 C   0  0  0  0  0  0  0  0  0  0  0  0
   -5.7588    3.3808   -0.2363 N   0  0  0  0  0  0  0  0  0  0  0  0
   -0.9197   -3.5649    0.2689 H   0  0  0  0  0  0  0  0  0  0  0  0
    0.7189   -3.0467   -0.2949 H   0  0  0  0  0  0  0  0  0  0  0  0
   -0.0672   -2.1418    1.0096 H   0  0  0  0  0  0  0  0  0  0  0  0
    1.4731   -1.1489   -0.1316 H   0  0  0  0  0  0  0  0  0  0  0  0
    3.4883    1.9128   -1.0827 H   0  0  0  0  0  0  0  0  0  0  0  0
    4.4854   -2.8635    1.3226 H   0  0  0  0  0  0  0  0  0  0  0  0
    6.6246   -1.9463    1.8860 H   0  0  0  0  0  0  0  0  0  0  0  0
    8.3509   -1.0533    2.2775 H   0  0  0  0  0  0  0  0  0  0  0  0
   10.4435    0.1232    2.7139 H   0  0  0  0  0  0  0  0  0  0  0  0
   10.7804    2.4022    1.9243 H   0  0  0  0  0  0  0  0  0  0  0  0
    6.9117    2.3761    0.2330 H   0  0  0  0  0  0  0  0  0  0  0  0
    1.7959    2.3177   -2.5745 H   0  0  0  0  0  0  0  0  0  0  0  0
   -0.4446    1.8970   -3.4663 H   0  0  0  0  0  0  0  0  0  0  0  0
   -3.3598   -2.2538   -2.1278 H   0  0  0  0  0  0  0  0  0  0  0  0
   -5.4245   -2.2929   -0.8175 H   0  0  0  0  0  0  0  0  0  0  0  0
   -7.6433    1.4527    0.8202 H   0  0  0  0  0  0  0  0  0  0  0  0
   -9.7512    0.1005    1.1004 H   0  0  0  0  0  0  0  0  0  0  0  0
   -9.3752    0.7801   -0.5018 H   0  0  0  0  0  0  0  0  0  0  0  0
   -9.0736   -1.0179   -0.1873 H   0  0  0  0  0  0  0  0  0  0  0  0
   -8.4924    0.3856    2.7621 H   0  0  0  0  0  0  0  0  0  0  0  0
   -6.6787    0.2823    2.6802 H   0  0  0  0  0  0  0  0  0  0  0  0
   -7.6318   -1.1835    2.3254 H   0  0  0  0  0  0  0  0  0  0  0  0
   -3.2088    1.9710   -1.9247 H   0  0  0  0  0  0  0  0  0  0  0  0
  1  2  1  0
  2  3  1  0
  3  4  2  0
  4  5  1  0
  5  6  1  0
  6  7  1  0
  7  8  2  0
  8  9  1  0
  9 10  2  0
 10 11  1  0
 11 12  2  0
 11 13  1  0
 13 14  2  0
 14 15  1  0
 15 16  2  0
 16 17  1  0
 17 18  2  0
  5 19  2  0
 19 20  1  0
 20 21  2  0
 21 22  1  0
 22 23  1  0
 23 24  2  0
 24 25  1  0
 25 26  2  0
 26 27  1  0
 27 28  1  0
 28 29  1  0
 28 30  1  0
 26 31  1  0
 31 32  2  0
 31 33  1  0
 33 34  3  0
 21  3  1  0
 32 23  1  0
 12  7  1  0
 18 13  1  0
  1 35  1  0
  1 36  1  0
  1 37  1  0
  4 38  1  0
  6 39  1  0
  9 40  1  0
 10 41  1  0
 14 42  1  0
 15 43  1  0
 16 44  1  0
 18 45  1  0
 19 46  1  0
 20 47  1  0
 24 48  1  0
 25 49  1  0
 28 50  1  0
 29 51  1  0
 29 52  1  0
 29 53  1  0
 30 54  1  0
 30 55  1  0
 30 56  1  0
 32 57  1  0
M  END
$$$$
[H]c1nc2c(c([H])c1N([H])C(=O)c1c([H])c(C([H])([H])C([H])([H])[H])c([H])c([H])c1OC([H])([H])[H])c(C([H])([H])[H])c([H])n2C([H])([H])C([H])([H])[H]
     RDKit          3D

 48 50  0  0  0  0  0  0  0  0999 V2000
    6.4114    2.4982   -0.2679 C   0  0  0  0  0  0  0  0  0  0  0  0
    5.9476    1.5198   -1.3073 C   0  0  0  0  0  0  0  0  0  0  0  0
    4.9781    0.5782   -0.6960 C   0  0  0  0  0  0  0  0  0  0  0  0
    5.4226   -0.5929   -0.1212 C   0  0  0  0  0  0  0  0  0  0  0  0
    4.5489   -1.4855    0.4531 C   0  0  0  0  0  0  0  0  0  0  0  0
    3.1640   -1.2450    0.4804 C   0  0  0  0  0  0  0  0  0  0  0  0
    2.3511   -2.1899    1.0760 O   0  0  0  0  0  0  0  0  0  0  0  0
    2.9044   -3.3524    1.6340 C   0  0  0  0  0  0  0  0  0  0  0  0
    2.7148   -0.0847   -0.0881 C   0  0  0  0  0  0  0  0  0  0  0  0
    3.6362    0.8207   -0.6747 C   0  0  0  0  0  0  0  0  0  0  0  0
    1.3080    0.2596   -0.1146 C   0  0  0  0  0  0  0  0  0  0  0  0
    0.9880    1.3802   -0.6751 O   0  0  0  0  0  0  0  0  0  0  0  0
    0.2382   -0.4665    0.3910 N   0  0  0  0  0  0  0  0  0  0  0  0
   -1.1446   -0.0715    0.3528 C   0  0  0  0  0  0  0  0  0  0  0  0
   -1.4838    1.2370    0.4167 C   0  0  0  0  0  0  0  0  0  0  0  0
   -2.7991    1.5686    0.3463 N   0  0  0  0  0  0  0  0  0  0  0  0
   -3.7792    0.6673    0.2177 C   0  0  0  0  0  0  0  0  0  0  0  0
   -5.1267    0.8132    0.1330 N   0  0  0  0  0  0  0  0  0  0  0  0
   -5.8507    2.0696    0.1654 C   0  0  0  0  0  0  0  0  0  0  0  0
   -5.9769    2.5585   -1.2624 C   0  0  0  0  0  0  0  0  0  0  0  0
   -5.6531   -0.4153    0.0148 C   0  0  0  0  0  0  0  0  0  0  0  0
   -4.6339   -1.3561    0.0239 C   0  0  0  0  0  0  0  0  0  0  0  0
   -4.7662   -2.8215   -0.0823 C   0  0  0  0  0  0  0  0  0  0  0  0
   -3.4477   -0.6610    0.1530 C   0  0  0  0  0  0  0  0  0  0  0  0
   -2.1368   -1.0365    0.2197 C   0  0  0  0  0  0  0  0  0  0  0  0
    6.7197    3.4400   -0.8053 H   0  0  0  0  0  0  0  0  0  0  0  0
    7.2991    2.1439    0.2711 H   0  0  0  0  0  0  0  0  0  0  0  0
    5.5819    2.8003    0.4269 H   0  0  0  0  0  0  0  0  0  0  0  0
    5.5296    2.0553   -2.1692 H   0  0  0  0  0  0  0  0  0  0  0  0
    6.8598    0.9727   -1.6651 H   0  0  0  0  0  0  0  0  0  0  0  0
    6.4939   -0.7714   -0.1464 H   0  0  0  0  0  0  0  0  0  0  0  0
    4.9042   -2.4088    0.9058 H   0  0  0  0  0  0  0  0  0  0  0  0
    3.6999   -3.1349    2.3839 H   0  0  0  0  0  0  0  0  0  0  0  0
    3.4252   -3.9026    0.7969 H   0  0  0  0  0  0  0  0  0  0  0  0
    2.1701   -4.0462    2.0392 H   0  0  0  0  0  0  0  0  0  0  0  0
    3.2521    1.7402   -1.1221 H   0  0  0  0  0  0  0  0  0  0  0  0
    0.3671   -1.4047    0.8630 H   0  0  0  0  0  0  0  0  0  0  0  0
   -0.7870    2.0745    0.5444 H   0  0  0  0  0  0  0  0  0  0  0  0
   -5.3244    2.8072    0.8144 H   0  0  0  0  0  0  0  0  0  0  0  0
   -6.8653    1.9019    0.5797 H   0  0  0  0  0  0  0  0  0  0  0  0
   -6.8872    2.0828   -1.7008 H   0  0  0  0  0  0  0  0  0  0  0  0
   -6.0459    3.6695   -1.2830 H   0  0  0  0  0  0  0  0  0  0  0  0
   -5.0952    2.1866   -1.8233 H   0  0  0  0  0  0  0  0  0  0  0  0
   -6.7029   -0.6555   -0.0746 H   0  0  0  0  0  0  0  0  0  0  0  0
   -4.5036   -3.1929   -1.1086 H   0  0  0  0  0  0  0  0  0  0  0  0
   -4.2263   -3.3786    0.6893 H   0  0  0  0  0  0  0  0  0  0  0  0
   -5.8548   -3.0975    0.0349 H   0  0  0  0  0  0  0  0  0  0  0  0
   -1.8245   -2.0741    0.1729 H   0  0  0  0  0  0  0  0  0  0  0  0
  1  2  1  0
  2  3  1  0
  3  4  2  0
  4  5  1  0
  5  6  2  0
  6  7  1  0
  7  8  1  0
  6  9  1  0
  9 10  2  0
  9 11  1  0
 11 12  2  0
 11 13  1  0
 13 14  1  0
 14 15  2  0
 15 16  1  0
 16 17  2  0
 17 18  1  0
 18 19  1  0
 19 20  1  0
 18 21  1  0
 21 22  2  0
 22 23  1  0
 22 24  1  0
 24 25  2  0
 10  3  1  0
 25 14  1  0
 24 17  1  0
  1 26  1  0
  1 27  1  0
  1 28  1  0
  2 29  1  0
  2 30  1  0
  4 31  1  0
  5 32  1  0
  8 33  1  0
  8 34  1  0
  8 35  1  0
 10 36  1  0
 13 37  1  0
 15 38  1  0
 19 39  1  0
 19 40  1  0
 20 41  1  0
 20 42  1  0
 20 43  1  0
 21 44  1  0
 23 45  1  0
 23 46  1  0
 23 47  1  0
 25 48  1  0
M  END
$$$$
[H]c1c(N([H])C(=O)C([H])([H])C([H])([H])C([H])([H])C([H])([H])C([H])([H])C([H])([H])C([H])([H])C([H])([H])C(=O)N([H])c2c([H])c([H])c3c(c2[H])c(C2([H])C([H])([H])C([H])([H])N(C([H])([H])[H])C([H])([H])C2([H])[H])c([H])n3[H])c([H])c2c(C3([H])C([H])([H])C([H])([H])N(C([H])([H])[H])C([H])([H])C3([H])[H])c([H])n([H])c2c1[H]
     RDKit          3D

 98103  0  0  0  0  0  0  0  0999 V2000
  -12.6414    0.1381   -2.0862 C   0  0  0  0  0  0  0  0  0  0  0  0
  -11.5938    0.5469   -1.1912 N   0  0  0  0  0  0  0  0  0  0  0  0
  -10.9041    1.7355   -1.5542 C   0  0  0  0  0  0  0  0  0  0  0  0
  -10.0738    2.1602   -0.3453 C   0  0  0  0  0  0  0  0  0  0  0  0
   -8.9706    1.1439   -0.1527 C   0  0  0  0  0  0  0  0  0  0  0  0
   -9.4216   -0.2594   -0.2884 C   0  0  0  0  0  0  0  0  0  0  0  0
  -10.8348   -0.5101   -0.6341 C   0  0  0  0  0  0  0  0  0  0  0  0
   -8.2084    1.4440    1.0867 C   0  0  0  0  0  0  0  0  0  0  0  0
   -8.3849    2.5610    1.9021 C   0  0  0  0  0  0  0  0  0  0  0  0
   -7.5310    2.5102    2.9305 N   0  0  0  0  0  0  0  0  0  0  0  0
   -6.7788    1.3909    2.8388 C   0  0  0  0  0  0  0  0  0  0  0  0
   -5.7737    0.8629    3.6277 C   0  0  0  0  0  0  0  0  0  0  0  0
   -5.1782   -0.3269    3.2865 C   0  0  0  0  0  0  0  0  0  0  0  0
   -5.5794   -0.9991    2.1561 C   0  0  0  0  0  0  0  0  0  0  0  0
   -4.9628   -2.2377    1.8582 N   0  0  0  0  0  0  0  0  0  0  0  0
   -3.9233   -2.2903    0.8998 C   0  0  0  0  0  0  0  0  0  0  0  0
   -3.5571   -1.2450    0.3370 O   0  0  0  0  0  0  0  0  0  0  0  0
   -3.3025   -3.5850    0.5951 C   0  0  0  0  0  0  0  0  0  0  0  0
   -2.0787   -3.5423   -0.2723 C   0  0  0  0  0  0  0  0  0  0  0  0
   -0.9839   -2.7815    0.3968 C   0  0  0  0  0  0  0  0  0  0  0  0
    0.2730   -2.7557   -0.4278 C   0  0  0  0  0  0  0  0  0  0  0  0
    0.1262   -2.1136   -1.7685 C   0  0  0  0  0  0  0  0  0  0  0  0
   -0.3026   -0.6508   -1.6784 C   0  0  0  0  0  0  0  0  0  0  0  0
    0.6961    0.1434   -0.8756 C   0  0  0  0  0  0  0  0  0  0  0  0
    2.0569    0.0918   -1.4793 C   0  0  0  0  0  0  0  0  0  0  0  0
    3.0668    0.8901   -0.6731 C   0  0  0  0  0  0  0  0  0  0  0  0
    2.5666    1.4704    0.3141 O   0  0  0  0  0  0  0  0  0  0  0  0
    4.4060    0.9101   -1.0793 N   0  0  0  0  0  0  0  0  0  0  0  0
    5.4564    1.6064   -0.4421 C   0  0  0  0  0  0  0  0  0  0  0  0
    5.2824    2.5980    0.4835 C   0  0  0  0  0  0  0  0  0  0  0  0
    6.3442    3.2623    1.1164 C   0  0  0  0  0  0  0  0  0  0  0  0
    7.6339    2.9089    0.7994 C   0  0  0  0  0  0  0  0  0  0  0  0
    8.8437    3.3224    1.1978 N   0  0  0  0  0  0  0  0  0  0  0  0
    9.8058    2.6469    0.5754 C   0  0  0  0  0  0  0  0  0  0  0  0
    9.1991    1.7542   -0.2653 C   0  0  0  0  0  0  0  0  0  0  0  0
    9.8562    0.7770   -1.1651 C   0  0  0  0  0  0  0  0  0  0  0  0
   11.3421    0.9573   -1.1429 C   0  0  0  0  0  0  0  0  0  0  0  0
   12.0394    0.2167   -0.0377 C   0  0  0  0  0  0  0  0  0  0  0  0
   11.6730   -1.1754    0.0019 N   0  0  0  0  0  0  0  0  0  0  0  0
   11.3435   -1.5449    1.3435 C   0  0  0  0  0  0  0  0  0  0  0  0
   10.6938   -1.5122   -0.9834 C   0  0  0  0  0  0  0  0  0  0  0  0
    9.4643   -0.6517   -0.8314 C   0  0  0  0  0  0  0  0  0  0  0  0
    7.8137    1.9096   -0.1339 C   0  0  0  0  0  0  0  0  0  0  0  0
    6.7820    1.2642   -0.7488 C   0  0  0  0  0  0  0  0  0  0  0  0
   -6.5838   -0.4539    1.3821 C   0  0  0  0  0  0  0  0  0  0  0  0
   -7.1990    0.7400    1.7040 C   0  0  0  0  0  0  0  0  0  0  0  0
  -12.2065   -0.3792   -2.9836 H   0  0  0  0  0  0  0  0  0  0  0  0
  -13.2626    0.9988   -2.3632 H   0  0  0  0  0  0  0  0  0  0  0  0
  -13.3060   -0.5885   -1.5325 H   0  0  0  0  0  0  0  0  0  0  0  0
  -10.2762    1.6238   -2.4603 H   0  0  0  0  0  0  0  0  0  0  0  0
  -11.6652    2.5354   -1.6946 H   0  0  0  0  0  0  0  0  0  0  0  0
   -9.6865    3.1777   -0.5251 H   0  0  0  0  0  0  0  0  0  0  0  0
  -10.7387    2.1066    0.5279 H   0  0  0  0  0  0  0  0  0  0  0  0
   -8.2463    1.3397   -1.0018 H   0  0  0  0  0  0  0  0  0  0  0  0
   -9.2401   -0.7579    0.7129 H   0  0  0  0  0  0  0  0  0  0  0  0
   -8.7421   -0.8505   -0.9752 H   0  0  0  0  0  0  0  0  0  0  0  0
  -11.4273   -0.9512    0.2285 H   0  0  0  0  0  0  0  0  0  0  0  0
  -10.8682   -1.3574   -1.3887 H   0  0  0  0  0  0  0  0  0  0  0  0
   -9.1035    3.3650    1.7428 H   0  0  0  0  0  0  0  0  0  0  0  0
   -7.4211    3.1953    3.7050 H   0  0  0  0  0  0  0  0  0  0  0  0
   -5.4468    1.3742    4.5147 H   0  0  0  0  0  0  0  0  0  0  0  0
   -4.3763   -0.7378    3.9250 H   0  0  0  0  0  0  0  0  0  0  0  0
   -5.2829   -3.1283    2.3554 H   0  0  0  0  0  0  0  0  0  0  0  0
   -4.0330   -4.3153    0.1711 H   0  0  0  0  0  0  0  0  0  0  0  0
   -2.9603   -4.0948    1.5526 H   0  0  0  0  0  0  0  0  0  0  0  0
   -2.2994   -3.1824   -1.3005 H   0  0  0  0  0  0  0  0  0  0  0  0
   -1.6972   -4.5888   -0.4217 H   0  0  0  0  0  0  0  0  0  0  0  0
   -1.2246   -1.7412    0.6407 H   0  0  0  0  0  0  0  0  0  0  0  0
   -0.7134   -3.3592    1.3343 H   0  0  0  0  0  0  0  0  0  0  0  0
    1.0219   -2.1588    0.1741 H   0  0  0  0  0  0  0  0  0  0  0  0
    0.6478   -3.7872   -0.5973 H   0  0  0  0  0  0  0  0  0  0  0  0
    1.0806   -2.2067   -2.2967 H   0  0  0  0  0  0  0  0  0  0  0  0
   -0.6267   -2.6686   -2.3706 H   0  0  0  0  0  0  0  0  0  0  0  0
   -1.3313   -0.5303   -1.3536 H   0  0  0  0  0  0  0  0  0  0  0  0
   -0.2064   -0.2587   -2.7359 H   0  0  0  0  0  0  0  0  0  0  0  0
    0.3405    1.2088   -0.8987 H   0  0  0  0  0  0  0  0  0  0  0  0
    0.6989   -0.1453    0.1977 H   0  0  0  0  0  0  0  0  0  0  0  0
    2.1033    0.5464   -2.4889 H   0  0  0  0  0  0  0  0  0  0  0  0
    2.4363   -0.9367   -1.4817 H   0  0  0  0  0  0  0  0  0  0  0  0
    4.6256    0.3360   -1.9604 H   0  0  0  0  0  0  0  0  0  0  0  0
    4.2725    2.9251    0.7620 H   0  0  0  0  0  0  0  0  0  0  0  0
    6.1386    4.0422    1.8424 H   0  0  0  0  0  0  0  0  0  0  0  0
    8.9841    4.0860    1.9120 H   0  0  0  0  0  0  0  0  0  0  0  0
   10.8590    2.8010    0.7300 H   0  0  0  0  0  0  0  0  0  0  0  0
    9.5226    0.9468   -2.2294 H   0  0  0  0  0  0  0  0  0  0  0  0
   11.8022    0.6102   -2.1018 H   0  0  0  0  0  0  0  0  0  0  0  0
   11.5683    2.0538   -1.0118 H   0  0  0  0  0  0  0  0  0  0  0  0
   13.1378    0.2441   -0.2983 H   0  0  0  0  0  0  0  0  0  0  0  0
   11.9754    0.6980    0.9508 H   0  0  0  0  0  0  0  0  0  0  0  0
   11.6912   -0.7490    2.0333 H   0  0  0  0  0  0  0  0  0  0  0  0
   11.8374   -2.4961    1.6588 H   0  0  0  0  0  0  0  0  0  0  0  0
   10.2514   -1.6652    1.5210 H   0  0  0  0  0  0  0  0  0  0  0  0
   10.4544   -2.5941   -0.9313 H   0  0  0  0  0  0  0  0  0  0  0  0
   11.1445   -1.3017   -1.9886 H   0  0  0  0  0  0  0  0  0  0  0  0
    9.0233   -0.7541    0.1718 H   0  0  0  0  0  0  0  0  0  0  0  0
    8.7286   -1.0568   -1.5846 H   0  0  0  0  0  0  0  0  0  0  0  0
    6.9229    0.4888   -1.4760 H   0  0  0  0  0  0  0  0  0  0  0  0
   -6.8775   -0.9852    0.5110 H   0  0  0  0  0  0  0  0  0  0  0  0
  1  2  1  0
  2  3  1  0
  3  4  1  0
  4  5  1  0
  5  6  1  0
  6  7  1  0
  5  8  1  0
  8  9  2  0
  9 10  1  0
 10 11  1  0
 11 12  2  0
 12 13  1  0
 13 14  2  0
 14 15  1  0
 15 16  1  0
 16 17  2  0
 16 18  1  0
 18 19  1  0
 19 20  1  0
 20 21  1  0
 21 22  1  0
 22 23  1  0
 23 24  1  0
 24 25  1  0
 25 26  1  0
 26 27  2  0
 26 28  1  0
 28 29  1  0
 29 30  2  0
 30 31  1  0
 31 32  2  0
 32 33  1  0
 33 34  1  0
 34 35  2  0
 35 36  1  0
 36 37  1  0
 37 38  1  0
 38 39  1  0
 39 40  1  0
 39 41  1  0
 41 42  1  0
 35 43  1  0
 43 44  2  0
 14 45  1  0
 45 46  2  0
  7  2  1  0
 46  8  1  0
 46 11  1  0
 44 29  1  0
 43 32  1  0
 42 36  1  0
  1 47  1  0
  1 48  1  0
  1 49  1  0
  3 50  1  0
  3 51  1  0
  4 52  1  0
  4 53  1  0
  5 54  1  0
  6 55  1  0
  6 56  1  0
  7 57  1  0
  7 58  1  0
  9 59  1  0
 10 60  1  0
 12 61  1  0
 13 62  1  0
 15 63  1  0
 18 64  1  0
 18 65  1  0
 19 66  1  0
 19 67  1  0
 20 68  1  0
 20 69  1  0
 21 70  1  0
 21 71  1  0
 22 72  1  0
 22 73  1  0
 23 74  1  0
 23 75  1  0
 24 76  1  0
 24 77  1  0
 25 78  1  0
 25 79  1  0
 28 80  1  0
 30 81  1  0
 31 82  1  0
 33 83  1  0
 34 84  1  0
 36 85  1  0
 37 86  1  0
 37 87  1  0
 38 88  1  0
 38 89  1  0
 40 90  1  0
 40 91  1  0
 40 92  1  0
 41 93  1  0
 41 94  1  0
 42 95  1  0
 42 96  1  0
 44 97  1  0
 45 98  1  0
M  END
$$$$
[H]c1c([H])c(N2C([H])([H])C([H])([H])OC([H])([H])C2([H])[H])c([H])c([H])c1N([H])c1nc([H])c2c([H])nc(N3C([H])([H])C([H])([H])C([H])([H])[C@@]3([H])C([H])([H])[H])c([H])c2n1
     RDKit          3D

 55 59  0  0  0  0  0  0  0  0999 V2000
   -6.9629   -1.8811   -1.2317 C   0  0  0  0  0  0  0  0  0  0  0  0
   -6.5326   -1.0621   -0.0341 C   0  0  2  0  0  0  0  0  0  0  0  0
   -7.7796   -0.6908    0.7772 C   0  0  0  0  0  0  0  0  0  0  0  0
   -8.2271    0.6567    0.2575 C   0  0  0  0  0  0  0  0  0  0  0  0
   -7.2918    0.9464   -0.8966 C   0  0  0  0  0  0  0  0  0  0  0  0
   -6.1078    0.2217   -0.5197 N   0  0  0  0  0  0  0  0  0  0  0  0
   -4.7886    0.6855   -0.6115 C   0  0  0  0  0  0  0  0  0  0  0  0
   -3.7356   -0.1084   -0.2205 C   0  0  0  0  0  0  0  0  0  0  0  0
   -2.4227    0.3334   -0.3037 C   0  0  0  0  0  0  0  0  0  0  0  0
   -1.3946   -0.4547    0.0834 N   0  0  0  0  0  0  0  0  0  0  0  0
   -0.1047   -0.0184    0.0008 C   0  0  0  0  0  0  0  0  0  0  0  0
    0.9227   -0.8442    0.4199 N   0  0  0  0  0  0  0  0  0  0  0  0
    2.3238   -0.6082    0.4167 C   0  0  0  0  0  0  0  0  0  0  0  0
    2.9676    0.3708   -0.2871 C   0  0  0  0  0  0  0  0  0  0  0  0
    4.3529    0.5512   -0.2157 C   0  0  0  0  0  0  0  0  0  0  0  0
    5.1535   -0.2515    0.5718 C   0  0  0  0  0  0  0  0  0  0  0  0
    4.5066   -1.2402    1.2826 C   0  0  0  0  0  0  0  0  0  0  0  0
    3.1432   -1.4205    1.2146 C   0  0  0  0  0  0  0  0  0  0  0  0
    6.5574   -0.0556    0.6575 N   0  0  0  0  0  0  0  0  0  0  0  0
    7.4685   -1.0979    1.0647 C   0  0  0  0  0  0  0  0  0  0  0  0
    8.5468   -1.2040   -0.0008 C   0  0  0  0  0  0  0  0  0  0  0  0
    9.1403    0.0393   -0.1319 O   0  0  0  0  0  0  0  0  0  0  0  0
    8.2495    0.9521   -0.7002 C   0  0  0  0  0  0  0  0  0  0  0  0
    7.1723    1.2238    0.3576 C   0  0  0  0  0  0  0  0  0  0  0  0
    0.0846    1.2087   -0.4750 N   0  0  0  0  0  0  0  0  0  0  0  0
   -0.9046    2.0285   -0.8719 C   0  0  0  0  0  0  0  0  0  0  0  0
   -2.2193    1.6040   -0.7958 C   0  0  0  0  0  0  0  0  0  0  0  0
   -3.2709    2.4045   -1.1894 C   0  0  0  0  0  0  0  0  0  0  0  0
   -4.5214    1.9116   -1.0814 N   0  0  0  0  0  0  0  0  0  0  0  0
   -8.0721   -1.8756   -1.3122 H   0  0  0  0  0  0  0  0  0  0  0  0
   -6.5929   -1.4281   -2.1793 H   0  0  0  0  0  0  0  0  0  0  0  0
   -6.6699   -2.9456   -1.1451 H   0  0  0  0  0  0  0  0  0  0  0  0
   -5.7934   -1.5841    0.5904 H   0  0  0  0  0  0  0  0  0  0  0  0
   -8.5542   -1.4450    0.5368 H   0  0  0  0  0  0  0  0  0  0  0  0
   -7.5180   -0.6666    1.8554 H   0  0  0  0  0  0  0  0  0  0  0  0
   -8.0072    1.4017    1.0753 H   0  0  0  0  0  0  0  0  0  0  0  0
   -9.2867    0.6755   -0.0464 H   0  0  0  0  0  0  0  0  0  0  0  0
   -7.0893    2.0300   -1.0166 H   0  0  0  0  0  0  0  0  0  0  0  0
   -7.6811    0.4866   -1.8269 H   0  0  0  0  0  0  0  0  0  0  0  0
   -3.8575   -1.1166    0.1726 H   0  0  0  0  0  0  0  0  0  0  0  0
    0.6049   -1.8106    0.7996 H   0  0  0  0  0  0  0  0  0  0  0  0
    2.4350    1.0399   -0.9390 H   0  0  0  0  0  0  0  0  0  0  0  0
    4.8327    1.3403   -0.7946 H   0  0  0  0  0  0  0  0  0  0  0  0
    5.1131   -1.8931    1.9265 H   0  0  0  0  0  0  0  0  0  0  0  0
    2.6628   -2.2148    1.7923 H   0  0  0  0  0  0  0  0  0  0  0  0
    7.9053   -0.8743    2.0641 H   0  0  0  0  0  0  0  0  0  0  0  0
    6.9102   -2.0390    1.1674 H   0  0  0  0  0  0  0  0  0  0  0  0
    9.2992   -1.9239    0.3823 H   0  0  0  0  0  0  0  0  0  0  0  0
    8.0647   -1.5734   -0.9160 H   0  0  0  0  0  0  0  0  0  0  0  0
    8.7846    1.8587   -0.9896 H   0  0  0  0  0  0  0  0  0  0  0  0
    7.7478    0.4270   -1.5324 H   0  0  0  0  0  0  0  0  0  0  0  0
    7.7694    1.4691    1.2844 H   0  0  0  0  0  0  0  0  0  0  0  0
    6.4894    2.0193    0.0831 H   0  0  0  0  0  0  0  0  0  0  0  0
   -0.7386    3.0246   -1.2571 H   0  0  0  0  0  0  0  0  0  0  0  0
   -3.0832    3.4171   -1.5799 H   0  0  0  0  0  0  0  0  0  0  0  0
  1  2  1  0
  2  3  1  0
  3  4  1  0
  4  5  1  0
  5  6  1  0
  6  7  1  0
  7  8  2  0
  8  9  1  0
  9 10  2  0
 10 11  1  0
 11 12  1  0
 12 13  1  0
 13 14  2  0
 14 15  1  0
 15 16  2  0
 16 17  1  0
 17 18  2  0
 16 19  1  0
 19 20  1  0
 20 21  1  0
 21 22  1  0
 22 23  1  0
 23 24  1  0
 11 25  2  0
 25 26  1  0
 26 27  2  0
 27 28  1  0
 28 29  2  0
  6  2  1  0
 29  7  1  0
 27  9  1  0
 18 13  1  0
 24 19  1  0
  1 30  1  0
  1 31  1  0
  1 32  1  0
  2 33  1  1
  3 34  1  0
  3 35  1  0
  4 36  1  0
  4 37  1  0
  5 38  1  0
  5 39  1  0
  8 40  1  0
 12 41  1  0
 14 42  1  0
 15 43  1  0
 17 44  1  0
 18 45  1  0
 20 46  1  0
 20 47  1  0
 21 48  1  0
 21 49  1  0
 23 50  1  0
 23 51  1  0
 24 52  1  0
 24 53  1  0
 26 54  1  0
 28 55  1  0
M  END
$$$$
[H]c1nn2c(nnn2C([H])(c2c([H])c(-c3c([H])c([H])c([H])c4c3c(C([H])([H])[H])nn4C([H])([H])[H])c3c([H])c([H])c([H])c([H])c3c2[H])C([H])([H])[H])c1[H]
     RDKit          3D

 52 57  0  0  0  0  0  0  0  0999 V2000
    4.0237   -1.7810   -0.9494 C   0  0  0  0  0  0  0  0  0  0  0  0
    3.1062   -0.5744   -0.7144 C   0  0  0  0  0  0  0  0  0  0  0  0
    1.6945   -1.0134   -0.6552 C   0  0  0  0  0  0  0  0  0  0  0  0
    0.6022   -0.2159   -0.8955 C   0  0  0  0  0  0  0  0  0  0  0  0
   -0.6969   -0.6717   -0.8509 C   0  0  0  0  0  0  0  0  0  0  0  0
   -1.7997    0.2510   -1.1538 C   0  0  0  0  0  0  0  0  0  0  0  0
   -2.2037    0.4118   -2.4808 C   0  0  0  0  0  0  0  0  0  0  0  0
   -3.1826    1.2789   -2.8583 C   0  0  0  0  0  0  0  0  0  0  0  0
   -3.8114    2.0379   -1.8978 C   0  0  0  0  0  0  0  0  0  0  0  0
   -3.4346    1.9005   -0.5772 C   0  0  0  0  0  0  0  0  0  0  0  0
   -3.8669    2.4845    0.5546 N   0  0  0  0  0  0  0  0  0  0  0  0
   -4.9285    3.4953    0.5700 C   0  0  0  0  0  0  0  0  0  0  0  0
   -3.2012    2.0126    1.5861 N   0  0  0  0  0  0  0  0  0  0  0  0
   -2.2852    1.0846    1.1795 C   0  0  0  0  0  0  0  0  0  0  0  0
   -1.3575    0.3242    2.0263 C   0  0  0  0  0  0  0  0  0  0  0  0
   -2.4271    1.0094   -0.1799 C   0  0  0  0  0  0  0  0  0  0  0  0
   -0.9506   -1.9907   -0.5528 C   0  0  0  0  0  0  0  0  0  0  0  0
   -2.2494   -2.4836   -0.4905 C   0  0  0  0  0  0  0  0  0  0  0  0
   -2.4441   -3.7991   -0.1773 C   0  0  0  0  0  0  0  0  0  0  0  0
   -1.3991   -4.6600    0.0794 C   0  0  0  0  0  0  0  0  0  0  0  0
   -0.1278   -4.1346    0.0069 C   0  0  0  0  0  0  0  0  0  0  0  0
    0.1262   -2.8170   -0.3045 C   0  0  0  0  0  0  0  0  0  0  0  0
    1.4212   -2.3448   -0.3536 C   0  0  0  0  0  0  0  0  0  0  0  0
    3.5426    0.1842    0.4309 N   0  0  0  0  0  0  0  0  0  0  0  0
    3.2908   -0.1133    1.7018 N   0  0  0  0  0  0  0  0  0  0  0  0
    3.8669    0.8235    2.4618 N   0  0  0  0  0  0  0  0  0  0  0  0
    4.4779    1.7062    1.6595 C   0  0  0  0  0  0  0  0  0  0  0  0
    5.2356    2.8698    1.6246 C   0  0  0  0  0  0  0  0  0  0  0  0
    5.4661    3.1330    0.2968 C   0  0  0  0  0  0  0  0  0  0  0  0
    4.8591    2.1515   -0.4011 N   0  0  0  0  0  0  0  0  0  0  0  0
    4.2650    1.2930    0.4085 N   0  0  0  0  0  0  0  0  0  0  0  0
    4.1710   -2.3516   -0.0272 H   0  0  0  0  0  0  0  0  0  0  0  0
    3.5286   -2.3593   -1.7628 H   0  0  0  0  0  0  0  0  0  0  0  0
    4.9887   -1.4257   -1.3685 H   0  0  0  0  0  0  0  0  0  0  0  0
    3.2577    0.0582   -1.6182 H   0  0  0  0  0  0  0  0  0  0  0  0
    0.8474    0.8306   -1.1334 H   0  0  0  0  0  0  0  0  0  0  0  0
   -1.7013   -0.1844   -3.2235 H   0  0  0  0  0  0  0  0  0  0  0  0
   -3.4978    1.4103   -3.8970 H   0  0  0  0  0  0  0  0  0  0  0  0
   -4.5986    2.7376   -2.1572 H   0  0  0  0  0  0  0  0  0  0  0  0
   -5.0347    3.9247    1.5899 H   0  0  0  0  0  0  0  0  0  0  0  0
   -5.8262    3.0261    0.1735 H   0  0  0  0  0  0  0  0  0  0  0  0
   -4.6589    4.3500   -0.0815 H   0  0  0  0  0  0  0  0  0  0  0  0
   -1.5706    0.6863    3.0924 H   0  0  0  0  0  0  0  0  0  0  0  0
   -1.6361   -0.7670    2.1305 H   0  0  0  0  0  0  0  0  0  0  0  0
   -0.2968    0.5120    1.8851 H   0  0  0  0  0  0  0  0  0  0  0  0
   -3.0809   -1.8337   -0.6868 H   0  0  0  0  0  0  0  0  0  0  0  0
   -3.4421   -4.2568   -0.1077 H   0  0  0  0  0  0  0  0  0  0  0  0
   -1.5716   -5.7046    0.3320 H   0  0  0  0  0  0  0  0  0  0  0  0
    0.7009   -4.8295    0.2127 H   0  0  0  0  0  0  0  0  0  0  0  0
    2.2417   -3.0430   -0.1481 H   0  0  0  0  0  0  0  0  0  0  0  0
    5.5422    3.4021    2.4963 H   0  0  0  0  0  0  0  0  0  0  0  0
    6.0256    3.9656   -0.0890 H   0  0  0  0  0  0  0  0  0  0  0  0
  1  2  1  0
  2  3  1  0
  3  4  2  0
  4  5  1  0
  5  6  1  0
  6  7  2  0
  7  8  1  0
  8  9  2  0
  9 10  1  0
 10 11  1  0
 11 12  1  0
 11 13  1  0
 13 14  2  0
 14 15  1  0
 14 16  1  0
  5 17  2  0
 17 18  1  0
 18 19  2  0
 19 20  1  0
 20 21  2  0
 21 22  1  0
 22 23  2  0
  2 24  1  0
 24 25  1  0
 25 26  2  0
 26 27  1  0
 27 28  2  0
 28 29  1  0
 29 30  2  0
 30 31  1  0
 23  3  1  0
 31 24  1  0
 16  6  1  0
 22 17  1  0
 31 27  1  0
 16 10  2  0
  1 32  1  0
  1 33  1  0
  1 34  1  0
  2 35  1  0
  4 36  1  0
  7 37  1  0
  8 38  1  0
  9 39  1  0
 12 40  1  0
 12 41  1  0
 12 42  1  0
 15 43  1  0
 15 44  1  0
 15 45  1  0
 18 46  1  0
 19 47  1  0
 20 48  1  0
 21 49  1  0
 23 50  1  0
 28 51  1  0
 29 52  1  0
M  END
$$$$
[H]/C(=C1\C(=O)N2[C@@]1([H])C([H])([H])[C@@]2([H])OC([H])([H])[H])c1nnc2c(c1[H])OC([H])([H])O2
     RDKit          3D

 30 33  0  0  0  0  0  0  0  0999 V2000
   -4.8869    0.4583    1.4023 C   0  0  0  0  0  0  0  0  0  0  0  0
   -3.6253    0.5564    0.8540 O   0  0  0  0  0  0  0  0  0  0  0  0
   -3.3272   -0.4650   -0.0576 C   0  0  2  0  0  0  0  0  0  0  0  0
   -1.9046   -1.0352    0.1700 C   0  0  0  0  0  0  0  0  0  0  0  0
   -1.5407    0.2986   -0.3773 C   0  0  2  0  0  0  0  0  0  0  0  0
   -2.7508    0.1289   -1.2468 N   0  0  0  0  0  0  0  0  0  0  0  0
   -1.9661    0.7392   -2.2572 C   0  0  0  0  0  0  0  0  0  0  0  0
   -2.2065    1.3306   -3.3381 O   0  0  0  0  0  0  0  0  0  0  0  0
   -0.6972    0.4157   -1.5527 C   0  0  0  0  0  0  0  0  0  0  0  0
    0.5804    0.2949   -1.8091 C   0  0  0  0  0  0  0  0  0  0  0  0
    1.5668   -0.0393   -0.7733 C   0  0  0  0  0  0  0  0  0  0  0  0
    2.8192    0.5551   -0.8191 C   0  0  0  0  0  0  0  0  0  0  0  0
    3.7799    0.2644    0.1536 C   0  0  0  0  0  0  0  0  0  0  0  0
    5.0832    0.6765    0.3849 O   0  0  0  0  0  0  0  0  0  0  0  0
    5.7021   -0.1841    1.3216 C   0  0  0  0  0  0  0  0  0  0  0  0
    4.5924   -0.7388    2.0005 O   0  0  0  0  0  0  0  0  0  0  0  0
    3.4776   -0.6186    1.1637 C   0  0  0  0  0  0  0  0  0  0  0  0
    2.2361   -1.1707    1.1582 N   0  0  0  0  0  0  0  0  0  0  0  0
    1.3378   -0.8894    0.2350 N   0  0  0  0  0  0  0  0  0  0  0  0
   -5.6800    0.4998    0.6134 H   0  0  0  0  0  0  0  0  0  0  0  0
   -5.0332    1.4118    1.9888 H   0  0  0  0  0  0  0  0  0  0  0  0
   -5.0355   -0.3651    2.1111 H   0  0  0  0  0  0  0  0  0  0  0  0
   -4.0951   -1.2174   -0.2308 H   0  0  0  0  0  0  0  0  0  0  0  0
   -1.6555   -1.2663    1.2004 H   0  0  0  0  0  0  0  0  0  0  0  0
   -1.7096   -1.8591   -0.5221 H   0  0  0  0  0  0  0  0  0  0  0  0
   -1.6191    1.1580    0.3088 H   0  0  0  0  0  0  0  0  0  0  0  0
    0.9117    0.4503   -2.8314 H   0  0  0  0  0  0  0  0  0  0  0  0
    3.0652    1.2536   -1.6118 H   0  0  0  0  0  0  0  0  0  0  0  0
    6.2076   -1.0145    0.8144 H   0  0  0  0  0  0  0  0  0  0  0  0
    6.3730    0.3713    2.0125 H   0  0  0  0  0  0  0  0  0  0  0  0
  1  2  1  0
  2  3  1  0
  3  4  1  0
  4  5  1  0
  5  6  1  0
  6  7  1  0
  7  8  2  0
  7  9  1  0
  9 10  2  0
 10 11  1  0
 11 12  2  0
 12 13  1  0
 13 14  1  0
 14 15  1  0
 15 16  1  0
 16 17  1  0
 17 18  1  0
 18 19  2  0
  6  3  1  0
 19 11  1  0
  9  5  1  0
 17 13  2  0
  1 20  1  0
  1 21  1  0
  1 22  1  0
  3 23  1  6
  4 24  1  0
  4 25  1  0
  5 26  1  1
 10 27  1  0
 12 28  1  0
 15 29  1  0
 15 30  1  0
M  END
$$$$
[H]Oc1c([H])c([H])c(-c2nn3c(Cl)c([H])nc3c([H])c2[C@@]([H])(N([H])c2nc([H])nc3c2c(C([H])([H])[H])c([H])n3[H])C([H])([H])[H])c([H])c1[H]
     RDKit          3D

 48 52  0  0  0  0  0  0  0  0999 V2000
    0.1633   -0.0053   -2.1146 C   0  0  0  0  0  0  0  0  0  0  0  0
   -0.2726    0.2222   -0.7271 C   0  0  2  0  0  0  0  0  0  0  0  0
    1.0425    0.6139   -0.0528 N   0  0  0  0  0  0  0  0  0  0  0  0
    2.2530    0.0306   -0.4588 C   0  0  0  0  0  0  0  0  0  0  0  0
    2.3717   -1.0052   -1.3181 N   0  0  0  0  0  0  0  0  0  0  0  0
    3.4993   -1.6111   -1.6794 C   0  0  0  0  0  0  0  0  0  0  0  0
    4.6826   -1.2115   -1.1855 N   0  0  0  0  0  0  0  0  0  0  0  0
    4.6680   -0.1744   -0.3123 C   0  0  0  0  0  0  0  0  0  0  0  0
    5.6981    0.4453    0.3127 N   0  0  0  0  0  0  0  0  0  0  0  0
    5.2410    1.4380    1.0625 C   0  0  0  0  0  0  0  0  0  0  0  0
    3.8563    1.4551    0.9128 C   0  0  0  0  0  0  0  0  0  0  0  0
    2.9987    2.4500    1.6038 C   0  0  0  0  0  0  0  0  0  0  0  0
    3.4932    0.4452    0.0544 C   0  0  0  0  0  0  0  0  0  0  0  0
   -0.8647   -0.7708    0.1102 C   0  0  0  0  0  0  0  0  0  0  0  0
   -0.2110   -1.8219    0.6518 C   0  0  0  0  0  0  0  0  0  0  0  0
   -0.8273   -2.6625    1.5949 C   0  0  0  0  0  0  0  0  0  0  0  0
   -0.3427   -3.7769    2.2322 N   0  0  0  0  0  0  0  0  0  0  0  0
   -1.3134   -4.2687    3.0435 C   0  0  0  0  0  0  0  0  0  0  0  0
   -2.3874   -3.4235    2.8748 C   0  0  0  0  0  0  0  0  0  0  0  0
   -3.9486   -3.5844    3.6726 Cl  0  0  0  0  0  0  0  0  0  0  0  0
   -2.0902   -2.4550    1.9996 N   0  0  0  0  0  0  0  0  0  0  0  0
   -2.7363   -1.4389    1.4818 N   0  0  0  0  0  0  0  0  0  0  0  0
   -2.2227   -0.6074    0.5842 C   0  0  0  0  0  0  0  0  0  0  0  0
   -2.9866    0.3848   -0.1710 C   0  0  0  0  0  0  0  0  0  0  0  0
   -3.3618    1.5790    0.2710 C   0  0  0  0  0  0  0  0  0  0  0  0
   -4.0911    2.3981   -0.6073 C   0  0  0  0  0  0  0  0  0  0  0  0
   -4.4246    2.0167   -1.8757 C   0  0  0  0  0  0  0  0  0  0  0  0
   -5.1355    2.7702   -2.7861 O   0  0  0  0  0  0  0  0  0  0  0  0
   -4.0106    0.7512   -2.2906 C   0  0  0  0  0  0  0  0  0  0  0  0
   -3.3076   -0.0341   -1.4443 C   0  0  0  0  0  0  0  0  0  0  0  0
    0.2803   -1.0173   -2.4739 H   0  0  0  0  0  0  0  0  0  0  0  0
   -0.6110    0.5231   -2.8406 H   0  0  0  0  0  0  0  0  0  0  0  0
    1.0388    0.6074   -2.3683 H   0  0  0  0  0  0  0  0  0  0  0  0
   -0.8890    1.1575   -0.7152 H   0  0  0  0  0  0  0  0  0  0  0  0
    0.9676    1.2797    0.7067 H   0  0  0  0  0  0  0  0  0  0  0  0
    3.5149   -2.4458   -2.3819 H   0  0  0  0  0  0  0  0  0  0  0  0
    6.6974    0.1402    0.1889 H   0  0  0  0  0  0  0  0  0  0  0  0
    5.8285    2.1208    1.6831 H   0  0  0  0  0  0  0  0  0  0  0  0
    3.6721    3.2472    2.0250 H   0  0  0  0  0  0  0  0  0  0  0  0
    2.3632    2.9568    0.8695 H   0  0  0  0  0  0  0  0  0  0  0  0
    2.4271    2.0227    2.4257 H   0  0  0  0  0  0  0  0  0  0  0  0
    0.8010   -2.1196    0.4531 H   0  0  0  0  0  0  0  0  0  0  0  0
   -1.2043   -5.1355    3.6494 H   0  0  0  0  0  0  0  0  0  0  0  0
   -3.1504    1.9819    1.2640 H   0  0  0  0  0  0  0  0  0  0  0  0
   -4.4120    3.3946   -0.2486 H   0  0  0  0  0  0  0  0  0  0  0  0
   -5.4660    3.6966   -2.5877 H   0  0  0  0  0  0  0  0  0  0  0  0
   -4.2839    0.4466   -3.3066 H   0  0  0  0  0  0  0  0  0  0  0  0
   -3.0072   -1.0059   -1.7820 H   0  0  0  0  0  0  0  0  0  0  0  0
  1  2  1  0
  2  3  1  0
  3  4  1  0
  4  5  2  0
  5  6  1  0
  6  7  2  0
  7  8  1  0
  8  9  1  0
  9 10  1  0
 10 11  2  0
 11 12  1  0
 11 13  1  0
  2 14  1  0
 14 15  2  0
 15 16  1  0
 16 17  2  0
 17 18  1  0
 18 19  2  0
 19 20  1  0
 19 21  1  0
 21 22  1  0
 22 23  2  0
 23 24  1  0
 24 25  2  0
 25 26  1  0
 26 27  2  0
 27 28  1  0
 27 29  1  0
 29 30  2  0
 13  4  1  0
 23 14  1  0
 30 24  1  0
 13  8  2  0
 21 16  1  0
  1 31  1  0
  1 32  1  0
  1 33  1  0
  2 34  1  6
  3 35  1  0
  6 36  1  0
  9 37  1  0
 10 38  1  0
 12 39  1  0
 12 40  1  0
 12 41  1  0
 15 42  1  0
 18 43  1  0
 25 44  1  0
 26 45  1  0
 28 46  1  0
 29 47  1  0
 30 48  1  0
M  END
$$$$
[H]N=C(N([H])[H])N([H])C([H])([H])C([H])([H])C([H])([H])[C@@]([H])(C(=O)c1nc2c([H])c([H])c([H])c([H])c2s1)N([H])C(=O)[C@@]([H])(N([H])C(=O)[C@@]1([H])N(c2nc3c([H])c([H])c(N=C(N([H])[H])N([H])[H])c([H])c3s2)C([H])([H])C([H])([H])C1([H])[H])C([H])([H])c1c([H])n([H])c2c([H])c([H])c([H])c([H])c12
     RDKit          3D

 94100  0  0  0  0  0  0  0  0999 V2000
    9.5143    1.7670    3.9265 N   0  0  0  0  0  0  0  0  0  0  0  0
   10.4359    2.5763    3.1793 C   0  0  0  0  0  0  0  0  0  0  0  0
   11.7489    2.7278    3.6517 N   0  0  0  0  0  0  0  0  0  0  0  0
   10.0762    3.0909    1.9843 N   0  0  0  0  0  0  0  0  0  0  0  0
    8.7641    2.7604    1.5510 C   0  0  0  0  0  0  0  0  0  0  0  0
    7.6573    3.0610    2.2666 C   0  0  0  0  0  0  0  0  0  0  0  0
    6.4000    2.5329    2.0147 C   0  0  0  0  0  0  0  0  0  0  0  0
    6.2333    1.6270    0.9600 C   0  0  0  0  0  0  0  0  0  0  0  0
    5.1418    0.9691    0.6942 N   0  0  0  0  0  0  0  0  0  0  0  0
    5.1345    0.0441   -0.2438 C   0  0  0  0  0  0  0  0  0  0  0  0
    6.7528    0.0938   -0.8190 S   0  0  0  0  0  0  0  0  0  0  0  0
    7.3493    1.3168    0.2209 C   0  0  0  0  0  0  0  0  0  0  0  0
    8.5958    1.8621    0.4912 C   0  0  0  0  0  0  0  0  0  0  0  0
    4.0984   -0.8978   -0.5819 N   0  0  0  0  0  0  0  0  0  0  0  0
    4.0125   -2.0773    0.3809 C   0  0  0  0  0  0  0  0  0  0  0  0
    3.7622   -3.1573   -0.6598 C   0  0  0  0  0  0  0  0  0  0  0  0
    2.5808   -2.4885   -1.3453 C   0  0  0  0  0  0  0  0  0  0  0  0
    3.1537   -1.0813   -1.5615 C   0  0  1  0  0  0  0  0  0  0  0  0
    1.9974   -0.1069   -1.6275 C   0  0  0  0  0  0  0  0  0  0  0  0
    2.2780    1.1052   -1.5113 O   0  0  0  0  0  0  0  0  0  0  0  0
    0.7007   -0.6239   -1.8028 N   0  0  0  0  0  0  0  0  0  0  0  0
   -0.4895    0.1063   -1.8928 C   0  0  1  0  0  0  0  0  0  0  0  0
   -0.9868   -0.2226   -3.3867 C   0  0  0  0  0  0  0  0  0  0  0  0
   -1.0979   -1.6758   -3.5697 C   0  0  0  0  0  0  0  0  0  0  0  0
   -1.2024   -2.7824   -2.7904 C   0  0  0  0  0  0  0  0  0  0  0  0
   -1.2600   -3.9107   -3.5370 N   0  0  0  0  0  0  0  0  0  0  0  0
   -1.1940   -3.5683   -4.8056 C   0  0  0  0  0  0  0  0  0  0  0  0
   -1.1946   -4.3620   -5.9534 C   0  0  0  0  0  0  0  0  0  0  0  0
   -1.0954   -3.7806   -7.1859 C   0  0  0  0  0  0  0  0  0  0  0  0
   -0.9927   -2.4095   -7.2938 C   0  0  0  0  0  0  0  0  0  0  0  0
   -0.9950   -1.6355   -6.1390 C   0  0  0  0  0  0  0  0  0  0  0  0
   -1.0944   -2.2025   -4.8865 C   0  0  0  0  0  0  0  0  0  0  0  0
   -1.6462   -0.2404   -1.0885 C   0  0  0  0  0  0  0  0  0  0  0  0
   -2.6343   -0.8477   -1.6366 O   0  0  0  0  0  0  0  0  0  0  0  0
   -1.8713   -0.0099    0.2998 N   0  0  0  0  0  0  0  0  0  0  0  0
   -3.1274   -0.5287    0.8821 C   0  0  1  0  0  0  0  0  0  0  0  0
   -2.9435   -0.9966    2.2328 C   0  0  0  0  0  0  0  0  0  0  0  0
   -4.0141   -1.6726    2.9847 C   0  0  0  0  0  0  0  0  0  0  0  0
   -5.2892   -0.9474    3.2258 C   0  0  0  0  0  0  0  0  0  0  0  0
   -6.1992   -1.8126    4.0119 N   0  0  0  0  0  0  0  0  0  0  0  0
   -7.4294   -1.3481    4.4910 C   0  0  0  0  0  0  0  0  0  0  0  0
   -8.6006   -1.5099    3.7048 N   0  0  0  0  0  0  0  0  0  0  0  0
   -7.5363   -0.7854    5.6234 N   0  0  0  0  0  0  0  0  0  0  0  0
   -4.2575    0.1623    0.3581 C   0  0  0  0  0  0  0  0  0  0  0  0
   -5.0734   -0.4742   -0.4544 O   0  0  0  0  0  0  0  0  0  0  0  0
   -4.6370    1.5632    0.5881 C   0  0  0  0  0  0  0  0  0  0  0  0
   -5.7284    2.1661    0.1351 N   0  0  0  0  0  0  0  0  0  0  0  0
   -5.9026    3.4319    0.3187 C   0  0  0  0  0  0  0  0  0  0  0  0
   -7.0115    4.1770   -0.1216 C   0  0  0  0  0  0  0  0  0  0  0  0
   -7.1160    5.5089    0.0964 C   0  0  0  0  0  0  0  0  0  0  0  0
   -6.1438    6.2034    0.7620 C   0  0  0  0  0  0  0  0  0  0  0  0
   -5.0450    5.5088    1.2101 C   0  0  0  0  0  0  0  0  0  0  0  0
   -4.9233    4.1247    0.9927 C   0  0  0  0  0  0  0  0  0  0  0  0
   -3.8114    2.8726    1.3236 S   0  0  0  0  0  0  0  0  0  0  0  0
    8.7706    2.1835    4.5432 H   0  0  0  0  0  0  0  0  0  0  0  0
    9.5483    0.7224    3.8977 H   0  0  0  0  0  0  0  0  0  0  0  0
   12.4887    3.2049    3.0417 H   0  0  0  0  0  0  0  0  0  0  0  0
   12.0881    2.3941    4.5773 H   0  0  0  0  0  0  0  0  0  0  0  0
    7.7294    3.7623    3.1195 H   0  0  0  0  0  0  0  0  0  0  0  0
    5.5593    2.8515    2.6496 H   0  0  0  0  0  0  0  0  0  0  0  0
    9.4417    1.6106   -0.1103 H   0  0  0  0  0  0  0  0  0  0  0  0
    4.9599   -2.2558    0.8642 H   0  0  0  0  0  0  0  0  0  0  0  0
    3.1795   -1.9061    1.0610 H   0  0  0  0  0  0  0  0  0  0  0  0
    4.6477   -3.1259   -1.3301 H   0  0  0  0  0  0  0  0  0  0  0  0
    3.5385   -4.0963   -0.1823 H   0  0  0  0  0  0  0  0  0  0  0  0
    1.8576   -2.3342   -0.4917 H   0  0  0  0  0  0  0  0  0  0  0  0
    2.1937   -2.9751   -2.2092 H   0  0  0  0  0  0  0  0  0  0  0  0
    3.6390   -1.1106   -2.5865 H   0  0  0  0  0  0  0  0  0  0  0  0
    0.6590   -1.6843   -1.8698 H   0  0  0  0  0  0  0  0  0  0  0  0
   -0.3226    1.1760   -1.9154 H   0  0  0  0  0  0  0  0  0  0  0  0
   -0.2932    0.2583   -4.0386 H   0  0  0  0  0  0  0  0  0  0  0  0
   -1.9941    0.2163   -3.4395 H   0  0  0  0  0  0  0  0  0  0  0  0
   -1.2268   -2.8591   -1.7119 H   0  0  0  0  0  0  0  0  0  0  0  0
   -1.3478   -4.8905   -3.1668 H   0  0  0  0  0  0  0  0  0  0  0  0
   -1.2699   -5.4124   -5.8468 H   0  0  0  0  0  0  0  0  0  0  0  0
   -1.0897   -4.3591   -8.1135 H   0  0  0  0  0  0  0  0  0  0  0  0
   -0.9088   -1.9227   -8.2788 H   0  0  0  0  0  0  0  0  0  0  0  0
   -0.9106   -0.5692   -6.2696 H   0  0  0  0  0  0  0  0  0  0  0  0
   -1.1745    0.4800    0.8869 H   0  0  0  0  0  0  0  0  0  0  0  0
   -3.1742   -1.5599    0.2536 H   0  0  0  0  0  0  0  0  0  0  0  0
   -2.0866   -1.7878    2.1799 H   0  0  0  0  0  0  0  0  0  0  0  0
   -2.4828   -0.2433    2.9492 H   0  0  0  0  0  0  0  0  0  0  0  0
   -3.6252   -1.9191    4.0419 H   0  0  0  0  0  0  0  0  0  0  0  0
   -4.2032   -2.7266    2.5968 H   0  0  0  0  0  0  0  0  0  0  0  0
   -5.8673   -0.6727    2.3098 H   0  0  0  0  0  0  0  0  0  0  0  0
   -5.1181   -0.0469    3.8321 H   0  0  0  0  0  0  0  0  0  0  0  0
   -5.9072   -2.8022    4.2175 H   0  0  0  0  0  0  0  0  0  0  0  0
   -9.2019   -2.3246    3.8580 H   0  0  0  0  0  0  0  0  0  0  0  0
   -8.8310   -0.8084    2.9853 H   0  0  0  0  0  0  0  0  0  0  0  0
   -6.8048   -0.5985    6.3107 H   0  0  0  0  0  0  0  0  0  0  0  0
   -7.8252    3.6804   -0.6738 H   0  0  0  0  0  0  0  0  0  0  0  0
   -8.0282    6.0355   -0.2768 H   0  0  0  0  0  0  0  0  0  0  0  0
   -6.2367    7.2516    0.9276 H   0  0  0  0  0  0  0  0  0  0  0  0
   -4.2146    5.9612    1.7402 H   0  0  0  0  0  0  0  0  0  0  0  0
  1  2  1  0
  2  3  1  0
  2  4  2  3
  4  5  1  0
  5  6  2  0
  6  7  1  0
  7  8  2  0
  8  9  1  0
  9 10  2  0
 10 11  1  0
 11 12  1  0
 12 13  2  0
 10 14  1  0
 14 15  1  0
 15 16  1  0
 16 17  1  0
 17 18  1  0
 18 19  1  0
 19 20  2  0
 19 21  1  0
 21 22  1  0
 22 23  1  0
 23 24  1  0
 24 25  2  0
 25 26  1  0
 26 27  1  0
 27 28  2  0
 28 29  1  0
 29 30  2  0
 30 31  1  0
 31 32  2  0
 22 33  1  0
 33 34  2  0
 33 35  1  0
 35 36  1  0
 36 37  1  0
 37 38  1  0
 38 39  1  0
 39 40  1  0
 40 41  1  0
 41 42  1  0
 41 43  2  3
 36 44  1  0
 44 45  2  0
 44 46  1  0
 46 47  2  0
 47 48  1  0
 48 49  2  0
 49 50  1  0
 50 51  2  0
 51 52  1  0
 52 53  2  0
 53 54  1  0
 13  5  1  0
 18 14  1  0
 32 24  1  0
 54 46  1  0
 12  8  1  0
 32 27  1  0
 53 48  1  0
  1 55  1  0
  1 56  1  0
  3 57  1  0
  3 58  1  0
  6 59  1  0
  7 60  1  0
 13 61  1  0
 15 62  1  0
 15 63  1  0
 16 64  1  0
 16 65  1  0
 17 66  1  0
 17 67  1  0
 18 68  1  6
 21 69  1  0
 22 70  1  6
 23 71  1  0
 23 72  1  0
 25 73  1  0
 26 74  1  0
 28 75  1  0
 29 76  1  0
 30 77  1  0
 31 78  1  0
 35 79  1  0
 36 80  1  6
 37 81  1  0
 37 82  1  0
 38 83  1  0
 38 84  1  0
 39 85  1  0
 39 86  1  0
 40 87  1  0
 42 88  1  0
 42 89  1  0
 43 90  1  0
 49 91  1  0
 50 92  1  0
 51 93  1  0
 52 94  1  0
M  END
$$$$
[H]N(C(=O)[C@@]([H])(N([H])C(=O)[C@]1([H])OC(=O)[C@@]1([H])[C@@]([H])(C([H])([H])[H])C([H])([H])C([H])([H])[H])C([H])(C([H])([H])[H])C([H])([H])[H])[C@]([H])(C(=O)[C@@]([H])(N([H])C(=O)C([H])([H])[H])C([H])(C([H])([H])[H])C([H])([H])[H])C([H])([H])C([H])(C([H])([H])[H])C([H])([H])[H]
     RDKit          3D

 77 77  0  0  0  0  0  0  0  0999 V2000
    6.1562    2.9836    0.8930 C   0  0  0  0  0  0  0  0  0  0  0  0
    6.8031    1.6950    0.5248 C   0  0  0  0  0  0  0  0  0  0  0  0
    6.3121    1.0212   -0.7046 C   0  0  2  0  0  0  0  0  0  0  0  0
    6.4589    1.8954   -1.9489 C   0  0  0  0  0  0  0  0  0  0  0  0
    5.0510    0.2651   -0.6304 C   0  0  1  0  0  0  0  0  0  0  0  0
    3.7754    0.9585   -0.2476 C   0  0  1  0  0  0  0  0  0  0  0  0
    3.3469    0.9857   -1.5812 O   0  0  0  0  0  0  0  0  0  0  0  0
    4.3880    0.1817   -1.9792 C   0  0  0  0  0  0  0  0  0  0  0  0
    4.6687   -0.3975   -3.0500 O   0  0  0  0  0  0  0  0  0  0  0  0
    2.9969   -0.0106    0.6340 C   0  0  0  0  0  0  0  0  0  0  0  0
    3.4214    0.0245    1.8383 O   0  0  0  0  0  0  0  0  0  0  0  0
    1.9916   -0.8100    0.1956 N   0  0  0  0  0  0  0  0  0  0  0  0
    0.9668   -1.6254   -0.2500 C   0  0  1  0  0  0  0  0  0  0  0  0
    0.9779   -3.0771    0.0432 C   0  0  0  0  0  0  0  0  0  0  0  0
    1.0482   -3.5161    1.4605 C   0  0  0  0  0  0  0  0  0  0  0  0
    2.0340   -3.8472   -0.7441 C   0  0  0  0  0  0  0  0  0  0  0  0
   -0.3494   -0.9663   -0.3066 C   0  0  0  0  0  0  0  0  0  0  0  0
   -0.4539    0.1682   -0.8954 O   0  0  0  0  0  0  0  0  0  0  0  0
   -1.5083   -1.5044    0.2583 N   0  0  0  0  0  0  0  0  0  0  0  0
   -2.8514   -0.8717    0.1911 C   0  0  1  0  0  0  0  0  0  0  0  0
   -3.7285   -1.6921    1.0628 C   0  0  0  0  0  0  0  0  0  0  0  0
   -3.8916   -3.1308    0.6276 C   0  0  0  0  0  0  0  0  0  0  0  0
   -4.7989   -3.7672    1.6867 C   0  0  0  0  0  0  0  0  0  0  0  0
   -4.6138   -3.2623   -0.6906 C   0  0  0  0  0  0  0  0  0  0  0  0
   -2.6516    0.4759    0.9013 C   0  0  0  0  0  0  0  0  0  0  0  0
   -1.9876    0.5021    1.9122 O   0  0  0  0  0  0  0  0  0  0  0  0
   -3.2199    1.7425    0.3943 C   0  0  1  0  0  0  0  0  0  0  0  0
   -2.3132    2.8459    0.5052 N   0  0  0  0  0  0  0  0  0  0  0  0
   -2.5632    4.0903    1.1424 C   0  0  0  0  0  0  0  0  0  0  0  0
   -1.5123    5.1223    1.1894 C   0  0  0  0  0  0  0  0  0  0  0  0
   -3.6822    4.3572    1.6824 O   0  0  0  0  0  0  0  0  0  0  0  0
   -3.9339    1.6621   -0.9088 C   0  0  0  0  0  0  0  0  0  0  0  0
   -4.4311    3.0165   -1.4204 C   0  0  0  0  0  0  0  0  0  0  0  0
   -5.2933    0.9133   -0.6783 C   0  0  0  0  0  0  0  0  0  0  0  0
    5.4222    2.9370    1.7199 H   0  0  0  0  0  0  0  0  0  0  0  0
    5.6234    3.4767    0.0436 H   0  0  0  0  0  0  0  0  0  0  0  0
    6.9210    3.7661    1.2301 H   0  0  0  0  0  0  0  0  0  0  0  0
    6.7961    1.0479    1.4282 H   0  0  0  0  0  0  0  0  0  0  0  0
    7.9134    1.9508    0.4077 H   0  0  0  0  0  0  0  0  0  0  0  0
    7.1089    0.2043   -0.9110 H   0  0  0  0  0  0  0  0  0  0  0  0
    6.4594    1.2283   -2.8274 H   0  0  0  0  0  0  0  0  0  0  0  0
    5.6355    2.6302   -2.0471 H   0  0  0  0  0  0  0  0  0  0  0  0
    7.4535    2.3615   -1.8695 H   0  0  0  0  0  0  0  0  0  0  0  0
    5.1677   -0.7844   -0.2005 H   0  0  0  0  0  0  0  0  0  0  0  0
    3.8249    1.9323    0.2581 H   0  0  0  0  0  0  0  0  0  0  0  0
    1.8364   -1.2884    1.4669 H   0  0  0  0  0  0  0  0  0  0  0  0
    1.2439   -1.6946   -1.4475 H   0  0  0  0  0  0  0  0  0  0  0  0
   -0.0055   -3.5108   -0.3623 H   0  0  0  0  0  0  0  0  0  0  0  0
    2.0074   -3.2195    1.9872 H   0  0  0  0  0  0  0  0  0  0  0  0
    1.1994   -4.6494    1.3931 H   0  0  0  0  0  0  0  0  0  0  0  0
    0.1666   -3.4104    2.0760 H   0  0  0  0  0  0  0  0  0  0  0  0
    2.7636   -4.3544   -0.0460 H   0  0  0  0  0  0  0  0  0  0  0  0
    1.5976   -4.5842   -1.4475 H   0  0  0  0  0  0  0  0  0  0  0  0
    2.5912   -3.1113   -1.3233 H   0  0  0  0  0  0  0  0  0  0  0  0
   -1.4228   -2.4194    0.7470 H   0  0  0  0  0  0  0  0  0  0  0  0
   -3.1239   -0.6627   -0.8315 H   0  0  0  0  0  0  0  0  0  0  0  0
   -3.2136   -1.7985    2.0991 H   0  0  0  0  0  0  0  0  0  0  0  0
   -4.6960   -1.2635    1.3413 H   0  0  0  0  0  0  0  0  0  0  0  0
   -2.9525   -3.6891    0.6253 H   0  0  0  0  0  0  0  0  0  0  0  0
   -5.8607   -3.5557    1.3594 H   0  0  0  0  0  0  0  0  0  0  0  0
   -4.6401   -4.8441    1.7781 H   0  0  0  0  0  0  0  0  0  0  0  0
   -4.6497   -3.2205    2.6488 H   0  0  0  0  0  0  0  0  0  0  0  0
   -5.6557   -2.8948   -0.5257 H   0  0  0  0  0  0  0  0  0  0  0  0
   -4.0879   -2.7948   -1.5486 H   0  0  0  0  0  0  0  0  0  0  0  0
   -4.6845   -4.3429   -0.9023 H   0  0  0  0  0  0  0  0  0  0  0  0
   -4.0604    2.0053    1.1347 H   0  0  0  0  0  0  0  0  0  0  0  0
   -1.3593    2.7229    0.0625 H   0  0  0  0  0  0  0  0  0  0  0  0
   -1.7357    6.0003    0.5710 H   0  0  0  0  0  0  0  0  0  0  0  0
   -1.3858    5.4502    2.2613 H   0  0  0  0  0  0  0  0  0  0  0  0
   -0.5802    4.6707    0.7638 H   0  0  0  0  0  0  0  0  0  0  0  0
   -3.4456    1.1543   -1.7257 H   0  0  0  0  0  0  0  0  0  0  0  0
   -3.6386    3.5982   -1.9134 H   0  0  0  0  0  0  0  0  0  0  0  0
   -5.0239    3.5079   -0.6660 H   0  0  0  0  0  0  0  0  0  0  0  0
   -5.1805    2.7438   -2.2625 H   0  0  0  0  0  0  0  0  0  0  0  0
   -5.4687    0.7982    0.3991 H   0  0  0  0  0  0  0  0  0  0  0  0
   -6.1536    1.5225   -1.0390 H   0  0  0  0  0  0  0  0  0  0  0  0
   -5.3205   -0.0438   -1.2015 H   0  0  0  0  0  0  0  0  0  0  0  0
  1  2  1  0
  2  3  1  0
  3  4  1  0
  3  5  1  0
  5  6  1  0
  6  7  1  0
  7  8  1  0
  8  9  2  0
  6 10  1  0
 10 11  2  0
 10 12  1  0
 12 13  1  0
 13 14  1  0
 14 15  1  0
 14 16  1  0
 13 17  1  0
 17 18  2  0
 17 19  1  0
 19 20  1  0
 20 21  1  0
 21 22  1  0
 22 23  1  0
 22 24  1  0
 20 25  1  0
 25 26  2  0
 25 27  1  0
 27 28  1  0
 28 29  1  0
 29 30  1  0
 29 31  2  0
 27 32  1  0
 32 33  1  0
 32 34  1  0
  8  5  1  0
  1 35  1  0
  1 36  1  0
  1 37  1  0
  2 38  1  0
  2 39  1  0
  3 40  1  6
  4 41  1  0
  4 42  1  0
  4 43  1  0
  5 44  1  1
  6 45  1  1
 12 46  1  0
 13 47  1  6
 14 48  1  0
 15 49  1  0
 15 50  1  0
 15 51  1  0
 16 52  1  0
 16 53  1  0
 16 54  1  0
 19 55  1  0
 20 56  1  6
 21 57  1  0
 21 58  1  0
 22 59  1  0
 23 60  1  0
 23 61  1  0
 23 62  1  0
 24 63  1  0
 24 64  1  0
 24 65  1  0
 27 66  1  1
 28 67  1  0
 30 68  1  0
 30 69  1  0
 30 70  1  0
 32 71  1  0
 33 72  1  0
 33 73  1  0
 33 74  1  0
 34 75  1  0
 34 76  1  0
 34 77  1  0
M  END
$$$$
[H]c1nc2c(c([H])nn2C2([H])C([H])([H])C([H])([H])C([H])(N3C([H])([H])C([H])([H])C([H])([H])C3([H])[H])C([H])([H])C2([H])[H])c(C([H])([H])C([H])([H])[H])c1C(=O)N([H])S(=O)(=O)c1c([H])c([H])c(N([H])[C@@]([H])(C([H])([H])Sc2c([H])c([H])c([H])c([H])c2[H])C([H])([H])C([H])([H])N(C([H])([H])[H])C([H])([H])[H])c([N+](=O)[O-])c1[H]
     RDKit          3D

100105  0  0  0  0  0  0  0  0999 V2000
   -0.2121    0.9190    1.6828 C   0  0  0  0  0  0  0  0  0  0  0  0
   -1.2108    1.7847    0.8765 C   0  0  0  0  0  0  0  0  0  0  0  0
   -2.0311    0.9367    0.0118 C   0  0  0  0  0  0  0  0  0  0  0  0
   -1.6061    0.3966   -1.1554 C   0  0  0  0  0  0  0  0  0  0  0  0
   -2.4953   -0.4703   -1.8171 C   0  0  0  0  0  0  0  0  0  0  0  0
   -3.7011   -0.7788   -1.3722 N   0  0  0  0  0  0  0  0  0  0  0  0
   -4.1402   -0.2456   -0.2115 C   0  0  0  0  0  0  0  0  0  0  0  0
   -5.2890   -0.3732    0.4649 N   0  0  0  0  0  0  0  0  0  0  0  0
   -5.2015    0.3705    1.5506 N   0  0  0  0  0  0  0  0  0  0  0  0
   -4.0120    0.9884    1.6021 C   0  0  0  0  0  0  0  0  0  0  0  0
   -3.3088    0.6093    0.4792 C   0  0  0  0  0  0  0  0  0  0  0  0
   -6.4373   -1.1712    0.0942 C   0  0  0  0  0  0  0  0  0  0  0  0
   -7.1387   -1.7588    1.2740 C   0  0  0  0  0  0  0  0  0  0  0  0
   -8.0341   -0.8165    2.0135 C   0  0  0  0  0  0  0  0  0  0  0  0
   -8.7952    0.1215    1.0974 C   0  0  0  0  0  0  0  0  0  0  0  0
   -8.7589   -0.5135   -0.2757 C   0  0  0  0  0  0  0  0  0  0  0  0
   -7.3460   -0.3587   -0.8037 C   0  0  0  0  0  0  0  0  0  0  0  0
  -10.1081    0.3251    1.6092 N   0  0  0  0  0  0  0  0  0  0  0  0
  -10.9260   -0.8283    1.6711 C   0  0  0  0  0  0  0  0  0  0  0  0
  -12.1514   -0.5856    0.8482 C   0  0  0  0  0  0  0  0  0  0  0  0
  -12.1858    0.8854    0.6154 C   0  0  0  0  0  0  0  0  0  0  0  0
  -10.7926    1.3542    0.8829 C   0  0  0  0  0  0  0  0  0  0  0  0
   -0.3498    0.7038   -1.8339 C   0  0  0  0  0  0  0  0  0  0  0  0
    0.3360   -0.3017   -2.2503 O   0  0  0  0  0  0  0  0  0  0  0  0
    0.1035    2.0126   -2.0417 N   0  0  0  0  0  0  0  0  0  0  0  0
    1.5653    2.4521   -2.8109 S   0  0  0  0  0  0  0  0  0  0  0  0
    1.9978    3.8436   -2.4055 O   0  0  0  0  0  0  0  0  0  0  0  0
    1.3142    2.4422   -4.3118 O   0  0  0  0  0  0  0  0  0  0  0  0
    2.8194    1.3032   -2.5019 C   0  0  0  0  0  0  0  0  0  0  0  0
    3.5829    1.4054   -1.3737 C   0  0  0  0  0  0  0  0  0  0  0  0
    4.6202    0.5283   -1.0992 C   0  0  0  0  0  0  0  0  0  0  0  0
    4.9120   -0.5069   -1.9974 C   0  0  0  0  0  0  0  0  0  0  0  0
    5.9785   -1.3483   -1.6708 N   0  0  0  0  0  0  0  0  0  0  0  0
    6.7292   -1.2768   -0.4072 C   0  0  2  0  0  0  0  0  0  0  0  0
    7.9946   -2.0957   -0.5595 C   0  0  0  0  0  0  0  0  0  0  0  0
    8.8600   -1.6160   -1.6737 C   0  0  0  0  0  0  0  0  0  0  0  0
    9.3480   -0.3086   -1.6334 N   0  0  0  0  0  0  0  0  0  0  0  0
   10.3059    0.0725   -0.6808 C   0  0  0  0  0  0  0  0  0  0  0  0
    8.8321    0.6615   -2.5170 C   0  0  0  0  0  0  0  0  0  0  0  0
    5.8645   -1.8386    0.6981 C   0  0  0  0  0  0  0  0  0  0  0  0
    6.5893   -1.8201    2.3240 S   0  0  0  0  0  0  0  0  0  0  0  0
    6.8128   -0.1871    2.9951 C   0  0  0  0  0  0  0  0  0  0  0  0
    5.7696    0.4061    3.7177 C   0  0  0  0  0  0  0  0  0  0  0  0
    5.9264    1.6658    4.2471 C   0  0  0  0  0  0  0  0  0  0  0  0
    7.0930    2.4016    4.1006 C   0  0  0  0  0  0  0  0  0  0  0  0
    8.1137    1.8061    3.3867 C   0  0  0  0  0  0  0  0  0  0  0  0
    7.9631    0.5454    2.8546 C   0  0  0  0  0  0  0  0  0  0  0  0
    4.1565   -0.6211   -3.1301 C   0  0  0  0  0  0  0  0  0  0  0  0
    3.1047    0.2927   -3.3775 C   0  0  0  0  0  0  0  0  0  0  0  0
    4.3769   -1.6355   -4.0847 N   0  0  0  0  0  0  0  0  0  0  0  0
    3.2420   -2.1193   -4.7505 O   0  0  0  0  0  0  0  0  0  0  0  0
    5.4373   -2.1390   -4.4355 O   0  0  0  0  0  0  0  0  0  0  0  0
   -0.6351   -0.1058    1.6710 H   0  0  0  0  0  0  0  0  0  0  0  0
   -0.1456    1.3142    2.7318 H   0  0  0  0  0  0  0  0  0  0  0  0
    0.7722    0.8912    1.2089 H   0  0  0  0  0  0  0  0  0  0  0  0
   -1.8398    2.3380    1.6322 H   0  0  0  0  0  0  0  0  0  0  0  0
   -0.5950    2.5424    0.4070 H   0  0  0  0  0  0  0  0  0  0  0  0
   -2.1324   -0.8963   -2.7522 H   0  0  0  0  0  0  0  0  0  0  0  0
   -3.6480    1.6574    2.3622 H   0  0  0  0  0  0  0  0  0  0  0  0
   -6.0750   -2.0437   -0.5256 H   0  0  0  0  0  0  0  0  0  0  0  0
   -6.3334   -2.0579    2.0093 H   0  0  0  0  0  0  0  0  0  0  0  0
   -7.6744   -2.7073    1.0350 H   0  0  0  0  0  0  0  0  0  0  0  0
   -8.7712   -1.4438    2.5666 H   0  0  0  0  0  0  0  0  0  0  0  0
   -7.4588   -0.2599    2.7862 H   0  0  0  0  0  0  0  0  0  0  0  0
   -8.2161    1.0616    1.0386 H   0  0  0  0  0  0  0  0  0  0  0  0
   -9.4717   -0.0909   -0.9904 H   0  0  0  0  0  0  0  0  0  0  0  0
   -8.9120   -1.6255   -0.1720 H   0  0  0  0  0  0  0  0  0  0  0  0
   -7.2669   -0.6801   -1.8656 H   0  0  0  0  0  0  0  0  0  0  0  0
   -7.0836    0.7164   -0.6619 H   0  0  0  0  0  0  0  0  0  0  0  0
  -10.4164   -1.7772    1.4169 H   0  0  0  0  0  0  0  0  0  0  0  0
  -11.2684   -0.9612    2.7391 H   0  0  0  0  0  0  0  0  0  0  0  0
  -13.0726   -0.9579    1.3797 H   0  0  0  0  0  0  0  0  0  0  0  0
  -12.1162   -1.1439   -0.1138 H   0  0  0  0  0  0  0  0  0  0  0  0
  -12.9485    1.4146    1.2248 H   0  0  0  0  0  0  0  0  0  0  0  0
  -12.4635    1.0536   -0.4512 H   0  0  0  0  0  0  0  0  0  0  0  0
  -10.8076    2.2957    1.4887 H   0  0  0  0  0  0  0  0  0  0  0  0
  -10.2874    1.5463   -0.1054 H   0  0  0  0  0  0  0  0  0  0  0  0
   -0.5609    2.7962   -1.7221 H   0  0  0  0  0  0  0  0  0  0  0  0
    3.3646    2.1992   -0.6749 H   0  0  0  0  0  0  0  0  0  0  0  0
    5.1817    0.6819   -0.2006 H   0  0  0  0  0  0  0  0  0  0  0  0
    6.2882   -2.0877   -2.3269 H   0  0  0  0  0  0  0  0  0  0  0  0
    6.9740   -0.2487   -0.2088 H   0  0  0  0  0  0  0  0  0  0  0  0
    8.5785   -2.1718    0.3517 H   0  0  0  0  0  0  0  0  0  0  0  0
    7.6663   -3.1297   -0.8163 H   0  0  0  0  0  0  0  0  0  0  0  0
    8.2704   -1.7413   -2.6166 H   0  0  0  0  0  0  0  0  0  0  0  0
    9.7418   -2.3098   -1.8338 H   0  0  0  0  0  0  0  0  0  0  0  0
    9.7944    0.4770    0.2141 H   0  0  0  0  0  0  0  0  0  0  0  0
   10.9841   -0.7294   -0.3360 H   0  0  0  0  0  0  0  0  0  0  0  0
   10.8865    0.9498   -1.0841 H   0  0  0  0  0  0  0  0  0  0  0  0
    9.6816    1.3189   -2.8628 H   0  0  0  0  0  0  0  0  0  0  0  0
    8.0736    1.3422   -2.0963 H   0  0  0  0  0  0  0  0  0  0  0  0
    8.4629    0.1489   -3.4326 H   0  0  0  0  0  0  0  0  0  0  0  0
    4.8511   -1.4078    0.7373 H   0  0  0  0  0  0  0  0  0  0  0  0
    5.6671   -2.9373    0.4551 H   0  0  0  0  0  0  0  0  0  0  0  0
    4.8532   -0.1774    3.8307 H   0  0  0  0  0  0  0  0  0  0  0  0
    5.1173    2.1194    4.8049 H   0  0  0  0  0  0  0  0  0  0  0  0
    7.1393    3.3809    4.5427 H   0  0  0  0  0  0  0  0  0  0  0  0
    9.0364    2.3848    3.2685 H   0  0  0  0  0  0  0  0  0  0  0  0
    8.7842    0.1170    2.3119 H   0  0  0  0  0  0  0  0  0  0  0  0
    2.5135    0.1872   -4.2803 H   0  0  0  0  0  0  0  0  0  0  0  0
  1  2  1  0
  2  3  1  0
  3  4  2  0
  4  5  1  0
  5  6  2  0
  6  7  1  0
  7  8  1  0
  8  9  1  0
  9 10  2  0
 10 11  1  0
  8 12  1  0
 12 13  1  0
 13 14  1  0
 14 15  1  0
 15 16  1  0
 16 17  1  0
 15 18  1  0
 18 19  1  0
 19 20  1  0
 20 21  1  0
 21 22  1  0
  4 23  1  0
 23 24  2  0
 23 25  1  0
 25 26  1  0
 26 27  2  0
 26 28  2  0
 26 29  1  0
 29 30  2  0
 30 31  1  0
 31 32  2  0
 32 33  1  0
 33 34  1  0
 34 35  1  0
 35 36  1  0
 36 37  1  0
 37 38  1  0
 37 39  1  0
 34 40  1  0
 40 41  1  0
 41 42  1  0
 42 43  2  0
 43 44  1  0
 44 45  2  0
 45 46  1  0
 46 47  2  0
 32 48  1  0
 48 49  2  0
 48 50  1  0
 50 51  1  0
 50 52  2  0
 11  3  1  0
 17 12  1  0
 22 18  1  0
 49 29  1  0
 11  7  2  0
 47 42  1  0
  1 53  1  0
  1 54  1  0
  1 55  1  0
  2 56  1  0
  2 57  1  0
  5 58  1  0
 10 59  1  0
 12 60  1  0
 13 61  1  0
 13 62  1  0
 14 63  1  0
 14 64  1  0
 15 65  1  0
 16 66  1  0
 16 67  1  0
 17 68  1  0
 17 69  1  0
 19 70  1  0
 19 71  1  0
 20 72  1  0
 20 73  1  0
 21 74  1  0
 21 75  1  0
 22 76  1  0
 22 77  1  0
 25 78  1  0
 30 79  1  0
 31 80  1  0
 33 81  1  0
 34 82  1  1
 35 83  1  0
 35 84  1  0
 36 85  1  0
 36 86  1  0
 38 87  1  0
 38 88  1  0
 38 89  1  0
 39 90  1  0
 39 91  1  0
 39 92  1  0
 40 93  1  0
 40 94  1  0
 43 95  1  0
 44 96  1  0
 45 97  1  0
 46 98  1  0
 47 99  1  0
 49100  1  0
M  CHG  2  50   1  51  -1
M  END
$$$$
[H]OC(=O)[C@]([H])(Oc1c([H])c([H])c2c(c1[H])C([H])([H])C([H])([H])N([H])C([H])([H])C2([H])[H])C([H])([H])c1c([H])c([H])c([H])c([H])c1[H]
     RDKit          3D

 44 46  0  0  0  0  0  0  0  0999 V2000
   -2.5601   -4.7028   -0.1885 O   0  0  0  0  0  0  0  0  0  0  0  0
   -1.7134   -3.7948    0.3956 C   0  0  0  0  0  0  0  0  0  0  0  0
   -0.8466   -4.1817    1.1983 O   0  0  0  0  0  0  0  0  0  0  0  0
   -1.7998   -2.3245    0.0930 C   0  0  1  0  0  0  0  0  0  0  0  0
   -3.2129   -1.9344    0.5276 C   0  0  0  0  0  0  0  0  0  0  0  0
   -3.4871   -0.5124    0.3055 C   0  0  0  0  0  0  0  0  0  0  0  0
   -3.2191    0.4198    1.2790 C   0  0  0  0  0  0  0  0  0  0  0  0
   -3.5006    1.7467    1.0078 C   0  0  0  0  0  0  0  0  0  0  0  0
   -4.0385    2.1364   -0.2099 C   0  0  0  0  0  0  0  0  0  0  0  0
   -4.3078    1.2113   -1.1844 C   0  0  0  0  0  0  0  0  0  0  0  0
   -4.0222   -0.1123   -0.9018 C   0  0  0  0  0  0  0  0  0  0  0  0
   -0.8300   -1.6709    0.8220 O   0  0  0  0  0  0  0  0  0  0  0  0
    0.1407   -0.8679    0.2944 C   0  0  0  0  0  0  0  0  0  0  0  0
    0.2409   -0.6332   -1.0440 C   0  0  0  0  0  0  0  0  0  0  0  0
    1.2363    0.1873   -1.5603 C   0  0  0  0  0  0  0  0  0  0  0  0
    2.1354    0.7727   -0.7098 C   0  0  0  0  0  0  0  0  0  0  0  0
    3.0941    1.5939   -1.4696 C   0  0  0  0  0  0  0  0  0  0  0  0
    4.4974    1.3852   -0.9216 C   0  0  0  0  0  0  0  0  0  0  0  0
    4.5462    2.0752    0.3538 N   0  0  0  0  0  0  0  0  0  0  0  0
    4.3647    1.1792    1.4651 C   0  0  0  0  0  0  0  0  0  0  0  0
    2.9056    1.0674    1.7684 C   0  0  0  0  0  0  0  0  0  0  0  0
    2.0862    0.5728    0.6631 C   0  0  0  0  0  0  0  0  0  0  0  0
    1.0847   -0.2445    1.1134 C   0  0  0  0  0  0  0  0  0  0  0  0
   -2.4602   -4.9924   -1.1609 H   0  0  0  0  0  0  0  0  0  0  0  0
   -1.7771   -2.1783   -0.9979 H   0  0  0  0  0  0  0  0  0  0  0  0
   -3.3619   -2.2199    1.5937 H   0  0  0  0  0  0  0  0  0  0  0  0
   -3.9001   -2.5814   -0.0609 H   0  0  0  0  0  0  0  0  0  0  0  0
   -2.7926    0.1491    2.2568 H   0  0  0  0  0  0  0  0  0  0  0  0
   -3.2992    2.5107    1.7599 H   0  0  0  0  0  0  0  0  0  0  0  0
   -4.2509    3.1976   -0.3950 H   0  0  0  0  0  0  0  0  0  0  0  0
   -4.7272    1.5420   -2.1248 H   0  0  0  0  0  0  0  0  0  0  0  0
   -4.2503   -0.8227   -1.7033 H   0  0  0  0  0  0  0  0  0  0  0  0
   -0.4275   -1.0571   -1.7722 H   0  0  0  0  0  0  0  0  0  0  0  0
    1.2948    0.3576   -2.6234 H   0  0  0  0  0  0  0  0  0  0  0  0
    3.0457    1.3970   -2.5512 H   0  0  0  0  0  0  0  0  0  0  0  0
    2.8393    2.6706   -1.2672 H   0  0  0  0  0  0  0  0  0  0  0  0
    4.6985    0.3132   -0.8295 H   0  0  0  0  0  0  0  0  0  0  0  0
    5.1929    1.8222   -1.6634 H   0  0  0  0  0  0  0  0  0  0  0  0
    5.3304    2.7274    0.4476 H   0  0  0  0  0  0  0  0  0  0  0  0
    4.8607    0.1993    1.3155 H   0  0  0  0  0  0  0  0  0  0  0  0
    4.8565    1.6456    2.3448 H   0  0  0  0  0  0  0  0  0  0  0  0
    2.5513    2.0460    2.1613 H   0  0  0  0  0  0  0  0  0  0  0  0
    2.8044    0.3566    2.6316 H   0  0  0  0  0  0  0  0  0  0  0  0
    0.9783   -0.4516    2.1785 H   0  0  0  0  0  0  0  0  0  0  0  0
  1  2  1  0
  2  3  2  0
  2  4  1  0
  4  5  1  0
  5  6  1  0
  6  7  2  0
  7  8  1  0
  8  9  2  0
  9 10  1  0
 10 11  2  0
  4 12  1  0
 12 13  1  0
 13 14  2  0
 14 15  1  0
 15 16  2  0
 16 17  1  0
 17 18  1  0
 18 19  1  0
 19 20  1  0
 20 21  1  0
 21 22  1  0
 22 23  2  0
 11  6  1  0
 23 13  1  0
 22 16  1  0
  1 24  1  0
  4 25  1  6
  5 26  1  0
  5 27  1  0
  7 28  1  0
  8 29  1  0
  9 30  1  0
 10 31  1  0
 11 32  1  0
 14 33  1  0
 15 34  1  0
 17 35  1  0
 17 36  1  0
 18 37  1  0
 18 38  1  0
 19 39  1  0
 20 40  1  0
 20 41  1  0
 21 42  1  0
 21 43  1  0
 23 44  1  0
M  END
$$$$
[H]/C(C(=O)c1c([H])c2c([H])c([H])c([H])c([H])c2n1C([H])([H])C([H])([H])[H])=C(\[H])c1c([H])c([H])c([H])c([H])c1[H]
     RDKit          3D

 38 40  0  0  0  0  0  0  0  0999 V2000
   -0.3994   -2.3535   -2.0465 C   0  0  0  0  0  0  0  0  0  0  0  0
    0.0498   -0.9332   -2.2871 C   0  0  0  0  0  0  0  0  0  0  0  0
   -0.8154    0.0419   -1.6632 N   0  0  0  0  0  0  0  0  0  0  0  0
   -0.7739    0.5399   -0.4309 C   0  0  0  0  0  0  0  0  0  0  0  0
   -1.7969    1.4612   -0.3206 C   0  0  0  0  0  0  0  0  0  0  0  0
   -2.4778    1.5214   -1.5211 C   0  0  0  0  0  0  0  0  0  0  0  0
   -3.5784    2.2757   -1.9484 C   0  0  0  0  0  0  0  0  0  0  0  0
   -4.0559    2.1269   -3.2326 C   0  0  0  0  0  0  0  0  0  0  0  0
   -3.4159    1.2256   -4.0516 C   0  0  0  0  0  0  0  0  0  0  0  0
   -2.3275    0.4849   -3.6167 C   0  0  0  0  0  0  0  0  0  0  0  0
   -1.8437    0.6272   -2.3353 C   0  0  0  0  0  0  0  0  0  0  0  0
    0.1690    0.1740    0.6596 C   0  0  0  0  0  0  0  0  0  0  0  0
    0.9668   -0.7090    0.3421 O   0  0  0  0  0  0  0  0  0  0  0  0
    0.0269    0.8763    1.8888 C   0  0  0  0  0  0  0  0  0  0  0  0
    0.7885    0.7600    2.9205 C   0  0  0  0  0  0  0  0  0  0  0  0
    1.9392   -0.0718    3.0373 C   0  0  0  0  0  0  0  0  0  0  0  0
    2.1300   -0.8274    4.2277 C   0  0  0  0  0  0  0  0  0  0  0  0
    3.2882   -1.5048    4.4555 C   0  0  0  0  0  0  0  0  0  0  0  0
    4.3494   -1.5121    3.5665 C   0  0  0  0  0  0  0  0  0  0  0  0
    4.1916   -0.7879    2.4080 C   0  0  0  0  0  0  0  0  0  0  0  0
    2.9957   -0.0870    2.1732 C   0  0  0  0  0  0  0  0  0  0  0  0
   -0.5148   -2.8843   -3.0242 H   0  0  0  0  0  0  0  0  0  0  0  0
    0.4253   -2.9132   -1.5223 H   0  0  0  0  0  0  0  0  0  0  0  0
   -1.3628   -2.4319   -1.5277 H   0  0  0  0  0  0  0  0  0  0  0  0
    0.0380   -0.7279   -3.4144 H   0  0  0  0  0  0  0  0  0  0  0  0
    1.0879   -0.7879   -1.9642 H   0  0  0  0  0  0  0  0  0  0  0  0
   -2.0659    2.0661    0.5437 H   0  0  0  0  0  0  0  0  0  0  0  0
   -4.0403    2.9662   -1.2652 H   0  0  0  0  0  0  0  0  0  0  0  0
   -4.9123    2.7097   -3.5747 H   0  0  0  0  0  0  0  0  0  0  0  0
   -3.7409    1.0708   -5.0492 H   0  0  0  0  0  0  0  0  0  0  0  0
   -1.8292   -0.2276   -4.2790 H   0  0  0  0  0  0  0  0  0  0  0  0
   -0.8383    1.6137    1.9880 H   0  0  0  0  0  0  0  0  0  0  0  0
    0.4813    1.4012    3.8110 H   0  0  0  0  0  0  0  0  0  0  0  0
    1.2986   -0.8130    4.9080 H   0  0  0  0  0  0  0  0  0  0  0  0
    3.3659   -2.0649    5.3920 H   0  0  0  0  0  0  0  0  0  0  0  0
    5.2423   -2.0695    3.8025 H   0  0  0  0  0  0  0  0  0  0  0  0
    4.9886   -0.7625    1.6854 H   0  0  0  0  0  0  0  0  0  0  0  0
    2.9661    0.5271    1.2651 H   0  0  0  0  0  0  0  0  0  0  0  0
  1  2  1  0
  2  3  1  0
  3  4  1  0
  4  5  2  0
  5  6  1  0
  6  7  2  0
  7  8  1  0
  8  9  2  0
  9 10  1  0
 10 11  2  0
  4 12  1  0
 12 13  2  0
 12 14  1  0
 14 15  2  0
 15 16  1  0
 16 17  2  0
 17 18  1  0
 18 19  2  0
 19 20  1  0
 20 21  2  0
 11  3  1  0
 21 16  1  0
 11  6  1  0
  1 22  1  0
  1 23  1  0
  1 24  1  0
  2 25  1  0
  2 26  1  0
  5 27  1  0
  7 28  1  0
  8 29  1  0
  9 30  1  0
 10 31  1  0
 14 32  1  0
 15 33  1  0
 17 34  1  0
 18 35  1  0
 19 36  1  0
 20 37  1  0
 21 38  1  0
M  END
$$$$
[H]c1nc(N([H])[C@@]([H])(c2c([H])c([H])c(C(F)(F)F)c([H])c2[H])C([H])([H])[H])nc(Oc2c([H])c([H])c([H])c([H])c2-c2c([H])c([H])c([H])c([H])c2[H])c1[H]
     RDKit          3D

 52 55  0  0  0  0  0  0  0  0999 V2000
    2.6138   -1.5843   -1.8985 C   0  0  0  0  0  0  0  0  0  0  0  0
    2.9781   -0.5689   -0.8731 C   0  0  1  0  0  0  0  0  0  0  0  0
    1.9656   -0.4630    0.1574 N   0  0  0  0  0  0  0  0  0  0  0  0
    0.6810    0.0447   -0.1848 C   0  0  0  0  0  0  0  0  0  0  0  0
    0.4023    0.3742   -1.4809 N   0  0  0  0  0  0  0  0  0  0  0  0
   -0.7229    0.9488   -1.8851 C   0  0  0  0  0  0  0  0  0  0  0  0
   -1.6849    1.2475   -0.9481 C   0  0  0  0  0  0  0  0  0  0  0  0
   -1.4438    0.9342    0.3854 C   0  0  0  0  0  0  0  0  0  0  0  0
   -2.4102    1.2537    1.3751 O   0  0  0  0  0  0  0  0  0  0  0  0
   -3.5708    1.8593    0.9203 C   0  0  0  0  0  0  0  0  0  0  0  0
   -3.6880    3.2658    1.0933 C   0  0  0  0  0  0  0  0  0  0  0  0
   -4.7804    3.9631    0.6815 C   0  0  0  0  0  0  0  0  0  0  0  0
   -5.8396    3.2947    0.0693 C   0  0  0  0  0  0  0  0  0  0  0  0
   -5.7427    1.9493   -0.0976 C   0  0  0  0  0  0  0  0  0  0  0  0
   -4.6051    1.2215    0.3315 C   0  0  0  0  0  0  0  0  0  0  0  0
   -4.6941   -0.2327    0.2124 C   0  0  0  0  0  0  0  0  0  0  0  0
   -4.5676   -1.1017    1.2818 C   0  0  0  0  0  0  0  0  0  0  0  0
   -4.7531   -2.4872    1.1680 C   0  0  0  0  0  0  0  0  0  0  0  0
   -5.0695   -3.0336   -0.0425 C   0  0  0  0  0  0  0  0  0  0  0  0
   -5.2002   -2.1908   -1.1352 C   0  0  0  0  0  0  0  0  0  0  0  0
   -5.0149   -0.8199   -1.0160 C   0  0  0  0  0  0  0  0  0  0  0  0
   -0.2696    0.3418    0.7122 N   0  0  0  0  0  0  0  0  0  0  0  0
    4.3493   -0.6472   -0.3899 C   0  0  0  0  0  0  0  0  0  0  0  0
    4.8217   -1.5961    0.4709 C   0  0  0  0  0  0  0  0  0  0  0  0
    6.1487   -1.5930    0.9289 C   0  0  0  0  0  0  0  0  0  0  0  0
    7.0307   -0.6118    0.5135 C   0  0  0  0  0  0  0  0  0  0  0  0
    6.5566    0.3431   -0.3579 C   0  0  0  0  0  0  0  0  0  0  0  0
    5.2554    0.3264   -0.7919 C   0  0  0  0  0  0  0  0  0  0  0  0
    8.4323   -0.5870    1.0000 C   0  0  0  0  0  0  0  0  0  0  0  0
    8.6097    0.5327    1.8212 F   0  0  0  0  0  0  0  0  0  0  0  0
    9.3653   -0.4138   -0.0260 F   0  0  0  0  0  0  0  0  0  0  0  0
    8.7510   -1.6980    1.6951 F   0  0  0  0  0  0  0  0  0  0  0  0
    1.6592   -2.1112   -1.6313 H   0  0  0  0  0  0  0  0  0  0  0  0
    3.4194   -2.3547   -1.9750 H   0  0  0  0  0  0  0  0  0  0  0  0
    2.4967   -1.1722   -2.9297 H   0  0  0  0  0  0  0  0  0  0  0  0
    2.8500    0.4515   -1.4331 H   0  0  0  0  0  0  0  0  0  0  0  0
    2.1333   -0.7459    1.1287 H   0  0  0  0  0  0  0  0  0  0  0  0
   -0.9420    1.2010   -2.9192 H   0  0  0  0  0  0  0  0  0  0  0  0
   -2.6116    1.7263   -1.2205 H   0  0  0  0  0  0  0  0  0  0  0  0
   -2.8635    3.7522    1.5849 H   0  0  0  0  0  0  0  0  0  0  0  0
   -4.8948    5.0369    0.8194 H   0  0  0  0  0  0  0  0  0  0  0  0
   -6.7361    3.8271   -0.2728 H   0  0  0  0  0  0  0  0  0  0  0  0
   -6.5357    1.3656   -0.5808 H   0  0  0  0  0  0  0  0  0  0  0  0
   -4.3083   -0.7284    2.2481 H   0  0  0  0  0  0  0  0  0  0  0  0
   -4.6504   -3.1357    2.0195 H   0  0  0  0  0  0  0  0  0  0  0  0
   -5.2373   -4.1255   -0.1309 H   0  0  0  0  0  0  0  0  0  0  0  0
   -5.4556   -2.6299   -2.0824 H   0  0  0  0  0  0  0  0  0  0  0  0
   -5.1124   -0.1390   -1.8701 H   0  0  0  0  0  0  0  0  0  0  0  0
    4.1445   -2.3534    0.8162 H   0  0  0  0  0  0  0  0  0  0  0  0
    6.5159   -2.3471    1.6151 H   0  0  0  0  0  0  0  0  0  0  0  0
    7.2790    1.0934   -0.6825 H   0  0  0  0  0  0  0  0  0  0  0  0
    4.9457    1.1173   -1.4892 H   0  0  0  0  0  0  0  0  0  0  0  0
  1  2  1  0
  2  3  1  0
  3  4  1  0
  4  5  2  0
  5  6  1  0
  6  7  2  0
  7  8  1  0
  8  9  1  0
  9 10  1  0
 10 11  2  0
 11 12  1  0
 12 13  2  0
 13 14  1  0
 14 15  2  0
 15 16  1  0
 16 17  2  0
 17 18  1  0
 18 19  2  0
 19 20  1  0
 20 21  2  0
  8 22  2  0
  2 23  1  0
 23 24  2  0
 24 25  1  0
 25 26  2  0
 26 27  1  0
 27 28  2  0
 26 29  1  0
 29 30  1  0
 29 31  1  0
 29 32  1  0
 22  4  1  0
 28 23  1  0
 15 10  1  0
 21 16  1  0
  1 33  1  0
  1 34  1  0
  1 35  1  0
  2 36  1  6
  3 37  1  0
  6 38  1  0
  7 39  1  0
 11 40  1  0
 12 41  1  0
 13 42  1  0
 14 43  1  0
 17 44  1  0
 18 45  1  0
 19 46  1  0
 20 47  1  0
 21 48  1  0
 24 49  1  0
 25 50  1  0
 27 51  1  0
 28 52  1  0
M  END
$$$$
[H]OC1(C(F)(F)F)c2c([H])c([H])c([H])c([H])c2-c2c(-c3c([H])nn(C([H])([H])[H])c3[H])c([H])c(OC([H])(C([H])([H])[H])C([H])([H])C([H])([H])[H])c([H])c21
     RDKit          3D

 50 53  0  0  0  0  0  0  0  0999 V2000
    5.7501   -1.8113   -0.3602 C   0  0  0  0  0  0  0  0  0  0  0  0
    4.9630   -0.5283   -0.4533 C   0  0  0  0  0  0  0  0  0  0  0  0
    3.8452   -0.5057    0.5863 C   0  0  0  0  0  0  0  0  0  0  0  0
    4.4509   -0.6153    1.9903 C   0  0  0  0  0  0  0  0  0  0  0  0
    3.0107    0.5774    0.4550 O   0  0  0  0  0  0  0  0  0  0  0  0
    1.6704    0.6517    0.1879 C   0  0  0  0  0  0  0  0  0  0  0  0
    1.0160    1.8664    0.0973 C   0  0  0  0  0  0  0  0  0  0  0  0
   -0.3407    1.9819   -0.1727 C   0  0  0  0  0  0  0  0  0  0  0  0
   -1.0705    0.8217   -0.3602 C   0  0  0  0  0  0  0  0  0  0  0  0
   -2.4645    1.2081   -0.6632 C   0  0  0  0  0  0  0  0  0  0  0  0
   -3.5828    0.4307   -0.9567 C   0  0  0  0  0  0  0  0  0  0  0  0
   -4.8010    1.0307   -1.2382 C   0  0  0  0  0  0  0  0  0  0  0  0
   -4.8653    2.3915   -1.2186 C   0  0  0  0  0  0  0  0  0  0  0  0
   -3.7728    3.1746   -0.9318 C   0  0  0  0  0  0  0  0  0  0  0  0
   -2.5330    2.5776   -0.6445 C   0  0  0  0  0  0  0  0  0  0  0  0
   -1.2409    3.1437   -0.3094 C   0  0  0  0  0  0  0  0  0  0  0  0
   -0.7031    3.9130   -1.3636 O   0  0  0  0  0  0  0  0  0  0  0  0
   -1.2594    3.9650    0.9646 C   0  0  0  0  0  0  0  0  0  0  0  0
   -1.6886    3.2184    2.0158 F   0  0  0  0  0  0  0  0  0  0  0  0
   -2.0260    5.0977    0.7745 F   0  0  0  0  0  0  0  0  0  0  0  0
    0.0260    4.3931    1.2092 F   0  0  0  0  0  0  0  0  0  0  0  0
   -0.4771   -0.4074   -0.2801 C   0  0  0  0  0  0  0  0  0  0  0  0
    0.9068   -0.4673   -0.0035 C   0  0  0  0  0  0  0  0  0  0  0  0
   -1.1377   -1.7012   -0.3938 C   0  0  0  0  0  0  0  0  0  0  0  0
   -1.1146   -2.4717   -1.5338 C   0  0  0  0  0  0  0  0  0  0  0  0
   -1.7625   -3.6236   -1.3081 N   0  0  0  0  0  0  0  0  0  0  0  0
   -2.1841   -3.5788   -0.0533 N   0  0  0  0  0  0  0  0  0  0  0  0
   -2.9379   -4.6961    0.5199 C   0  0  0  0  0  0  0  0  0  0  0  0
   -1.8302   -2.4326    0.5443 C   0  0  0  0  0  0  0  0  0  0  0  0
    5.0650   -2.6165   -0.0505 H   0  0  0  0  0  0  0  0  0  0  0  0
    6.5999   -1.7149    0.3478 H   0  0  0  0  0  0  0  0  0  0  0  0
    6.1911   -2.0948   -1.3507 H   0  0  0  0  0  0  0  0  0  0  0  0
    5.6222    0.3405   -0.3736 H   0  0  0  0  0  0  0  0  0  0  0  0
    4.4495   -0.4600   -1.4423 H   0  0  0  0  0  0  0  0  0  0  0  0
    3.2929   -1.4482    0.4436 H   0  0  0  0  0  0  0  0  0  0  0  0
    3.7160   -1.1033    2.6312 H   0  0  0  0  0  0  0  0  0  0  0  0
    5.3615   -1.2458    1.9108 H   0  0  0  0  0  0  0  0  0  0  0  0
    4.7530    0.3911    2.3585 H   0  0  0  0  0  0  0  0  0  0  0  0
    1.5905    2.7507    0.2411 H   0  0  0  0  0  0  0  0  0  0  0  0
   -3.5964   -0.6401   -1.0021 H   0  0  0  0  0  0  0  0  0  0  0  0
   -5.6805    0.4485   -1.4677 H   0  0  0  0  0  0  0  0  0  0  0  0
   -5.8063    2.8966   -1.4350 H   0  0  0  0  0  0  0  0  0  0  0  0
   -3.8049    4.2351   -0.9124 H   0  0  0  0  0  0  0  0  0  0  0  0
   -0.9490    3.5071   -2.2270 H   0  0  0  0  0  0  0  0  0  0  0  0
    1.3542   -1.4490    0.0532 H   0  0  0  0  0  0  0  0  0  0  0  0
   -0.6572   -2.2380   -2.5011 H   0  0  0  0  0  0  0  0  0  0  0  0
   -3.9711   -4.7289    0.1260 H   0  0  0  0  0  0  0  0  0  0  0  0
   -2.8964   -4.6455    1.6219 H   0  0  0  0  0  0  0  0  0  0  0  0
   -2.4486   -5.6698    0.2393 H   0  0  0  0  0  0  0  0  0  0  0  0
   -2.0319   -2.1187    1.5525 H   0  0  0  0  0  0  0  0  0  0  0  0
  1  2  1  0
  2  3  1  0
  3  4  1  0
  3  5  1  0
  5  6  1  0
  6  7  2  0
  7  8  1  0
  8  9  2  0
  9 10  1  0
 10 11  2  0
 11 12  1  0
 12 13  2  0
 13 14  1  0
 14 15  2  0
 15 16  1  0
 16 17  1  0
 16 18  1  0
 18 19  1  0
 18 20  1  0
 18 21  1  0
  9 22  1  0
 22 23  2  0
 22 24  1  0
 24 25  1  0
 25 26  2  0
 26 27  1  0
 27 28  1  0
 27 29  1  0
 23  6  1  0
 29 24  2  0
 16  8  1  0
 15 10  1  0
  1 30  1  0
  1 31  1  0
  1 32  1  0
  2 33  1  0
  2 34  1  0
  3 35  1  0
  4 36  1  0
  4 37  1  0
  4 38  1  0
  7 39  1  0
 11 40  1  0
 12 41  1  0
 13 42  1  0
 14 43  1  0
 17 44  1  0
 23 45  1  0
 25 46  1  0
 28 47  1  0
 28 48  1  0
 28 49  1  0
 29 50  1  0
M  END
$$$$
[H]c1c([H])c(OC([H])([H])[H])c(C([H])([H])[H])c(N([H])C(=O)c2c([H])c([H])c(Oc3c([H])c([H])c4c(c3[H])C([H])([H])[C@@]([H])(C(=O)OC([H])([H])[H])C4([H])[H])c([H])c2[H])c1[H]
     RDKit          3D

 57 60  0  0  0  0  0  0  0  0999 V2000
   10.1385   -0.7345    0.8894 C   0  0  0  0  0  0  0  0  0  0  0  0
    9.0990   -1.0849   -0.0365 O   0  0  0  0  0  0  0  0  0  0  0  0
    8.0908   -0.2256   -0.3728 C   0  0  0  0  0  0  0  0  0  0  0  0
    8.0649    0.9193    0.1444 O   0  0  0  0  0  0  0  0  0  0  0  0
    7.0008   -0.5830   -1.3389 C   0  0  1  0  0  0  0  0  0  0  0  0
    6.2995   -1.7936   -0.7393 C   0  0  0  0  0  0  0  0  0  0  0  0
    5.1758   -1.1774   -0.0029 C   0  0  0  0  0  0  0  0  0  0  0  0
    4.3235   -1.6995    0.9774 C   0  0  0  0  0  0  0  0  0  0  0  0
    3.3199   -0.9563    1.5531 C   0  0  0  0  0  0  0  0  0  0  0  0
    3.1233    0.3522    1.1706 C   0  0  0  0  0  0  0  0  0  0  0  0
    2.1083    1.1378    1.7385 O   0  0  0  0  0  0  0  0  0  0  0  0
    0.8239    1.1852    1.1852 C   0  0  0  0  0  0  0  0  0  0  0  0
   -0.1092    0.2755    1.6187 C   0  0  0  0  0  0  0  0  0  0  0  0
   -1.3882    0.3259    1.0650 C   0  0  0  0  0  0  0  0  0  0  0  0
   -1.7512    1.2405    0.1114 C   0  0  0  0  0  0  0  0  0  0  0  0
   -0.7859    2.1416   -0.3019 C   0  0  0  0  0  0  0  0  0  0  0  0
    0.4846    2.1162    0.2262 C   0  0  0  0  0  0  0  0  0  0  0  0
   -3.1129    1.3075   -0.4797 C   0  0  0  0  0  0  0  0  0  0  0  0
   -3.2405    2.0179   -1.5142 O   0  0  0  0  0  0  0  0  0  0  0  0
   -4.1943    0.6227    0.0783 N   0  0  0  0  0  0  0  0  0  0  0  0
   -5.5350    0.5607   -0.3276 C   0  0  0  0  0  0  0  0  0  0  0  0
   -6.0268    1.2106   -1.4179 C   0  0  0  0  0  0  0  0  0  0  0  0
   -7.3594    1.0971   -1.7500 C   0  0  0  0  0  0  0  0  0  0  0  0
   -8.2248    0.3346   -1.0021 C   0  0  0  0  0  0  0  0  0  0  0  0
   -7.7688   -0.3367    0.1050 C   0  0  0  0  0  0  0  0  0  0  0  0
   -8.6371   -1.1074    0.8632 O   0  0  0  0  0  0  0  0  0  0  0  0
   -9.9805   -1.1925    0.4875 C   0  0  0  0  0  0  0  0  0  0  0  0
   -6.4402   -0.2190    0.4299 C   0  0  0  0  0  0  0  0  0  0  0  0
   -5.9686   -0.9459    1.6221 C   0  0  0  0  0  0  0  0  0  0  0  0
    3.9501    0.8813    0.2100 C   0  0  0  0  0  0  0  0  0  0  0  0
    4.9700    0.1234   -0.3739 C   0  0  0  0  0  0  0  0  0  0  0  0
    5.9587    0.4895   -1.4088 C   0  0  0  0  0  0  0  0  0  0  0  0
    9.6637   -0.3328    1.8321 H   0  0  0  0  0  0  0  0  0  0  0  0
   10.6498   -1.6601    1.1673 H   0  0  0  0  0  0  0  0  0  0  0  0
   10.8368   -0.0058    0.4797 H   0  0  0  0  0  0  0  0  0  0  0  0
    7.4642   -0.7979   -2.3105 H   0  0  0  0  0  0  0  0  0  0  0  0
    5.9454   -2.4501   -1.5624 H   0  0  0  0  0  0  0  0  0  0  0  0
    6.9722   -2.3922   -0.0963 H   0  0  0  0  0  0  0  0  0  0  0  0
    4.5121   -2.7386    1.2522 H   0  0  0  0  0  0  0  0  0  0  0  0
    2.6824   -1.3796    2.3002 H   0  0  0  0  0  0  0  0  0  0  0  0
    0.1440   -0.4643    2.3741 H   0  0  0  0  0  0  0  0  0  0  0  0
   -2.1128   -0.4187    1.4298 H   0  0  0  0  0  0  0  0  0  0  0  0
   -1.0273    2.8933   -1.0631 H   0  0  0  0  0  0  0  0  0  0  0  0
    1.2661    2.8074   -0.0745 H   0  0  0  0  0  0  0  0  0  0  0  0
   -3.9622    0.0580    0.9583 H   0  0  0  0  0  0  0  0  0  0  0  0
   -5.4277    1.8149   -2.0427 H   0  0  0  0  0  0  0  0  0  0  0  0
   -7.7427    1.6197   -2.6223 H   0  0  0  0  0  0  0  0  0  0  0  0
   -9.2784    0.2296   -1.2434 H   0  0  0  0  0  0  0  0  0  0  0  0
  -10.6115   -1.7137    1.2359 H   0  0  0  0  0  0  0  0  0  0  0  0
  -10.4529   -0.1749    0.3742 H   0  0  0  0  0  0  0  0  0  0  0  0
  -10.0616   -1.6599   -0.5259 H   0  0  0  0  0  0  0  0  0  0  0  0
   -5.4400   -0.2409    2.3274 H   0  0  0  0  0  0  0  0  0  0  0  0
   -5.2585   -1.7418    1.3664 H   0  0  0  0  0  0  0  0  0  0  0  0
   -6.7935   -1.3700    2.2175 H   0  0  0  0  0  0  0  0  0  0  0  0
    3.8154    1.9188   -0.1121 H   0  0  0  0  0  0  0  0  0  0  0  0
    5.4585    0.4034   -2.3983 H   0  0  0  0  0  0  0  0  0  0  0  0
    6.3503    1.5130   -1.3027 H   0  0  0  0  0  0  0  0  0  0  0  0
  1  2  1  0
  2  3  1  0
  3  4  2  0
  3  5  1  0
  5  6  1  0
  6  7  1  0
  7  8  2  0
  8  9  1  0
  9 10  2  0
 10 11  1  0
 11 12  1  0
 12 13  2  0
 13 14  1  0
 14 15  2  0
 15 16  1  0
 16 17  2  0
 15 18  1  0
 18 19  2  0
 18 20  1  0
 20 21  1  0
 21 22  2  0
 22 23  1  0
 23 24  2  0
 24 25  1  0
 25 26  1  0
 26 27  1  0
 25 28  2  0
 28 29  1  0
 10 30  1  0
 30 31  2  0
 31 32  1  0
 32  5  1  0
 31  7  1  0
 17 12  1  0
 28 21  1  0
  1 33  1  0
  1 34  1  0
  1 35  1  0
  5 36  1  6
  6 37  1  0
  6 38  1  0
  8 39  1  0
  9 40  1  0
 13 41  1  0
 14 42  1  0
 16 43  1  0
 17 44  1  0
 20 45  1  0
 22 46  1  0
 23 47  1  0
 24 48  1  0
 27 49  1  0
 27 50  1  0
 27 51  1  0
 29 52  1  0
 29 53  1  0
 29 54  1  0
 30 55  1  0
 32 56  1  0
 32 57  1  0
M  END
$$$$
[H]Oc1c([H])c([H])c(-c2oc3c([H])c(OC([H])([H])[H])c(Br)c(C([H])([H])C([H])(C(=O)OC([H])([H])C([H])([H])[H])N([H])[H])c3c(=O)c2[H])c([H])c1[H]
     RDKit          3D

 49 51  0  0  0  0  0  0  0  0999 V2000
    5.8775    2.6046    1.6054 C   0  0  0  0  0  0  0  0  0  0  0  0
    5.8558    1.7696    0.3370 C   0  0  0  0  0  0  0  0  0  0  0  0
    4.8764    0.7397    0.4492 O   0  0  0  0  0  0  0  0  0  0  0  0
    4.6240   -0.1684   -0.5359 C   0  0  0  0  0  0  0  0  0  0  0  0
    5.2498   -0.1413   -1.6037 O   0  0  0  0  0  0  0  0  0  0  0  0
    3.5459   -1.2598   -0.3454 C   0  0  0  0  0  0  0  0  0  0  0  0
    3.6008   -1.9673   -1.6215 N   0  0  0  0  0  0  0  0  0  0  0  0
    2.2357   -0.5407   -0.1397 C   0  0  0  0  0  0  0  0  0  0  0  0
    1.0005   -1.2459    0.0697 C   0  0  0  0  0  0  0  0  0  0  0  0
    0.8504   -2.5839    0.3739 C   0  0  0  0  0  0  0  0  0  0  0  0
    2.3466   -3.6853    0.6908 Br  0  0  0  0  0  0  0  0  0  0  0  0
   -0.3898   -3.1994    0.5119 C   0  0  0  0  0  0  0  0  0  0  0  0
   -0.3991   -4.5396    0.8146 O   0  0  0  0  0  0  0  0  0  0  0  0
   -1.5198   -5.3414    0.9949 C   0  0  0  0  0  0  0  0  0  0  0  0
   -1.5120   -2.4335    0.3381 C   0  0  0  0  0  0  0  0  0  0  0  0
   -1.4092   -1.0925    0.0367 C   0  0  0  0  0  0  0  0  0  0  0  0
   -2.5234   -0.4158   -0.1116 O   0  0  0  0  0  0  0  0  0  0  0  0
   -2.5322    0.8681   -0.3934 C   0  0  0  0  0  0  0  0  0  0  0  0
   -1.3511    1.5510   -0.5432 C   0  0  0  0  0  0  0  0  0  0  0  0
   -0.1226    0.8768   -0.3965 C   0  0  0  0  0  0  0  0  0  0  0  0
    0.9354    1.5104   -0.5311 O   0  0  0  0  0  0  0  0  0  0  0  0
   -0.1753   -0.4543   -0.1069 C   0  0  0  0  0  0  0  0  0  0  0  0
   -3.8177    1.5703   -0.5480 C   0  0  0  0  0  0  0  0  0  0  0  0
   -3.9306    2.9019   -0.8248 C   0  0  0  0  0  0  0  0  0  0  0  0
   -5.1573    3.5306   -0.9665 C   0  0  0  0  0  0  0  0  0  0  0  0
   -6.3161    2.8101   -0.8283 C   0  0  0  0  0  0  0  0  0  0  0  0
   -7.5384    3.4543   -0.9732 O   0  0  0  0  0  0  0  0  0  0  0  0
   -6.2333    1.4454   -0.5451 C   0  0  0  0  0  0  0  0  0  0  0  0
   -4.9984    0.8502   -0.4101 C   0  0  0  0  0  0  0  0  0  0  0  0
    6.3028    3.5903    1.3435 H   0  0  0  0  0  0  0  0  0  0  0  0
    4.8112    2.7365    1.9092 H   0  0  0  0  0  0  0  0  0  0  0  0
    6.4985    2.1508    2.3896 H   0  0  0  0  0  0  0  0  0  0  0  0
    5.7079    2.3775   -0.5753 H   0  0  0  0  0  0  0  0  0  0  0  0
    6.8809    1.3089    0.2664 H   0  0  0  0  0  0  0  0  0  0  0  0
    3.9570   -1.7823    0.5062 H   0  0  0  0  0  0  0  0  0  0  0  0
    3.1637   -1.3245   -2.3178 H   0  0  0  0  0  0  0  0  0  0  0  0
    4.5750   -2.2225   -1.8088 H   0  0  0  0  0  0  0  0  0  0  0  0
    2.1696   -0.0721   -1.2023 H   0  0  0  0  0  0  0  0  0  0  0  0
    2.4783    0.2318    0.6231 H   0  0  0  0  0  0  0  0  0  0  0  0
   -1.1871   -6.4159    1.0066 H   0  0  0  0  0  0  0  0  0  0  0  0
   -2.1771   -5.2414    0.1054 H   0  0  0  0  0  0  0  0  0  0  0  0
   -2.1365   -5.0955    1.8738 H   0  0  0  0  0  0  0  0  0  0  0  0
   -2.4873   -2.9187    0.4455 H   0  0  0  0  0  0  0  0  0  0  0  0
   -1.2783    2.5931   -0.7710 H   0  0  0  0  0  0  0  0  0  0  0  0
   -3.0576    3.5069   -0.9414 H   0  0  0  0  0  0  0  0  0  0  0  0
   -5.2041    4.5820   -1.1843 H   0  0  0  0  0  0  0  0  0  0  0  0
   -8.0295    3.8859   -0.1749 H   0  0  0  0  0  0  0  0  0  0  0  0
   -7.1574    0.9002   -0.4415 H   0  0  0  0  0  0  0  0  0  0  0  0
   -4.9025   -0.2048   -0.1910 H   0  0  0  0  0  0  0  0  0  0  0  0
  1  2  1  0
  2  3  1  0
  3  4  1  0
  4  5  2  0
  4  6  1  0
  6  7  1  0
  6  8  1  0
  8  9  1  0
  9 10  2  0
 10 11  1  0
 10 12  1  0
 12 13  1  0
 13 14  1  0
 12 15  2  0
 15 16  1  0
 16 17  1  0
 17 18  1  0
 18 19  2  0
 19 20  1  0
 20 21  2  0
 20 22  1  0
 18 23  1  0
 23 24  2  0
 24 25  1  0
 25 26  2  0
 26 27  1  0
 26 28  1  0
 28 29  2  0
 22  9  1  0
 29 23  1  0
 22 16  2  0
  1 30  1  0
  1 31  1  0
  1 32  1  0
  2 33  1  0
  2 34  1  0
  6 35  1  0
  7 36  1  0
  7 37  1  0
  8 38  1  0
  8 39  1  0
 14 40  1  0
 14 41  1  0
 14 42  1  0
 15 43  1  0
 19 44  1  0
 24 45  1  0
 25 46  1  0
 27 47  1  0
 28 48  1  0
 29 49  1  0
M  END
$$$$
[H]c1c([H])c([H])c(C([H])(C(=O)N([H])[C@]([H])(C(=O)N([H])[C@]([H])(C(=O)N([H])[C@]([H])(C(=O)[C@]2(C([H])([H])[H])OC2([H])[H])C([H])([H])c2c([H])c([H])c([H])c([H])c2[H])C([H])([H])OC([H])([H])[H])C([H])([H])OC([H])([H])[H])c2c([H])c([H])c([H])c([H])c2[H])c([H])c1[H]
     RDKit          3D

 83 86  0  0  0  0  0  0  0  0999 V2000
    0.4462   -3.4151    3.9739 C   0  0  0  0  0  0  0  0  0  0  0  0
    1.0672   -4.0601    2.9249 O   0  0  0  0  0  0  0  0  0  0  0  0
    1.8074   -3.2255    2.1128 C   0  0  0  0  0  0  0  0  0  0  0  0
    1.0430   -2.1360    1.4542 C   0  0  2  0  0  0  0  0  0  0  0  0
   -0.0408   -2.6484    0.5896 N   0  0  0  0  0  0  0  0  0  0  0  0
   -1.2857   -1.9889    0.5885 C   0  0  0  0  0  0  0  0  0  0  0  0
   -1.3979   -0.9679    1.3520 O   0  0  0  0  0  0  0  0  0  0  0  0
   -2.4749   -2.3539   -0.2085 C   0  0  2  0  0  0  0  0  0  0  0  0
   -2.2002   -3.2119   -1.3949 C   0  0  0  0  0  0  0  0  0  0  0  0
   -1.6527   -4.4318   -1.0354 O   0  0  0  0  0  0  0  0  0  0  0  0
   -1.4141   -5.1813   -2.1715 C   0  0  0  0  0  0  0  0  0  0  0  0
   -3.1054   -1.0894   -0.5963 N   0  0  0  0  0  0  0  0  0  0  0  0
   -4.4070   -0.6903   -0.2181 C   0  0  0  0  0  0  0  0  0  0  0  0
   -5.0520   -1.4936    0.5028 O   0  0  0  0  0  0  0  0  0  0  0  0
   -4.9602    0.6334   -0.6729 C   0  0  0  0  0  0  0  0  0  0  0  0
   -4.1300    1.7552   -0.2137 C   0  0  0  0  0  0  0  0  0  0  0  0
   -3.6950    1.8519    1.0904 C   0  0  0  0  0  0  0  0  0  0  0  0
   -2.9133    2.9137    1.4879 C   0  0  0  0  0  0  0  0  0  0  0  0
   -2.5401    3.9056    0.6151 C   0  0  0  0  0  0  0  0  0  0  0  0
   -2.9614    3.8322   -0.6917 C   0  0  0  0  0  0  0  0  0  0  0  0
   -3.7400    2.7656   -1.0676 C   0  0  0  0  0  0  0  0  0  0  0  0
   -6.4007    0.7735   -0.4190 C   0  0  0  0  0  0  0  0  0  0  0  0
   -6.9999    0.5097    0.7863 C   0  0  0  0  0  0  0  0  0  0  0  0
   -8.3562    0.6677    0.9202 C   0  0  0  0  0  0  0  0  0  0  0  0
   -9.1474    1.0834   -0.1134 C   0  0  0  0  0  0  0  0  0  0  0  0
   -8.5566    1.3544   -1.3386 C   0  0  0  0  0  0  0  0  0  0  0  0
   -7.2081    1.1946   -1.4618 C   0  0  0  0  0  0  0  0  0  0  0  0
    1.9882   -1.3427    0.5976 C   0  0  0  0  0  0  0  0  0  0  0  0
    1.7423   -1.2816   -0.6347 O   0  0  0  0  0  0  0  0  0  0  0  0
    3.1065   -0.6815    1.1116 N   0  0  0  0  0  0  0  0  0  0  0  0
    3.9883    0.0911    0.1862 C   0  0  1  0  0  0  0  0  0  0  0  0
    3.6703    1.5267    0.5701 C   0  0  0  0  0  0  0  0  0  0  0  0
    4.3485    2.5854   -0.1372 C   0  0  0  0  0  0  0  0  0  0  0  0
    3.8160    3.0899   -1.3325 C   0  0  0  0  0  0  0  0  0  0  0  0
    4.4334    4.1232   -1.9939 C   0  0  0  0  0  0  0  0  0  0  0  0
    5.5991    4.7004   -1.5050 C   0  0  0  0  0  0  0  0  0  0  0  0
    6.1227    4.2144   -0.3428 C   0  0  0  0  0  0  0  0  0  0  0  0
    5.5172    3.1767    0.3369 C   0  0  0  0  0  0  0  0  0  0  0  0
    5.3705   -0.3055    0.3933 C   0  0  0  0  0  0  0  0  0  0  0  0
    5.6802   -0.9057    1.4338 O   0  0  0  0  0  0  0  0  0  0  0  0
    6.4624   -0.0472   -0.5665 C   0  0  1  0  0  0  0  0  0  0  0  0
    7.8476    0.0924    0.0663 C   0  0  0  0  0  0  0  0  0  0  0  0
    6.5025   -0.8938   -1.8121 C   0  0  0  0  0  0  0  0  0  0  0  0
    6.2092    0.4438   -1.8135 O   0  0  0  0  0  0  0  0  0  0  0  0
   -0.2536   -2.6433    3.6485 H   0  0  0  0  0  0  0  0  0  0  0  0
   -0.1118   -4.1660    4.5999 H   0  0  0  0  0  0  0  0  0  0  0  0
    1.2448   -2.9823    4.6281 H   0  0  0  0  0  0  0  0  0  0  0  0
    2.3789   -3.8607    1.3962 H   0  0  0  0  0  0  0  0  0  0  0  0
    2.5781   -2.7453    2.7589 H   0  0  0  0  0  0  0  0  0  0  0  0
    0.6201   -1.4187    2.1812 H   0  0  0  0  0  0  0  0  0  0  0  0
    0.2104   -3.4762    0.0338 H   0  0  0  0  0  0  0  0  0  0  0  0
   -3.2199   -2.8665    0.4637 H   0  0  0  0  0  0  0  0  0  0  0  0
   -1.4275   -2.7063   -2.0192 H   0  0  0  0  0  0  0  0  0  0  0  0
   -3.0749   -3.4113   -2.0193 H   0  0  0  0  0  0  0  0  0  0  0  0
   -0.6966   -4.5979   -2.8009 H   0  0  0  0  0  0  0  0  0  0  0  0
   -0.9550   -6.1257   -1.8684 H   0  0  0  0  0  0  0  0  0  0  0  0
   -2.3315   -5.3402   -2.7500 H   0  0  0  0  0  0  0  0  0  0  0  0
   -2.5405   -0.4564   -1.1883 H   0  0  0  0  0  0  0  0  0  0  0  0
   -4.8282    0.5873   -1.7996 H   0  0  0  0  0  0  0  0  0  0  0  0
   -3.9877    1.0748    1.7739 H   0  0  0  0  0  0  0  0  0  0  0  0
   -2.5732    2.9884    2.5090 H   0  0  0  0  0  0  0  0  0  0  0  0
   -1.9160    4.7477    0.9469 H   0  0  0  0  0  0  0  0  0  0  0  0
   -2.6777    4.6119   -1.4113 H   0  0  0  0  0  0  0  0  0  0  0  0
   -4.0505    2.7473   -2.1079 H   0  0  0  0  0  0  0  0  0  0  0  0
   -6.4011    0.1832    1.6275 H   0  0  0  0  0  0  0  0  0  0  0  0
   -8.8553    0.4638    1.8674 H   0  0  0  0  0  0  0  0  0  0  0  0
  -10.2305    1.2220   -0.0470 H   0  0  0  0  0  0  0  0  0  0  0  0
   -9.1369    1.6853   -2.1840 H   0  0  0  0  0  0  0  0  0  0  0  0
   -6.7740    1.4190   -2.4514 H   0  0  0  0  0  0  0  0  0  0  0  0
    3.3471   -0.7065    2.1104 H   0  0  0  0  0  0  0  0  0  0  0  0
    3.6488   -0.0491   -0.8527 H   0  0  0  0  0  0  0  0  0  0  0  0
    2.5486    1.6267    0.4689 H   0  0  0  0  0  0  0  0  0  0  0  0
    3.8430    1.6331    1.6749 H   0  0  0  0  0  0  0  0  0  0  0  0
    2.9034    2.6358   -1.7118 H   0  0  0  0  0  0  0  0  0  0  0  0
    4.0475    4.5328   -2.9166 H   0  0  0  0  0  0  0  0  0  0  0  0
    6.0571    5.5114   -2.0516 H   0  0  0  0  0  0  0  0  0  0  0  0
    7.0286    4.6567    0.0437 H   0  0  0  0  0  0  0  0  0  0  0  0
    5.9176    2.7787    1.2587 H   0  0  0  0  0  0  0  0  0  0  0  0
    7.7286    0.8493    0.8752 H   0  0  0  0  0  0  0  0  0  0  0  0
    8.1033   -0.8921    0.4878 H   0  0  0  0  0  0  0  0  0  0  0  0
    8.5482    0.3769   -0.7229 H   0  0  0  0  0  0  0  0  0  0  0  0
    5.6784   -1.6378   -1.8956 H   0  0  0  0  0  0  0  0  0  0  0  0
    7.4809   -1.1823   -2.2154 H   0  0  0  0  0  0  0  0  0  0  0  0
  1  2  1  0
  2  3  1  0
  3  4  1  0
  4  5  1  0
  5  6  1  0
  6  7  2  0
  6  8  1  0
  8  9  1  0
  9 10  1  0
 10 11  1  0
  8 12  1  0
 12 13  1  0
 13 14  2  0
 13 15  1  0
 15 16  1  0
 16 17  2  0
 17 18  1  0
 18 19  2  0
 19 20  1  0
 20 21  2  0
 15 22  1  0
 22 23  2  0
 23 24  1  0
 24 25  2  0
 25 26  1  0
 26 27  2  0
  4 28  1  0
 28 29  2  0
 28 30  1  0
 30 31  1  0
 31 32  1  0
 32 33  1  0
 33 34  2  0
 34 35  1  0
 35 36  2  0
 36 37  1  0
 37 38  2  0
 31 39  1  0
 39 40  2  0
 41 39  1  1
 41 42  1  0
 41 43  1  0
 43 44  1  0
 21 16  1  0
 27 22  1  0
 38 33  1  0
 44 41  1  0
  1 45  1  0
  1 46  1  0
  1 47  1  0
  3 48  1  0
  3 49  1  0
  4 50  1  1
  5 51  1  0
  8 52  1  1
  9 53  1  0
  9 54  1  0
 11 55  1  0
 11 56  1  0
 11 57  1  0
 12 58  1  0
 15 59  1  0
 17 60  1  0
 18 61  1  0
 19 62  1  0
 20 63  1  0
 21 64  1  0
 23 65  1  0
 24 66  1  0
 25 67  1  0
 26 68  1  0
 27 69  1  0
 30 70  1  0
 31 71  1  6
 32 72  1  0
 32 73  1  0
 34 74  1  0
 35 75  1  0
 36 76  1  0
 37 77  1  0
 38 78  1  0
 42 79  1  0
 42 80  1  0
 42 81  1  0
 43 82  1  0
 43 83  1  0
M  END
$$$$
[H]OC([H])([H])c1c([H])c([H])c(OC([H])([H])[H])c(-c2c(C([H])(C([H])([H])[H])C([H])([H])[H])c3c([H])c(C4([H])C([H])([H])C([H])([H])N(C([H])([H])C(=O)N(C([H])([H])C([H])([H])[H])C([H])([H])C([H])([H])[H])C([H])([H])C4([H])[H])c([H])c([H])c3n2[H])c1OC([H])([H])[H]
     RDKit          3D

 81 84  0  0  0  0  0  0  0  0999 V2000
   -8.6000    0.0162    2.4376 C   0  0  0  0  0  0  0  0  0  0  0  0
   -8.4824   -0.8141    1.1873 C   0  0  0  0  0  0  0  0  0  0  0  0
   -7.7385   -0.1869    0.1156 N   0  0  0  0  0  0  0  0  0  0  0  0
   -8.5232    0.6823   -0.7811 C   0  0  0  0  0  0  0  0  0  0  0  0
   -8.4749    2.1331   -0.3978 C   0  0  0  0  0  0  0  0  0  0  0  0
   -6.3924   -0.4309   -0.1057 C   0  0  0  0  0  0  0  0  0  0  0  0
   -5.8248   -1.2975    0.6480 O   0  0  0  0  0  0  0  0  0  0  0  0
   -5.5609    0.2238   -1.1399 C   0  0  0  0  0  0  0  0  0  0  0  0
   -4.2129   -0.2218   -1.1753 N   0  0  0  0  0  0  0  0  0  0  0  0
   -3.4365    0.1085   -0.0674 C   0  0  0  0  0  0  0  0  0  0  0  0
   -2.0501   -0.4817   -0.0907 C   0  0  0  0  0  0  0  0  0  0  0  0
   -1.7687   -0.7440   -1.6043 C   0  0  0  0  0  0  0  0  0  0  0  0
   -2.5747   -1.9294   -1.9377 C   0  0  0  0  0  0  0  0  0  0  0  0
   -4.0544   -1.4241   -1.8791 C   0  0  0  0  0  0  0  0  0  0  0  0
   -0.3530   -0.6129   -1.8502 C   0  0  0  0  0  0  0  0  0  0  0  0
    0.0615    0.2050   -2.8991 C   0  0  0  0  0  0  0  0  0  0  0  0
    1.3600    0.6413   -3.0548 C   0  0  0  0  0  0  0  0  0  0  0  0
    2.2879    0.2233   -2.1066 C   0  0  0  0  0  0  0  0  0  0  0  0
    3.5540    0.6631   -1.8602 N   0  0  0  0  0  0  0  0  0  0  0  0
    3.9944    0.1676   -0.7095 C   0  0  0  0  0  0  0  0  0  0  0  0
    3.0330   -0.6258   -0.1839 C   0  0  0  0  0  0  0  0  0  0  0  0
    2.9720   -1.2529    1.1200 C   0  0  0  0  0  0  0  0  0  0  0  0
    2.8005   -2.7539    1.0727 C   0  0  0  0  0  0  0  0  0  0  0  0
    3.6750   -0.7188    2.2917 C   0  0  0  0  0  0  0  0  0  0  0  0
    1.9381   -0.5778   -1.0731 C   0  0  0  0  0  0  0  0  0  0  0  0
    0.6327   -1.0150   -0.9194 C   0  0  0  0  0  0  0  0  0  0  0  0
    5.2187    0.5914   -0.0174 C   0  0  0  0  0  0  0  0  0  0  0  0
    5.1126    1.9759    0.4513 C   0  0  0  0  0  0  0  0  0  0  0  0
    3.9172    2.5379    0.2253 O   0  0  0  0  0  0  0  0  0  0  0  0
    3.2311    3.6442    0.4448 C   0  0  0  0  0  0  0  0  0  0  0  0
    6.2004    2.5196    1.0502 C   0  0  0  0  0  0  0  0  0  0  0  0
    7.3895    1.8493    1.2441 C   0  0  0  0  0  0  0  0  0  0  0  0
    7.4752    0.5266    0.7993 C   0  0  0  0  0  0  0  0  0  0  0  0
    8.6057   -0.3546    1.1778 C   0  0  0  0  0  0  0  0  0  0  0  0
    9.7888   -0.1724    0.4830 O   0  0  0  0  0  0  0  0  0  0  0  0
    6.3568   -0.0291    0.1815 C   0  0  0  0  0  0  0  0  0  0  0  0
    6.5215   -1.3713   -0.2711 O   0  0  0  0  0  0  0  0  0  0  0  0
    7.1060   -1.4493   -1.6131 C   0  0  0  0  0  0  0  0  0  0  0  0
   -8.1428    1.0116    2.2809 H   0  0  0  0  0  0  0  0  0  0  0  0
   -9.6909    0.2421    2.6856 H   0  0  0  0  0  0  0  0  0  0  0  0
   -8.1459   -0.4990    3.3155 H   0  0  0  0  0  0  0  0  0  0  0  0
   -9.4405   -1.1827    0.8393 H   0  0  0  0  0  0  0  0  0  0  0  0
   -7.8035   -1.7226    1.4987 H   0  0  0  0  0  0  0  0  0  0  0  0
   -8.2273    0.5827   -1.8475 H   0  0  0  0  0  0  0  0  0  0  0  0
   -9.6141    0.3409   -0.7665 H   0  0  0  0  0  0  0  0  0  0  0  0
   -9.4442    2.6630   -0.4791 H   0  0  0  0  0  0  0  0  0  0  0  0
   -8.0472    2.3732    0.5718 H   0  0  0  0  0  0  0  0  0  0  0  0
   -7.8241    2.6822   -1.1564 H   0  0  0  0  0  0  0  0  0  0  0  0
   -6.0685    0.0854   -2.1531 H   0  0  0  0  0  0  0  0  0  0  0  0
   -5.5768    1.3291   -0.9530 H   0  0  0  0  0  0  0  0  0  0  0  0
   -3.2433    1.2422   -0.1163 H   0  0  0  0  0  0  0  0  0  0  0  0
   -3.8620   -0.0354    0.9070 H   0  0  0  0  0  0  0  0  0  0  0  0
   -1.2702    0.0560    0.4020 H   0  0  0  0  0  0  0  0  0  0  0  0
   -2.1043   -1.4959    0.3386 H   0  0  0  0  0  0  0  0  0  0  0  0
   -2.3195    0.1425   -2.0806 H   0  0  0  0  0  0  0  0  0  0  0  0
   -2.5190   -2.6307   -1.0419 H   0  0  0  0  0  0  0  0  0  0  0  0
   -2.3612   -2.4431   -2.8677 H   0  0  0  0  0  0  0  0  0  0  0  0
   -4.6766   -2.2916   -1.6031 H   0  0  0  0  0  0  0  0  0  0  0  0
   -4.2910   -1.2239   -2.9801 H   0  0  0  0  0  0  0  0  0  0  0  0
   -0.7383    0.4725   -3.6149 H   0  0  0  0  0  0  0  0  0  0  0  0
    1.6740    1.2432   -3.8930 H   0  0  0  0  0  0  0  0  0  0  0  0
    4.0888    1.2979   -2.5555 H   0  0  0  0  0  0  0  0  0  0  0  0
    1.7939   -0.9782    1.4711 H   0  0  0  0  0  0  0  0  0  0  0  0
    3.5804   -3.2510    1.7093 H   0  0  0  0  0  0  0  0  0  0  0  0
    3.0960   -3.1199    0.0290 H   0  0  0  0  0  0  0  0  0  0  0  0
    1.7945   -3.1478    1.2308 H   0  0  0  0  0  0  0  0  0  0  0  0
    3.4009    0.3759    2.4125 H   0  0  0  0  0  0  0  0  0  0  0  0
    3.1308   -1.1773    3.2274 H   0  0  0  0  0  0  0  0  0  0  0  0
    4.6975   -0.9711    2.4964 H   0  0  0  0  0  0  0  0  0  0  0  0
    0.3758   -1.6344   -0.0854 H   0  0  0  0  0  0  0  0  0  0  0  0
    2.5398    3.8865   -0.3609 H   0  0  0  0  0  0  0  0  0  0  0  0
    2.5795    3.6197    1.3883 H   0  0  0  0  0  0  0  0  0  0  0  0
    3.8706    4.5361    0.6293 H   0  0  0  0  0  0  0  0  0  0  0  0
    6.1377    3.5760    1.3812 H   0  0  0  0  0  0  0  0  0  0  0  0
    8.1967    2.3345    1.7370 H   0  0  0  0  0  0  0  0  0  0  0  0
    8.9359    0.2331    2.2320 H   0  0  0  0  0  0  0  0  0  0  0  0
    8.2987   -1.2640    1.6183 H   0  0  0  0  0  0  0  0  0  0  0  0
   10.2905   -1.0218    0.3692 H   0  0  0  0  0  0  0  0  0  0  0  0
    7.6576   -0.5322   -1.8198 H   0  0  0  0  0  0  0  0  0  0  0  0
    6.2683   -1.6364   -2.2509 H   0  0  0  0  0  0  0  0  0  0  0  0
    7.8178   -2.3121   -1.5613 H   0  0  0  0  0  0  0  0  0  0  0  0
  1  2  1  0
  2  3  1  0
  3  4  1  0
  4  5  1  0
  3  6  1  0
  6  7  2  0
  6  8  1  0
  8  9  1  0
  9 10  1  0
 10 11  1  0
 11 12  1  0
 12 13  1  0
 13 14  1  0
 12 15  1  0
 15 16  2  0
 16 17  1  0
 17 18  2  0
 18 19  1  0
 19 20  1  0
 20 21  2  0
 21 22  1  0
 22 23  1  0
 22 24  1  0
 21 25  1  0
 25 26  2  0
 20 27  1  0
 27 28  2  0
 28 29  1  0
 29 30  1  0
 28 31  1  0
 31 32  2  0
 32 33  1  0
 33 34  1  0
 34 35  1  0
 33 36  2  0
 36 37  1  0
 37 38  1  0
 14  9  1  0
 26 15  1  0
 36 27  1  0
 25 18  1  0
  1 39  1  0
  1 40  1  0
  1 41  1  0
  2 42  1  0
  2 43  1  0
  4 44  1  0
  4 45  1  0
  5 46  1  0
  5 47  1  0
  5 48  1  0
  8 49  1  0
  8 50  1  0
 10 51  1  0
 10 52  1  0
 11 53  1  0
 11 54  1  0
 12 55  1  0
 13 56  1  0
 13 57  1  0
 14 58  1  0
 14 59  1  0
 16 60  1  0
 17 61  1  0
 19 62  1  0
 22 63  1  0
 23 64  1  0
 23 65  1  0
 23 66  1  0
 24 67  1  0
 24 68  1  0
 24 69  1  0
 26 70  1  0
 30 71  1  0
 30 72  1  0
 30 73  1  0
 31 74  1  0
 32 75  1  0
 34 76  1  0
 34 77  1  0
 35 78  1  0
 38 79  1  0
 38 80  1  0
 38 81  1  0
M  END
$$$$
[H]OC(c1c([H])c(/C(=C(\[H])OC([H])([H])C([H])([H])C([H])([H])C([H])([H])Br)C([H])([H])C([H])([H])[H])c([H])c(C([H])(C([H])([H])[H])C([H])([H])[H])c1[H])(C([H])(C([H])([H])[H])C([H])([H])[H])C([H])(C([H])([H])[H])C([H])([H])[H]
     RDKit          3D

 66 66  0  0  0  0  0  0  0  0999 V2000
    2.9254   -2.2215    0.3959 C   0  0  0  0  0  0  0  0  0  0  0  0
    2.7309   -1.7242   -1.0096 C   0  0  0  0  0  0  0  0  0  0  0  0
    1.8285   -0.5429   -0.9956 C   0  0  0  0  0  0  0  0  0  0  0  0
    2.3334    0.6028   -1.3400 C   0  0  0  0  0  0  0  0  0  0  0  0
    3.6507    0.7718   -1.7127 O   0  0  0  0  0  0  0  0  0  0  0  0
    4.7544    0.8801   -0.8724 C   0  0  0  0  0  0  0  0  0  0  0  0
    4.6207    2.0544    0.0764 C   0  0  0  0  0  0  0  0  0  0  0  0
    5.8197    2.1735    0.9818 C   0  0  0  0  0  0  0  0  0  0  0  0
    7.0993    2.3939    0.2085 C   0  0  0  0  0  0  0  0  0  0  0  0
    7.0268    4.0222   -0.8353 Br  0  0  0  0  0  0  0  0  0  0  0  0
    0.4341   -0.7425   -0.6003 C   0  0  0  0  0  0  0  0  0  0  0  0
   -0.0995   -1.9860   -0.2999 C   0  0  0  0  0  0  0  0  0  0  0  0
   -1.4099   -2.1908    0.0934 C   0  0  0  0  0  0  0  0  0  0  0  0
   -2.2464   -1.0695    0.1918 C   0  0  0  0  0  0  0  0  0  0  0  0
   -1.7681    0.1805   -0.0953 C   0  0  0  0  0  0  0  0  0  0  0  0
   -0.4563    0.3168   -0.4801 C   0  0  0  0  0  0  0  0  0  0  0  0
   -2.7092    1.3753    0.0194 C   0  0  0  0  0  0  0  0  0  0  0  0
   -1.8377    2.4888    0.0995 O   0  0  0  0  0  0  0  0  0  0  0  0
   -3.4421    1.4867   -1.2472 C   0  0  0  0  0  0  0  0  0  0  0  0
   -4.4132    2.6155   -1.3924 C   0  0  0  0  0  0  0  0  0  0  0  0
   -4.1533    0.2470   -1.7143 C   0  0  0  0  0  0  0  0  0  0  0  0
   -3.4229    1.3003    1.3076 C   0  0  0  0  0  0  0  0  0  0  0  0
   -4.3647    2.4236    1.5854 C   0  0  0  0  0  0  0  0  0  0  0  0
   -2.3359    1.4205    2.4016 C   0  0  0  0  0  0  0  0  0  0  0  0
   -1.8940   -3.5578    0.3974 C   0  0  0  0  0  0  0  0  0  0  0  0
   -0.9941   -4.3001    1.3551 C   0  0  0  0  0  0  0  0  0  0  0  0
   -1.8519   -4.3350   -0.9253 C   0  0  0  0  0  0  0  0  0  0  0  0
    3.9692   -1.9795    0.7623 H   0  0  0  0  0  0  0  0  0  0  0  0
    2.8803   -3.3319    0.4394 H   0  0  0  0  0  0  0  0  0  0  0  0
    2.1657   -1.8400    1.1110 H   0  0  0  0  0  0  0  0  0  0  0  0
    2.2528   -2.5780   -1.5804 H   0  0  0  0  0  0  0  0  0  0  0  0
    3.6740   -1.5360   -1.5557 H   0  0  0  0  0  0  0  0  0  0  0  0
    1.7253    1.5009   -1.3506 H   0  0  0  0  0  0  0  0  0  0  0  0
    5.0268   -0.0135   -0.2989 H   0  0  0  0  0  0  0  0  0  0  0  0
    5.6507    1.0790   -1.5360 H   0  0  0  0  0  0  0  0  0  0  0  0
    4.3701    2.9532   -0.4801 H   0  0  0  0  0  0  0  0  0  0  0  0
    3.7516    1.8104    0.7482 H   0  0  0  0  0  0  0  0  0  0  0  0
    5.9321    1.1682    1.4801 H   0  0  0  0  0  0  0  0  0  0  0  0
    5.6709    2.9080    1.7914 H   0  0  0  0  0  0  0  0  0  0  0  0
    7.3155    1.5238   -0.4435 H   0  0  0  0  0  0  0  0  0  0  0  0
    7.9180    2.5100    0.9485 H   0  0  0  0  0  0  0  0  0  0  0  0
    0.5698   -2.8567   -0.3944 H   0  0  0  0  0  0  0  0  0  0  0  0
   -3.2525   -1.3032    0.5046 H   0  0  0  0  0  0  0  0  0  0  0  0
   -0.0809    1.3021   -0.7027 H   0  0  0  0  0  0  0  0  0  0  0  0
   -1.1050    2.3509    0.7248 H   0  0  0  0  0  0  0  0  0  0  0  0
   -2.6529    1.6813   -2.0504 H   0  0  0  0  0  0  0  0  0  0  0  0
   -4.0426    3.5839   -1.0109 H   0  0  0  0  0  0  0  0  0  0  0  0
   -4.5506    2.7178   -2.5346 H   0  0  0  0  0  0  0  0  0  0  0  0
   -5.4399    2.3747   -1.0368 H   0  0  0  0  0  0  0  0  0  0  0  0
   -4.7759   -0.2588   -0.9896 H   0  0  0  0  0  0  0  0  0  0  0  0
   -4.7910    0.5291   -2.6073 H   0  0  0  0  0  0  0  0  0  0  0  0
   -3.4268   -0.4856   -2.1212 H   0  0  0  0  0  0  0  0  0  0  0  0
   -3.8692    0.3035    1.5295 H   0  0  0  0  0  0  0  0  0  0  0  0
   -3.8738    3.3725    1.2785 H   0  0  0  0  0  0  0  0  0  0  0  0
   -4.4728    2.5649    2.7237 H   0  0  0  0  0  0  0  0  0  0  0  0
   -5.3924    2.2928    1.2587 H   0  0  0  0  0  0  0  0  0  0  0  0
   -2.0320    2.4721    2.5373 H   0  0  0  0  0  0  0  0  0  0  0  0
   -2.8368    1.1161    3.3471 H   0  0  0  0  0  0  0  0  0  0  0  0
   -1.5170    0.7214    2.2171 H   0  0  0  0  0  0  0  0  0  0  0  0
   -2.9527   -3.5303    0.7157 H   0  0  0  0  0  0  0  0  0  0  0  0
   -1.5958   -5.0375    1.9198 H   0  0  0  0  0  0  0  0  0  0  0  0
   -0.4198   -3.6545    2.0272 H   0  0  0  0  0  0  0  0  0  0  0  0
   -0.2307   -4.9243    0.8031 H   0  0  0  0  0  0  0  0  0  0  0  0
   -1.0275   -3.9085   -1.5547 H   0  0  0  0  0  0  0  0  0  0  0  0
   -2.7965   -4.2782   -1.4682 H   0  0  0  0  0  0  0  0  0  0  0  0
   -1.5621   -5.4037   -0.7459 H   0  0  0  0  0  0  0  0  0  0  0  0
  1  2  1  0
  2  3  1  0
  3  4  2  0
  4  5  1  0
  5  6  1  0
  6  7  1  0
  7  8  1  0
  8  9  1  0
  9 10  1  0
  3 11  1  0
 11 12  2  0
 12 13  1  0
 13 14  2  0
 14 15  1  0
 15 16  2  0
 15 17  1  0
 17 18  1  0
 17 19  1  0
 19 20  1  0
 19 21  1  0
 17 22  1  0
 22 23  1  0
 22 24  1  0
 13 25  1  0
 25 26  1  0
 25 27  1  0
 16 11  1  0
  1 28  1  0
  1 29  1  0
  1 30  1  0
  2 31  1  0
  2 32  1  0
  4 33  1  0
  6 34  1  0
  6 35  1  0
  7 36  1  0
  7 37  1  0
  8 38  1  0
  8 39  1  0
  9 40  1  0
  9 41  1  0
 12 42  1  0
 14 43  1  0
 16 44  1  0
 18 45  1  0
 19 46  1  0
 20 47  1  0
 20 48  1  0
 20 49  1  0
 21 50  1  0
 21 51  1  0
 21 52  1  0
 22 53  1  0
 23 54  1  0
 23 55  1  0
 23 56  1  0
 24 57  1  0
 24 58  1  0
 24 59  1  0
 25 60  1  0
 26 61  1  0
 26 62  1  0
 26 63  1  0
 27 64  1  0
 27 65  1  0
 27 66  1  0
M  END
$$$$
[H]c1c([H])c([H])c2c(c1[H])c1c3c(c4c5c([H])c([H])c([H])c([H])c5n5c4c1n2[C@@]1(C([H])([H])[H])O[C@]5([H])C([H])([H])[C@@]([H])(N([H])C([H])([H])[H])[C@@]1([H])OC([H])([H])[H])C(=O)N([H])C3([H])[H]
     RDKit          3D

 61 68  0  0  0  0  0  0  0  0999 V2000
   -3.3415   -2.0929    0.8927 C   0  0  0  0  0  0  0  0  0  0  0  0
   -2.7520   -0.8244    0.5060 N   0  0  0  0  0  0  0  0  0  0  0  0
   -2.5947   -0.7699   -0.9652 C   0  0  2  0  0  0  0  0  0  0  0  0
   -1.6635   -1.8336   -1.3456 C   0  0  0  0  0  0  0  0  0  0  0  0
   -0.4098   -1.3263   -1.9401 C   0  0  1  0  0  0  0  0  0  0  0  0
   -0.2904   -0.0961   -2.3609 O   0  0  0  0  0  0  0  0  0  0  0  0
   -0.9141    0.9817   -1.7381 C   0  0  1  0  0  0  0  0  0  0  0  0
   -0.8729    2.0231   -2.8643 C   0  0  0  0  0  0  0  0  0  0  0  0
   -2.2914    0.6326   -1.4119 C   0  0  2  0  0  0  0  0  0  0  0  0
   -2.9229    1.4324   -0.4622 O   0  0  0  0  0  0  0  0  0  0  0  0
   -4.0664    2.0564   -0.9455 C   0  0  0  0  0  0  0  0  0  0  0  0
   -0.0747    1.3904   -0.5981 N   0  0  0  0  0  0  0  0  0  0  0  0
    0.0066    2.5943   -0.0347 C   0  0  0  0  0  0  0  0  0  0  0  0
   -0.6403    3.7755   -0.2701 C   0  0  0  0  0  0  0  0  0  0  0  0
   -0.3753    4.9057    0.4704 C   0  0  0  0  0  0  0  0  0  0  0  0
    0.5715    4.8915    1.4994 C   0  0  0  0  0  0  0  0  0  0  0  0
    1.2169    3.7192    1.7374 C   0  0  0  0  0  0  0  0  0  0  0  0
    0.9447    2.6014    0.9941 C   0  0  0  0  0  0  0  0  0  0  0  0
    1.4533    1.3308    1.0530 C   0  0  0  0  0  0  0  0  0  0  0  0
    2.4134    0.7192    1.8621 C   0  0  0  0  0  0  0  0  0  0  0  0
    3.2252    1.2814    2.9656 C   0  0  0  0  0  0  0  0  0  0  0  0
    4.0513    0.2282    3.4563 N   0  0  0  0  0  0  0  0  0  0  0  0
    3.7725   -0.9500    2.6928 C   0  0  0  0  0  0  0  0  0  0  0  0
    4.3602   -2.0093    2.9202 O   0  0  0  0  0  0  0  0  0  0  0  0
    2.7553   -0.6238    1.7110 C   0  0  0  0  0  0  0  0  0  0  0  0
    2.1006   -1.3257    0.7242 C   0  0  0  0  0  0  0  0  0  0  0  0
    2.1422   -2.6347    0.2794 C   0  0  0  0  0  0  0  0  0  0  0  0
    2.8759   -3.7217    0.6638 C   0  0  0  0  0  0  0  0  0  0  0  0
    2.6892   -4.9254    0.0128 C   0  0  0  0  0  0  0  0  0  0  0  0
    1.7808   -5.0386   -1.0084 C   0  0  0  0  0  0  0  0  0  0  0  0
    1.0343   -3.9515   -1.4066 C   0  0  0  0  0  0  0  0  0  0  0  0
    1.2263   -2.7646   -0.7562 C   0  0  0  0  0  0  0  0  0  0  0  0
    0.6469   -1.5975   -0.9447 N   0  0  0  0  0  0  0  0  0  0  0  0
    1.1358   -0.7009   -0.0851 C   0  0  0  0  0  0  0  0  0  0  0  0
    0.8119    0.6350    0.0794 C   0  0  0  0  0  0  0  0  0  0  0  0
   -3.9345   -1.8764    1.8249 H   0  0  0  0  0  0  0  0  0  0  0  0
   -2.5804   -2.8202    1.1896 H   0  0  0  0  0  0  0  0  0  0  0  0
   -4.0376   -2.4413    0.1071 H   0  0  0  0  0  0  0  0  0  0  0  0
   -1.8252   -0.7857    0.9817 H   0  0  0  0  0  0  0  0  0  0  0  0
   -3.6418   -1.0758   -1.3069 H   0  0  0  0  0  0  0  0  0  0  0  0
   -1.4743   -2.5407   -0.4944 H   0  0  0  0  0  0  0  0  0  0  0  0
   -2.1827   -2.5069   -2.1019 H   0  0  0  0  0  0  0  0  0  0  0  0
   -0.1764   -2.0147   -2.8352 H   0  0  0  0  0  0  0  0  0  0  0  0
   -1.8561    2.5173   -2.9808 H   0  0  0  0  0  0  0  0  0  0  0  0
   -0.0367    2.7359   -2.7018 H   0  0  0  0  0  0  0  0  0  0  0  0
   -0.6761    1.5932   -3.8662 H   0  0  0  0  0  0  0  0  0  0  0  0
   -2.9127    0.7625   -2.3525 H   0  0  0  0  0  0  0  0  0  0  0  0
   -4.5472    2.6842   -0.1440 H   0  0  0  0  0  0  0  0  0  0  0  0
   -3.8494    2.7776   -1.7563 H   0  0  0  0  0  0  0  0  0  0  0  0
   -4.7942    1.3294   -1.3803 H   0  0  0  0  0  0  0  0  0  0  0  0
   -1.3647    3.8112   -1.0348 H   0  0  0  0  0  0  0  0  0  0  0  0
   -0.8845    5.8355    0.2847 H   0  0  0  0  0  0  0  0  0  0  0  0
    0.7949    5.7654    2.0918 H   0  0  0  0  0  0  0  0  0  0  0  0
    1.9682    3.6487    2.5304 H   0  0  0  0  0  0  0  0  0  0  0  0
    3.8868    2.0907    2.5395 H   0  0  0  0  0  0  0  0  0  0  0  0
    2.5967    1.6993    3.7873 H   0  0  0  0  0  0  0  0  0  0  0  0
    4.7363    0.3270    4.2421 H   0  0  0  0  0  0  0  0  0  0  0  0
    3.5871   -3.7061    1.4353 H   0  0  0  0  0  0  0  0  0  0  0  0
    3.2659   -5.8106    0.3031 H   0  0  0  0  0  0  0  0  0  0  0  0
    1.6292   -5.9934   -1.5280 H   0  0  0  0  0  0  0  0  0  0  0  0
    0.3048   -4.0175   -2.2172 H   0  0  0  0  0  0  0  0  0  0  0  0
  1  2  1  0
  2  3  1  0
  3  4  1  0
  4  5  1  0
  5  6  1  0
  6  7  1  0
  7  8  1  6
  7  9  1  0
  9 10  1  0
 10 11  1  0
  7 12  1  0
 12 13  1  0
 13 14  2  0
 14 15  1  0
 15 16  2  0
 16 17  1  0
 17 18  2  0
 18 19  1  0
 19 20  2  0
 20 21  1  0
 21 22  1  0
 22 23  1  0
 23 24  2  0
 23 25  1  0
 25 26  2  0
 26 27  1  0
 27 28  2  0
 28 29  1  0
 29 30  2  0
 30 31  1  0
 31 32  2  0
 32 33  1  0
 33 34  1  0
 34 35  2  0
  9  3  1  0
 35 12  1  0
 33  5  1  0
 18 13  1  0
 35 19  1  0
 25 20  1  0
 34 26  1  0
 32 27  1  0
  1 36  1  0
  1 37  1  0
  1 38  1  0
  2 39  1  0
  3 40  1  6
  4 41  1  0
  4 42  1  0
  5 43  1  6
  8 44  1  0
  8 45  1  0
  8 46  1  0
  9 47  1  6
 11 48  1  0
 11 49  1  0
 11 50  1  0
 14 51  1  0
 15 52  1  0
 16 53  1  0
 17 54  1  0
 21 55  1  0
 21 56  1  0
 22 57  1  0
 28 58  1  0
 29 59  1  0
 30 60  1  0
 31 61  1  0
M  END
$$$$
[H]OC(=O)c1sc2c([H])c([H])c(C(=O)C([H])(N([H])C(=O)c3oc4c([H])c([H])c([H])c([H])c4c3[H])C([H])([H])C([H])([H])C(=O)O[H])c([H])c2c1[H]
     RDKit          3D

 49 52  0  0  0  0  0  0  0  0999 V2000
   -8.5337    2.2948    0.0800 O   0  0  0  0  0  0  0  0  0  0  0  0
   -7.2951    2.1244    0.6790 C   0  0  0  0  0  0  0  0  0  0  0  0
   -7.0999    2.5357    1.8239 O   0  0  0  0  0  0  0  0  0  0  0  0
   -6.2356    1.4397   -0.1003 C   0  0  0  0  0  0  0  0  0  0  0  0
   -4.9556    1.1681    0.2916 C   0  0  0  0  0  0  0  0  0  0  0  0
   -4.1610    0.5308   -0.5977 C   0  0  0  0  0  0  0  0  0  0  0  0
   -2.8182    0.1513   -0.4218 C   0  0  0  0  0  0  0  0  0  0  0  0
   -2.1164   -0.4921   -1.4074 C   0  0  0  0  0  0  0  0  0  0  0  0
   -2.6920   -0.8085   -2.6442 C   0  0  0  0  0  0  0  0  0  0  0  0
   -4.0065   -0.4335   -2.8078 C   0  0  0  0  0  0  0  0  0  0  0  0
   -4.7097    0.2159   -1.8084 C   0  0  0  0  0  0  0  0  0  0  0  0
   -6.3002    0.8069   -1.6822 S   0  0  0  0  0  0  0  0  0  0  0  0
   -0.7131   -0.8988   -1.2025 C   0  0  0  0  0  0  0  0  0  0  0  0
   -0.1257   -1.4141   -2.2153 O   0  0  0  0  0  0  0  0  0  0  0  0
    0.0282   -0.7525    0.0515 C   0  0  0  0  0  0  0  0  0  0  0  0
   -0.0297   -1.9937    0.9165 C   0  0  0  0  0  0  0  0  0  0  0  0
   -1.3783   -2.4307    1.3369 C   0  0  0  0  0  0  0  0  0  0  0  0
   -1.2340   -3.6503    2.1745 C   0  0  0  0  0  0  0  0  0  0  0  0
   -2.4366   -4.1948    2.6632 O   0  0  0  0  0  0  0  0  0  0  0  0
   -0.1454   -4.1907    2.4527 O   0  0  0  0  0  0  0  0  0  0  0  0
    1.4522   -0.5210   -0.1948 N   0  0  0  0  0  0  0  0  0  0  0  0
    2.1465    0.5860    0.2933 C   0  0  0  0  0  0  0  0  0  0  0  0
    1.4989    1.4329    0.9915 O   0  0  0  0  0  0  0  0  0  0  0  0
    3.5558    0.8571    0.0714 C   0  0  0  0  0  0  0  0  0  0  0  0
    4.2691    1.9340    0.5537 C   0  0  0  0  0  0  0  0  0  0  0  0
    5.5750    1.8354    0.1264 C   0  0  0  0  0  0  0  0  0  0  0  0
    6.6971    2.6112    0.3034 C   0  0  0  0  0  0  0  0  0  0  0  0
    7.9067    2.2583   -0.2583 C   0  0  0  0  0  0  0  0  0  0  0  0
    7.9579    1.1041   -1.0032 C   0  0  0  0  0  0  0  0  0  0  0  0
    6.8311    0.3320   -1.1767 C   0  0  0  0  0  0  0  0  0  0  0  0
    5.6069    0.6668   -0.6223 C   0  0  0  0  0  0  0  0  0  0  0  0
    4.4113    0.1355   -0.6243 O   0  0  0  0  0  0  0  0  0  0  0  0
   -8.6377    2.8102   -0.7955 H   0  0  0  0  0  0  0  0  0  0  0  0
   -4.6443    1.4877    1.3186 H   0  0  0  0  0  0  0  0  0  0  0  0
   -2.3122    0.3749    0.5004 H   0  0  0  0  0  0  0  0  0  0  0  0
   -2.1301   -1.3147   -3.4136 H   0  0  0  0  0  0  0  0  0  0  0  0
   -4.5042   -0.6563   -3.7552 H   0  0  0  0  0  0  0  0  0  0  0  0
   -0.3480    0.0897    0.6309 H   0  0  0  0  0  0  0  0  0  0  0  0
    0.5598   -1.7571    1.8422 H   0  0  0  0  0  0  0  0  0  0  0  0
    0.4980   -2.8508    0.4500 H   0  0  0  0  0  0  0  0  0  0  0  0
   -1.9066   -1.6798    1.9753 H   0  0  0  0  0  0  0  0  0  0  0  0
   -2.0139   -2.7497    0.4747 H   0  0  0  0  0  0  0  0  0  0  0  0
   -2.6718   -5.1662    2.5751 H   0  0  0  0  0  0  0  0  0  0  0  0
    1.9457   -1.2330   -0.7659 H   0  0  0  0  0  0  0  0  0  0  0  0
    3.9238    2.7596    1.1731 H   0  0  0  0  0  0  0  0  0  0  0  0
    6.6434    3.5257    0.8978 H   0  0  0  0  0  0  0  0  0  0  0  0
    8.8119    2.8459   -0.1396 H   0  0  0  0  0  0  0  0  0  0  0  0
    8.9223    0.8378   -1.4418 H   0  0  0  0  0  0  0  0  0  0  0  0
    6.9140   -0.5638   -1.7668 H   0  0  0  0  0  0  0  0  0  0  0  0
  1  2  1  0
  2  3  2  0
  2  4  1  0
  4  5  2  0
  5  6  1  0
  6  7  2  0
  7  8  1  0
  8  9  2  0
  9 10  1  0
 10 11  2  0
 11 12  1  0
  8 13  1  0
 13 14  2  0
 13 15  1  0
 15 16  1  0
 16 17  1  0
 17 18  1  0
 18 19  1  0
 18 20  2  0
 15 21  1  0
 21 22  1  0
 22 23  2  0
 22 24  1  0
 24 25  2  0
 25 26  1  0
 26 27  2  0
 27 28  1  0
 28 29  2  0
 29 30  1  0
 30 31  2  0
 31 32  1  0
 12  4  1  0
 32 24  1  0
 11  6  1  0
 31 26  1  0
  1 33  1  0
  5 34  1  0
  7 35  1  0
  9 36  1  0
 10 37  1  0
 15 38  1  0
 16 39  1  0
 16 40  1  0
 17 41  1  0
 17 42  1  0
 19 43  1  0
 21 44  1  0
 25 45  1  0
 27 46  1  0
 28 47  1  0
 29 48  1  0
 30 49  1  0
M  END
$$$$
[H]ON([H])C(=O)C1([H])N(S(=O)(=O)c2c([H])c([H])c(OC([H])([H])C([H])([H])C([H])([H])C([H])([H])[H])c([H])c2[H])C([H])([H])C([H])([H])S(=O)(=O)C1([H])[H]
     RDKit          3D

 48 49  0  0  0  0  0  0  0  0999 V2000
    7.4658    1.0940   -0.4943 C   0  0  0  0  0  0  0  0  0  0  0  0
    6.0585    0.5477   -0.5702 C   0  0  0  0  0  0  0  0  0  0  0  0
    5.9895   -0.8445    0.0470 C   0  0  0  0  0  0  0  0  0  0  0  0
    4.5596   -1.3327   -0.0605 C   0  0  0  0  0  0  0  0  0  0  0  0
    3.7465   -0.4421    0.6326 O   0  0  0  0  0  0  0  0  0  0  0  0
    2.3750   -0.5385    0.7696 C   0  0  0  0  0  0  0  0  0  0  0  0
    1.6146   -1.5350    0.2369 C   0  0  0  0  0  0  0  0  0  0  0  0
    0.2408   -1.5616    0.4193 C   0  0  0  0  0  0  0  0  0  0  0  0
   -0.4178   -0.5859    1.1448 C   0  0  0  0  0  0  0  0  0  0  0  0
    0.3590    0.4180    1.6800 C   0  0  0  0  0  0  0  0  0  0  0  0
    1.7406    0.4506    1.5003 C   0  0  0  0  0  0  0  0  0  0  0  0
   -2.1434   -0.6075    1.3914 S   0  0  0  0  0  0  0  0  0  0  0  0
   -2.5011    0.0977    2.6967 O   0  0  0  0  0  0  0  0  0  0  0  0
   -2.5873   -2.0297    1.5871 O   0  0  0  0  0  0  0  0  0  0  0  0
   -3.0127    0.1827    0.1156 N   0  0  0  0  0  0  0  0  0  0  0  0
   -2.5931    1.5548    0.0992 C   0  0  0  0  0  0  0  0  0  0  0  0
   -2.7863    2.0326   -1.3522 C   0  0  0  0  0  0  0  0  0  0  0  0
   -4.5855    2.0749   -1.4873 S   0  0  0  0  0  0  0  0  0  0  0  0
   -5.0415    1.4763   -2.7855 O   0  0  0  0  0  0  0  0  0  0  0  0
   -4.9677    3.5268   -1.4956 O   0  0  0  0  0  0  0  0  0  0  0  0
   -5.2600    1.2278   -0.0795 C   0  0  0  0  0  0  0  0  0  0  0  0
   -4.4046    0.0753    0.3667 C   0  0  0  0  0  0  0  0  0  0  0  0
   -4.9910   -1.1528   -0.2342 C   0  0  0  0  0  0  0  0  0  0  0  0
   -6.2092   -1.3617   -0.0189 O   0  0  0  0  0  0  0  0  0  0  0  0
   -4.2829   -2.0860   -1.0190 N   0  0  0  0  0  0  0  0  0  0  0  0
   -4.8831   -3.1759   -1.5286 O   0  0  0  0  0  0  0  0  0  0  0  0
    8.2199    0.3620   -0.8131 H   0  0  0  0  0  0  0  0  0  0  0  0
    7.6877    1.5380    0.5006 H   0  0  0  0  0  0  0  0  0  0  0  0
    7.5184    1.9409   -1.2236 H   0  0  0  0  0  0  0  0  0  0  0  0
    5.7947    0.5002   -1.6556 H   0  0  0  0  0  0  0  0  0  0  0  0
    5.4003    1.2333   -0.0271 H   0  0  0  0  0  0  0  0  0  0  0  0
    6.2404   -0.6998    1.1305 H   0  0  0  0  0  0  0  0  0  0  0  0
    6.7221   -1.5199   -0.3886 H   0  0  0  0  0  0  0  0  0  0  0  0
    4.3322   -1.4098   -1.1404 H   0  0  0  0  0  0  0  0  0  0  0  0
    4.5410   -2.3670    0.3394 H   0  0  0  0  0  0  0  0  0  0  0  0
    2.1317   -2.3109   -0.3391 H   0  0  0  0  0  0  0  0  0  0  0  0
   -0.3304   -2.3545   -0.0095 H   0  0  0  0  0  0  0  0  0  0  0  0
   -0.0945    1.1966    2.2488 H   0  0  0  0  0  0  0  0  0  0  0  0
    2.3120    1.2468    1.9313 H   0  0  0  0  0  0  0  0  0  0  0  0
   -3.3007    2.1966    0.7011 H   0  0  0  0  0  0  0  0  0  0  0  0
   -1.5726    1.7452    0.4407 H   0  0  0  0  0  0  0  0  0  0  0  0
   -2.3444    3.0135   -1.5187 H   0  0  0  0  0  0  0  0  0  0  0  0
   -2.4345    1.2365   -2.0281 H   0  0  0  0  0  0  0  0  0  0  0  0
   -5.3797    1.9775    0.7298 H   0  0  0  0  0  0  0  0  0  0  0  0
   -6.2830    0.9046   -0.3634 H   0  0  0  0  0  0  0  0  0  0  0  0
   -4.5523   -0.0324    1.4781 H   0  0  0  0  0  0  0  0  0  0  0  0
   -3.2774   -1.9323   -1.2127 H   0  0  0  0  0  0  0  0  0  0  0  0
   -4.8136   -3.9703   -0.9293 H   0  0  0  0  0  0  0  0  0  0  0  0
  1  2  1  0
  2  3  1  0
  3  4  1  0
  4  5  1  0
  5  6  1  0
  6  7  2  0
  7  8  1  0
  8  9  2  0
  9 10  1  0
 10 11  2  0
  9 12  1  0
 12 13  2  0
 12 14  2  0
 12 15  1  0
 15 16  1  0
 16 17  1  0
 17 18  1  0
 18 19  2  0
 18 20  2  0
 18 21  1  0
 21 22  1  0
 22 23  1  0
 23 24  2  0
 23 25  1  0
 25 26  1  0
 11  6  1  0
 22 15  1  0
  1 27  1  0
  1 28  1  0
  1 29  1  0
  2 30  1  0
  2 31  1  0
  3 32  1  0
  3 33  1  0
  4 34  1  0
  4 35  1  0
  7 36  1  0
  8 37  1  0
 10 38  1  0
 11 39  1  0
 16 40  1  0
 16 41  1  0
 17 42  1  0
 17 43  1  0
 21 44  1  0
 21 45  1  0
 22 46  1  0
 25 47  1  0
 26 48  1  0
M  END
$$$$
[H]OC(=O)C([H])([H])[C@@]1(c2c([H])c([H])c([H])c([H])c2[H])OC([H])([H])[C@@]([H])(C([H])([H])Oc2c([H])c(-c3c([H])c([H])c(N([H])C([H])([H])c4noc(C([H])([H])[H])c4[H])c([H])c3[H])c([H])c(C(F)(F)F)c2[H])O1
     RDKit          3D

 68 72  0  0  0  0  0  0  0  0999 V2000
   10.7218   -0.9405    3.3153 C   0  0  0  0  0  0  0  0  0  0  0  0
   10.1438   -0.6112    1.9794 C   0  0  0  0  0  0  0  0  0  0  0  0
    8.8001   -0.5512    1.6410 C   0  0  0  0  0  0  0  0  0  0  0  0
    8.7797   -0.2178    0.3204 C   0  0  0  0  0  0  0  0  0  0  0  0
    7.5492   -0.0537   -0.4831 C   0  0  0  0  0  0  0  0  0  0  0  0
    6.4967    0.4465    0.3858 N   0  0  0  0  0  0  0  0  0  0  0  0
    5.1779    0.4751   -0.1536 C   0  0  0  0  0  0  0  0  0  0  0  0
    4.9213    0.0657   -1.4382 C   0  0  0  0  0  0  0  0  0  0  0  0
    3.6431    0.0444   -1.9475 C   0  0  0  0  0  0  0  0  0  0  0  0
    2.5644    0.4373   -1.1759 C   0  0  0  0  0  0  0  0  0  0  0  0
    2.8229    0.8517    0.1176 C   0  0  0  0  0  0  0  0  0  0  0  0
    4.1008    0.8764    0.6358 C   0  0  0  0  0  0  0  0  0  0  0  0
    1.2192    0.3508   -1.7163 C   0  0  0  0  0  0  0  0  0  0  0  0
    0.1872    0.0839   -0.8222 C   0  0  0  0  0  0  0  0  0  0  0  0
   -1.1104   -0.0495   -1.2110 C   0  0  0  0  0  0  0  0  0  0  0  0
   -2.1423   -0.3141   -0.3524 O   0  0  0  0  0  0  0  0  0  0  0  0
   -1.9503   -0.4597    1.0377 C   0  0  0  0  0  0  0  0  0  0  0  0
   -3.3707   -0.7510    1.5751 C   0  0  2  0  0  0  0  0  0  0  0  0
   -3.9364   -1.9377    0.8421 C   0  0  0  0  0  0  0  0  0  0  0  0
   -5.2960   -1.6095    0.7779 O   0  0  0  0  0  0  0  0  0  0  0  0
   -5.3157   -0.2300    0.5703 C   0  0  2  0  0  0  0  0  0  0  0  0
   -5.4421    0.0578   -0.8942 C   0  0  0  0  0  0  0  0  0  0  0  0
   -6.7300   -0.5337   -1.3922 C   0  0  0  0  0  0  0  0  0  0  0  0
   -7.5096   -1.2604   -0.5223 O   0  0  0  0  0  0  0  0  0  0  0  0
   -7.0568   -0.3437   -2.5921 O   0  0  0  0  0  0  0  0  0  0  0  0
   -4.2084    0.2908    1.1919 O   0  0  0  0  0  0  0  0  0  0  0  0
   -6.4993    0.3291    1.2992 C   0  0  0  0  0  0  0  0  0  0  0  0
   -7.0371   -0.3363    2.3725 C   0  0  0  0  0  0  0  0  0  0  0  0
   -8.1072    0.1441    3.0769 C   0  0  0  0  0  0  0  0  0  0  0  0
   -8.6612    1.3488    2.6807 C   0  0  0  0  0  0  0  0  0  0  0  0
   -8.1130    2.0187    1.5904 C   0  0  0  0  0  0  0  0  0  0  0  0
   -7.0407    1.5220    0.8984 C   0  0  0  0  0  0  0  0  0  0  0  0
   -1.3878    0.0950   -2.5788 C   0  0  0  0  0  0  0  0  0  0  0  0
   -0.4080    0.3604   -3.5143 C   0  0  0  0  0  0  0  0  0  0  0  0
    0.8832    0.4817   -3.0361 C   0  0  0  0  0  0  0  0  0  0  0  0
   -0.7468    0.4868   -4.9685 C   0  0  0  0  0  0  0  0  0  0  0  0
   -2.0955    0.2039   -5.1622 F   0  0  0  0  0  0  0  0  0  0  0  0
   -0.4643    1.7823   -5.3429 F   0  0  0  0  0  0  0  0  0  0  0  0
    0.0350   -0.3458   -5.7117 F   0  0  0  0  0  0  0  0  0  0  0  0
   10.0276   -0.0840   -0.1135 N   0  0  0  0  0  0  0  0  0  0  0  0
   10.8193   -0.3237    0.8944 O   0  0  0  0  0  0  0  0  0  0  0  0
    9.9619   -1.4841    3.9434 H   0  0  0  0  0  0  0  0  0  0  0  0
   11.5864   -1.6360    3.2436 H   0  0  0  0  0  0  0  0  0  0  0  0
   10.9779    0.0157    3.7889 H   0  0  0  0  0  0  0  0  0  0  0  0
    8.0242   -0.7424    2.3576 H   0  0  0  0  0  0  0  0  0  0  0  0
    7.6999    0.6221   -1.3576 H   0  0  0  0  0  0  0  0  0  0  0  0
    7.3116   -1.0575   -0.9087 H   0  0  0  0  0  0  0  0  0  0  0  0
    6.7383    0.7523    1.3299 H   0  0  0  0  0  0  0  0  0  0  0  0
    5.7597   -0.2393   -2.0388 H   0  0  0  0  0  0  0  0  0  0  0  0
    3.4475   -0.2802   -2.9699 H   0  0  0  0  0  0  0  0  0  0  0  0
    1.9830    1.1669    0.7273 H   0  0  0  0  0  0  0  0  0  0  0  0
    4.2922    1.2067    1.6640 H   0  0  0  0  0  0  0  0  0  0  0  0
    0.4279   -0.0188    0.2253 H   0  0  0  0  0  0  0  0  0  0  0  0
   -1.2647   -1.2822    1.3053 H   0  0  0  0  0  0  0  0  0  0  0  0
   -1.5387    0.4513    1.5138 H   0  0  0  0  0  0  0  0  0  0  0  0
   -3.3296   -0.8798    2.6723 H   0  0  0  0  0  0  0  0  0  0  0  0
   -3.7643   -2.8910    1.3782 H   0  0  0  0  0  0  0  0  0  0  0  0
   -3.5497   -1.9343   -0.2028 H   0  0  0  0  0  0  0  0  0  0  0  0
   -5.3362    1.1043   -1.1697 H   0  0  0  0  0  0  0  0  0  0  0  0
   -4.6659   -0.5444   -1.4623 H   0  0  0  0  0  0  0  0  0  0  0  0
   -8.5013   -1.2579   -0.5982 H   0  0  0  0  0  0  0  0  0  0  0  0
   -6.5854   -1.2772    2.6630 H   0  0  0  0  0  0  0  0  0  0  0  0
   -8.4985   -0.3931    3.9033 H   0  0  0  0  0  0  0  0  0  0  0  0
   -9.4995    1.7826    3.1979 H   0  0  0  0  0  0  0  0  0  0  0  0
   -8.5756    2.9627    1.3151 H   0  0  0  0  0  0  0  0  0  0  0  0
   -6.6151    2.0588    0.0413 H   0  0  0  0  0  0  0  0  0  0  0  0
   -2.4162   -0.0129   -2.8860 H   0  0  0  0  0  0  0  0  0  0  0  0
    1.6667    0.6933   -3.7500 H   0  0  0  0  0  0  0  0  0  0  0  0
  1  2  1  0
  2  3  2  0
  3  4  1  0
  4  5  1  0
  5  6  1  0
  6  7  1  0
  7  8  2  0
  8  9  1  0
  9 10  2  0
 10 11  1  0
 11 12  2  0
 10 13  1  0
 13 14  2  0
 14 15  1  0
 15 16  1  0
 16 17  1  0
 17 18  1  0
 18 19  1  0
 19 20  1  0
 20 21  1  0
 21 22  1  6
 22 23  1  0
 23 24  1  0
 23 25  2  0
 21 26  1  0
 21 27  1  0
 27 28  2  0
 28 29  1  0
 29 30  2  0
 30 31  1  0
 31 32  2  0
 15 33  2  0
 33 34  1  0
 34 35  2  0
 34 36  1  0
 36 37  1  0
 36 38  1  0
 36 39  1  0
  4 40  2  0
 40 41  1  0
 41  2  1  0
 12  7  1  0
 35 13  1  0
 26 18  1  0
 32 27  1  0
  1 42  1  0
  1 43  1  0
  1 44  1  0
  3 45  1  0
  5 46  1  0
  5 47  1  0
  6 48  1  0
  8 49  1  0
  9 50  1  0
 11 51  1  0
 12 52  1  0
 14 53  1  0
 17 54  1  0
 17 55  1  0
 18 56  1  1
 19 57  1  0
 19 58  1  0
 22 59  1  0
 22 60  1  0
 24 61  1  0
 28 62  1  0
 29 63  1  0
 30 64  1  0
 31 65  1  0
 32 66  1  0
 33 67  1  0
 35 68  1  0
M  END
$$$$
[H]c1nc2c(c([H])c1-c1c([H])c([H])c(OC([H])([H])C([H])([H])N3C([H])([H])C([H])([H])N([H])C([H])([H])C3([H])[H])c([H])c1[H])c1c([H])c([H])c(C#N)c([H])c1n2[H]
     RDKit          3D

 53 57  0  0  0  0  0  0  0  0999 V2000
   10.9715    0.2209    1.9743 N   0  0  0  0  0  0  0  0  0  0  0  0
    9.8563    0.1186    1.6245 C   0  0  0  0  0  0  0  0  0  0  0  0
    8.4929   -0.0174    1.1968 C   0  0  0  0  0  0  0  0  0  0  0  0
    7.6762    1.1054    1.1005 C   0  0  0  0  0  0  0  0  0  0  0  0
    6.3748    0.9360    0.6868 C   0  0  0  0  0  0  0  0  0  0  0  0
    5.8483   -0.2928    0.3653 C   0  0  0  0  0  0  0  0  0  0  0  0
    6.6462   -1.3987    0.4582 C   0  0  0  0  0  0  0  0  0  0  0  0
    7.9642   -1.2540    0.8736 C   0  0  0  0  0  0  0  0  0  0  0  0
    5.9087   -2.4526    0.0965 N   0  0  0  0  0  0  0  0  0  0  0  0
    4.6486   -2.0989   -0.2354 C   0  0  0  0  0  0  0  0  0  0  0  0
    3.5518   -2.7586   -0.6529 N   0  0  0  0  0  0  0  0  0  0  0  0
    2.3913   -2.1313   -0.9187 C   0  0  0  0  0  0  0  0  0  0  0  0
    2.2832   -0.7662   -0.7698 C   0  0  0  0  0  0  0  0  0  0  0  0
    3.4130   -0.0926   -0.3405 C   0  0  0  0  0  0  0  0  0  0  0  0
    4.6086   -0.7142   -0.0634 C   0  0  0  0  0  0  0  0  0  0  0  0
    1.0294   -0.0665   -1.0550 C   0  0  0  0  0  0  0  0  0  0  0  0
    1.0154    1.2297   -1.5255 C   0  0  0  0  0  0  0  0  0  0  0  0
   -0.1460    1.9065   -1.7998 C   0  0  0  0  0  0  0  0  0  0  0  0
   -1.4042    1.2984   -1.6106 C   0  0  0  0  0  0  0  0  0  0  0  0
   -2.5437    1.9950   -1.8942 O   0  0  0  0  0  0  0  0  0  0  0  0
   -3.8716    1.7092   -1.7986 C   0  0  0  0  0  0  0  0  0  0  0  0
   -4.3034    1.4876   -0.3936 C   0  0  0  0  0  0  0  0  0  0  0  0
   -5.7193    1.1769   -0.2769 N   0  0  0  0  0  0  0  0  0  0  0  0
   -6.0069    0.9894    1.1210 C   0  0  0  0  0  0  0  0  0  0  0  0
   -5.9462   -0.4586    1.5364 C   0  0  0  0  0  0  0  0  0  0  0  0
   -6.9618   -1.2471    0.8886 N   0  0  0  0  0  0  0  0  0  0  0  0
   -7.2635   -0.7354   -0.4152 C   0  0  0  0  0  0  0  0  0  0  0  0
   -6.0603   -0.0315   -1.0034 C   0  0  0  0  0  0  0  0  0  0  0  0
   -1.3770    0.0091   -1.1432 C   0  0  0  0  0  0  0  0  0  0  0  0
   -0.1874   -0.6790   -0.8636 C   0  0  0  0  0  0  0  0  0  0  0  0
    8.1289    2.0506    1.3620 H   0  0  0  0  0  0  0  0  0  0  0  0
    5.7530    1.8144    0.6165 H   0  0  0  0  0  0  0  0  0  0  0  0
    8.5863   -2.1134    0.9465 H   0  0  0  0  0  0  0  0  0  0  0  0
    6.2270   -3.4580    0.0586 H   0  0  0  0  0  0  0  0  0  0  0  0
    1.5054   -2.6657   -1.2561 H   0  0  0  0  0  0  0  0  0  0  0  0
    3.3640    0.9638   -0.2148 H   0  0  0  0  0  0  0  0  0  0  0  0
    1.9904    1.7128   -1.6764 H   0  0  0  0  0  0  0  0  0  0  0  0
   -0.1655    2.9224   -2.1688 H   0  0  0  0  0  0  0  0  0  0  0  0
   -4.4535    2.6050   -2.1837 H   0  0  0  0  0  0  0  0  0  0  0  0
   -4.2007    0.8921   -2.4891 H   0  0  0  0  0  0  0  0  0  0  0  0
   -3.7617    0.7587    0.1818 H   0  0  0  0  0  0  0  0  0  0  0  0
   -4.1922    2.4761    0.1429 H   0  0  0  0  0  0  0  0  0  0  0  0
   -7.0044    1.3801    1.4090 H   0  0  0  0  0  0  0  0  0  0  0  0
   -5.2681    1.5586    1.7087 H   0  0  0  0  0  0  0  0  0  0  0  0
   -6.1923   -0.4756    2.6364 H   0  0  0  0  0  0  0  0  0  0  0  0
   -4.9494   -0.9051    1.4494 H   0  0  0  0  0  0  0  0  0  0  0  0
   -6.6437   -2.2246    0.8080 H   0  0  0  0  0  0  0  0  0  0  0  0
   -8.0926    0.0026   -0.4135 H   0  0  0  0  0  0  0  0  0  0  0  0
   -7.4856   -1.5913   -1.0890 H   0  0  0  0  0  0  0  0  0  0  0  0
   -6.3158    0.2933   -2.0405 H   0  0  0  0  0  0  0  0  0  0  0  0
   -5.2245   -0.7612   -0.9919 H   0  0  0  0  0  0  0  0  0  0  0  0
   -2.3072   -0.5297   -0.9923 H   0  0  0  0  0  0  0  0  0  0  0  0
   -0.1865   -1.6933   -0.4958 H   0  0  0  0  0  0  0  0  0  0  0  0
  1  2  3  0
  2  3  1  0
  3  4  2  0
  4  5  1  0
  5  6  2  0
  6  7  1  0
  7  8  2  0
  7  9  1  0
  9 10  1  0
 10 11  2  0
 11 12  1  0
 12 13  2  0
 13 14  1  0
 14 15  2  0
 13 16  1  0
 16 17  2  0
 17 18  1  0
 18 19  2  0
 19 20  1  0
 20 21  1  0
 21 22  1  0
 22 23  1  0
 23 24  1  0
 24 25  1  0
 25 26  1  0
 26 27  1  0
 27 28  1  0
 19 29  1  0
 29 30  2  0
  8  3  1  0
 15 10  1  0
 30 16  1  0
 15  6  1  0
 28 23  1  0
  4 31  1  0
  5 32  1  0
  8 33  1  0
  9 34  1  0
 12 35  1  0
 14 36  1  0
 17 37  1  0
 18 38  1  0
 21 39  1  0
 21 40  1  0
 22 41  1  0
 22 42  1  0
 24 43  1  0
 24 44  1  0
 25 45  1  0
 25 46  1  0
 26 47  1  0
 27 48  1  0
 27 49  1  0
 28 50  1  0
 28 51  1  0
 29 52  1  0
 30 53  1  0
M  END
$$$$
[H]N=C(c1c([H])sc(C([H])([H])N([H])C(=O)[C@@]2([H])OB([C@]([H])(N([H])C(=O)[C@@]([H])(N([H])C(=O)OC([H])([H])c3c([H])c([H])c([H])c([H])c3[H])C([H])([H])c3c([H])c([H])c([H])c([H])c3[H])C([H])([H])C([H])([H])C([H])([H])N=C(N([H])[H])N([H])[H])[C@@]([H])(O[H])[C@]2([H])O[H])c1[H])N([H])[H]
     RDKit          3D

 90 93  0  0  0  0  0  0  0  0999 V2000
    1.3793    6.4733    2.4631 N   0  0  0  0  0  0  0  0  0  0  0  0
    2.1653    6.3141    1.2937 C   0  0  0  0  0  0  0  0  0  0  0  0
    2.9910    7.4198    0.8749 N   0  0  0  0  0  0  0  0  0  0  0  0
    2.2118    5.2705    0.5679 N   0  0  0  0  0  0  0  0  0  0  0  0
    1.4489    4.0445    0.8270 C   0  0  0  0  0  0  0  0  0  0  0  0
    0.3674    3.8441   -0.1399 C   0  0  0  0  0  0  0  0  0  0  0  0
   -0.5161    2.6864   -0.0348 C   0  0  0  0  0  0  0  0  0  0  0  0
   -0.0626    1.3028   -0.1643 C   0  0  1  0  0  0  0  0  0  0  0  0
    0.8490    0.7601    0.7710 N   0  0  0  0  0  0  0  0  0  0  0  0
    2.1666    0.3425    0.4832 C   0  0  0  0  0  0  0  0  0  0  0  0
    2.5174    0.5543   -0.7438 O   0  0  0  0  0  0  0  0  0  0  0  0
    3.0536   -0.2693    1.4340 C   0  0  2  0  0  0  0  0  0  0  0  0
    3.0518   -0.0023    2.8606 C   0  0  0  0  0  0  0  0  0  0  0  0
    3.2944    1.2968    3.4267 C   0  0  0  0  0  0  0  0  0  0  0  0
    4.6030    1.7717    3.5797 C   0  0  0  0  0  0  0  0  0  0  0  0
    4.8709    2.9957    4.1775 C   0  0  0  0  0  0  0  0  0  0  0  0
    3.8449    3.7880    4.6429 C   0  0  0  0  0  0  0  0  0  0  0  0
    2.5548    3.3249    4.4945 C   0  0  0  0  0  0  0  0  0  0  0  0
    2.2906    2.1037    3.8979 C   0  0  0  0  0  0  0  0  0  0  0  0
    4.4243   -0.4184    0.8918 N   0  0  0  0  0  0  0  0  0  0  0  0
    4.9702   -1.6235    0.4445 C   0  0  0  0  0  0  0  0  0  0  0  0
    4.2865   -2.6892    0.4797 O   0  0  0  0  0  0  0  0  0  0  0  0
    6.2472   -1.7193   -0.0459 O   0  0  0  0  0  0  0  0  0  0  0  0
    6.9096   -2.8428   -0.5218 C   0  0  0  0  0  0  0  0  0  0  0  0
    6.3193   -3.5110   -1.6785 C   0  0  0  0  0  0  0  0  0  0  0  0
    5.5666   -4.6513   -1.5363 C   0  0  0  0  0  0  0  0  0  0  0  0
    5.0093   -5.2807   -2.6494 C   0  0  0  0  0  0  0  0  0  0  0  0
    5.2062   -4.7671   -3.9091 C   0  0  0  0  0  0  0  0  0  0  0  0
    5.9591   -3.6281   -4.0419 C   0  0  0  0  0  0  0  0  0  0  0  0
    6.5086   -3.0071   -2.9439 C   0  0  0  0  0  0  0  0  0  0  0  0
   -1.3976    0.3915   -0.2573 B   0  0  0  0  0  0  0  0  0  0  0  0
   -1.3559   -0.9433   -0.8746 O   0  0  0  0  0  0  0  0  0  0  0  0
   -2.6410   -1.4404   -0.7143 C   0  0  1  0  0  0  0  0  0  0  0  0
   -3.1090   -1.0661    0.6673 C   0  0  1  0  0  0  0  0  0  0  0  0
   -2.7052   -2.0379    1.5674 O   0  0  0  0  0  0  0  0  0  0  0  0
   -2.4220    0.2282    0.9450 C   0  0  2  0  0  0  0  0  0  0  0  0
   -3.2964    1.2937    1.0587 O   0  0  0  0  0  0  0  0  0  0  0  0
   -3.6015   -0.8622   -1.6845 C   0  0  0  0  0  0  0  0  0  0  0  0
   -3.2800   -0.0199   -2.5511 O   0  0  0  0  0  0  0  0  0  0  0  0
   -4.9531   -1.2918   -1.6196 N   0  0  0  0  0  0  0  0  0  0  0  0
   -5.9609   -0.7685   -2.5417 C   0  0  0  0  0  0  0  0  0  0  0  0
   -7.3075   -1.3883   -2.2533 C   0  0  0  0  0  0  0  0  0  0  0  0
   -7.8257   -2.5212   -2.8167 C   0  0  0  0  0  0  0  0  0  0  0  0
   -9.0503   -2.9091   -2.4217 C   0  0  0  0  0  0  0  0  0  0  0  0
   -9.6712   -2.1191   -1.4772 C   0  0  0  0  0  0  0  0  0  0  0  0
   -8.5332   -0.8886   -1.1880 S   0  0  0  0  0  0  0  0  0  0  0  0
   -9.7528   -4.1157   -2.9355 C   0  0  0  0  0  0  0  0  0  0  0  0
  -11.0394   -4.4986   -2.5021 N   0  0  0  0  0  0  0  0  0  0  0  0
   -9.1707   -4.8410   -3.8087 N   0  0  0  0  0  0  0  0  0  0  0  0
    0.4521    6.0305    2.5920 H   0  0  0  0  0  0  0  0  0  0  0  0
    1.7365    7.0674    3.2535 H   0  0  0  0  0  0  0  0  0  0  0  0
    3.9712    7.5196    1.1986 H   0  0  0  0  0  0  0  0  0  0  0  0
    2.5731    8.1209    0.2335 H   0  0  0  0  0  0  0  0  0  0  0  0
    2.2054    3.2605    0.9325 H   0  0  0  0  0  0  0  0  0  0  0  0
    1.0448    4.1938    1.8734 H   0  0  0  0  0  0  0  0  0  0  0  0
    0.8793    3.7584   -1.1723 H   0  0  0  0  0  0  0  0  0  0  0  0
   -0.2279    4.7986   -0.2985 H   0  0  0  0  0  0  0  0  0  0  0  0
   -1.4553    2.8687   -0.6835 H   0  0  0  0  0  0  0  0  0  0  0  0
   -1.0001    2.7456    1.0242 H   0  0  0  0  0  0  0  0  0  0  0  0
    0.3901    1.2104   -1.2351 H   0  0  0  0  0  0  0  0  0  0  0  0
    0.5496    0.6323    1.7916 H   0  0  0  0  0  0  0  0  0  0  0  0
    2.7235   -1.4077    1.3801 H   0  0  0  0  0  0  0  0  0  0  0  0
    3.6995   -0.8017    3.3491 H   0  0  0  0  0  0  0  0  0  0  0  0
    2.0172   -0.3235    3.2531 H   0  0  0  0  0  0  0  0  0  0  0  0
    5.3743    1.1268    3.2060 H   0  0  0  0  0  0  0  0  0  0  0  0
    5.9053    3.3146    4.2693 H   0  0  0  0  0  0  0  0  0  0  0  0
    4.0566    4.7398    5.1072 H   0  0  0  0  0  0  0  0  0  0  0  0
    1.7756    3.9769    4.8740 H   0  0  0  0  0  0  0  0  0  0  0  0
    1.2414    1.7834    3.8060 H   0  0  0  0  0  0  0  0  0  0  0  0
    4.9729    0.4701    0.8664 H   0  0  0  0  0  0  0  0  0  0  0  0
    7.1316   -3.5614    0.3187 H   0  0  0  0  0  0  0  0  0  0  0  0
    7.9413   -2.4893   -0.8294 H   0  0  0  0  0  0  0  0  0  0  0  0
    5.3586   -5.1326   -0.5915 H   0  0  0  0  0  0  0  0  0  0  0  0
    4.4155   -6.1753   -2.5616 H   0  0  0  0  0  0  0  0  0  0  0  0
    4.7812   -5.2394   -4.8080 H   0  0  0  0  0  0  0  0  0  0  0  0
    6.1018   -3.2405   -5.0417 H   0  0  0  0  0  0  0  0  0  0  0  0
    7.1021   -2.0968   -3.1204 H   0  0  0  0  0  0  0  0  0  0  0  0
   -2.6556   -2.5485   -0.8086 H   0  0  0  0  0  0  0  0  0  0  0  0
   -4.2126   -0.9299    0.6562 H   0  0  0  0  0  0  0  0  0  0  0  0
   -3.4589   -2.6465    1.7805 H   0  0  0  0  0  0  0  0  0  0  0  0
   -1.7801    0.1100    1.8624 H   0  0  0  0  0  0  0  0  0  0  0  0
   -3.3779    1.7229    0.1746 H   0  0  0  0  0  0  0  0  0  0  0  0
   -5.2786   -1.9890   -0.9215 H   0  0  0  0  0  0  0  0  0  0  0  0
   -6.0912    0.3166   -2.3878 H   0  0  0  0  0  0  0  0  0  0  0  0
   -5.7154   -0.9987   -3.5892 H   0  0  0  0  0  0  0  0  0  0  0  0
   -7.2303   -3.0850   -3.5768 H   0  0  0  0  0  0  0  0  0  0  0  0
  -10.6761   -2.2767   -1.0309 H   0  0  0  0  0  0  0  0  0  0  0  0
  -11.8369   -3.9049   -2.8107 H   0  0  0  0  0  0  0  0  0  0  0  0
  -11.2462   -5.3157   -1.9068 H   0  0  0  0  0  0  0  0  0  0  0  0
   -9.5727   -5.6891   -4.2214 H   0  0  0  0  0  0  0  0  0  0  0  0
  1  2  1  0
  2  3  1  0
  2  4  2  3
  4  5  1  0
  5  6  1  0
  6  7  1  0
  7  8  1  0
  8  9  1  0
  9 10  1  0
 10 11  2  0
 10 12  1  0
 12 13  1  0
 13 14  1  0
 14 15  2  0
 15 16  1  0
 16 17  2  0
 17 18  1  0
 18 19  2  0
 12 20  1  0
 20 21  1  0
 21 22  2  0
 21 23  1  0
 23 24  1  0
 24 25  1  0
 25 26  2  0
 26 27  1  0
 27 28  2  0
 28 29  1  0
 29 30  2  0
  8 31  1  0
 31 32  1  0
 32 33  1  0
 33 34  1  0
 34 35  1  0
 34 36  1  0
 36 37  1  0
 33 38  1  0
 38 39  2  0
 38 40  1  0
 40 41  1  0
 41 42  1  0
 42 43  2  0
 43 44  1  0
 44 45  2  0
 45 46  1  0
 44 47  1  0
 47 48  1  0
 47 49  2  3
 19 14  1  0
 30 25  1  0
 36 31  1  0
 46 42  1  0
  1 50  1  0
  1 51  1  0
  3 52  1  0
  3 53  1  0
  5 54  1  0
  5 55  1  0
  6 56  1  0
  6 57  1  0
  7 58  1  0
  7 59  1  0
  8 60  1  6
  9 61  1  0
 12 62  1  1
 13 63  1  0
 13 64  1  0
 15 65  1  0
 16 66  1  0
 17 67  1  0
 18 68  1  0
 19 69  1  0
 20 70  1  0
 24 71  1  0
 24 72  1  0
 26 73  1  0
 27 74  1  0
 28 75  1  0
 29 76  1  0
 30 77  1  0
 33 78  1  1
 34 79  1  6
 35 80  1  0
 36 81  1  1
 37 82  1  0
 40 83  1  0
 41 84  1  0
 41 85  1  0
 43 86  1  0
 45 87  1  0
 48 88  1  0
 48 89  1  0
 49 90  1  0
M  END
$$$$
[H]N=C(c1c([H])c([H])c([H])c(C2([H])N=C(N3C([H])([H])C([H])([H])N(C([H])([H])[H])C([H])([H])C3([H])[H])c3sc([H])c([H])c3-c3c([H])c([H])c([H])c([H])c32)c1[H])N([H])[H]
     RDKit          3D

 55 59  0  0  0  0  0  0  0  0999 V2000
   -5.7683    1.5553    0.8228 C   0  0  0  0  0  0  0  0  0  0  0  0
   -4.4466    1.6979    1.4254 N   0  0  0  0  0  0  0  0  0  0  0  0
   -3.5672    2.3386    0.4766 C   0  0  0  0  0  0  0  0  0  0  0  0
   -2.9436    1.3537   -0.4830 C   0  0  0  0  0  0  0  0  0  0  0  0
   -2.1801    0.3731    0.2773 N   0  0  0  0  0  0  0  0  0  0  0  0
   -2.5098    0.1983    1.6647 C   0  0  0  0  0  0  0  0  0  0  0  0
   -4.0042    0.3875    1.8173 C   0  0  0  0  0  0  0  0  0  0  0  0
   -1.1710   -0.3324   -0.4113 C   0  0  0  0  0  0  0  0  0  0  0  0
   -0.0126    0.1908   -0.6305 N   0  0  0  0  0  0  0  0  0  0  0  0
    1.1692   -0.3529   -1.3185 C   0  0  0  0  0  0  0  0  0  0  0  0
    1.5101   -1.7300   -0.9170 C   0  0  0  0  0  0  0  0  0  0  0  0
    2.8400   -1.9407   -0.6493 C   0  0  0  0  0  0  0  0  0  0  0  0
    3.2747   -3.1908   -0.2715 C   0  0  0  0  0  0  0  0  0  0  0  0
    2.4366   -4.2732   -0.1412 C   0  0  0  0  0  0  0  0  0  0  0  0
    1.0969   -4.0511   -0.4129 C   0  0  0  0  0  0  0  0  0  0  0  0
    0.6408   -2.8065   -0.7932 C   0  0  0  0  0  0  0  0  0  0  0  0
   -0.8405   -2.8218   -1.0172 C   0  0  0  0  0  0  0  0  0  0  0  0
   -1.4949   -3.9415   -1.4072 C   0  0  0  0  0  0  0  0  0  0  0  0
   -2.8565   -3.8396   -1.5694 C   0  0  0  0  0  0  0  0  0  0  0  0
   -3.1774   -2.2118   -1.1806 S   0  0  0  0  0  0  0  0  0  0  0  0
   -1.5975   -1.6959   -0.8235 C   0  0  0  0  0  0  0  0  0  0  0  0
    2.2497    0.6206   -1.1816 C   0  0  0  0  0  0  0  0  0  0  0  0
    3.0274    0.9727   -2.2753 C   0  0  0  0  0  0  0  0  0  0  0  0
    4.0467    1.8885   -2.1791 C   0  0  0  0  0  0  0  0  0  0  0  0
    4.3361    2.4952   -0.9841 C   0  0  0  0  0  0  0  0  0  0  0  0
    3.5729    2.1627    0.1328 C   0  0  0  0  0  0  0  0  0  0  0  0
    2.5491    1.2355    0.0115 C   0  0  0  0  0  0  0  0  0  0  0  0
    3.8738    2.8028    1.4063 C   0  0  0  0  0  0  0  0  0  0  0  0
    4.9331    3.7426    1.4663 N   0  0  0  0  0  0  0  0  0  0  0  0
    3.2135    2.5414    2.4615 N   0  0  0  0  0  0  0  0  0  0  0  0
   -6.4510    0.9929    1.4717 H   0  0  0  0  0  0  0  0  0  0  0  0
   -6.2222    2.5276    0.5664 H   0  0  0  0  0  0  0  0  0  0  0  0
   -5.6380    1.0016   -0.1270 H   0  0  0  0  0  0  0  0  0  0  0  0
   -2.7845    2.8766    1.0060 H   0  0  0  0  0  0  0  0  0  0  0  0
   -4.1280    3.0808   -0.1412 H   0  0  0  0  0  0  0  0  0  0  0  0
   -2.2312    1.8861   -1.1222 H   0  0  0  0  0  0  0  0  0  0  0  0
   -3.7136    0.8359   -1.0528 H   0  0  0  0  0  0  0  0  0  0  0  0
   -2.0268    0.9680    2.3266 H   0  0  0  0  0  0  0  0  0  0  0  0
   -2.2713   -0.8072    2.0565 H   0  0  0  0  0  0  0  0  0  0  0  0
   -4.5491   -0.4181    1.2932 H   0  0  0  0  0  0  0  0  0  0  0  0
   -4.2373    0.2827    2.9088 H   0  0  0  0  0  0  0  0  0  0  0  0
    0.9363   -0.4349   -2.4283 H   0  0  0  0  0  0  0  0  0  0  0  0
    3.5382   -1.1131   -0.7391 H   0  0  0  0  0  0  0  0  0  0  0  0
    4.3387   -3.3095   -0.0698 H   0  0  0  0  0  0  0  0  0  0  0  0
    2.8066   -5.2547    0.1600 H   0  0  0  0  0  0  0  0  0  0  0  0
    0.4149   -4.8762   -0.3107 H   0  0  0  0  0  0  0  0  0  0  0  0
   -1.0145   -4.9369   -1.6171 H   0  0  0  0  0  0  0  0  0  0  0  0
   -3.5452   -4.6500   -1.8810 H   0  0  0  0  0  0  0  0  0  0  0  0
    2.7985    0.4902   -3.2290 H   0  0  0  0  0  0  0  0  0  0  0  0
    4.6162    2.1251   -3.0512 H   0  0  0  0  0  0  0  0  0  0  0  0
    5.1416    3.2287   -0.8751 H   0  0  0  0  0  0  0  0  0  0  0  0
    1.9955    1.0219    0.9146 H   0  0  0  0  0  0  0  0  0  0  0  0
    4.8031    4.6656    1.9380 H   0  0  0  0  0  0  0  0  0  0  0  0
    5.8373    3.4807    1.0265 H   0  0  0  0  0  0  0  0  0  0  0  0
    3.3855    2.9676    3.3925 H   0  0  0  0  0  0  0  0  0  0  0  0
  1  2  1  0
  2  3  1  0
  3  4  1  0
  4  5  1  0
  5  6  1  0
  6  7  1  0
  5  8  1  0
  8  9  2  0
  9 10  1  0
 10 11  1  0
 11 12  2  0
 12 13  1  0
 13 14  2  0
 14 15  1  0
 15 16  2  0
 16 17  1  0
 17 18  1  0
 18 19  2  0
 19 20  1  0
 20 21  1  0
 10 22  1  0
 22 23  2  0
 23 24  1  0
 24 25  2  0
 25 26  1  0
 26 27  2  0
 26 28  1  0
 28 29  1  0
 28 30  2  3
  7  2  1  0
 21  8  1  0
 27 22  1  0
 16 11  1  0
 21 17  2  0
  1 31  1  0
  1 32  1  0
  1 33  1  0
  3 34  1  0
  3 35  1  0
  4 36  1  0
  4 37  1  0
  6 38  1  0
  6 39  1  0
  7 40  1  0
  7 41  1  0
 10 42  1  0
 12 43  1  0
 13 44  1  0
 14 45  1  0
 15 46  1  0
 18 47  1  0
 19 48  1  0
 23 49  1  0
 24 50  1  0
 25 51  1  0
 27 52  1  0
 29 53  1  0
 29 54  1  0
 30 55  1  0
M  END
$$$$
[H]O[C@@](C(=O)N1C([H])([H])C([H])([H])N(C(=O)c2c([H])c([H])c(C(F)(F)F)c([H])c2[H])[C@]([H])(C([H])([H])[H])C1([H])[H])(C([H])([H])[H])C(F)(F)F
     RDKit          3D

 46 47  0  0  0  0  0  0  0  0999 V2000
    0.4747   -0.3979   -1.6659 C   0  0  0  0  0  0  0  0  0  0  0  0
   -0.1739   -0.7025   -0.3912 C   0  0  2  0  0  0  0  0  0  0  0  0
   -1.1223    0.4134    0.1438 C   0  0  0  0  0  0  0  0  0  0  0  0
   -2.1361   -0.3892    0.8008 N   0  0  0  0  0  0  0  0  0  0  0  0
   -1.7287   -1.3622    1.7933 C   0  0  0  0  0  0  0  0  0  0  0  0
   -0.4488   -2.0775    1.5444 C   0  0  0  0  0  0  0  0  0  0  0  0
    0.4783   -1.2154    0.7307 N   0  0  0  0  0  0  0  0  0  0  0  0
    1.7545   -1.0885    1.2229 C   0  0  0  0  0  0  0  0  0  0  0  0
    2.0460   -1.8345    2.3068 O   0  0  0  0  0  0  0  0  0  0  0  0
    2.9167   -0.3258    0.8420 C   0  0  0  0  0  0  0  0  0  0  0  0
    2.8700    0.8587    0.1671 C   0  0  0  0  0  0  0  0  0  0  0  0
    4.0192    1.4878   -0.3210 C   0  0  0  0  0  0  0  0  0  0  0  0
    5.2352    0.9050   -0.1125 C   0  0  0  0  0  0  0  0  0  0  0  0
    5.2931   -0.2786    0.5653 C   0  0  0  0  0  0  0  0  0  0  0  0
    4.1754   -0.8857    1.0341 C   0  0  0  0  0  0  0  0  0  0  0  0
    6.5074    1.5236   -0.6367 C   0  0  0  0  0  0  0  0  0  0  0  0
    7.6075    1.0215    0.0096 F   0  0  0  0  0  0  0  0  0  0  0  0
    6.4307    2.8790   -0.5293 F   0  0  0  0  0  0  0  0  0  0  0  0
    6.6072    1.1817   -1.9791 F   0  0  0  0  0  0  0  0  0  0  0  0
   -3.4918   -0.2578    0.4972 C   0  0  0  0  0  0  0  0  0  0  0  0
   -4.2859   -1.0956    1.0812 O   0  0  0  0  0  0  0  0  0  0  0  0
   -4.1858    0.6851   -0.3907 C   0  0  1  0  0  0  0  0  0  0  0  0
   -5.4874    1.0879    0.3089 C   0  0  0  0  0  0  0  0  0  0  0  0
   -3.5001    1.8245   -0.7259 O   0  0  0  0  0  0  0  0  0  0  0  0
   -4.6408   -0.0157   -1.6861 C   0  0  0  0  0  0  0  0  0  0  0  0
   -5.4875   -1.0699   -1.4302 F   0  0  0  0  0  0  0  0  0  0  0  0
   -3.5370   -0.3556   -2.4269 F   0  0  0  0  0  0  0  0  0  0  0  0
   -5.4148    0.8881   -2.4258 F   0  0  0  0  0  0  0  0  0  0  0  0
    1.4022   -0.9497   -1.8535 H   0  0  0  0  0  0  0  0  0  0  0  0
   -0.1766   -0.7020   -2.5561 H   0  0  0  0  0  0  0  0  0  0  0  0
    0.5829    0.7161   -1.8538 H   0  0  0  0  0  0  0  0  0  0  0  0
   -1.0181   -1.4887   -0.7279 H   0  0  0  0  0  0  0  0  0  0  0  0
   -0.5528    1.0041    0.8946 H   0  0  0  0  0  0  0  0  0  0  0  0
   -1.4235    0.9746   -0.7301 H   0  0  0  0  0  0  0  0  0  0  0  0
   -2.5100   -2.1607    1.9184 H   0  0  0  0  0  0  0  0  0  0  0  0
   -1.7080   -0.8544    2.8044 H   0  0  0  0  0  0  0  0  0  0  0  0
   -0.5619   -2.9952    0.9291 H   0  0  0  0  0  0  0  0  0  0  0  0
    0.0762   -2.3179    2.5039 H   0  0  0  0  0  0  0  0  0  0  0  0
    1.9445    1.4009    0.0212 H   0  0  0  0  0  0  0  0  0  0  0  0
    3.9530    2.4383   -0.8638 H   0  0  0  0  0  0  0  0  0  0  0  0
    6.3071   -0.7096    0.7223 H   0  0  0  0  0  0  0  0  0  0  0  0
    4.2432   -1.8135    1.5585 H   0  0  0  0  0  0  0  0  0  0  0  0
   -5.2462    1.4952    1.2954 H   0  0  0  0  0  0  0  0  0  0  0  0
   -6.0576    0.1386    0.4281 H   0  0  0  0  0  0  0  0  0  0  0  0
   -6.0754    1.7985   -0.2896 H   0  0  0  0  0  0  0  0  0  0  0  0
   -3.9543    2.6215   -0.3587 H   0  0  0  0  0  0  0  0  0  0  0  0
  1  2  1  0
  2  3  1  0
  3  4  1  0
  4  5  1  0
  5  6  1  0
  6  7  1  0
  7  8  1  0
  8  9  2  0
  8 10  1  0
 10 11  2  0
 11 12  1  0
 12 13  2  0
 13 14  1  0
 14 15  2  0
 13 16  1  0
 16 17  1  0
 16 18  1  0
 16 19  1  0
  4 20  1  0
 20 21  2  0
 20 22  1  0
 22 23  1  0
 22 24  1  6
 22 25  1  0
 25 26  1  0
 25 27  1  0
 25 28  1  0
  7  2  1  0
 15 10  1  0
  1 29  1  0
  1 30  1  0
  1 31  1  0
  2 32  1  6
  3 33  1  0
  3 34  1  0
  5 35  1  0
  5 36  1  0
  6 37  1  0
  6 38  1  0
 11 39  1  0
 12 40  1  0
 14 41  1  0
 15 42  1  0
 23 43  1  0
 23 44  1  0
 23 45  1  0
 24 46  1  0
M  END
$$$$
[H]OC(=O)C([H])([H])C([H])([H])C1([H])C([H])([H])C([H])([H])C([H])([H])C([H])(c2c([H])c([H])c(-c3c([H])c([H])c(Cl)c(C(F)(F)F)c3[H])c([H])c2[H])[C@]([H])(O[H])C(C([H])([H])[H])(C([H])([H])[H])C1([H])[H]
     RDKit          3D

 63 65  0  0  0  0  0  0  0  0999 V2000
    2.8244   -2.0015   -0.2211 C   0  0  0  0  0  0  0  0  0  0  0  0
    2.2940   -1.0698   -1.2625 C   0  0  0  0  0  0  0  0  0  0  0  0
    2.1145   -2.0738   -2.4616 C   0  0  0  0  0  0  0  0  0  0  0  0
    0.8431   -0.8214   -0.9936 C   0  0  1  0  0  0  0  0  0  0  0  0
    0.2515   -2.0757   -0.8193 O   0  0  0  0  0  0  0  0  0  0  0  0
    0.5147   -0.0245    0.2186 C   0  0  0  0  0  0  0  0  0  0  0  0
    0.9612    1.4147    0.0721 C   0  0  0  0  0  0  0  0  0  0  0  0
    2.2827    1.4971    0.7848 C   0  0  0  0  0  0  0  0  0  0  0  0
    3.3337    1.8919   -0.1608 C   0  0  0  0  0  0  0  0  0  0  0  0
    3.9414    0.9703   -1.1147 C   0  0  0  0  0  0  0  0  0  0  0  0
    5.3884    0.6278   -0.9957 C   0  0  0  0  0  0  0  0  0  0  0  0
    6.0075   -0.0045    0.1373 C   0  0  0  0  0  0  0  0  0  0  0  0
    5.9759    0.6694    1.4483 C   0  0  0  0  0  0  0  0  0  0  0  0
    6.8449    1.7474    1.6735 O   0  0  0  0  0  0  0  0  0  0  0  0
    5.2285    0.3644    2.4043 O   0  0  0  0  0  0  0  0  0  0  0  0
    3.1048   -0.0326   -1.8124 C   0  0  0  0  0  0  0  0  0  0  0  0
   -0.9700    0.0064    0.3162 C   0  0  0  0  0  0  0  0  0  0  0  0
   -1.6818   -0.6045    1.3128 C   0  0  0  0  0  0  0  0  0  0  0  0
   -3.0498   -0.5193    1.3273 C   0  0  0  0  0  0  0  0  0  0  0  0
   -3.7578    0.1775    0.3497 C   0  0  0  0  0  0  0  0  0  0  0  0
   -3.0156    0.7821   -0.6404 C   0  0  0  0  0  0  0  0  0  0  0  0
   -1.6401    0.7035   -0.6659 C   0  0  0  0  0  0  0  0  0  0  0  0
   -5.2218    0.2504    0.3902 C   0  0  0  0  0  0  0  0  0  0  0  0
   -5.9469    0.3425   -0.7791 C   0  0  0  0  0  0  0  0  0  0  0  0
   -7.3167    0.4111   -0.7914 C   0  0  0  0  0  0  0  0  0  0  0  0
   -7.9861    0.3861    0.4209 C   0  0  0  0  0  0  0  0  0  0  0  0
   -9.7246    0.4696    0.4935 Cl  0  0  0  0  0  0  0  0  0  0  0  0
   -7.2929    0.2946    1.6086 C   0  0  0  0  0  0  0  0  0  0  0  0
   -5.9239    0.2285    1.5710 C   0  0  0  0  0  0  0  0  0  0  0  0
   -8.0421    0.2714    2.9155 C   0  0  0  0  0  0  0  0  0  0  0  0
   -7.1126    0.1718    3.9328 F   0  0  0  0  0  0  0  0  0  0  0  0
   -8.7710    1.4232    3.0433 F   0  0  0  0  0  0  0  0  0  0  0  0
   -8.8728   -0.8321    2.8711 F   0  0  0  0  0  0  0  0  0  0  0  0
    2.2827   -2.9969   -0.2319 H   0  0  0  0  0  0  0  0  0  0  0  0
    2.6582   -1.6366    0.8101 H   0  0  0  0  0  0  0  0  0  0  0  0
    3.8809   -2.2963   -0.4270 H   0  0  0  0  0  0  0  0  0  0  0  0
    3.1484   -2.4176   -2.6858 H   0  0  0  0  0  0  0  0  0  0  0  0
    1.5480   -2.9414   -2.1292 H   0  0  0  0  0  0  0  0  0  0  0  0
    1.7313   -1.5287   -3.3222 H   0  0  0  0  0  0  0  0  0  0  0  0
    0.3256   -0.3522   -1.8602 H   0  0  0  0  0  0  0  0  0  0  0  0
    0.3470   -2.2975    0.1417 H   0  0  0  0  0  0  0  0  0  0  0  0
    0.8838   -0.4956    1.1562 H   0  0  0  0  0  0  0  0  0  0  0  0
    0.1956    2.1306    0.4797 H   0  0  0  0  0  0  0  0  0  0  0  0
    1.0381    1.6652   -1.0056 H   0  0  0  0  0  0  0  0  0  0  0  0
    2.1805    2.3673    1.5096 H   0  0  0  0  0  0  0  0  0  0  0  0
    2.4847    0.6473    1.4457 H   0  0  0  0  0  0  0  0  0  0  0  0
    4.1804    2.3370    0.4530 H   0  0  0  0  0  0  0  0  0  0  0  0
    2.9029    2.8504   -0.6157 H   0  0  0  0  0  0  0  0  0  0  0  0
    4.0749    1.7188   -2.0112 H   0  0  0  0  0  0  0  0  0  0  0  0
    6.0549    1.5473   -1.1834 H   0  0  0  0  0  0  0  0  0  0  0  0
    5.6070    0.0526   -1.9571 H   0  0  0  0  0  0  0  0  0  0  0  0
    5.7598   -1.0608    0.3601 H   0  0  0  0  0  0  0  0  0  0  0  0
    7.1254   -0.0787   -0.0899 H   0  0  0  0  0  0  0  0  0  0  0  0
    7.7858    1.7780    1.3486 H   0  0  0  0  0  0  0  0  0  0  0  0
    2.4392    0.5033   -2.5610 H   0  0  0  0  0  0  0  0  0  0  0  0
    3.8670   -0.5303   -2.5020 H   0  0  0  0  0  0  0  0  0  0  0  0
   -1.1021   -1.1443    2.0678 H   0  0  0  0  0  0  0  0  0  0  0  0
   -3.6083   -1.0044    2.1168 H   0  0  0  0  0  0  0  0  0  0  0  0
   -3.5505    1.3355   -1.4197 H   0  0  0  0  0  0  0  0  0  0  0  0
   -1.1286    1.2081   -1.4804 H   0  0  0  0  0  0  0  0  0  0  0  0
   -5.4606    0.3655   -1.7551 H   0  0  0  0  0  0  0  0  0  0  0  0
   -7.8712    0.4845   -1.7322 H   0  0  0  0  0  0  0  0  0  0  0  0
   -5.3655    0.1551    2.5070 H   0  0  0  0  0  0  0  0  0  0  0  0
  1  2  1  0
  2  3  1  0
  2  4  1  0
  4  5  1  0
  4  6  1  0
  6  7  1  0
  7  8  1  0
  8  9  1  0
  9 10  1  0
 10 11  1  0
 11 12  1  0
 12 13  1  0
 13 14  1  0
 13 15  2  0
 10 16  1  0
  6 17  1  0
 17 18  2  0
 18 19  1  0
 19 20  2  0
 20 21  1  0
 21 22  2  0
 20 23  1  0
 23 24  2  0
 24 25  1  0
 25 26  2  0
 26 27  1  0
 26 28  1  0
 28 29  2  0
 28 30  1  0
 30 31  1  0
 30 32  1  0
 30 33  1  0
 16  2  1  0
 22 17  1  0
 29 23  1  0
  1 34  1  0
  1 35  1  0
  1 36  1  0
  3 37  1  0
  3 38  1  0
  3 39  1  0
  4 40  1  6
  5 41  1  0
  6 42  1  0
  7 43  1  0
  7 44  1  0
  8 45  1  0
  8 46  1  0
  9 47  1  0
  9 48  1  0
 10 49  1  0
 11 50  1  0
 11 51  1  0
 12 52  1  0
 12 53  1  0
 14 54  1  0
 16 55  1  0
 16 56  1  0
 18 57  1  0
 19 58  1  0
 21 59  1  0
 22 60  1  0
 24 61  1  0
 25 62  1  0
 29 63  1  0
M  END
$$$$
[H]c1nc(C(C#N)(C([H])([H])[H])C([H])([H])[H])c([H])c(C(=O)N([H])c2c([H])nc(C([H])([H])[H])c(-c3nn(C([H])([H])[H])c(=O)c(N4C([H])([H])C([H])([H])OC([H])([H])C4([H])[H])c3[H])c2[H])c1[H]
     RDKit          3D

 62 65  0  0  0  0  0  0  0  0999 V2000
   -2.4983   -0.7684    2.9625 C   0  0  0  0  0  0  0  0  0  0  0  0
   -1.2240   -0.5800    2.1743 C   0  0  0  0  0  0  0  0  0  0  0  0
   -0.1012   -0.3989    2.8756 N   0  0  0  0  0  0  0  0  0  0  0  0
    1.0735   -0.3043    2.2764 C   0  0  0  0  0  0  0  0  0  0  0  0
    1.1177   -0.3979    0.8654 C   0  0  0  0  0  0  0  0  0  0  0  0
    2.4008   -0.3880    0.3457 N   0  0  0  0  0  0  0  0  0  0  0  0
    3.0535    0.3707   -0.6018 C   0  0  0  0  0  0  0  0  0  0  0  0
    2.5174    1.3029   -1.2136 O   0  0  0  0  0  0  0  0  0  0  0  0
    4.4798   -0.0050   -0.8450 C   0  0  0  0  0  0  0  0  0  0  0  0
    4.7223   -1.2896   -1.3044 C   0  0  0  0  0  0  0  0  0  0  0  0
    6.0379   -1.7365   -1.4382 C   0  0  0  0  0  0  0  0  0  0  0  0
    7.0206   -0.9054   -1.1190 N   0  0  0  0  0  0  0  0  0  0  0  0
    6.8453    0.3655   -0.6636 C   0  0  0  0  0  0  0  0  0  0  0  0
    5.5239    0.8000   -0.5333 C   0  0  0  0  0  0  0  0  0  0  0  0
    8.0055    1.1546   -0.3046 C   0  0  0  0  0  0  0  0  0  0  0  0
    9.2368    0.2103   -0.2895 C   0  0  0  0  0  0  0  0  0  0  0  0
    8.3930    2.2617   -1.2383 C   0  0  0  0  0  0  0  0  0  0  0  0
    7.9215    1.7371    1.0625 C   0  0  0  0  0  0  0  0  0  0  0  0
    7.8833    2.1859    2.1246 N   0  0  0  0  0  0  0  0  0  0  0  0
   -0.0343   -0.5816    0.1366 C   0  0  0  0  0  0  0  0  0  0  0  0
   -1.2548   -0.6804    0.7720 C   0  0  0  0  0  0  0  0  0  0  0  0
   -2.5478   -0.9810    0.1639 C   0  0  0  0  0  0  0  0  0  0  0  0
   -3.5852   -0.0445    0.0968 C   0  0  0  0  0  0  0  0  0  0  0  0
   -4.8443   -0.3310   -0.4179 C   0  0  0  0  0  0  0  0  0  0  0  0
   -5.8990    0.6547   -0.4282 N   0  0  0  0  0  0  0  0  0  0  0  0
   -5.5578    2.0246   -0.1274 C   0  0  0  0  0  0  0  0  0  0  0  0
   -6.7521    2.7927    0.3731 C   0  0  0  0  0  0  0  0  0  0  0  0
   -7.7772    2.5962   -0.5489 O   0  0  0  0  0  0  0  0  0  0  0  0
   -8.2860    1.3103   -0.4572 C   0  0  0  0  0  0  0  0  0  0  0  0
   -7.2408    0.2522   -0.7215 C   0  0  0  0  0  0  0  0  0  0  0  0
   -5.0400   -1.6054   -0.8747 C   0  0  0  0  0  0  0  0  0  0  0  0
   -6.1410   -1.9858   -1.3624 O   0  0  0  0  0  0  0  0  0  0  0  0
   -4.0115   -2.4981   -0.8022 N   0  0  0  0  0  0  0  0  0  0  0  0
   -4.2965   -3.8373   -1.2770 C   0  0  0  0  0  0  0  0  0  0  0  0
   -2.8244   -2.2130   -0.3134 N   0  0  0  0  0  0  0  0  0  0  0  0
   -2.8614   -1.8063    2.7630 H   0  0  0  0  0  0  0  0  0  0  0  0
   -3.2383   -0.0450    2.6347 H   0  0  0  0  0  0  0  0  0  0  0  0
   -2.3200   -0.5735    4.0431 H   0  0  0  0  0  0  0  0  0  0  0  0
    1.9573   -0.1631    2.8721 H   0  0  0  0  0  0  0  0  0  0  0  0
    3.0380   -1.1872    0.7971 H   0  0  0  0  0  0  0  0  0  0  0  0
    3.8880   -1.9512   -1.5639 H   0  0  0  0  0  0  0  0  0  0  0  0
    6.2410   -2.7359   -1.7872 H   0  0  0  0  0  0  0  0  0  0  0  0
    5.3579    1.7827   -0.1780 H   0  0  0  0  0  0  0  0  0  0  0  0
    9.4229   -0.0665   -1.3610 H   0  0  0  0  0  0  0  0  0  0  0  0
    8.9893   -0.6726    0.3205 H   0  0  0  0  0  0  0  0  0  0  0  0
   10.0587    0.7788    0.1489 H   0  0  0  0  0  0  0  0  0  0  0  0
    8.6961    1.8744   -2.2402 H   0  0  0  0  0  0  0  0  0  0  0  0
    9.3855    2.6737   -0.8368 H   0  0  0  0  0  0  0  0  0  0  0  0
    7.7415    3.1343   -1.2601 H   0  0  0  0  0  0  0  0  0  0  0  0
   -0.0176   -0.6565   -0.9516 H   0  0  0  0  0  0  0  0  0  0  0  0
   -3.3232    0.9256    0.4692 H   0  0  0  0  0  0  0  0  0  0  0  0
   -4.7315    2.1381    0.6114 H   0  0  0  0  0  0  0  0  0  0  0  0
   -5.2331    2.4565   -1.1212 H   0  0  0  0  0  0  0  0  0  0  0  0
   -6.4822    3.8713    0.3235 H   0  0  0  0  0  0  0  0  0  0  0  0
   -6.9839    2.4629    1.3860 H   0  0  0  0  0  0  0  0  0  0  0  0
   -9.1407    1.2446   -1.1924 H   0  0  0  0  0  0  0  0  0  0  0  0
   -8.7535    1.2080    0.5486 H   0  0  0  0  0  0  0  0  0  0  0  0
   -7.5061   -0.5912   -0.0481 H   0  0  0  0  0  0  0  0  0  0  0  0
   -7.4135   -0.0418   -1.7897 H   0  0  0  0  0  0  0  0  0  0  0  0
   -5.3394   -3.9292   -1.6689 H   0  0  0  0  0  0  0  0  0  0  0  0
   -3.6342   -4.0509   -2.1201 H   0  0  0  0  0  0  0  0  0  0  0  0
   -4.1141   -4.5672   -0.4787 H   0  0  0  0  0  0  0  0  0  0  0  0
  1  2  1  0
  2  3  2  0
  3  4  1  0
  4  5  2  0
  5  6  1  0
  6  7  1  0
  7  8  2  0
  7  9  1  0
  9 10  2  0
 10 11  1  0
 11 12  2  0
 12 13  1  0
 13 14  2  0
 13 15  1  0
 15 16  1  0
 15 17  1  0
 15 18  1  0
 18 19  3  0
  5 20  1  0
 20 21  2  0
 21 22  1  0
 22 23  1  0
 23 24  2  0
 24 25  1  0
 25 26  1  0
 26 27  1  0
 27 28  1  0
 28 29  1  0
 29 30  1  0
 24 31  1  0
 31 32  2  0
 31 33  1  0
 33 34  1  0
 33 35  1  0
 21  2  1  0
 35 22  2  0
 14  9  1  0
 30 25  1  0
  1 36  1  0
  1 37  1  0
  1 38  1  0
  4 39  1  0
  6 40  1  0
 10 41  1  0
 11 42  1  0
 14 43  1  0
 16 44  1  0
 16 45  1  0
 16 46  1  0
 17 47  1  0
 17 48  1  0
 17 49  1  0
 20 50  1  0
 23 51  1  0
 26 52  1  0
 26 53  1  0
 27 54  1  0
 27 55  1  0
 29 56  1  0
 29 57  1  0
 30 58  1  0
 30 59  1  0
 34 60  1  0
 34 61  1  0
 34 62  1  0
M  END
$$$$
[H]c1nc([H])c(-n2c(=O)c3c(C([H])([H])[H])c4c(N([H])C(C([H])([H])[H])(C([H])([H])[H])C([H])([H])[H])c(F)c([H])c([H])c4nc3n(C([H])([H])[H])c2=O)c(C([H])([H])[H])c1[H]
     RDKit          3D

 55 58  0  0  0  0  0  0  0  0999 V2000
   -0.7416    1.1844   -0.3872 C   0  0  0  0  0  0  0  0  0  0  0  0
   -0.4884   -0.1836    0.0220 C   0  0  0  0  0  0  0  0  0  0  0  0
   -1.4467   -1.1615   -0.1316 C   0  0  0  0  0  0  0  0  0  0  0  0
   -2.7642   -0.8482   -0.4027 C   0  0  0  0  0  0  0  0  0  0  0  0
   -3.2989    0.4100   -0.3254 N   0  0  0  0  0  0  0  0  0  0  0  0
   -4.4289    1.0777   -0.9297 C   0  0  0  0  0  0  0  0  0  0  0  0
   -4.5893    0.8642   -2.3991 C   0  0  0  0  0  0  0  0  0  0  0  0
   -4.1519    2.6371   -0.8748 C   0  0  0  0  0  0  0  0  0  0  0  0
   -5.6996    1.0182   -0.1191 C   0  0  0  0  0  0  0  0  0  0  0  0
   -3.6177   -1.9394   -0.5385 C   0  0  0  0  0  0  0  0  0  0  0  0
   -4.8835   -1.7230   -0.8257 F   0  0  0  0  0  0  0  0  0  0  0  0
   -3.2160   -3.2564   -0.4081 C   0  0  0  0  0  0  0  0  0  0  0  0
   -1.9091   -3.5168   -0.1273 C   0  0  0  0  0  0  0  0  0  0  0  0
   -1.0435   -2.4932    0.0112 C   0  0  0  0  0  0  0  0  0  0  0  0
    0.2211   -2.7991    0.2961 N   0  0  0  0  0  0  0  0  0  0  0  0
    1.1641   -1.8841    0.4630 C   0  0  0  0  0  0  0  0  0  0  0  0
    2.4380   -2.2049    0.7902 N   0  0  0  0  0  0  0  0  0  0  0  0
    2.7783   -3.5986    0.9215 C   0  0  0  0  0  0  0  0  0  0  0  0
    3.3510   -1.2428    0.9847 C   0  0  0  0  0  0  0  0  0  0  0  0
    4.5245   -1.6603    1.2891 O   0  0  0  0  0  0  0  0  0  0  0  0
    3.0463    0.0475    0.8668 N   0  0  0  0  0  0  0  0  0  0  0  0
    4.0121    1.0395    1.0756 C   0  0  0  0  0  0  0  0  0  0  0  0
    3.9340    1.8596    2.1936 C   0  0  0  0  0  0  0  0  0  0  0  0
    4.8965    2.7892    2.3273 N   0  0  0  0  0  0  0  0  0  0  0  0
    5.9024    2.9533    1.4490 C   0  0  0  0  0  0  0  0  0  0  0  0
    5.9659    2.1301    0.3427 C   0  0  0  0  0  0  0  0  0  0  0  0
    5.0163    1.1495    0.1309 C   0  0  0  0  0  0  0  0  0  0  0  0
    5.1088    0.2767   -1.0693 C   0  0  0  0  0  0  0  0  0  0  0  0
    1.7695    0.4360    0.5357 C   0  0  0  0  0  0  0  0  0  0  0  0
    1.5281    1.6648    0.4448 O   0  0  0  0  0  0  0  0  0  0  0  0
    0.8347   -0.5347    0.3314 C   0  0  0  0  0  0  0  0  0  0  0  0
   -1.4186    1.2683   -1.3241 H   0  0  0  0  0  0  0  0  0  0  0  0
    0.1672    1.4467   -1.0766 H   0  0  0  0  0  0  0  0  0  0  0  0
   -0.8176    1.9903    0.2895 H   0  0  0  0  0  0  0  0  0  0  0  0
   -2.8945    1.0621    0.4239 H   0  0  0  0  0  0  0  0  0  0  0  0
   -3.8095    0.1506   -2.7997 H   0  0  0  0  0  0  0  0  0  0  0  0
   -5.6171    0.4556   -2.6350 H   0  0  0  0  0  0  0  0  0  0  0  0
   -4.4981    1.7571   -3.0419 H   0  0  0  0  0  0  0  0  0  0  0  0
   -3.3274    2.8460   -1.5571 H   0  0  0  0  0  0  0  0  0  0  0  0
   -5.0941    3.1138   -1.1688 H   0  0  0  0  0  0  0  0  0  0  0  0
   -3.9022    2.7937    0.1964 H   0  0  0  0  0  0  0  0  0  0  0  0
   -6.1081    2.0138    0.1965 H   0  0  0  0  0  0  0  0  0  0  0  0
   -6.5679    0.5961   -0.7069 H   0  0  0  0  0  0  0  0  0  0  0  0
   -5.5723    0.4971    0.8691 H   0  0  0  0  0  0  0  0  0  0  0  0
   -3.9427   -4.0506   -0.5308 H   0  0  0  0  0  0  0  0  0  0  0  0
   -1.6172   -4.5729   -0.0250 H   0  0  0  0  0  0  0  0  0  0  0  0
    1.9465   -4.1623    1.3447 H   0  0  0  0  0  0  0  0  0  0  0  0
    3.7029   -3.7142    1.5373 H   0  0  0  0  0  0  0  0  0  0  0  0
    3.0514   -4.0404   -0.0791 H   0  0  0  0  0  0  0  0  0  0  0  0
    3.1245    1.7277    2.9006 H   0  0  0  0  0  0  0  0  0  0  0  0
    6.6724    3.7264    1.5929 H   0  0  0  0  0  0  0  0  0  0  0  0
    6.7830    2.2805   -0.3492 H   0  0  0  0  0  0  0  0  0  0  0  0
    4.1555   -0.1558   -1.3725 H   0  0  0  0  0  0  0  0  0  0  0  0
    5.4358    0.9467   -1.9176 H   0  0  0  0  0  0  0  0  0  0  0  0
    5.9356   -0.4676   -0.9710 H   0  0  0  0  0  0  0  0  0  0  0  0
  1  2  1  0
  2  3  2  0
  3  4  1  0
  4  5  1  0
  5  6  1  0
  6  7  1  0
  6  8  1  0
  6  9  1  0
  4 10  2  0
 10 11  1  0
 10 12  1  0
 12 13  2  0
 13 14  1  0
 14 15  2  0
 15 16  1  0
 16 17  1  0
 17 18  1  0
 17 19  1  0
 19 20  2  0
 19 21  1  0
 21 22  1  0
 22 23  2  0
 23 24  1  0
 24 25  2  0
 25 26  1  0
 26 27  2  0
 27 28  1  0
 21 29  1  0
 29 30  2  0
 29 31  1  0
 31  2  1  0
 14  3  1  0
 31 16  2  0
 27 22  1  0
  1 32  1  0
  1 33  1  0
  1 34  1  0
  5 35  1  0
  7 36  1  0
  7 37  1  0
  7 38  1  0
  8 39  1  0
  8 40  1  0
  8 41  1  0
  9 42  1  0
  9 43  1  0
  9 44  1  0
 12 45  1  0
 13 46  1  0
 18 47  1  0
 18 48  1  0
 18 49  1  0
 23 50  1  0
 25 51  1  0
 26 52  1  0
 28 53  1  0
 28 54  1  0
 28 55  1  0
M  END
$$$$
[H]C([H])=C([H])C(=O)N([H])C([H])([H])c1c([H])c([H])c(Cl)c(N([H])c2nc([H])c([H])c(-c3c([H])n([H])c4nc([H])c(-c5c([H])nn(C6([H])C([H])([H])C([H])([H])N([H])C([H])([H])C6([H])[H])c5[H])c([H])c34)n2)c1[H]
     RDKit          3D

 68 73  0  0  0  0  0  0  0  0999 V2000
    5.3971    5.1823    1.4721 Cl  0  0  0  0  0  0  0  0  0  0  0  0
    5.5925    3.4893    1.0731 C   0  0  0  0  0  0  0  0  0  0  0  0
    6.8140    2.8984    1.2085 C   0  0  0  0  0  0  0  0  0  0  0  0
    7.0326    1.5852    0.9150 C   0  0  0  0  0  0  0  0  0  0  0  0
    5.9892    0.8231    0.4662 C   0  0  0  0  0  0  0  0  0  0  0  0
    6.1401   -0.6305    0.1203 C   0  0  0  0  0  0  0  0  0  0  0  0
    7.4645   -1.1158    0.4463 N   0  0  0  0  0  0  0  0  0  0  0  0
    7.8399   -1.4080    1.7778 C   0  0  0  0  0  0  0  0  0  0  0  0
    6.9778   -1.2335    2.6931 O   0  0  0  0  0  0  0  0  0  0  0  0
    9.1586   -1.8938    2.1284 C   0  0  0  0  0  0  0  0  0  0  0  0
   10.1202   -2.1080    1.2688 C   0  0  0  0  0  0  0  0  0  0  0  0
    4.7429    1.4450    0.3331 C   0  0  0  0  0  0  0  0  0  0  0  0
    4.5062    2.7450    0.6186 C   0  0  0  0  0  0  0  0  0  0  0  0
    3.2598    3.3800    0.4895 N   0  0  0  0  0  0  0  0  0  0  0  0
    2.0305    2.8907    0.0525 C   0  0  0  0  0  0  0  0  0  0  0  0
    0.9593    3.7396    0.0284 N   0  0  0  0  0  0  0  0  0  0  0  0
   -0.2501    3.3494   -0.3793 C   0  0  0  0  0  0  0  0  0  0  0  0
   -0.4287    2.0232   -0.7976 C   0  0  0  0  0  0  0  0  0  0  0  0
    0.6123    1.1463   -0.7872 C   0  0  0  0  0  0  0  0  0  0  0  0
    1.8012    1.6624   -0.3496 N   0  0  0  0  0  0  0  0  0  0  0  0
    0.6445   -0.2193   -1.2207 C   0  0  0  0  0  0  0  0  0  0  0  0
    1.7962   -0.9351   -1.6153 C   0  0  0  0  0  0  0  0  0  0  0  0
    1.4618   -2.1860   -1.9178 N   0  0  0  0  0  0  0  0  0  0  0  0
    0.1252   -2.3468   -1.7421 C   0  0  0  0  0  0  0  0  0  0  0  0
   -0.7021   -3.3888   -1.8900 N   0  0  0  0  0  0  0  0  0  0  0  0
   -2.0205   -3.3379   -1.6410 C   0  0  0  0  0  0  0  0  0  0  0  0
   -2.6012   -2.1703   -1.2064 C   0  0  0  0  0  0  0  0  0  0  0  0
   -1.7441   -1.0730   -1.0486 C   0  0  0  0  0  0  0  0  0  0  0  0
   -0.3896   -1.1181   -1.3047 C   0  0  0  0  0  0  0  0  0  0  0  0
   -4.0201   -2.0478   -0.9175 C   0  0  0  0  0  0  0  0  0  0  0  0
   -5.0130   -2.7410   -1.5653 C   0  0  0  0  0  0  0  0  0  0  0  0
   -6.1983   -2.3511   -1.0110 N   0  0  0  0  0  0  0  0  0  0  0  0
   -5.9704   -1.4511   -0.0544 N   0  0  0  0  0  0  0  0  0  0  0  0
   -4.6433   -1.2524    0.0178 C   0  0  0  0  0  0  0  0  0  0  0  0
   -6.9781   -0.7857    0.7804 C   0  0  0  0  0  0  0  0  0  0  0  0
   -6.5840    0.6551    1.0008 C   0  0  0  0  0  0  0  0  0  0  0  0
   -7.6015    1.5813    0.3935 C   0  0  0  0  0  0  0  0  0  0  0  0
   -8.9447    1.3029    0.8553 N   0  0  0  0  0  0  0  0  0  0  0  0
   -9.3746   -0.0289    0.5502 C   0  0  0  0  0  0  0  0  0  0  0  0
   -8.2959   -0.9567    0.1018 C   0  0  0  0  0  0  0  0  0  0  0  0
    7.6670    3.4829    1.5647 H   0  0  0  0  0  0  0  0  0  0  0  0
    8.0257    1.1348    1.0308 H   0  0  0  0  0  0  0  0  0  0  0  0
    5.4084   -1.1990    0.7485 H   0  0  0  0  0  0  0  0  0  0  0  0
    5.8964   -0.8043   -0.9399 H   0  0  0  0  0  0  0  0  0  0  0  0
    8.1471   -1.2477   -0.3335 H   0  0  0  0  0  0  0  0  0  0  0  0
    9.3775   -2.0981    3.1716 H   0  0  0  0  0  0  0  0  0  0  0  0
    9.9570   -1.9233    0.2325 H   0  0  0  0  0  0  0  0  0  0  0  0
   11.0911   -2.4709    1.5716 H   0  0  0  0  0  0  0  0  0  0  0  0
    3.9704    0.7842   -0.0229 H   0  0  0  0  0  0  0  0  0  0  0  0
    3.2353    4.4297    0.7751 H   0  0  0  0  0  0  0  0  0  0  0  0
   -1.0692    4.0485   -0.3838 H   0  0  0  0  0  0  0  0  0  0  0  0
   -1.3976    1.7299   -1.1548 H   0  0  0  0  0  0  0  0  0  0  0  0
    2.7651   -0.4949   -1.6502 H   0  0  0  0  0  0  0  0  0  0  0  0
    2.1027   -2.9601   -2.2456 H   0  0  0  0  0  0  0  0  0  0  0  0
   -2.6839   -4.1895   -1.7646 H   0  0  0  0  0  0  0  0  0  0  0  0
   -2.2026   -0.1629   -0.6819 H   0  0  0  0  0  0  0  0  0  0  0  0
   -4.9768   -3.4641   -2.3574 H   0  0  0  0  0  0  0  0  0  0  0  0
   -4.1692   -0.5561    0.7260 H   0  0  0  0  0  0  0  0  0  0  0  0
   -6.9544   -1.2956    1.7773 H   0  0  0  0  0  0  0  0  0  0  0  0
   -6.4043    0.8881    2.0726 H   0  0  0  0  0  0  0  0  0  0  0  0
   -5.6180    0.8568    0.4820 H   0  0  0  0  0  0  0  0  0  0  0  0
   -7.5629    1.4607   -0.7016 H   0  0  0  0  0  0  0  0  0  0  0  0
   -7.3648    2.6239    0.6881 H   0  0  0  0  0  0  0  0  0  0  0  0
   -9.0706    1.5759    1.8473 H   0  0  0  0  0  0  0  0  0  0  0  0
  -10.1008    0.0614   -0.3101 H   0  0  0  0  0  0  0  0  0  0  0  0
   -9.9927   -0.4378    1.3965 H   0  0  0  0  0  0  0  0  0  0  0  0
   -8.1399   -0.8883   -0.9947 H   0  0  0  0  0  0  0  0  0  0  0  0
   -8.6420   -2.0037    0.3124 H   0  0  0  0  0  0  0  0  0  0  0  0
  1  2  1  0
  2  3  2  0
  3  4  1  0
  4  5  2  0
  5  6  1  0
  6  7  1  0
  7  8  1  0
  8  9  2  0
  8 10  1  0
 10 11  2  3
  5 12  1  0
 12 13  2  0
 13 14  1  0
 14 15  1  0
 15 16  2  0
 16 17  1  0
 17 18  2  0
 18 19  1  0
 19 20  2  0
 19 21  1  0
 21 22  2  0
 22 23  1  0
 23 24  1  0
 24 25  2  0
 25 26  1  0
 26 27  2  0
 27 28  1  0
 28 29  2  0
 27 30  1  0
 30 31  1  0
 31 32  2  0
 32 33  1  0
 33 34  1  0
 33 35  1  0
 35 36  1  0
 36 37  1  0
 37 38  1  0
 38 39  1  0
 39 40  1  0
 13  2  1  0
 20 15  1  0
 29 21  1  0
 34 30  2  0
 40 35  1  0
 29 24  1  0
  3 41  1  0
  4 42  1  0
  6 43  1  0
  6 44  1  0
  7 45  1  0
 10 46  1  0
 11 47  1  0
 11 48  1  0
 12 49  1  0
 14 50  1  0
 17 51  1  0
 18 52  1  0
 22 53  1  0
 23 54  1  0
 26 55  1  0
 28 56  1  0
 31 57  1  0
 34 58  1  0
 35 59  1  0
 36 60  1  0
 36 61  1  0
 37 62  1  0
 37 63  1  0
 38 64  1  0
 39 65  1  0
 39 66  1  0
 40 67  1  0
 40 68  1  0
M  END
$$$$
[H]O[C@]1([H])[C@@]([H])(C([H])([H])OS(=O)(=O)N([H])C(=O)[C@@]([H])(N([H])[H])C([H])([H])C([H])(C([H])([H])[H])C([H])([H])[H])O[C@@]([H])(n2c([H])nc3c(N([H])[H])nc([H])nc32)[C@]1([H])O[H]
     RDKit          3D

 56 58  0  0  0  0  0  0  0  0999 V2000
   -7.6282    1.2650    1.5023 C   0  0  0  0  0  0  0  0  0  0  0  0
   -7.1072    0.3956    0.3697 C   0  0  0  0  0  0  0  0  0  0  0  0
   -7.8314    0.7583   -0.8779 C   0  0  0  0  0  0  0  0  0  0  0  0
   -5.6094    0.4616    0.2946 C   0  0  0  0  0  0  0  0  0  0  0  0
   -5.0199   -0.3450   -0.7972 C   0  0  2  0  0  0  0  0  0  0  0  0
   -5.2972   -1.7599   -0.7414 N   0  0  0  0  0  0  0  0  0  0  0  0
   -3.5413   -0.1884   -0.8015 C   0  0  0  0  0  0  0  0  0  0  0  0
   -2.9707    0.3462    0.1773 O   0  0  0  0  0  0  0  0  0  0  0  0
   -2.8011   -0.6481   -1.9173 N   0  0  0  0  0  0  0  0  0  0  0  0
   -1.0869   -0.5332   -2.0472 S   0  0  0  0  0  0  0  0  0  0  0  0
   -0.6821    0.3788   -3.1727 O   0  0  0  0  0  0  0  0  0  0  0  0
   -0.4884   -1.8934   -2.3857 O   0  0  0  0  0  0  0  0  0  0  0  0
   -0.4706   -0.0589   -0.5853 O   0  0  0  0  0  0  0  0  0  0  0  0
    0.8204   -0.5460   -0.3675 C   0  0  0  0  0  0  0  0  0  0  0  0
    1.3903   -0.1175    0.9655 C   0  0  1  0  0  0  0  0  0  0  0  0
    2.6573   -0.6600    1.0791 O   0  0  0  0  0  0  0  0  0  0  0  0
    3.6042    0.3343    0.9274 C   0  0  2  0  0  0  0  0  0  0  0  0
    2.8841    1.5149    0.2814 C   0  0  2  0  0  0  0  0  0  0  0  0
    3.5099    2.7168    0.4862 O   0  0  0  0  0  0  0  0  0  0  0  0
    1.5660    1.3904    1.0662 C   0  0  2  0  0  0  0  0  0  0  0  0
    1.7910    1.7486    2.3746 O   0  0  0  0  0  0  0  0  0  0  0  0
    4.7731   -0.0793    0.2182 N   0  0  0  0  0  0  0  0  0  0  0  0
    4.8612   -0.5380   -1.0273 C   0  0  0  0  0  0  0  0  0  0  0  0
    6.1604   -0.8229   -1.3209 N   0  0  0  0  0  0  0  0  0  0  0  0
    6.9259   -0.5392   -0.2361 C   0  0  0  0  0  0  0  0  0  0  0  0
    8.2755   -0.6319    0.0219 C   0  0  0  0  0  0  0  0  0  0  0  0
    9.1877   -1.1155   -0.9500 N   0  0  0  0  0  0  0  0  0  0  0  0
    8.7088   -0.2513    1.2458 N   0  0  0  0  0  0  0  0  0  0  0  0
    7.8648    0.2015    2.1809 C   0  0  0  0  0  0  0  0  0  0  0  0
    6.5532    0.2838    1.9110 N   0  0  0  0  0  0  0  0  0  0  0  0
    6.0355   -0.0727    0.7213 C   0  0  0  0  0  0  0  0  0  0  0  0
   -7.1132    2.2725    1.4659 H   0  0  0  0  0  0  0  0  0  0  0  0
   -8.7153    1.5302    1.3328 H   0  0  0  0  0  0  0  0  0  0  0  0
   -7.5670    0.7909    2.4830 H   0  0  0  0  0  0  0  0  0  0  0  0
   -7.3655   -0.6567    0.6834 H   0  0  0  0  0  0  0  0  0  0  0  0
   -7.3933    0.3540   -1.8089 H   0  0  0  0  0  0  0  0  0  0  0  0
   -7.9813    1.8612   -0.9165 H   0  0  0  0  0  0  0  0  0  0  0  0
   -8.8544    0.2844   -0.8090 H   0  0  0  0  0  0  0  0  0  0  0  0
   -5.3188    1.5277    0.1669 H   0  0  0  0  0  0  0  0  0  0  0  0
   -5.2102    0.1661    1.2839 H   0  0  0  0  0  0  0  0  0  0  0  0
   -5.3544    0.0928   -1.7732 H   0  0  0  0  0  0  0  0  0  0  0  0
   -5.0631   -2.2914   -1.5835 H   0  0  0  0  0  0  0  0  0  0  0  0
   -5.0668   -2.1950    0.1662 H   0  0  0  0  0  0  0  0  0  0  0  0
   -3.3120   -1.0765   -2.7150 H   0  0  0  0  0  0  0  0  0  0  0  0
    0.6986   -1.6649   -0.2978 H   0  0  0  0  0  0  0  0  0  0  0  0
    1.4989   -0.3645   -1.2175 H   0  0  0  0  0  0  0  0  0  0  0  0
    0.6865   -0.4215    1.7533 H   0  0  0  0  0  0  0  0  0  0  0  0
    3.8887    0.7166    1.9527 H   0  0  0  0  0  0  0  0  0  0  0  0
    2.7347    1.2346   -0.7829 H   0  0  0  0  0  0  0  0  0  0  0  0
    3.8480    3.0665   -0.3897 H   0  0  0  0  0  0  0  0  0  0  0  0
    0.7598    1.9658    0.6255 H   0  0  0  0  0  0  0  0  0  0  0  0
    1.8704    0.9316    2.9290 H   0  0  0  0  0  0  0  0  0  0  0  0
    4.0147   -0.6576   -1.6834 H   0  0  0  0  0  0  0  0  0  0  0  0
    9.8021   -0.4687   -1.4673 H   0  0  0  0  0  0  0  0  0  0  0  0
    9.2208   -2.1545   -1.1307 H   0  0  0  0  0  0  0  0  0  0  0  0
    8.2569    0.4889    3.1375 H   0  0  0  0  0  0  0  0  0  0  0  0
  1  2  1  0
  2  3  1  0
  2  4  1  0
  4  5  1  0
  5  6  1  0
  5  7  1  0
  7  8  2  0
  7  9  1  0
  9 10  1  0
 10 11  2  0
 10 12  2  0
 10 13  1  0
 13 14  1  0
 14 15  1  0
 15 16  1  0
 16 17  1  0
 17 18  1  0
 18 19  1  0
 18 20  1  0
 20 21  1  0
 17 22  1  0
 22 23  1  0
 23 24  2  0
 24 25  1  0
 25 26  2  0
 26 27  1  0
 26 28  1  0
 28 29  2  0
 29 30  1  0
 30 31  2  0
 20 15  1  0
 31 22  1  0
 31 25  1  0
  1 32  1  0
  1 33  1  0
  1 34  1  0
  2 35  1  0
  3 36  1  0
  3 37  1  0
  3 38  1  0
  4 39  1  0
  4 40  1  0
  5 41  1  6
  6 42  1  0
  6 43  1  0
  9 44  1  0
 14 45  1  0
 14 46  1  0
 15 47  1  1
 17 48  1  1
 18 49  1  6
 19 50  1  0
 20 51  1  6
 21 52  1  0
 23 53  1  0
 27 54  1  0
 27 55  1  0
 29 56  1  0
M  END
$$$$
[H]OC([H])([H])c1c(-c2noc(-c3c([H])c([H])c([H])c(N([H])[H])c3[H])c2C([H])([H])[H])c([H])c([H])c([H])c1-n1c([H])c([H])c2c([H])c(C3([H])C([H])([H])C4([H])N(C(=O)OC(C([H])([H])[H])(C([H])([H])[H])C([H])([H])[H])C([H])(C([H])([H])C4([H])[H])C3([H])[H])c([H])c(F)c2c1=O
     RDKit          3D

 87 93  0  0  0  0  0  0  0  0999 V2000
    7.8871   -0.6264    0.6726 C   0  0  0  0  0  0  0  0  0  0  0  0
    7.4508   -0.0304   -0.5883 C   0  0  0  0  0  0  0  0  0  0  0  0
    6.3167   -0.4501   -1.3145 C   0  0  0  0  0  0  0  0  0  0  0  0
    6.3004    0.3677   -2.3747 N   0  0  0  0  0  0  0  0  0  0  0  0
    7.2740    1.1941   -2.3465 O   0  0  0  0  0  0  0  0  0  0  0  0
    8.0383    1.0085   -1.2596 C   0  0  0  0  0  0  0  0  0  0  0  0
    9.2044    1.8180   -0.9937 C   0  0  0  0  0  0  0  0  0  0  0  0
    9.5322    2.8282   -1.9094 C   0  0  0  0  0  0  0  0  0  0  0  0
   10.6027    3.6622   -1.7706 C   0  0  0  0  0  0  0  0  0  0  0  0
   11.4308    3.5295   -0.6767 C   0  0  0  0  0  0  0  0  0  0  0  0
   11.1570    2.5572    0.2506 C   0  0  0  0  0  0  0  0  0  0  0  0
   11.9956    2.4122    1.3757 N   0  0  0  0  0  0  0  0  0  0  0  0
   10.0444    1.7166    0.0731 C   0  0  0  0  0  0  0  0  0  0  0  0
    5.3910   -1.5247   -0.9408 C   0  0  0  0  0  0  0  0  0  0  0  0
    5.8022   -2.8219   -0.8223 C   0  0  0  0  0  0  0  0  0  0  0  0
    4.8871   -3.7867   -0.4835 C   0  0  0  0  0  0  0  0  0  0  0  0
    3.5706   -3.4409   -0.2676 C   0  0  0  0  0  0  0  0  0  0  0  0
    3.1216   -2.1173   -0.3828 C   0  0  0  0  0  0  0  0  0  0  0  0
    4.0491   -1.1687   -0.7214 C   0  0  0  0  0  0  0  0  0  0  0  0
    3.6535    0.2356   -0.8635 C   0  0  0  0  0  0  0  0  0  0  0  0
    2.3373    0.5374   -0.5995 O   0  0  0  0  0  0  0  0  0  0  0  0
    1.7445   -1.9111   -0.1343 N   0  0  0  0  0  0  0  0  0  0  0  0
    0.8720   -1.9918   -1.1816 C   0  0  0  0  0  0  0  0  0  0  0  0
   -0.4859   -1.8208   -1.0424 C   0  0  0  0  0  0  0  0  0  0  0  0
   -1.0161   -1.5517    0.2195 C   0  0  0  0  0  0  0  0  0  0  0  0
   -2.3751   -1.3735    0.3744 C   0  0  0  0  0  0  0  0  0  0  0  0
   -2.9011   -1.1028    1.6239 C   0  0  0  0  0  0  0  0  0  0  0  0
   -2.0011   -1.0263    2.6720 C   0  0  0  0  0  0  0  0  0  0  0  0
   -0.6465   -1.2033    2.5214 C   0  0  0  0  0  0  0  0  0  0  0  0
    0.2387   -1.1290    3.5465 F   0  0  0  0  0  0  0  0  0  0  0  0
   -0.1196   -1.4760    1.2567 C   0  0  0  0  0  0  0  0  0  0  0  0
    1.2439   -1.6487    1.1117 C   0  0  0  0  0  0  0  0  0  0  0  0
    2.0445   -1.5733    2.0849 O   0  0  0  0  0  0  0  0  0  0  0  0
   -4.3493   -0.8895    1.8507 C   0  0  0  0  0  0  0  0  0  0  0  0
   -5.2256   -1.8874    1.1750 C   0  0  0  0  0  0  0  0  0  0  0  0
   -6.6534   -1.5632    1.5198 C   0  0  0  0  0  0  0  0  0  0  0  0
   -6.7812   -1.1676    2.9969 C   0  0  0  0  0  0  0  0  0  0  0  0
   -6.4563    0.2941    3.0539 C   0  0  0  0  0  0  0  0  0  0  0  0
   -6.1964    0.6908    1.6261 C   0  0  0  0  0  0  0  0  0  0  0  0
   -4.7207    0.4957    1.3487 C   0  0  0  0  0  0  0  0  0  0  0  0
   -6.9929   -0.3007    0.8950 N   0  0  0  0  0  0  0  0  0  0  0  0
   -7.8863   -0.0253   -0.1830 C   0  0  0  0  0  0  0  0  0  0  0  0
   -8.5289   -0.9290   -0.7618 O   0  0  0  0  0  0  0  0  0  0  0  0
   -8.0558    1.2787   -0.6093 O   0  0  0  0  0  0  0  0  0  0  0  0
   -8.9411    1.5403   -1.6735 C   0  0  0  0  0  0  0  0  0  0  0  0
  -10.3454    1.1094   -1.3806 C   0  0  0  0  0  0  0  0  0  0  0  0
   -8.4803    1.0173   -2.9938 C   0  0  0  0  0  0  0  0  0  0  0  0
   -8.9839    3.0711   -1.7992 C   0  0  0  0  0  0  0  0  0  0  0  0
    7.2271   -1.4926    0.9274 H   0  0  0  0  0  0  0  0  0  0  0  0
    7.9215    0.0841    1.5367 H   0  0  0  0  0  0  0  0  0  0  0  0
    8.8972   -1.0623    0.5626 H   0  0  0  0  0  0  0  0  0  0  0  0
    8.9123    2.9637   -2.7749 H   0  0  0  0  0  0  0  0  0  0  0  0
   10.8467    4.4367   -2.4793 H   0  0  0  0  0  0  0  0  0  0  0  0
   12.2947    4.1911   -0.5500 H   0  0  0  0  0  0  0  0  0  0  0  0
   12.5538    3.1900    1.7658 H   0  0  0  0  0  0  0  0  0  0  0  0
   12.0554    1.4826    1.8336 H   0  0  0  0  0  0  0  0  0  0  0  0
    9.8851    0.9838    0.8224 H   0  0  0  0  0  0  0  0  0  0  0  0
    6.8580   -3.0556   -1.0024 H   0  0  0  0  0  0  0  0  0  0  0  0
    5.1758   -4.8290   -0.3793 H   0  0  0  0  0  0  0  0  0  0  0  0
    2.8662   -4.2179   -0.0011 H   0  0  0  0  0  0  0  0  0  0  0  0
    3.9118    0.5938   -1.9192 H   0  0  0  0  0  0  0  0  0  0  0  0
    4.2826    0.8871   -0.2020 H   0  0  0  0  0  0  0  0  0  0  0  0
    2.0505    1.3276   -1.1427 H   0  0  0  0  0  0  0  0  0  0  0  0
    1.2471   -2.1994   -2.1759 H   0  0  0  0  0  0  0  0  0  0  0  0
   -1.1816   -1.8835   -1.8672 H   0  0  0  0  0  0  0  0  0  0  0  0
   -3.0469   -1.4404   -0.4668 H   0  0  0  0  0  0  0  0  0  0  0  0
   -2.4026   -0.8144    3.6551 H   0  0  0  0  0  0  0  0  0  0  0  0
   -4.5199   -0.8932    2.9442 H   0  0  0  0  0  0  0  0  0  0  0  0
   -4.9754   -2.9277    1.4032 H   0  0  0  0  0  0  0  0  0  0  0  0
   -5.1448   -1.7796    0.0567 H   0  0  0  0  0  0  0  0  0  0  0  0
   -7.3681   -2.3576    1.2608 H   0  0  0  0  0  0  0  0  0  0  0  0
   -7.8524   -1.2858    3.2674 H   0  0  0  0  0  0  0  0  0  0  0  0
   -6.1968   -1.8052    3.6574 H   0  0  0  0  0  0  0  0  0  0  0  0
   -5.6614    0.5728    3.7550 H   0  0  0  0  0  0  0  0  0  0  0  0
   -7.3511    0.9068    3.3767 H   0  0  0  0  0  0  0  0  0  0  0  0
   -6.5038    1.7191    1.3973 H   0  0  0  0  0  0  0  0  0  0  0  0
   -4.1799    1.2494    1.9547 H   0  0  0  0  0  0  0  0  0  0  0  0
   -4.5315    0.5999    0.2658 H   0  0  0  0  0  0  0  0  0  0  0  0
  -10.5724    0.1073   -1.8458 H   0  0  0  0  0  0  0  0  0  0  0  0
  -10.5930    1.1119   -0.2990 H   0  0  0  0  0  0  0  0  0  0  0  0
  -11.0388    1.8155   -1.8796 H   0  0  0  0  0  0  0  0  0  0  0  0
   -8.6189   -0.0934   -3.0893 H   0  0  0  0  0  0  0  0  0  0  0  0
   -9.0182    1.5725   -3.7976 H   0  0  0  0  0  0  0  0  0  0  0  0
   -7.3971    1.2437   -3.1483 H   0  0  0  0  0  0  0  0  0  0  0  0
   -9.9510    3.3882   -2.2289 H   0  0  0  0  0  0  0  0  0  0  0  0
   -8.1078    3.3577   -2.4147 H   0  0  0  0  0  0  0  0  0  0  0  0
   -8.8199    3.5263   -0.7936 H   0  0  0  0  0  0  0  0  0  0  0  0
  1  2  1  0
  2  3  1  0
  3  4  2  0
  4  5  1  0
  5  6  1  0
  6  7  1  0
  7  8  2  0
  8  9  1  0
  9 10  2  0
 10 11  1  0
 11 12  1  0
 11 13  2  0
  3 14  1  0
 14 15  2  0
 15 16  1  0
 16 17  2  0
 17 18  1  0
 18 19  2  0
 19 20  1  0
 20 21  1  0
 18 22  1  0
 22 23  1  0
 23 24  2  0
 24 25  1  0
 25 26  2  0
 26 27  1  0
 27 28  2  0
 28 29  1  0
 29 30  1  0
 29 31  2  0
 31 32  1  0
 32 33  2  0
 27 34  1  0
 34 35  1  0
 35 36  1  0
 36 37  1  0
 37 38  1  0
 38 39  1  0
 39 40  1  0
 39 41  1  0
 41 42  1  0
 42 43  2  0
 42 44  1  0
 44 45  1  0
 45 46  1  0
 45 47  1  0
 45 48  1  0
  6  2  2  0
 13  7  1  0
 19 14  1  0
 32 22  1  0
 40 34  1  0
 31 25  1  0
 41 36  1  0
  1 49  1  0
  1 50  1  0
  1 51  1  0
  8 52  1  0
  9 53  1  0
 10 54  1  0
 12 55  1  0
 12 56  1  0
 13 57  1  0
 15 58  1  0
 16 59  1  0
 17 60  1  0
 20 61  1  0
 20 62  1  0
 21 63  1  0
 23 64  1  0
 24 65  1  0
 26 66  1  0
 28 67  1  0
 34 68  1  0
 35 69  1  0
 35 70  1  0
 36 71  1  0
 37 72  1  0
 37 73  1  0
 38 74  1  0
 38 75  1  0
 39 76  1  0
 40 77  1  0
 40 78  1  0
 46 79  1  0
 46 80  1  0
 46 81  1  0
 47 82  1  0
 47 83  1  0
 47 84  1  0
 48 85  1  0
 48 86  1  0
 48 87  1  0
M  END
$$$$
[H]Oc1c([H])c([H])c(C([H])([H])[C@@]([H])(C(=O)N([H])[C@@]([H])(C(=O)N([H])C([H])([H])C(=O)N([H])[C@]([H])(C(=O)N([H])N([H])C(=O)[C@@]([H])(N([H])C(=O)[C@]([H])(N([H])C(=O)[C@@]([H])(N([H])[H])C([H])([H])c2c([H])c([H])c(O[H])c([H])c2[H])C([H])([H])[H])C([H])([H])c2c([H])c([H])c(O[H])c([H])c2[H])C([H])([H])c2c([H])c([H])c([H])c([H])c2[H])C([H])([H])[H])N([H])[H])c([H])c1[H]
     RDKit          3D

116119  0  0  0  0  0  0  0  0999 V2000
    9.2228   -0.9466    2.3571 C   0  0  0  0  0  0  0  0  0  0  0  0
    8.1095   -0.2811    1.5342 C   0  0  1  0  0  0  0  0  0  0  0  0
    8.4516   -0.4148    0.1122 N   0  0  0  0  0  0  0  0  0  0  0  0
    8.4679    0.6791   -0.7664 C   0  0  0  0  0  0  0  0  0  0  0  0
    8.2220    1.8467   -0.4085 O   0  0  0  0  0  0  0  0  0  0  0  0
    8.7864    0.4346   -2.2249 C   0  0  1  0  0  0  0  0  0  0  0  0
    8.5737    1.6766   -2.9454 N   0  0  0  0  0  0  0  0  0  0  0  0
   10.2102   -0.0233   -2.4031 C   0  0  0  0  0  0  0  0  0  0  0  0
   11.2215    0.9559   -1.9866 C   0  0  0  0  0  0  0  0  0  0  0  0
   11.6845    1.0875   -0.7027 C   0  0  0  0  0  0  0  0  0  0  0  0
   12.6332    2.0485   -0.3780 C   0  0  0  0  0  0  0  0  0  0  0  0
   13.1574    2.9117   -1.3105 C   0  0  0  0  0  0  0  0  0  0  0  0
   14.1091    3.8845   -1.0054 O   0  0  0  0  0  0  0  0  0  0  0  0
   12.6933    2.7786   -2.6075 C   0  0  0  0  0  0  0  0  0  0  0  0
   11.7445    1.8264   -2.9649 C   0  0  0  0  0  0  0  0  0  0  0  0
    6.8588   -1.1439    1.6510 C   0  0  0  0  0  0  0  0  0  0  0  0
    7.0259   -2.1657    0.8053 O   0  0  0  0  0  0  0  0  0  0  0  0
    5.8028   -1.0065    2.3865 N   0  0  0  0  0  0  0  0  0  0  0  0
    4.5863   -0.9012    3.1942 C   0  0  0  0  0  0  0  0  0  0  0  0
    3.5208   -0.7572    2.1894 C   0  0  0  0  0  0  0  0  0  0  0  0
    3.9117   -0.5042    0.9729 O   0  0  0  0  0  0  0  0  0  0  0  0
    2.1276   -0.8922    2.3773 N   0  0  0  0  0  0  0  0  0  0  0  0
    1.2523   -0.7851    1.2596 C   0  0  1  0  0  0  0  0  0  0  0  0
    1.5120   -2.1576    0.4289 C   0  0  0  0  0  0  0  0  0  0  0  0
    1.1954   -3.3251    1.2140 C   0  0  0  0  0  0  0  0  0  0  0  0
    2.0511   -3.9308    2.0974 C   0  0  0  0  0  0  0  0  0  0  0  0
    1.6754   -5.0425    2.8117 C   0  0  0  0  0  0  0  0  0  0  0  0
    0.4243   -5.6079    2.6781 C   0  0  0  0  0  0  0  0  0  0  0  0
   -0.4503   -5.0111    1.7887 C   0  0  0  0  0  0  0  0  0  0  0  0
   -0.0757   -3.9004    1.0757 C   0  0  0  0  0  0  0  0  0  0  0  0
   -0.1811   -0.9038    1.4309 C   0  0  0  0  0  0  0  0  0  0  0  0
   -0.7843   -1.2519    2.4458 O   0  0  0  0  0  0  0  0  0  0  0  0
   -0.9961   -0.6039    0.2339 N   0  0  0  0  0  0  0  0  0  0  0  0
   -2.3270   -0.8958    0.2824 N   0  0  0  0  0  0  0  0  0  0  0  0
   -3.3703   -0.4118   -0.5747 C   0  0  0  0  0  0  0  0  0  0  0  0
   -3.1077    0.4428   -1.4341 O   0  0  0  0  0  0  0  0  0  0  0  0
   -4.7145   -1.0280   -0.3509 C   0  0  2  0  0  0  0  0  0  0  0  0
   -4.5809   -2.5026   -0.9258 C   0  0  0  0  0  0  0  0  0  0  0  0
   -4.1945   -2.4042   -2.3661 C   0  0  0  0  0  0  0  0  0  0  0  0
   -5.1704   -2.2904   -3.3583 C   0  0  0  0  0  0  0  0  0  0  0  0
   -4.8277   -2.1227   -4.6690 C   0  0  0  0  0  0  0  0  0  0  0  0
   -3.5168   -2.0667   -5.0403 C   0  0  0  0  0  0  0  0  0  0  0  0
   -3.1592   -1.8922   -6.3991 O   0  0  0  0  0  0  0  0  0  0  0  0
   -2.5353   -2.1826   -4.0827 C   0  0  0  0  0  0  0  0  0  0  0  0
   -2.8692   -2.3536   -2.7306 C   0  0  0  0  0  0  0  0  0  0  0  0
   -5.8214   -0.4127   -0.9857 N   0  0  0  0  0  0  0  0  0  0  0  0
   -6.9607   -0.1858   -0.2679 C   0  0  0  0  0  0  0  0  0  0  0  0
   -6.8820   -0.5619    1.0260 O   0  0  0  0  0  0  0  0  0  0  0  0
   -8.3086    0.3837   -0.5494 C   0  0  1  0  0  0  0  0  0  0  0  0
   -9.1571   -0.8318   -1.0502 C   0  0  0  0  0  0  0  0  0  0  0  0
   -8.9298    0.7452    0.7028 N   0  0  0  0  0  0  0  0  0  0  0  0
   -9.9337    1.7189    0.7862 C   0  0  0  0  0  0  0  0  0  0  0  0
  -10.3829    2.3021   -0.2081 O   0  0  0  0  0  0  0  0  0  0  0  0
  -10.4958    2.0847    2.1409 C   0  0  1  0  0  0  0  0  0  0  0  0
   -9.6000    1.5700    3.1696 N   0  0  0  0  0  0  0  0  0  0  0  0
  -10.6829    3.5651    2.2542 C   0  0  0  0  0  0  0  0  0  0  0  0
   -9.4448    4.3220    2.0719 C   0  0  0  0  0  0  0  0  0  0  0  0
   -9.0759    4.9885    0.9169 C   0  0  0  0  0  0  0  0  0  0  0  0
   -7.9009    5.6402    0.7865 C   0  0  0  0  0  0  0  0  0  0  0  0
   -6.9837    5.6720    1.8328 C   0  0  0  0  0  0  0  0  0  0  0  0
   -5.7910    6.3164    1.7543 O   0  0  0  0  0  0  0  0  0  0  0  0
   -7.3507    4.9996    3.0016 C   0  0  0  0  0  0  0  0  0  0  0  0
   -8.5170    4.3512    3.1317 C   0  0  0  0  0  0  0  0  0  0  0  0
   10.1141   -1.1810    1.7151 H   0  0  0  0  0  0  0  0  0  0  0  0
    9.5851   -0.1931    3.1127 H   0  0  0  0  0  0  0  0  0  0  0  0
    8.8526   -1.8374    2.8941 H   0  0  0  0  0  0  0  0  0  0  0  0
    7.9753    0.7238    1.8704 H   0  0  0  0  0  0  0  0  0  0  0  0
    8.7095   -1.3618   -0.2716 H   0  0  0  0  0  0  0  0  0  0  0  0
    8.0441   -0.3041   -2.6008 H   0  0  0  0  0  0  0  0  0  0  0  0
    8.3965    1.4848   -3.9689 H   0  0  0  0  0  0  0  0  0  0  0  0
    7.6845    2.1081   -2.5319 H   0  0  0  0  0  0  0  0  0  0  0  0
   10.3184   -0.2038   -3.5176 H   0  0  0  0  0  0  0  0  0  0  0  0
   10.4210   -0.9935   -1.9499 H   0  0  0  0  0  0  0  0  0  0  0  0
   11.3131    0.4509    0.0687 H   0  0  0  0  0  0  0  0  0  0  0  0
   12.9706    2.1132    0.6568 H   0  0  0  0  0  0  0  0  0  0  0  0
   13.7424    4.7829   -0.7506 H   0  0  0  0  0  0  0  0  0  0  0  0
   13.0757    3.4231   -3.3665 H   0  0  0  0  0  0  0  0  0  0  0  0
   11.3873    1.7277   -3.9628 H   0  0  0  0  0  0  0  0  0  0  0  0
    5.2966   -2.2056    1.9369 H   0  0  0  0  0  0  0  0  0  0  0  0
    4.6729   -0.0578    3.9230 H   0  0  0  0  0  0  0  0  0  0  0  0
    4.4345   -1.8087    3.7918 H   0  0  0  0  0  0  0  0  0  0  0  0
    1.7781   -1.0740    3.3200 H   0  0  0  0  0  0  0  0  0  0  0  0
    1.5625   -0.0415    0.5391 H   0  0  0  0  0  0  0  0  0  0  0  0
    0.7828   -2.0737   -0.4272 H   0  0  0  0  0  0  0  0  0  0  0  0
    2.5127   -2.1019    0.0491 H   0  0  0  0  0  0  0  0  0  0  0  0
    3.0872   -3.5733    2.2528 H   0  0  0  0  0  0  0  0  0  0  0  0
    2.4049   -5.4941    3.5030 H   0  0  0  0  0  0  0  0  0  0  0  0
    0.1342   -6.4927    3.2665 H   0  0  0  0  0  0  0  0  0  0  0  0
   -1.4476   -5.4455    1.6739 H   0  0  0  0  0  0  0  0  0  0  0  0
   -0.8302   -3.4985    0.3801 H   0  0  0  0  0  0  0  0  0  0  0  0
   -0.5761   -0.1740   -0.5941 H   0  0  0  0  0  0  0  0  0  0  0  0
   -2.6661   -1.5826    1.0446 H   0  0  0  0  0  0  0  0  0  0  0  0
   -4.8396   -1.2068    0.7172 H   0  0  0  0  0  0  0  0  0  0  0  0
   -3.7975   -3.0323   -0.3933 H   0  0  0  0  0  0  0  0  0  0  0  0
   -5.5410   -3.0044   -0.8953 H   0  0  0  0  0  0  0  0  0  0  0  0
   -6.2342   -2.3322   -3.0890 H   0  0  0  0  0  0  0  0  0  0  0  0
   -5.5733   -2.0226   -5.4872 H   0  0  0  0  0  0  0  0  0  0  0  0
   -3.0366   -0.9113   -6.7270 H   0  0  0  0  0  0  0  0  0  0  0  0
   -1.4882   -2.1392   -4.3455 H   0  0  0  0  0  0  0  0  0  0  0  0
   -2.0392   -2.4553   -2.0537 H   0  0  0  0  0  0  0  0  0  0  0  0
   -5.7599   -0.1299   -1.9987 H   0  0  0  0  0  0  0  0  0  0  0  0
   -8.3710    1.1541   -1.2811 H   0  0  0  0  0  0  0  0  0  0  0  0
   -8.4982   -1.7212   -1.1573 H   0  0  0  0  0  0  0  0  0  0  0  0
  -10.0399   -0.9783   -0.4174 H   0  0  0  0  0  0  0  0  0  0  0  0
   -9.4967   -0.5659   -2.0546 H   0  0  0  0  0  0  0  0  0  0  0  0
   -8.5897    0.2145    1.5680 H   0  0  0  0  0  0  0  0  0  0  0  0
  -11.4804    1.6060    2.2662 H   0  0  0  0  0  0  0  0  0  0  0  0
   -9.6881    0.5195    3.2382 H   0  0  0  0  0  0  0  0  0  0  0  0
   -8.5956    1.7374    2.8624 H   0  0  0  0  0  0  0  0  0  0  0  0
  -11.0851    3.8362    3.2686 H   0  0  0  0  0  0  0  0  0  0  0  0
  -11.4890    3.9159    1.5342 H   0  0  0  0  0  0  0  0  0  0  0  0
   -9.7740    5.0029    0.0607 H   0  0  0  0  0  0  0  0  0  0  0  0
   -7.5957    6.1734   -0.1122 H   0  0  0  0  0  0  0  0  0  0  0  0
   -5.4722    6.8335    0.9076 H   0  0  0  0  0  0  0  0  0  0  0  0
   -6.6472    5.0029    3.8492 H   0  0  0  0  0  0  0  0  0  0  0  0
   -8.7567    3.8546    4.0459 H   0  0  0  0  0  0  0  0  0  0  0  0
  1  2  1  0
  2  3  1  0
  3  4  1  0
  4  5  2  0
  4  6  1  0
  6  7  1  0
  6  8  1  0
  8  9  1  0
  9 10  2  0
 10 11  1  0
 11 12  2  0
 12 13  1  0
 12 14  1  0
 14 15  2  0
  2 16  1  0
 16 17  2  0
 16 18  1  0
 18 19  1  0
 19 20  1  0
 20 21  2  0
 20 22  1  0
 22 23  1  0
 23 24  1  0
 24 25  1  0
 25 26  2  0
 26 27  1  0
 27 28  2  0
 28 29  1  0
 29 30  2  0
 23 31  1  0
 31 32  2  0
 31 33  1  0
 33 34  1  0
 34 35  1  0
 35 36  2  0
 35 37  1  0
 37 38  1  0
 38 39  1  0
 39 40  2  0
 40 41  1  0
 41 42  2  0
 42 43  1  0
 42 44  1  0
 44 45  2  0
 37 46  1  0
 46 47  1  0
 47 48  2  0
 47 49  1  0
 49 50  1  0
 49 51  1  0
 51 52  1  0
 52 53  2  0
 52 54  1  0
 54 55  1  0
 54 56  1  0
 56 57  1  0
 57 58  2  0
 58 59  1  0
 59 60  2  0
 60 61  1  0
 60 62  1  0
 62 63  2  0
 15  9  1  0
 30 25  1  0
 45 39  1  0
 63 57  1  0
  1 64  1  0
  1 65  1  0
  1 66  1  0
  2 67  1  1
  3 68  1  0
  6 69  1  6
  7 70  1  0
  7 71  1  0
  8 72  1  0
  8 73  1  0
 10 74  1  0
 11 75  1  0
 13 76  1  0
 14 77  1  0
 15 78  1  0
 18 79  1  0
 19 80  1  0
 19 81  1  0
 22 82  1  0
 23 83  1  6
 24 84  1  0
 24 85  1  0
 26 86  1  0
 27 87  1  0
 28 88  1  0
 29 89  1  0
 30 90  1  0
 33 91  1  0
 34 92  1  0
 37 93  1  1
 38 94  1  0
 38 95  1  0
 40 96  1  0
 41 97  1  0
 43 98  1  0
 44 99  1  0
 45100  1  0
 46101  1  0
 49102  1  6
 50103  1  0
 50104  1  0
 50105  1  0
 51106  1  0
 54107  1  1
 55108  1  0
 55109  1  0
 56110  1  0
 56111  1  0
 58112  1  0
 59113  1  0
 61114  1  0
 62115  1  0
 63116  1  0
M  END
$$$$
[H]N=C(N([H])[H])N1C(=O)C([H])(C([H])([H])C([H])([H])C([H])([H])C([H])([H])N2C([H])([H])C([H])([H])OC([H])([H])C2([H])[H])N([H])C(=O)[C@@]([H])(C([H])([H])N(c2c([H])c([H])c(Oc3c([H])c([H])c(C(=O)c4c([H])c([H])c([H])c([H])c4[H])c([H])c3[H])c([H])c2[H])S(=O)(=O)N([H])[H])C(=O)N([H])C([H])(C(=O)N([H])C([H])([H])c2c([H])c([H])c([H])c([H])c2[H])C([H])([H])C1([H])[H]
     RDKit          3D

117122  0  0  0  0  0  0  0  0999 V2000
   -7.1845    1.2078   -0.2043 N   0  0  0  0  0  0  0  0  0  0  0  0
   -5.9303    1.1699   -0.8519 C   0  0  0  0  0  0  0  0  0  0  0  0
   -5.7570    1.3719   -2.0910 N   0  0  0  0  0  0  0  0  0  0  0  0
   -4.8000    0.8530    0.0240 N   0  0  0  0  0  0  0  0  0  0  0  0
   -4.5963    1.8570    1.0344 C   0  0  0  0  0  0  0  0  0  0  0  0
   -4.3040    3.2062    0.3468 C   0  0  0  0  0  0  0  0  0  0  0  0
   -2.9006    3.2616   -0.0826 C   0  0  0  0  0  0  0  0  0  0  0  0
   -2.5610    2.5423   -1.2824 N   0  0  0  0  0  0  0  0  0  0  0  0
   -1.6469    1.5337   -1.5450 C   0  0  0  0  0  0  0  0  0  0  0  0
   -1.7549    0.8135   -2.5693 O   0  0  0  0  0  0  0  0  0  0  0  0
   -0.4685    1.2353   -0.6383 C   0  0  2  0  0  0  0  0  0  0  0  0
    0.5504    0.5660   -1.5412 C   0  0  0  0  0  0  0  0  0  0  0  0
    1.8393    0.3330   -1.1518 N   0  0  0  0  0  0  0  0  0  0  0  0
    2.5958   -0.5612   -0.3858 C   0  0  0  0  0  0  0  0  0  0  0  0
    3.0646   -0.1128    0.8605 C   0  0  0  0  0  0  0  0  0  0  0  0
    4.0160   -0.8063    1.5603 C   0  0  0  0  0  0  0  0  0  0  0  0
    4.5444   -1.9894    1.0455 C   0  0  0  0  0  0  0  0  0  0  0  0
    5.5479   -2.7174    1.7339 O   0  0  0  0  0  0  0  0  0  0  0  0
    6.8466   -2.2698    1.3426 C   0  0  0  0  0  0  0  0  0  0  0  0
    7.9911   -2.9075    1.7589 C   0  0  0  0  0  0  0  0  0  0  0  0
    9.2625   -2.4712    1.3692 C   0  0  0  0  0  0  0  0  0  0  0  0
    9.4254   -1.3607    0.5380 C   0  0  0  0  0  0  0  0  0  0  0  0
    8.2711   -0.7433    0.1378 C   0  0  0  0  0  0  0  0  0  0  0  0
    6.9910   -1.1676    0.5185 C   0  0  0  0  0  0  0  0  0  0  0  0
   10.6850   -0.8715    0.0463 C   0  0  0  0  0  0  0  0  0  0  0  0
   10.7824    0.3840   -0.1983 O   0  0  0  0  0  0  0  0  0  0  0  0
   11.8663   -1.6605   -0.2080 C   0  0  0  0  0  0  0  0  0  0  0  0
   13.1290   -1.0886   -0.1344 C   0  0  0  0  0  0  0  0  0  0  0  0
   14.2695   -1.8031   -0.4223 C   0  0  0  0  0  0  0  0  0  0  0  0
   14.1522   -3.1496   -0.7996 C   0  0  0  0  0  0  0  0  0  0  0  0
   12.9115   -3.7355   -0.8787 C   0  0  0  0  0  0  0  0  0  0  0  0
   11.7988   -3.0066   -0.5888 C   0  0  0  0  0  0  0  0  0  0  0  0
    4.0770   -2.4316   -0.1648 C   0  0  0  0  0  0  0  0  0  0  0  0
    3.1243   -1.7329   -0.8644 C   0  0  0  0  0  0  0  0  0  0  0  0
    3.0154    1.5762   -1.8595 S   0  0  0  0  0  0  0  0  0  0  0  0
    3.2073    2.8036   -0.7368 N   0  0  0  0  0  0  0  0  0  0  0  0
    2.4630    2.0008   -3.1668 O   0  0  0  0  0  0  0  0  0  0  0  0
    4.2823    0.8455   -2.1006 O   0  0  0  0  0  0  0  0  0  0  0  0
   -0.9106    0.4255    0.5163 C   0  0  0  0  0  0  0  0  0  0  0  0
   -0.3382    0.8643    1.6266 O   0  0  0  0  0  0  0  0  0  0  0  0
   -1.7338   -0.6356    0.7242 N   0  0  0  0  0  0  0  0  0  0  0  0
   -3.1138   -1.0430    0.6353 C   0  0  0  0  0  0  0  0  0  0  0  0
   -3.0541   -2.5315    0.2224 C   0  0  0  0  0  0  0  0  0  0  0  0
   -4.3933   -3.1983    0.0930 C   0  0  0  0  0  0  0  0  0  0  0  0
   -4.1011   -4.5983   -0.3773 C   0  0  0  0  0  0  0  0  0  0  0  0
   -5.1882   -5.4955   -0.7441 C   0  0  0  0  0  0  0  0  0  0  0  0
   -6.1335   -5.8615    0.2724 N   0  0  0  0  0  0  0  0  0  0  0  0
   -6.9381   -6.9913   -0.2441 C   0  0  0  0  0  0  0  0  0  0  0  0
   -7.8409   -7.4643    0.8410 C   0  0  0  0  0  0  0  0  0  0  0  0
   -8.6199   -6.4275    1.2879 O   0  0  0  0  0  0  0  0  0  0  0  0
   -8.4780   -5.2776    0.5453 C   0  0  0  0  0  0  0  0  0  0  0  0
   -7.0493   -4.7892    0.5595 C   0  0  0  0  0  0  0  0  0  0  0  0
   -4.0441   -0.3177   -0.1786 C   0  0  0  0  0  0  0  0  0  0  0  0
   -4.2633   -0.8188   -1.3611 O   0  0  0  0  0  0  0  0  0  0  0  0
   -2.1567    4.5125    0.0003 C   0  0  0  0  0  0  0  0  0  0  0  0
   -1.1601    4.7114    0.8050 O   0  0  0  0  0  0  0  0  0  0  0  0
   -2.4714    5.6137   -0.8250 N   0  0  0  0  0  0  0  0  0  0  0  0
   -1.8136    6.8848   -0.8461 C   0  0  0  0  0  0  0  0  0  0  0  0
   -2.5343    7.9683   -0.1732 C   0  0  0  0  0  0  0  0  0  0  0  0
   -1.9656    9.2543   -0.1698 C   0  0  0  0  0  0  0  0  0  0  0  0
   -2.6268   10.3282    0.3573 C   0  0  0  0  0  0  0  0  0  0  0  0
   -3.8669   10.1799    0.8997 C   0  0  0  0  0  0  0  0  0  0  0  0
   -4.4573    8.9258    0.9220 C   0  0  0  0  0  0  0  0  0  0  0  0
   -3.7815    7.8931    0.3971 C   0  0  0  0  0  0  0  0  0  0  0  0
   -7.5702    2.0872    0.1943 H   0  0  0  0  0  0  0  0  0  0  0  0
   -7.7620    0.3499   -0.1133 H   0  0  0  0  0  0  0  0  0  0  0  0
   -6.6143    1.5801   -2.7060 H   0  0  0  0  0  0  0  0  0  0  0  0
   -3.7602    1.5976    1.7200 H   0  0  0  0  0  0  0  0  0  0  0  0
   -5.4781    1.9911    1.6673 H   0  0  0  0  0  0  0  0  0  0  0  0
   -4.9920    3.3787   -0.4865 H   0  0  0  0  0  0  0  0  0  0  0  0
   -4.4901    4.0221    1.1006 H   0  0  0  0  0  0  0  0  0  0  0  0
   -2.3683    2.6469    0.7944 H   0  0  0  0  0  0  0  0  0  0  0  0
   -3.1669    2.9049   -2.1196 H   0  0  0  0  0  0  0  0  0  0  0  0
   -0.0566    2.2222   -0.3941 H   0  0  0  0  0  0  0  0  0  0  0  0
    0.5450    1.1071   -2.5449 H   0  0  0  0  0  0  0  0  0  0  0  0
    0.0467   -0.4209   -1.8607 H   0  0  0  0  0  0  0  0  0  0  0  0
    2.6971    0.7812    1.2814 H   0  0  0  0  0  0  0  0  0  0  0  0
    4.3978   -0.4851    2.5318 H   0  0  0  0  0  0  0  0  0  0  0  0
    7.9037   -3.7638    2.4091 H   0  0  0  0  0  0  0  0  0  0  0  0
   10.1604   -2.9727    1.6845 H   0  0  0  0  0  0  0  0  0  0  0  0
    8.3504    0.1390   -0.5152 H   0  0  0  0  0  0  0  0  0  0  0  0
    6.1553   -0.6241    0.1549 H   0  0  0  0  0  0  0  0  0  0  0  0
   13.2551   -0.0567    0.1468 H   0  0  0  0  0  0  0  0  0  0  0  0
   15.2785   -1.3794   -0.3808 H   0  0  0  0  0  0  0  0  0  0  0  0
   15.0510   -3.6948   -1.0225 H   0  0  0  0  0  0  0  0  0  0  0  0
   12.8667   -4.7680   -1.1757 H   0  0  0  0  0  0  0  0  0  0  0  0
   10.8225   -3.4222   -0.6389 H   0  0  0  0  0  0  0  0  0  0  0  0
    4.4680   -3.3571   -0.5584 H   0  0  0  0  0  0  0  0  0  0  0  0
    2.7669   -2.1087   -1.8329 H   0  0  0  0  0  0  0  0  0  0  0  0
    4.1322    2.9624   -0.3329 H   0  0  0  0  0  0  0  0  0  0  0  0
    2.5403    3.5633   -0.6826 H   0  0  0  0  0  0  0  0  0  0  0  0
   -1.1878   -1.5219    1.1413 H   0  0  0  0  0  0  0  0  0  0  0  0
   -3.4981   -1.1488    1.7151 H   0  0  0  0  0  0  0  0  0  0  0  0
   -2.6037   -2.4748   -0.8247 H   0  0  0  0  0  0  0  0  0  0  0  0
   -2.3291   -3.0982    0.8046 H   0  0  0  0  0  0  0  0  0  0  0  0
   -5.0732   -2.7359   -0.6114 H   0  0  0  0  0  0  0  0  0  0  0  0
   -4.9115   -3.2193    1.0926 H   0  0  0  0  0  0  0  0  0  0  0  0
   -3.3578   -4.5823   -1.2368 H   0  0  0  0  0  0  0  0  0  0  0  0
   -3.4834   -5.0531    0.4702 H   0  0  0  0  0  0  0  0  0  0  0  0
   -5.7793   -5.0701   -1.6237 H   0  0  0  0  0  0  0  0  0  0  0  0
   -4.7968   -6.4756   -1.1932 H   0  0  0  0  0  0  0  0  0  0  0  0
   -6.2262   -7.7953   -0.5677 H   0  0  0  0  0  0  0  0  0  0  0  0
   -7.4888   -6.6520   -1.1094 H   0  0  0  0  0  0  0  0  0  0  0  0
   -8.4616   -8.3433    0.5051 H   0  0  0  0  0  0  0  0  0  0  0  0
   -7.2257   -7.8248    1.6992 H   0  0  0  0  0  0  0  0  0  0  0  0
   -9.0651   -4.4813    1.1165 H   0  0  0  0  0  0  0  0  0  0  0  0
   -8.8314   -5.3359   -0.4912 H   0  0  0  0  0  0  0  0  0  0  0  0
   -6.8997   -3.9744   -0.1518 H   0  0  0  0  0  0  0  0  0  0  0  0
   -6.8448   -4.4647    1.6214 H   0  0  0  0  0  0  0  0  0  0  0  0
   -3.2800    5.5214   -1.5235 H   0  0  0  0  0  0  0  0  0  0  0  0
   -1.5571    7.2018   -1.8885 H   0  0  0  0  0  0  0  0  0  0  0  0
   -0.7643    6.7753   -0.3765 H   0  0  0  0  0  0  0  0  0  0  0  0
   -0.9958    9.3632   -0.5902 H   0  0  0  0  0  0  0  0  0  0  0  0
   -2.1811   11.3355    0.3510 H   0  0  0  0  0  0  0  0  0  0  0  0
   -4.4318   11.0066    1.3205 H   0  0  0  0  0  0  0  0  0  0  0  0
   -5.4463    8.8031    1.3518 H   0  0  0  0  0  0  0  0  0  0  0  0
   -4.2305    6.8790    0.4071 H   0  0  0  0  0  0  0  0  0  0  0  0
  1  2  1  0
  2  3  2  3
  2  4  1  0
  4  5  1  0
  5  6  1  0
  6  7  1  0
  7  8  1  0
  8  9  1  0
  9 10  2  0
  9 11  1  0
 11 12  1  0
 12 13  1  0
 13 14  1  0
 14 15  2  0
 15 16  1  0
 16 17  2  0
 17 18  1  0
 18 19  1  0
 19 20  2  0
 20 21  1  0
 21 22  2  0
 22 23  1  0
 23 24  2  0
 22 25  1  0
 25 26  2  0
 25 27  1  0
 27 28  2  0
 28 29  1  0
 29 30  2  0
 30 31  1  0
 31 32  2  0
 17 33  1  0
 33 34  2  0
 13 35  1  0
 35 36  1  0
 35 37  2  0
 35 38  2  0
 11 39  1  0
 39 40  2  0
 39 41  1  0
 41 42  1  0
 42 43  1  0
 43 44  1  0
 44 45  1  0
 45 46  1  0
 46 47  1  0
 47 48  1  0
 48 49  1  0
 49 50  1  0
 50 51  1  0
 51 52  1  0
 42 53  1  0
 53 54  2  0
  7 55  1  0
 55 56  2  0
 55 57  1  0
 57 58  1  0
 58 59  1  0
 59 60  2  0
 60 61  1  0
 61 62  2  0
 62 63  1  0
 63 64  2  0
 53  4  1  0
 64 59  1  0
 34 14  1  0
 52 47  1  0
 24 19  1  0
 32 27  1  0
  1 65  1  0
  1 66  1  0
  3 67  1  0
  5 68  1  0
  5 69  1  0
  6 70  1  0
  6 71  1  0
  7 72  1  0
  8 73  1  0
 11 74  1  1
 12 75  1  0
 12 76  1  0
 15 77  1  0
 16 78  1  0
 20 79  1  0
 21 80  1  0
 23 81  1  0
 24 82  1  0
 28 83  1  0
 29 84  1  0
 30 85  1  0
 31 86  1  0
 32 87  1  0
 33 88  1  0
 34 89  1  0
 36 90  1  0
 36 91  1  0
 41 92  1  0
 42 93  1  0
 43 94  1  0
 43 95  1  0
 44 96  1  0
 44 97  1  0
 45 98  1  0
 45 99  1  0
 46100  1  0
 46101  1  0
 48102  1  0
 48103  1  0
 49104  1  0
 49105  1  0
 51106  1  0
 51107  1  0
 52108  1  0
 52109  1  0
 57110  1  0
 58111  1  0
 58112  1  0
 60113  1  0
 61114  1  0
 62115  1  0
 63116  1  0
 64117  1  0
M  END
$$$$
[H]c1c([H])c2c(c(S(=O)(=O)N([H])C(=O)[C@@]([H])(N([H])[H])C([H])([H])C([H])(C([H])([H])[H])C([H])([H])[H])c1[H])C([H])([H])C([H])([H])N2C([H])([H])[H]
     RDKit          3D

 45 46  0  0  0  0  0  0  0  0999 V2000
    4.9027    1.8143   -0.0495 C   0  0  0  0  0  0  0  0  0  0  0  0
    4.1358    0.7490    0.7938 C   0  0  0  0  0  0  0  0  0  0  0  0
    2.7746    1.4144    1.0332 C   0  0  0  0  0  0  0  0  0  0  0  0
    4.0090   -0.4898   -0.0027 C   0  0  0  0  0  0  0  0  0  0  0  0
    3.3638   -1.6842    0.5759 C   0  0  2  0  0  0  0  0  0  0  0  0
    3.4271   -2.7085   -0.5142 N   0  0  0  0  0  0  0  0  0  0  0  0
    1.9495   -1.6187    0.9404 C   0  0  0  0  0  0  0  0  0  0  0  0
    1.6175   -1.2209    2.1080 O   0  0  0  0  0  0  0  0  0  0  0  0
    0.9489   -1.9876    0.0241 N   0  0  0  0  0  0  0  0  0  0  0  0
   -0.7371   -1.9396    0.3821 S   0  0  0  0  0  0  0  0  0  0  0  0
   -1.3748   -3.1781   -0.2312 O   0  0  0  0  0  0  0  0  0  0  0  0
   -0.9559   -1.9573    1.8572 O   0  0  0  0  0  0  0  0  0  0  0  0
   -1.4237   -0.5331   -0.3698 C   0  0  0  0  0  0  0  0  0  0  0  0
   -0.6797    0.3522   -1.1238 C   0  0  0  0  0  0  0  0  0  0  0  0
   -1.2258    1.4714   -1.7219 C   0  0  0  0  0  0  0  0  0  0  0  0
   -2.5765    1.7052   -1.5502 C   0  0  0  0  0  0  0  0  0  0  0  0
   -3.3331    0.8219   -0.7939 C   0  0  0  0  0  0  0  0  0  0  0  0
   -4.7326    0.8414   -0.4676 N   0  0  0  0  0  0  0  0  0  0  0  0
   -5.5560    2.0349   -0.4667 C   0  0  0  0  0  0  0  0  0  0  0  0
   -5.1138   -0.5122   -0.1575 C   0  0  0  0  0  0  0  0  0  0  0  0
   -3.8478   -1.0366    0.5368 C   0  0  0  0  0  0  0  0  0  0  0  0
   -2.7868   -0.2967   -0.1974 C   0  0  0  0  0  0  0  0  0  0  0  0
    5.3306    2.5662    0.6416 H   0  0  0  0  0  0  0  0  0  0  0  0
    4.1886    2.3497   -0.7108 H   0  0  0  0  0  0  0  0  0  0  0  0
    5.6878    1.3412   -0.6478 H   0  0  0  0  0  0  0  0  0  0  0  0
    4.6821    0.5719    1.7313 H   0  0  0  0  0  0  0  0  0  0  0  0
    1.9881    1.0008    0.3859 H   0  0  0  0  0  0  0  0  0  0  0  0
    2.8080    2.5118    0.7305 H   0  0  0  0  0  0  0  0  0  0  0  0
    2.5167    1.4534    2.1075 H   0  0  0  0  0  0  0  0  0  0  0  0
    3.4595   -0.2332   -0.9495 H   0  0  0  0  0  0  0  0  0  0  0  0
    5.0371   -0.8090   -0.3418 H   0  0  0  0  0  0  0  0  0  0  0  0
    3.9943   -2.1345    1.3896 H   0  0  0  0  0  0  0  0  0  0  0  0
    2.7646   -3.4623   -0.2965 H   0  0  0  0  0  0  0  0  0  0  0  0
    3.1832   -2.2502   -1.4050 H   0  0  0  0  0  0  0  0  0  0  0  0
    1.2157   -2.3085   -0.9215 H   0  0  0  0  0  0  0  0  0  0  0  0
    0.3781    0.1475   -1.2409 H   0  0  0  0  0  0  0  0  0  0  0  0
   -0.5970    2.1252   -2.3002 H   0  0  0  0  0  0  0  0  0  0  0  0
   -3.0487    2.5767   -2.0026 H   0  0  0  0  0  0  0  0  0  0  0  0
   -6.5163    1.8903   -1.0052 H   0  0  0  0  0  0  0  0  0  0  0  0
   -5.7937    2.3088    0.5914 H   0  0  0  0  0  0  0  0  0  0  0  0
   -5.0492    2.8854   -0.9466 H   0  0  0  0  0  0  0  0  0  0  0  0
   -5.3239   -1.1219   -1.0641 H   0  0  0  0  0  0  0  0  0  0  0  0
   -5.9926   -0.5693    0.4943 H   0  0  0  0  0  0  0  0  0  0  0  0
   -3.8876   -0.7552    1.6001 H   0  0  0  0  0  0  0  0  0  0  0  0
   -3.8106   -2.1263    0.3579 H   0  0  0  0  0  0  0  0  0  0  0  0
  1  2  1  0
  2  3  1  0
  2  4  1  0
  4  5  1  0
  5  6  1  0
  5  7  1  0
  7  8  2  0
  7  9  1  0
  9 10  1  0
 10 11  2  0
 10 12  2  0
 10 13  1  0
 13 14  2  0
 14 15  1  0
 15 16  2  0
 16 17  1  0
 17 18  1  0
 18 19  1  0
 18 20  1  0
 20 21  1  0
 21 22  1  0
 22 13  1  0
 22 17  2  0
  1 23  1  0
  1 24  1  0
  1 25  1  0
  2 26  1  0
  3 27  1  0
  3 28  1  0
  3 29  1  0
  4 30  1  0
  4 31  1  0
  5 32  1  1
  6 33  1  0
  6 34  1  0
  9 35  1  0
 14 36  1  0
 15 37  1  0
 16 38  1  0
 19 39  1  0
 19 40  1  0
 19 41  1  0
 20 42  1  0
 20 43  1  0
 21 44  1  0
 21 45  1  0
M  END
$$$$
[H]c1c([H])c(C#N)c([H])c(-n2c(C([H])([H])[H])nc3c([H])nc(N([H])c4c([H])c(OC([H])([H])[H])c(OC([H])([H])[H])c(OC([H])([H])[H])c4[H])nc32)c1[H]
     RDKit          3D

 51 54  0  0  0  0  0  0  0  0999 V2000
    4.0609    0.2133    3.5620 C   0  0  0  0  0  0  0  0  0  0  0  0
    4.8838    0.1075    2.4295 O   0  0  0  0  0  0  0  0  0  0  0  0
    4.2744   -0.0780    1.1760 C   0  0  0  0  0  0  0  0  0  0  0  0
    2.8980   -0.1495    1.1012 C   0  0  0  0  0  0  0  0  0  0  0  0
    2.2476   -0.3286   -0.0916 C   0  0  0  0  0  0  0  0  0  0  0  0
    0.8616   -0.3858   -0.2314 N   0  0  0  0  0  0  0  0  0  0  0  0
   -0.1423    0.0258    0.6717 C   0  0  0  0  0  0  0  0  0  0  0  0
    0.0602    0.5753    1.8650 N   0  0  0  0  0  0  0  0  0  0  0  0
   -0.8455    0.9775    2.7463 C   0  0  0  0  0  0  0  0  0  0  0  0
   -2.1759    0.8102    2.3927 C   0  0  0  0  0  0  0  0  0  0  0  0
   -3.3518    1.0662    2.9583 N   0  0  0  0  0  0  0  0  0  0  0  0
   -4.3227    0.6747    2.1147 C   0  0  0  0  0  0  0  0  0  0  0  0
   -5.8104    0.7723    2.3382 C   0  0  0  0  0  0  0  0  0  0  0  0
   -3.7820    0.1638    0.9997 N   0  0  0  0  0  0  0  0  0  0  0  0
   -4.4553   -0.3624   -0.1392 C   0  0  0  0  0  0  0  0  0  0  0  0
   -4.6286   -1.7093   -0.3672 C   0  0  0  0  0  0  0  0  0  0  0  0
   -5.2760   -2.2396   -1.4610 C   0  0  0  0  0  0  0  0  0  0  0  0
   -5.7866   -1.3733   -2.3927 C   0  0  0  0  0  0  0  0  0  0  0  0
   -5.6340   -0.0086   -2.2015 C   0  0  0  0  0  0  0  0  0  0  0  0
   -4.9731    0.4993   -1.0831 C   0  0  0  0  0  0  0  0  0  0  0  0
   -6.1788    0.8549   -3.1924 C   0  0  0  0  0  0  0  0  0  0  0  0
   -6.6239    1.5729   -3.9897 N   0  0  0  0  0  0  0  0  0  0  0  0
   -2.4400    0.2408    1.1568 C   0  0  0  0  0  0  0  0  0  0  0  0
   -1.4618   -0.1364    0.3292 N   0  0  0  0  0  0  0  0  0  0  0  0
    3.0722   -0.4353   -1.2306 C   0  0  0  0  0  0  0  0  0  0  0  0
    4.4394   -0.3660   -1.1680 C   0  0  0  0  0  0  0  0  0  0  0  0
    5.2292   -0.4752   -2.3141 O   0  0  0  0  0  0  0  0  0  0  0  0
    4.5716   -0.6602   -3.5459 C   0  0  0  0  0  0  0  0  0  0  0  0
    5.0757   -0.1850    0.0402 C   0  0  0  0  0  0  0  0  0  0  0  0
    6.4419   -0.1060    0.1779 O   0  0  0  0  0  0  0  0  0  0  0  0
    7.2053    1.0595    0.1188 C   0  0  0  0  0  0  0  0  0  0  0  0
    3.3998   -0.6775    3.7004 H   0  0  0  0  0  0  0  0  0  0  0  0
    4.6787    0.3929    4.4649 H   0  0  0  0  0  0  0  0  0  0  0  0
    3.3656    1.0897    3.4983 H   0  0  0  0  0  0  0  0  0  0  0  0
    2.3531   -0.0684    2.0546 H   0  0  0  0  0  0  0  0  0  0  0  0
    0.5070   -0.8004   -1.1471 H   0  0  0  0  0  0  0  0  0  0  0  0
   -0.6325    1.4179    3.7022 H   0  0  0  0  0  0  0  0  0  0  0  0
   -5.9560    0.9100    3.4127 H   0  0  0  0  0  0  0  0  0  0  0  0
   -6.1414    1.6497    1.7600 H   0  0  0  0  0  0  0  0  0  0  0  0
   -6.3376   -0.1060    1.9223 H   0  0  0  0  0  0  0  0  0  0  0  0
   -4.2327   -2.4046    0.3565 H   0  0  0  0  0  0  0  0  0  0  0  0
   -5.3807   -3.3158   -1.5847 H   0  0  0  0  0  0  0  0  0  0  0  0
   -6.2995   -1.7625   -3.2608 H   0  0  0  0  0  0  0  0  0  0  0  0
   -4.9041    1.5753   -1.0214 H   0  0  0  0  0  0  0  0  0  0  0  0
    2.5821   -0.5786   -2.1938 H   0  0  0  0  0  0  0  0  0  0  0  0
    5.2985   -0.6376   -4.3772 H   0  0  0  0  0  0  0  0  0  0  0  0
    3.8329    0.1829   -3.6331 H   0  0  0  0  0  0  0  0  0  0  0  0
    4.0077   -1.6104   -3.4870 H   0  0  0  0  0  0  0  0  0  0  0  0
    7.5875    1.2972   -0.8950 H   0  0  0  0  0  0  0  0  0  0  0  0
    6.7120    1.9578    0.4987 H   0  0  0  0  0  0  0  0  0  0  0  0
    8.1267    0.8739    0.7448 H   0  0  0  0  0  0  0  0  0  0  0  0
  1  2  1  0
  2  3  1  0
  3  4  2  0
  4  5  1  0
  5  6  1  0
  6  7  1  0
  7  8  2  0
  8  9  1  0
  9 10  2  0
 10 11  1  0
 11 12  2  0
 12 13  1  0
 12 14  1  0
 14 15  1  0
 15 16  2  0
 16 17  1  0
 17 18  2  0
 18 19  1  0
 19 20  2  0
 19 21  1  0
 21 22  3  0
 14 23  1  0
 23 24  2  0
  5 25  2  0
 25 26  1  0
 26 27  1  0
 27 28  1  0
 26 29  2  0
 29 30  1  0
 30 31  1  0
 29  3  1  0
 24  7  1  0
 23 10  1  0
 20 15  1  0
  1 32  1  0
  1 33  1  0
  1 34  1  0
  4 35  1  0
  6 36  1  0
  9 37  1  0
 13 38  1  0
 13 39  1  0
 13 40  1  0
 16 41  1  0
 17 42  1  0
 18 43  1  0
 20 44  1  0
 25 45  1  0
 28 46  1  0
 28 47  1  0
 28 48  1  0
 31 49  1  0
 31 50  1  0
 31 51  1  0
M  END
$$$$
[H]OC(=O)C([H])([H])N(C([H])([H])c1c([H])c([H])c([H])c([H])c1F)S(=O)(=O)c1c([H])c([H])c(N([H])[H])c([H])c1[H]
     RDKit          3D

 38 39  0  0  0  0  0  0  0  0999 V2000
   -5.6168    0.8350    1.6843 N   0  0  0  0  0  0  0  0  0  0  0  0
   -4.3965    0.5177    1.0248 C   0  0  0  0  0  0  0  0  0  0  0  0
   -4.0513   -0.7730    0.7035 C   0  0  0  0  0  0  0  0  0  0  0  0
   -2.8504   -1.0335    0.0602 C   0  0  0  0  0  0  0  0  0  0  0  0
   -1.9541   -0.0403   -0.2867 C   0  0  0  0  0  0  0  0  0  0  0  0
   -2.3140    1.2500    0.0419 C   0  0  0  0  0  0  0  0  0  0  0  0
   -3.5065    1.5117    0.6811 C   0  0  0  0  0  0  0  0  0  0  0  0
   -0.4999   -0.4726   -1.0867 S   0  0  0  0  0  0  0  0  0  0  0  0
   -0.7985   -1.7142   -1.9258 O   0  0  0  0  0  0  0  0  0  0  0  0
   -0.0722    0.5630   -2.1110 O   0  0  0  0  0  0  0  0  0  0  0  0
    0.8190   -0.8576   -0.0947 N   0  0  0  0  0  0  0  0  0  0  0  0
    0.4663   -2.0108    0.7046 C   0  0  0  0  0  0  0  0  0  0  0  0
   -0.0804   -1.7048    2.0205 C   0  0  0  0  0  0  0  0  0  0  0  0
   -0.1795   -0.4050    2.4616 O   0  0  0  0  0  0  0  0  0  0  0  0
   -0.4669   -2.6260    2.7679 O   0  0  0  0  0  0  0  0  0  0  0  0
    2.0251   -1.1593   -0.8127 C   0  0  0  0  0  0  0  0  0  0  0  0
    2.8891    0.0494   -0.9916 C   0  0  0  0  0  0  0  0  0  0  0  0
    2.5795    1.2921   -0.5174 C   0  0  0  0  0  0  0  0  0  0  0  0
    3.3929    2.3961   -0.6885 C   0  0  0  0  0  0  0  0  0  0  0  0
    4.5796    2.2229   -1.3769 C   0  0  0  0  0  0  0  0  0  0  0  0
    4.9471    0.9855   -1.8811 C   0  0  0  0  0  0  0  0  0  0  0  0
    4.0917   -0.0758   -1.6767 C   0  0  0  0  0  0  0  0  0  0  0  0
    4.4518   -1.3039   -2.1746 F   0  0  0  0  0  0  0  0  0  0  0  0
   -6.2030    1.6557    1.4194 H   0  0  0  0  0  0  0  0  0  0  0  0
   -5.9830    0.2500    2.4744 H   0  0  0  0  0  0  0  0  0  0  0  0
   -4.7392   -1.5754    0.9654 H   0  0  0  0  0  0  0  0  0  0  0  0
   -2.6467   -2.0837   -0.1625 H   0  0  0  0  0  0  0  0  0  0  0  0
   -1.6210    2.0286   -0.2252 H   0  0  0  0  0  0  0  0  0  0  0  0
   -3.7843    2.5454    0.9390 H   0  0  0  0  0  0  0  0  0  0  0  0
    1.3131   -2.7375    0.7714 H   0  0  0  0  0  0  0  0  0  0  0  0
   -0.3292   -2.5940    0.1505 H   0  0  0  0  0  0  0  0  0  0  0  0
    0.2179   -0.1854    3.3676 H   0  0  0  0  0  0  0  0  0  0  0  0
    1.8488   -1.6159   -1.8032 H   0  0  0  0  0  0  0  0  0  0  0  0
    2.6442   -1.9141   -0.2476 H   0  0  0  0  0  0  0  0  0  0  0  0
    1.6539    1.4342    0.0253 H   0  0  0  0  0  0  0  0  0  0  0  0
    3.0707    3.3422   -0.2805 H   0  0  0  0  0  0  0  0  0  0  0  0
    5.2153    3.0910   -1.5094 H   0  0  0  0  0  0  0  0  0  0  0  0
    5.8874    0.9123   -2.4108 H   0  0  0  0  0  0  0  0  0  0  0  0
  1  2  1  0
  2  3  2  0
  3  4  1  0
  4  5  2  0
  5  6  1  0
  6  7  2  0
  5  8  1  0
  8  9  2  0
  8 10  2  0
  8 11  1  0
 11 12  1  0
 12 13  1  0
 13 14  1  0
 13 15  2  0
 11 16  1  0
 16 17  1  0
 17 18  2  0
 18 19  1  0
 19 20  2  0
 20 21  1  0
 21 22  2  0
 22 23  1  0
  7  2  1  0
 22 17  1  0
  1 24  1  0
  1 25  1  0
  3 26  1  0
  4 27  1  0
  6 28  1  0
  7 29  1  0
 12 30  1  0
 12 31  1  0
 14 32  1  0
 16 33  1  0
 16 34  1  0
 18 35  1  0
 19 36  1  0
 20 37  1  0
 21 38  1  0
M  END
$$$$
[H]c1nc([H])c(C(=O)N2C([H])([H])C([H])([H])C3([H])C(C#Cc4c([H])c([H])c([H])c(Cl)c4[H])=NOC23[H])nc1[H]
     RDKit          3D

 38 41  0  0  0  0  0  0  0  0999 V2000
   -6.5606    3.9707    0.5211 Cl  0  0  0  0  0  0  0  0  0  0  0  0
   -6.0795    2.2842    0.3703 C   0  0  0  0  0  0  0  0  0  0  0  0
   -7.0615    1.3447    0.1294 C   0  0  0  0  0  0  0  0  0  0  0  0
   -6.7021    0.0000    0.0061 C   0  0  0  0  0  0  0  0  0  0  0  0
   -5.3714   -0.3536    0.1287 C   0  0  0  0  0  0  0  0  0  0  0  0
   -4.4020    0.6251    0.3729 C   0  0  0  0  0  0  0  0  0  0  0  0
   -4.7393    1.9513    0.4967 C   0  0  0  0  0  0  0  0  0  0  0  0
   -3.0167    0.2705    0.5023 C   0  0  0  0  0  0  0  0  0  0  0  0
   -1.8412   -0.0523    0.6148 C   0  0  0  0  0  0  0  0  0  0  0  0
   -0.4693   -0.4546    0.7490 C   0  0  0  0  0  0  0  0  0  0  0  0
    0.3394    0.0782    1.6049 N   0  0  0  0  0  0  0  0  0  0  0  0
    1.5893   -0.4901    1.5238 O   0  0  0  0  0  0  0  0  0  0  0  0
    1.7177   -1.1302    0.2651 C   0  0  0  0  0  0  0  0  0  0  0  0
    0.2724   -1.4942   -0.0076 C   0  0  0  0  0  0  0  0  0  0  0  0
    0.1738   -1.2064   -1.4891 C   0  0  0  0  0  0  0  0  0  0  0  0
    0.9450    0.0943   -1.5708 C   0  0  0  0  0  0  0  0  0  0  0  0
    2.1166   -0.2098   -0.7564 N   0  0  0  0  0  0  0  0  0  0  0  0
    3.3968    0.3392   -0.9820 C   0  0  0  0  0  0  0  0  0  0  0  0
    3.5890    1.1558   -1.9498 O   0  0  0  0  0  0  0  0  0  0  0  0
    4.5556    0.0291   -0.1595 C   0  0  0  0  0  0  0  0  0  0  0  0
    5.7970    0.6016   -0.4299 C   0  0  0  0  0  0  0  0  0  0  0  0
    6.8933    0.3262    0.3253 N   0  0  0  0  0  0  0  0  0  0  0  0
    6.7808   -0.5105    1.3489 C   0  0  0  0  0  0  0  0  0  0  0  0
    5.5716   -1.0719    1.6172 C   0  0  0  0  0  0  0  0  0  0  0  0
    4.5035   -0.8015    0.8787 N   0  0  0  0  0  0  0  0  0  0  0  0
   -8.1163    1.6436    0.0345 H   0  0  0  0  0  0  0  0  0  0  0  0
   -7.4190   -0.7663   -0.1798 H   0  0  0  0  0  0  0  0  0  0  0  0
   -5.0143   -1.3606    0.0474 H   0  0  0  0  0  0  0  0  0  0  0  0
   -4.0352    2.7407    0.6839 H   0  0  0  0  0  0  0  0  0  0  0  0
    2.3281   -2.0444    0.3448 H   0  0  0  0  0  0  0  0  0  0  0  0
    0.0144   -2.5155    0.2662 H   0  0  0  0  0  0  0  0  0  0  0  0
    0.6077   -1.9969   -2.0997 H   0  0  0  0  0  0  0  0  0  0  0  0
   -0.8999   -1.0179   -1.7599 H   0  0  0  0  0  0  0  0  0  0  0  0
    0.3385    0.8720   -1.0786 H   0  0  0  0  0  0  0  0  0  0  0  0
    1.2199    0.3539   -2.6121 H   0  0  0  0  0  0  0  0  0  0  0  0
    5.8571    1.2736   -1.2632 H   0  0  0  0  0  0  0  0  0  0  0  0
    7.6659   -0.7200    1.9423 H   0  0  0  0  0  0  0  0  0  0  0  0
    5.4551   -1.7583    2.4479 H   0  0  0  0  0  0  0  0  0  0  0  0
  1  2  1  0
  2  3  2  0
  3  4  1  0
  4  5  2  0
  5  6  1  0
  6  7  2  0
  6  8  1  0
  8  9  3  0
  9 10  1  0
 10 11  2  0
 11 12  1  0
 12 13  1  0
 13 14  1  0
 14 15  1  0
 15 16  1  0
 16 17  1  0
 17 18  1  0
 18 19  2  0
 18 20  1  0
 20 21  2  0
 21 22  1  0
 22 23  2  0
 23 24  1  0
 24 25  2  0
  7  2  1  0
 14 10  1  0
 25 20  1  0
 17 13  1  0
  3 26  1  0
  4 27  1  0
  5 28  1  0
  7 29  1  0
 13 30  1  0
 14 31  1  0
 15 32  1  0
 15 33  1  0
 16 34  1  0
 16 35  1  0
 21 36  1  0
 23 37  1  0
 24 38  1  0
M  END
$$$$
[H]OC(=O)c1c([H])c([H])c(-c2nn(-c3nc([H])c(Br)c([H])n3)c(-c3c([H])c([H])c(OC([H])([H])[H])c([H])c3[H])c2[H])c([H])c1[H]
     RDKit          3D

 44 47  0  0  0  0  0  0  0  0999 V2000
   -6.4495   -2.5389   -0.5072 C   0  0  0  0  0  0  0  0  0  0  0  0
   -6.0048   -1.2104   -0.5457 O   0  0  0  0  0  0  0  0  0  0  0  0
   -4.6567   -0.8583   -0.4378 C   0  0  0  0  0  0  0  0  0  0  0  0
   -4.3081    0.4664   -0.4853 C   0  0  0  0  0  0  0  0  0  0  0  0
   -2.9831    0.8574   -0.3820 C   0  0  0  0  0  0  0  0  0  0  0  0
   -1.9954   -0.0644   -0.2301 C   0  0  0  0  0  0  0  0  0  0  0  0
   -2.4023   -1.3977   -0.1880 C   0  0  0  0  0  0  0  0  0  0  0  0
   -3.6920   -1.8288   -0.2858 C   0  0  0  0  0  0  0  0  0  0  0  0
   -0.5767    0.1883   -0.0752 C   0  0  0  0  0  0  0  0  0  0  0  0
    0.4109   -0.8132   -0.0341 C   0  0  0  0  0  0  0  0  0  0  0  0
    1.6379   -0.2208    0.1480 C   0  0  0  0  0  0  0  0  0  0  0  0
    1.3852    1.0850    0.2125 N   0  0  0  0  0  0  0  0  0  0  0  0
    0.0603    1.3212    0.0787 N   0  0  0  0  0  0  0  0  0  0  0  0
   -0.3936    2.6748    0.1414 C   0  0  0  0  0  0  0  0  0  0  0  0
   -0.8296    3.2196    1.2870 N   0  0  0  0  0  0  0  0  0  0  0  0
   -1.2117    4.4986    1.3147 C   0  0  0  0  0  0  0  0  0  0  0  0
   -1.1788    5.3098    0.1902 C   0  0  0  0  0  0  0  0  0  0  0  0
   -1.7158    7.1184    0.2157 Br  0  0  0  0  0  0  0  0  0  0  0  0
   -0.7299    4.7467   -0.9864 C   0  0  0  0  0  0  0  0  0  0  0  0
   -0.3625    3.4641   -0.9485 N   0  0  0  0  0  0  0  0  0  0  0  0
    2.9479   -0.8744    0.2504 C   0  0  0  0  0  0  0  0  0  0  0  0
    4.0591   -0.1132    0.4314 C   0  0  0  0  0  0  0  0  0  0  0  0
    5.3160   -0.6691    0.5347 C   0  0  0  0  0  0  0  0  0  0  0  0
    5.4304   -2.0325    0.4503 C   0  0  0  0  0  0  0  0  0  0  0  0
    4.3050   -2.8022    0.2671 C   0  0  0  0  0  0  0  0  0  0  0  0
    3.0372   -2.2300    0.1637 C   0  0  0  0  0  0  0  0  0  0  0  0
    6.7581   -2.6220    0.5593 C   0  0  0  0  0  0  0  0  0  0  0  0
    7.8871   -1.8395    0.7439 O   0  0  0  0  0  0  0  0  0  0  0  0
    6.8757   -3.8729    0.4832 O   0  0  0  0  0  0  0  0  0  0  0  0
   -5.9539   -3.0273    0.3685 H   0  0  0  0  0  0  0  0  0  0  0  0
   -7.5465   -2.5323   -0.2776 H   0  0  0  0  0  0  0  0  0  0  0  0
   -6.2368   -3.0828   -1.4507 H   0  0  0  0  0  0  0  0  0  0  0  0
   -5.0957    1.2352   -0.6079 H   0  0  0  0  0  0  0  0  0  0  0  0
   -2.7655    1.9036   -0.4388 H   0  0  0  0  0  0  0  0  0  0  0  0
   -1.6610   -2.2014   -0.0649 H   0  0  0  0  0  0  0  0  0  0  0  0
   -3.9532   -2.8754   -0.2463 H   0  0  0  0  0  0  0  0  0  0  0  0
    0.2594   -1.8917   -0.1307 H   0  0  0  0  0  0  0  0  0  0  0  0
   -1.5730    4.9816    2.2251 H   0  0  0  0  0  0  0  0  0  0  0  0
   -0.6930    5.3553   -1.8802 H   0  0  0  0  0  0  0  0  0  0  0  0
    3.9458    0.9536    0.4947 H   0  0  0  0  0  0  0  0  0  0  0  0
    6.1458    0.0041    0.6773 H   0  0  0  0  0  0  0  0  0  0  0  0
    4.4025   -3.8831    0.2010 H   0  0  0  0  0  0  0  0  0  0  0  0
    2.1538   -2.8294    0.0203 H   0  0  0  0  0  0  0  0  0  0  0  0
    7.9510   -1.0719    1.3811 H   0  0  0  0  0  0  0  0  0  0  0  0
  1  2  1  0
  2  3  1  0
  3  4  2  0
  4  5  1  0
  5  6  2  0
  6  7  1  0
  7  8  2  0
  6  9  1  0
  9 10  2  0
 10 11  1  0
 11 12  2  0
 12 13  1  0
 13 14  1  0
 14 15  2  0
 15 16  1  0
 16 17  2  0
 17 18  1  0
 17 19  1  0
 19 20  2  0
 11 21  1  0
 21 22  2  0
 22 23  1  0
 23 24  2  0
 24 25  1  0
 25 26  2  0
 24 27  1  0
 27 28  1  0
 27 29  2  0
  8  3  1  0
 13  9  1  0
 20 14  1  0
 26 21  1  0
  1 30  1  0
  1 31  1  0
  1 32  1  0
  4 33  1  0
  5 34  1  0
  7 35  1  0
  8 36  1  0
 10 37  1  0
 16 38  1  0
 19 39  1  0
 22 40  1  0
 23 41  1  0
 25 42  1  0
 26 43  1  0
 28 44  1  0
M  END
$$$$
[H]Cl.[H]ON([H])C(=O)c1oc(/C([H])=C(\[H])c2nn([H])c3c([H])c([H])c([H])c([H])c23)c([H])c1[H]
     RDKit          3D

 33 34  0  0  0  0  0  0  0  0999 V2000
    0.6866    0.0000    0.0000 Cl  0  0  0  0  0  0  0  0  0  0  0  0
    6.5546   -1.3834    1.9063 O   0  0  0  0  0  0  0  0  0  0  0  0
    5.3276   -1.0095    1.4966 N   0  0  0  0  0  0  0  0  0  0  0  0
    5.1928    0.1614    0.6787 C   0  0  0  0  0  0  0  0  0  0  0  0
    6.2193    0.8151    0.3604 O   0  0  0  0  0  0  0  0  0  0  0  0
    3.8789    0.5925    0.2189 C   0  0  0  0  0  0  0  0  0  0  0  0
    3.6452    1.6988   -0.5673 C   0  0  0  0  0  0  0  0  0  0  0  0
    2.2565    1.7065   -0.7468 C   0  0  0  0  0  0  0  0  0  0  0  0
    1.7474    0.6240   -0.0701 C   0  0  0  0  0  0  0  0  0  0  0  0
    0.3072    0.2622   -0.0033 C   0  0  0  0  0  0  0  0  0  0  0  0
   -0.5993    0.9640   -0.5971 C   0  0  0  0  0  0  0  0  0  0  0  0
   -2.0333    0.8220   -0.6799 C   0  0  0  0  0  0  0  0  0  0  0  0
   -2.8294    1.7090   -1.3865 N   0  0  0  0  0  0  0  0  0  0  0  0
   -4.0557    1.3043   -1.2635 N   0  0  0  0  0  0  0  0  0  0  0  0
   -4.1398    0.1967   -0.5165 C   0  0  0  0  0  0  0  0  0  0  0  0
   -5.2083   -0.5998   -0.1057 C   0  0  0  0  0  0  0  0  0  0  0  0
   -4.9993   -1.6946    0.6694 C   0  0  0  0  0  0  0  0  0  0  0  0
   -3.7351   -2.0547    1.0743 C   0  0  0  0  0  0  0  0  0  0  0  0
   -2.6666   -1.2439    0.6537 C   0  0  0  0  0  0  0  0  0  0  0  0
   -2.8442   -0.1308   -0.1299 C   0  0  0  0  0  0  0  0  0  0  0  0
    2.7286   -0.0175    0.4919 O   0  0  0  0  0  0  0  0  0  0  0  0
   -0.6866    0.0000    0.0000 H   0  0  0  0  0  0  0  0  0  0  0  0
    6.9975   -2.0042    1.2596 H   0  0  0  0  0  0  0  0  0  0  0  0
    4.4891   -1.5621    1.7693 H   0  0  0  0  0  0  0  0  0  0  0  0
    4.3582    2.4204   -0.9716 H   0  0  0  0  0  0  0  0  0  0  0  0
    1.7440    2.4595   -1.3263 H   0  0  0  0  0  0  0  0  0  0  0  0
    0.0433   -0.5949    0.5500 H   0  0  0  0  0  0  0  0  0  0  0  0
   -0.1885    1.8425   -1.1467 H   0  0  0  0  0  0  0  0  0  0  0  0
   -4.9285    1.7534   -1.6802 H   0  0  0  0  0  0  0  0  0  0  0  0
   -6.1968   -0.3121   -0.4265 H   0  0  0  0  0  0  0  0  0  0  0  0
   -5.8414   -2.2858    0.9681 H   0  0  0  0  0  0  0  0  0  0  0  0
   -3.5337   -2.9273    1.6964 H   0  0  0  0  0  0  0  0  0  0  0  0
   -1.6903   -1.5117    0.9594 H   0  0  0  0  0  0  0  0  0  0  0  0
  2  3  1  0
  3  4  1  0
  4  5  2  0
  4  6  1  0
  6  7  2  0
  7  8  1  0
  8  9  2  0
  9 10  1  0
 10 11  2  0
 11 12  1  0
 12 13  2  0
 13 14  1  0
 14 15  1  0
 15 16  2  0
 16 17  1  0
 17 18  2  0
 18 19  1  0
 19 20  2  0
  9 21  1  0
 21  6  1  0
 20 12  1  0
 20 15  1  0
  1 22  1  0
  2 23  1  0
  3 24  1  0
  7 25  1  0
  8 26  1  0
 10 27  1  0
 11 28  1  0
 14 29  1  0
 16 30  1  0
 17 31  1  0
 18 32  1  0
 19 33  1  0
M  END
$$$$
[H]OC(=O)C([H])([H])c1c([H])c([H])c([H])c(Br)c1C([H])([H])[H]
     RDKit          3D

 21 21  0  0  0  0  0  0  0  0999 V2000
    0.1087    2.0443    0.2854 C   0  0  0  0  0  0  0  0  0  0  0  0
   -0.5484    0.7288    0.0595 C   0  0  0  0  0  0  0  0  0  0  0  0
   -1.8696    0.5412    0.4853 C   0  0  0  0  0  0  0  0  0  0  0  0
   -2.7340    1.9967    1.3398 Br  0  0  0  0  0  0  0  0  0  0  0  0
   -2.5519   -0.6342    0.3112 C   0  0  0  0  0  0  0  0  0  0  0  0
   -1.9070   -1.6794   -0.3134 C   0  0  0  0  0  0  0  0  0  0  0  0
   -0.6071   -1.5210   -0.7412 C   0  0  0  0  0  0  0  0  0  0  0  0
    0.0816   -0.3250   -0.5613 C   0  0  0  0  0  0  0  0  0  0  0  0
    1.4831   -0.2230   -1.0283 C   0  0  0  0  0  0  0  0  0  0  0  0
    2.4430   -0.3817    0.1166 C   0  0  0  0  0  0  0  0  0  0  0  0
    2.0153   -0.5271    1.4116 O   0  0  0  0  0  0  0  0  0  0  0  0
    3.6617   -0.3740   -0.1716 O   0  0  0  0  0  0  0  0  0  0  0  0
    0.5418    2.4227   -0.6849 H   0  0  0  0  0  0  0  0  0  0  0  0
   -0.6859    2.7893    0.5532 H   0  0  0  0  0  0  0  0  0  0  0  0
    0.8176    2.0639    1.1130 H   0  0  0  0  0  0  0  0  0  0  0  0
   -3.5904   -0.7376    0.6636 H   0  0  0  0  0  0  0  0  0  0  0  0
   -2.4208   -2.6059   -0.4599 H   0  0  0  0  0  0  0  0  0  0  0  0
   -0.1323   -2.3632   -1.2268 H   0  0  0  0  0  0  0  0  0  0  0  0
    1.7223   -1.0091   -1.7734 H   0  0  0  0  0  0  0  0  0  0  0  0
    1.6566    0.7575   -1.5409 H   0  0  0  0  0  0  0  0  0  0  0  0
    2.5156   -0.9630    2.1626 H   0  0  0  0  0  0  0  0  0  0  0  0
  1  2  1  0
  2  3  2  0
  3  4  1  0
  3  5  1  0
  5  6  2  0
  6  7  1  0
  7  8  2  0
  8  9  1  0
  9 10  1  0
 10 11  1  0
 10 12  2  0
  8  2  1  0
  1 13  1  0
  1 14  1  0
  1 15  1  0
  5 16  1  0
  6 17  1  0
  7 18  1  0
  9 19  1  0
  9 20  1  0
 11 21  1  0
M  END
$$$$
[H]c1nc(C(=O)C([H])(N2C([H])([H])C([H])([H])N(C(=O)c3c([H])c(OC([H])([H])[H])c(OC([H])([H])[H])c([H])c3-c3c([H])nc([H])c(C#N)c3[H])C([H])([H])C2([H])[H])C([H])([H])N([H])C(=O)C([H])([H])[H])sc1[H]
     RDKit          3D

 67 70  0  0  0  0  0  0  0  0999 V2000
   -7.1136    0.3391   -1.7844 C   0  0  0  0  0  0  0  0  0  0  0  0
   -6.2535   -0.7744   -1.8597 O   0  0  0  0  0  0  0  0  0  0  0  0
   -5.1123   -0.8318   -1.0505 C   0  0  0  0  0  0  0  0  0  0  0  0
   -4.8586    0.2051   -0.1993 C   0  0  0  0  0  0  0  0  0  0  0  0
   -3.7080    0.1746    0.6345 C   0  0  0  0  0  0  0  0  0  0  0  0
   -3.4871    1.2879    1.5278 C   0  0  0  0  0  0  0  0  0  0  0  0
   -3.4740    1.1592    2.8708 C   0  0  0  0  0  0  0  0  0  0  0  0
   -3.2321    2.2517    3.6529 N   0  0  0  0  0  0  0  0  0  0  0  0
   -3.0065    3.4588    3.1076 C   0  0  0  0  0  0  0  0  0  0  0  0
   -3.0080    3.6539    1.7395 C   0  0  0  0  0  0  0  0  0  0  0  0
   -3.2540    2.5379    0.9621 C   0  0  0  0  0  0  0  0  0  0  0  0
   -2.7619    4.9568    1.1953 C   0  0  0  0  0  0  0  0  0  0  0  0
   -2.5420    6.0104    0.7521 N   0  0  0  0  0  0  0  0  0  0  0  0
   -2.8549   -0.8786    0.5932 C   0  0  0  0  0  0  0  0  0  0  0  0
   -3.1430   -1.9283   -0.2915 C   0  0  0  0  0  0  0  0  0  0  0  0
   -4.2512   -1.9017   -1.0961 C   0  0  0  0  0  0  0  0  0  0  0  0
   -4.5292   -2.9358   -1.9635 O   0  0  0  0  0  0  0  0  0  0  0  0
   -3.6463   -4.0359   -2.0122 C   0  0  0  0  0  0  0  0  0  0  0  0
   -1.6650   -0.9725    1.4047 C   0  0  0  0  0  0  0  0  0  0  0  0
   -1.7889   -1.5997    2.5158 O   0  0  0  0  0  0  0  0  0  0  0  0
   -0.4171   -0.4425    1.0735 N   0  0  0  0  0  0  0  0  0  0  0  0
   -0.0983    0.3030   -0.1377 C   0  0  0  0  0  0  0  0  0  0  0  0
    1.4134    0.5269   -0.2023 C   0  0  0  0  0  0  0  0  0  0  0  0
    2.1426   -0.6592    0.0361 N   0  0  0  0  0  0  0  0  0  0  0  0
    1.7512   -1.4044    1.1834 C   0  0  0  0  0  0  0  0  0  0  0  0
    0.7058   -0.6311    1.9712 C   0  0  0  0  0  0  0  0  0  0  0  0
    3.5322   -0.6835   -0.2730 C   0  0  0  0  0  0  0  0  0  0  0  0
    4.4271    0.1668    0.5343 C   0  0  0  0  0  0  0  0  0  0  0  0
    4.1716    1.5583    0.4534 N   0  0  0  0  0  0  0  0  0  0  0  0
    4.2878    2.3203   -0.7274 C   0  0  0  0  0  0  0  0  0  0  0  0
    3.9950    3.7995   -0.7349 C   0  0  0  0  0  0  0  0  0  0  0  0
    4.6333    1.8586   -1.8446 O   0  0  0  0  0  0  0  0  0  0  0  0
    4.0097   -2.0573   -0.4427 C   0  0  0  0  0  0  0  0  0  0  0  0
    3.3210   -3.0330   -0.0709 O   0  0  0  0  0  0  0  0  0  0  0  0
    5.3093   -2.3543   -1.0579 C   0  0  0  0  0  0  0  0  0  0  0  0
    6.2534   -1.5819   -1.5585 N   0  0  0  0  0  0  0  0  0  0  0  0
    7.3264   -2.0819   -2.0610 C   0  0  0  0  0  0  0  0  0  0  0  0
    7.4569   -3.4497   -2.0592 C   0  0  0  0  0  0  0  0  0  0  0  0
    5.9929   -3.9270   -1.3174 S   0  0  0  0  0  0  0  0  0  0  0  0
   -6.5835    1.2466   -2.1412 H   0  0  0  0  0  0  0  0  0  0  0  0
   -7.4470    0.5491   -0.7482 H   0  0  0  0  0  0  0  0  0  0  0  0
   -8.0248    0.2149   -2.3900 H   0  0  0  0  0  0  0  0  0  0  0  0
   -5.5193    1.0709   -0.1355 H   0  0  0  0  0  0  0  0  0  0  0  0
   -3.6678    0.2339    3.3658 H   0  0  0  0  0  0  0  0  0  0  0  0
   -2.8145    4.3246    3.7375 H   0  0  0  0  0  0  0  0  0  0  0  0
   -3.2592    2.6718   -0.1131 H   0  0  0  0  0  0  0  0  0  0  0  0
   -2.4524   -2.7659   -0.3149 H   0  0  0  0  0  0  0  0  0  0  0  0
   -3.4236   -4.4385   -0.9820 H   0  0  0  0  0  0  0  0  0  0  0  0
   -4.0010   -4.8738   -2.6178 H   0  0  0  0  0  0  0  0  0  0  0  0
   -2.6583   -3.6289   -2.3740 H   0  0  0  0  0  0  0  0  0  0  0  0
   -0.5894    1.2838   -0.1113 H   0  0  0  0  0  0  0  0  0  0  0  0
   -0.4157   -0.2151   -1.0620 H   0  0  0  0  0  0  0  0  0  0  0  0
    1.6032    0.8957   -1.2253 H   0  0  0  0  0  0  0  0  0  0  0  0
    1.6425    1.2976    0.5365 H   0  0  0  0  0  0  0  0  0  0  0  0
    2.5997   -1.6979    1.7904 H   0  0  0  0  0  0  0  0  0  0  0  0
    1.2189   -2.3291    0.8508 H   0  0  0  0  0  0  0  0  0  0  0  0
    0.3987   -1.2095    2.8780 H   0  0  0  0  0  0  0  0  0  0  0  0
    1.1216    0.3474    2.2186 H   0  0  0  0  0  0  0  0  0  0  0  0
    3.5842   -0.2442   -1.3384 H   0  0  0  0  0  0  0  0  0  0  0  0
    5.4952   -0.0298    0.2139 H   0  0  0  0  0  0  0  0  0  0  0  0
    4.4551   -0.1333    1.6206 H   0  0  0  0  0  0  0  0  0  0  0  0
    3.8704    2.0874    1.3259 H   0  0  0  0  0  0  0  0  0  0  0  0
    3.7418    4.0760    0.2969 H   0  0  0  0  0  0  0  0  0  0  0  0
    3.2141    4.0557   -1.4642 H   0  0  0  0  0  0  0  0  0  0  0  0
    4.9465    4.3101   -1.0261 H   0  0  0  0  0  0  0  0  0  0  0  0
    8.1395   -1.4563   -2.4901 H   0  0  0  0  0  0  0  0  0  0  0  0
    8.3007   -4.0472   -2.4453 H   0  0  0  0  0  0  0  0  0  0  0  0
  1  2  1  0
  2  3  1  0
  3  4  2  0
  4  5  1  0
  5  6  1  0
  6  7  2  0
  7  8  1  0
  8  9  2  0
  9 10  1  0
 10 11  2  0
 10 12  1  0
 12 13  3  0
  5 14  2  0
 14 15  1  0
 15 16  2  0
 16 17  1  0
 17 18  1  0
 14 19  1  0
 19 20  2  0
 19 21  1  0
 21 22  1  0
 22 23  1  0
 23 24  1  0
 24 25  1  0
 25 26  1  0
 24 27  1  0
 27 28  1  0
 28 29  1  0
 29 30  1  0
 30 31  1  0
 30 32  2  0
 27 33  1  0
 33 34  2  0
 33 35  1  0
 35 36  2  0
 36 37  1  0
 37 38  2  0
 38 39  1  0
 16  3  1  0
 26 21  1  0
 39 35  1  0
 11  6  1  0
  1 40  1  0
  1 41  1  0
  1 42  1  0
  4 43  1  0
  7 44  1  0
  9 45  1  0
 11 46  1  0
 15 47  1  0
 18 48  1  0
 18 49  1  0
 18 50  1  0
 22 51  1  0
 22 52  1  0
 23 53  1  0
 23 54  1  0
 25 55  1  0
 25 56  1  0
 26 57  1  0
 26 58  1  0
 27 59  1  0
 28 60  1  0
 28 61  1  0
 29 62  1  0
 31 63  1  0
 31 64  1  0
 31 65  1  0
 37 66  1  0
 38 67  1  0
M  END
$$$$
[H]c1nc2c([H])c(OC([H])([H])[H])c(OC([H])([H])[H])c([H])c2c(N([H])c2c([H])c([H])c(Cl)c([H])c2[H])c1C(=O)N([H])[H]
     RDKit          3D

 41 43  0  0  0  0  0  0  0  0999 V2000
   -5.0309   -0.1763   -2.5719 C   0  0  0  0  0  0  0  0  0  0  0  0
   -4.3646   -0.7424   -1.4859 O   0  0  0  0  0  0  0  0  0  0  0  0
   -3.1467   -0.2758   -1.0165 C   0  0  0  0  0  0  0  0  0  0  0  0
   -2.5630    0.7862   -1.6382 C   0  0  0  0  0  0  0  0  0  0  0  0
   -1.3353    1.2803   -1.1890 C   0  0  0  0  0  0  0  0  0  0  0  0
   -0.7298    2.3268   -1.7783 N   0  0  0  0  0  0  0  0  0  0  0  0
    0.4493    2.8171   -1.3626 C   0  0  0  0  0  0  0  0  0  0  0  0
    1.1244    2.2762   -0.2950 C   0  0  0  0  0  0  0  0  0  0  0  0
    2.3790    2.8316    0.1213 C   0  0  0  0  0  0  0  0  0  0  0  0
    2.9220    3.9385   -0.5818 N   0  0  0  0  0  0  0  0  0  0  0  0
    3.0633    2.4095    1.0876 O   0  0  0  0  0  0  0  0  0  0  0  0
    0.5230    1.1894    0.3378 C   0  0  0  0  0  0  0  0  0  0  0  0
    1.1716    0.5803    1.4454 N   0  0  0  0  0  0  0  0  0  0  0  0
    2.0796   -0.5172    1.2694 C   0  0  0  0  0  0  0  0  0  0  0  0
    2.2977   -0.9760   -0.0226 C   0  0  0  0  0  0  0  0  0  0  0  0
    3.1594   -2.0273   -0.2525 C   0  0  0  0  0  0  0  0  0  0  0  0
    3.8023   -2.6175    0.8187 C   0  0  0  0  0  0  0  0  0  0  0  0
    4.8820   -3.9433    0.4760 Cl  0  0  0  0  0  0  0  0  0  0  0  0
    3.5861   -2.1610    2.1103 C   0  0  0  0  0  0  0  0  0  0  0  0
    2.7226   -1.1086    2.3333 C   0  0  0  0  0  0  0  0  0  0  0  0
   -0.6895    0.7069   -0.1113 C   0  0  0  0  0  0  0  0  0  0  0  0
   -1.2911   -0.3831    0.5247 C   0  0  0  0  0  0  0  0  0  0  0  0
   -2.5184   -0.8622    0.0608 C   0  0  0  0  0  0  0  0  0  0  0  0
   -3.1563   -1.9376    0.6541 O   0  0  0  0  0  0  0  0  0  0  0  0
   -2.5638   -2.5822    1.7625 C   0  0  0  0  0  0  0  0  0  0  0  0
   -6.0825   -0.5029   -2.6225 H   0  0  0  0  0  0  0  0  0  0  0  0
   -4.9856    0.9350   -2.5916 H   0  0  0  0  0  0  0  0  0  0  0  0
   -4.5336   -0.5122   -3.5173 H   0  0  0  0  0  0  0  0  0  0  0  0
   -2.9829    1.3046   -2.4861 H   0  0  0  0  0  0  0  0  0  0  0  0
    0.9193    3.6769   -1.8679 H   0  0  0  0  0  0  0  0  0  0  0  0
    3.5401    3.8167   -1.4096 H   0  0  0  0  0  0  0  0  0  0  0  0
    2.6864    4.9084   -0.2476 H   0  0  0  0  0  0  0  0  0  0  0  0
    1.0174    0.9017    2.4274 H   0  0  0  0  0  0  0  0  0  0  0  0
    1.7781   -0.4906   -0.8349 H   0  0  0  0  0  0  0  0  0  0  0  0
    3.3286   -2.3866   -1.2770 H   0  0  0  0  0  0  0  0  0  0  0  0
    4.0968   -2.6337    2.9357 H   0  0  0  0  0  0  0  0  0  0  0  0
    2.5463   -0.7459    3.3258 H   0  0  0  0  0  0  0  0  0  0  0  0
   -0.8102   -0.8412    1.3587 H   0  0  0  0  0  0  0  0  0  0  0  0
   -3.3412   -3.1971    2.2626 H   0  0  0  0  0  0  0  0  0  0  0  0
   -1.7533   -3.2364    1.3646 H   0  0  0  0  0  0  0  0  0  0  0  0
   -2.1965   -1.8290    2.4835 H   0  0  0  0  0  0  0  0  0  0  0  0
  1  2  1  0
  2  3  1  0
  3  4  2  0
  4  5  1  0
  5  6  2  0
  6  7  1  0
  7  8  2  0
  8  9  1  0
  9 10  1  0
  9 11  2  0
  8 12  1  0
 12 13  1  0
 13 14  1  0
 14 15  2  0
 15 16  1  0
 16 17  2  0
 17 18  1  0
 17 19  1  0
 19 20  2  0
 12 21  2  0
 21 22  1  0
 22 23  2  0
 23 24  1  0
 24 25  1  0
 23  3  1  0
 21  5  1  0
 20 14  1  0
  1 26  1  0
  1 27  1  0
  1 28  1  0
  4 29  1  0
  7 30  1  0
 10 31  1  0
 10 32  1  0
 13 33  1  0
 15 34  1  0
 16 35  1  0
 19 36  1  0
 20 37  1  0
 22 38  1  0
 25 39  1  0
 25 40  1  0
 25 41  1  0
M  END
$$$$
[H]c1sc([H])c(C(=O)N([H])c2c([H])c([H])c3nc(-c4c(C([H])([H])[H])c(-c5c([H])c([H])c(F)c([H])c5[H])nn4C([H])([H])[H])sc3c2[H])c1[H]
     RDKit          3D

 48 52  0  0  0  0  0  0  0  0999 V2000
   -3.1946    0.9304   -1.1066 C   0  0  0  0  0  0  0  0  0  0  0  0
   -3.2750    0.0395    0.0967 C   0  0  0  0  0  0  0  0  0  0  0  0
   -4.4507   -0.3705    0.7173 C   0  0  0  0  0  0  0  0  0  0  0  0
   -4.0706   -1.1521    1.7315 N   0  0  0  0  0  0  0  0  0  0  0  0
   -2.7313   -1.2432    1.7673 N   0  0  0  0  0  0  0  0  0  0  0  0
   -2.0187   -2.0215    2.7561 C   0  0  0  0  0  0  0  0  0  0  0  0
   -2.2167   -0.5171    0.7696 C   0  0  0  0  0  0  0  0  0  0  0  0
   -0.7945   -0.3462    0.4633 C   0  0  0  0  0  0  0  0  0  0  0  0
   -0.1962    0.3510   -0.4715 N   0  0  0  0  0  0  0  0  0  0  0  0
    1.1009    0.3701   -0.5693 C   0  0  0  0  0  0  0  0  0  0  0  0
    1.8451    1.0829   -1.5325 C   0  0  0  0  0  0  0  0  0  0  0  0
    3.1939    1.0119   -1.5163 C   0  0  0  0  0  0  0  0  0  0  0  0
    3.9440    0.2680   -0.5969 C   0  0  0  0  0  0  0  0  0  0  0  0
    5.3346    0.2520   -0.6762 N   0  0  0  0  0  0  0  0  0  0  0  0
    6.2721   -0.2511    0.2519 C   0  0  0  0  0  0  0  0  0  0  0  0
    5.8850   -0.7633    1.3174 O   0  0  0  0  0  0  0  0  0  0  0  0
    7.7374   -0.1683   -0.0451 C   0  0  0  0  0  0  0  0  0  0  0  0
    8.2362    0.0500   -1.2695 C   0  0  0  0  0  0  0  0  0  0  0  0
    9.5943    0.1109   -1.4014 C   0  0  0  0  0  0  0  0  0  0  0  0
   10.1464   -0.1384    0.1892 S   0  0  0  0  0  0  0  0  0  0  0  0
    8.6437   -0.3127    0.9771 C   0  0  0  0  0  0  0  0  0  0  0  0
    3.2207   -0.4152    0.3261 C   0  0  0  0  0  0  0  0  0  0  0  0
    1.8127   -0.3633    0.3384 C   0  0  0  0  0  0  0  0  0  0  0  0
    0.5651   -1.0428    1.2869 S   0  0  0  0  0  0  0  0  0  0  0  0
   -5.7882    0.0228    0.2781 C   0  0  0  0  0  0  0  0  0  0  0  0
   -6.7954   -0.9228    0.1595 C   0  0  0  0  0  0  0  0  0  0  0  0
   -8.0568   -0.5673   -0.2413 C   0  0  0  0  0  0  0  0  0  0  0  0
   -8.3905    0.7358   -0.5456 C   0  0  0  0  0  0  0  0  0  0  0  0
   -9.6409    1.0780   -0.9413 F   0  0  0  0  0  0  0  0  0  0  0  0
   -7.3767    1.6674   -0.4229 C   0  0  0  0  0  0  0  0  0  0  0  0
   -6.1075    1.3277   -0.0225 C   0  0  0  0  0  0  0  0  0  0  0  0
   -2.9248    1.9563   -0.8041 H   0  0  0  0  0  0  0  0  0  0  0  0
   -4.1281    0.8704   -1.7045 H   0  0  0  0  0  0  0  0  0  0  0  0
   -2.3705    0.5762   -1.7901 H   0  0  0  0  0  0  0  0  0  0  0  0
   -1.2836   -1.3289    3.2605 H   0  0  0  0  0  0  0  0  0  0  0  0
   -1.3889   -2.7872    2.2595 H   0  0  0  0  0  0  0  0  0  0  0  0
   -2.6936   -2.4220    3.5153 H   0  0  0  0  0  0  0  0  0  0  0  0
    1.3689    1.6906   -2.2912 H   0  0  0  0  0  0  0  0  0  0  0  0
    3.7610    1.5639   -2.2602 H   0  0  0  0  0  0  0  0  0  0  0  0
    5.7698    0.6808   -1.5666 H   0  0  0  0  0  0  0  0  0  0  0  0
    7.6018    0.1790   -2.1718 H   0  0  0  0  0  0  0  0  0  0  0  0
   10.1693    0.2821   -2.3295 H   0  0  0  0  0  0  0  0  0  0  0  0
    8.4289   -0.4969    2.0491 H   0  0  0  0  0  0  0  0  0  0  0  0
    3.6444   -1.0254    1.0780 H   0  0  0  0  0  0  0  0  0  0  0  0
   -6.5692   -1.9558    0.3903 H   0  0  0  0  0  0  0  0  0  0  0  0
   -8.8458   -1.3159   -0.3329 H   0  0  0  0  0  0  0  0  0  0  0  0
   -7.5980    2.7196   -0.6555 H   0  0  0  0  0  0  0  0  0  0  0  0
   -5.3696    2.1109    0.0496 H   0  0  0  0  0  0  0  0  0  0  0  0
  1  2  1  0
  2  3  1  0
  3  4  2  0
  4  5  1  0
  5  6  1  0
  5  7  1  0
  7  8  1  0
  8  9  2  0
  9 10  1  0
 10 11  2  0
 11 12  1  0
 12 13  2  0
 13 14  1  0
 14 15  1  0
 15 16  2  0
 15 17  1  0
 17 18  1  0
 18 19  2  0
 19 20  1  0
 20 21  1  0
 13 22  1  0
 22 23  2  0
 23 24  1  0
  3 25  1  0
 25 26  2  0
 26 27  1  0
 27 28  2  0
 28 29  1  0
 28 30  1  0
 30 31  2  0
  7  2  2  0
 24  8  1  0
 31 25  1  0
 23 10  1  0
 21 17  2  0
  1 32  1  0
  1 33  1  0
  1 34  1  0
  6 35  1  0
  6 36  1  0
  6 37  1  0
 11 38  1  0
 12 39  1  0
 14 40  1  0
 18 41  1  0
 19 42  1  0
 21 43  1  0
 22 44  1  0
 26 45  1  0
 27 46  1  0
 30 47  1  0
 31 48  1  0
M  END
$$$$
[H]Oc1c([H])c(C([H])([H])C([H])([H])C([H])([H])[H])c([H])c([H])c1Oc1c([H])c([H])c([H])c([H])c1OC([H])([H])[H]
     RDKit          3D

 37 38  0  0  0  0  0  0  0  0999 V2000
    6.2171    0.5803    0.4153 C   0  0  0  0  0  0  0  0  0  0  0  0
    4.7134    0.4701    0.5515 C   0  0  0  0  0  0  0  0  0  0  0  0
    4.1391    0.4415   -0.8492 C   0  0  0  0  0  0  0  0  0  0  0  0
    2.6575    0.3341   -0.8436 C   0  0  0  0  0  0  0  0  0  0  0  0
    1.9014    1.4786   -0.8300 C   0  0  0  0  0  0  0  0  0  0  0  0
    0.5310    1.3764   -0.8238 C   0  0  0  0  0  0  0  0  0  0  0  0
   -0.1414    0.1466   -0.8307 C   0  0  0  0  0  0  0  0  0  0  0  0
   -1.4732    0.1643   -0.8231 O   0  0  0  0  0  0  0  0  0  0  0  0
   -2.4391   -0.2127    0.0275 C   0  0  0  0  0  0  0  0  0  0  0  0
   -2.1510   -0.7243    1.2696 C   0  0  0  0  0  0  0  0  0  0  0  0
   -3.1340   -1.1206    2.1653 C   0  0  0  0  0  0  0  0  0  0  0  0
   -4.4496   -1.0009    1.8059 C   0  0  0  0  0  0  0  0  0  0  0  0
   -4.7440   -0.4853    0.5539 C   0  0  0  0  0  0  0  0  0  0  0  0
   -3.7638   -0.0927   -0.3330 C   0  0  0  0  0  0  0  0  0  0  0  0
   -4.1673    0.4105   -1.5615 O   0  0  0  0  0  0  0  0  0  0  0  0
   -5.5286    0.5243   -1.9091 C   0  0  0  0  0  0  0  0  0  0  0  0
    0.6338   -0.9708   -0.8464 C   0  0  0  0  0  0  0  0  0  0  0  0
    0.0673   -2.2204   -0.8647 O   0  0  0  0  0  0  0  0  0  0  0  0
    2.0387   -0.8931   -0.8519 C   0  0  0  0  0  0  0  0  0  0  0  0
    6.5570    0.3333   -0.6255 H   0  0  0  0  0  0  0  0  0  0  0  0
    6.6021    1.5794    0.6558 H   0  0  0  0  0  0  0  0  0  0  0  0
    6.7520   -0.1443    1.0705 H   0  0  0  0  0  0  0  0  0  0  0  0
    4.3746    1.3976    1.0805 H   0  0  0  0  0  0  0  0  0  0  0  0
    4.5037   -0.4452    1.1256 H   0  0  0  0  0  0  0  0  0  0  0  0
    4.5810   -0.4429   -1.3678 H   0  0  0  0  0  0  0  0  0  0  0  0
    4.4891    1.3865   -1.3429 H   0  0  0  0  0  0  0  0  0  0  0  0
    2.3472    2.4644   -0.8240 H   0  0  0  0  0  0  0  0  0  0  0  0
   -0.0682    2.2705   -0.8132 H   0  0  0  0  0  0  0  0  0  0  0  0
   -1.1121   -0.8444    1.6146 H   0  0  0  0  0  0  0  0  0  0  0  0
   -2.8599   -1.5135    3.1222 H   0  0  0  0  0  0  0  0  0  0  0  0
   -5.2233   -1.3111    2.5068 H   0  0  0  0  0  0  0  0  0  0  0  0
   -5.7965   -0.4088    0.3126 H   0  0  0  0  0  0  0  0  0  0  0  0
   -5.6230    1.1028   -2.8475 H   0  0  0  0  0  0  0  0  0  0  0  0
   -6.0110   -0.4647   -2.0730 H   0  0  0  0  0  0  0  0  0  0  0  0
   -6.1288    1.0217   -1.1039 H   0  0  0  0  0  0  0  0  0  0  0  0
   -0.9124   -2.3806   -0.9054 H   0  0  0  0  0  0  0  0  0  0  0  0
    2.6211   -1.8065   -0.8627 H   0  0  0  0  0  0  0  0  0  0  0  0
  1  2  1  0
  2  3  1  0
  3  4  1  0
  4  5  2  0
  5  6  1  0
  6  7  2  0
  7  8  1  0
  8  9  1  0
  9 10  2  0
 10 11  1  0
 11 12  2  0
 12 13  1  0
 13 14  2  0
 14 15  1  0
 15 16  1  0
  7 17  1  0
 17 18  1  0
 17 19  2  0
 19  4  1  0
 14  9  1  0
  1 20  1  0
  1 21  1  0
  1 22  1  0
  2 23  1  0
  2 24  1  0
  3 25  1  0
  3 26  1  0
  5 27  1  0
  6 28  1  0
 10 29  1  0
 11 30  1  0
 12 31  1  0
 13 32  1  0
 16 33  1  0
 16 34  1  0
 16 35  1  0
 18 36  1  0
 19 37  1  0
M  END
$$$$
[H]c1c([H])c(C([H])(/C(=N/OC([H])([H])[H])C([H])([H])C([H])([H])N2C([H])([H])C([H])([H])C([H])(N3C([H])([H])C([H])([H])C([H])([H])C([H])([H])C3([H])[H])C([H])([H])C2([H])[H])C([H])([H])C([H])([H])N2C([H])([H])C([H])([H])C([H])(n3c(=O)n(C([H])([H])C(=O)N([H])[H])c4c([H])c([H])c([H])c([H])c43)C([H])([H])C2([H])[H])c([H])c(Cl)c1Cl
     RDKit          3D

100105  0  0  0  0  0  0  0  0999 V2000
    0.0191   -3.3629    0.6296 C   0  0  0  0  0  0  0  0  0  0  0  0
    0.6516   -2.3225   -0.0651 O   0  0  0  0  0  0  0  0  0  0  0  0
    0.1940   -1.0653   -0.1906 N   0  0  0  0  0  0  0  0  0  0  0  0
    0.8906   -0.0096   -0.3209 C   0  0  0  0  0  0  0  0  0  0  0  0
    2.3495    0.0068   -0.3560 C   0  0  0  0  0  0  0  0  0  0  0  0
    3.0584   -1.2883   -0.2356 C   0  0  0  0  0  0  0  0  0  0  0  0
    4.4831   -1.0301   -0.2982 N   0  0  0  0  0  0  0  0  0  0  0  0
    5.0405   -0.3497    0.8123 C   0  0  0  0  0  0  0  0  0  0  0  0
    6.3928    0.2123    0.3397 C   0  0  0  0  0  0  0  0  0  0  0  0
    7.3033   -0.9895    0.2566 C   0  0  0  0  0  0  0  0  0  0  0  0
    6.6498   -2.2348   -0.2285 C   0  0  0  0  0  0  0  0  0  0  0  0
    5.2750   -2.1088   -0.7694 C   0  0  0  0  0  0  0  0  0  0  0  0
    8.5504   -0.6973   -0.4100 N   0  0  0  0  0  0  0  0  0  0  0  0
    8.4262   -0.2941   -1.7744 C   0  0  0  0  0  0  0  0  0  0  0  0
    9.7621   -0.4714   -2.4608 C   0  0  0  0  0  0  0  0  0  0  0  0
   10.8266   -0.6631   -1.4127 C   0  0  0  0  0  0  0  0  0  0  0  0
   10.6829    0.3860   -0.3325 C   0  0  0  0  0  0  0  0  0  0  0  0
    9.3282    0.3020    0.2968 C   0  0  0  0  0  0  0  0  0  0  0  0
    0.1822    1.2909   -0.4470 C   0  0  0  0  0  0  0  0  0  0  0  0
   -1.3168    1.0942   -0.2764 C   0  0  0  0  0  0  0  0  0  0  0  0
   -1.9812    2.4424   -0.4174 C   0  0  0  0  0  0  0  0  0  0  0  0
   -3.3984    2.4167   -0.2760 N   0  0  0  0  0  0  0  0  0  0  0  0
   -3.8665    2.1142    1.0350 C   0  0  0  0  0  0  0  0  0  0  0  0
   -5.3614    1.7749    0.9093 C   0  0  0  0  0  0  0  0  0  0  0  0
   -5.4381    0.4157    0.2333 C   0  0  0  0  0  0  0  0  0  0  0  0
   -4.7218    0.4783   -1.0720 C   0  0  0  0  0  0  0  0  0  0  0  0
   -4.1195    1.8293   -1.3529 C   0  0  0  0  0  0  0  0  0  0  0  0
   -6.7811   -0.0976    0.1695 N   0  0  0  0  0  0  0  0  0  0  0  0
   -7.0816   -1.4136    0.3046 C   0  0  0  0  0  0  0  0  0  0  0  0
   -6.3292   -2.5432    0.5155 C   0  0  0  0  0  0  0  0  0  0  0  0
   -6.9484   -3.7598    0.6091 C   0  0  0  0  0  0  0  0  0  0  0  0
   -8.3254   -3.9033    0.4984 C   0  0  0  0  0  0  0  0  0  0  0  0
   -9.0547   -2.7537    0.2872 C   0  0  0  0  0  0  0  0  0  0  0  0
   -8.4438   -1.5172    0.1904 C   0  0  0  0  0  0  0  0  0  0  0  0
   -8.9869   -0.2865   -0.0126 N   0  0  0  0  0  0  0  0  0  0  0  0
  -10.3945    0.0204   -0.1769 C   0  0  0  0  0  0  0  0  0  0  0  0
  -10.8347   -0.0273   -1.5881 C   0  0  0  0  0  0  0  0  0  0  0  0
  -12.1833    0.2567   -1.8668 N   0  0  0  0  0  0  0  0  0  0  0  0
  -10.0209   -0.3114   -2.4770 O   0  0  0  0  0  0  0  0  0  0  0  0
   -7.9370    0.5628   -0.0202 C   0  0  0  0  0  0  0  0  0  0  0  0
   -8.0756    1.8201   -0.1894 O   0  0  0  0  0  0  0  0  0  0  0  0
    0.6609    2.1266    0.7106 C   0  0  0  0  0  0  0  0  0  0  0  0
    1.3241    3.3208    0.5403 C   0  0  0  0  0  0  0  0  0  0  0  0
    1.7594    4.0837    1.6143 C   0  0  0  0  0  0  0  0  0  0  0  0
    1.5248    3.6392    2.8987 C   0  0  0  0  0  0  0  0  0  0  0  0
    2.0898    4.6304    4.2214 Cl  0  0  0  0  0  0  0  0  0  0  0  0
    0.8616    2.4442    3.0998 C   0  0  0  0  0  0  0  0  0  0  0  0
    0.5954    1.9354    4.7541 Cl  0  0  0  0  0  0  0  0  0  0  0  0
    0.4451    1.7157    2.0150 C   0  0  0  0  0  0  0  0  0  0  0  0
    0.0156   -4.2869   -0.0190 H   0  0  0  0  0  0  0  0  0  0  0  0
   -1.0141   -3.1156    0.9327 H   0  0  0  0  0  0  0  0  0  0  0  0
    0.6573   -3.6123    1.5012 H   0  0  0  0  0  0  0  0  0  0  0  0
    2.7096    0.4673   -1.3321 H   0  0  0  0  0  0  0  0  0  0  0  0
    2.6742    0.7651    0.4007 H   0  0  0  0  0  0  0  0  0  0  0  0
    2.8150   -1.9427   -1.0766 H   0  0  0  0  0  0  0  0  0  0  0  0
    2.8774   -1.8327    0.7147 H   0  0  0  0  0  0  0  0  0  0  0  0
    5.3031   -1.0729    1.6393 H   0  0  0  0  0  0  0  0  0  0  0  0
    4.4335    0.4176    1.2757 H   0  0  0  0  0  0  0  0  0  0  0  0
    6.2377    0.6988   -0.6410 H   0  0  0  0  0  0  0  0  0  0  0  0
    6.7018    0.9363    1.1180 H   0  0  0  0  0  0  0  0  0  0  0  0
    7.6043   -1.1890    1.3323 H   0  0  0  0  0  0  0  0  0  0  0  0
    6.7136   -3.0769    0.5178 H   0  0  0  0  0  0  0  0  0  0  0  0
    7.2938   -2.6100   -1.0836 H   0  0  0  0  0  0  0  0  0  0  0  0
    5.2480   -2.1334   -1.9006 H   0  0  0  0  0  0  0  0  0  0  0  0
    4.7141   -3.0553   -0.4995 H   0  0  0  0  0  0  0  0  0  0  0  0
    8.2290    0.8176   -1.8025 H   0  0  0  0  0  0  0  0  0  0  0  0
    7.6557   -0.8482   -2.3391 H   0  0  0  0  0  0  0  0  0  0  0  0
    9.9958    0.3687   -3.1482 H   0  0  0  0  0  0  0  0  0  0  0  0
    9.7076   -1.4538   -3.0149 H   0  0  0  0  0  0  0  0  0  0  0  0
   11.8422   -0.6973   -1.8274 H   0  0  0  0  0  0  0  0  0  0  0  0
   10.6330   -1.6615   -0.9206 H   0  0  0  0  0  0  0  0  0  0  0  0
   11.5023    0.2061    0.4102 H   0  0  0  0  0  0  0  0  0  0  0  0
   10.8724    1.3786   -0.8206 H   0  0  0  0  0  0  0  0  0  0  0  0
    8.8007    1.2821    0.1358 H   0  0  0  0  0  0  0  0  0  0  0  0
    9.3627    0.1171    1.3884 H   0  0  0  0  0  0  0  0  0  0  0  0
    0.4505    1.8337   -1.3579 H   0  0  0  0  0  0  0  0  0  0  0  0
   -1.4639    0.6385    0.7017 H   0  0  0  0  0  0  0  0  0  0  0  0
   -1.6430    0.4344   -1.1046 H   0  0  0  0  0  0  0  0  0  0  0  0
   -1.7541    2.8168   -1.4471 H   0  0  0  0  0  0  0  0  0  0  0  0
   -1.5645    3.1908    0.2847 H   0  0  0  0  0  0  0  0  0  0  0  0
   -3.8182    3.0598    1.6443 H   0  0  0  0  0  0  0  0  0  0  0  0
   -3.3159    1.2953    1.5075 H   0  0  0  0  0  0  0  0  0  0  0  0
   -5.7944    2.5499    0.2499 H   0  0  0  0  0  0  0  0  0  0  0  0
   -5.7976    1.7903    1.9118 H   0  0  0  0  0  0  0  0  0  0  0  0
   -4.8667   -0.2684    0.9357 H   0  0  0  0  0  0  0  0  0  0  0  0
   -5.4097    0.2745   -1.9452 H   0  0  0  0  0  0  0  0  0  0  0  0
   -3.9758   -0.3382   -1.1148 H   0  0  0  0  0  0  0  0  0  0  0  0
   -4.9806    2.5176   -1.6041 H   0  0  0  0  0  0  0  0  0  0  0  0
   -3.5390    1.7906   -2.3025 H   0  0  0  0  0  0  0  0  0  0  0  0
   -5.2699   -2.4716    0.6058 H   0  0  0  0  0  0  0  0  0  0  0  0
   -6.3947   -4.6854    0.7766 H   0  0  0  0  0  0  0  0  0  0  0  0
   -8.8248   -4.8512    0.5699 H   0  0  0  0  0  0  0  0  0  0  0  0
  -10.1516   -2.7958    0.1894 H   0  0  0  0  0  0  0  0  0  0  0  0
  -10.5609    1.0622    0.1743 H   0  0  0  0  0  0  0  0  0  0  0  0
  -10.9945   -0.6883    0.4670 H   0  0  0  0  0  0  0  0  0  0  0  0
  -12.4813    1.1859   -2.2326 H   0  0  0  0  0  0  0  0  0  0  0  0
  -12.8791   -0.5047   -1.6912 H   0  0  0  0  0  0  0  0  0  0  0  0
    1.5160    3.6847   -0.4427 H   0  0  0  0  0  0  0  0  0  0  0  0
    2.2727    5.0090    1.4542 H   0  0  0  0  0  0  0  0  0  0  0  0
   -0.0722    0.7840    2.1855 H   0  0  0  0  0  0  0  0  0  0  0  0
  1  2  1  0
  2  3  1  0
  3  4  2  0
  4  5  1  0
  5  6  1  0
  6  7  1  0
  7  8  1  0
  8  9  1  0
  9 10  1  0
 10 11  1  0
 11 12  1  0
 10 13  1  0
 13 14  1  0
 14 15  1  0
 15 16  1  0
 16 17  1  0
 17 18  1  0
  4 19  1  0
 19 20  1  0
 20 21  1  0
 21 22  1  0
 22 23  1  0
 23 24  1  0
 24 25  1  0
 25 26  1  0
 26 27  1  0
 25 28  1  0
 28 29  1  0
 29 30  2  0
 30 31  1  0
 31 32  2  0
 32 33  1  0
 33 34  2  0
 34 35  1  0
 35 36  1  0
 36 37  1  0
 37 38  1  0
 37 39  2  0
 35 40  1  0
 40 41  2  0
 19 42  1  0
 42 43  2  0
 43 44  1  0
 44 45  2  0
 45 46  1  0
 45 47  1  0
 47 48  1  0
 47 49  2  0
 12  7  1  0
 18 13  1  0
 27 22  1  0
 40 28  1  0
 49 42  1  0
 34 29  1  0
  1 50  1  0
  1 51  1  0
  1 52  1  0
  5 53  1  0
  5 54  1  0
  6 55  1  0
  6 56  1  0
  8 57  1  0
  8 58  1  0
  9 59  1  0
  9 60  1  0
 10 61  1  0
 11 62  1  0
 11 63  1  0
 12 64  1  0
 12 65  1  0
 14 66  1  0
 14 67  1  0
 15 68  1  0
 15 69  1  0
 16 70  1  0
 16 71  1  0
 17 72  1  0
 17 73  1  0
 18 74  1  0
 18 75  1  0
 19 76  1  0
 20 77  1  0
 20 78  1  0
 21 79  1  0
 21 80  1  0
 23 81  1  0
 23 82  1  0
 24 83  1  0
 24 84  1  0
 25 85  1  0
 26 86  1  0
 26 87  1  0
 27 88  1  0
 27 89  1  0
 30 90  1  0
 31 91  1  0
 32 92  1  0
 33 93  1  0
 36 94  1  0
 36 95  1  0
 38 96  1  0
 38 97  1  0
 43 98  1  0
 44 99  1  0
 49100  1  0
M  END
$$$$
[H]c1c([H])c([H])c(C([H])([H])C([H])([H])C(=O)N2C([H])([H])C([H])([H])C3(OC(=O)N(c4c([H])c([H])c([H])c([H])c4C(=O)N([H])C(=O)c4c([H])c([H])c([H])c5c([H])c([H])c([H])c([H])c45)C3([H])[H])C([H])([H])C2([H])[H])c([H])c1[H]
     RDKit          3D

 73 78  0  0  0  0  0  0  0  0999 V2000
    4.9760   -1.6666   -1.5687 O   0  0  0  0  0  0  0  0  0  0  0  0
    4.3087   -1.5909   -0.5256 C   0  0  0  0  0  0  0  0  0  0  0  0
    4.9000   -1.4192    0.7948 C   0  0  0  0  0  0  0  0  0  0  0  0
    6.3367   -1.7097    0.9760 C   0  0  0  0  0  0  0  0  0  0  0  0
    7.3030   -0.9430    0.1853 C   0  0  0  0  0  0  0  0  0  0  0  0
    7.6682    0.3356    0.6086 C   0  0  0  0  0  0  0  0  0  0  0  0
    8.6126    1.0777   -0.0862 C   0  0  0  0  0  0  0  0  0  0  0  0
    9.2318    0.6017   -1.2129 C   0  0  0  0  0  0  0  0  0  0  0  0
    8.8744   -0.6712   -1.6413 C   0  0  0  0  0  0  0  0  0  0  0  0
    7.9347   -1.4049   -0.9475 C   0  0  0  0  0  0  0  0  0  0  0  0
    2.8948   -1.6769   -0.6636 N   0  0  0  0  0  0  0  0  0  0  0  0
    2.2328   -1.8119   -1.9348 C   0  0  0  0  0  0  0  0  0  0  0  0
    1.2050   -0.7006   -2.1809 C   0  0  0  0  0  0  0  0  0  0  0  0
    0.6533   -0.2810   -0.8715 C   0  0  0  0  0  0  0  0  0  0  0  0
   -0.6924    0.3941   -0.9389 C   0  0  0  0  0  0  0  0  0  0  0  0
   -0.6277    1.5375   -0.1064 N   0  0  0  0  0  0  0  0  0  0  0  0
    0.6672    1.4101    0.5649 C   0  0  0  0  0  0  0  0  0  0  0  0
    0.9842    1.8772    1.6882 O   0  0  0  0  0  0  0  0  0  0  0  0
    1.5227    0.6722   -0.2535 O   0  0  0  0  0  0  0  0  0  0  0  0
   -1.4186    2.6584    0.1787 C   0  0  0  0  0  0  0  0  0  0  0  0
   -1.1992    3.8414   -0.5488 C   0  0  0  0  0  0  0  0  0  0  0  0
   -1.8732    5.0127   -0.3082 C   0  0  0  0  0  0  0  0  0  0  0  0
   -2.8088    4.9897    0.7103 C   0  0  0  0  0  0  0  0  0  0  0  0
   -3.0738    3.8775    1.4560 C   0  0  0  0  0  0  0  0  0  0  0  0
   -2.3539    2.6952    1.1686 C   0  0  0  0  0  0  0  0  0  0  0  0
   -2.6731    1.4859    1.9063 C   0  0  0  0  0  0  0  0  0  0  0  0
   -2.1544    1.3525    3.0341 O   0  0  0  0  0  0  0  0  0  0  0  0
   -3.5271    0.4897    1.4063 N   0  0  0  0  0  0  0  0  0  0  0  0
   -4.2742    0.5106    0.2209 C   0  0  0  0  0  0  0  0  0  0  0  0
   -4.1361    1.5427   -0.5352 O   0  0  0  0  0  0  0  0  0  0  0  0
   -5.1840   -0.4828   -0.2875 C   0  0  0  0  0  0  0  0  0  0  0  0
   -5.0546   -0.9272   -1.6028 C   0  0  0  0  0  0  0  0  0  0  0  0
   -5.8158   -1.9347   -2.1178 C   0  0  0  0  0  0  0  0  0  0  0  0
   -6.7472   -2.5320   -1.3006 C   0  0  0  0  0  0  0  0  0  0  0  0
   -6.9287   -2.1325    0.0250 C   0  0  0  0  0  0  0  0  0  0  0  0
   -7.8978   -2.7432    0.7928 C   0  0  0  0  0  0  0  0  0  0  0  0
   -8.1105   -2.3383    2.0835 C   0  0  0  0  0  0  0  0  0  0  0  0
   -7.3274   -1.3158    2.5638 C   0  0  0  0  0  0  0  0  0  0  0  0
   -6.3631   -0.7067    1.8056 C   0  0  0  0  0  0  0  0  0  0  0  0
   -6.1222   -1.0908    0.5089 C   0  0  0  0  0  0  0  0  0  0  0  0
    0.6410   -1.5006    0.0617 C   0  0  0  0  0  0  0  0  0  0  0  0
    2.0780   -1.6443    0.5274 C   0  0  0  0  0  0  0  0  0  0  0  0
    4.7217   -0.3761    1.1928 H   0  0  0  0  0  0  0  0  0  0  0  0
    4.3045   -2.0531    1.5267 H   0  0  0  0  0  0  0  0  0  0  0  0
    6.6251   -1.5812    2.0652 H   0  0  0  0  0  0  0  0  0  0  0  0
    6.5469   -2.8027    0.7241 H   0  0  0  0  0  0  0  0  0  0  0  0
    7.2065    0.7449    1.4855 H   0  0  0  0  0  0  0  0  0  0  0  0
    8.9149    2.0840    0.2275 H   0  0  0  0  0  0  0  0  0  0  0  0
    9.9711    1.1829   -1.7563 H   0  0  0  0  0  0  0  0  0  0  0  0
    9.3768   -1.0471   -2.5452 H   0  0  0  0  0  0  0  0  0  0  0  0
    7.6999   -2.4119   -1.3278 H   0  0  0  0  0  0  0  0  0  0  0  0
    1.6622   -2.7617   -1.9206 H   0  0  0  0  0  0  0  0  0  0  0  0
    2.9533   -1.8613   -2.7841 H   0  0  0  0  0  0  0  0  0  0  0  0
    0.4232   -1.1108   -2.8564 H   0  0  0  0  0  0  0  0  0  0  0  0
    1.6936    0.1524   -2.6843 H   0  0  0  0  0  0  0  0  0  0  0  0
   -1.4131   -0.4043   -0.5964 H   0  0  0  0  0  0  0  0  0  0  0  0
   -0.9681    0.6044   -1.9915 H   0  0  0  0  0  0  0  0  0  0  0  0
   -0.4533    3.8049   -1.3381 H   0  0  0  0  0  0  0  0  0  0  0  0
   -1.7245    5.9182   -0.8449 H   0  0  0  0  0  0  0  0  0  0  0  0
   -3.3661    5.8965    0.9356 H   0  0  0  0  0  0  0  0  0  0  0  0
   -3.8052    3.8786    2.2458 H   0  0  0  0  0  0  0  0  0  0  0  0
   -3.6505   -0.3820    2.0126 H   0  0  0  0  0  0  0  0  0  0  0  0
   -4.3114   -0.4303   -2.2047 H   0  0  0  0  0  0  0  0  0  0  0  0
   -5.7070   -2.2798   -3.1578 H   0  0  0  0  0  0  0  0  0  0  0  0
   -7.3829   -3.3507   -1.6774 H   0  0  0  0  0  0  0  0  0  0  0  0
   -8.4782   -3.5394    0.3573 H   0  0  0  0  0  0  0  0  0  0  0  0
   -8.8790   -2.8164    2.7081 H   0  0  0  0  0  0  0  0  0  0  0  0
   -7.5302   -1.0189    3.6018 H   0  0  0  0  0  0  0  0  0  0  0  0
   -5.8170    0.1038    2.2330 H   0  0  0  0  0  0  0  0  0  0  0  0
    0.2871   -2.3983   -0.4801 H   0  0  0  0  0  0  0  0  0  0  0  0
    0.0047   -1.3363    0.9389 H   0  0  0  0  0  0  0  0  0  0  0  0
    2.1243   -2.6033    1.0960 H   0  0  0  0  0  0  0  0  0  0  0  0
    2.3099   -0.7821    1.1794 H   0  0  0  0  0  0  0  0  0  0  0  0
  1  2  2  0
  2  3  1  0
  3  4  1  0
  4  5  1  0
  5  6  2  0
  6  7  1  0
  7  8  2  0
  8  9  1  0
  9 10  2  0
  2 11  1  0
 11 12  1  0
 12 13  1  0
 13 14  1  0
 14 15  1  0
 15 16  1  0
 16 17  1  0
 17 18  2  0
 17 19  1  0
 16 20  1  0
 20 21  2  0
 21 22  1  0
 22 23  2  0
 23 24  1  0
 24 25  2  0
 25 26  1  0
 26 27  2  0
 26 28  1  0
 28 29  1  0
 29 30  2  0
 29 31  1  0
 31 32  2  0
 32 33  1  0
 33 34  2  0
 34 35  1  0
 35 36  2  0
 36 37  1  0
 37 38  2  0
 38 39  1  0
 39 40  2  0
 14 41  1  0
 41 42  1  0
 10  5  1  0
 42 11  1  0
 19 14  1  0
 25 20  1  0
 40 31  1  0
 40 35  1  0
  3 43  1  0
  3 44  1  0
  4 45  1  0
  4 46  1  0
  6 47  1  0
  7 48  1  0
  8 49  1  0
  9 50  1  0
 10 51  1  0
 12 52  1  0
 12 53  1  0
 13 54  1  0
 13 55  1  0
 15 56  1  0
 15 57  1  0
 21 58  1  0
 22 59  1  0
 23 60  1  0
 24 61  1  0
 28 62  1  0
 32 63  1  0
 33 64  1  0
 34 65  1  0
 36 66  1  0
 37 67  1  0
 38 68  1  0
 39 69  1  0
 41 70  1  0
 41 71  1  0
 42 72  1  0
 42 73  1  0
M  END
$$$$
[H]c1nc([H])n(C([H])([H])c2c([H])c([H])c(-c3c([H])c([H])c(OC([H])([H])C([H])([H])[H])c([H])c3[H])c([H])c2[H])c1[H]
     RDKit          3D

 39 41  0  0  0  0  0  0  0  0999 V2000
    7.3532    0.2892   -1.4137 C   0  0  0  0  0  0  0  0  0  0  0  0
    5.8983    0.6666   -1.1440 C   0  0  0  0  0  0  0  0  0  0  0  0
    5.2018   -0.4788   -0.7014 O   0  0  0  0  0  0  0  0  0  0  0  0
    3.8538   -0.4040   -0.3862 C   0  0  0  0  0  0  0  0  0  0  0  0
    3.2211    0.8207   -0.5192 C   0  0  0  0  0  0  0  0  0  0  0  0
    1.8804    0.9293   -0.2136 C   0  0  0  0  0  0  0  0  0  0  0  0
    1.1356   -0.1419    0.2233 C   0  0  0  0  0  0  0  0  0  0  0  0
    1.7938   -1.3477    0.3455 C   0  0  0  0  0  0  0  0  0  0  0  0
    3.1310   -1.4860    0.0479 C   0  0  0  0  0  0  0  0  0  0  0  0
   -0.2672    0.0279    0.5301 C   0  0  0  0  0  0  0  0  0  0  0  0
   -0.9331   -0.6997    1.4929 C   0  0  0  0  0  0  0  0  0  0  0  0
   -2.2865   -0.4734    1.7251 C   0  0  0  0  0  0  0  0  0  0  0  0
   -3.0001    0.4664    1.0177 C   0  0  0  0  0  0  0  0  0  0  0  0
   -4.4260    0.7014    1.2654 C   0  0  0  0  0  0  0  0  0  0  0  0
   -5.2779   -0.1404    0.4349 N   0  0  0  0  0  0  0  0  0  0  0  0
   -5.7469   -1.3483    0.7106 C   0  0  0  0  0  0  0  0  0  0  0  0
   -6.5046   -1.7778   -0.3421 C   0  0  0  0  0  0  0  0  0  0  0  0
   -6.4750   -0.7895   -1.2572 N   0  0  0  0  0  0  0  0  0  0  0  0
   -5.7213    0.2147   -0.7780 C   0  0  0  0  0  0  0  0  0  0  0  0
   -2.3372    1.1850    0.0649 C   0  0  0  0  0  0  0  0  0  0  0  0
   -0.9995    0.9647   -0.1681 C   0  0  0  0  0  0  0  0  0  0  0  0
    7.3303   -0.4300   -2.2731 H   0  0  0  0  0  0  0  0  0  0  0  0
    7.9580    1.1638   -1.6675 H   0  0  0  0  0  0  0  0  0  0  0  0
    7.7874   -0.1761   -0.5010 H   0  0  0  0  0  0  0  0  0  0  0  0
    5.9104    1.4697   -0.3783 H   0  0  0  0  0  0  0  0  0  0  0  0
    5.5089    1.0834   -2.0847 H   0  0  0  0  0  0  0  0  0  0  0  0
    3.7508    1.6944   -0.8562 H   0  0  0  0  0  0  0  0  0  0  0  0
    1.4186    1.9094   -0.3306 H   0  0  0  0  0  0  0  0  0  0  0  0
    1.1864   -2.1884    0.6940 H   0  0  0  0  0  0  0  0  0  0  0  0
    3.6098   -2.4312    0.1530 H   0  0  0  0  0  0  0  0  0  0  0  0
   -0.3671   -1.4401    2.0489 H   0  0  0  0  0  0  0  0  0  0  0  0
   -2.7631   -1.0714    2.4923 H   0  0  0  0  0  0  0  0  0  0  0  0
   -4.6380    1.7838    1.0207 H   0  0  0  0  0  0  0  0  0  0  0  0
   -4.7154    0.5890    2.3375 H   0  0  0  0  0  0  0  0  0  0  0  0
   -5.5682   -1.9068    1.6085 H   0  0  0  0  0  0  0  0  0  0  0  0
   -7.0427   -2.7363   -0.4467 H   0  0  0  0  0  0  0  0  0  0  0  0
   -5.5210    1.1581   -1.3164 H   0  0  0  0  0  0  0  0  0  0  0  0
   -2.8438    1.9237   -0.5095 H   0  0  0  0  0  0  0  0  0  0  0  0
   -0.4948    1.5432   -0.9257 H   0  0  0  0  0  0  0  0  0  0  0  0
  1  2  1  0
  2  3  1  0
  3  4  1  0
  4  5  2  0
  5  6  1  0
  6  7  2  0
  7  8  1  0
  8  9  2  0
  7 10  1  0
 10 11  2  0
 11 12  1  0
 12 13  2  0
 13 14  1  0
 14 15  1  0
 15 16  1  0
 16 17  2  0
 17 18  1  0
 18 19  2  0
 13 20  1  0
 20 21  2  0
  9  4  1  0
 21 10  1  0
 19 15  1  0
  1 22  1  0
  1 23  1  0
  1 24  1  0
  2 25  1  0
  2 26  1  0
  5 27  1  0
  6 28  1  0
  8 29  1  0
  9 30  1  0
 11 31  1  0
 12 32  1  0
 14 33  1  0
 14 34  1  0
 16 35  1  0
 17 36  1  0
 19 37  1  0
 20 38  1  0
 21 39  1  0
M  END
$$$$
[H]Oc1c([H])c([H])c2c(c1[H])C([H])([H])C([H])(N1C([H])([H])C([H])([H])N(c3c([H])c([H])c([H])c([H])c3OC([H])([H])[H])C([H])([H])C1([H])[H])C([H])([H])C2([H])[H]
     RDKit          3D

 51 54  0  0  0  0  0  0  0  0999 V2000
   -5.4830    0.3198   -2.1152 C   0  0  0  0  0  0  0  0  0  0  0  0
   -4.3979    0.1977   -1.2199 O   0  0  0  0  0  0  0  0  0  0  0  0
   -4.6390   -0.2407    0.0612 C   0  0  0  0  0  0  0  0  0  0  0  0
   -5.9490   -0.5526    0.4390 C   0  0  0  0  0  0  0  0  0  0  0  0
   -6.2238   -0.9961    1.7138 C   0  0  0  0  0  0  0  0  0  0  0  0
   -5.1785   -1.1199    2.5925 C   0  0  0  0  0  0  0  0  0  0  0  0
   -3.8808   -0.8073    2.2087 C   0  0  0  0  0  0  0  0  0  0  0  0
   -3.5897   -0.3622    0.9357 C   0  0  0  0  0  0  0  0  0  0  0  0
   -2.3010   -0.0164    0.5220 N   0  0  0  0  0  0  0  0  0  0  0  0
   -1.1597   -0.4554    1.3458 C   0  0  0  0  0  0  0  0  0  0  0  0
   -0.0709   -0.9159    0.3609 C   0  0  0  0  0  0  0  0  0  0  0  0
    0.3450    0.1654   -0.4669 N   0  0  0  0  0  0  0  0  0  0  0  0
   -0.5287    1.2858   -0.4167 C   0  0  0  0  0  0  0  0  0  0  0  0
   -1.9567    0.7603   -0.6340 C   0  0  0  0  0  0  0  0  0  0  0  0
    1.7353    0.4755   -0.4375 C   0  0  0  0  0  0  0  0  0  0  0  0
    2.2693    0.9150    0.8753 C   0  0  0  0  0  0  0  0  0  0  0  0
    3.3599   -0.0124    1.4193 C   0  0  0  0  0  0  0  0  0  0  0  0
    4.4032   -0.0728    0.3519 C   0  0  0  0  0  0  0  0  0  0  0  0
    5.7287    0.1961    0.6047 C   0  0  0  0  0  0  0  0  0  0  0  0
    6.6190    0.1133   -0.4501 C   0  0  0  0  0  0  0  0  0  0  0  0
    6.1637   -0.2301   -1.7049 C   0  0  0  0  0  0  0  0  0  0  0  0
    7.0602   -0.3159   -2.7780 O   0  0  0  0  0  0  0  0  0  0  0  0
    4.8324   -0.5006   -1.9605 C   0  0  0  0  0  0  0  0  0  0  0  0
    3.9549   -0.4160   -0.9070 C   0  0  0  0  0  0  0  0  0  0  0  0
    2.4959   -0.6819   -1.0532 C   0  0  0  0  0  0  0  0  0  0  0  0
   -6.1130    1.2070   -1.9227 H   0  0  0  0  0  0  0  0  0  0  0  0
   -6.0831   -0.6256   -2.1631 H   0  0  0  0  0  0  0  0  0  0  0  0
   -5.0255    0.4092   -3.1350 H   0  0  0  0  0  0  0  0  0  0  0  0
   -6.7786   -0.4586   -0.2462 H   0  0  0  0  0  0  0  0  0  0  0  0
   -7.2524   -1.2334    1.9852 H   0  0  0  0  0  0  0  0  0  0  0  0
   -5.3795   -1.4641    3.5888 H   0  0  0  0  0  0  0  0  0  0  0  0
   -3.0915   -0.9161    2.9422 H   0  0  0  0  0  0  0  0  0  0  0  0
   -1.4739   -1.3585    1.9035 H   0  0  0  0  0  0  0  0  0  0  0  0
   -0.8641    0.3937    1.9529 H   0  0  0  0  0  0  0  0  0  0  0  0
   -0.5966   -1.6580   -0.3012 H   0  0  0  0  0  0  0  0  0  0  0  0
    0.7289   -1.4524    0.8610 H   0  0  0  0  0  0  0  0  0  0  0  0
   -0.4548    1.7958    0.5440 H   0  0  0  0  0  0  0  0  0  0  0  0
   -0.2826    1.9638   -1.2778 H   0  0  0  0  0  0  0  0  0  0  0  0
   -2.5712    1.6738   -0.7633 H   0  0  0  0  0  0  0  0  0  0  0  0
   -1.9679    0.1938   -1.5604 H   0  0  0  0  0  0  0  0  0  0  0  0
    1.8793    1.3327   -1.1625 H   0  0  0  0  0  0  0  0  0  0  0  0
    2.7500    1.9223    0.8270 H   0  0  0  0  0  0  0  0  0  0  0  0
    1.5165    0.9810    1.6823 H   0  0  0  0  0  0  0  0  0  0  0  0
    3.7562    0.4372    2.3383 H   0  0  0  0  0  0  0  0  0  0  0  0
    2.9767   -1.0425    1.5855 H   0  0  0  0  0  0  0  0  0  0  0  0
    6.0581    0.4628    1.5965 H   0  0  0  0  0  0  0  0  0  0  0  0
    7.6760    0.3108   -0.3249 H   0  0  0  0  0  0  0  0  0  0  0  0
    8.0464   -0.1217   -2.6186 H   0  0  0  0  0  0  0  0  0  0  0  0
    4.5019   -0.7663   -2.9452 H   0  0  0  0  0  0  0  0  0  0  0  0
    2.1966   -1.6102   -0.5391 H   0  0  0  0  0  0  0  0  0  0  0  0
    2.2390   -0.6959   -2.1343 H   0  0  0  0  0  0  0  0  0  0  0  0
  1  2  1  0
  2  3  1  0
  3  4  2  0
  4  5  1  0
  5  6  2  0
  6  7  1  0
  7  8  2  0
  8  9  1  0
  9 10  1  0
 10 11  1  0
 11 12  1  0
 12 13  1  0
 13 14  1  0
 12 15  1  0
 15 16  1  0
 16 17  1  0
 17 18  1  0
 18 19  2  0
 19 20  1  0
 20 21  2  0
 21 22  1  0
 21 23  1  0
 23 24  2  0
 24 25  1  0
  8  3  1  0
 14  9  1  0
 25 15  1  0
 24 18  1  0
  1 26  1  0
  1 27  1  0
  1 28  1  0
  4 29  1  0
  5 30  1  0
  6 31  1  0
  7 32  1  0
 10 33  1  0
 10 34  1  0
 11 35  1  0
 11 36  1  0
 13 37  1  0
 13 38  1  0
 14 39  1  0
 14 40  1  0
 15 41  1  0
 16 42  1  0
 16 43  1  0
 17 44  1  0
 17 45  1  0
 19 46  1  0
 20 47  1  0
 22 48  1  0
 23 49  1  0
 25 50  1  0
 25 51  1  0
M  END
$$$$
[H]c1nc(C([H])([H])[H])c(N([H])C([H])([H])c2c([H])c([H])c([H])c([H])c2N(C([H])([H])[H])S(=O)(=O)C(C([H])([H])[H])(C([H])([H])[H])C([H])([H])[H])nc1-c1nc(N([H])C(=O)Oc2c([H])c([H])c(Cl)c([H])c2[H])sc1[H]
     RDKit          3D

 69 72  0  0  0  0  0  0  0  0999 V2000
   -3.6382   -0.9209    2.4855 C   0  0  0  0  0  0  0  0  0  0  0  0
   -4.1632   -0.3600    1.2308 N   0  0  0  0  0  0  0  0  0  0  0  0
   -4.4922   -1.2623    0.2251 C   0  0  0  0  0  0  0  0  0  0  0  0
   -5.8182   -1.7032    0.1065 C   0  0  0  0  0  0  0  0  0  0  0  0
   -6.2043   -2.5346   -0.9210 C   0  0  0  0  0  0  0  0  0  0  0  0
   -5.2700   -2.9355   -1.8420 C   0  0  0  0  0  0  0  0  0  0  0  0
   -3.9364   -2.5197   -1.7576 C   0  0  0  0  0  0  0  0  0  0  0  0
   -3.5543   -1.6859   -0.7219 C   0  0  0  0  0  0  0  0  0  0  0  0
   -2.1623   -1.2759   -0.4674 C   0  0  0  0  0  0  0  0  0  0  0  0
   -1.2342   -1.7299   -1.4779 N   0  0  0  0  0  0  0  0  0  0  0  0
    0.1633   -1.4446   -1.3716 C   0  0  0  0  0  0  0  0  0  0  0  0
    0.6869   -0.7512   -0.3473 N   0  0  0  0  0  0  0  0  0  0  0  0
    2.0028   -0.4955   -0.2690 C   0  0  0  0  0  0  0  0  0  0  0  0
    2.8188   -0.9587   -1.2643 C   0  0  0  0  0  0  0  0  0  0  0  0
    2.3387   -1.6689   -2.3285 N   0  0  0  0  0  0  0  0  0  0  0  0
    0.9985   -1.8990   -2.3573 C   0  0  0  0  0  0  0  0  0  0  0  0
    0.4529   -2.6642   -3.4966 C   0  0  0  0  0  0  0  0  0  0  0  0
    2.5615    0.2733    0.8717 C   0  0  0  0  0  0  0  0  0  0  0  0
    1.7426    0.7450    1.8805 C   0  0  0  0  0  0  0  0  0  0  0  0
    2.8618    1.5302    2.8991 S   0  0  0  0  0  0  0  0  0  0  0  0
    4.2784    1.2204    2.0026 C   0  0  0  0  0  0  0  0  0  0  0  0
    5.6366    1.6160    2.3045 N   0  0  0  0  0  0  0  0  0  0  0  0
    6.6775    1.2627    1.4361 C   0  0  0  0  0  0  0  0  0  0  0  0
    6.4173    0.6034    0.4003 O   0  0  0  0  0  0  0  0  0  0  0  0
    8.0063    1.5929    1.6370 O   0  0  0  0  0  0  0  0  0  0  0  0
    9.0216    1.2407    0.7775 C   0  0  0  0  0  0  0  0  0  0  0  0
    9.3875    2.0603   -0.2614 C   0  0  0  0  0  0  0  0  0  0  0  0
   10.4039    1.7274   -1.1370 C   0  0  0  0  0  0  0  0  0  0  0  0
   11.0749    0.5400   -0.9697 C   0  0  0  0  0  0  0  0  0  0  0  0
   12.3760    0.0709   -2.0572 Cl  0  0  0  0  0  0  0  0  0  0  0  0
   10.7293   -0.2984    0.0612 C   0  0  0  0  0  0  0  0  0  0  0  0
    9.6969    0.0558    0.9382 C   0  0  0  0  0  0  0  0  0  0  0  0
    3.8268    0.5345    0.9728 N   0  0  0  0  0  0  0  0  0  0  0  0
   -4.3265    1.3235    1.1037 S   0  0  0  0  0  0  0  0  0  0  0  0
   -3.8513    2.0195    2.3678 O   0  0  0  0  0  0  0  0  0  0  0  0
   -3.5559    1.9183   -0.0199 O   0  0  0  0  0  0  0  0  0  0  0  0
   -6.0152    1.8668    0.8650 C   0  0  0  0  0  0  0  0  0  0  0  0
   -6.9274    1.4682    1.9730 C   0  0  0  0  0  0  0  0  0  0  0  0
   -5.9246    3.4069    0.9307 C   0  0  0  0  0  0  0  0  0  0  0  0
   -6.5350    1.5462   -0.5088 C   0  0  0  0  0  0  0  0  0  0  0  0
   -3.8206   -2.0119    2.5524 H   0  0  0  0  0  0  0  0  0  0  0  0
   -2.5616   -0.7473    2.5957 H   0  0  0  0  0  0  0  0  0  0  0  0
   -4.2467   -0.4651    3.3089 H   0  0  0  0  0  0  0  0  0  0  0  0
   -6.5658   -1.3920    0.8409 H   0  0  0  0  0  0  0  0  0  0  0  0
   -7.2263   -2.8632   -0.9972 H   0  0  0  0  0  0  0  0  0  0  0  0
   -5.5796   -3.5877   -2.6482 H   0  0  0  0  0  0  0  0  0  0  0  0
   -3.2705   -2.8701   -2.5044 H   0  0  0  0  0  0  0  0  0  0  0  0
   -2.0476   -0.2172   -0.2624 H   0  0  0  0  0  0  0  0  0  0  0  0
   -1.8650   -1.7739    0.5297 H   0  0  0  0  0  0  0  0  0  0  0  0
   -1.5804   -2.2614   -2.2870 H   0  0  0  0  0  0  0  0  0  0  0  0
    3.8912   -0.7479   -1.1965 H   0  0  0  0  0  0  0  0  0  0  0  0
   -0.1654   -3.5439   -3.1602 H   0  0  0  0  0  0  0  0  0  0  0  0
    1.2406   -3.0781   -4.1502 H   0  0  0  0  0  0  0  0  0  0  0  0
   -0.2443   -2.0441   -4.1035 H   0  0  0  0  0  0  0  0  0  0  0  0
    0.6474    0.6232    1.9679 H   0  0  0  0  0  0  0  0  0  0  0  0
    5.7863    2.1618    3.1795 H   0  0  0  0  0  0  0  0  0  0  0  0
    8.8896    3.0038   -0.4336 H   0  0  0  0  0  0  0  0  0  0  0  0
   10.7004    2.3601   -1.9546 H   0  0  0  0  0  0  0  0  0  0  0  0
   11.2733   -1.2189    0.1643 H   0  0  0  0  0  0  0  0  0  0  0  0
    9.4581   -0.6382    1.7389 H   0  0  0  0  0  0  0  0  0  0  0  0
   -6.3330    0.9670    2.7592 H   0  0  0  0  0  0  0  0  0  0  0  0
   -7.4615    2.2997    2.4414 H   0  0  0  0  0  0  0  0  0  0  0  0
   -7.7109    0.7216    1.6566 H   0  0  0  0  0  0  0  0  0  0  0  0
   -5.5806    3.7261   -0.0713 H   0  0  0  0  0  0  0  0  0  0  0  0
   -6.9019    3.8568    1.1235 H   0  0  0  0  0  0  0  0  0  0  0  0
   -5.1446    3.7132    1.6631 H   0  0  0  0  0  0  0  0  0  0  0  0
   -7.4537    0.8915   -0.4634 H   0  0  0  0  0  0  0  0  0  0  0  0
   -5.7568    1.1427   -1.1806 H   0  0  0  0  0  0  0  0  0  0  0  0
   -6.9221    2.4791   -1.0216 H   0  0  0  0  0  0  0  0  0  0  0  0
  1  2  1  0
  2  3  1  0
  3  4  2  0
  4  5  1  0
  5  6  2  0
  6  7  1  0
  7  8  2  0
  8  9  1  0
  9 10  1  0
 10 11  1  0
 11 12  2  0
 12 13  1  0
 13 14  2  0
 14 15  1  0
 15 16  2  0
 16 17  1  0
 13 18  1  0
 18 19  2  0
 19 20  1  0
 20 21  1  0
 21 22  1  0
 22 23  1  0
 23 24  2  0
 23 25  1  0
 25 26  1  0
 26 27  2  0
 27 28  1  0
 28 29  2  0
 29 30  1  0
 29 31  1  0
 31 32  2  0
 21 33  2  0
  2 34  1  0
 34 35  2  0
 34 36  2  0
 34 37  1  0
 37 38  1  0
 37 39  1  0
 37 40  1  0
  8  3  1  0
 16 11  1  0
 33 18  1  0
 32 26  1  0
  1 41  1  0
  1 42  1  0
  1 43  1  0
  4 44  1  0
  5 45  1  0
  6 46  1  0
  7 47  1  0
  9 48  1  0
  9 49  1  0
 10 50  1  0
 14 51  1  0
 17 52  1  0
 17 53  1  0
 17 54  1  0
 19 55  1  0
 22 56  1  0
 27 57  1  0
 28 58  1  0
 31 59  1  0
 32 60  1  0
 38 61  1  0
 38 62  1  0
 38 63  1  0
 39 64  1  0
 39 65  1  0
 39 66  1  0
 40 67  1  0
 40 68  1  0
 40 69  1  0
M  END
$$$$
[H]c1nc(Oc2c([H])c([H])c(N([H])C(=O)N([H])c3c([H])c([H])c(C([H])([H])N4C([H])([H])C([H])([H])N(C([H])([H])C([H])([H])[H])C([H])([H])C4([H])[H])c(C(F)(F)F)c3[H])c([H])c2[H])c([H])c(N([H])C([H])([H])[H])n1
     RDKit          3D

 68 71  0  0  0  0  0  0  0  0999 V2000
  -10.2990   -0.3201   -0.2443 C   0  0  0  0  0  0  0  0  0  0  0  0
   -9.0487    0.5002   -0.4280 C   0  0  0  0  0  0  0  0  0  0  0  0
   -8.1793   -0.0359   -1.4572 N   0  0  0  0  0  0  0  0  0  0  0  0
   -7.0305    0.8062   -1.5517 C   0  0  0  0  0  0  0  0  0  0  0  0
   -5.7154    0.1130   -1.2911 C   0  0  0  0  0  0  0  0  0  0  0  0
   -5.7379   -0.8228   -0.2229 N   0  0  0  0  0  0  0  0  0  0  0  0
   -5.1553   -0.4373    1.0060 C   0  0  0  0  0  0  0  0  0  0  0  0
   -3.7153   -0.2169    1.0542 C   0  0  0  0  0  0  0  0  0  0  0  0
   -2.9459   -0.4458   -0.0457 C   0  0  0  0  0  0  0  0  0  0  0  0
   -1.5554   -0.2549    0.0222 C   0  0  0  0  0  0  0  0  0  0  0  0
   -0.9188    0.1543    1.1522 C   0  0  0  0  0  0  0  0  0  0  0  0
    0.4451    0.3547    1.3623 N   0  0  0  0  0  0  0  0  0  0  0  0
    1.4499   -0.2261    0.5465 C   0  0  0  0  0  0  0  0  0  0  0  0
    1.1958   -0.9699   -0.4220 O   0  0  0  0  0  0  0  0  0  0  0  0
    2.8063    0.0526    0.8476 N   0  0  0  0  0  0  0  0  0  0  0  0
    3.8841   -0.4730    0.1219 C   0  0  0  0  0  0  0  0  0  0  0  0
    5.0696    0.2695    0.1595 C   0  0  0  0  0  0  0  0  0  0  0  0
    6.1724   -0.1959   -0.5017 C   0  0  0  0  0  0  0  0  0  0  0  0
    6.1984   -1.3743   -1.2203 C   0  0  0  0  0  0  0  0  0  0  0  0
    7.3559   -1.8175   -1.8874 O   0  0  0  0  0  0  0  0  0  0  0  0
    8.4788   -0.9936   -1.7796 C   0  0  0  0  0  0  0  0  0  0  0  0
    9.3306   -1.0781   -0.6992 C   0  0  0  0  0  0  0  0  0  0  0  0
   10.4383   -0.2312   -0.6411 C   0  0  0  0  0  0  0  0  0  0  0  0
   11.3426   -0.2777    0.4449 N   0  0  0  0  0  0  0  0  0  0  0  0
   12.4721    0.6190    0.4560 C   0  0  0  0  0  0  0  0  0  0  0  0
   10.6148    0.6290   -1.6528 N   0  0  0  0  0  0  0  0  0  0  0  0
    9.7904    0.7181   -2.7086 C   0  0  0  0  0  0  0  0  0  0  0  0
    8.7293   -0.1014   -2.7527 N   0  0  0  0  0  0  0  0  0  0  0  0
    5.0337   -2.0940   -1.2508 C   0  0  0  0  0  0  0  0  0  0  0  0
    3.8935   -1.6380   -0.5818 C   0  0  0  0  0  0  0  0  0  0  0  0
   -1.7503    0.3770    2.2572 C   0  0  0  0  0  0  0  0  0  0  0  0
   -3.1090    0.2069    2.2445 C   0  0  0  0  0  0  0  0  0  0  0  0
   -3.9076    0.4692    3.4596 C   0  0  0  0  0  0  0  0  0  0  0  0
   -3.0267    0.8724    4.4765 F   0  0  0  0  0  0  0  0  0  0  0  0
   -4.5531   -0.6222    3.9660 F   0  0  0  0  0  0  0  0  0  0  0  0
   -4.7451    1.5847    3.3219 F   0  0  0  0  0  0  0  0  0  0  0  0
   -6.9874   -1.4884    0.0062 C   0  0  0  0  0  0  0  0  0  0  0  0
   -7.8513   -1.4181   -1.2341 C   0  0  0  0  0  0  0  0  0  0  0  0
  -10.0056   -1.2236    0.3376 H   0  0  0  0  0  0  0  0  0  0  0  0
  -11.0156    0.2828    0.3494 H   0  0  0  0  0  0  0  0  0  0  0  0
  -10.7451   -0.5533   -1.2099 H   0  0  0  0  0  0  0  0  0  0  0  0
   -9.3902    1.5064   -0.7967 H   0  0  0  0  0  0  0  0  0  0  0  0
   -8.5282    0.6942    0.5188 H   0  0  0  0  0  0  0  0  0  0  0  0
   -6.9427    1.2787   -2.5729 H   0  0  0  0  0  0  0  0  0  0  0  0
   -7.0852    1.6803   -0.8419 H   0  0  0  0  0  0  0  0  0  0  0  0
   -5.3787   -0.3639   -2.2424 H   0  0  0  0  0  0  0  0  0  0  0  0
   -4.9782    0.9378   -1.0987 H   0  0  0  0  0  0  0  0  0  0  0  0
   -5.3596   -1.2873    1.7313 H   0  0  0  0  0  0  0  0  0  0  0  0
   -5.7610    0.3966    1.4141 H   0  0  0  0  0  0  0  0  0  0  0  0
   -3.3300   -0.7898   -1.0118 H   0  0  0  0  0  0  0  0  0  0  0  0
   -0.9627   -0.4277   -0.8741 H   0  0  0  0  0  0  0  0  0  0  0  0
    0.7597    0.9698    2.1611 H   0  0  0  0  0  0  0  0  0  0  0  0
    3.0013    0.6928    1.6707 H   0  0  0  0  0  0  0  0  0  0  0  0
    5.0877    1.2125    0.7209 H   0  0  0  0  0  0  0  0  0  0  0  0
    7.0847    0.3965   -0.4601 H   0  0  0  0  0  0  0  0  0  0  0  0
    9.1416   -1.7902    0.0899 H   0  0  0  0  0  0  0  0  0  0  0  0
   11.2010   -0.9471    1.2284 H   0  0  0  0  0  0  0  0  0  0  0  0
   12.6067    1.1140   -0.5277 H   0  0  0  0  0  0  0  0  0  0  0  0
   13.4237    0.0623    0.6491 H   0  0  0  0  0  0  0  0  0  0  0  0
   12.3043    1.3858    1.2464 H   0  0  0  0  0  0  0  0  0  0  0  0
    9.9776    1.4417   -3.5159 H   0  0  0  0  0  0  0  0  0  0  0  0
    5.0003   -3.0327   -1.8043 H   0  0  0  0  0  0  0  0  0  0  0  0
    3.0130   -2.2945   -0.6480 H   0  0  0  0  0  0  0  0  0  0  0  0
   -1.3081    0.7006    3.1773 H   0  0  0  0  0  0  0  0  0  0  0  0
   -7.5417   -1.0573    0.8567 H   0  0  0  0  0  0  0  0  0  0  0  0
   -6.7530   -2.5420    0.2777 H   0  0  0  0  0  0  0  0  0  0  0  0
   -7.2335   -1.7544   -2.0856 H   0  0  0  0  0  0  0  0  0  0  0  0
   -8.7522   -2.0077   -1.0717 H   0  0  0  0  0  0  0  0  0  0  0  0
  1  2  1  0
  2  3  1  0
  3  4  1  0
  4  5  1  0
  5  6  1  0
  6  7  1  0
  7  8  1  0
  8  9  2  0
  9 10  1  0
 10 11  2  0
 11 12  1  0
 12 13  1  0
 13 14  2  0
 13 15  1  0
 15 16  1  0
 16 17  2  0
 17 18  1  0
 18 19  2  0
 19 20  1  0
 20 21  1  0
 21 22  2  0
 22 23  1  0
 23 24  1  0
 24 25  1  0
 23 26  2  0
 26 27  1  0
 27 28  2  0
 19 29  1  0
 29 30  2  0
 11 31  1  0
 31 32  2  0
 32 33  1  0
 33 34  1  0
 33 35  1  0
 33 36  1  0
  6 37  1  0
 37 38  1  0
 38  3  1  0
 32  8  1  0
 30 16  1  0
 28 21  1  0
  1 39  1  0
  1 40  1  0
  1 41  1  0
  2 42  1  0
  2 43  1  0
  4 44  1  0
  4 45  1  0
  5 46  1  0
  5 47  1  0
  7 48  1  0
  7 49  1  0
  9 50  1  0
 10 51  1  0
 12 52  1  0
 15 53  1  0
 17 54  1  0
 18 55  1  0
 22 56  1  0
 24 57  1  0
 25 58  1  0
 25 59  1  0
 25 60  1  0
 27 61  1  0
 29 62  1  0
 30 63  1  0
 31 64  1  0
 37 65  1  0
 37 66  1  0
 38 67  1  0
 38 68  1  0
M  END
$$$$
[H]Oc1c(O[H])c(C([H])([H])c2c([H])c([H])c([H])c(Cl)c2[H])c([H])c([H])c1/C([H])=C(\[H])C(=O)N1C([H])([H])C([H])([H])N([H])C([H])([H])C1([H])[H]
     RDKit          3D

 47 49  0  0  0  0  0  0  0  0999 V2000
    2.4536   -2.5747   -1.5878 O   0  0  0  0  0  0  0  0  0  0  0  0
    1.9909   -1.2680   -1.4558 C   0  0  0  0  0  0  0  0  0  0  0  0
    2.8461   -0.2228   -1.6528 C   0  0  0  0  0  0  0  0  0  0  0  0
    4.2966   -0.3748   -1.9872 C   0  0  0  0  0  0  0  0  0  0  0  0
    5.0095   -0.7111   -0.7194 C   0  0  0  0  0  0  0  0  0  0  0  0
    5.3934   -1.9915   -0.4373 C   0  0  0  0  0  0  0  0  0  0  0  0
    6.0323   -2.2169    0.7840 C   0  0  0  0  0  0  0  0  0  0  0  0
    6.2795   -1.2115    1.6864 C   0  0  0  0  0  0  0  0  0  0  0  0
    5.8873    0.0790    1.3898 C   0  0  0  0  0  0  0  0  0  0  0  0
    6.2112    1.3330    2.5532 Cl  0  0  0  0  0  0  0  0  0  0  0  0
    5.2563    0.3193    0.1911 C   0  0  0  0  0  0  0  0  0  0  0  0
    2.3551    1.0367   -1.5163 C   0  0  0  0  0  0  0  0  0  0  0  0
    1.0091    1.2611   -1.1819 C   0  0  0  0  0  0  0  0  0  0  0  0
    0.1337    0.2282   -0.9789 C   0  0  0  0  0  0  0  0  0  0  0  0
   -1.2590    0.4668   -0.6191 C   0  0  0  0  0  0  0  0  0  0  0  0
   -1.8222    1.6322   -0.4211 C   0  0  0  0  0  0  0  0  0  0  0  0
   -3.1758    1.9496   -0.0702 C   0  0  0  0  0  0  0  0  0  0  0  0
   -3.3586    3.2488    0.0828 O   0  0  0  0  0  0  0  0  0  0  0  0
   -4.3100    1.2070    0.1397 N   0  0  0  0  0  0  0  0  0  0  0  0
   -5.5341    1.9484    0.5946 C   0  0  0  0  0  0  0  0  0  0  0  0
   -5.8569    1.3588    1.9326 C   0  0  0  0  0  0  0  0  0  0  0  0
   -5.9364   -0.0629    1.9334 N   0  0  0  0  0  0  0  0  0  0  0  0
   -4.7294   -0.7180    1.4098 C   0  0  0  0  0  0  0  0  0  0  0  0
   -4.6057   -0.1900   -0.0074 C   0  0  0  0  0  0  0  0  0  0  0  0
    0.6430   -1.0383   -1.1208 C   0  0  0  0  0  0  0  0  0  0  0  0
   -0.1419   -2.1423   -0.9415 O   0  0  0  0  0  0  0  0  0  0  0  0
    1.8218   -3.3473   -1.4418 H   0  0  0  0  0  0  0  0  0  0  0  0
    4.7158    0.5921   -2.3303 H   0  0  0  0  0  0  0  0  0  0  0  0
    4.4582   -1.1630   -2.7277 H   0  0  0  0  0  0  0  0  0  0  0  0
    5.2379   -2.8359   -1.1112 H   0  0  0  0  0  0  0  0  0  0  0  0
    6.3408   -3.2276    1.0200 H   0  0  0  0  0  0  0  0  0  0  0  0
    6.7697   -1.4083    2.6162 H   0  0  0  0  0  0  0  0  0  0  0  0
    4.9539    1.3296   -0.0357 H   0  0  0  0  0  0  0  0  0  0  0  0
    2.9812    1.9020   -1.6606 H   0  0  0  0  0  0  0  0  0  0  0  0
    0.6677    2.2739   -1.0877 H   0  0  0  0  0  0  0  0  0  0  0  0
   -1.9378   -0.3845   -0.4719 H   0  0  0  0  0  0  0  0  0  0  0  0
   -1.1023    2.4777   -0.5554 H   0  0  0  0  0  0  0  0  0  0  0  0
   -5.3525    3.0168    0.6490 H   0  0  0  0  0  0  0  0  0  0  0  0
   -6.3194    1.6409   -0.1181 H   0  0  0  0  0  0  0  0  0  0  0  0
   -6.8669    1.7298    2.2420 H   0  0  0  0  0  0  0  0  0  0  0  0
   -5.1457    1.7697    2.6766 H   0  0  0  0  0  0  0  0  0  0  0  0
   -6.7138   -0.3767    1.3452 H   0  0  0  0  0  0  0  0  0  0  0  0
   -3.8947   -0.4015    2.0596 H   0  0  0  0  0  0  0  0  0  0  0  0
   -4.8616   -1.7946    1.4747 H   0  0  0  0  0  0  0  0  0  0  0  0
   -4.0396   -0.7813   -0.6942 H   0  0  0  0  0  0  0  0  0  0  0  0
   -5.6835   -0.2632   -0.4181 H   0  0  0  0  0  0  0  0  0  0  0  0
   -1.0967   -2.0947   -0.7054 H   0  0  0  0  0  0  0  0  0  0  0  0
  1  2  1  0
  2  3  2  0
  3  4  1  0
  4  5  1  0
  5  6  2  0
  6  7  1  0
  7  8  2  0
  8  9  1  0
  9 10  1  0
  9 11  2  0
  3 12  1  0
 12 13  2  0
 13 14  1  0
 14 15  1  0
 15 16  2  0
 16 17  1  0
 17 18  2  0
 17 19  1  0
 19 20  1  0
 20 21  1  0
 21 22  1  0
 22 23  1  0
 23 24  1  0
 14 25  2  0
 25 26  1  0
 25  2  1  0
 11  5  1  0
 24 19  1  0
  1 27  1  0
  4 28  1  0
  4 29  1  0
  6 30  1  0
  7 31  1  0
  8 32  1  0
 11 33  1  0
 12 34  1  0
 13 35  1  0
 15 36  1  0
 16 37  1  0
 20 38  1  0
 20 39  1  0
 21 40  1  0
 21 41  1  0
 22 42  1  0
 23 43  1  0
 23 44  1  0
 24 45  1  0
 24 46  1  0
 26 47  1  0
M  END
$$$$
[H]c1c([H])c([H])c(-c2c([H])c([H])c(-n3nnc(C([H])([H])C(=O)N([H])c4c([H])c([H])c5nsnc5c4[H])c3[H])c([H])c2[H])c([H])c1[H]
     RDKit          3D

 46 50  0  0  0  0  0  0  0  0999 V2000
    3.5391   -0.7438   -1.6732 O   0  0  0  0  0  0  0  0  0  0  0  0
    3.7434   -1.3160   -0.5909 C   0  0  0  0  0  0  0  0  0  0  0  0
    2.8198   -2.4572   -0.2295 C   0  0  0  0  0  0  0  0  0  0  0  0
    1.5556   -1.8633    0.2448 C   0  0  0  0  0  0  0  0  0  0  0  0
    0.3552   -1.7344   -0.3898 C   0  0  0  0  0  0  0  0  0  0  0  0
   -0.4862   -1.1257    0.4524 N   0  0  0  0  0  0  0  0  0  0  0  0
    0.1880   -0.8806    1.5965 N   0  0  0  0  0  0  0  0  0  0  0  0
    1.4047   -1.3130    1.4884 N   0  0  0  0  0  0  0  0  0  0  0  0
   -1.8608   -0.7599    0.2944 C   0  0  0  0  0  0  0  0  0  0  0  0
   -2.8580   -1.6874    0.4582 C   0  0  0  0  0  0  0  0  0  0  0  0
   -4.1769   -1.2603    0.3699 C   0  0  0  0  0  0  0  0  0  0  0  0
   -4.5297    0.0393    0.1286 C   0  0  0  0  0  0  0  0  0  0  0  0
   -3.5106    0.9618   -0.0379 C   0  0  0  0  0  0  0  0  0  0  0  0
   -2.2050    0.5500    0.0475 C   0  0  0  0  0  0  0  0  0  0  0  0
   -5.9101    0.4857    0.0824 C   0  0  0  0  0  0  0  0  0  0  0  0
   -6.3411    1.5143   -0.7108 C   0  0  0  0  0  0  0  0  0  0  0  0
   -7.6745    1.8800   -0.6617 C   0  0  0  0  0  0  0  0  0  0  0  0
   -8.5774    1.2359    0.1615 C   0  0  0  0  0  0  0  0  0  0  0  0
   -8.1414    0.1981    0.9617 C   0  0  0  0  0  0  0  0  0  0  0  0
   -6.8141   -0.1760    0.9230 C   0  0  0  0  0  0  0  0  0  0  0  0
    4.7560   -0.9941    0.3265 N   0  0  0  0  0  0  0  0  0  0  0  0
    5.7329    0.0092    0.1849 C   0  0  0  0  0  0  0  0  0  0  0  0
    6.2684    0.6590    1.3117 C   0  0  0  0  0  0  0  0  0  0  0  0
    7.2537    1.6014    1.1795 C   0  0  0  0  0  0  0  0  0  0  0  0
    7.7602    1.9432   -0.0944 C   0  0  0  0  0  0  0  0  0  0  0  0
    8.7287    2.8431   -0.2946 N   0  0  0  0  0  0  0  0  0  0  0  0
    8.9448    2.8466   -1.9545 S   0  0  0  0  0  0  0  0  0  0  0  0
    7.7989    1.7030   -2.3679 N   0  0  0  0  0  0  0  0  0  0  0  0
    7.2628    1.3331   -1.1940 C   0  0  0  0  0  0  0  0  0  0  0  0
    6.2461    0.3661   -1.0308 C   0  0  0  0  0  0  0  0  0  0  0  0
    2.6294   -3.0629   -1.1209 H   0  0  0  0  0  0  0  0  0  0  0  0
    3.2920   -3.1067    0.5235 H   0  0  0  0  0  0  0  0  0  0  0  0
    0.0926   -2.0620   -1.4014 H   0  0  0  0  0  0  0  0  0  0  0  0
   -2.6692   -2.7376    0.6521 H   0  0  0  0  0  0  0  0  0  0  0  0
   -4.9873   -1.9834    0.4944 H   0  0  0  0  0  0  0  0  0  0  0  0
   -3.7157    2.0098   -0.2319 H   0  0  0  0  0  0  0  0  0  0  0  0
   -1.4024    1.2930   -0.0892 H   0  0  0  0  0  0  0  0  0  0  0  0
   -5.6535    2.0155   -1.3543 H   0  0  0  0  0  0  0  0  0  0  0  0
   -8.0676    2.6972   -1.2820 H   0  0  0  0  0  0  0  0  0  0  0  0
   -9.5965    1.5467    0.1724 H   0  0  0  0  0  0  0  0  0  0  0  0
   -8.8791   -0.2718    1.5871 H   0  0  0  0  0  0  0  0  0  0  0  0
   -6.4871   -0.9786    1.5463 H   0  0  0  0  0  0  0  0  0  0  0  0
    4.8313   -1.5418    1.2488 H   0  0  0  0  0  0  0  0  0  0  0  0
    5.8455    0.3665    2.2671 H   0  0  0  0  0  0  0  0  0  0  0  0
    7.6476    2.0913    2.0853 H   0  0  0  0  0  0  0  0  0  0  0  0
    5.8475   -0.1332   -1.9101 H   0  0  0  0  0  0  0  0  0  0  0  0
  1  2  2  0
  2  3  1  0
  3  4  1  0
  4  5  2  0
  5  6  1  0
  6  7  1  0
  7  8  2  0
  6  9  1  0
  9 10  2  0
 10 11  1  0
 11 12  2  0
 12 13  1  0
 13 14  2  0
 12 15  1  0
 15 16  2  0
 16 17  1  0
 17 18  2  0
 18 19  1  0
 19 20  2  0
  2 21  1  0
 21 22  1  0
 22 23  1  0
 23 24  2  0
 24 25  1  0
 25 26  2  0
 26 27  1  0
 27 28  1  0
 28 29  2  0
 29 30  1  0
  8  4  1  0
 14  9  1  0
 20 15  1  0
 30 22  2  0
 29 25  1  0
  3 31  1  0
  3 32  1  0
  5 33  1  0
 10 34  1  0
 11 35  1  0
 13 36  1  0
 14 37  1  0
 16 38  1  0
 17 39  1  0
 18 40  1  0
 19 41  1  0
 20 42  1  0
 21 43  1  0
 23 44  1  0
 24 45  1  0
 30 46  1  0
M  END
$$$$
[H]c1c([H])c([H])c(C([H])([H])n2c([H])c(C3=C(c4c([H])c([H])c5c(c4[H])OC([H])([H])O5)C(=O)N([H])C3=O)c3c([H])c([H])c([H])c([H])c32)c([H])c1[H]
     RDKit          3D

 50 55  0  0  0  0  0  0  0  0999 V2000
   -1.4688   -4.5744    1.6409 O   0  0  0  0  0  0  0  0  0  0  0  0
   -2.0632   -3.4760    1.5488 C   0  0  0  0  0  0  0  0  0  0  0  0
   -3.4132   -3.2734    1.9375 N   0  0  0  0  0  0  0  0  0  0  0  0
   -3.6770   -1.8966    1.6656 C   0  0  0  0  0  0  0  0  0  0  0  0
   -4.7768   -1.3215    1.8763 O   0  0  0  0  0  0  0  0  0  0  0  0
   -2.4755   -1.2786    1.1107 C   0  0  0  0  0  0  0  0  0  0  0  0
   -1.5286   -2.1867    1.0381 C   0  0  0  0  0  0  0  0  0  0  0  0
   -0.1723   -1.9536    0.5859 C   0  0  0  0  0  0  0  0  0  0  0  0
    0.6474   -0.9441    1.0342 C   0  0  0  0  0  0  0  0  0  0  0  0
    1.8373   -1.0004    0.3902 N   0  0  0  0  0  0  0  0  0  0  0  0
    2.9595   -0.1023    0.5703 C   0  0  0  0  0  0  0  0  0  0  0  0
    2.9213    1.0939   -0.2689 C   0  0  0  0  0  0  0  0  0  0  0  0
    2.2993    2.2324    0.1949 C   0  0  0  0  0  0  0  0  0  0  0  0
    2.2370    3.3899   -0.5678 C   0  0  0  0  0  0  0  0  0  0  0  0
    2.8250    3.3657   -1.8218 C   0  0  0  0  0  0  0  0  0  0  0  0
    3.4604    2.2431   -2.3263 C   0  0  0  0  0  0  0  0  0  0  0  0
    3.4898    1.1054   -1.5086 C   0  0  0  0  0  0  0  0  0  0  0  0
    1.8201   -2.0311   -0.4776 C   0  0  0  0  0  0  0  0  0  0  0  0
    2.7322   -2.5451   -1.3749 C   0  0  0  0  0  0  0  0  0  0  0  0
    2.4753   -3.6346   -2.1774 C   0  0  0  0  0  0  0  0  0  0  0  0
    1.2358   -4.2197   -2.0560 C   0  0  0  0  0  0  0  0  0  0  0  0
    0.3082   -3.7118   -1.1561 C   0  0  0  0  0  0  0  0  0  0  0  0
    0.5743   -2.6230   -0.3573 C   0  0  0  0  0  0  0  0  0  0  0  0
   -2.4140    0.1083    0.6932 C   0  0  0  0  0  0  0  0  0  0  0  0
   -1.8384    0.4782   -0.5216 C   0  0  0  0  0  0  0  0  0  0  0  0
   -1.7838    1.8093   -0.8870 C   0  0  0  0  0  0  0  0  0  0  0  0
   -2.2887    2.8093   -0.0783 C   0  0  0  0  0  0  0  0  0  0  0  0
   -2.3946    4.1951   -0.1362 O   0  0  0  0  0  0  0  0  0  0  0  0
   -3.4480    4.5948    0.7537 C   0  0  0  0  0  0  0  0  0  0  0  0
   -3.3015    3.6222    1.7741 O   0  0  0  0  0  0  0  0  0  0  0  0
   -2.8584    2.4545    1.1213 C   0  0  0  0  0  0  0  0  0  0  0  0
   -2.9098    1.1386    1.4777 C   0  0  0  0  0  0  0  0  0  0  0  0
   -4.0744   -3.9929    2.3404 H   0  0  0  0  0  0  0  0  0  0  0  0
    0.4170   -0.2040    1.7793 H   0  0  0  0  0  0  0  0  0  0  0  0
    3.9043   -0.6718    0.3771 H   0  0  0  0  0  0  0  0  0  0  0  0
    2.9651    0.1363    1.6682 H   0  0  0  0  0  0  0  0  0  0  0  0
    1.8327    2.2767    1.1709 H   0  0  0  0  0  0  0  0  0  0  0  0
    1.7596    4.3002   -0.2399 H   0  0  0  0  0  0  0  0  0  0  0  0
    2.7740    4.2736   -2.4151 H   0  0  0  0  0  0  0  0  0  0  0  0
    3.9133    2.2442   -3.3069 H   0  0  0  0  0  0  0  0  0  0  0  0
    4.0037    0.2576   -1.9613 H   0  0  0  0  0  0  0  0  0  0  0  0
    3.7187   -2.0896   -1.4793 H   0  0  0  0  0  0  0  0  0  0  0  0
    3.2161   -4.0236   -2.8810 H   0  0  0  0  0  0  0  0  0  0  0  0
    0.9713   -5.0729   -2.6527 H   0  0  0  0  0  0  0  0  0  0  0  0
   -0.6845   -4.1676   -1.0612 H   0  0  0  0  0  0  0  0  0  0  0  0
   -1.4422   -0.2823   -1.1779 H   0  0  0  0  0  0  0  0  0  0  0  0
   -1.3369    2.1133   -1.8338 H   0  0  0  0  0  0  0  0  0  0  0  0
   -3.1613    5.5987    1.1332 H   0  0  0  0  0  0  0  0  0  0  0  0
   -4.4223    4.5863    0.2690 H   0  0  0  0  0  0  0  0  0  0  0  0
   -3.3643    0.8499    2.4370 H   0  0  0  0  0  0  0  0  0  0  0  0
  1  2  2  0
  2  3  1  0
  3  4  1  0
  4  5  2  0
  4  6  1  0
  6  7  2  0
  7  8  1  0
  8  9  2  0
  9 10  1  0
 10 11  1  0
 11 12  1  0
 12 13  2  0
 13 14  1  0
 14 15  2  0
 15 16  1  0
 16 17  2  0
 10 18  1  0
 18 19  2  0
 19 20  1  0
 20 21  2  0
 21 22  1  0
 22 23  2  0
  6 24  1  0
 24 25  2  0
 25 26  1  0
 26 27  2  0
 27 28  1  0
 28 29  1  0
 29 30  1  0
 30 31  1  0
 31 32  2  0
  7  2  1  0
 23  8  1  0
 32 24  1  0
 17 12  1  0
 23 18  1  0
 31 27  1  0
  3 33  1  0
  9 34  1  0
 11 35  1  0
 11 36  1  0
 13 37  1  0
 14 38  1  0
 15 39  1  0
 16 40  1  0
 17 41  1  0
 19 42  1  0
 20 43  1  0
 21 44  1  0
 22 45  1  0
 25 46  1  0
 26 47  1  0
 29 48  1  0
 29 49  1  0
 32 50  1  0
M  END
$$$$
[H]ON1C([H])=C(c2c([H])c([H])c([H])c([H])c2[H])C([H])=C([H])C1([H])N([H])C(=O)C1([H])C([H])([H])C([H])([H])N([H])C([H])([H])C1([H])[H]
     RDKit          3D

 43 45  0  0  0  0  0  0  0  0999 V2000
   -0.0820    2.7812    0.6576 O   0  0  0  0  0  0  0  0  0  0  0  0
    0.7197    1.7688    0.2525 N   0  0  0  0  0  0  0  0  0  0  0  0
    1.8744    1.3681    1.0266 C   0  0  0  0  0  0  0  0  0  0  0  0
    2.6797    0.3786    0.6555 C   0  0  0  0  0  0  0  0  0  0  0  0
    2.3852   -0.3253   -0.5760 C   0  0  0  0  0  0  0  0  0  0  0  0
    1.3324    0.0194   -1.3083 C   0  0  0  0  0  0  0  0  0  0  0  0
    0.4028    1.0971   -0.9632 C   0  0  0  0  0  0  0  0  0  0  0  0
   -0.9380    0.5300   -0.9625 N   0  0  0  0  0  0  0  0  0  0  0  0
   -1.9056    0.9322   -1.9182 C   0  0  0  0  0  0  0  0  0  0  0  0
   -1.5674    1.7953   -2.7673 O   0  0  0  0  0  0  0  0  0  0  0  0
   -3.2644    0.3404   -1.8967 C   0  0  0  0  0  0  0  0  0  0  0  0
   -3.1238   -1.1637   -2.0859 C   0  0  0  0  0  0  0  0  0  0  0  0
   -4.4545   -1.8565   -1.9715 C   0  0  0  0  0  0  0  0  0  0  0  0
   -5.5094   -0.9676   -1.5169 N   0  0  0  0  0  0  0  0  0  0  0  0
   -5.0623   -0.3422   -0.2878 C   0  0  0  0  0  0  0  0  0  0  0  0
   -3.8729    0.5630   -0.5268 C   0  0  0  0  0  0  0  0  0  0  0  0
    3.8386   -0.0117    1.4475 C   0  0  0  0  0  0  0  0  0  0  0  0
    4.1589    0.6333    2.6332 C   0  0  0  0  0  0  0  0  0  0  0  0
    5.2826    0.1993    3.3292 C   0  0  0  0  0  0  0  0  0  0  0  0
    6.0763   -0.8354    2.8856 C   0  0  0  0  0  0  0  0  0  0  0  0
    5.7573   -1.4738    1.7098 C   0  0  0  0  0  0  0  0  0  0  0  0
    4.6290   -1.0453    1.0017 C   0  0  0  0  0  0  0  0  0  0  0  0
    0.1200    3.0711    1.5822 H   0  0  0  0  0  0  0  0  0  0  0  0
    2.0736    1.9067    1.9396 H   0  0  0  0  0  0  0  0  0  0  0  0
    2.9716   -1.1505   -0.9802 H   0  0  0  0  0  0  0  0  0  0  0  0
    1.1490   -0.5254   -2.2118 H   0  0  0  0  0  0  0  0  0  0  0  0
    0.4499    1.8379   -1.8143 H   0  0  0  0  0  0  0  0  0  0  0  0
   -1.1998   -0.1994   -0.2336 H   0  0  0  0  0  0  0  0  0  0  0  0
   -3.9018    0.7333   -2.7057 H   0  0  0  0  0  0  0  0  0  0  0  0
   -2.7178   -1.3853   -3.0928 H   0  0  0  0  0  0  0  0  0  0  0  0
   -2.4048   -1.5090   -1.3131 H   0  0  0  0  0  0  0  0  0  0  0  0
   -4.7625   -2.3266   -2.9090 H   0  0  0  0  0  0  0  0  0  0  0  0
   -4.3291   -2.6798   -1.2242 H   0  0  0  0  0  0  0  0  0  0  0  0
   -5.6677   -0.2605   -2.2731 H   0  0  0  0  0  0  0  0  0  0  0  0
   -4.8037   -1.1613    0.4101 H   0  0  0  0  0  0  0  0  0  0  0  0
   -5.9080    0.2420    0.1402 H   0  0  0  0  0  0  0  0  0  0  0  0
   -4.1255    1.6399   -0.3842 H   0  0  0  0  0  0  0  0  0  0  0  0
   -3.1126    0.3199    0.2419 H   0  0  0  0  0  0  0  0  0  0  0  0
    3.5583    1.4342    2.9918 H   0  0  0  0  0  0  0  0  0  0  0  0
    5.5433    0.6898    4.2499 H   0  0  0  0  0  0  0  0  0  0  0  0
    6.9541   -1.1918    3.4069 H   0  0  0  0  0  0  0  0  0  0  0  0
    6.3482   -2.2937    1.3157 H   0  0  0  0  0  0  0  0  0  0  0  0
    4.4089   -1.5770    0.0731 H   0  0  0  0  0  0  0  0  0  0  0  0
  1  2  1  0
  2  3  1  0
  3  4  2  0
  4  5  1  0
  5  6  2  0
  6  7  1  0
  7  8  1  0
  8  9  1  0
  9 10  2  0
  9 11  1  0
 11 12  1  0
 12 13  1  0
 13 14  1  0
 14 15  1  0
 15 16  1  0
  4 17  1  0
 17 18  2  0
 18 19  1  0
 19 20  2  0
 20 21  1  0
 21 22  2  0
  7  2  1  0
 16 11  1  0
 22 17  1  0
  1 23  1  0
  3 24  1  0
  5 25  1  0
  6 26  1  0
  7 27  1  0
  8 28  1  0
 11 29  1  0
 12 30  1  0
 12 31  1  0
 13 32  1  0
 13 33  1  0
 14 34  1  0
 15 35  1  0
 15 36  1  0
 16 37  1  0
 16 38  1  0
 18 39  1  0
 19 40  1  0
 20 41  1  0
 21 42  1  0
 22 43  1  0
M  END
$$$$
[H]c1c(C([H])([H])[H])c([H])c(S(=O)(=O)N2C([H])([H])C([H])([H])C([H])(C(=O)N([H])C3([H])C([H])([H])C([H])([H])C([H])([H])C([H])([H])C3([H])[H])C([H])([H])C2([H])[H])c([H])c1C([H])([H])[H]
     RDKit          3D

 56 58  0  0  0  0  0  0  0  0999 V2000
   -5.8077    2.9861   -0.6317 C   0  0  0  0  0  0  0  0  0  0  0  0
   -5.4599    1.5991   -0.2258 C   0  0  0  0  0  0  0  0  0  0  0  0
   -6.0663    0.5336   -0.8425 C   0  0  0  0  0  0  0  0  0  0  0  0
   -5.7866   -0.7748   -0.5111 C   0  0  0  0  0  0  0  0  0  0  0  0
   -6.4806   -1.8643   -1.2197 C   0  0  0  0  0  0  0  0  0  0  0  0
   -4.8653   -1.0177    0.4744 C   0  0  0  0  0  0  0  0  0  0  0  0
   -4.2346    0.0273    1.1174 C   0  0  0  0  0  0  0  0  0  0  0  0
   -4.5362    1.3443    0.7626 C   0  0  0  0  0  0  0  0  0  0  0  0
   -3.0747   -0.3438    2.3611 S   0  0  0  0  0  0  0  0  0  0  0  0
   -3.0684    0.8341    3.3179 O   0  0  0  0  0  0  0  0  0  0  0  0
   -3.5476   -1.5239    3.1187 O   0  0  0  0  0  0  0  0  0  0  0  0
   -1.4790   -0.5155    1.7621 N   0  0  0  0  0  0  0  0  0  0  0  0
   -0.9593    0.6480    1.1531 C   0  0  0  0  0  0  0  0  0  0  0  0
    0.2054    0.5141    0.2756 C   0  0  0  0  0  0  0  0  0  0  0  0
    0.7760   -0.8384    0.0767 C   0  0  0  0  0  0  0  0  0  0  0  0
    0.2983   -1.8941    1.0036 C   0  0  0  0  0  0  0  0  0  0  0  0
   -1.1941   -1.7554    1.1554 C   0  0  0  0  0  0  0  0  0  0  0  0
    2.2859   -0.8232    0.1597 C   0  0  0  0  0  0  0  0  0  0  0  0
    2.8932   -1.4905    1.0208 O   0  0  0  0  0  0  0  0  0  0  0  0
    3.0372   -0.0411   -0.7510 N   0  0  0  0  0  0  0  0  0  0  0  0
    4.4782   -0.0435   -0.6506 C   0  0  0  0  0  0  0  0  0  0  0  0
    4.9882    1.3638   -0.4414 C   0  0  0  0  0  0  0  0  0  0  0  0
    6.4874    1.3357   -0.2632 C   0  0  0  0  0  0  0  0  0  0  0  0
    7.0917    0.0254   -0.6888 C   0  0  0  0  0  0  0  0  0  0  0  0
    6.5233   -0.4820   -1.9921 C   0  0  0  0  0  0  0  0  0  0  0  0
    5.0161   -0.5016   -2.0058 C   0  0  0  0  0  0  0  0  0  0  0  0
   -5.3601    3.7325    0.0404 H   0  0  0  0  0  0  0  0  0  0  0  0
   -6.9026    3.1329   -0.5911 H   0  0  0  0  0  0  0  0  0  0  0  0
   -5.4308    3.1031   -1.6772 H   0  0  0  0  0  0  0  0  0  0  0  0
   -6.8022    0.7234   -1.6294 H   0  0  0  0  0  0  0  0  0  0  0  0
   -7.4864   -1.9898   -0.7789 H   0  0  0  0  0  0  0  0  0  0  0  0
   -5.9523   -2.8172   -1.1021 H   0  0  0  0  0  0  0  0  0  0  0  0
   -6.6088   -1.6656   -2.2992 H   0  0  0  0  0  0  0  0  0  0  0  0
   -4.6243   -2.0379    0.7571 H   0  0  0  0  0  0  0  0  0  0  0  0
   -4.0274    2.1443    1.2827 H   0  0  0  0  0  0  0  0  0  0  0  0
   -1.8082    1.1261    0.5754 H   0  0  0  0  0  0  0  0  0  0  0  0
   -0.7754    1.3997    1.9804 H   0  0  0  0  0  0  0  0  0  0  0  0
    0.0048    0.9594   -0.7451 H   0  0  0  0  0  0  0  0  0  0  0  0
    1.0397    1.1697    0.6704 H   0  0  0  0  0  0  0  0  0  0  0  0
    0.5741   -1.2064   -0.9738 H   0  0  0  0  0  0  0  0  0  0  0  0
    0.5190   -2.8970    0.5898 H   0  0  0  0  0  0  0  0  0  0  0  0
    0.8341   -1.8100    1.9697 H   0  0  0  0  0  0  0  0  0  0  0  0
   -1.6144   -2.5702    1.7514 H   0  0  0  0  0  0  0  0  0  0  0  0
   -1.6321   -1.8356    0.1392 H   0  0  0  0  0  0  0  0  0  0  0  0
    2.5208    0.5141   -1.4688 H   0  0  0  0  0  0  0  0  0  0  0  0
    4.8368   -0.6818    0.1636 H   0  0  0  0  0  0  0  0  0  0  0  0
    4.7289    1.9398   -1.3553 H   0  0  0  0  0  0  0  0  0  0  0  0
    4.4612    1.8149    0.4027 H   0  0  0  0  0  0  0  0  0  0  0  0
    6.9941    2.1943   -0.7519 H   0  0  0  0  0  0  0  0  0  0  0  0
    6.6846    1.4458    0.8310 H   0  0  0  0  0  0  0  0  0  0  0  0
    8.1799    0.2143   -0.8725 H   0  0  0  0  0  0  0  0  0  0  0  0
    7.0439   -0.7353    0.1117 H   0  0  0  0  0  0  0  0  0  0  0  0
    6.9566    0.0516   -2.8628 H   0  0  0  0  0  0  0  0  0  0  0  0
    6.8588   -1.5451   -2.0921 H   0  0  0  0  0  0  0  0  0  0  0  0
    4.5818   -1.4545   -2.3171 H   0  0  0  0  0  0  0  0  0  0  0  0
    4.6854    0.2786   -2.7367 H   0  0  0  0  0  0  0  0  0  0  0  0
  1  2  1  0
  2  3  2  0
  3  4  1  0
  4  5  1  0
  4  6  2  0
  6  7  1  0
  7  8  2  0
  7  9  1  0
  9 10  2  0
  9 11  2  0
  9 12  1  0
 12 13  1  0
 13 14  1  0
 14 15  1  0
 15 16  1  0
 16 17  1  0
 15 18  1  0
 18 19  2  0
 18 20  1  0
 20 21  1  0
 21 22  1  0
 22 23  1  0
 23 24  1  0
 24 25  1  0
 25 26  1  0
  8  2  1  0
 17 12  1  0
 26 21  1  0
  1 27  1  0
  1 28  1  0
  1 29  1  0
  3 30  1  0
  5 31  1  0
  5 32  1  0
  5 33  1  0
  6 34  1  0
  8 35  1  0
 13 36  1  0
 13 37  1  0
 14 38  1  0
 14 39  1  0
 15 40  1  0
 16 41  1  0
 16 42  1  0
 17 43  1  0
 17 44  1  0
 20 45  1  0
 21 46  1  0
 22 47  1  0
 22 48  1  0
 23 49  1  0
 23 50  1  0
 24 51  1  0
 24 52  1  0
 25 53  1  0
 25 54  1  0
 26 55  1  0
 26 56  1  0
M  END
$$$$
[H]c1nn(C2([H])C([H])([H])C([H])([H])N(C(=O)OC([H])([H])C([H])([H])[H])C([H])([H])C2([H])[H])c([H])c1-c1c([H])nc(N([H])[H])c2c(-c3c([H])c([H])c([H])c([H])c3[H])c([H])sc12
     RDKit          3D

 57 61  0  0  0  0  0  0  0  0999 V2000
    7.9096   -1.9932   -1.6749 C   0  0  0  0  0  0  0  0  0  0  0  0
    7.8995   -1.7537   -0.1913 C   0  0  0  0  0  0  0  0  0  0  0  0
    6.7448   -1.0829    0.2472 O   0  0  0  0  0  0  0  0  0  0  0  0
    6.4900    0.1829   -0.2778 C   0  0  0  0  0  0  0  0  0  0  0  0
    7.3001    0.6701   -1.1181 O   0  0  0  0  0  0  0  0  0  0  0  0
    5.3642    0.9478    0.0881 N   0  0  0  0  0  0  0  0  0  0  0  0
    4.4231    0.4393    1.0324 C   0  0  0  0  0  0  0  0  0  0  0  0
    3.3578    1.4115    1.4196 C   0  0  0  0  0  0  0  0  0  0  0  0
    2.7620    2.1501    0.2513 C   0  0  0  0  0  0  0  0  0  0  0  0
    3.7183    2.3823   -0.8695 C   0  0  0  0  0  0  0  0  0  0  0  0
    5.1602    2.2500   -0.4927 C   0  0  0  0  0  0  0  0  0  0  0  0
    1.5547    1.4892   -0.2009 N   0  0  0  0  0  0  0  0  0  0  0  0
    0.5886    1.0601    0.6173 C   0  0  0  0  0  0  0  0  0  0  0  0
   -0.3931    0.4866   -0.1779 C   0  0  0  0  0  0  0  0  0  0  0  0
    0.0461    0.6024   -1.4865 C   0  0  0  0  0  0  0  0  0  0  0  0
    1.2332    1.2177   -1.4504 N   0  0  0  0  0  0  0  0  0  0  0  0
   -1.6320   -0.1113    0.3092 C   0  0  0  0  0  0  0  0  0  0  0  0
   -1.6314   -0.9707    1.4051 C   0  0  0  0  0  0  0  0  0  0  0  0
   -2.8362   -1.4450    1.7433 N   0  0  0  0  0  0  0  0  0  0  0  0
   -3.9924   -1.1739    1.1411 C   0  0  0  0  0  0  0  0  0  0  0  0
   -5.1362   -1.7865    1.7209 N   0  0  0  0  0  0  0  0  0  0  0  0
   -4.0550   -0.3121    0.0260 C   0  0  0  0  0  0  0  0  0  0  0  0
   -5.1130    0.0861   -0.6974 C   0  0  0  0  0  0  0  0  0  0  0  0
   -4.8733    0.9614   -1.7356 C   0  0  0  0  0  0  0  0  0  0  0  0
   -3.1927    1.1911   -1.6649 S   0  0  0  0  0  0  0  0  0  0  0  0
   -2.8258    0.1890   -0.3388 C   0  0  0  0  0  0  0  0  0  0  0  0
   -6.5230   -0.3634   -0.5376 C   0  0  0  0  0  0  0  0  0  0  0  0
   -6.7927   -1.6809   -0.8133 C   0  0  0  0  0  0  0  0  0  0  0  0
   -8.0679   -2.2167   -0.6991 C   0  0  0  0  0  0  0  0  0  0  0  0
   -9.0796   -1.3878   -0.2962 C   0  0  0  0  0  0  0  0  0  0  0  0
   -8.8248   -0.0604   -0.0152 C   0  0  0  0  0  0  0  0  0  0  0  0
   -7.5331    0.4500   -0.1389 C   0  0  0  0  0  0  0  0  0  0  0  0
    8.3980   -2.9965   -1.8387 H   0  0  0  0  0  0  0  0  0  0  0  0
    6.8856   -2.0851   -2.1010 H   0  0  0  0  0  0  0  0  0  0  0  0
    8.5301   -1.2507   -2.2141 H   0  0  0  0  0  0  0  0  0  0  0  0
    7.9569   -2.7216    0.3639 H   0  0  0  0  0  0  0  0  0  0  0  0
    8.8326   -1.1671    0.0487 H   0  0  0  0  0  0  0  0  0  0  0  0
    4.9967    0.1832    1.9680 H   0  0  0  0  0  0  0  0  0  0  0  0
    3.9672   -0.5343    0.7144 H   0  0  0  0  0  0  0  0  0  0  0  0
    2.5368    0.8478    1.9116 H   0  0  0  0  0  0  0  0  0  0  0  0
    3.7294    2.1443    2.1940 H   0  0  0  0  0  0  0  0  0  0  0  0
    2.4563    3.1638    0.6373 H   0  0  0  0  0  0  0  0  0  0  0  0
    3.5249    1.6667   -1.7172 H   0  0  0  0  0  0  0  0  0  0  0  0
    3.5901    3.3970   -1.3322 H   0  0  0  0  0  0  0  0  0  0  0  0
    5.7632    2.3334   -1.4145 H   0  0  0  0  0  0  0  0  0  0  0  0
    5.4607    3.0030    0.2639 H   0  0  0  0  0  0  0  0  0  0  0  0
    0.5252    1.1196    1.7066 H   0  0  0  0  0  0  0  0  0  0  0  0
   -0.5126    0.2430   -2.3283 H   0  0  0  0  0  0  0  0  0  0  0  0
   -0.7104   -1.1848    1.8819 H   0  0  0  0  0  0  0  0  0  0  0  0
   -5.8755   -1.2139    2.1655 H   0  0  0  0  0  0  0  0  0  0  0  0
   -5.2356   -2.8199    1.7006 H   0  0  0  0  0  0  0  0  0  0  0  0
   -5.5894    1.4091   -2.4440 H   0  0  0  0  0  0  0  0  0  0  0  0
   -6.0230   -2.3563   -1.1326 H   0  0  0  0  0  0  0  0  0  0  0  0
   -8.2421   -3.2605   -0.9252 H   0  0  0  0  0  0  0  0  0  0  0  0
  -10.0698   -1.8180   -0.2110 H   0  0  0  0  0  0  0  0  0  0  0  0
   -9.6191    0.5949    0.3022 H   0  0  0  0  0  0  0  0  0  0  0  0
   -7.3261    1.4736    0.0758 H   0  0  0  0  0  0  0  0  0  0  0  0
  1  2  1  0
  2  3  1  0
  3  4  1  0
  4  5  2  0
  4  6  1  0
  6  7  1  0
  7  8  1  0
  8  9  1  0
  9 10  1  0
 10 11  1  0
  9 12  1  0
 12 13  1  0
 13 14  2  0
 14 15  1  0
 15 16  2  0
 14 17  1  0
 17 18  2  0
 18 19  1  0
 19 20  2  0
 20 21  1  0
 20 22  1  0
 22 23  1  0
 23 24  2  0
 24 25  1  0
 25 26  1  0
 23 27  1  0
 27 28  2  0
 28 29  1  0
 29 30  2  0
 30 31  1  0
 31 32  2  0
 11  6  1  0
 16 12  1  0
 26 17  1  0
 32 27  1  0
 26 22  2  0
  1 33  1  0
  1 34  1  0
  1 35  1  0
  2 36  1  0
  2 37  1  0
  7 38  1  0
  7 39  1  0
  8 40  1  0
  8 41  1  0
  9 42  1  0
 10 43  1  0
 10 44  1  0
 11 45  1  0
 11 46  1  0
 13 47  1  0
 15 48  1  0
 18 49  1  0
 21 50  1  0
 21 51  1  0
 24 52  1  0
 28 53  1  0
 29 54  1  0
 30 55  1  0
 31 56  1  0
 32 57  1  0
M  END
$$$$
[H]c1c(-c2c([H])c([H])c([H])c([H])c2[H])sc(S(=O)(=O)N([H])[C@@]([H])(C(=O)N([H])[C@]([H])(C(=O)N([H])[H])C([H])([H])c2c([H])c([H])c([H])c([H])c2[H])C([H])([H])C([H])([H])C([H])([H])N=C(N([H])[H])N([H])[H])c1[H]
     RDKit          3D

 67 69  0  0  0  0  0  0  0  0999 V2000
   -0.6264    7.3049    0.2682 N   0  0  0  0  0  0  0  0  0  0  0  0
   -1.1972    6.5535   -0.8070 C   0  0  0  0  0  0  0  0  0  0  0  0
   -1.7732    7.2459   -1.8790 N   0  0  0  0  0  0  0  0  0  0  0  0
   -1.1193    5.2435   -0.7071 N   0  0  0  0  0  0  0  0  0  0  0  0
   -0.4815    4.7608    0.4634 C   0  0  0  0  0  0  0  0  0  0  0  0
   -0.5440    3.2759    0.7361 C   0  0  0  0  0  0  0  0  0  0  0  0
    0.1591    2.5555   -0.3562 C   0  0  0  0  0  0  0  0  0  0  0  0
    0.2141    0.9464    0.0588 C   0  0  1  0  0  0  0  0  0  0  0  0
    0.8054    1.1214    1.3669 N   0  0  0  0  0  0  0  0  0  0  0  0
    2.4140    1.4512    1.4922 S   0  0  0  0  0  0  0  0  0  0  0  0
    2.7415    1.4393    3.0140 O   0  0  0  0  0  0  0  0  0  0  0  0
    2.8328    2.8757    1.1107 O   0  0  0  0  0  0  0  0  0  0  0  0
    3.5904    0.3094    0.8407 C   0  0  0  0  0  0  0  0  0  0  0  0
    4.5029    0.6270   -0.1761 C   0  0  0  0  0  0  0  0  0  0  0  0
    5.3587   -0.3073   -0.5399 C   0  0  0  0  0  0  0  0  0  0  0  0
    5.2879   -1.5252    0.1078 C   0  0  0  0  0  0  0  0  0  0  0  0
    4.0032   -1.2850    1.2049 S   0  0  0  0  0  0  0  0  0  0  0  0
    6.1243   -2.6945   -0.0948 C   0  0  0  0  0  0  0  0  0  0  0  0
    5.9291   -3.8713    0.5818 C   0  0  0  0  0  0  0  0  0  0  0  0
    6.7495   -4.9700    0.4175 C   0  0  0  0  0  0  0  0  0  0  0  0
    7.8069   -4.8582   -0.4675 C   0  0  0  0  0  0  0  0  0  0  0  0
    8.0440   -3.6992   -1.1670 C   0  0  0  0  0  0  0  0  0  0  0  0
    7.2113   -2.6482   -0.9729 C   0  0  0  0  0  0  0  0  0  0  0  0
   -1.1248    0.5435    0.0170 C   0  0  0  0  0  0  0  0  0  0  0  0
   -2.1121    1.3586   -0.1625 O   0  0  0  0  0  0  0  0  0  0  0  0
   -1.5746   -0.8136    0.1856 N   0  0  0  0  0  0  0  0  0  0  0  0
   -2.9903   -1.1827    0.1084 C   0  0  1  0  0  0  0  0  0  0  0  0
   -3.1403   -2.5208   -0.4824 C   0  0  0  0  0  0  0  0  0  0  0  0
   -4.5648   -2.9881   -0.6182 C   0  0  0  0  0  0  0  0  0  0  0  0
   -5.1567   -3.8540    0.2817 C   0  0  0  0  0  0  0  0  0  0  0  0
   -6.4613   -4.1904    0.1108 C   0  0  0  0  0  0  0  0  0  0  0  0
   -7.2675   -3.7279   -0.9153 C   0  0  0  0  0  0  0  0  0  0  0  0
   -6.6440   -2.8668   -1.7960 C   0  0  0  0  0  0  0  0  0  0  0  0
   -5.3215   -2.4942   -1.6651 C   0  0  0  0  0  0  0  0  0  0  0  0
   -3.6508   -0.9934    1.4053 C   0  0  0  0  0  0  0  0  0  0  0  0
   -5.0048   -1.1699    1.7374 N   0  0  0  0  0  0  0  0  0  0  0  0
   -2.9023   -0.6009    2.3827 O   0  0  0  0  0  0  0  0  0  0  0  0
   -1.1943    7.5388    1.1080 H   0  0  0  0  0  0  0  0  0  0  0  0
    0.3829    7.6431    0.2298 H   0  0  0  0  0  0  0  0  0  0  0  0
   -2.6582    6.8559   -2.3098 H   0  0  0  0  0  0  0  0  0  0  0  0
   -1.3996    8.1194   -2.2958 H   0  0  0  0  0  0  0  0  0  0  0  0
   -0.8130    5.2654    1.4050 H   0  0  0  0  0  0  0  0  0  0  0  0
    0.6259    5.0558    0.4111 H   0  0  0  0  0  0  0  0  0  0  0  0
   -1.5915    3.0598    0.9246 H   0  0  0  0  0  0  0  0  0  0  0  0
    0.0131    3.0623    1.7087 H   0  0  0  0  0  0  0  0  0  0  0  0
    1.1526    2.8447   -0.6110 H   0  0  0  0  0  0  0  0  0  0  0  0
   -0.4579    2.4844   -1.2486 H   0  0  0  0  0  0  0  0  0  0  0  0
    0.8784    0.6846   -0.7561 H   0  0  0  0  0  0  0  0  0  0  0  0
    0.5435    0.2517    1.9004 H   0  0  0  0  0  0  0  0  0  0  0  0
    4.4631    1.6396   -0.6363 H   0  0  0  0  0  0  0  0  0  0  0  0
    6.1262   -0.1626   -1.3443 H   0  0  0  0  0  0  0  0  0  0  0  0
    5.1072   -3.9351    1.2606 H   0  0  0  0  0  0  0  0  0  0  0  0
    6.5275   -5.8711    0.9879 H   0  0  0  0  0  0  0  0  0  0  0  0
    8.4395   -5.7304   -0.5669 H   0  0  0  0  0  0  0  0  0  0  0  0
    8.8801   -3.6582   -1.8454 H   0  0  0  0  0  0  0  0  0  0  0  0
    7.3878   -1.7345   -1.5125 H   0  0  0  0  0  0  0  0  0  0  0  0
   -0.8815   -1.5391    0.3567 H   0  0  0  0  0  0  0  0  0  0  0  0
   -3.4960   -0.4064   -0.5741 H   0  0  0  0  0  0  0  0  0  0  0  0
   -2.7001   -2.5968   -1.5175 H   0  0  0  0  0  0  0  0  0  0  0  0
   -2.6225   -3.3350    0.0818 H   0  0  0  0  0  0  0  0  0  0  0  0
   -4.5885   -4.2556    1.1142 H   0  0  0  0  0  0  0  0  0  0  0  0
   -6.8933   -4.8787    0.8597 H   0  0  0  0  0  0  0  0  0  0  0  0
   -8.2994   -4.0071   -1.0415 H   0  0  0  0  0  0  0  0  0  0  0  0
   -7.1772   -2.4220   -2.6443 H   0  0  0  0  0  0  0  0  0  0  0  0
   -4.8319   -1.8093   -2.3780 H   0  0  0  0  0  0  0  0  0  0  0  0
   -5.8176   -0.9099    1.1583 H   0  0  0  0  0  0  0  0  0  0  0  0
   -5.2232   -1.6047    2.6902 H   0  0  0  0  0  0  0  0  0  0  0  0
  1  2  1  0
  2  3  1  0
  2  4  2  3
  4  5  1  0
  5  6  1  0
  6  7  1  0
  7  8  1  0
  8  9  1  0
  9 10  1  0
 10 11  2  0
 10 12  2  0
 10 13  1  0
 13 14  2  0
 14 15  1  0
 15 16  2  0
 16 17  1  0
 16 18  1  0
 18 19  2  0
 19 20  1  0
 20 21  2  0
 21 22  1  0
 22 23  2  0
  8 24  1  0
 24 25  2  0
 24 26  1  0
 26 27  1  0
 27 28  1  0
 28 29  1  0
 29 30  2  0
 30 31  1  0
 31 32  2  0
 32 33  1  0
 33 34  2  0
 27 35  1  0
 35 36  1  0
 35 37  2  0
 17 13  1  0
 23 18  1  0
 34 29  1  0
  1 38  1  0
  1 39  1  0
  3 40  1  0
  3 41  1  0
  5 42  1  0
  5 43  1  0
  6 44  1  0
  6 45  1  0
  7 46  1  0
  7 47  1  0
  8 48  1  6
  9 49  1  0
 14 50  1  0
 15 51  1  0
 19 52  1  0
 20 53  1  0
 21 54  1  0
 22 55  1  0
 23 56  1  0
 26 57  1  0
 27 58  1  6
 28 59  1  0
 28 60  1  0
 30 61  1  0
 31 62  1  0
 32 63  1  0
 33 64  1  0
 34 65  1  0
 36 66  1  0
 36 67  1  0
M  END
$$$$
[H]OC(=O)C([H])([H])c1c([H])c([H])c(N2C([H])([H])c3c([H])c(O[H])c([H])c([H])c3[C@]2([H])C([H])(C([H])([H])[H])C([H])([H])[H])c([H])c1[H]
     RDKit          3D

 44 46  0  0  0  0  0  0  0  0999 V2000
   -0.0900    0.0359    2.7473 C   0  0  0  0  0  0  0  0  0  0  0  0
   -1.3895    0.0538    2.0198 C   0  0  0  0  0  0  0  0  0  0  0  0
   -2.4011   -0.7039    2.8286 C   0  0  0  0  0  0  0  0  0  0  0  0
   -1.2785   -0.4110    0.6074 C   0  0  2  0  0  0  0  0  0  0  0  0
   -0.3771    0.4015   -0.1809 N   0  0  0  0  0  0  0  0  0  0  0  0
   -1.1564    1.5298   -0.7038 C   0  0  0  0  0  0  0  0  0  0  0  0
   -2.4923    0.8832   -0.8909 C   0  0  0  0  0  0  0  0  0  0  0  0
   -3.5556    1.2695   -1.6750 C   0  0  0  0  0  0  0  0  0  0  0  0
   -4.7266    0.5333   -1.7245 C   0  0  0  0  0  0  0  0  0  0  0  0
   -5.7814    0.9576   -2.5312 O   0  0  0  0  0  0  0  0  0  0  0  0
   -4.7879   -0.6090   -0.9536 C   0  0  0  0  0  0  0  0  0  0  0  0
   -3.7127   -1.0018   -0.1591 C   0  0  0  0  0  0  0  0  0  0  0  0
   -2.5722   -0.2613   -0.1271 C   0  0  0  0  0  0  0  0  0  0  0  0
    0.9785    0.1654   -0.4331 C   0  0  0  0  0  0  0  0  0  0  0  0
    1.5655   -1.0173   -0.0684 C   0  0  0  0  0  0  0  0  0  0  0  0
    2.9102   -1.2504   -0.3192 C   0  0  0  0  0  0  0  0  0  0  0  0
    3.6939   -0.3039   -0.9401 C   0  0  0  0  0  0  0  0  0  0  0  0
    5.1099   -0.5954   -1.1840 C   0  0  0  0  0  0  0  0  0  0  0  0
    5.9670   -0.1678   -0.0514 C   0  0  0  0  0  0  0  0  0  0  0  0
    7.3356   -0.3950   -0.1714 O   0  0  0  0  0  0  0  0  0  0  0  0
    5.5078    0.3777    0.9835 O   0  0  0  0  0  0  0  0  0  0  0  0
    3.0964    0.8806   -1.3029 C   0  0  0  0  0  0  0  0  0  0  0  0
    1.7715    1.1262   -1.0628 C   0  0  0  0  0  0  0  0  0  0  0  0
    0.6726    0.7283    2.3576 H   0  0  0  0  0  0  0  0  0  0  0  0
    0.3212   -1.0130    2.7933 H   0  0  0  0  0  0  0  0  0  0  0  0
   -0.2194    0.3447    3.8283 H   0  0  0  0  0  0  0  0  0  0  0  0
   -1.7384    1.1186    2.0028 H   0  0  0  0  0  0  0  0  0  0  0  0
   -2.3100   -1.8157    2.6718 H   0  0  0  0  0  0  0  0  0  0  0  0
   -2.1511   -0.5513    3.9029 H   0  0  0  0  0  0  0  0  0  0  0  0
   -3.4295   -0.3561    2.6874 H   0  0  0  0  0  0  0  0  0  0  0  0
   -0.9802   -1.4583    0.5484 H   0  0  0  0  0  0  0  0  0  0  0  0
   -0.7135    1.9009   -1.6332 H   0  0  0  0  0  0  0  0  0  0  0  0
   -1.2224    2.3368    0.0197 H   0  0  0  0  0  0  0  0  0  0  0  0
   -3.5230    2.1755   -2.2942 H   0  0  0  0  0  0  0  0  0  0  0  0
   -6.4536    1.5864   -2.0765 H   0  0  0  0  0  0  0  0  0  0  0  0
   -5.6815   -1.2004   -0.9707 H   0  0  0  0  0  0  0  0  0  0  0  0
   -3.8426   -1.9263    0.4261 H   0  0  0  0  0  0  0  0  0  0  0  0
    0.9890   -1.7848    0.4199 H   0  0  0  0  0  0  0  0  0  0  0  0
    3.3148   -2.2026   -0.0077 H   0  0  0  0  0  0  0  0  0  0  0  0
    5.2485   -1.6746   -1.3590 H   0  0  0  0  0  0  0  0  0  0  0  0
    5.4404   -0.0597   -2.1148 H   0  0  0  0  0  0  0  0  0  0  0  0
    7.6857   -1.3469   -0.1343 H   0  0  0  0  0  0  0  0  0  0  0  0
    3.6755    1.6570   -1.7955 H   0  0  0  0  0  0  0  0  0  0  0  0
    1.3023    2.0439   -1.3422 H   0  0  0  0  0  0  0  0  0  0  0  0
  1  2  1  0
  2  3  1  0
  2  4  1  0
  4  5  1  0
  5  6  1  0
  6  7  1  0
  7  8  2  0
  8  9  1  0
  9 10  1  0
  9 11  2  0
 11 12  1  0
 12 13  2  0
  5 14  1  0
 14 15  2  0
 15 16  1  0
 16 17  2  0
 17 18  1  0
 18 19  1  0
 19 20  1  0
 19 21  2  0
 17 22  1  0
 22 23  2  0
 13  4  1  0
 23 14  1  0
 13  7  1  0
  1 24  1  0
  1 25  1  0
  1 26  1  0
  2 27  1  0
  3 28  1  0
  3 29  1  0
  3 30  1  0
  4 31  1  1
  6 32  1  0
  6 33  1  0
  8 34  1  0
 10 35  1  0
 11 36  1  0
 12 37  1  0
 15 38  1  0
 16 39  1  0
 18 40  1  0
 18 41  1  0
 20 42  1  0
 22 43  1  0
 23 44  1  0
M  END
$$$$
[H]c1c([H])c([H])c(N([H])C2=NC([H])([H])[C@@]23C([H])([H])N2C([H])([H])C([H])([H])C3([H])C([H])([H])C2([H])[H])c([H])c1[H]
     RDKit          3D

 37 40  0  0  0  0  0  0  0  0999 V2000
   -0.9165   -2.4784   -0.3682 C   0  0  0  0  0  0  0  0  0  0  0  0
    0.4032   -2.4131    0.1117 N   0  0  0  0  0  0  0  0  0  0  0  0
    0.3510   -1.2185    0.5370 C   0  0  0  0  0  0  0  0  0  0  0  0
    1.3201   -0.4054    1.1732 N   0  0  0  0  0  0  0  0  0  0  0  0
    2.4287    0.0659    0.4173 C   0  0  0  0  0  0  0  0  0  0  0  0
    3.4125    0.8595    0.9927 C   0  0  0  0  0  0  0  0  0  0  0  0
    4.4810    1.3130    0.2593 C   0  0  0  0  0  0  0  0  0  0  0  0
    4.6276    1.0036   -1.0770 C   0  0  0  0  0  0  0  0  0  0  0  0
    3.6463    0.2155   -1.6393 C   0  0  0  0  0  0  0  0  0  0  0  0
    2.5730   -0.2443   -0.9167 C   0  0  0  0  0  0  0  0  0  0  0  0
   -1.0198   -1.0911    0.1139 C   0  0  2  0  0  0  0  0  0  0  0  0
   -1.9704   -0.8302    1.2570 C   0  0  0  0  0  0  0  0  0  0  0  0
   -2.6223    0.4236    1.0655 N   0  0  0  0  0  0  0  0  0  0  0  0
   -1.7125    1.5114    0.7472 C   0  0  0  0  0  0  0  0  0  0  0  0
   -1.1119    1.3146   -0.6485 C   0  0  0  0  0  0  0  0  0  0  0  0
   -1.3323   -0.1257   -1.0037 C   0  0  0  0  0  0  0  0  0  0  0  0
   -2.8332   -0.2907   -1.2737 C   0  0  0  0  0  0  0  0  0  0  0  0
   -3.5461    0.2969   -0.0549 C   0  0  0  0  0  0  0  0  0  0  0  0
   -0.9074   -2.5313   -1.4980 H   0  0  0  0  0  0  0  0  0  0  0  0
   -1.5974   -3.2296    0.0904 H   0  0  0  0  0  0  0  0  0  0  0  0
    1.2433   -0.1455    2.1718 H   0  0  0  0  0  0  0  0  0  0  0  0
    3.2846    1.0980    2.0538 H   0  0  0  0  0  0  0  0  0  0  0  0
    5.2353    1.9353    0.7463 H   0  0  0  0  0  0  0  0  0  0  0  0
    5.4727    1.3598   -1.6652 H   0  0  0  0  0  0  0  0  0  0  0  0
    3.7562   -0.0354   -2.7041 H   0  0  0  0  0  0  0  0  0  0  0  0
    1.8195   -0.8653   -1.4028 H   0  0  0  0  0  0  0  0  0  0  0  0
   -1.3908   -0.7700    2.2237 H   0  0  0  0  0  0  0  0  0  0  0  0
   -2.7416   -1.6200    1.2859 H   0  0  0  0  0  0  0  0  0  0  0  0
   -0.9159    1.6433    1.4937 H   0  0  0  0  0  0  0  0  0  0  0  0
   -2.3078    2.4405    0.7394 H   0  0  0  0  0  0  0  0  0  0  0  0
   -1.6952    1.9220   -1.3968 H   0  0  0  0  0  0  0  0  0  0  0  0
   -0.0680    1.6138   -0.7092 H   0  0  0  0  0  0  0  0  0  0  0  0
   -0.8079   -0.4240   -1.9310 H   0  0  0  0  0  0  0  0  0  0  0  0
   -3.1325    0.2067   -2.2058 H   0  0  0  0  0  0  0  0  0  0  0  0
   -3.0300   -1.3757   -1.2581 H   0  0  0  0  0  0  0  0  0  0  0  0
   -4.0396    1.2605   -0.3026 H   0  0  0  0  0  0  0  0  0  0  0  0
   -4.3555   -0.3897    0.2924 H   0  0  0  0  0  0  0  0  0  0  0  0
  1  2  1  0
  2  3  2  0
  3  4  1  0
  4  5  1  0
  5  6  2  0
  6  7  1  0
  7  8  2  0
  8  9  1  0
  9 10  2  0
 11  3  1  1
 11 12  1  0
 12 13  1  0
 13 14  1  0
 14 15  1  0
 15 16  1  0
 16 17  1  0
 17 18  1  0
 11  1  1  0
 16 11  1  0
 10  5  1  0
 18 13  1  0
  1 19  1  0
  1 20  1  0
  4 21  1  0
  6 22  1  0
  7 23  1  0
  8 24  1  0
  9 25  1  0
 10 26  1  0
 12 27  1  0
 12 28  1  0
 14 29  1  0
 14 30  1  0
 15 31  1  0
 15 32  1  0
 16 33  1  0
 17 34  1  0
 17 35  1  0
 18 36  1  0
 18 37  1  0
M  END
$$$$
[H]c1nc(N2C(=O)C([H])([H])OC3(N(C([H])([H])c4c([H])c([H])c(F)c([H])c4[H])C([H])([H])C2([H])[H])C([H])([H])C([H])([H])N(C([H])([H])c2c([H])c([H])c(C([H])(C([H])([H])[H])C([H])([H])[H])c([H])c2[H])C([H])([H])C3([H])[H])nc([H])c1Cl
     RDKit          3D

 74 78  0  0  0  0  0  0  0  0999 V2000
    8.6550    0.1085   -0.3824 C   0  0  0  0  0  0  0  0  0  0  0  0
    7.7292   -0.4297    0.7175 C   0  0  0  0  0  0  0  0  0  0  0  0
    7.8775    0.3654    1.9719 C   0  0  0  0  0  0  0  0  0  0  0  0
    6.3206   -0.4830    0.2115 C   0  0  0  0  0  0  0  0  0  0  0  0
    5.6572   -1.6713   -0.0234 C   0  0  0  0  0  0  0  0  0  0  0  0
    4.3579   -1.6697   -0.4908 C   0  0  0  0  0  0  0  0  0  0  0  0
    3.6590   -0.4986   -0.7461 C   0  0  0  0  0  0  0  0  0  0  0  0
    2.2792   -0.6036   -1.2540 C   0  0  0  0  0  0  0  0  0  0  0  0
    1.4758    0.5553   -1.1407 N   0  0  0  0  0  0  0  0  0  0  0  0
    1.1951    1.0533    0.1511 C   0  0  0  0  0  0  0  0  0  0  0  0
   -0.0497    0.5325    0.8107 C   0  0  0  0  0  0  0  0  0  0  0  0
   -1.1715    0.2294   -0.1892 C   0  0  0  0  0  0  0  0  0  0  0  0
   -0.9028    1.0447   -1.3929 C   0  0  0  0  0  0  0  0  0  0  0  0
    0.3663    0.4681   -2.0529 C   0  0  0  0  0  0  0  0  0  0  0  0
   -1.0241   -1.1417   -0.4504 O   0  0  0  0  0  0  0  0  0  0  0  0
   -1.9304   -1.6383   -1.3458 C   0  0  0  0  0  0  0  0  0  0  0  0
   -3.1608   -2.1706   -0.7201 C   0  0  0  0  0  0  0  0  0  0  0  0
   -3.6760   -3.0499   -1.4780 O   0  0  0  0  0  0  0  0  0  0  0  0
   -3.9433   -2.0194    0.4389 N   0  0  0  0  0  0  0  0  0  0  0  0
   -3.8889   -1.1785    1.5885 C   0  0  0  0  0  0  0  0  0  0  0  0
   -2.6223   -0.3551    1.6258 C   0  0  0  0  0  0  0  0  0  0  0  0
   -2.3936    0.4147    0.4495 N   0  0  0  0  0  0  0  0  0  0  0  0
   -3.4003    1.2434   -0.0009 C   0  0  0  0  0  0  0  0  0  0  0  0
   -3.1328    2.6947   -0.1083 C   0  0  0  0  0  0  0  0  0  0  0  0
   -3.4648    3.3875   -1.2518 C   0  0  0  0  0  0  0  0  0  0  0  0
   -3.2395    4.7431   -1.3900 C   0  0  0  0  0  0  0  0  0  0  0  0
   -2.6668    5.4429   -0.3663 C   0  0  0  0  0  0  0  0  0  0  0  0
   -2.4314    6.7836   -0.4731 F   0  0  0  0  0  0  0  0  0  0  0  0
   -2.3273    4.7541    0.7932 C   0  0  0  0  0  0  0  0  0  0  0  0
   -2.5556    3.4011    0.9233 C   0  0  0  0  0  0  0  0  0  0  0  0
   -5.0471   -2.9174    0.4670 C   0  0  0  0  0  0  0  0  0  0  0  0
   -5.3841   -3.6017   -0.6659 N   0  0  0  0  0  0  0  0  0  0  0  0
   -6.4162   -4.4617   -0.6937 C   0  0  0  0  0  0  0  0  0  0  0  0
   -7.1793   -4.6863    0.4312 C   0  0  0  0  0  0  0  0  0  0  0  0
   -8.5345   -5.8060    0.4219 Cl  0  0  0  0  0  0  0  0  0  0  0  0
   -6.8398   -3.9989    1.5674 C   0  0  0  0  0  0  0  0  0  0  0  0
   -5.8025   -3.1520    1.5467 N   0  0  0  0  0  0  0  0  0  0  0  0
    4.3292    0.6830   -0.5085 C   0  0  0  0  0  0  0  0  0  0  0  0
    5.6275    0.6809   -0.0416 C   0  0  0  0  0  0  0  0  0  0  0  0
    9.6775   -0.0568   -0.0305 H   0  0  0  0  0  0  0  0  0  0  0  0
    8.4002   -0.4146   -1.3140 H   0  0  0  0  0  0  0  0  0  0  0  0
    8.3983    1.1705   -0.5243 H   0  0  0  0  0  0  0  0  0  0  0  0
    8.0890   -1.4593    0.9057 H   0  0  0  0  0  0  0  0  0  0  0  0
    8.8851    0.8737    1.9342 H   0  0  0  0  0  0  0  0  0  0  0  0
    7.8311   -0.2725    2.8848 H   0  0  0  0  0  0  0  0  0  0  0  0
    7.1315    1.1809    2.0368 H   0  0  0  0  0  0  0  0  0  0  0  0
    6.2060   -2.5949    0.1774 H   0  0  0  0  0  0  0  0  0  0  0  0
    3.8633   -2.6123   -0.6659 H   0  0  0  0  0  0  0  0  0  0  0  0
    2.3220   -0.8599   -2.3544 H   0  0  0  0  0  0  0  0  0  0  0  0
    1.8300   -1.5053   -0.7872 H   0  0  0  0  0  0  0  0  0  0  0  0
    1.2216    2.1817    0.1541 H   0  0  0  0  0  0  0  0  0  0  0  0
    2.0501    0.7820    0.8347 H   0  0  0  0  0  0  0  0  0  0  0  0
   -0.3576    1.2689    1.5798 H   0  0  0  0  0  0  0  0  0  0  0  0
    0.2262   -0.3773    1.3860 H   0  0  0  0  0  0  0  0  0  0  0  0
   -0.6156    2.0746   -1.1332 H   0  0  0  0  0  0  0  0  0  0  0  0
   -1.6578    1.0038   -2.1882 H   0  0  0  0  0  0  0  0  0  0  0  0
    0.5543    1.1608   -2.9211 H   0  0  0  0  0  0  0  0  0  0  0  0
    0.2040   -0.5155   -2.4906 H   0  0  0  0  0  0  0  0  0  0  0  0
   -2.2355   -0.9483   -2.1373 H   0  0  0  0  0  0  0  0  0  0  0  0
   -1.4387   -2.5048   -1.8633 H   0  0  0  0  0  0  0  0  0  0  0  0
   -3.8908   -1.8451    2.4975 H   0  0  0  0  0  0  0  0  0  0  0  0
   -4.7854   -0.5298    1.7238 H   0  0  0  0  0  0  0  0  0  0  0  0
   -2.6106    0.2869    2.5248 H   0  0  0  0  0  0  0  0  0  0  0  0
   -1.7776   -1.0686    1.7389 H   0  0  0  0  0  0  0  0  0  0  0  0
   -4.2594    1.1767    0.7388 H   0  0  0  0  0  0  0  0  0  0  0  0
   -3.9000    0.8788   -0.9510 H   0  0  0  0  0  0  0  0  0  0  0  0
   -3.9217    2.8507   -2.0763 H   0  0  0  0  0  0  0  0  0  0  0  0
   -3.5162    5.2317   -2.2974 H   0  0  0  0  0  0  0  0  0  0  0  0
   -1.8754    5.3662    1.5678 H   0  0  0  0  0  0  0  0  0  0  0  0
   -2.2618    2.9407    1.8572 H   0  0  0  0  0  0  0  0  0  0  0  0
   -6.6511   -4.9827   -1.6060 H   0  0  0  0  0  0  0  0  0  0  0  0
   -7.4357   -4.1669    2.4683 H   0  0  0  0  0  0  0  0  0  0  0  0
    3.8029    1.6079   -0.7000 H   0  0  0  0  0  0  0  0  0  0  0  0
    6.1538    1.6255    0.1442 H   0  0  0  0  0  0  0  0  0  0  0  0
  1  2  1  0
  2  3  1  0
  2  4  1  0
  4  5  2  0
  5  6  1  0
  6  7  2  0
  7  8  1  0
  8  9  1  0
  9 10  1  0
 10 11  1  0
 11 12  1  0
 12 13  1  0
 13 14  1  0
 12 15  1  0
 15 16  1  0
 16 17  1  0
 17 18  2  0
 17 19  1  0
 19 20  1  0
 20 21  1  0
 21 22  1  0
 22 23  1  0
 23 24  1  0
 24 25  2  0
 25 26  1  0
 26 27  2  0
 27 28  1  0
 27 29  1  0
 29 30  2  0
 19 31  1  0
 31 32  2  0
 32 33  1  0
 33 34  2  0
 34 35  1  0
 34 36  1  0
 36 37  2  0
  7 38  1  0
 38 39  2  0
 39  4  1  0
 14  9  1  0
 30 24  1  0
 37 31  1  0
 22 12  1  0
  1 40  1  0
  1 41  1  0
  1 42  1  0
  2 43  1  0
  3 44  1  0
  3 45  1  0
  3 46  1  0
  5 47  1  0
  6 48  1  0
  8 49  1  0
  8 50  1  0
 10 51  1  0
 10 52  1  0
 11 53  1  0
 11 54  1  0
 13 55  1  0
 13 56  1  0
 14 57  1  0
 14 58  1  0
 16 59  1  0
 16 60  1  0
 20 61  1  0
 20 62  1  0
 21 63  1  0
 21 64  1  0
 23 65  1  0
 23 66  1  0
 25 67  1  0
 26 68  1  0
 29 69  1  0
 30 70  1  0
 33 71  1  0
 36 72  1  0
 38 73  1  0
 39 74  1  0
M  END
$$$$
[H]Oc1c([H])c([H])c2c(c1[H])-c1c([H])c([H])c3c(c1C([H])(C([H])([H])C([H])([H])C([H])([H])C([H])([H])[H])S2)c(C1([H])C([H])([H])C([H])([H])C([H])([H])C([H])([H])C1([H])[H])c([H])n3C([H])([H])c1c([H])c([H])c([H])c([H])c1[H]
     RDKit          3D

 70 75  0  0  0  0  0  0  0  0999 V2000
   -5.1289    0.1443   -3.2836 C   0  0  0  0  0  0  0  0  0  0  0  0
   -4.3340   -0.2576   -2.0213 C   0  0  0  0  0  0  0  0  0  0  0  0
   -2.8836   -0.3427   -2.3314 C   0  0  0  0  0  0  0  0  0  0  0  0
   -1.9745   -0.7684   -1.1975 C   0  0  0  0  0  0  0  0  0  0  0  0
   -1.8779    0.0176    0.0133 C   0  0  0  0  0  0  0  0  0  0  0  0
   -3.3523    0.2924    1.0505 S   0  0  0  0  0  0  0  0  0  0  0  0
   -3.3274    2.1112    1.1339 C   0  0  0  0  0  0  0  0  0  0  0  0
   -4.4916    2.7508    1.3535 C   0  0  0  0  0  0  0  0  0  0  0  0
   -4.5753    4.1493    1.4480 C   0  0  0  0  0  0  0  0  0  0  0  0
   -3.3931    4.8239    1.3027 C   0  0  0  0  0  0  0  0  0  0  0  0
   -3.4463    6.2249    1.3933 O   0  0  0  0  0  0  0  0  0  0  0  0
   -2.1854    4.1769    1.0758 C   0  0  0  0  0  0  0  0  0  0  0  0
   -2.1356    2.7902    0.9870 C   0  0  0  0  0  0  0  0  0  0  0  0
   -0.8340    2.1640    0.7080 C   0  0  0  0  0  0  0  0  0  0  0  0
    0.3361    2.9293    0.8681 C   0  0  0  0  0  0  0  0  0  0  0  0
    1.5537    2.2979    0.8716 C   0  0  0  0  0  0  0  0  0  0  0  0
    1.6599    0.9305    0.7285 C   0  0  0  0  0  0  0  0  0  0  0  0
    2.6962    0.0868    0.7605 N   0  0  0  0  0  0  0  0  0  0  0  0
    4.0995    0.4292    0.9041 C   0  0  0  0  0  0  0  0  0  0  0  0
    4.7522    0.6764   -0.3931 C   0  0  0  0  0  0  0  0  0  0  0  0
    4.8522    1.9679   -0.8532 C   0  0  0  0  0  0  0  0  0  0  0  0
    5.4605    2.2462   -2.0836 C   0  0  0  0  0  0  0  0  0  0  0  0
    5.9622    1.1984   -2.8329 C   0  0  0  0  0  0  0  0  0  0  0  0
    5.8708   -0.0850   -2.3900 C   0  0  0  0  0  0  0  0  0  0  0  0
    5.2576   -0.3385   -1.1557 C   0  0  0  0  0  0  0  0  0  0  0  0
    2.2726   -1.1683    0.6449 C   0  0  0  0  0  0  0  0  0  0  0  0
    0.8675   -1.1769    0.5275 C   0  0  0  0  0  0  0  0  0  0  0  0
    0.0981   -2.3901    0.6296 C   0  0  0  0  0  0  0  0  0  0  0  0
    0.8943   -3.5204   -0.0045 C   0  0  0  0  0  0  0  0  0  0  0  0
    1.4398   -4.5287    0.9181 C   0  0  0  0  0  0  0  0  0  0  0  0
    0.3908   -5.1601    1.8110 C   0  0  0  0  0  0  0  0  0  0  0  0
   -0.4542   -4.0510    2.3469 C   0  0  0  0  0  0  0  0  0  0  0  0
    0.2944   -2.7571    2.1868 C   0  0  0  0  0  0  0  0  0  0  0  0
    0.5065    0.1388    0.5664 C   0  0  0  0  0  0  0  0  0  0  0  0
   -0.7033    0.7599    0.5453 C   0  0  0  0  0  0  0  0  0  0  0  0
   -4.5797    0.9679   -3.7530 H   0  0  0  0  0  0  0  0  0  0  0  0
   -6.1686    0.3495   -3.0288 H   0  0  0  0  0  0  0  0  0  0  0  0
   -5.1278   -0.7459   -3.9693 H   0  0  0  0  0  0  0  0  0  0  0  0
   -4.7167   -1.2624   -1.7501 H   0  0  0  0  0  0  0  0  0  0  0  0
   -4.5967    0.4216   -1.1992 H   0  0  0  0  0  0  0  0  0  0  0  0
   -2.6576   -0.9014   -3.2628 H   0  0  0  0  0  0  0  0  0  0  0  0
   -2.5454    0.7145   -2.5693 H   0  0  0  0  0  0  0  0  0  0  0  0
   -2.3353   -1.8364   -1.0593 H   0  0  0  0  0  0  0  0  0  0  0  0
   -0.9722   -0.8262   -1.6674 H   0  0  0  0  0  0  0  0  0  0  0  0
   -2.1773    0.9939   -0.6837 H   0  0  0  0  0  0  0  0  0  0  0  0
   -5.4586    2.2516    1.4755 H   0  0  0  0  0  0  0  0  0  0  0  0
   -5.5262    4.6405    1.6261 H   0  0  0  0  0  0  0  0  0  0  0  0
   -3.3218    6.6098    2.3144 H   0  0  0  0  0  0  0  0  0  0  0  0
   -1.3420    4.8350    0.9752 H   0  0  0  0  0  0  0  0  0  0  0  0
    0.3042    4.0029    0.9899 H   0  0  0  0  0  0  0  0  0  0  0  0
    2.4731    2.8724    0.9924 H   0  0  0  0  0  0  0  0  0  0  0  0
    4.6537   -0.3909    1.4513 H   0  0  0  0  0  0  0  0  0  0  0  0
    4.2390    1.3233    1.5639 H   0  0  0  0  0  0  0  0  0  0  0  0
    4.4785    2.8234   -0.3100 H   0  0  0  0  0  0  0  0  0  0  0  0
    5.5518    3.2405   -2.4642 H   0  0  0  0  0  0  0  0  0  0  0  0
    6.4460    1.3873   -3.8020 H   0  0  0  0  0  0  0  0  0  0  0  0
    6.2725   -0.9116   -2.9932 H   0  0  0  0  0  0  0  0  0  0  0  0
    5.2059   -1.3530   -0.8468 H   0  0  0  0  0  0  0  0  0  0  0  0
    2.8577   -2.0889    0.6365 H   0  0  0  0  0  0  0  0  0  0  0  0
   -0.9277   -2.4911    0.6376 H   0  0  0  0  0  0  0  0  0  0  0  0
    0.2401   -4.0514   -0.7515 H   0  0  0  0  0  0  0  0  0  0  0  0
    1.7318   -3.1294   -0.6432 H   0  0  0  0  0  0  0  0  0  0  0  0
    1.7825   -5.3867    0.2534 H   0  0  0  0  0  0  0  0  0  0  0  0
    2.3607   -4.2615    1.4673 H   0  0  0  0  0  0  0  0  0  0  0  0
    0.9145   -5.6537    2.6379 H   0  0  0  0  0  0  0  0  0  0  0  0
   -0.1932   -5.9412    1.2656 H   0  0  0  0  0  0  0  0  0  0  0  0
   -1.3863   -4.0082    1.7212 H   0  0  0  0  0  0  0  0  0  0  0  0
   -0.7666   -4.2276    3.4069 H   0  0  0  0  0  0  0  0  0  0  0  0
    1.3534   -2.7842    2.4023 H   0  0  0  0  0  0  0  0  0  0  0  0
   -0.2333   -1.9442    2.7076 H   0  0  0  0  0  0  0  0  0  0  0  0
  1  2  1  0
  2  3  1  0
  3  4  1  0
  4  5  1  0
  5  6  1  0
  6  7  1  0
  7  8  2  0
  8  9  1  0
  9 10  2  0
 10 11  1  0
 10 12  1  0
 12 13  2  0
 13 14  1  0
 14 15  2  0
 15 16  1  0
 16 17  2  0
 17 18  1  0
 18 19  1  0
 19 20  1  0
 20 21  2  0
 21 22  1  0
 22 23  2  0
 23 24  1  0
 24 25  2  0
 18 26  1  0
 26 27  2  0
 27 28  1  0
 28 29  1  0
 29 30  1  0
 30 31  1  0
 31 32  1  0
 32 33  1  0
 27 34  1  0
 34 35  2  0
 35  5  1  0
 13  7  1  0
 35 14  1  0
 34 17  1  0
 25 20  1  0
 33 28  1  0
  1 36  1  0
  1 37  1  0
  1 38  1  0
  2 39  1  0
  2 40  1  0
  3 41  1  0
  3 42  1  0
  4 43  1  0
  4 44  1  0
  5 45  1  0
  8 46  1  0
  9 47  1  0
 11 48  1  0
 12 49  1  0
 15 50  1  0
 16 51  1  0
 19 52  1  0
 19 53  1  0
 21 54  1  0
 22 55  1  0
 23 56  1  0
 24 57  1  0
 25 58  1  0
 26 59  1  0
 28 60  1  0
 29 61  1  0
 29 62  1  0
 30 63  1  0
 30 64  1  0
 31 65  1  0
 31 66  1  0
 32 67  1  0
 32 68  1  0
 33 69  1  0
 33 70  1  0
M  END
$$$$
[H]c1c([H])c(C(C([H])([H])[H])(C([H])([H])[H])C([H])([H])[H])c([H])c2c1C([H])(N([H])C(=O)N([H])c1c([H])c([H])c([H])c3c1c([H])nn3[H])C([H])([H])C2([H])[H]
     RDKit          3D

 50 53  0  0  0  0  0  0  0  0999 V2000
   -5.9650    0.9708    1.4785 C   0  0  0  0  0  0  0  0  0  0  0  0
   -5.5031    0.4035    0.1695 C   0  0  0  0  0  0  0  0  0  0  0  0
   -5.8561    1.3413   -0.9638 C   0  0  0  0  0  0  0  0  0  0  0  0
   -6.1804   -0.9373    0.0157 C   0  0  0  0  0  0  0  0  0  0  0  0
   -4.0346    0.1831    0.2303 C   0  0  0  0  0  0  0  0  0  0  0  0
   -3.1120    1.1325    0.5989 C   0  0  0  0  0  0  0  0  0  0  0  0
   -1.7563    0.9185    0.6244 C   0  0  0  0  0  0  0  0  0  0  0  0
   -1.2355   -0.3106    0.2650 C   0  0  0  0  0  0  0  0  0  0  0  0
    0.0853   -0.9043    0.1557 C   0  0  0  0  0  0  0  0  0  0  0  0
   -0.1220   -1.8712   -1.0561 C   0  0  0  0  0  0  0  0  0  0  0  0
   -1.3873   -2.5567   -0.5112 C   0  0  0  0  0  0  0  0  0  0  0  0
   -2.1449   -1.2918   -0.1118 C   0  0  0  0  0  0  0  0  0  0  0  0
   -3.4903   -1.0454   -0.1256 C   0  0  0  0  0  0  0  0  0  0  0  0
    1.1642   -0.0243   -0.1753 N   0  0  0  0  0  0  0  0  0  0  0  0
    2.5229   -0.4307    0.0770 C   0  0  0  0  0  0  0  0  0  0  0  0
    2.6758   -1.5368    0.5945 O   0  0  0  0  0  0  0  0  0  0  0  0
    3.5680    0.4214   -0.2746 N   0  0  0  0  0  0  0  0  0  0  0  0
    4.9582    0.2072   -0.1625 C   0  0  0  0  0  0  0  0  0  0  0  0
    5.4754   -1.0046    0.2335 C   0  0  0  0  0  0  0  0  0  0  0  0
    6.8518   -1.2067    0.3050 C   0  0  0  0  0  0  0  0  0  0  0  0
    7.7090   -0.1928   -0.0192 C   0  0  0  0  0  0  0  0  0  0  0  0
    7.1952    1.0173   -0.4119 C   0  0  0  0  0  0  0  0  0  0  0  0
    7.8121    2.1547   -0.7730 N   0  0  0  0  0  0  0  0  0  0  0  0
    6.9019    3.0691   -1.0704 N   0  0  0  0  0  0  0  0  0  0  0  0
    5.6805    2.5363   -0.9069 C   0  0  0  0  0  0  0  0  0  0  0  0
    5.8477    1.2289   -0.4884 C   0  0  0  0  0  0  0  0  0  0  0  0
   -5.6804    2.0646    1.4819 H   0  0  0  0  0  0  0  0  0  0  0  0
   -7.0550    0.8476    1.6427 H   0  0  0  0  0  0  0  0  0  0  0  0
   -5.3778    0.5137    2.3019 H   0  0  0  0  0  0  0  0  0  0  0  0
   -6.9233    1.5550   -0.9103 H   0  0  0  0  0  0  0  0  0  0  0  0
   -5.2493    2.2490   -0.8257 H   0  0  0  0  0  0  0  0  0  0  0  0
   -5.5900    0.8037   -1.9043 H   0  0  0  0  0  0  0  0  0  0  0  0
   -5.8188   -1.6236    0.8030 H   0  0  0  0  0  0  0  0  0  0  0  0
   -6.0780   -1.3256   -1.0064 H   0  0  0  0  0  0  0  0  0  0  0  0
   -7.2672   -0.7989    0.1853 H   0  0  0  0  0  0  0  0  0  0  0  0
   -3.5245    2.1152    0.8906 H   0  0  0  0  0  0  0  0  0  0  0  0
   -1.0729    1.7032    0.9289 H   0  0  0  0  0  0  0  0  0  0  0  0
    0.3294   -1.5766    0.9823 H   0  0  0  0  0  0  0  0  0  0  0  0
   -0.4439   -1.2273   -1.8832 H   0  0  0  0  0  0  0  0  0  0  0  0
    0.7156   -2.5285   -1.2044 H   0  0  0  0  0  0  0  0  0  0  0  0
   -1.1682   -3.1825    0.3646 H   0  0  0  0  0  0  0  0  0  0  0  0
   -1.9036   -3.1379   -1.2631 H   0  0  0  0  0  0  0  0  0  0  0  0
   -4.1997   -1.8165   -0.4203 H   0  0  0  0  0  0  0  0  0  0  0  0
    0.9821    0.8881   -0.5869 H   0  0  0  0  0  0  0  0  0  0  0  0
    3.3238    1.3888   -0.7108 H   0  0  0  0  0  0  0  0  0  0  0  0
    4.8404   -1.8476    0.4993 H   0  0  0  0  0  0  0  0  0  0  0  0
    7.1834   -2.2159    0.6293 H   0  0  0  0  0  0  0  0  0  0  0  0
    8.7801   -0.4008    0.0484 H   0  0  0  0  0  0  0  0  0  0  0  0
    8.8267    2.3057   -0.8172 H   0  0  0  0  0  0  0  0  0  0  0  0
    4.7105    2.9752   -1.0592 H   0  0  0  0  0  0  0  0  0  0  0  0
  1  2  1  0
  2  3  1  0
  2  4  1  0
  2  5  1  0
  5  6  2  0
  6  7  1  0
  7  8  2  0
  8  9  1  0
  9 10  1  0
 10 11  1  0
 11 12  1  0
 12 13  2  0
  9 14  1  0
 14 15  1  0
 15 16  2  0
 15 17  1  0
 17 18  1  0
 18 19  2  0
 19 20  1  0
 20 21  2  0
 21 22  1  0
 22 23  1  0
 23 24  1  0
 24 25  2  0
 25 26  1  0
 13  5  1  0
 26 18  1  0
 12  8  1  0
 26 22  2  0
  1 27  1  0
  1 28  1  0
  1 29  1  0
  3 30  1  0
  3 31  1  0
  3 32  1  0
  4 33  1  0
  4 34  1  0
  4 35  1  0
  6 36  1  0
  7 37  1  0
  9 38  1  0
 10 39  1  0
 10 40  1  0
 11 41  1  0
 11 42  1  0
 13 43  1  0
 14 44  1  0
 17 45  1  0
 19 46  1  0
 20 47  1  0
 21 48  1  0
 23 49  1  0
 25 50  1  0
M  END
$$$$
[H]c1nc(C#Cc2c([H])c(O[C@@]([H])(C([H])([H])[H])C([H])([H])OC([H])([H])[H])c([H])c(C(=O)N([H])c3nn(C([H])([H])[H])c([H])c3[H])c2[H])sc1[H]
     RDKit          3D

 48 50  0  0  0  0  0  0  0  0999 V2000
    0.6078    6.1240    0.1484 C   0  0  0  0  0  0  0  0  0  0  0  0
   -0.7506    6.2200    0.0416 O   0  0  0  0  0  0  0  0  0  0  0  0
   -1.4813    5.0849    0.2323 C   0  0  0  0  0  0  0  0  0  0  0  0
   -1.1591    3.9972   -0.7380 C   0  0  2  0  0  0  0  0  0  0  0  0
   -1.5208    4.5437   -2.1282 C   0  0  0  0  0  0  0  0  0  0  0  0
   -1.8995    2.8390   -0.5669 O   0  0  0  0  0  0  0  0  0  0  0  0
   -1.4429    1.5531   -0.3692 C   0  0  0  0  0  0  0  0  0  0  0  0
   -2.3608    0.5189   -0.2180 C   0  0  0  0  0  0  0  0  0  0  0  0
   -1.9801   -0.7868   -0.0178 C   0  0  0  0  0  0  0  0  0  0  0  0
   -0.6090   -1.0951    0.0372 C   0  0  0  0  0  0  0  0  0  0  0  0
    0.3156   -0.0920   -0.1093 C   0  0  0  0  0  0  0  0  0  0  0  0
   -0.1179    1.1973   -0.3073 C   0  0  0  0  0  0  0  0  0  0  0  0
    1.7434   -0.4364   -0.0454 C   0  0  0  0  0  0  0  0  0  0  0  0
    2.5262    0.5303   -0.2991 O   0  0  0  0  0  0  0  0  0  0  0  0
    2.2254   -1.6928    0.2612 N   0  0  0  0  0  0  0  0  0  0  0  0
    3.5961   -2.0179    0.3210 C   0  0  0  0  0  0  0  0  0  0  0  0
    4.6827   -1.2196    0.1039 C   0  0  0  0  0  0  0  0  0  0  0  0
    5.8169   -2.0158    0.2857 C   0  0  0  0  0  0  0  0  0  0  0  0
    5.4131   -3.2519    0.6017 N   0  0  0  0  0  0  0  0  0  0  0  0
    6.3267   -4.3525    0.8632 C   0  0  0  0  0  0  0  0  0  0  0  0
    4.1141   -3.2427    0.6198 N   0  0  0  0  0  0  0  0  0  0  0  0
   -2.9370   -1.8527    0.1381 C   0  0  0  0  0  0  0  0  0  0  0  0
   -3.7515   -2.7327    0.2579 C   0  0  0  0  0  0  0  0  0  0  0  0
   -4.7560   -3.7794    0.4001 C   0  0  0  0  0  0  0  0  0  0  0  0
   -4.5560   -5.0639    0.6467 N   0  0  0  0  0  0  0  0  0  0  0  0
   -5.5656   -5.8670    0.7438 C   0  0  0  0  0  0  0  0  0  0  0  0
   -6.8213   -5.3365    0.5828 C   0  0  0  0  0  0  0  0  0  0  0  0
   -6.4565   -3.6873    0.2974 S   0  0  0  0  0  0  0  0  0  0  0  0
    1.1042    5.4379   -0.5610 H   0  0  0  0  0  0  0  0  0  0  0  0
    1.0162    7.1452   -0.1118 H   0  0  0  0  0  0  0  0  0  0  0  0
    0.9580    5.8268    1.1607 H   0  0  0  0  0  0  0  0  0  0  0  0
   -1.3232    4.7620    1.2998 H   0  0  0  0  0  0  0  0  0  0  0  0
   -2.5604    5.3754    0.1685 H   0  0  0  0  0  0  0  0  0  0  0  0
   -0.0660    3.8204   -0.7044 H   0  0  0  0  0  0  0  0  0  0  0  0
   -0.6163    4.9991   -2.5643 H   0  0  0  0  0  0  0  0  0  0  0  0
   -2.3790    5.2424   -2.0532 H   0  0  0  0  0  0  0  0  0  0  0  0
   -1.8479    3.7122   -2.7950 H   0  0  0  0  0  0  0  0  0  0  0  0
   -3.4007    0.7784   -0.2636 H   0  0  0  0  0  0  0  0  0  0  0  0
   -0.3760   -2.1348    0.1948 H   0  0  0  0  0  0  0  0  0  0  0  0
    0.6301    1.9570   -0.4179 H   0  0  0  0  0  0  0  0  0  0  0  0
    1.5522   -2.4652    0.4649 H   0  0  0  0  0  0  0  0  0  0  0  0
    4.7385   -0.1936   -0.1540 H   0  0  0  0  0  0  0  0  0  0  0  0
    6.8284   -1.6544    0.1792 H   0  0  0  0  0  0  0  0  0  0  0  0
    6.8101   -4.1782    1.8434 H   0  0  0  0  0  0  0  0  0  0  0  0
    7.1465   -4.3554    0.1096 H   0  0  0  0  0  0  0  0  0  0  0  0
    5.8065   -5.3411    0.8386 H   0  0  0  0  0  0  0  0  0  0  0  0
   -5.4332   -6.9528    0.9504 H   0  0  0  0  0  0  0  0  0  0  0  0
   -7.7897   -5.8670    0.6317 H   0  0  0  0  0  0  0  0  0  0  0  0
  1  2  1  0
  2  3  1  0
  3  4  1  0
  4  5  1  0
  4  6  1  0
  6  7  1  0
  7  8  2  0
  8  9  1  0
  9 10  2  0
 10 11  1  0
 11 12  2  0
 11 13  1  0
 13 14  2  0
 13 15  1  0
 15 16  1  0
 16 17  1  0
 17 18  2  0
 18 19  1  0
 19 20  1  0
 19 21  1  0
  9 22  1  0
 22 23  3  0
 23 24  1  0
 24 25  2  0
 25 26  1  0
 26 27  2  0
 27 28  1  0
 12  7  1  0
 21 16  2  0
 28 24  1  0
  1 29  1  0
  1 30  1  0
  1 31  1  0
  3 32  1  0
  3 33  1  0
  4 34  1  6
  5 35  1  0
  5 36  1  0
  5 37  1  0
  8 38  1  0
 10 39  1  0
 12 40  1  0
 15 41  1  0
 17 42  1  0
 18 43  1  0
 20 44  1  0
 20 45  1  0
 20 46  1  0
 26 47  1  0
 27 48  1  0
M  END
$$$$
O=C([O-])C(=S)[S-]
     RDKit          3D

  6  5  0  0  0  0  0  0  0  0999 V2000
    1.5529   -1.0408   -0.3295 O   0  0  0  0  0  0  0  0  0  0  0  0
    0.7768    0.0068    0.1427 C   0  0  0  0  0  0  0  0  0  0  0  0
    1.2997    0.9627    0.7934 O   0  0  0  0  0  0  0  0  0  0  0  0
   -0.6274   -0.0128   -0.1195 C   0  0  0  0  0  0  0  0  0  0  0  0
   -1.6825    1.3136    0.4654 S   0  0  0  0  0  0  0  0  0  0  0  0
   -1.3196   -1.2296   -0.9525 S   0  0  0  0  0  0  0  0  0  0  0  0
  1  2  1  0
  2  3  2  0
  2  4  1  0
  4  5  1  0
  4  6  2  0
M  CHG  2   1  -1   5  -1
M  END
$$$$
[H]c1c([H])c(Cl)c(S(=O)(=O)N([H])[C@]([H])(C(=O)N([H])[C@]([H])(C(=O)N2C([H])([H])C([H])([H])C([H])([H])C2([H])[H])C(C([H])([H])[H])(C([H])([H])[H])C([H])([H])[H])C([H])(C([H])([H])[H])C([H])([H])[H])c([H])c1Cl
     RDKit          3D

 62 63  0  0  0  0  0  0  0  0999 V2000
    2.1289   -1.8635    2.4717 C   0  0  0  0  0  0  0  0  0  0  0  0
    2.2171   -2.2577    1.0384 C   0  0  0  0  0  0  0  0  0  0  0  0
    3.4746   -3.1099    0.7873 C   0  0  0  0  0  0  0  0  0  0  0  0
    2.1626   -1.1031    0.0679 C   0  0  2  0  0  0  0  0  0  0  0  0
    3.2044   -0.1460    0.2059 N   0  0  0  0  0  0  0  0  0  0  0  0
    4.3046    0.0431   -1.0429 S   0  0  0  0  0  0  0  0  0  0  0  0
    5.7477   -0.1836   -0.5960 O   0  0  0  0  0  0  0  0  0  0  0  0
    3.9653   -0.9397   -2.1600 O   0  0  0  0  0  0  0  0  0  0  0  0
    4.3096    1.6116   -1.8207 C   0  0  0  0  0  0  0  0  0  0  0  0
    3.5404    2.6733   -1.4334 C   0  0  0  0  0  0  0  0  0  0  0  0
    3.6510    3.8698   -2.1135 C   0  0  0  0  0  0  0  0  0  0  0  0
    2.6664    5.2302   -1.6180 Cl  0  0  0  0  0  0  0  0  0  0  0  0
    4.5125    4.0466   -3.1799 C   0  0  0  0  0  0  0  0  0  0  0  0
    5.2793    2.9781   -3.5607 C   0  0  0  0  0  0  0  0  0  0  0  0
    5.1744    1.7722   -2.8829 C   0  0  0  0  0  0  0  0  0  0  0  0
    6.2028    0.4434   -3.4422 Cl  0  0  0  0  0  0  0  0  0  0  0  0
    0.8056   -0.5390   -0.0314 C   0  0  0  0  0  0  0  0  0  0  0  0
    0.7015    0.6695   -0.4287 O   0  0  0  0  0  0  0  0  0  0  0  0
   -0.4125   -1.1827    0.2633 N   0  0  0  0  0  0  0  0  0  0  0  0
   -1.7036   -0.4756    0.0916 C   0  0  2  0  0  0  0  0  0  0  0  0
   -2.2073   -0.0179    1.3991 C   0  0  0  0  0  0  0  0  0  0  0  0
   -1.7900   -0.6838    2.4120 O   0  0  0  0  0  0  0  0  0  0  0  0
   -3.0787    1.0581    1.6502 N   0  0  0  0  0  0  0  0  0  0  0  0
   -3.7111    2.0431    0.8095 C   0  0  0  0  0  0  0  0  0  0  0  0
   -5.1777    1.8952    1.2463 C   0  0  0  0  0  0  0  0  0  0  0  0
   -5.0055    1.8559    2.7384 C   0  0  0  0  0  0  0  0  0  0  0  0
   -3.5601    1.4173    2.9940 C   0  0  0  0  0  0  0  0  0  0  0  0
   -2.5962   -1.4370   -0.6148 C   0  0  0  0  0  0  0  0  0  0  0  0
   -2.8167   -2.7242    0.1859 C   0  0  0  0  0  0  0  0  0  0  0  0
   -3.9065   -0.9452   -1.0883 C   0  0  0  0  0  0  0  0  0  0  0  0
   -1.8119   -1.8299   -1.8990 C   0  0  0  0  0  0  0  0  0  0  0  0
    1.4231   -2.5437    2.9879 H   0  0  0  0  0  0  0  0  0  0  0  0
    1.6904   -0.8434    2.5421 H   0  0  0  0  0  0  0  0  0  0  0  0
    3.0995   -1.9146    3.0100 H   0  0  0  0  0  0  0  0  0  0  0  0
    1.3910   -2.9476    0.8002 H   0  0  0  0  0  0  0  0  0  0  0  0
    3.2739   -4.1346    1.1583 H   0  0  0  0  0  0  0  0  0  0  0  0
    3.5989   -3.1865   -0.3130 H   0  0  0  0  0  0  0  0  0  0  0  0
    4.3503   -2.7294    1.3280 H   0  0  0  0  0  0  0  0  0  0  0  0
    2.3300   -1.5872   -0.9580 H   0  0  0  0  0  0  0  0  0  0  0  0
    3.1585    0.5256    0.9628 H   0  0  0  0  0  0  0  0  0  0  0  0
    2.8502    2.5590   -0.5833 H   0  0  0  0  0  0  0  0  0  0  0  0
    4.5707    5.0211   -3.6987 H   0  0  0  0  0  0  0  0  0  0  0  0
    5.9819    3.0487   -4.3976 H   0  0  0  0  0  0  0  0  0  0  0  0
   -0.4201   -2.1584    0.6076 H   0  0  0  0  0  0  0  0  0  0  0  0
   -1.4896    0.4181   -0.5040 H   0  0  0  0  0  0  0  0  0  0  0  0
   -3.5609    1.9570   -0.2557 H   0  0  0  0  0  0  0  0  0  0  0  0
   -3.3528    3.0776    1.0939 H   0  0  0  0  0  0  0  0  0  0  0  0
   -5.7766    2.7522    0.8827 H   0  0  0  0  0  0  0  0  0  0  0  0
   -5.5548    0.9493    0.8174 H   0  0  0  0  0  0  0  0  0  0  0  0
   -5.1736    2.8949    3.1033 H   0  0  0  0  0  0  0  0  0  0  0  0
   -5.7139    1.1593    3.2045 H   0  0  0  0  0  0  0  0  0  0  0  0
   -2.9943    2.3440    3.3096 H   0  0  0  0  0  0  0  0  0  0  0  0
   -3.4812    0.6109    3.7175 H   0  0  0  0  0  0  0  0  0  0  0  0
   -2.4068   -2.6836    1.1915 H   0  0  0  0  0  0  0  0  0  0  0  0
   -3.9229   -2.8994    0.2983 H   0  0  0  0  0  0  0  0  0  0  0  0
   -2.4550   -3.5917   -0.4078 H   0  0  0  0  0  0  0  0  0  0  0  0
   -3.8465    0.0253   -1.6398 H   0  0  0  0  0  0  0  0  0  0  0  0
   -4.2726   -1.6658   -1.8802 H   0  0  0  0  0  0  0  0  0  0  0  0
   -4.6987   -0.9694   -0.3117 H   0  0  0  0  0  0  0  0  0  0  0  0
   -2.5116   -2.3139   -2.6155 H   0  0  0  0  0  0  0  0  0  0  0  0
   -0.9524   -2.4679   -1.6162 H   0  0  0  0  0  0  0  0  0  0  0  0
   -1.4052   -0.8748   -2.2830 H   0  0  0  0  0  0  0  0  0  0  0  0
  1  2  1  0
  2  3  1  0
  2  4  1  0
  4  5  1  0
  5  6  1  0
  6  7  2  0
  6  8  2  0
  6  9  1  0
  9 10  2  0
 10 11  1  0
 11 12  1  0
 11 13  2  0
 13 14  1  0
 14 15  2  0
 15 16  1  0
  4 17  1  0
 17 18  2  0
 17 19  1  0
 19 20  1  0
 20 21  1  0
 21 22  2  0
 21 23  1  0
 23 24  1  0
 24 25  1  0
 25 26  1  0
 26 27  1  0
 20 28  1  0
 28 29  1  0
 28 30  1  0
 28 31  1  0
 15  9  1  0
 27 23  1  0
  1 32  1  0
  1 33  1  0
  1 34  1  0
  2 35  1  0
  3 36  1  0
  3 37  1  0
  3 38  1  0
  4 39  1  6
  5 40  1  0
 10 41  1  0
 13 42  1  0
 14 43  1  0
 19 44  1  0
 20 45  1  6
 24 46  1  0
 24 47  1  0
 25 48  1  0
 25 49  1  0
 26 50  1  0
 26 51  1  0
 27 52  1  0
 27 53  1  0
 29 54  1  0
 29 55  1  0
 29 56  1  0
 30 57  1  0
 30 58  1  0
 30 59  1  0
 31 60  1  0
 31 61  1  0
 31 62  1  0
M  END
$$$$
[H]/C(=C1/C(=O)N([H])c2c([H])c(N([H])C(=O)c3c([H])c([H])c([H])c(C(F)(F)F)c3[H])c([H])c([H])c21)c1c([H])c([H])c([H])n1[H]
     RDKit          3D

 43 46  0  0  0  0  0  0  0  0999 V2000
    7.6387    0.5471   -2.1885 F   0  0  0  0  0  0  0  0  0  0  0  0
    7.7456    0.8413   -0.8259 C   0  0  0  0  0  0  0  0  0  0  0  0
    7.6684    2.1977   -0.5708 F   0  0  0  0  0  0  0  0  0  0  0  0
    8.9186    0.3045   -0.3723 F   0  0  0  0  0  0  0  0  0  0  0  0
    6.6110    0.1222   -0.1503 C   0  0  0  0  0  0  0  0  0  0  0  0
    6.9168   -0.9967    0.5793 C   0  0  0  0  0  0  0  0  0  0  0  0
    5.8953   -1.6851    1.2116 C   0  0  0  0  0  0  0  0  0  0  0  0
    4.5881   -1.2304    1.0998 C   0  0  0  0  0  0  0  0  0  0  0  0
    4.2790   -0.0852    0.3537 C   0  0  0  0  0  0  0  0  0  0  0  0
    5.2934    0.5820   -0.2688 C   0  0  0  0  0  0  0  0  0  0  0  0
    2.8553    0.2883    0.3379 C   0  0  0  0  0  0  0  0  0  0  0  0
    2.4847    1.2790    0.9819 O   0  0  0  0  0  0  0  0  0  0  0  0
    1.9467   -0.4852   -0.3968 N   0  0  0  0  0  0  0  0  0  0  0  0
    0.5483   -0.2807   -0.4290 C   0  0  0  0  0  0  0  0  0  0  0  0
   -0.0191   -0.0170    0.8184 C   0  0  0  0  0  0  0  0  0  0  0  0
   -1.3688    0.1335    0.8904 C   0  0  0  0  0  0  0  0  0  0  0  0
   -2.1470    0.0324   -0.2289 C   0  0  0  0  0  0  0  0  0  0  0  0
   -3.6203    0.1412   -0.3623 C   0  0  0  0  0  0  0  0  0  0  0  0
   -4.4720    0.3081    0.6338 C   0  0  0  0  0  0  0  0  0  0  0  0
   -5.9035    0.4095    0.4538 C   0  0  0  0  0  0  0  0  0  0  0  0
   -6.8687   -0.4086    1.0200 C   0  0  0  0  0  0  0  0  0  0  0  0
   -8.1302    0.0485    0.6596 C   0  0  0  0  0  0  0  0  0  0  0  0
   -7.9215    1.1487   -0.1306 C   0  0  0  0  0  0  0  0  0  0  0  0
   -6.6037    1.3383   -0.2349 N   0  0  0  0  0  0  0  0  0  0  0  0
   -3.9190   -0.0622   -1.7727 C   0  0  0  0  0  0  0  0  0  0  0  0
   -5.0500   -0.0471   -2.2935 O   0  0  0  0  0  0  0  0  0  0  0  0
   -2.6538   -0.2824   -2.4213 N   0  0  0  0  0  0  0  0  0  0  0  0
   -1.6036   -0.2212   -1.4664 C   0  0  0  0  0  0  0  0  0  0  0  0
   -0.2150   -0.3862   -1.5627 C   0  0  0  0  0  0  0  0  0  0  0  0
    7.9330   -1.3431    0.6618 H   0  0  0  0  0  0  0  0  0  0  0  0
    6.1622   -2.5624    1.7728 H   0  0  0  0  0  0  0  0  0  0  0  0
    3.7830   -1.7550    1.5851 H   0  0  0  0  0  0  0  0  0  0  0  0
    5.0891    1.4459   -0.8371 H   0  0  0  0  0  0  0  0  0  0  0  0
    2.3160   -1.2837   -0.9816 H   0  0  0  0  0  0  0  0  0  0  0  0
    0.5599    0.0661    1.7239 H   0  0  0  0  0  0  0  0  0  0  0  0
   -1.8477    0.3461    1.8581 H   0  0  0  0  0  0  0  0  0  0  0  0
   -4.0152    0.3681    1.6449 H   0  0  0  0  0  0  0  0  0  0  0  0
   -6.6396   -1.2568    1.6359 H   0  0  0  0  0  0  0  0  0  0  0  0
   -9.0883   -0.3532    0.9153 H   0  0  0  0  0  0  0  0  0  0  0  0
   -8.6871    1.7479   -0.5976 H   0  0  0  0  0  0  0  0  0  0  0  0
   -6.1270    2.1074   -0.7625 H   0  0  0  0  0  0  0  0  0  0  0  0
   -2.5587   -0.4597   -3.4388 H   0  0  0  0  0  0  0  0  0  0  0  0
    0.2268   -0.6018   -2.5171 H   0  0  0  0  0  0  0  0  0  0  0  0
  1  2  1  0
  2  3  1  0
  2  4  1  0
  2  5  1  0
  5  6  2  0
  6  7  1  0
  7  8  2  0
  8  9  1  0
  9 10  2  0
  9 11  1  0
 11 12  2  0
 11 13  1  0
 13 14  1  0
 14 15  2  0
 15 16  1  0
 16 17  2  0
 17 18  1  0
 18 19  2  0
 19 20  1  0
 20 21  2  0
 21 22  1  0
 22 23  2  0
 23 24  1  0
 18 25  1  0
 25 26  2  0
 25 27  1  0
 27 28  1  0
 28 29  2  0
 10  5  1  0
 29 14  1  0
 28 17  1  0
 24 20  1  0
  6 30  1  0
  7 31  1  0
  8 32  1  0
 10 33  1  0
 13 34  1  0
 15 35  1  0
 16 36  1  0
 19 37  1  0
 21 38  1  0
 22 39  1  0
 23 40  1  0
 24 41  1  0
 27 42  1  0
 29 43  1  0
M  END
$$$$
[H]c1c([H])c(C([H])([H])[H])c(N([H])S(=O)(=O)c2c([H])c([H])c(S(=O)(=O)c3c([H])c([H])c([H])c(C(=O)N([H])c4c([H])c([H])c(C(=O)OC([H])([H])C([H])([H])[H])c([H])c4[H])c3[H])c([H])c2[H])c(C([H])([H])[H])c1[H]
     RDKit          3D

 69 72  0  0  0  0  0  0  0  0999 V2000
    9.1104    3.2269    3.8382 C   0  0  0  0  0  0  0  0  0  0  0  0
    9.7732    2.0040    3.2056 C   0  0  0  0  0  0  0  0  0  0  0  0
    8.7614    1.2387    2.5881 O   0  0  0  0  0  0  0  0  0  0  0  0
    7.9997    1.7915    1.5928 C   0  0  0  0  0  0  0  0  0  0  0  0
    8.2174    2.9726    1.2426 O   0  0  0  0  0  0  0  0  0  0  0  0
    6.9360    1.0382    0.9276 C   0  0  0  0  0  0  0  0  0  0  0  0
    6.6553   -0.2634    1.2623 C   0  0  0  0  0  0  0  0  0  0  0  0
    5.6288   -0.9372    0.6166 C   0  0  0  0  0  0  0  0  0  0  0  0
    4.8659   -0.3430   -0.3649 C   0  0  0  0  0  0  0  0  0  0  0  0
    3.8149   -0.9648   -1.0682 N   0  0  0  0  0  0  0  0  0  0  0  0
    3.5233   -2.3343   -1.1266 C   0  0  0  0  0  0  0  0  0  0  0  0
    4.2042   -3.1885   -0.5400 O   0  0  0  0  0  0  0  0  0  0  0  0
    2.3710   -2.7866   -1.9080 C   0  0  0  0  0  0  0  0  0  0  0  0
    2.3812   -4.0948   -2.3603 C   0  0  0  0  0  0  0  0  0  0  0  0
    1.3096   -4.5684   -3.0944 C   0  0  0  0  0  0  0  0  0  0  0  0
    0.2353   -3.7443   -3.3771 C   0  0  0  0  0  0  0  0  0  0  0  0
    0.2100   -2.4377   -2.9342 C   0  0  0  0  0  0  0  0  0  0  0  0
    1.2987   -1.9666   -2.1912 C   0  0  0  0  0  0  0  0  0  0  0  0
   -1.0787   -1.3350   -3.2362 S   0  0  0  0  0  0  0  0  0  0  0  0
   -1.6673   -1.6058   -4.6045 O   0  0  0  0  0  0  0  0  0  0  0  0
   -0.5106    0.0652   -3.2304 O   0  0  0  0  0  0  0  0  0  0  0  0
   -2.3618   -1.4023   -2.0954 C   0  0  0  0  0  0  0  0  0  0  0  0
   -2.2704   -0.6678   -0.9383 C   0  0  0  0  0  0  0  0  0  0  0  0
   -3.2762   -0.6648    0.0353 C   0  0  0  0  0  0  0  0  0  0  0  0
   -4.4099   -1.4166   -0.1468 C   0  0  0  0  0  0  0  0  0  0  0  0
   -4.4933   -2.1610   -1.3279 C   0  0  0  0  0  0  0  0  0  0  0  0
   -3.4974   -2.1586   -2.2829 C   0  0  0  0  0  0  0  0  0  0  0  0
   -5.6535   -1.4339    1.0505 S   0  0  0  0  0  0  0  0  0  0  0  0
   -6.3386   -2.7831    0.9622 O   0  0  0  0  0  0  0  0  0  0  0  0
   -5.0348   -1.4168    2.4445 O   0  0  0  0  0  0  0  0  0  0  0  0
   -6.8189   -0.2043    0.9063 N   0  0  0  0  0  0  0  0  0  0  0  0
   -6.5815    1.1721    0.9883 C   0  0  0  0  0  0  0  0  0  0  0  0
   -6.3015    1.8945   -0.1424 C   0  0  0  0  0  0  0  0  0  0  0  0
   -6.2241    1.3186   -1.5067 C   0  0  0  0  0  0  0  0  0  0  0  0
   -6.0765    3.2716   -0.0307 C   0  0  0  0  0  0  0  0  0  0  0  0
   -6.1345    3.9121    1.2086 C   0  0  0  0  0  0  0  0  0  0  0  0
   -6.4188    3.1379    2.3013 C   0  0  0  0  0  0  0  0  0  0  0  0
   -6.6459    1.7816    2.2352 C   0  0  0  0  0  0  0  0  0  0  0  0
   -6.9490    1.0299    3.4766 C   0  0  0  0  0  0  0  0  0  0  0  0
    5.1553    0.9840   -0.7038 C   0  0  0  0  0  0  0  0  0  0  0  0
    6.1641    1.6420   -0.0672 C   0  0  0  0  0  0  0  0  0  0  0  0
    8.0209    3.0360    3.9165 H   0  0  0  0  0  0  0  0  0  0  0  0
    9.2657    4.0950    3.1711 H   0  0  0  0  0  0  0  0  0  0  0  0
    9.5487    3.4029    4.8456 H   0  0  0  0  0  0  0  0  0  0  0  0
   10.5718    2.3142    2.5347 H   0  0  0  0  0  0  0  0  0  0  0  0
   10.2516    1.3821    4.0048 H   0  0  0  0  0  0  0  0  0  0  0  0
    7.2622   -0.7185    2.0349 H   0  0  0  0  0  0  0  0  0  0  0  0
    5.4452   -1.9421    0.9218 H   0  0  0  0  0  0  0  0  0  0  0  0
    3.1707   -0.2959   -1.6167 H   0  0  0  0  0  0  0  0  0  0  0  0
    3.2102   -4.7623   -2.1527 H   0  0  0  0  0  0  0  0  0  0  0  0
    1.2663   -5.5746   -3.4690 H   0  0  0  0  0  0  0  0  0  0  0  0
   -0.6232   -4.0665   -3.9462 H   0  0  0  0  0  0  0  0  0  0  0  0
    1.3092   -0.9470   -1.8251 H   0  0  0  0  0  0  0  0  0  0  0  0
   -1.4041   -0.0366   -0.7014 H   0  0  0  0  0  0  0  0  0  0  0  0
   -3.1657   -0.0700    0.9355 H   0  0  0  0  0  0  0  0  0  0  0  0
   -5.3998   -2.7609   -1.4688 H   0  0  0  0  0  0  0  0  0  0  0  0
   -3.6221   -2.7678   -3.1940 H   0  0  0  0  0  0  0  0  0  0  0  0
   -7.8296   -0.4855    0.7384 H   0  0  0  0  0  0  0  0  0  0  0  0
   -6.7759    1.9174   -2.2630 H   0  0  0  0  0  0  0  0  0  0  0  0
   -5.1767    1.2717   -1.8627 H   0  0  0  0  0  0  0  0  0  0  0  0
   -6.6700    0.3022   -1.5325 H   0  0  0  0  0  0  0  0  0  0  0  0
   -5.8572    3.8429   -0.9107 H   0  0  0  0  0  0  0  0  0  0  0  0
   -5.9572    4.9750    1.2639 H   0  0  0  0  0  0  0  0  0  0  0  0
   -6.4668    3.6311    3.2799 H   0  0  0  0  0  0  0  0  0  0  0  0
   -7.6423    1.5918    4.1486 H   0  0  0  0  0  0  0  0  0  0  0  0
   -6.0566    0.7994    4.0834 H   0  0  0  0  0  0  0  0  0  0  0  0
   -7.5175    0.0819    3.2505 H   0  0  0  0  0  0  0  0  0  0  0  0
    4.5903    1.5184   -1.4770 H   0  0  0  0  0  0  0  0  0  0  0  0
    6.3793    2.6638   -0.3337 H   0  0  0  0  0  0  0  0  0  0  0  0
  1  2  1  0
  2  3  1  0
  3  4  1  0
  4  5  2  0
  4  6  1  0
  6  7  2  0
  7  8  1  0
  8  9  2  0
  9 10  1  0
 10 11  1  0
 11 12  2  0
 11 13  1  0
 13 14  2  0
 14 15  1  0
 15 16  2  0
 16 17  1  0
 17 18  2  0
 17 19  1  0
 19 20  2  0
 19 21  2  0
 19 22  1  0
 22 23  2  0
 23 24  1  0
 24 25  2  0
 25 26  1  0
 26 27  2  0
 25 28  1  0
 28 29  2  0
 28 30  2  0
 28 31  1  0
 31 32  1  0
 32 33  2  0
 33 34  1  0
 33 35  1  0
 35 36  2  0
 36 37  1  0
 37 38  2  0
 38 39  1  0
  9 40  1  0
 40 41  2  0
 41  6  1  0
 18 13  1  0
 27 22  1  0
 38 32  1  0
  1 42  1  0
  1 43  1  0
  1 44  1  0
  2 45  1  0
  2 46  1  0
  7 47  1  0
  8 48  1  0
 10 49  1  0
 14 50  1  0
 15 51  1  0
 16 52  1  0
 18 53  1  0
 23 54  1  0
 24 55  1  0
 26 56  1  0
 27 57  1  0
 31 58  1  0
 34 59  1  0
 34 60  1  0
 34 61  1  0
 35 62  1  0
 36 63  1  0
 37 64  1  0
 39 65  1  0
 39 66  1  0
 39 67  1  0
 40 68  1  0
 41 69  1  0
M  END
$$$$
[H]OC([H])([H])C([H])([H])N(C(=O)c1c([H])c(-c2c([H])nn(C([H])([H])[H])c2[H])c2c(c1[H])C(O[H])(C(F)(F)F)c1c([H])c([H])c([H])c([H])c1-2)C(C([H])([H])[H])(C([H])([H])[H])C([H])([H])[H]
     RDKit          3D

 60 63  0  0  0  0  0  0  0  0999 V2000
   -4.3239    5.2468   -0.1640 C   0  0  0  0  0  0  0  0  0  0  0  0
   -3.7255    3.9984   -0.5712 N   0  0  0  0  0  0  0  0  0  0  0  0
   -2.8730    3.2862    0.1804 C   0  0  0  0  0  0  0  0  0  0  0  0
   -2.5260    2.1858   -0.5261 C   0  0  0  0  0  0  0  0  0  0  0  0
   -3.2015    2.2472   -1.7500 C   0  0  0  0  0  0  0  0  0  0  0  0
   -3.9150    3.3704   -1.7205 N   0  0  0  0  0  0  0  0  0  0  0  0
   -1.5908    1.1138   -0.2372 C   0  0  0  0  0  0  0  0  0  0  0  0
   -0.2398    1.3669   -0.4513 C   0  0  0  0  0  0  0  0  0  0  0  0
    0.7596    0.3917   -0.2706 C   0  0  0  0  0  0  0  0  0  0  0  0
    0.3070   -0.8206    0.1300 C   0  0  0  0  0  0  0  0  0  0  0  0
   -1.0645   -1.1180    0.3594 C   0  0  0  0  0  0  0  0  0  0  0  0
   -1.9949   -0.1224    0.1677 C   0  0  0  0  0  0  0  0  0  0  0  0
   -3.2908   -0.7337    0.5300 C   0  0  0  0  0  0  0  0  0  0  0  0
   -4.5606   -0.1917    0.5637 C   0  0  0  0  0  0  0  0  0  0  0  0
   -5.6359   -0.9893    0.9866 C   0  0  0  0  0  0  0  0  0  0  0  0
   -5.4631   -2.2998    1.3709 C   0  0  0  0  0  0  0  0  0  0  0  0
   -4.2002   -2.8314    1.3357 C   0  0  0  0  0  0  0  0  0  0  0  0
   -3.1175   -2.0432    0.9139 C   0  0  0  0  0  0  0  0  0  0  0  0
   -1.6977   -2.3793    0.7797 C   0  0  0  0  0  0  0  0  0  0  0  0
   -1.1863   -2.8138    2.0243 O   0  0  0  0  0  0  0  0  0  0  0  0
   -1.4681   -3.5326   -0.1708 C   0  0  0  0  0  0  0  0  0  0  0  0
   -0.1162   -3.7579   -0.2594 F   0  0  0  0  0  0  0  0  0  0  0  0
   -1.9585   -3.2036   -1.4191 F   0  0  0  0  0  0  0  0  0  0  0  0
   -2.0475   -4.6482    0.3519 F   0  0  0  0  0  0  0  0  0  0  0  0
    2.1156    0.7608   -0.5014 C   0  0  0  0  0  0  0  0  0  0  0  0
    2.2032    2.1051   -0.7896 O   0  0  0  0  0  0  0  0  0  0  0  0
    3.3719    0.1895   -0.5282 N   0  0  0  0  0  0  0  0  0  0  0  0
    4.4768    1.1927   -0.8559 C   0  0  0  0  0  0  0  0  0  0  0  0
    4.9252    1.8648    0.3998 C   0  0  0  0  0  0  0  0  0  0  0  0
    5.9477    2.7961    0.1562 O   0  0  0  0  0  0  0  0  0  0  0  0
    3.8096   -1.1232   -0.3199 C   0  0  0  0  0  0  0  0  0  0  0  0
    3.6254   -1.6597    1.0713 C   0  0  0  0  0  0  0  0  0  0  0  0
    5.3220   -1.2985   -0.5885 C   0  0  0  0  0  0  0  0  0  0  0  0
    3.1953   -2.0992   -1.3396 C   0  0  0  0  0  0  0  0  0  0  0  0
   -3.5557    6.0591   -0.0907 H   0  0  0  0  0  0  0  0  0  0  0  0
   -5.0434    5.6075   -0.9431 H   0  0  0  0  0  0  0  0  0  0  0  0
   -4.9000    5.1530    0.7887 H   0  0  0  0  0  0  0  0  0  0  0  0
   -2.5230    3.5383    1.1691 H   0  0  0  0  0  0  0  0  0  0  0  0
   -3.1540    1.5251   -2.5603 H   0  0  0  0  0  0  0  0  0  0  0  0
    0.0569    2.3517   -0.7724 H   0  0  0  0  0  0  0  0  0  0  0  0
    0.9513   -1.6494    0.3210 H   0  0  0  0  0  0  0  0  0  0  0  0
   -4.7512    0.8303    0.2899 H   0  0  0  0  0  0  0  0  0  0  0  0
   -6.6298   -0.5670    1.0129 H   0  0  0  0  0  0  0  0  0  0  0  0
   -6.2550   -2.9351    1.6976 H   0  0  0  0  0  0  0  0  0  0  0  0
   -4.0276   -3.8518    1.6295 H   0  0  0  0  0  0  0  0  0  0  0  0
   -1.8437   -2.6886    2.7329 H   0  0  0  0  0  0  0  0  0  0  0  0
    4.0402    1.9462   -1.5272 H   0  0  0  0  0  0  0  0  0  0  0  0
    5.2639    0.6880   -1.4304 H   0  0  0  0  0  0  0  0  0  0  0  0
    4.0776    2.4957    0.7878 H   0  0  0  0  0  0  0  0  0  0  0  0
    5.2958    1.1769    1.1751 H   0  0  0  0  0  0  0  0  0  0  0  0
    6.3166    2.6511   -0.7682 H   0  0  0  0  0  0  0  0  0  0  0  0
    3.0390   -0.9341    1.6889 H   0  0  0  0  0  0  0  0  0  0  0  0
    4.5646   -1.8520    1.6213 H   0  0  0  0  0  0  0  0  0  0  0  0
    3.0707   -2.6384    1.0572 H   0  0  0  0  0  0  0  0  0  0  0  0
    5.9552   -0.7200    0.0619 H   0  0  0  0  0  0  0  0  0  0  0  0
    5.5440   -1.2848   -1.6694 H   0  0  0  0  0  0  0  0  0  0  0  0
    5.4955   -2.3802   -0.2940 H   0  0  0  0  0  0  0  0  0  0  0  0
    2.6813   -2.9287   -0.8283 H   0  0  0  0  0  0  0  0  0  0  0  0
    3.9434   -2.5453   -2.0148 H   0  0  0  0  0  0  0  0  0  0  0  0
    2.5258   -1.4974   -1.9934 H   0  0  0  0  0  0  0  0  0  0  0  0
  1  2  1  0
  2  3  1  0
  3  4  2  0
  4  5  1  0
  5  6  2  0
  4  7  1  0
  7  8  2  0
  8  9  1  0
  9 10  2  0
 10 11  1  0
 11 12  2  0
 12 13  1  0
 13 14  2  0
 14 15  1  0
 15 16  2  0
 16 17  1  0
 17 18  2  0
 18 19  1  0
 19 20  1  0
 19 21  1  0
 21 22  1  0
 21 23  1  0
 21 24  1  0
  9 25  1  0
 25 26  2  0
 25 27  1  0
 27 28  1  0
 28 29  1  0
 29 30  1  0
 27 31  1  0
 31 32  1  0
 31 33  1  0
 31 34  1  0
  6  2  1  0
 12  7  1  0
 18 13  1  0
 19 11  1  0
  1 35  1  0
  1 36  1  0
  1 37  1  0
  3 38  1  0
  5 39  1  0
  8 40  1  0
 10 41  1  0
 14 42  1  0
 15 43  1  0
 16 44  1  0
 17 45  1  0
 20 46  1  0
 28 47  1  0
 28 48  1  0
 29 49  1  0
 29 50  1  0
 30 51  1  0
 32 52  1  0
 32 53  1  0
 32 54  1  0
 33 55  1  0
 33 56  1  0
 33 57  1  0
 34 58  1  0
 34 59  1  0
 34 60  1  0
M  END
$$$$
[H]c1nc(Oc2c([H])c([H])c([H])c([H])c2[H])c([H])c([H])c1N1C([H])([H])C([H])([H])N(c2c([H])c([H])c([H])c(C#N)c2[H])[C@]([H])(C([H])([H])[H])C1([H])[H]
     RDKit          3D

 50 53  0  0  0  0  0  0  0  0999 V2000
    3.3727    1.7482    1.6329 C   0  0  0  0  0  0  0  0  0  0  0  0
    2.5559    1.2730    0.4185 C   0  0  2  0  0  0  0  0  0  0  0  0
    1.1084    1.3967    0.7129 C   0  0  0  0  0  0  0  0  0  0  0  0
    0.2723    0.3550    0.1940 N   0  0  0  0  0  0  0  0  0  0  0  0
    0.7908   -0.8692   -0.3795 C   0  0  0  0  0  0  0  0  0  0  0  0
    2.1773   -1.1656    0.1546 C   0  0  0  0  0  0  0  0  0  0  0  0
    3.0486   -0.0173    0.0830 N   0  0  0  0  0  0  0  0  0  0  0  0
    4.3813   -0.1880   -0.3268 C   0  0  0  0  0  0  0  0  0  0  0  0
    5.1795    0.9113   -0.6546 C   0  0  0  0  0  0  0  0  0  0  0  0
    6.4924    0.7995   -1.0518 C   0  0  0  0  0  0  0  0  0  0  0  0
    7.0811   -0.4241   -1.1432 C   0  0  0  0  0  0  0  0  0  0  0  0
    6.3446   -1.5474   -0.8327 C   0  0  0  0  0  0  0  0  0  0  0  0
    5.0107   -1.4153   -0.4304 C   0  0  0  0  0  0  0  0  0  0  0  0
    6.9623   -2.8280   -0.9290 C   0  0  0  0  0  0  0  0  0  0  0  0
    7.4561   -3.8769   -1.0019 N   0  0  0  0  0  0  0  0  0  0  0  0
   -1.1358    0.5365    0.2516 C   0  0  0  0  0  0  0  0  0  0  0  0
   -2.0352   -0.3524   -0.3188 C   0  0  0  0  0  0  0  0  0  0  0  0
   -3.3868   -0.0969   -0.2085 C   0  0  0  0  0  0  0  0  0  0  0  0
   -3.9037    0.9998    0.4410 C   0  0  0  0  0  0  0  0  0  0  0  0
   -5.2675    1.2509    0.5482 O   0  0  0  0  0  0  0  0  0  0  0  0
   -6.2049    0.4088    0.0050 C   0  0  0  0  0  0  0  0  0  0  0  0
   -6.6785   -0.6236    0.8001 C   0  0  0  0  0  0  0  0  0  0  0  0
   -7.6216   -1.5015    0.3075 C   0  0  0  0  0  0  0  0  0  0  0  0
   -8.0578   -1.2969   -0.9960 C   0  0  0  0  0  0  0  0  0  0  0  0
   -7.5810   -0.2676   -1.7785 C   0  0  0  0  0  0  0  0  0  0  0  0
   -6.6326    0.6106   -1.2750 C   0  0  0  0  0  0  0  0  0  0  0  0
   -3.0189    1.8500    0.9874 N   0  0  0  0  0  0  0  0  0  0  0  0
   -1.6824    1.6236    0.8943 C   0  0  0  0  0  0  0  0  0  0  0  0
    3.7401    2.7835    1.4853 H   0  0  0  0  0  0  0  0  0  0  0  0
    4.1868    1.0679    1.8793 H   0  0  0  0  0  0  0  0  0  0  0  0
    2.6894    1.7836    2.5034 H   0  0  0  0  0  0  0  0  0  0  0  0
    2.7789    2.0162   -0.4037 H   0  0  0  0  0  0  0  0  0  0  0  0
    0.9764    1.4723    1.8137 H   0  0  0  0  0  0  0  0  0  0  0  0
    0.6822    2.3650    0.3115 H   0  0  0  0  0  0  0  0  0  0  0  0
    0.8305   -0.8624   -1.4786 H   0  0  0  0  0  0  0  0  0  0  0  0
    0.1610   -1.7547   -0.0860 H   0  0  0  0  0  0  0  0  0  0  0  0
    2.0514   -1.5295    1.2050 H   0  0  0  0  0  0  0  0  0  0  0  0
    2.5249   -2.0366   -0.4467 H   0  0  0  0  0  0  0  0  0  0  0  0
    4.7836    1.9070   -0.6084 H   0  0  0  0  0  0  0  0  0  0  0  0
    7.0772    1.6884   -1.2980 H   0  0  0  0  0  0  0  0  0  0  0  0
    8.1138   -0.4783   -1.4582 H   0  0  0  0  0  0  0  0  0  0  0  0
    4.4715   -2.3184   -0.1920 H   0  0  0  0  0  0  0  0  0  0  0  0
   -1.6384   -1.2115   -0.8296 H   0  0  0  0  0  0  0  0  0  0  0  0
   -4.0931   -0.7849   -0.6502 H   0  0  0  0  0  0  0  0  0  0  0  0
   -6.3135   -0.7480    1.8086 H   0  0  0  0  0  0  0  0  0  0  0  0
   -8.0181   -2.3236    0.8984 H   0  0  0  0  0  0  0  0  0  0  0  0
   -8.7970   -1.9850   -1.3819 H   0  0  0  0  0  0  0  0  0  0  0  0
   -7.9284   -0.1196   -2.7906 H   0  0  0  0  0  0  0  0  0  0  0  0
   -6.2609    1.4147   -1.8880 H   0  0  0  0  0  0  0  0  0  0  0  0
   -1.0459    2.3611    1.3657 H   0  0  0  0  0  0  0  0  0  0  0  0
  1  2  1  0
  2  3  1  0
  3  4  1  0
  4  5  1  0
  5  6  1  0
  6  7  1  0
  7  8  1  0
  8  9  2  0
  9 10  1  0
 10 11  2  0
 11 12  1  0
 12 13  2  0
 12 14  1  0
 14 15  3  0
  4 16  1  0
 16 17  2  0
 17 18  1  0
 18 19  2  0
 19 20  1  0
 20 21  1  0
 21 22  2  0
 22 23  1  0
 23 24  2  0
 24 25  1  0
 25 26  2  0
 19 27  1  0
 27 28  2  0
  7  2  1  0
 13  8  1  0
 28 16  1  0
 26 21  1  0
  1 29  1  0
  1 30  1  0
  1 31  1  0
  2 32  1  6
  3 33  1  0
  3 34  1  0
  5 35  1  0
  5 36  1  0
  6 37  1  0
  6 38  1  0
  9 39  1  0
 10 40  1  0
 11 41  1  0
 13 42  1  0
 17 43  1  0
 18 44  1  0
 22 45  1  0
 23 46  1  0
 24 47  1  0
 25 48  1  0
 26 49  1  0
 28 50  1  0
M  END
$$$$
[H]OC([H])([H])C([H])([H])n1c(C([H])([H])[H])nc2c([H])c([H])c(OC3([H])C([H])([H])C([H])([H])N(C4([H])C([H])([H])C([H])([H])C([H])(C(F)(F)F)C([H])([H])C4([H])[H])C([H])([H])C3([H])[H])c([H])c2c1=O
     RDKit          3D

 62 65  0  0  0  0  0  0  0  0999 V2000
   -8.3219    0.9942   -0.7015 C   0  0  0  0  0  0  0  0  0  0  0  0
   -6.8739    0.8861   -0.5432 C   0  0  0  0  0  0  0  0  0  0  0  0
   -6.0538    1.7520   -1.1647 N   0  0  0  0  0  0  0  0  0  0  0  0
   -4.7095    1.6609   -1.0216 C   0  0  0  0  0  0  0  0  0  0  0  0
   -3.8469    2.5359   -1.6477 C   0  0  0  0  0  0  0  0  0  0  0  0
   -2.4790    2.4387   -1.4986 C   0  0  0  0  0  0  0  0  0  0  0  0
   -1.9115    1.4561   -0.7120 C   0  0  0  0  0  0  0  0  0  0  0  0
   -0.5412    1.4222   -0.6115 O   0  0  0  0  0  0  0  0  0  0  0  0
    0.2252    0.5309    0.1157 C   0  0  0  0  0  0  0  0  0  0  0  0
    1.1376    1.2073    1.1216 C   0  0  0  0  0  0  0  0  0  0  0  0
    2.5608    1.2844    0.6558 C   0  0  0  0  0  0  0  0  0  0  0  0
    3.1075   -0.0590    0.6581 N   0  0  0  0  0  0  0  0  0  0  0  0
    2.1276   -0.9896    0.1623 C   0  0  0  0  0  0  0  0  0  0  0  0
    1.1635   -0.2830   -0.7895 C   0  0  0  0  0  0  0  0  0  0  0  0
    4.2824   -0.1357   -0.2274 C   0  0  0  0  0  0  0  0  0  0  0  0
    4.7911   -1.5151   -0.1838 C   0  0  0  0  0  0  0  0  0  0  0  0
    6.2586   -1.6954   -0.1416 C   0  0  0  0  0  0  0  0  0  0  0  0
    7.0026   -0.6194    0.6052 C   0  0  0  0  0  0  0  0  0  0  0  0
    6.6537    0.6835   -0.0859 C   0  0  0  0  0  0  0  0  0  0  0  0
    5.2104    0.9444    0.1825 C   0  0  0  0  0  0  0  0  0  0  0  0
    8.4815   -0.9117    0.5354 C   0  0  0  0  0  0  0  0  0  0  0  0
    8.9096   -0.9352   -0.7584 F   0  0  0  0  0  0  0  0  0  0  0  0
    9.1855    0.0125    1.3099 F   0  0  0  0  0  0  0  0  0  0  0  0
    8.6946   -2.1440    1.1224 F   0  0  0  0  0  0  0  0  0  0  0  0
   -2.7632    0.5769   -0.0820 C   0  0  0  0  0  0  0  0  0  0  0  0
   -4.1496    0.6835   -0.2393 C   0  0  0  0  0  0  0  0  0  0  0  0
   -4.9944   -0.1933    0.3892 C   0  0  0  0  0  0  0  0  0  0  0  0
   -4.4883   -1.0964    1.1117 O   0  0  0  0  0  0  0  0  0  0  0  0
   -6.3414   -0.0663    0.2181 N   0  0  0  0  0  0  0  0  0  0  0  0
   -7.1898   -0.9979    0.8859 C   0  0  0  0  0  0  0  0  0  0  0  0
   -7.4404   -2.2178    0.0020 C   0  0  0  0  0  0  0  0  0  0  0  0
   -6.2523   -2.8709   -0.3166 O   0  0  0  0  0  0  0  0  0  0  0  0
   -8.8149    1.0986    0.2966 H   0  0  0  0  0  0  0  0  0  0  0  0
   -8.5600    1.9786   -1.2058 H   0  0  0  0  0  0  0  0  0  0  0  0
   -8.7907    0.2388   -1.3447 H   0  0  0  0  0  0  0  0  0  0  0  0
   -4.2381    3.3341   -2.2831 H   0  0  0  0  0  0  0  0  0  0  0  0
   -1.8146    3.1299   -1.9942 H   0  0  0  0  0  0  0  0  0  0  0  0
   -0.3876   -0.2092    0.6516 H   0  0  0  0  0  0  0  0  0  0  0  0
    0.7615    2.2342    1.3199 H   0  0  0  0  0  0  0  0  0  0  0  0
    1.1207    0.6797    2.0935 H   0  0  0  0  0  0  0  0  0  0  0  0
    3.1051    1.9513    1.3432 H   0  0  0  0  0  0  0  0  0  0  0  0
    2.6599    1.7213   -0.3565 H   0  0  0  0  0  0  0  0  0  0  0  0
    1.5101   -1.3089    1.0349 H   0  0  0  0  0  0  0  0  0  0  0  0
    2.5370   -1.8848   -0.3022 H   0  0  0  0  0  0  0  0  0  0  0  0
    1.6801    0.3546   -1.5126 H   0  0  0  0  0  0  0  0  0  0  0  0
    0.5393   -1.0259   -1.2998 H   0  0  0  0  0  0  0  0  0  0  0  0
    3.8734    0.1364   -1.2448 H   0  0  0  0  0  0  0  0  0  0  0  0
    4.3504   -2.1053    0.6730 H   0  0  0  0  0  0  0  0  0  0  0  0
    4.4075   -2.0593   -1.0974 H   0  0  0  0  0  0  0  0  0  0  0  0
    6.6801   -1.7331   -1.1680 H   0  0  0  0  0  0  0  0  0  0  0  0
    6.5180   -2.6872    0.3177 H   0  0  0  0  0  0  0  0  0  0  0  0
    6.6233   -0.6251    1.6458 H   0  0  0  0  0  0  0  0  0  0  0  0
    7.2364    1.5364    0.3186 H   0  0  0  0  0  0  0  0  0  0  0  0
    6.8498    0.5202   -1.1699 H   0  0  0  0  0  0  0  0  0  0  0  0
    5.1097    1.1210    1.2936 H   0  0  0  0  0  0  0  0  0  0  0  0
    4.9260    1.9188   -0.3032 H   0  0  0  0  0  0  0  0  0  0  0  0
   -2.3817   -0.2086    0.5430 H   0  0  0  0  0  0  0  0  0  0  0  0
   -8.1827   -0.6225    1.1695 H   0  0  0  0  0  0  0  0  0  0  0  0
   -6.6663   -1.3750    1.7964 H   0  0  0  0  0  0  0  0  0  0  0  0
   -8.0473   -2.9822    0.5703 H   0  0  0  0  0  0  0  0  0  0  0  0
   -8.0438   -1.9845   -0.8876 H   0  0  0  0  0  0  0  0  0  0  0  0
   -5.9957   -3.4811    0.4195 H   0  0  0  0  0  0  0  0  0  0  0  0
  1  2  1  0
  2  3  2  0
  3  4  1  0
  4  5  2  0
  5  6  1  0
  6  7  2  0
  7  8  1  0
  8  9  1  0
  9 10  1  0
 10 11  1  0
 11 12  1  0
 12 13  1  0
 13 14  1  0
 12 15  1  0
 15 16  1  0
 16 17  1  0
 17 18  1  0
 18 19  1  0
 19 20  1  0
 18 21  1  0
 21 22  1  0
 21 23  1  0
 21 24  1  0
  7 25  1  0
 25 26  2  0
 26 27  1  0
 27 28  2  0
 27 29  1  0
 29 30  1  0
 30 31  1  0
 31 32  1  0
 29  2  1  0
 26  4  1  0
 14  9  1  0
 20 15  1  0
  1 33  1  0
  1 34  1  0
  1 35  1  0
  5 36  1  0
  6 37  1  0
  9 38  1  0
 10 39  1  0
 10 40  1  0
 11 41  1  0
 11 42  1  0
 13 43  1  0
 13 44  1  0
 14 45  1  0
 14 46  1  0
 15 47  1  0
 16 48  1  0
 16 49  1  0
 17 50  1  0
 17 51  1  0
 18 52  1  0
 19 53  1  0
 19 54  1  0
 20 55  1  0
 20 56  1  0
 25 57  1  0
 30 58  1  0
 30 59  1  0
 31 60  1  0
 31 61  1  0
 32 62  1  0
M  END
$$$$
[H]OC(=O)c1c([H])c(O[H])c(-c2nc3c([H])c(Cl)c(O[H])c([H])c3o2)c(O[H])c1[H]
     RDKit          3D

 30 32  0  0  0  0  0  0  0  0999 V2000
   -6.0903    1.1024    1.0211 O   0  0  0  0  0  0  0  0  0  0  0  0
   -5.3852   -0.0616    0.7543 C   0  0  0  0  0  0  0  0  0  0  0  0
   -6.0276   -1.1302    0.6846 O   0  0  0  0  0  0  0  0  0  0  0  0
   -3.9248   -0.0631    0.5555 C   0  0  0  0  0  0  0  0  0  0  0  0
   -3.2964   -1.2387    0.2973 C   0  0  0  0  0  0  0  0  0  0  0  0
   -1.8961   -1.2684    0.1026 C   0  0  0  0  0  0  0  0  0  0  0  0
   -1.3896   -2.5082   -0.1485 O   0  0  0  0  0  0  0  0  0  0  0  0
   -1.1522   -0.1158    0.1708 C   0  0  0  0  0  0  0  0  0  0  0  0
    0.2995   -0.1536   -0.0321 C   0  0  0  0  0  0  0  0  0  0  0  0
    1.0943   -1.2017   -0.2940 N   0  0  0  0  0  0  0  0  0  0  0  0
    2.3733   -0.8434   -0.4153 C   0  0  0  0  0  0  0  0  0  0  0  0
    3.5778   -1.4413   -0.6668 C   0  0  0  0  0  0  0  0  0  0  0  0
    4.7698   -0.7544   -0.7279 C   0  0  0  0  0  0  0  0  0  0  0  0
    6.3184   -1.5012   -1.0481 Cl  0  0  0  0  0  0  0  0  0  0  0  0
    4.7507    0.6090   -0.5251 C   0  0  0  0  0  0  0  0  0  0  0  0
    5.9010    1.3926   -0.5663 O   0  0  0  0  0  0  0  0  0  0  0  0
    3.5469    1.2442   -0.2682 C   0  0  0  0  0  0  0  0  0  0  0  0
    2.3625    0.5307   -0.2120 C   0  0  0  0  0  0  0  0  0  0  0  0
    1.1265    0.8784    0.0071 O   0  0  0  0  0  0  0  0  0  0  0  0
   -1.7957    1.0884    0.4352 C   0  0  0  0  0  0  0  0  0  0  0  0
   -1.1905    2.3050    0.5317 O   0  0  0  0  0  0  0  0  0  0  0  0
   -3.1961    1.0944    0.6265 C   0  0  0  0  0  0  0  0  0  0  0  0
   -6.2856    1.7499    0.2744 H   0  0  0  0  0  0  0  0  0  0  0  0
   -3.8896   -2.1406    0.2454 H   0  0  0  0  0  0  0  0  0  0  0  0
   -0.5359   -2.9015   -0.3223 H   0  0  0  0  0  0  0  0  0  0  0  0
    3.6037   -2.5082   -0.8270 H   0  0  0  0  0  0  0  0  0  0  0  0
    6.7817    0.9291   -0.7541 H   0  0  0  0  0  0  0  0  0  0  0  0
    3.5278    2.3147   -0.1083 H   0  0  0  0  0  0  0  0  0  0  0  0
   -0.2733    2.5689    0.4458 H   0  0  0  0  0  0  0  0  0  0  0  0
   -3.7049    2.0240    0.8322 H   0  0  0  0  0  0  0  0  0  0  0  0
  1  2  1  0
  2  3  2  0
  2  4  1  0
  4  5  2  0
  5  6  1  0
  6  7  1  0
  6  8  2  0
  8  9  1  0
  9 10  2  0
 10 11  1  0
 11 12  2  0
 12 13  1  0
 13 14  1  0
 13 15  2  0
 15 16  1  0
 15 17  1  0
 17 18  2  0
 18 19  1  0
  8 20  1  0
 20 21  1  0
 20 22  2  0
 22  4  1  0
 19  9  1  0
 18 11  1  0
  1 23  1  0
  5 24  1  0
  7 25  1  0
 12 26  1  0
 16 27  1  0
 17 28  1  0
 21 29  1  0
 22 30  1  0
M  END
$$$$
[H]N=C(N([H])[H])N([H])C([H])([H])C([H])([H])C([H])([H])[C@@]([H])(C(=O)c1nc2c([H])c([H])c([H])c([H])c2s1)N([H])C(=O)[C@]([H])(N([H])C(=O)[C@@]([H])(N([H])C(=O)[C@@]([H])(N([H])C(=O)[C@@]([H])(N([H])C(=O)C([H])([H])[H])C([H])([H])C([H])([H])C([H])([H])C([H])([H])N([H])[H])C([H])([H])[H])C([H])(C([H])([H])[H])C([H])([H])[H])C([H])([H])C([H])(C([H])([H])[H])C([H])([H])[H]
     RDKit          3D

108109  0  0  0  0  0  0  0  0999 V2000
    1.6218   -2.6370   -2.2043 C   0  0  0  0  0  0  0  0  0  0  0  0
    0.4257   -1.7682   -1.8824 C   0  0  0  0  0  0  0  0  0  0  0  0
   -0.4851   -2.4474   -0.9207 C   0  0  0  0  0  0  0  0  0  0  0  0
    0.9181   -0.4070   -1.4531 C   0  0  2  0  0  0  0  0  0  0  0  0
    1.7685   -0.4951   -0.2721 N   0  0  0  0  0  0  0  0  0  0  0  0
    3.1477   -0.3510   -0.2854 C   0  0  0  0  0  0  0  0  0  0  0  0
    3.6865   -0.1580   -1.4291 O   0  0  0  0  0  0  0  0  0  0  0  0
    4.0064   -0.3944    0.8842 C   0  0  2  0  0  0  0  0  0  0  0  0
    3.7893    0.9206    1.7145 C   0  0  0  0  0  0  0  0  0  0  0  0
    5.4184   -0.2759    0.4821 N   0  0  0  0  0  0  0  0  0  0  0  0
    6.4438   -0.7933    1.3098 C   0  0  0  0  0  0  0  0  0  0  0  0
    6.2012   -1.3456    2.4078 O   0  0  0  0  0  0  0  0  0  0  0  0
    7.8710   -0.6651    0.8419 C   0  0  2  0  0  0  0  0  0  0  0  0
    8.3323   -2.0729    0.4834 C   0  0  0  0  0  0  0  0  0  0  0  0
    7.5215   -2.6808   -0.5822 C   0  0  0  0  0  0  0  0  0  0  0  0
    7.5039   -2.0357   -1.9098 C   0  0  0  0  0  0  0  0  0  0  0  0
    8.8389   -2.0160   -2.5883 C   0  0  0  0  0  0  0  0  0  0  0  0
    9.8083   -1.2646   -1.8781 N   0  0  0  0  0  0  0  0  0  0  0  0
    8.7009   -0.2736    1.9815 N   0  0  0  0  0  0  0  0  0  0  0  0
    9.5176    0.9019    1.9060 C   0  0  0  0  0  0  0  0  0  0  0  0
   10.3658    1.3356    3.0412 C   0  0  0  0  0  0  0  0  0  0  0  0
    9.4878    1.5711    0.8138 O   0  0  0  0  0  0  0  0  0  0  0  0
   -0.1439    0.5162   -1.0971 C   0  0  0  0  0  0  0  0  0  0  0  0
   -0.7306    0.3518   -0.0069 O   0  0  0  0  0  0  0  0  0  0  0  0
   -0.5873    1.6324   -1.8942 N   0  0  0  0  0  0  0  0  0  0  0  0
   -1.6411    2.5046   -1.4970 C   0  0  2  0  0  0  0  0  0  0  0  0
   -1.4050    3.7710   -0.8645 C   0  0  0  0  0  0  0  0  0  0  0  0
   -0.6778    4.0155    0.3708 C   0  0  0  0  0  0  0  0  0  0  0  0
    0.7825    3.5724    0.2755 C   0  0  0  0  0  0  0  0  0  0  0  0
   -1.1975    3.5617    1.6795 C   0  0  0  0  0  0  0  0  0  0  0  0
   -2.8370    1.7229   -1.0969 C   0  0  0  0  0  0  0  0  0  0  0  0
   -2.9736    0.5563   -1.6562 O   0  0  0  0  0  0  0  0  0  0  0  0
   -3.8557    2.0462   -0.2024 N   0  0  0  0  0  0  0  0  0  0  0  0
   -4.9812    1.1329    0.0531 C   0  0  1  0  0  0  0  0  0  0  0  0
   -4.5349    0.2155    1.2235 C   0  0  0  0  0  0  0  0  0  0  0  0
   -5.5424   -0.8057    1.5934 C   0  0  0  0  0  0  0  0  0  0  0  0
   -5.8384   -1.7539    0.4269 C   0  0  0  0  0  0  0  0  0  0  0  0
   -6.8119   -2.7493    0.8289 N   0  0  0  0  0  0  0  0  0  0  0  0
   -6.5098   -3.7713    1.7747 C   0  0  0  0  0  0  0  0  0  0  0  0
   -7.4619   -4.3247    2.6682 N   0  0  0  0  0  0  0  0  0  0  0  0
   -5.2766   -4.2172    1.8085 N   0  0  0  0  0  0  0  0  0  0  0  0
   -6.0912    1.9437    0.5402 C   0  0  0  0  0  0  0  0  0  0  0  0
   -5.8236    2.8594    1.4053 O   0  0  0  0  0  0  0  0  0  0  0  0
   -7.5006    1.8333    0.1461 C   0  0  0  0  0  0  0  0  0  0  0  0
   -8.1216    1.0615   -0.7086 N   0  0  0  0  0  0  0  0  0  0  0  0
   -9.4085    1.1530   -0.8990 C   0  0  0  0  0  0  0  0  0  0  0  0
  -10.1704    0.3766   -1.7984 C   0  0  0  0  0  0  0  0  0  0  0  0
  -11.5183    0.5885   -1.8976 C   0  0  0  0  0  0  0  0  0  0  0  0
  -12.2098    1.5265   -1.1664 C   0  0  0  0  0  0  0  0  0  0  0  0
  -11.4714    2.2817   -0.2919 C   0  0  0  0  0  0  0  0  0  0  0  0
  -10.0829    2.0971   -0.1594 C   0  0  0  0  0  0  0  0  0  0  0  0
   -8.8206    2.7849    0.7551 S   0  0  0  0  0  0  0  0  0  0  0  0
    1.3377   -3.6787   -2.4582 H   0  0  0  0  0  0  0  0  0  0  0  0
    2.3265   -2.7171   -1.3412 H   0  0  0  0  0  0  0  0  0  0  0  0
    2.1136   -2.2447   -3.1298 H   0  0  0  0  0  0  0  0  0  0  0  0
   -0.1304   -1.6176   -2.8308 H   0  0  0  0  0  0  0  0  0  0  0  0
   -1.5618   -2.3886   -1.1688 H   0  0  0  0  0  0  0  0  0  0  0  0
   -0.2382   -3.5298   -0.9437 H   0  0  0  0  0  0  0  0  0  0  0  0
   -0.3697   -2.1322    0.1429 H   0  0  0  0  0  0  0  0  0  0  0  0
    1.5427   -0.0288   -2.2674 H   0  0  0  0  0  0  0  0  0  0  0  0
    1.2787   -0.6750    0.6282 H   0  0  0  0  0  0  0  0  0  0  0  0
    3.9285   -1.1982    1.5933 H   0  0  0  0  0  0  0  0  0  0  0  0
    2.9050    0.8229    2.3404 H   0  0  0  0  0  0  0  0  0  0  0  0
    3.6989    1.7369    0.9739 H   0  0  0  0  0  0  0  0  0  0  0  0
    4.6757    1.0566    2.3612 H   0  0  0  0  0  0  0  0  0  0  0  0
    5.6655    0.1965   -0.4231 H   0  0  0  0  0  0  0  0  0  0  0  0
    7.8997    0.0462    0.0321 H   0  0  0  0  0  0  0  0  0  0  0  0
    9.4078   -2.1481    0.3523 H   0  0  0  0  0  0  0  0  0  0  0  0
    8.1356   -2.6956    1.4258 H   0  0  0  0  0  0  0  0  0  0  0  0
    7.8922   -3.7634   -0.6789 H   0  0  0  0  0  0  0  0  0  0  0  0
    6.4574   -2.7800   -0.1760 H   0  0  0  0  0  0  0  0  0  0  0  0
    6.7459   -2.6010   -2.5445 H   0  0  0  0  0  0  0  0  0  0  0  0
    7.1297   -0.9801   -1.8851 H   0  0  0  0  0  0  0  0  0  0  0  0
    8.7238   -1.6080   -3.6247 H   0  0  0  0  0  0  0  0  0  0  0  0
    9.1845   -3.0873   -2.7326 H   0  0  0  0  0  0  0  0  0  0  0  0
   10.7100   -1.7993   -1.7536 H   0  0  0  0  0  0  0  0  0  0  0  0
   10.0739   -0.3516   -2.2818 H   0  0  0  0  0  0  0  0  0  0  0  0
    8.7073   -0.8390    2.8410 H   0  0  0  0  0  0  0  0  0  0  0  0
   11.2001    0.6317    3.1458 H   0  0  0  0  0  0  0  0  0  0  0  0
    9.7940    1.3793    4.0019 H   0  0  0  0  0  0  0  0  0  0  0  0
   10.7684    2.3557    2.8062 H   0  0  0  0  0  0  0  0  0  0  0  0
   -0.0805    1.7576   -2.7751 H   0  0  0  0  0  0  0  0  0  0  0  0
   -2.0540    2.8185   -2.5860 H   0  0  0  0  0  0  0  0  0  0  0  0
   -0.9235    4.5016   -1.6205 H   0  0  0  0  0  0  0  0  0  0  0  0
   -2.4184    4.2956   -0.7593 H   0  0  0  0  0  0  0  0  0  0  0  0
   -0.5900    5.1519    0.4739 H   0  0  0  0  0  0  0  0  0  0  0  0
    1.4178    4.3567    0.7726 H   0  0  0  0  0  0  0  0  0  0  0  0
    0.8929    2.6780    0.9015 H   0  0  0  0  0  0  0  0  0  0  0  0
    1.1088    3.4415   -0.7624 H   0  0  0  0  0  0  0  0  0  0  0  0
   -0.6545    4.1503    2.4861 H   0  0  0  0  0  0  0  0  0  0  0  0
   -0.8877    2.5174    1.8744 H   0  0  0  0  0  0  0  0  0  0  0  0
   -2.2639    3.7399    1.8753 H   0  0  0  0  0  0  0  0  0  0  0  0
   -3.8592    2.9421    0.3015 H   0  0  0  0  0  0  0  0  0  0  0  0
   -5.2312    0.4694   -0.7353 H   0  0  0  0  0  0  0  0  0  0  0  0
   -3.6343   -0.3231    0.8029 H   0  0  0  0  0  0  0  0  0  0  0  0
   -4.1791    0.8237    2.0581 H   0  0  0  0  0  0  0  0  0  0  0  0
   -6.5041   -0.4017    1.9397 H   0  0  0  0  0  0  0  0  0  0  0  0
   -5.1230   -1.3947    2.4504 H   0  0  0  0  0  0  0  0  0  0  0  0
   -6.2365   -1.2386   -0.4569 H   0  0  0  0  0  0  0  0  0  0  0  0
   -4.8876   -2.2351    0.1008 H   0  0  0  0  0  0  0  0  0  0  0  0
   -7.7844   -2.7569    0.4376 H   0  0  0  0  0  0  0  0  0  0  0  0
   -7.6151   -5.3578    2.6791 H   0  0  0  0  0  0  0  0  0  0  0  0
   -8.0177   -3.7308    3.3185 H   0  0  0  0  0  0  0  0  0  0  0  0
   -5.0154   -4.9743    2.4941 H   0  0  0  0  0  0  0  0  0  0  0  0
   -9.7090   -0.3902   -2.4193 H   0  0  0  0  0  0  0  0  0  0  0  0
  -12.0692   -0.0495   -2.6184 H   0  0  0  0  0  0  0  0  0  0  0  0
  -13.2534    1.6639   -1.2663 H   0  0  0  0  0  0  0  0  0  0  0  0
  -11.8778    3.0522    0.3401 H   0  0  0  0  0  0  0  0  0  0  0  0
  1  2  1  0
  2  3  1  0
  2  4  1  0
  4  5  1  0
  5  6  1  0
  6  7  2  0
  6  8  1  0
  8  9  1  0
  8 10  1  0
 10 11  1  0
 11 12  2  0
 11 13  1  0
 13 14  1  0
 14 15  1  0
 15 16  1  0
 16 17  1  0
 17 18  1  0
 13 19  1  0
 19 20  1  0
 20 21  1  0
 20 22  2  0
  4 23  1  0
 23 24  2  0
 23 25  1  0
 25 26  1  0
 26 27  1  0
 27 28  1  0
 28 29  1  0
 28 30  1  0
 26 31  1  0
 31 32  2  0
 31 33  1  0
 33 34  1  0
 34 35  1  0
 35 36  1  0
 36 37  1  0
 37 38  1  0
 38 39  1  0
 39 40  1  0
 39 41  2  3
 34 42  1  0
 42 43  2  0
 42 44  1  0
 44 45  2  0
 45 46  1  0
 46 47  2  0
 47 48  1  0
 48 49  2  0
 49 50  1  0
 50 51  2  0
 51 52  1  0
 52 44  1  0
 51 46  1  0
  1 53  1  0
  1 54  1  0
  1 55  1  0
  2 56  1  0
  3 57  1  0
  3 58  1  0
  3 59  1  0
  4 60  1  6
  5 61  1  0
  8 62  1  1
  9 63  1  0
  9 64  1  0
  9 65  1  0
 10 66  1  0
 13 67  1  6
 14 68  1  0
 14 69  1  0
 15 70  1  0
 15 71  1  0
 16 72  1  0
 16 73  1  0
 17 74  1  0
 17 75  1  0
 18 76  1  0
 18 77  1  0
 19 78  1  0
 21 79  1  0
 21 80  1  0
 21 81  1  0
 25 82  1  0
 26 83  1  6
 27 84  1  0
 27 85  1  0
 28 86  1  0
 29 87  1  0
 29 88  1  0
 29 89  1  0
 30 90  1  0
 30 91  1  0
 30 92  1  0
 33 93  1  0
 34 94  1  6
 35 95  1  0
 35 96  1  0
 36 97  1  0
 36 98  1  0
 37 99  1  0
 37100  1  0
 38101  1  0
 40102  1  0
 40103  1  0
 41104  1  0
 47105  1  0
 48106  1  0
 49107  1  0
 50108  1  0
M  END
$$$$
[H]c1c([H])c([H])c(C([H])([H])[C@@]([H])(C(=O)N([H])[C@]([H])(C(=O)[C@]2(C([H])([H])[H])OC2([H])[H])C([H])([H])C([H])(C([H])([H])[H])C([H])([H])[H])N([H])C(=O)C([H])([H])N([H])C(=O)[C@@]([H])(N([H])C(=O)[C@@]([H])(N([H])C(=O)N([H])C(=O)C([H])([H])[H])C([H])([H])C([H])(C([H])([H])[H])C([H])([H])[H])C([H])(C([H])([H])[H])C([H])([H])[H])c([H])c1[H]
     RDKit          3D

100101  0  0  0  0  0  0  0  0999 V2000
   -7.9927    2.1644    2.5146 C   0  0  0  0  0  0  0  0  0  0  0  0
   -7.0435    1.1037    2.9948 C   0  0  0  0  0  0  0  0  0  0  0  0
   -5.7266    1.6854    3.4277 C   0  0  0  0  0  0  0  0  0  0  0  0
   -6.9860   -0.1441    2.2060 C   0  0  0  0  0  0  0  0  0  0  0  0
   -6.6103   -0.0950    0.7756 C   0  0  2  0  0  0  0  0  0  0  0  0
   -5.2842    0.4532    0.5617 N   0  0  0  0  0  0  0  0  0  0  0  0
   -4.2354   -0.2049   -0.1107 C   0  0  0  0  0  0  0  0  0  0  0  0
   -4.5611   -1.3544   -0.5810 O   0  0  0  0  0  0  0  0  0  0  0  0
   -2.8713    0.2198   -0.3324 C   0  0  2  0  0  0  0  0  0  0  0  0
   -2.5757    1.6140   -0.6508 C   0  0  0  0  0  0  0  0  0  0  0  0
   -3.1117    2.2544   -1.8357 C   0  0  0  0  0  0  0  0  0  0  0  0
   -4.2444    3.0239   -1.7472 C   0  0  0  0  0  0  0  0  0  0  0  0
   -4.8287    3.6854   -2.8130 C   0  0  0  0  0  0  0  0  0  0  0  0
   -4.2377    3.5690   -4.0571 C   0  0  0  0  0  0  0  0  0  0  0  0
   -3.0922    2.7920   -4.1521 C   0  0  0  0  0  0  0  0  0  0  0  0
   -2.5181    2.1402   -3.0958 C   0  0  0  0  0  0  0  0  0  0  0  0
   -2.1200   -0.7037   -1.1754 N   0  0  0  0  0  0  0  0  0  0  0  0
   -0.9512   -1.3057   -0.7159 C   0  0  0  0  0  0  0  0  0  0  0  0
   -0.5388   -1.0445    0.4420 O   0  0  0  0  0  0  0  0  0  0  0  0
   -0.2025   -2.2400   -1.5744 C   0  0  0  0  0  0  0  0  0  0  0  0
    0.9757   -2.7028   -0.8942 N   0  0  0  0  0  0  0  0  0  0  0  0
    2.0147   -1.8492   -0.5172 C   0  0  0  0  0  0  0  0  0  0  0  0
    1.9445   -0.6093   -0.7915 O   0  0  0  0  0  0  0  0  0  0  0  0
    3.2026   -2.3650    0.1974 C   0  0  1  0  0  0  0  0  0  0  0  0
    4.2037   -1.2868    0.3538 N   0  0  0  0  0  0  0  0  0  0  0  0
    5.5244   -1.5664   -0.0598 C   0  0  0  0  0  0  0  0  0  0  0  0
    5.8309   -2.6695   -0.5397 O   0  0  0  0  0  0  0  0  0  0  0  0
    6.5641   -0.4714    0.1036 C   0  0  2  0  0  0  0  0  0  0  0  0
    6.0878    0.6786   -0.6994 C   0  0  0  0  0  0  0  0  0  0  0  0
    6.9055    1.9160   -0.7000 C   0  0  0  0  0  0  0  0  0  0  0  0
    8.3010    1.7900   -1.2183 C   0  0  0  0  0  0  0  0  0  0  0  0
    6.9756    2.5511    0.6900 C   0  0  0  0  0  0  0  0  0  0  0  0
    7.8357   -1.0199   -0.3769 N   0  0  0  0  0  0  0  0  0  0  0  0
    8.8972   -1.2136    0.5272 C   0  0  0  0  0  0  0  0  0  0  0  0
    8.6731   -0.8830    1.7481 O   0  0  0  0  0  0  0  0  0  0  0  0
   10.1735   -1.7301    0.2343 N   0  0  0  0  0  0  0  0  0  0  0  0
   10.6335   -2.1614   -1.0197 C   0  0  0  0  0  0  0  0  0  0  0  0
   12.0134   -2.7030   -1.1588 C   0  0  0  0  0  0  0  0  0  0  0  0
    9.9354   -2.1139   -2.0382 O   0  0  0  0  0  0  0  0  0  0  0  0
    2.9046   -2.7614    1.6426 C   0  0  0  0  0  0  0  0  0  0  0  0
    1.8828   -3.8263    1.7869 C   0  0  0  0  0  0  0  0  0  0  0  0
    2.5025   -1.5060    2.3837 C   0  0  0  0  0  0  0  0  0  0  0  0
   -7.5532    0.3574   -0.2130 C   0  0  0  0  0  0  0  0  0  0  0  0
   -7.0865    1.1509   -1.0668 O   0  0  0  0  0  0  0  0  0  0  0  0
   -8.9648    0.1021   -0.4652 C   0  0  1  0  0  0  0  0  0  0  0  0
   -9.6508   -0.8312    0.5079 C   0  0  0  0  0  0  0  0  0  0  0  0
   -9.7801    1.3304   -0.8045 C   0  0  0  0  0  0  0  0  0  0  0  0
   -9.5489    0.3150   -1.6971 O   0  0  0  0  0  0  0  0  0  0  0  0
   -8.1177    2.8865    3.3614 H   0  0  0  0  0  0  0  0  0  0  0  0
   -7.5988    2.7728    1.6799 H   0  0  0  0  0  0  0  0  0  0  0  0
   -8.9822    1.7684    2.2875 H   0  0  0  0  0  0  0  0  0  0  0  0
   -7.5188    0.7784    3.9912 H   0  0  0  0  0  0  0  0  0  0  0  0
   -4.8830    0.9699    3.2982 H   0  0  0  0  0  0  0  0  0  0  0  0
   -5.7172    1.9580    4.5135 H   0  0  0  0  0  0  0  0  0  0  0  0
   -5.5019    2.6604    2.9139 H   0  0  0  0  0  0  0  0  0  0  0  0
   -6.1354   -0.7324    2.7210 H   0  0  0  0  0  0  0  0  0  0  0  0
   -7.8456   -0.7712    2.4189 H   0  0  0  0  0  0  0  0  0  0  0  0
   -6.4499   -1.2039    0.4893 H   0  0  0  0  0  0  0  0  0  0  0  0
   -5.0842    1.4060    0.9199 H   0  0  0  0  0  0  0  0  0  0  0  0
   -2.3422    0.0626    0.7039 H   0  0  0  0  0  0  0  0  0  0  0  0
   -2.8873    2.2514    0.2353 H   0  0  0  0  0  0  0  0  0  0  0  0
   -1.4581    1.7744   -0.6769 H   0  0  0  0  0  0  0  0  0  0  0  0
   -4.7723    3.1648   -0.7894 H   0  0  0  0  0  0  0  0  0  0  0  0
   -5.7162    4.2854   -2.7299 H   0  0  0  0  0  0  0  0  0  0  0  0
   -4.6848    4.0829   -4.9007 H   0  0  0  0  0  0  0  0  0  0  0  0
   -2.6633    2.7347   -5.1711 H   0  0  0  0  0  0  0  0  0  0  0  0
   -1.6406    1.5533   -3.2016 H   0  0  0  0  0  0  0  0  0  0  0  0
   -2.4949   -0.8925   -2.1358 H   0  0  0  0  0  0  0  0  0  0  0  0
   -0.8658   -3.0979   -1.8654 H   0  0  0  0  0  0  0  0  0  0  0  0
    0.0749   -1.7339   -2.5409 H   0  0  0  0  0  0  0  0  0  0  0  0
    1.0359   -3.7208   -0.6961 H   0  0  0  0  0  0  0  0  0  0  0  0
    3.6679   -3.2373   -0.2832 H   0  0  0  0  0  0  0  0  0  0  0  0
    3.9019   -0.3851    0.7529 H   0  0  0  0  0  0  0  0  0  0  0  0
    6.6033   -0.2692    1.1844 H   0  0  0  0  0  0  0  0  0  0  0  0
    5.0471    0.9424   -0.3961 H   0  0  0  0  0  0  0  0  0  0  0  0
    6.0009    0.3457   -1.7798 H   0  0  0  0  0  0  0  0  0  0  0  0
    6.3511    2.6750   -1.3157 H   0  0  0  0  0  0  0  0  0  0  0  0
    8.5144    2.7255   -1.8216 H   0  0  0  0  0  0  0  0  0  0  0  0
    8.3915    0.9678   -1.9467 H   0  0  0  0  0  0  0  0  0  0  0  0
    9.0724    1.7176   -0.4002 H   0  0  0  0  0  0  0  0  0  0  0  0
    7.8693    3.2029    0.6951 H   0  0  0  0  0  0  0  0  0  0  0  0
    6.0904    3.1681    0.8620 H   0  0  0  0  0  0  0  0  0  0  0  0
    7.1263    1.7702    1.4631 H   0  0  0  0  0  0  0  0  0  0  0  0
    7.8608   -1.2449   -1.3855 H   0  0  0  0  0  0  0  0  0  0  0  0
   10.8568   -1.8018    1.0730 H   0  0  0  0  0  0  0  0  0  0  0  0
   11.9326   -3.7901   -0.8921 H   0  0  0  0  0  0  0  0  0  0  0  0
   12.7343   -2.2032   -0.4891 H   0  0  0  0  0  0  0  0  0  0  0  0
   12.3490   -2.6990   -2.2206 H   0  0  0  0  0  0  0  0  0  0  0  0
    3.8887   -3.1503    2.0254 H   0  0  0  0  0  0  0  0  0  0  0  0
    2.0602   -4.7251    1.1949 H   0  0  0  0  0  0  0  0  0  0  0  0
    0.8538   -3.3942    1.6618 H   0  0  0  0  0  0  0  0  0  0  0  0
    1.9127   -4.1734    2.8628 H   0  0  0  0  0  0  0  0  0  0  0  0
    3.3991   -1.0366    2.8558 H   0  0  0  0  0  0  0  0  0  0  0  0
    2.1094   -0.7890    1.6496 H   0  0  0  0  0  0  0  0  0  0  0  0
    1.7680   -1.7187    3.1880 H   0  0  0  0  0  0  0  0  0  0  0  0
   -9.9214   -0.2495    1.4171 H   0  0  0  0  0  0  0  0  0  0  0  0
  -10.6603   -1.0818    0.0532 H   0  0  0  0  0  0  0  0  0  0  0  0
   -9.1252   -1.7679    0.6858 H   0  0  0  0  0  0  0  0  0  0  0  0
   -9.2476    2.2786   -1.0590 H   0  0  0  0  0  0  0  0  0  0  0  0
  -10.8235    1.4314   -0.4577 H   0  0  0  0  0  0  0  0  0  0  0  0
  1  2  1  0
  2  3  1  0
  2  4  1  0
  4  5  1  0
  5  6  1  0
  6  7  1  0
  7  8  2  0
  7  9  1  0
  9 10  1  0
 10 11  1  0
 11 12  2  0
 12 13  1  0
 13 14  2  0
 14 15  1  0
 15 16  2  0
  9 17  1  0
 17 18  1  0
 18 19  2  0
 18 20  1  0
 20 21  1  0
 21 22  1  0
 22 23  2  0
 22 24  1  0
 24 25  1  0
 25 26  1  0
 26 27  2  0
 26 28  1  0
 28 29  1  0
 29 30  1  0
 30 31  1  0
 30 32  1  0
 28 33  1  0
 33 34  1  0
 34 35  2  0
 34 36  1  0
 36 37  1  0
 37 38  1  0
 37 39  2  0
 24 40  1  0
 40 41  1  0
 40 42  1  0
  5 43  1  0
 43 44  2  0
 45 43  1  6
 45 46  1  0
 45 47  1  0
 47 48  1  0
 16 11  1  0
 48 45  1  0
  1 49  1  0
  1 50  1  0
  1 51  1  0
  2 52  1  0
  3 53  1  0
  3 54  1  0
  3 55  1  0
  4 56  1  0
  4 57  1  0
  5 58  1  6
  6 59  1  0
  9 60  1  1
 10 61  1  0
 10 62  1  0
 12 63  1  0
 13 64  1  0
 14 65  1  0
 15 66  1  0
 16 67  1  0
 17 68  1  0
 20 69  1  0
 20 70  1  0
 21 71  1  0
 24 72  1  6
 25 73  1  0
 28 74  1  1
 29 75  1  0
 29 76  1  0
 30 77  1  0
 31 78  1  0
 31 79  1  0
 31 80  1  0
 32 81  1  0
 32 82  1  0
 32 83  1  0
 33 84  1  0
 36 85  1  0
 38 86  1  0
 38 87  1  0
 38 88  1  0
 40 89  1  0
 41 90  1  0
 41 91  1  0
 41 92  1  0
 42 93  1  0
 42 94  1  0
 42 95  1  0
 46 96  1  0
 46 97  1  0
 46 98  1  0
 47 99  1  0
 47100  1  0
M  END
$$$$
[H]c1c([H])c([H])c(/C(=C2/C(=O)N([H])c3c([H])c(C(=O)OC([H])([H])[H])c([H])c([H])c32)N([H])c2c([H])c([H])c(N(C(=O)C([H])([H])N3C([H])([H])C([H])([H])N(C([H])([H])[H])C([H])([H])C3([H])[H])C([H])([H])[H])c([H])c2[H])c([H])c1[H]
     RDKit          3D

 73 77  0  0  0  0  0  0  0  0999 V2000
   -9.6259    2.7362   -3.1505 C   0  0  0  0  0  0  0  0  0  0  0  0
   -8.5822    2.1423   -2.4234 O   0  0  0  0  0  0  0  0  0  0  0  0
   -7.8814    1.0256   -2.8716 C   0  0  0  0  0  0  0  0  0  0  0  0
   -8.1814    0.5157   -3.9683 O   0  0  0  0  0  0  0  0  0  0  0  0
   -6.8215    0.5153   -2.0123 C   0  0  0  0  0  0  0  0  0  0  0  0
   -6.4947    1.0717   -0.8140 C   0  0  0  0  0  0  0  0  0  0  0  0
   -5.4728    0.5613   -0.0049 C   0  0  0  0  0  0  0  0  0  0  0  0
   -4.7972   -0.5386   -0.4611 C   0  0  0  0  0  0  0  0  0  0  0  0
   -3.6924   -1.2784    0.1218 C   0  0  0  0  0  0  0  0  0  0  0  0
   -3.1406   -1.1461    1.2984 C   0  0  0  0  0  0  0  0  0  0  0  0
   -2.0489   -2.0001    1.6122 N   0  0  0  0  0  0  0  0  0  0  0  0
   -0.6955   -1.7404    1.2757 C   0  0  0  0  0  0  0  0  0  0  0  0
   -0.3049   -0.6232    0.5755 C   0  0  0  0  0  0  0  0  0  0  0  0
    1.0409   -0.3967    0.2619 C   0  0  0  0  0  0  0  0  0  0  0  0
    1.9996   -1.2983    0.6546 C   0  0  0  0  0  0  0  0  0  0  0  0
    1.6109   -2.4148    1.3542 C   0  0  0  0  0  0  0  0  0  0  0  0
    0.2717   -2.6400    1.6660 C   0  0  0  0  0  0  0  0  0  0  0  0
    3.3997   -1.0553    0.3267 N   0  0  0  0  0  0  0  0  0  0  0  0
    4.2743   -1.0443    1.4779 C   0  0  0  0  0  0  0  0  0  0  0  0
    3.8217   -0.9048   -0.9850 C   0  0  0  0  0  0  0  0  0  0  0  0
    2.8737   -1.1517   -1.8665 O   0  0  0  0  0  0  0  0  0  0  0  0
    5.0990   -0.5334   -1.5790 C   0  0  0  0  0  0  0  0  0  0  0  0
    6.1819   -0.1535   -0.7808 N   0  0  0  0  0  0  0  0  0  0  0  0
    6.1479    1.1188   -0.1443 C   0  0  0  0  0  0  0  0  0  0  0  0
    7.0593    2.1225   -0.8152 C   0  0  0  0  0  0  0  0  0  0  0  0
    8.4000    1.6684   -0.9414 N   0  0  0  0  0  0  0  0  0  0  0  0
    9.2089    2.3796   -1.8600 C   0  0  0  0  0  0  0  0  0  0  0  0
    8.6125    0.2731   -0.8355 C   0  0  0  0  0  0  0  0  0  0  0  0
    7.4754   -0.6243   -1.1164 C   0  0  0  0  0  0  0  0  0  0  0  0
   -3.6419   -0.3131    2.3473 C   0  0  0  0  0  0  0  0  0  0  0  0
   -3.0180    0.7830    2.8957 C   0  0  0  0  0  0  0  0  0  0  0  0
   -3.5184    1.4571    3.9801 C   0  0  0  0  0  0  0  0  0  0  0  0
   -4.6869    1.0413    4.5595 C   0  0  0  0  0  0  0  0  0  0  0  0
   -5.3502   -0.0483    4.0505 C   0  0  0  0  0  0  0  0  0  0  0  0
   -4.8397   -0.7104    2.9694 C   0  0  0  0  0  0  0  0  0  0  0  0
   -3.3759   -2.3505   -0.8690 C   0  0  0  0  0  0  0  0  0  0  0  0
   -2.4929   -3.2072   -0.7677 O   0  0  0  0  0  0  0  0  0  0  0  0
   -4.2699   -2.2220   -1.9626 N   0  0  0  0  0  0  0  0  0  0  0  0
   -5.1182   -1.1186   -1.6868 C   0  0  0  0  0  0  0  0  0  0  0  0
   -6.1305   -0.5894   -2.4585 C   0  0  0  0  0  0  0  0  0  0  0  0
   -9.4840    3.8397   -3.1260 H   0  0  0  0  0  0  0  0  0  0  0  0
  -10.6287    2.4400   -2.7994 H   0  0  0  0  0  0  0  0  0  0  0  0
   -9.5092    2.4513   -4.2231 H   0  0  0  0  0  0  0  0  0  0  0  0
   -7.0554    1.9338   -0.4979 H   0  0  0  0  0  0  0  0  0  0  0  0
   -5.2980    1.1170    0.8877 H   0  0  0  0  0  0  0  0  0  0  0  0
   -2.3225   -2.8839    2.1371 H   0  0  0  0  0  0  0  0  0  0  0  0
   -1.0852    0.0650    0.2820 H   0  0  0  0  0  0  0  0  0  0  0  0
    1.2956    0.4918   -0.2875 H   0  0  0  0  0  0  0  0  0  0  0  0
    2.3988   -3.1019    1.6458 H   0  0  0  0  0  0  0  0  0  0  0  0
   -0.0090   -3.5256    2.2172 H   0  0  0  0  0  0  0  0  0  0  0  0
    4.3098   -0.0784    2.0033 H   0  0  0  0  0  0  0  0  0  0  0  0
    5.2439   -1.4894    1.2146 H   0  0  0  0  0  0  0  0  0  0  0  0
    3.8678   -1.7578    2.2758 H   0  0  0  0  0  0  0  0  0  0  0  0
    4.9292    0.2743   -2.3603 H   0  0  0  0  0  0  0  0  0  0  0  0
    5.4335   -1.4380   -2.1821 H   0  0  0  0  0  0  0  0  0  0  0  0
    6.5430    1.0192    0.8973 H   0  0  0  0  0  0  0  0  0  0  0  0
    5.1051    1.4958   -0.1442 H   0  0  0  0  0  0  0  0  0  0  0  0
    7.0209    3.0816   -0.2641 H   0  0  0  0  0  0  0  0  0  0  0  0
    6.6418    2.3090   -1.8254 H   0  0  0  0  0  0  0  0  0  0  0  0
    9.5515    1.7468   -2.6801 H   0  0  0  0  0  0  0  0  0  0  0  0
    8.6875    3.2979   -2.1848 H   0  0  0  0  0  0  0  0  0  0  0  0
   10.1414    2.7025   -1.3095 H   0  0  0  0  0  0  0  0  0  0  0  0
    9.4640   -0.0087   -1.5031 H   0  0  0  0  0  0  0  0  0  0  0  0
    8.9967    0.0613    0.2048 H   0  0  0  0  0  0  0  0  0  0  0  0
    7.6214   -1.6038   -0.5691 H   0  0  0  0  0  0  0  0  0  0  0  0
    7.4535   -0.9472   -2.2000 H   0  0  0  0  0  0  0  0  0  0  0  0
   -2.1060    1.1196    2.4536 H   0  0  0  0  0  0  0  0  0  0  0  0
   -3.0267    2.3165    4.4077 H   0  0  0  0  0  0  0  0  0  0  0  0
   -5.1025    1.5578    5.4176 H   0  0  0  0  0  0  0  0  0  0  0  0
   -6.2843   -0.3557    4.5382 H   0  0  0  0  0  0  0  0  0  0  0  0
   -5.4043   -1.5664    2.6063 H   0  0  0  0  0  0  0  0  0  0  0  0
   -4.3057   -2.8330   -2.8311 H   0  0  0  0  0  0  0  0  0  0  0  0
   -6.3795   -1.0398   -3.4080 H   0  0  0  0  0  0  0  0  0  0  0  0
  1  2  1  0
  2  3  1  0
  3  4  2  0
  3  5  1  0
  5  6  2  0
  6  7  1  0
  7  8  2  0
  8  9  1  0
  9 10  2  0
 10 11  1  0
 11 12  1  0
 12 13  2  0
 13 14  1  0
 14 15  2  0
 15 16  1  0
 16 17  2  0
 15 18  1  0
 18 19  1  0
 18 20  1  0
 20 21  2  0
 20 22  1  0
 22 23  1  0
 23 24  1  0
 24 25  1  0
 25 26  1  0
 26 27  1  0
 26 28  1  0
 28 29  1  0
 10 30  1  0
 30 31  2  0
 31 32  1  0
 32 33  2  0
 33 34  1  0
 34 35  2  0
  9 36  1  0
 36 37  2  0
 36 38  1  0
 38 39  1  0
 39 40  2  0
 40  5  1  0
 39  8  1  0
 17 12  1  0
 29 23  1  0
 35 30  1  0
  1 41  1  0
  1 42  1  0
  1 43  1  0
  6 44  1  0
  7 45  1  0
 11 46  1  0
 13 47  1  0
 14 48  1  0
 16 49  1  0
 17 50  1  0
 19 51  1  0
 19 52  1  0
 19 53  1  0
 22 54  1  0
 22 55  1  0
 24 56  1  0
 24 57  1  0
 25 58  1  0
 25 59  1  0
 27 60  1  0
 27 61  1  0
 27 62  1  0
 28 63  1  0
 28 64  1  0
 29 65  1  0
 29 66  1  0
 31 67  1  0
 32 68  1  0
 33 69  1  0
 34 70  1  0
 35 71  1  0
 38 72  1  0
 40 73  1  0
M  END
$$$$
[H]OC(=O)c1c([H])c([H])c2c(c1[H])c([H])c([H])n2S(=O)(=O)c1c([H])nc(-c2c([H])c([H])c([H])c([H])c2C(=O)OC([H])([H])[H])c([H])c1[H]
     RDKit          3D

 47 50  0  0  0  0  0  0  0  0999 V2000
   -3.1943    1.5942   -2.2921 C   0  0  0  0  0  0  0  0  0  0  0  0
   -3.1109    0.5492   -1.3256 O   0  0  0  0  0  0  0  0  0  0  0  0
   -4.0300   -0.4398   -1.1871 C   0  0  0  0  0  0  0  0  0  0  0  0
   -5.0011   -0.3177   -2.0459 O   0  0  0  0  0  0  0  0  0  0  0  0
   -4.1179   -1.5677   -0.2945 C   0  0  0  0  0  0  0  0  0  0  0  0
   -5.1230   -2.5433   -0.5809 C   0  0  0  0  0  0  0  0  0  0  0  0
   -5.2413   -3.7024    0.1184 C   0  0  0  0  0  0  0  0  0  0  0  0
   -4.3601   -3.9486    1.1432 C   0  0  0  0  0  0  0  0  0  0  0  0
   -3.3955   -3.0401    1.4413 C   0  0  0  0  0  0  0  0  0  0  0  0
   -3.2558   -1.8143    0.7182 C   0  0  0  0  0  0  0  0  0  0  0  0
   -2.1788   -0.9422    1.1467 C   0  0  0  0  0  0  0  0  0  0  0  0
   -0.9912   -1.5222    1.6574 C   0  0  0  0  0  0  0  0  0  0  0  0
    0.0751   -0.7603    2.0742 C   0  0  0  0  0  0  0  0  0  0  0  0
    0.0602    0.6094    2.0227 C   0  0  0  0  0  0  0  0  0  0  0  0
   -1.1159    1.1564    1.5165 C   0  0  0  0  0  0  0  0  0  0  0  0
   -2.1391    0.3782    1.1182 N   0  0  0  0  0  0  0  0  0  0  0  0
    1.3761    1.6346    2.5347 S   0  0  0  0  0  0  0  0  0  0  0  0
    2.2150    0.9473    3.5898 O   0  0  0  0  0  0  0  0  0  0  0  0
    0.7942    2.8471    3.2360 O   0  0  0  0  0  0  0  0  0  0  0  0
    2.3088    2.1536    1.2156 N   0  0  0  0  0  0  0  0  0  0  0  0
    2.4192    3.4415    0.8331 C   0  0  0  0  0  0  0  0  0  0  0  0
    3.2115    3.5545   -0.2852 C   0  0  0  0  0  0  0  0  0  0  0  0
    3.5928    2.2745   -0.5845 C   0  0  0  0  0  0  0  0  0  0  0  0
    4.4104    1.8153   -1.6230 C   0  0  0  0  0  0  0  0  0  0  0  0
    4.6698    0.4685   -1.7264 C   0  0  0  0  0  0  0  0  0  0  0  0
    4.1105   -0.3578   -0.8007 C   0  0  0  0  0  0  0  0  0  0  0  0
    3.2993    0.0814    0.2324 C   0  0  0  0  0  0  0  0  0  0  0  0
    3.0301    1.4346    0.3461 C   0  0  0  0  0  0  0  0  0  0  0  0
    5.5211   -0.0275   -2.8048 C   0  0  0  0  0  0  0  0  0  0  0  0
    5.8120   -1.3630   -2.9538 O   0  0  0  0  0  0  0  0  0  0  0  0
    6.0151    0.7735   -3.6358 O   0  0  0  0  0  0  0  0  0  0  0  0
   -2.5706    1.3384   -3.1704 H   0  0  0  0  0  0  0  0  0  0  0  0
   -4.2388    1.7159   -2.6627 H   0  0  0  0  0  0  0  0  0  0  0  0
   -2.8866    2.5578   -1.8708 H   0  0  0  0  0  0  0  0  0  0  0  0
   -5.8118   -2.3239   -1.4001 H   0  0  0  0  0  0  0  0  0  0  0  0
   -6.0236   -4.4384   -0.1214 H   0  0  0  0  0  0  0  0  0  0  0  0
   -4.4551   -4.8739    1.6983 H   0  0  0  0  0  0  0  0  0  0  0  0
   -2.6917   -3.1950    2.2544 H   0  0  0  0  0  0  0  0  0  0  0  0
   -0.9540   -2.5928    1.6924 H   0  0  0  0  0  0  0  0  0  0  0  0
    0.9849   -1.2210    2.4667 H   0  0  0  0  0  0  0  0  0  0  0  0
   -1.1638    2.2447    1.4602 H   0  0  0  0  0  0  0  0  0  0  0  0
    1.9476    4.3060    1.3327 H   0  0  0  0  0  0  0  0  0  0  0  0
    3.5015    4.4373   -0.8453 H   0  0  0  0  0  0  0  0  0  0  0  0
    4.8443    2.4939   -2.3477 H   0  0  0  0  0  0  0  0  0  0  0  0
    4.3108   -1.4176   -0.8760 H   0  0  0  0  0  0  0  0  0  0  0  0
    2.8839   -0.5807    0.9500 H   0  0  0  0  0  0  0  0  0  0  0  0
    6.6568   -1.8179   -2.6385 H   0  0  0  0  0  0  0  0  0  0  0  0
  1  2  1  0
  2  3  1  0
  3  4  2  0
  3  5  1  0
  5  6  2  0
  6  7  1  0
  7  8  2  0
  8  9  1  0
  9 10  2  0
 10 11  1  0
 11 12  2  0
 12 13  1  0
 13 14  2  0
 14 15  1  0
 15 16  2  0
 14 17  1  0
 17 18  2  0
 17 19  2  0
 17 20  1  0
 20 21  1  0
 21 22  2  0
 22 23  1  0
 23 24  2  0
 24 25  1  0
 25 26  2  0
 26 27  1  0
 27 28  2  0
 25 29  1  0
 29 30  1  0
 29 31  2  0
 10  5  1  0
 16 11  1  0
 28 20  1  0
 28 23  1  0
  1 32  1  0
  1 33  1  0
  1 34  1  0
  6 35  1  0
  7 36  1  0
  8 37  1  0
  9 38  1  0
 12 39  1  0
 13 40  1  0
 15 41  1  0
 21 42  1  0
 22 43  1  0
 24 44  1  0
 26 45  1  0
 27 46  1  0
 30 47  1  0
M  END
$$$$
[H]c1nc([H])c([H])c(-c2c([H])c([H])c(N([H])c3nn([H])c4c([H])c(-c5c([H])c([H])c(OC([H])([H])[H])c(OC([H])([H])[H])c5[H])c([H])c([H])c34)c([H])c2[H])c1[H]
     RDKit          3D

 54 58  0  0  0  0  0  0  0  0999 V2000
   -9.1240    2.2479    0.6071 C   0  0  0  0  0  0  0  0  0  0  0  0
   -8.5946    0.9872    0.1667 O   0  0  0  0  0  0  0  0  0  0  0  0
   -7.2218    0.8028    0.1365 C   0  0  0  0  0  0  0  0  0  0  0  0
   -6.3704    1.8223    0.5283 C   0  0  0  0  0  0  0  0  0  0  0  0
   -5.0221    1.6627    0.5063 C   0  0  0  0  0  0  0  0  0  0  0  0
   -4.4739    0.4771    0.0916 C   0  0  0  0  0  0  0  0  0  0  0  0
   -5.3098   -0.5431   -0.2999 C   0  0  0  0  0  0  0  0  0  0  0  0
   -6.6828   -0.3902   -0.2810 C   0  0  0  0  0  0  0  0  0  0  0  0
   -7.5628   -1.3903   -0.6663 O   0  0  0  0  0  0  0  0  0  0  0  0
   -7.0738   -2.6299   -1.1020 C   0  0  0  0  0  0  0  0  0  0  0  0
   -3.0130    0.3627    0.0882 C   0  0  0  0  0  0  0  0  0  0  0  0
   -2.3464   -0.4257   -0.8235 C   0  0  0  0  0  0  0  0  0  0  0  0
   -0.9744   -0.5386   -0.8351 C   0  0  0  0  0  0  0  0  0  0  0  0
   -0.2165    0.1473    0.0826 C   0  0  0  0  0  0  0  0  0  0  0  0
    1.1800    0.2148    0.2957 C   0  0  0  0  0  0  0  0  0  0  0  0
    2.1282   -0.4829   -0.4649 N   0  0  0  0  0  0  0  0  0  0  0  0
    3.5217   -0.4389   -0.2970 C   0  0  0  0  0  0  0  0  0  0  0  0
    4.3317   -1.3542   -1.0067 C   0  0  0  0  0  0  0  0  0  0  0  0
    5.6817   -1.3728   -0.9120 C   0  0  0  0  0  0  0  0  0  0  0  0
    6.3529   -0.4822   -0.1019 C   0  0  0  0  0  0  0  0  0  0  0  0
    5.5862    0.4156    0.5965 C   0  0  0  0  0  0  0  0  0  0  0  0
    4.1887    0.4479    0.5091 C   0  0  0  0  0  0  0  0  0  0  0  0
    7.8017   -0.5244   -0.0199 C   0  0  0  0  0  0  0  0  0  0  0  0
    8.5459    0.6164    0.2091 C   0  0  0  0  0  0  0  0  0  0  0  0
    9.9200    0.6130    0.2924 C   0  0  0  0  0  0  0  0  0  0  0  0
   10.5450   -0.5732    0.1397 N   0  0  0  0  0  0  0  0  0  0  0  0
    9.8689   -1.7123   -0.0849 C   0  0  0  0  0  0  0  0  0  0  0  0
    8.5080   -1.7079   -0.1672 C   0  0  0  0  0  0  0  0  0  0  0  0
    1.2773    1.0493    1.3353 N   0  0  0  0  0  0  0  0  0  0  0  0
    0.1091    1.4796    1.7583 N   0  0  0  0  0  0  0  0  0  0  0  0
   -0.8725    0.9331    0.9923 C   0  0  0  0  0  0  0  0  0  0  0  0
   -2.2512    1.0494    1.0076 C   0  0  0  0  0  0  0  0  0  0  0  0
   -8.6526    3.0307   -0.0322 H   0  0  0  0  0  0  0  0  0  0  0  0
   -8.8396    2.4580    1.6535 H   0  0  0  0  0  0  0  0  0  0  0  0
  -10.2175    2.2763    0.4716 H   0  0  0  0  0  0  0  0  0  0  0  0
   -6.8008    2.7413    0.8496 H   0  0  0  0  0  0  0  0  0  0  0  0
   -4.3769    2.4708    0.8160 H   0  0  0  0  0  0  0  0  0  0  0  0
   -4.9074   -1.4751   -0.6265 H   0  0  0  0  0  0  0  0  0  0  0  0
   -7.9155   -3.3582   -1.1435 H   0  0  0  0  0  0  0  0  0  0  0  0
   -6.6812   -2.5072   -2.1364 H   0  0  0  0  0  0  0  0  0  0  0  0
   -6.2862   -2.9583   -0.3832 H   0  0  0  0  0  0  0  0  0  0  0  0
   -2.9278   -0.9712   -1.5516 H   0  0  0  0  0  0  0  0  0  0  0  0
   -0.4414   -1.1583   -1.5513 H   0  0  0  0  0  0  0  0  0  0  0  0
    1.7573   -1.1022   -1.2444 H   0  0  0  0  0  0  0  0  0  0  0  0
    3.8087   -2.0645   -1.6510 H   0  0  0  0  0  0  0  0  0  0  0  0
    6.2431   -2.1014   -1.4837 H   0  0  0  0  0  0  0  0  0  0  0  0
    6.0867    1.1235    1.2379 H   0  0  0  0  0  0  0  0  0  0  0  0
    3.6590    1.1990    1.0924 H   0  0  0  0  0  0  0  0  0  0  0  0
    8.0441    1.5661    0.3313 H   0  0  0  0  0  0  0  0  0  0  0  0
   10.4587    1.5403    0.4745 H   0  0  0  0  0  0  0  0  0  0  0  0
   10.4017   -2.6662   -0.2055 H   0  0  0  0  0  0  0  0  0  0  0  0
    7.9687   -2.6383   -0.3501 H   0  0  0  0  0  0  0  0  0  0  0  0
   -0.0951    2.1384    2.5528 H   0  0  0  0  0  0  0  0  0  0  0  0
   -2.7233    1.6939    1.7600 H   0  0  0  0  0  0  0  0  0  0  0  0
  1  2  1  0
  2  3  1  0
  3  4  2  0
  4  5  1  0
  5  6  2  0
  6  7  1  0
  7  8  2  0
  8  9  1  0
  9 10  1  0
  6 11  1  0
 11 12  2  0
 12 13  1  0
 13 14  2  0
 14 15  1  0
 15 16  1  0
 16 17  1  0
 17 18  2  0
 18 19  1  0
 19 20  2  0
 20 21  1  0
 21 22  2  0
 20 23  1  0
 23 24  2  0
 24 25  1  0
 25 26  2  0
 26 27  1  0
 27 28  2  0
 15 29  2  0
 29 30  1  0
 30 31  1  0
 31 32  2  0
  8  3  1  0
 32 11  1  0
 31 14  1  0
 22 17  1  0
 28 23  1  0
  1 33  1  0
  1 34  1  0
  1 35  1  0
  4 36  1  0
  5 37  1  0
  7 38  1  0
 10 39  1  0
 10 40  1  0
 10 41  1  0
 12 42  1  0
 13 43  1  0
 16 44  1  0
 18 45  1  0
 19 46  1  0
 21 47  1  0
 22 48  1  0
 24 49  1  0
 25 50  1  0
 27 51  1  0
 28 52  1  0
 30 53  1  0
 32 54  1  0
M  END
$$$$
[H]c1c([H])c([H])c(C([H])([H])OC(=O)C([H])(c2c([H])c([H])c(S(=O)(=O)C([H])([H])[H])c([H])c2[H])c2c([H])c([H])c(OC([H])([H])[H])c(OC3([H])C([H])([H])C([H])([H])C([H])([H])C3([H])[H])c2[H])c([H])c1[H]
     RDKit          3D

 65 68  0  0  0  0  0  0  0  0999 V2000
    4.3501   -0.6510    4.4077 C   0  0  0  0  0  0  0  0  0  0  0  0
    3.8117   -0.7157    3.1265 O   0  0  0  0  0  0  0  0  0  0  0  0
    2.4729   -0.5168    2.8271 C   0  0  0  0  0  0  0  0  0  0  0  0
    1.5222   -0.2333    3.7590 C   0  0  0  0  0  0  0  0  0  0  0  0
    0.1919   -0.0429    3.3979 C   0  0  0  0  0  0  0  0  0  0  0  0
   -0.2189   -0.1335    2.0854 C   0  0  0  0  0  0  0  0  0  0  0  0
    0.7451   -0.4209    1.1392 C   0  0  0  0  0  0  0  0  0  0  0  0
    2.0867   -0.6149    1.4854 C   0  0  0  0  0  0  0  0  0  0  0  0
    3.0661   -0.9034    0.5536 O   0  0  0  0  0  0  0  0  0  0  0  0
    2.9526   -1.0528   -0.8120 C   0  0  0  0  0  0  0  0  0  0  0  0
    3.7877   -0.0607   -1.5985 C   0  0  0  0  0  0  0  0  0  0  0  0
    4.9716   -0.7921   -2.1397 C   0  0  0  0  0  0  0  0  0  0  0  0
    4.6295   -2.2491   -2.0975 C   0  0  0  0  0  0  0  0  0  0  0  0
    3.3658   -2.4224   -1.3094 C   0  0  0  0  0  0  0  0  0  0  0  0
   -1.6290    0.0746    1.7181 C   0  0  0  0  0  0  0  0  0  0  0  0
   -2.1158   -1.0825    0.9392 C   0  0  0  0  0  0  0  0  0  0  0  0
   -1.3289   -2.0408    0.7367 O   0  0  0  0  0  0  0  0  0  0  0  0
   -3.3786   -1.2094    0.4069 O   0  0  0  0  0  0  0  0  0  0  0  0
   -3.8966   -2.2693   -0.3194 C   0  0  0  0  0  0  0  0  0  0  0  0
   -3.2223   -2.6062   -1.5754 C   0  0  0  0  0  0  0  0  0  0  0  0
   -3.5503   -3.8486   -2.1327 C   0  0  0  0  0  0  0  0  0  0  0  0
   -2.9921   -4.2864   -3.3108 C   0  0  0  0  0  0  0  0  0  0  0  0
   -2.0883   -3.4648   -3.9434 C   0  0  0  0  0  0  0  0  0  0  0  0
   -1.7632   -2.2379   -3.3949 C   0  0  0  0  0  0  0  0  0  0  0  0
   -2.3234   -1.8065   -2.2195 C   0  0  0  0  0  0  0  0  0  0  0  0
   -1.9150    1.3888    1.1577 C   0  0  0  0  0  0  0  0  0  0  0  0
   -1.6160    1.7818   -0.1400 C   0  0  0  0  0  0  0  0  0  0  0  0
   -1.9219    3.0447   -0.6006 C   0  0  0  0  0  0  0  0  0  0  0  0
   -2.5364    3.9751    0.2002 C   0  0  0  0  0  0  0  0  0  0  0  0
   -2.8417    3.6050    1.4929 C   0  0  0  0  0  0  0  0  0  0  0  0
   -2.5317    2.3413    1.9424 C   0  0  0  0  0  0  0  0  0  0  0  0
   -2.9213    5.5952   -0.3950 S   0  0  0  0  0  0  0  0  0  0  0  0
   -1.5424    6.6350    0.0658 C   0  0  0  0  0  0  0  0  0  0  0  0
   -2.9331    5.4905   -1.8964 O   0  0  0  0  0  0  0  0  0  0  0  0
   -4.1831    6.1197    0.1705 O   0  0  0  0  0  0  0  0  0  0  0  0
    3.7154   -1.2294    5.1049 H   0  0  0  0  0  0  0  0  0  0  0  0
    4.4419    0.4209    4.6969 H   0  0  0  0  0  0  0  0  0  0  0  0
    5.3819   -1.0887    4.3640 H   0  0  0  0  0  0  0  0  0  0  0  0
    1.8325   -0.1575    4.8075 H   0  0  0  0  0  0  0  0  0  0  0  0
   -0.5178    0.1784    4.1678 H   0  0  0  0  0  0  0  0  0  0  0  0
    0.4382   -0.4897    0.1047 H   0  0  0  0  0  0  0  0  0  0  0  0
    1.9133   -0.9068   -1.1591 H   0  0  0  0  0  0  0  0  0  0  0  0
    3.2280    0.3641   -2.4744 H   0  0  0  0  0  0  0  0  0  0  0  0
    4.0743    0.8156   -0.9840 H   0  0  0  0  0  0  0  0  0  0  0  0
    5.9207   -0.5646   -1.5854 H   0  0  0  0  0  0  0  0  0  0  0  0
    5.1987   -0.5185   -3.2027 H   0  0  0  0  0  0  0  0  0  0  0  0
    5.4692   -2.8214   -1.6470 H   0  0  0  0  0  0  0  0  0  0  0  0
    4.4988   -2.6541   -3.1239 H   0  0  0  0  0  0  0  0  0  0  0  0
    2.5805   -2.9082   -1.9357 H   0  0  0  0  0  0  0  0  0  0  0  0
    3.5701   -3.1245   -0.4755 H   0  0  0  0  0  0  0  0  0  0  0  0
   -2.2289    0.0080    2.6925 H   0  0  0  0  0  0  0  0  0  0  0  0
   -4.0257   -3.2013    0.2794 H   0  0  0  0  0  0  0  0  0  0  0  0
   -4.9553   -1.9839   -0.5974 H   0  0  0  0  0  0  0  0  0  0  0  0
   -4.2615   -4.5115   -1.6490 H   0  0  0  0  0  0  0  0  0  0  0  0
   -3.2369   -5.2493   -3.7563 H   0  0  0  0  0  0  0  0  0  0  0  0
   -1.6439   -3.7949   -4.8665 H   0  0  0  0  0  0  0  0  0  0  0  0
   -1.0551   -1.5791   -3.8772 H   0  0  0  0  0  0  0  0  0  0  0  0
   -2.0790   -0.8480   -1.7844 H   0  0  0  0  0  0  0  0  0  0  0  0
   -1.1290    1.0823   -0.8036 H   0  0  0  0  0  0  0  0  0  0  0  0
   -1.6831    3.3527   -1.6288 H   0  0  0  0  0  0  0  0  0  0  0  0
   -3.3268    4.3304    2.1351 H   0  0  0  0  0  0  0  0  0  0  0  0
   -2.8086    2.1269    2.9842 H   0  0  0  0  0  0  0  0  0  0  0  0
   -1.4470    7.4486   -0.6784 H   0  0  0  0  0  0  0  0  0  0  0  0
   -0.6170    6.0477    0.0904 H   0  0  0  0  0  0  0  0  0  0  0  0
   -1.7518    7.0660    1.0754 H   0  0  0  0  0  0  0  0  0  0  0  0
  1  2  1  0
  2  3  1  0
  3  4  2  0
  4  5  1  0
  5  6  2  0
  6  7  1  0
  7  8  2  0
  8  9  1  0
  9 10  1  0
 10 11  1  0
 11 12  1  0
 12 13  1  0
 13 14  1  0
  6 15  1  0
 15 16  1  0
 16 17  2  0
 16 18  1  0
 18 19  1  0
 19 20  1  0
 20 21  2  0
 21 22  1  0
 22 23  2  0
 23 24  1  0
 24 25  2  0
 15 26  1  0
 26 27  2  0
 27 28  1  0
 28 29  2  0
 29 30  1  0
 30 31  2  0
 29 32  1  0
 32 33  1  0
 32 34  2  0
 32 35  2  0
  8  3  1  0
 14 10  1  0
 25 20  1  0
 31 26  1  0
  1 36  1  0
  1 37  1  0
  1 38  1  0
  4 39  1  0
  5 40  1  0
  7 41  1  0
 10 42  1  0
 11 43  1  0
 11 44  1  0
 12 45  1  0
 12 46  1  0
 13 47  1  0
 13 48  1  0
 14 49  1  0
 14 50  1  0
 15 51  1  0
 19 52  1  0
 19 53  1  0
 21 54  1  0
 22 55  1  0
 23 56  1  0
 24 57  1  0
 25 58  1  0
 27 59  1  0
 28 60  1  0
 30 61  1  0
 31 62  1  0
 33 63  1  0
 33 64  1  0
 33 65  1  0
M  END
$$$$
[H]OC(=O)C(=O)N([H])[C@]12C(=O)C(=O)C([H])([H])[C@@]([H])(C([H])(C([H])(C([H])([H])[H])C([H])([H])[H])C1([H])[H])[C@@]([H])(OC([H])([H])[H])C([H])([H])C2([H])[H]
     RDKit          2D

 46 47  0  0  0  0  0  0  0  0999 V2000
    4.2976    0.3872    0.0000 C   0  0  0  0  0  0  0  0  0  0  0  0
    2.9013    0.9352    0.0000 O   0  0  0  0  0  0  0  0  0  0  0  0
    1.7286    0.0000    0.0000 C   0  0  0  0  0  0  0  0  0  0  0  0
    1.0777    1.3515    0.0000 C   0  0  0  0  0  0  0  0  0  0  0  0
   -0.3846    1.6852    0.0000 C   0  0  0  0  0  0  0  0  0  0  0  0
   -1.5574    0.7500    0.0000 C   0  0  0  0  0  0  0  0  0  0  0  0
   -1.5574   -0.7500    0.0000 C   0  0  0  0  0  0  0  0  0  0  0  0
   -0.3846   -1.6852    0.0000 C   0  0  0  0  0  0  0  0  0  0  0  0
    0.2662   -3.0367    0.0000 C   0  0  0  0  0  0  0  0  0  0  0  0
    0.9170   -4.3881    0.0000 C   0  0  0  0  0  0  0  0  0  0  0  0
   -1.0853   -3.6875    0.0000 C   0  0  0  0  0  0  0  0  0  0  0  0
    1.0777   -1.3515    0.0000 C   0  0  0  0  0  0  0  0  0  0  0  0
    0.2480   -1.1130    0.0000 C   0  0  0  0  0  0  0  0  0  0  0  0
   -0.6845   -0.8583    0.0000 C   0  0  0  0  0  0  0  0  0  0  0  0
   -2.4926   -3.1257    0.0000 O   0  0  0  0  0  0  0  0  0  0  0  0
   -1.1403   -0.0059    0.0000 C   0  0  0  0  0  0  0  0  0  0  0  0
   -2.4991   -0.4196    0.0000 O   0  0  0  0  0  0  0  0  0  0  0  0
   -2.9088    1.4008    0.0000 N   0  0  0  0  0  0  0  0  0  0  0  0
   -3.0209    2.8966    0.0000 C   0  0  0  0  0  0  0  0  0  0  0  0
   -1.7816    3.7416    0.0000 O   0  0  0  0  0  0  0  0  0  0  0  0
   -4.3724    3.5475    0.0000 C   0  0  0  0  0  0  0  0  0  0  0  0
   -5.6118    2.7025    0.0000 O   0  0  0  0  0  0  0  0  0  0  0  0
   -4.4845    5.0433    0.0000 O   0  0  0  0  0  0  0  0  0  0  0  0
    5.6939   -0.1608    0.0000 H   0  0  0  0  0  0  0  0  0  0  0  0
    4.8456    1.7835    0.0000 H   0  0  0  0  0  0  0  0  0  0  0  0
    3.9239   -1.0655    0.0000 H   0  0  0  0  0  0  0  0  0  0  0  0
    2.7786   -1.0712    0.0000 H   0  0  0  0  0  0  0  0  0  0  0  0
    1.2606    2.8403    0.0000 H   0  0  0  0  0  0  0  0  0  0  0  0
    2.4159    2.0292    0.0000 H   0  0  0  0  0  0  0  0  0  0  0  0
   -1.5574    2.6205    0.0000 H   0  0  0  0  0  0  0  0  0  0  0  0
    0.0966    3.1059    0.0000 H   0  0  0  0  0  0  0  0  0  0  0  0
   -2.2082   -2.1015    0.0000 H   0  0  0  0  0  0  0  0  0  0  0  0
   -2.3071   -0.4792    0.0000 H   0  0  0  0  0  0  0  0  0  0  0  0
   -1.7488   -2.3089    0.0000 H   0  0  0  0  0  0  0  0  0  0  0  0
    1.6869   -2.5555    0.0000 H   0  0  0  0  0  0  0  0  0  0  0  0
    1.5678   -5.7396    0.0000 H   0  0  0  0  0  0  0  0  0  0  0  0
    2.2685   -3.7373    0.0000 H   0  0  0  0  0  0  0  0  0  0  0  0
   -0.3450   -5.1989    0.0000 H   0  0  0  0  0  0  0  0  0  0  0  0
   -2.4367   -4.3383    0.0000 H   0  0  0  0  0  0  0  0  0  0  0  0
   -0.6040   -5.1082    0.0000 H   0  0  0  0  0  0  0  0  0  0  0  0
   -2.2945   -2.7999    0.0000 H   0  0  0  0  0  0  0  0  0  0  0  0
    2.1490   -2.4015    0.0000 H   0  0  0  0  0  0  0  0  0  0  0  0
    1.0777   -3.2219    0.0000 H   0  0  0  0  0  0  0  0  0  0  0  0
   -1.0535   -3.4405    0.0000 H   0  0  0  0  0  0  0  0  0  0  0  0
   -4.1482    0.5558    0.0000 H   0  0  0  0  0  0  0  0  0  0  0  0
   -6.9632    3.3533    0.0000 H   0  0  0  0  0  0  0  0  0  0  0  0
  1  2  1  0
  2  3  1  0
  3  4  1  0
  4  5  1  0
  5  6  1  0
  6  7  1  0
  7  8  1  0
  8  9  1  0
  9 10  1  0
  9 11  1  0
  8 12  1  0
 12 13  1  0
 13 14  1  0
 14 15  2  0
 14 16  1  0
 16 17  2  0
  6 18  1  6
 18 19  1  0
 19 20  2  0
 19 21  1  0
 21 22  1  0
 21 23  2  0
 12  3  1  0
 16  6  1  0
  1 24  1  0
  1 25  1  0
  1 26  1  0
  3 27  1  1
  4 28  1  0
  4 29  1  0
  5 30  1  0
  5 31  1  0
  7 32  1  0
  7 33  1  0
  8 34  1  0
  9 35  1  0
 10 36  1  0
 10 37  1  0
 10 38  1  0
 11 39  1  0
 11 40  1  0
 11 41  1  0
 12 42  1  1
 13 43  1  0
 13 44  1  0
 18 45  1  0
 22 46  1  0
M  END
$$$$
[H]c1c([H])c(Br)c2sc(N([H])C(=O)C3([H])C([H])([H])SC([H])([H])SC3([H])[H])nc2c1[H]
     RDKit          3D

 30 32  0  0  0  0  0  0  0  0999 V2000
    5.5808    1.6424   -2.4504 Br  0  0  0  0  0  0  0  0  0  0  0  0
    5.0073    0.5816   -0.9780 C   0  0  0  0  0  0  0  0  0  0  0  0
    5.9318   -0.0489   -0.1575 C   0  0  0  0  0  0  0  0  0  0  0  0
    5.3696   -0.7868    0.8738 C   0  0  0  0  0  0  0  0  0  0  0  0
    4.0479   -0.9262    1.1211 C   0  0  0  0  0  0  0  0  0  0  0  0
    3.1190   -0.2780    0.2766 C   0  0  0  0  0  0  0  0  0  0  0  0
    1.8156   -0.3255    0.3978 N   0  0  0  0  0  0  0  0  0  0  0  0
    1.0490    0.3263   -0.4586 C   0  0  0  0  0  0  0  0  0  0  0  0
   -0.3911    0.4026   -0.5004 N   0  0  0  0  0  0  0  0  0  0  0  0
   -1.2080   -0.2550    0.4324 C   0  0  0  0  0  0  0  0  0  0  0  0
   -0.6830   -0.9373    1.3407 O   0  0  0  0  0  0  0  0  0  0  0  0
   -2.6793   -0.1593    0.3653 C   0  0  0  0  0  0  0  0  0  0  0  0
   -3.1584    1.2709    0.4918 C   0  0  0  0  0  0  0  0  0  0  0  0
   -4.8637    1.4086   -0.0320 S   0  0  0  0  0  0  0  0  0  0  0  0
   -5.7478   -0.1466    0.3297 C   0  0  0  0  0  0  0  0  0  0  0  0
   -4.8398   -1.4629   -0.5679 S   0  0  0  0  0  0  0  0  0  0  0  0
   -3.1945   -0.7782   -0.9407 C   0  0  0  0  0  0  0  0  0  0  0  0
    2.2043    1.0474   -1.4925 S   0  0  0  0  0  0  0  0  0  0  0  0
    3.6274    0.4619   -0.7550 C   0  0  0  0  0  0  0  0  0  0  0  0
    6.9882    0.0307   -0.3118 H   0  0  0  0  0  0  0  0  0  0  0  0
    6.0866   -1.2888    1.5279 H   0  0  0  0  0  0  0  0  0  0  0  0
    3.7372   -1.5294    1.9577 H   0  0  0  0  0  0  0  0  0  0  0  0
   -0.8064    0.9709   -1.2580 H   0  0  0  0  0  0  0  0  0  0  0  0
   -3.1237   -0.7183    1.2014 H   0  0  0  0  0  0  0  0  0  0  0  0
   -2.5181    1.9880   -0.0223 H   0  0  0  0  0  0  0  0  0  0  0  0
   -3.1260    1.5037    1.5936 H   0  0  0  0  0  0  0  0  0  0  0  0
   -6.8002   -0.0954    0.0148 H   0  0  0  0  0  0  0  0  0  0  0  0
   -5.6555   -0.3896    1.4054 H   0  0  0  0  0  0  0  0  0  0  0  0
   -3.2866    0.0523   -1.6691 H   0  0  0  0  0  0  0  0  0  0  0  0
   -2.4828   -1.5611   -1.2702 H   0  0  0  0  0  0  0  0  0  0  0  0
  1  2  1  0
  2  3  2  0
  3  4  1  0
  4  5  2  0
  5  6  1  0
  6  7  1  0
  7  8  2  0
  8  9  1  0
  9 10  1  0
 10 11  2  0
 10 12  1  0
 12 13  1  0
 13 14  1  0
 14 15  1  0
 15 16  1  0
 16 17  1  0
  8 18  1  0
 18 19  1  0
 19  2  1  0
 19  6  2  0
 17 12  1  0
  3 20  1  0
  4 21  1  0
  5 22  1  0
  9 23  1  0
 12 24  1  0
 13 25  1  0
 13 26  1  0
 15 27  1  0
 15 28  1  0
 17 29  1  0
 17 30  1  0
M  END
$$$$
[H]c1nc(N([H])c2c([H])c([H])c([H])c([H])c2[H])nc2c1C([H])([H])C([H])([H])c1c(C(=O)N([H])[H])nn(C([H])([H])[H])c1-2
     RDKit          3D

 40 43  0  0  0  0  0  0  0  0999 V2000
   -0.2590    1.8827    1.1529 C   0  0  0  0  0  0  0  0  0  0  0  0
   -1.4265    1.2515    0.5745 N   0  0  0  0  0  0  0  0  0  0  0  0
   -2.6703    1.7417    0.7193 N   0  0  0  0  0  0  0  0  0  0  0  0
   -3.5625    0.9814    0.1046 C   0  0  0  0  0  0  0  0  0  0  0  0
   -5.0194    1.2034    0.0467 C   0  0  0  0  0  0  0  0  0  0  0  0
   -5.5748    2.3242    0.6944 N   0  0  0  0  0  0  0  0  0  0  0  0
   -5.7424    0.3708   -0.5915 O   0  0  0  0  0  0  0  0  0  0  0  0
   -2.8686   -0.0621   -0.4740 C   0  0  0  0  0  0  0  0  0  0  0  0
   -3.3928   -1.1897   -1.2765 C   0  0  0  0  0  0  0  0  0  0  0  0
   -2.3766   -2.1600   -1.7328 C   0  0  0  0  0  0  0  0  0  0  0  0
   -0.9822   -1.8947   -1.3697 C   0  0  0  0  0  0  0  0  0  0  0  0
   -0.0162   -2.7895   -1.7982 C   0  0  0  0  0  0  0  0  0  0  0  0
    1.2490   -2.5610   -1.4755 N   0  0  0  0  0  0  0  0  0  0  0  0
    1.6742   -1.4896   -0.7397 C   0  0  0  0  0  0  0  0  0  0  0  0
    3.0428   -1.4257   -0.4702 N   0  0  0  0  0  0  0  0  0  0  0  0
    3.7332   -0.4200    0.2341 C   0  0  0  0  0  0  0  0  0  0  0  0
    3.3400    0.8750    0.3138 C   0  0  0  0  0  0  0  0  0  0  0  0
    4.0659    1.7894    1.0496 C   0  0  0  0  0  0  0  0  0  0  0  0
    5.2063    1.4526    1.7311 C   0  0  0  0  0  0  0  0  0  0  0  0
    5.6106    0.1392    1.6531 C   0  0  0  0  0  0  0  0  0  0  0  0
    4.8968   -0.7698    0.9273 C   0  0  0  0  0  0  0  0  0  0  0  0
    0.7510   -0.6335   -0.3296 N   0  0  0  0  0  0  0  0  0  0  0  0
   -0.5668   -0.8233   -0.6347 C   0  0  0  0  0  0  0  0  0  0  0  0
   -1.5481    0.1394   -0.1613 C   0  0  0  0  0  0  0  0  0  0  0  0
   -0.5694    2.4922    2.0257 H   0  0  0  0  0  0  0  0  0  0  0  0
    0.2294    2.5880    0.4416 H   0  0  0  0  0  0  0  0  0  0  0  0
    0.4569    1.1343    1.5484 H   0  0  0  0  0  0  0  0  0  0  0  0
   -6.0314    2.2159    1.6136 H   0  0  0  0  0  0  0  0  0  0  0  0
   -5.5299    3.2588    0.2569 H   0  0  0  0  0  0  0  0  0  0  0  0
   -4.2206   -1.7207   -0.7133 H   0  0  0  0  0  0  0  0  0  0  0  0
   -3.9360   -0.8083   -2.1937 H   0  0  0  0  0  0  0  0  0  0  0  0
   -2.4269   -2.3292   -2.8514 H   0  0  0  0  0  0  0  0  0  0  0  0
   -2.6210   -3.1883   -1.3138 H   0  0  0  0  0  0  0  0  0  0  0  0
   -0.2824   -3.6579   -2.3839 H   0  0  0  0  0  0  0  0  0  0  0  0
    3.6872   -2.2223   -0.8320 H   0  0  0  0  0  0  0  0  0  0  0  0
    2.4459    1.2138   -0.2202 H   0  0  0  0  0  0  0  0  0  0  0  0
    3.7423    2.8352    1.1106 H   0  0  0  0  0  0  0  0  0  0  0  0
    5.7555    2.2052    2.3041 H   0  0  0  0  0  0  0  0  0  0  0  0
    6.5163   -0.1516    2.1877 H   0  0  0  0  0  0  0  0  0  0  0  0
    5.2204   -1.7974    0.8719 H   0  0  0  0  0  0  0  0  0  0  0  0
  1  2  1  0
  2  3  1  0
  3  4  2  0
  4  5  1  0
  5  6  1  0
  5  7  2  0
  4  8  1  0
  8  9  1  0
  9 10  1  0
 10 11  1  0
 11 12  2  0
 12 13  1  0
 13 14  2  0
 14 15  1  0
 15 16  1  0
 16 17  2  0
 17 18  1  0
 18 19  2  0
 19 20  1  0
 20 21  2  0
 14 22  1  0
 22 23  2  0
 23 24  1  0
 24  2  1  0
 24  8  2  0
 23 11  1  0
 21 16  1  0
  1 25  1  0
  1 26  1  0
  1 27  1  0
  6 28  1  0
  6 29  1  0
  9 30  1  0
  9 31  1  0
 10 32  1  0
 10 33  1  0
 12 34  1  0
 15 35  1  0
 17 36  1  0
 18 37  1  0
 19 38  1  0
 20 39  1  0
 21 40  1  0
M  END
$$$$
