[H]c1c(N2C([H])([H])C([H])([H])N(C([H])([H])[H])C([H])([H])C2([H])[H])c([H])c2c(nc(-c3c(N([H])[H])c4c(F)c([H])c([H])c([H])c4n([H])c3=O)n2[H])c1[H]
     RDKit          3D

 50 54  0  0  0  0  0  0  0  0999 V2000
   -7.5542    1.1250   -0.4011 C   0  0  0  0  0  0  0  0  0  0  0  0
   -6.7242   -0.0513   -0.2669 N   0  0  0  0  0  0  0  0  0  0  0  0
   -6.0477   -0.3472   -1.4926 C   0  0  0  0  0  0  0  0  0  0  0  0
   -4.7812   -1.1740   -1.2919 C   0  0  0  0  0  0  0  0  0  0  0  0
   -3.8987   -0.4052   -0.4548 N   0  0  0  0  0  0  0  0  0  0  0  0
   -4.5079    0.5628    0.4318 C   0  0  0  0  0  0  0  0  0  0  0  0
   -5.8592    0.0371    0.8700 C   0  0  0  0  0  0  0  0  0  0  0  0
   -2.4961   -0.6156   -0.5175 C   0  0  0  0  0  0  0  0  0  0  0  0
   -1.9852   -1.6372   -1.2888 C   0  0  0  0  0  0  0  0  0  0  0  0
   -0.6096   -1.8531   -1.3639 C   0  0  0  0  0  0  0  0  0  0  0  0
    0.2879   -1.0622   -0.6769 C   0  0  0  0  0  0  0  0  0  0  0  0
    1.6243   -1.0284   -0.5574 N   0  0  0  0  0  0  0  0  0  0  0  0
    1.9819   -0.0013    0.2787 C   0  0  0  0  0  0  0  0  0  0  0  0
    0.8585    0.5809    0.6605 N   0  0  0  0  0  0  0  0  0  0  0  0
   -0.2177   -0.0409    0.0947 C   0  0  0  0  0  0  0  0  0  0  0  0
   -1.5796    0.1642    0.1620 C   0  0  0  0  0  0  0  0  0  0  0  0
    3.3521    0.3314    0.6366 C   0  0  0  0  0  0  0  0  0  0  0  0
    4.4028   -0.4233    0.1135 C   0  0  0  0  0  0  0  0  0  0  0  0
    4.0915   -1.4981   -0.7568 N   0  0  0  0  0  0  0  0  0  0  0  0
    5.7279   -0.1909    0.3891 C   0  0  0  0  0  0  0  0  0  0  0  0
    6.7501   -0.9547   -0.1431 C   0  0  0  0  0  0  0  0  0  0  0  0
    6.4362   -1.9781   -0.9731 F   0  0  0  0  0  0  0  0  0  0  0  0
    8.0761   -0.7077    0.1440 C   0  0  0  0  0  0  0  0  0  0  0  0
    8.3653    0.3409    0.9920 C   0  0  0  0  0  0  0  0  0  0  0  0
    7.3431    1.1047    1.5243 C   0  0  0  0  0  0  0  0  0  0  0  0
    6.0177    0.8672    1.2447 C   0  0  0  0  0  0  0  0  0  0  0  0
    5.0206    1.6057    1.7587 N   0  0  0  0  0  0  0  0  0  0  0  0
    3.7172    1.3537    1.4693 C   0  0  0  0  0  0  0  0  0  0  0  0
    2.8682    2.0960    1.9965 O   0  0  0  0  0  0  0  0  0  0  0  0
   -7.8545    1.1935   -1.4715 H   0  0  0  0  0  0  0  0  0  0  0  0
   -7.0355    2.0591   -0.1227 H   0  0  0  0  0  0  0  0  0  0  0  0
   -8.4766    1.0461    0.2395 H   0  0  0  0  0  0  0  0  0  0  0  0
   -5.7342    0.6158   -1.9542 H   0  0  0  0  0  0  0  0  0  0  0  0
   -6.7133   -0.9227   -2.1549 H   0  0  0  0  0  0  0  0  0  0  0  0
   -4.3701   -1.3425   -2.3097 H   0  0  0  0  0  0  0  0  0  0  0  0
   -5.0409   -2.1137   -0.7744 H   0  0  0  0  0  0  0  0  0  0  0  0
   -3.8793    0.6548    1.3662 H   0  0  0  0  0  0  0  0  0  0  0  0
   -4.5594    1.5560   -0.0194 H   0  0  0  0  0  0  0  0  0  0  0  0
   -6.2616    0.7622    1.6129 H   0  0  0  0  0  0  0  0  0  0  0  0
   -5.6675   -0.9630    1.3290 H   0  0  0  0  0  0  0  0  0  0  0  0
   -2.6487   -2.2964   -1.8533 H   0  0  0  0  0  0  0  0  0  0  0  0
   -0.2378   -2.6569   -1.9729 H   0  0  0  0  0  0  0  0  0  0  0  0
    0.7361    1.3862    1.2881 H   0  0  0  0  0  0  0  0  0  0  0  0
   -1.9771    0.9716    0.7699 H   0  0  0  0  0  0  0  0  0  0  0  0
    3.9955   -1.4248   -1.7836 H   0  0  0  0  0  0  0  0  0  0  0  0
    3.9483   -2.4373   -0.3228 H   0  0  0  0  0  0  0  0  0  0  0  0
    8.8894   -1.3071   -0.2729 H   0  0  0  0  0  0  0  0  0  0  0  0
    9.4092    0.5505    1.2300 H   0  0  0  0  0  0  0  0  0  0  0  0
    7.5504    1.9413    2.1993 H   0  0  0  0  0  0  0  0  0  0  0  0
    5.2674    2.3910    2.3960 H   0  0  0  0  0  0  0  0  0  0  0  0
  1  2  1  0
  2  3  1  0
  3  4  1  0
  4  5  1  0
  5  6  1  0
  6  7  1  0
  5  8  1  0
  8  9  2  0
  9 10  1  0
 10 11  2  0
 11 12  1  0
 12 13  2  0
 13 14  1  0
 14 15  1  0
 15 16  2  0
 13 17  1  0
 17 18  2  0
 18 19  1  0
 18 20  1  0
 20 21  2  0
 21 22  1  0
 21 23  1  0
 23 24  2  0
 24 25  1  0
 25 26  2  0
 26 27  1  0
 27 28  1  0
 28 29  2  0
  7  2  1  0
 16  8  1  0
 28 17  1  0
 15 11  1  0
 26 20  1  0
  1 30  1  0
  1 31  1  0
  1 32  1  0
  3 33  1  0
  3 34  1  0
  4 35  1  0
  4 36  1  0
  6 37  1  0
  6 38  1  0
  7 39  1  0
  7 40  1  0
  9 41  1  0
 10 42  1  0
 14 43  1  0
 16 44  1  0
 19 45  1  0
 19 46  1  0
 23 47  1  0
 24 48  1  0
 25 49  1  0
 27 50  1  0
M  END
$$$$
[H]c1c([H])c([H])c2c([H])c(S(=O)(=O)N([H])C3([H])C([H])([H])C([H])([H])N(C([H])([H])C([H])([H])[H])C([H])([H])C3([H])[H])c([H])c([H])c2c1[H]
     RDKit          3D

 44 46  0  0  0  0  0  0  0  0999 V2000
    5.6891    0.4737    0.9890 C   0  0  0  0  0  0  0  0  0  0  0  0
    4.3338    0.9724    1.3581 C   0  0  0  0  0  0  0  0  0  0  0  0
    3.4694    0.9390    0.1682 N   0  0  0  0  0  0  0  0  0  0  0  0
    2.1833    1.4274    0.5800 C   0  0  0  0  0  0  0  0  0  0  0  0
    1.0641    1.1282   -0.3316 C   0  0  0  0  0  0  0  0  0  0  0  0
    1.1702   -0.1659   -1.0828 C   0  0  0  0  0  0  0  0  0  0  0  0
    2.5826   -0.4611   -1.5418 C   0  0  0  0  0  0  0  0  0  0  0  0
    3.4495   -0.4193   -0.2972 C   0  0  0  0  0  0  0  0  0  0  0  0
    0.3453   -0.0749   -2.2673 N   0  0  0  0  0  0  0  0  0  0  0  0
   -0.8797   -1.2703   -2.3328 S   0  0  0  0  0  0  0  0  0  0  0  0
   -0.2718   -2.6522   -2.2679 O   0  0  0  0  0  0  0  0  0  0  0  0
   -1.7134   -1.1532   -3.5751 O   0  0  0  0  0  0  0  0  0  0  0  0
   -1.9490   -1.0732   -0.9730 C   0  0  0  0  0  0  0  0  0  0  0  0
   -1.7041   -1.7770    0.1794 C   0  0  0  0  0  0  0  0  0  0  0  0
   -2.5928   -1.5791    1.2434 C   0  0  0  0  0  0  0  0  0  0  0  0
   -3.6614   -0.7314    1.1652 C   0  0  0  0  0  0  0  0  0  0  0  0
   -4.5383   -0.5424    2.2291 C   0  0  0  0  0  0  0  0  0  0  0  0
   -5.6158    0.3078    2.1606 C   0  0  0  0  0  0  0  0  0  0  0  0
   -5.8320    1.0016    0.9816 C   0  0  0  0  0  0  0  0  0  0  0  0
   -4.9727    0.8245   -0.0792 C   0  0  0  0  0  0  0  0  0  0  0  0
   -3.8994   -0.0306    0.0076 C   0  0  0  0  0  0  0  0  0  0  0  0
   -3.0219   -0.2189   -1.0587 C   0  0  0  0  0  0  0  0  0  0  0  0
    6.4436    1.0070    1.5929 H   0  0  0  0  0  0  0  0  0  0  0  0
    5.7857   -0.6177    1.1792 H   0  0  0  0  0  0  0  0  0  0  0  0
    5.8547    0.6817   -0.1035 H   0  0  0  0  0  0  0  0  0  0  0  0
    4.4309    2.0101    1.7416 H   0  0  0  0  0  0  0  0  0  0  0  0
    3.8601    0.3940    2.1911 H   0  0  0  0  0  0  0  0  0  0  0  0
    2.2796    2.5459    0.6684 H   0  0  0  0  0  0  0  0  0  0  0  0
    1.9896    1.0842    1.6380 H   0  0  0  0  0  0  0  0  0  0  0  0
    0.1188    1.0719    0.2766 H   0  0  0  0  0  0  0  0  0  0  0  0
    0.8764    1.9547   -1.0711 H   0  0  0  0  0  0  0  0  0  0  0  0
    0.8432   -1.0047   -0.4429 H   0  0  0  0  0  0  0  0  0  0  0  0
    2.9197    0.2698   -2.2852 H   0  0  0  0  0  0  0  0  0  0  0  0
    2.6109   -1.4952   -1.9254 H   0  0  0  0  0  0  0  0  0  0  0  0
    4.4606   -0.7426   -0.5377 H   0  0  0  0  0  0  0  0  0  0  0  0
    2.9922   -1.1217    0.4438 H   0  0  0  0  0  0  0  0  0  0  0  0
   -0.1170    0.8653   -2.3499 H   0  0  0  0  0  0  0  0  0  0  0  0
   -0.8823   -2.4651    0.3130 H   0  0  0  0  0  0  0  0  0  0  0  0
   -2.4086   -2.1261    2.1495 H   0  0  0  0  0  0  0  0  0  0  0  0
   -4.3414   -1.0953    3.1269 H   0  0  0  0  0  0  0  0  0  0  0  0
   -6.3100    0.4704    2.9740 H   0  0  0  0  0  0  0  0  0  0  0  0
   -6.6881    1.6848    0.9097 H   0  0  0  0  0  0  0  0  0  0  0  0
   -5.1343    1.3615   -1.0013 H   0  0  0  0  0  0  0  0  0  0  0  0
   -3.2195    0.3420   -1.9732 H   0  0  0  0  0  0  0  0  0  0  0  0
  1  2  1  0
  2  3  1  0
  3  4  1  0
  4  5  1  0
  5  6  1  0
  6  7  1  0
  7  8  1  0
  6  9  1  0
  9 10  1  0
 10 11  2  0
 10 12  2  0
 10 13  1  0
 13 14  2  0
 14 15  1  0
 15 16  2  0
 16 17  1  0
 17 18  2  0
 18 19  1  0
 19 20  2  0
 20 21  1  0
 21 22  2  0
  8  3  1  0
 22 13  1  0
 21 16  1  0
  1 23  1  0
  1 24  1  0
  1 25  1  0
  2 26  1  0
  2 27  1  0
  4 28  1  0
  4 29  1  0
  5 30  1  0
  5 31  1  0
  6 32  1  0
  7 33  1  0
  7 34  1  0
  8 35  1  0
  8 36  1  0
  9 37  1  0
 14 38  1  0
 15 39  1  0
 17 40  1  0
 18 41  1  0
 19 42  1  0
 20 43  1  0
 22 44  1  0
M  END
$$$$
[H]c1nc(N([H])c2c([H])c([H])c([H])c3c([H])nc([H])c([H])c23)c([H])c(C(F)(F)F)c1[H]
     RDKit          3D

 31 33  0  0  0  0  0  0  0  0999 V2000
    5.5764    1.4523    1.3664 F   0  0  0  0  0  0  0  0  0  0  0  0
    4.8926    0.2770    1.5373 C   0  0  0  0  0  0  0  0  0  0  0  0
    5.8336   -0.7251    1.2230 F   0  0  0  0  0  0  0  0  0  0  0  0
    4.5336    0.0747    2.8310 F   0  0  0  0  0  0  0  0  0  0  0  0
    3.7516    0.1629    0.5833 C   0  0  0  0  0  0  0  0  0  0  0  0
    3.9946   -0.2637   -0.7306 C   0  0  0  0  0  0  0  0  0  0  0  0
    2.9645   -0.4045   -1.6286 C   0  0  0  0  0  0  0  0  0  0  0  0
    1.7474   -0.1168   -1.1904 N   0  0  0  0  0  0  0  0  0  0  0  0
    1.3757    0.2983    0.0198 C   0  0  0  0  0  0  0  0  0  0  0  0
    0.0387    0.4994    0.3906 N   0  0  0  0  0  0  0  0  0  0  0  0
   -1.0993    0.2872   -0.3875 C   0  0  0  0  0  0  0  0  0  0  0  0
   -1.0521    0.1431   -1.7432 C   0  0  0  0  0  0  0  0  0  0  0  0
   -2.2341   -0.0900   -2.4803 C   0  0  0  0  0  0  0  0  0  0  0  0
   -3.4453   -0.1738   -1.8689 C   0  0  0  0  0  0  0  0  0  0  0  0
   -3.5279   -0.0262   -0.4922 C   0  0  0  0  0  0  0  0  0  0  0  0
   -4.7928   -0.1299    0.0771 C   0  0  0  0  0  0  0  0  0  0  0  0
   -4.8683    0.0121    1.4206 N   0  0  0  0  0  0  0  0  0  0  0  0
   -3.7576    0.2371    2.1445 C   0  0  0  0  0  0  0  0  0  0  0  0
   -2.4766    0.3368    1.5735 C   0  0  0  0  0  0  0  0  0  0  0  0
   -2.3727    0.2011    0.2283 C   0  0  0  0  0  0  0  0  0  0  0  0
    2.4464    0.4312    0.9098 C   0  0  0  0  0  0  0  0  0  0  0  0
    4.9808   -0.4842   -1.0360 H   0  0  0  0  0  0  0  0  0  0  0  0
    3.0520   -0.7298   -2.6605 H   0  0  0  0  0  0  0  0  0  0  0  0
   -0.0653    0.8804    1.3815 H   0  0  0  0  0  0  0  0  0  0  0  0
   -0.1262    0.2164   -2.3072 H   0  0  0  0  0  0  0  0  0  0  0  0
   -2.1032   -0.1829   -3.5709 H   0  0  0  0  0  0  0  0  0  0  0  0
   -4.3661   -0.3563   -2.4473 H   0  0  0  0  0  0  0  0  0  0  0  0
   -5.6637   -0.3143   -0.5263 H   0  0  0  0  0  0  0  0  0  0  0  0
   -3.8177    0.3532    3.2161 H   0  0  0  0  0  0  0  0  0  0  0  0
   -1.6627    0.5043    2.2327 H   0  0  0  0  0  0  0  0  0  0  0  0
    2.2435    0.7647    1.9344 H   0  0  0  0  0  0  0  0  0  0  0  0
  1  2  1  0
  2  3  1  0
  2  4  1  0
  2  5  1  0
  5  6  2  0
  6  7  1  0
  7  8  2  0
  8  9  1  0
  9 10  1  0
 10 11  1  0
 11 12  2  0
 12 13  1  0
 13 14  2  0
 14 15  1  0
 15 16  2  0
 16 17  1  0
 17 18  2  0
 18 19  1  0
 19 20  2  0
  9 21  2  0
 21  5  1  0
 20 11  1  0
 20 15  1  0
  6 22  1  0
  7 23  1  0
 10 24  1  0
 12 25  1  0
 13 26  1  0
 14 27  1  0
 16 28  1  0
 18 29  1  0
 19 30  1  0
 21 31  1  0
M  END
$$$$
[H]c1c([H])c(Oc2c([H])c([H])c3c(c2[H])c([H])c([H])c(=O)n3[H])c([H])c(N([H])[C@@]2([H])C([H])([H])C([H])([H])C([H])([H])C([H])([H])[C@]2([H])N([H])[H])c1C#N
     RDKit          3D

 50 53  0  0  0  0  0  0  0  0999 V2000
    4.5564    1.5472    1.8554 N   0  0  0  0  0  0  0  0  0  0  0  0
    3.7068    1.1225    0.7184 C   0  0  1  0  0  0  0  0  0  0  0  0
    3.9226    2.0578   -0.4019 C   0  0  0  0  0  0  0  0  0  0  0  0
    4.7883    1.5009   -1.5056 C   0  0  0  0  0  0  0  0  0  0  0  0
    4.0958    0.2960   -2.0452 C   0  0  0  0  0  0  0  0  0  0  0  0
    3.9926   -0.7403   -0.9966 C   0  0  0  0  0  0  0  0  0  0  0  0
    3.9296   -0.3242    0.4169 C   0  0  2  0  0  0  0  0  0  0  0  0
    3.0544   -1.2052    1.1610 N   0  0  0  0  0  0  0  0  0  0  0  0
    1.6476   -1.2717    1.0602 C   0  0  0  0  0  0  0  0  0  0  0  0
    0.9063   -0.5104    0.1631 C   0  0  0  0  0  0  0  0  0  0  0  0
   -0.4685   -0.5977    0.0752 C   0  0  0  0  0  0  0  0  0  0  0  0
   -1.1932    0.1741   -0.8306 O   0  0  0  0  0  0  0  0  0  0  0  0
   -2.5515    0.1251   -0.9567 C   0  0  0  0  0  0  0  0  0  0  0  0
   -3.1051   -0.7706   -1.8476 C   0  0  0  0  0  0  0  0  0  0  0  0
   -4.4839   -0.8619   -2.0156 C   0  0  0  0  0  0  0  0  0  0  0  0
   -5.3299   -0.0428   -1.2798 C   0  0  0  0  0  0  0  0  0  0  0  0
   -6.6720   -0.1168   -1.4290 N   0  0  0  0  0  0  0  0  0  0  0  0
   -7.4546    0.6870   -0.7042 C   0  0  0  0  0  0  0  0  0  0  0  0
   -8.7180    0.6133   -0.8486 O   0  0  0  0  0  0  0  0  0  0  0  0
   -6.9694    1.6092    0.2080 C   0  0  0  0  0  0  0  0  0  0  0  0
   -5.6027    1.6951    0.3701 C   0  0  0  0  0  0  0  0  0  0  0  0
   -4.7877    0.8551   -0.3875 C   0  0  0  0  0  0  0  0  0  0  0  0
   -3.4191    0.9243   -0.2414 C   0  0  0  0  0  0  0  0  0  0  0  0
   -1.0999   -1.4830    0.9230 C   0  0  0  0  0  0  0  0  0  0  0  0
   -0.3730   -2.2523    1.8263 C   0  0  0  0  0  0  0  0  0  0  0  0
    0.9931   -2.1669    1.9152 C   0  0  0  0  0  0  0  0  0  0  0  0
    1.7167   -2.9776    2.8620 C   0  0  0  0  0  0  0  0  0  0  0  0
    2.2987   -3.6396    3.6219 N   0  0  0  0  0  0  0  0  0  0  0  0
    4.0803    1.3482    2.7638 H   0  0  0  0  0  0  0  0  0  0  0  0
    5.3981    0.8987    1.8484 H   0  0  0  0  0  0  0  0  0  0  0  0
    2.6816    1.2443    1.1069 H   0  0  0  0  0  0  0  0  0  0  0  0
    2.9623    2.3878   -0.8748 H   0  0  0  0  0  0  0  0  0  0  0  0
    4.4134    2.9795   -0.0321 H   0  0  0  0  0  0  0  0  0  0  0  0
    5.7960    1.2387   -1.1811 H   0  0  0  0  0  0  0  0  0  0  0  0
    4.8567    2.2777   -2.2925 H   0  0  0  0  0  0  0  0  0  0  0  0
    4.7355   -0.1034   -2.8863 H   0  0  0  0  0  0  0  0  0  0  0  0
    3.1275    0.5403   -2.5388 H   0  0  0  0  0  0  0  0  0  0  0  0
    3.0588   -1.3567   -1.2059 H   0  0  0  0  0  0  0  0  0  0  0  0
    4.8476   -1.4564   -1.1416 H   0  0  0  0  0  0  0  0  0  0  0  0
    4.9800   -0.5276    0.8318 H   0  0  0  0  0  0  0  0  0  0  0  0
    3.5221   -1.8647    1.8471 H   0  0  0  0  0  0  0  0  0  0  0  0
    1.3980    0.1849   -0.5106 H   0  0  0  0  0  0  0  0  0  0  0  0
   -2.4474   -1.4062   -2.4185 H   0  0  0  0  0  0  0  0  0  0  0  0
   -4.9071   -1.5682   -2.7172 H   0  0  0  0  0  0  0  0  0  0  0  0
   -7.0396   -0.8167   -2.1213 H   0  0  0  0  0  0  0  0  0  0  0  0
   -7.6270    2.2476    0.7816 H   0  0  0  0  0  0  0  0  0  0  0  0
   -5.1365    2.3953    1.0684 H   0  0  0  0  0  0  0  0  0  0  0  0
   -3.0325    1.6424    0.4696 H   0  0  0  0  0  0  0  0  0  0  0  0
   -2.1782   -1.5732    0.8768 H   0  0  0  0  0  0  0  0  0  0  0  0
   -0.8701   -2.9588    2.5036 H   0  0  0  0  0  0  0  0  0  0  0  0
  1  2  1  0
  2  3  1  0
  3  4  1  0
  4  5  1  0
  5  6  1  0
  6  7  1  0
  7  8  1  0
  8  9  1  0
  9 10  2  0
 10 11  1  0
 11 12  1  0
 12 13  1  0
 13 14  2  0
 14 15  1  0
 15 16  2  0
 16 17  1  0
 17 18  1  0
 18 19  2  0
 18 20  1  0
 20 21  2  0
 21 22  1  0
 22 23  2  0
 11 24  2  0
 24 25  1  0
 25 26  2  0
 26 27  1  0
 27 28  3  0
  7  2  1  0
 26  9  1  0
 23 13  1  0
 22 16  1  0
  1 29  1  0
  1 30  1  0
  2 31  1  1
  3 32  1  0
  3 33  1  0
  4 34  1  0
  4 35  1  0
  5 36  1  0
  5 37  1  0
  6 38  1  0
  6 39  1  0
  7 40  1  1
  8 41  1  0
 10 42  1  0
 14 43  1  0
 15 44  1  0
 17 45  1  0
 20 46  1  0
 21 47  1  0
 23 48  1  0
 24 49  1  0
 25 50  1  0
M  END
$$$$
[H]c1nc([H])c([H])c(-c2c([H])c([H])c(OC([H])([H])C([H])([H])C([H])([H])N3C(=S)N(c4c([H])c([H])c(C#N)c(F)c4[H])C(=O)C3(C([H])([H])[H])C([H])([H])[H])c([H])c2[H])c1[H]
     RDKit          3D

 57 60  0  0  0  0  0  0  0  0999 V2000
    2.2904   -1.8678   -1.3706 C   0  0  0  0  0  0  0  0  0  0  0  0
    2.7103   -1.8958    0.0757 C   0  0  0  0  0  0  0  0  0  0  0  0
    2.5133   -3.2454    0.7042 C   0  0  0  0  0  0  0  0  0  0  0  0
    2.1655   -0.8331    0.8813 N   0  0  0  0  0  0  0  0  0  0  0  0
    0.9567   -0.8631    1.6474 C   0  0  0  0  0  0  0  0  0  0  0  0
   -0.3050   -0.8880    0.8427 C   0  0  0  0  0  0  0  0  0  0  0  0
   -0.4133    0.3662    0.0263 C   0  0  0  0  0  0  0  0  0  0  0  0
   -1.5391    0.4126   -0.7418 O   0  0  0  0  0  0  0  0  0  0  0  0
   -2.8587    0.4619   -0.4082 C   0  0  0  0  0  0  0  0  0  0  0  0
   -3.7943    0.4617   -1.4626 C   0  0  0  0  0  0  0  0  0  0  0  0
   -5.1444    0.5114   -1.2413 C   0  0  0  0  0  0  0  0  0  0  0  0
   -5.6750    0.5650    0.0268 C   0  0  0  0  0  0  0  0  0  0  0  0
   -4.7812    0.5666    1.0695 C   0  0  0  0  0  0  0  0  0  0  0  0
   -3.3960    0.5163    0.8504 C   0  0  0  0  0  0  0  0  0  0  0  0
   -7.1129    0.6152    0.2523 C   0  0  0  0  0  0  0  0  0  0  0  0
   -7.9618    1.2419   -0.6502 C   0  0  0  0  0  0  0  0  0  0  0  0
   -9.3326    1.2826   -0.4239 C   0  0  0  0  0  0  0  0  0  0  0  0
   -9.8504    0.7121    0.6766 N   0  0  0  0  0  0  0  0  0  0  0  0
   -9.0597    0.0866    1.5898 C   0  0  0  0  0  0  0  0  0  0  0  0
   -7.7159    0.0528    1.3575 C   0  0  0  0  0  0  0  0  0  0  0  0
    3.0612    0.2667    0.7890 C   0  0  0  0  0  0  0  0  0  0  0  0
    2.7841    1.8355    1.1642 S   0  0  0  0  0  0  0  0  0  0  0  0
    4.3067   -0.2157    0.2952 N   0  0  0  0  0  0  0  0  0  0  0  0
    4.1831   -1.6072    0.0830 C   0  0  0  0  0  0  0  0  0  0  0  0
    5.0554   -2.4893   -0.0754 O   0  0  0  0  0  0  0  0  0  0  0  0
    5.5105    0.5234    0.0407 C   0  0  0  0  0  0  0  0  0  0  0  0
    6.1352    1.1096    1.1145 C   0  0  0  0  0  0  0  0  0  0  0  0
    7.2945    1.8226    0.8969 C   0  0  0  0  0  0  0  0  0  0  0  0
    7.8268    1.9525   -0.3698 C   0  0  0  0  0  0  0  0  0  0  0  0
    9.0250    2.6798   -0.6477 C   0  0  0  0  0  0  0  0  0  0  0  0
   10.0008    3.2616   -0.8562 N   0  0  0  0  0  0  0  0  0  0  0  0
    7.1671    1.3465   -1.4267 C   0  0  0  0  0  0  0  0  0  0  0  0
    7.6442    1.4410   -2.6968 F   0  0  0  0  0  0  0  0  0  0  0  0
    6.0103    0.6308   -1.2341 C   0  0  0  0  0  0  0  0  0  0  0  0
    2.1579   -0.8193   -1.7258 H   0  0  0  0  0  0  0  0  0  0  0  0
    1.3395   -2.4248   -1.5524 H   0  0  0  0  0  0  0  0  0  0  0  0
    3.0595   -2.3508   -2.0169 H   0  0  0  0  0  0  0  0  0  0  0  0
    1.4468   -3.5421    0.7591 H   0  0  0  0  0  0  0  0  0  0  0  0
    3.1014   -3.9744    0.1211 H   0  0  0  0  0  0  0  0  0  0  0  0
    2.9147   -3.2145    1.7327 H   0  0  0  0  0  0  0  0  0  0  0  0
    0.8896    0.0272    2.3369 H   0  0  0  0  0  0  0  0  0  0  0  0
    1.0248   -1.7583    2.3281 H   0  0  0  0  0  0  0  0  0  0  0  0
   -1.1428   -1.0183    1.5259 H   0  0  0  0  0  0  0  0  0  0  0  0
   -0.2812   -1.7292    0.0817 H   0  0  0  0  0  0  0  0  0  0  0  0
   -0.3624    1.2641    0.7111 H   0  0  0  0  0  0  0  0  0  0  0  0
    0.4699    0.5054   -0.6605 H   0  0  0  0  0  0  0  0  0  0  0  0
   -3.4002    0.4189   -2.4699 H   0  0  0  0  0  0  0  0  0  0  0  0
   -5.8605    0.5097   -2.0610 H   0  0  0  0  0  0  0  0  0  0  0  0
   -5.1612    0.6070    2.0937 H   0  0  0  0  0  0  0  0  0  0  0  0
   -2.7273    0.5442    1.7065 H   0  0  0  0  0  0  0  0  0  0  0  0
   -7.5397    1.6912   -1.5238 H   0  0  0  0  0  0  0  0  0  0  0  0
  -10.0183    1.7623   -1.1069 H   0  0  0  0  0  0  0  0  0  0  0  0
   -9.5611   -0.3442    2.4443 H   0  0  0  0  0  0  0  0  0  0  0  0
   -7.0820   -0.4417    2.0795 H   0  0  0  0  0  0  0  0  0  0  0  0
    5.7281    1.0165    2.1224 H   0  0  0  0  0  0  0  0  0  0  0  0
    7.8247    2.3060    1.7161 H   0  0  0  0  0  0  0  0  0  0  0  0
    5.4791    0.1476   -2.0506 H   0  0  0  0  0  0  0  0  0  0  0  0
  1  2  1  0
  2  3  1  0
  2  4  1  0
  4  5  1  0
  5  6  1  0
  6  7  1  0
  7  8  1  0
  8  9  1  0
  9 10  2  0
 10 11  1  0
 11 12  2  0
 12 13  1  0
 13 14  2  0
 12 15  1  0
 15 16  2  0
 16 17  1  0
 17 18  2  0
 18 19  1  0
 19 20  2  0
  4 21  1  0
 21 22  2  0
 21 23  1  0
 23 24  1  0
 24 25  2  0
 23 26  1  0
 26 27  2  0
 27 28  1  0
 28 29  2  0
 29 30  1  0
 30 31  3  0
 29 32  1  0
 32 33  1  0
 32 34  2  0
 24  2  1  0
 34 26  1  0
 14  9  1  0
 20 15  1  0
  1 35  1  0
  1 36  1  0
  1 37  1  0
  3 38  1  0
  3 39  1  0
  3 40  1  0
  5 41  1  0
  5 42  1  0
  6 43  1  0
  6 44  1  0
  7 45  1  0
  7 46  1  0
 10 47  1  0
 11 48  1  0
 13 49  1  0
 14 50  1  0
 16 51  1  0
 17 52  1  0
 19 53  1  0
 20 54  1  0
 27 55  1  0
 28 56  1  0
 34 57  1  0
M  END
$$$$
[H]c1nc([H])c(Cl)c(N([H])C(=O)N([H])c2c([H])c(-c3c([H])c([H])c([H])c(C(F)(F)F)c3[H])nn2C([H])([H])[H])c1Cl
     RDKit          3D

 40 42  0  0  0  0  0  0  0  0999 V2000
    0.0354   -4.0563    1.2629 C   0  0  0  0  0  0  0  0  0  0  0  0
   -0.5824   -2.7949    0.8683 N   0  0  0  0  0  0  0  0  0  0  0  0
   -1.8635   -2.5054    0.6666 N   0  0  0  0  0  0  0  0  0  0  0  0
   -2.0417   -1.2564    0.3016 C   0  0  0  0  0  0  0  0  0  0  0  0
   -0.7570   -0.7003    0.2667 C   0  0  0  0  0  0  0  0  0  0  0  0
    0.1441   -1.6624    0.6213 C   0  0  0  0  0  0  0  0  0  0  0  0
    1.5512   -1.5278    0.7561 N   0  0  0  0  0  0  0  0  0  0  0  0
    2.3049   -0.3826    0.4517 C   0  0  0  0  0  0  0  0  0  0  0  0
    1.7856    0.6479   -0.0301 O   0  0  0  0  0  0  0  0  0  0  0  0
    3.6999   -0.3453    0.6827 N   0  0  0  0  0  0  0  0  0  0  0  0
    4.5423    0.7415    0.4082 C   0  0  0  0  0  0  0  0  0  0  0  0
    4.7347    1.8066    1.2473 C   0  0  0  0  0  0  0  0  0  0  0  0
    3.8677    1.9029    2.7671 Cl  0  0  0  0  0  0  0  0  0  0  0  0
    5.6182    2.8264    0.8892 C   0  0  0  0  0  0  0  0  0  0  0  0
    6.3055    2.7981   -0.2846 N   0  0  0  0  0  0  0  0  0  0  0  0
    6.1229    1.7584   -1.1128 C   0  0  0  0  0  0  0  0  0  0  0  0
    5.2615    0.7438   -0.7855 C   0  0  0  0  0  0  0  0  0  0  0  0
    5.0463   -0.6017   -1.8889 Cl  0  0  0  0  0  0  0  0  0  0  0  0
   -3.2774   -0.5416   -0.0043 C   0  0  0  0  0  0  0  0  0  0  0  0
   -4.5067   -1.1636    0.0796 C   0  0  0  0  0  0  0  0  0  0  0  0
   -5.6745   -0.4885   -0.2078 C   0  0  0  0  0  0  0  0  0  0  0  0
   -5.6534    0.8528   -0.5955 C   0  0  0  0  0  0  0  0  0  0  0  0
   -4.4365    1.4916   -0.6852 C   0  0  0  0  0  0  0  0  0  0  0  0
   -3.2705    0.7844   -0.3883 C   0  0  0  0  0  0  0  0  0  0  0  0
   -4.4034    2.9170   -1.1040 C   0  0  0  0  0  0  0  0  0  0  0  0
   -4.9210    3.0938   -2.3652 F   0  0  0  0  0  0  0  0  0  0  0  0
   -3.1009    3.3933   -1.1237 F   0  0  0  0  0  0  0  0  0  0  0  0
   -5.1081    3.7329   -0.2274 F   0  0  0  0  0  0  0  0  0  0  0  0
    0.4818   -3.9077    2.2544 H   0  0  0  0  0  0  0  0  0  0  0  0
    0.8155   -4.3523    0.4935 H   0  0  0  0  0  0  0  0  0  0  0  0
   -0.7352   -4.8637    1.2788 H   0  0  0  0  0  0  0  0  0  0  0  0
   -0.5806    0.3210   -0.0001 H   0  0  0  0  0  0  0  0  0  0  0  0
    2.1090   -2.3520    1.1584 H   0  0  0  0  0  0  0  0  0  0  0  0
    4.1441   -1.2053    1.0940 H   0  0  0  0  0  0  0  0  0  0  0  0
    5.7430    3.6480    1.5725 H   0  0  0  0  0  0  0  0  0  0  0  0
    6.6963    1.7704   -2.0516 H   0  0  0  0  0  0  0  0  0  0  0  0
   -4.5472   -2.2141    0.3833 H   0  0  0  0  0  0  0  0  0  0  0  0
   -6.6518   -0.9463   -0.1529 H   0  0  0  0  0  0  0  0  0  0  0  0
   -6.5913    1.3562   -0.8158 H   0  0  0  0  0  0  0  0  0  0  0  0
   -2.3069    1.2812   -0.4583 H   0  0  0  0  0  0  0  0  0  0  0  0
  1  2  1  0
  2  3  1  0
  3  4  2  0
  4  5  1  0
  5  6  2  0
  6  7  1  0
  7  8  1  0
  8  9  2  0
  8 10  1  0
 10 11  1  0
 11 12  2  0
 12 13  1  0
 12 14  1  0
 14 15  2  0
 15 16  1  0
 16 17  2  0
 17 18  1  0
  4 19  1  0
 19 20  2  0
 20 21  1  0
 21 22  2  0
 22 23  1  0
 23 24  2  0
 23 25  1  0
 25 26  1  0
 25 27  1  0
 25 28  1  0
  6  2  1  0
 17 11  1  0
 24 19  1  0
  1 29  1  0
  1 30  1  0
  1 31  1  0
  5 32  1  0
  7 33  1  0
 10 34  1  0
 14 35  1  0
 16 36  1  0
 20 37  1  0
 21 38  1  0
 22 39  1  0
 24 40  1  0
M  END
$$$$
[H]O[C@]1([H])C([H])([H])N([H])C([H])([H])[C@]1([H])C(=O)N([H])[C@@]1([H])C([H])([H])N(c2nc([H])nc3c([H])c(-c4c([H])c([H])c(OC([H])([H])[H])c(OC([H])([H])[H])c4[H])c([H])c([H])c23)C([H])([H])C([H])([H])C1([H])[H]
     RDKit          3D

 66 70  0  0  0  0  0  0  0  0999 V2000
    9.8779    2.4618    1.2254 C   0  0  0  0  0  0  0  0  0  0  0  0
    9.2327    1.3108    1.7034 O   0  0  0  0  0  0  0  0  0  0  0  0
    7.9177    1.0815    1.4337 C   0  0  0  0  0  0  0  0  0  0  0  0
    7.1555    1.9487    0.6838 C   0  0  0  0  0  0  0  0  0  0  0  0
    5.8151    1.6836    0.4300 C   0  0  0  0  0  0  0  0  0  0  0  0
    5.2414    0.5370    0.9361 C   0  0  0  0  0  0  0  0  0  0  0  0
    6.0102   -0.3243    1.6812 C   0  0  0  0  0  0  0  0  0  0  0  0
    7.3417   -0.0859    1.9480 C   0  0  0  0  0  0  0  0  0  0  0  0
    8.1211   -0.9596    2.7011 O   0  0  0  0  0  0  0  0  0  0  0  0
    7.5752   -2.1591    3.2236 C   0  0  0  0  0  0  0  0  0  0  0  0
    3.8314    0.2715    0.6943 C   0  0  0  0  0  0  0  0  0  0  0  0
    3.1553    0.6284   -0.4387 C   0  0  0  0  0  0  0  0  0  0  0  0
    1.7833    0.4147   -0.6242 C   0  0  0  0  0  0  0  0  0  0  0  0
    1.0823   -0.1834    0.3844 C   0  0  0  0  0  0  0  0  0  0  0  0
   -0.2658   -0.3848    0.2722 C   0  0  0  0  0  0  0  0  0  0  0  0
   -0.9216   -0.9726    1.3508 N   0  0  0  0  0  0  0  0  0  0  0  0
   -0.3159   -1.3380    2.4552 C   0  0  0  0  0  0  0  0  0  0  0  0
    1.0022   -1.1263    2.5340 N   0  0  0  0  0  0  0  0  0  0  0  0
    1.7167   -0.5725    1.5619 C   0  0  0  0  0  0  0  0  0  0  0  0
    3.0644   -0.3381    1.6873 C   0  0  0  0  0  0  0  0  0  0  0  0
   -1.0413   -0.0649   -0.8483 N   0  0  0  0  0  0  0  0  0  0  0  0
   -1.0190    0.9878   -1.8020 C   0  0  0  0  0  0  0  0  0  0  0  0
   -2.4495    1.2121   -2.3508 C   0  0  0  0  0  0  0  0  0  0  0  0
   -3.3741    1.3011   -1.2058 C   0  0  0  0  0  0  0  0  0  0  0  0
   -3.3666   -0.0507   -0.4502 C   0  0  2  0  0  0  0  0  0  0  0  0
   -2.2577   -0.9480   -1.0603 C   0  0  0  0  0  0  0  0  0  0  0  0
   -4.6116   -0.5913   -0.3808 N   0  0  0  0  0  0  0  0  0  0  0  0
   -5.8287   -1.1197   -0.3130 C   0  0  0  0  0  0  0  0  0  0  0  0
   -6.3760   -1.6190    0.7504 O   0  0  0  0  0  0  0  0  0  0  0  0
   -6.7907   -1.2315   -1.4840 C   0  0  1  0  0  0  0  0  0  0  0  0
   -8.0213   -2.0037   -1.1542 C   0  0  0  0  0  0  0  0  0  0  0  0
   -9.1523   -1.2640   -1.6900 N   0  0  0  0  0  0  0  0  0  0  0  0
   -8.5917   -0.3349   -2.6567 C   0  0  0  0  0  0  0  0  0  0  0  0
   -7.3052    0.0793   -1.9459 C   0  0  1  0  0  0  0  0  0  0  0  0
   -7.6319    0.9567   -0.9136 O   0  0  0  0  0  0  0  0  0  0  0  0
   10.8987    2.5353    1.6956 H   0  0  0  0  0  0  0  0  0  0  0  0
    9.9725    2.4005    0.1270 H   0  0  0  0  0  0  0  0  0  0  0  0
    9.3561    3.4011    1.5156 H   0  0  0  0  0  0  0  0  0  0  0  0
    7.5862    2.8660    0.2644 H   0  0  0  0  0  0  0  0  0  0  0  0
    5.2736    2.4073   -0.1680 H   0  0  0  0  0  0  0  0  0  0  0  0
    5.6248   -1.2515    2.0990 H   0  0  0  0  0  0  0  0  0  0  0  0
    6.7823   -2.0115    3.9671 H   0  0  0  0  0  0  0  0  0  0  0  0
    7.0848   -2.6776    2.3592 H   0  0  0  0  0  0  0  0  0  0  0  0
    8.3668   -2.8662    3.5601 H   0  0  0  0  0  0  0  0  0  0  0  0
    3.7275    1.0984   -1.2260 H   0  0  0  0  0  0  0  0  0  0  0  0
    1.3478    0.7184   -1.5483 H   0  0  0  0  0  0  0  0  0  0  0  0
   -0.8678   -1.8017    3.2852 H   0  0  0  0  0  0  0  0  0  0  0  0
    3.5857   -0.6227    2.5969 H   0  0  0  0  0  0  0  0  0  0  0  0
   -0.4771    0.7176   -2.7517 H   0  0  0  0  0  0  0  0  0  0  0  0
   -0.7019    1.9245   -1.3479 H   0  0  0  0  0  0  0  0  0  0  0  0
   -2.3417    2.2014   -2.8979 H   0  0  0  0  0  0  0  0  0  0  0  0
   -2.7032    0.4778   -3.1150 H   0  0  0  0  0  0  0  0  0  0  0  0
   -3.0726    2.1395   -0.5460 H   0  0  0  0  0  0  0  0  0  0  0  0
   -4.4112    1.5446   -1.5219 H   0  0  0  0  0  0  0  0  0  0  0  0
   -2.9328    0.2574    0.5446 H   0  0  0  0  0  0  0  0  0  0  0  0
   -2.1688   -1.8229   -0.4239 H   0  0  0  0  0  0  0  0  0  0  0  0
   -2.4094   -1.1923   -2.0855 H   0  0  0  0  0  0  0  0  0  0  0  0
   -4.4208   -0.9450    0.9534 H   0  0  0  0  0  0  0  0  0  0  0  0
   -6.1934   -1.6797   -2.3118 H   0  0  0  0  0  0  0  0  0  0  0  0
   -7.9748   -3.0169   -1.6217 H   0  0  0  0  0  0  0  0  0  0  0  0
   -8.1369   -2.0790   -0.0615 H   0  0  0  0  0  0  0  0  0  0  0  0
   -9.5453   -0.6530   -0.9186 H   0  0  0  0  0  0  0  0  0  0  0  0
   -9.2674    0.5093   -2.8362 H   0  0  0  0  0  0  0  0  0  0  0  0
   -8.3100   -0.8853   -3.5638 H   0  0  0  0  0  0  0  0  0  0  0  0
   -6.6406    0.5959   -2.6706 H   0  0  0  0  0  0  0  0  0  0  0  0
   -7.6342    0.5075   -0.0284 H   0  0  0  0  0  0  0  0  0  0  0  0
  1  2  1  0
  2  3  1  0
  3  4  2  0
  4  5  1  0
  5  6  2  0
  6  7  1  0
  7  8  2  0
  8  9  1  0
  9 10  1  0
  6 11  1  0
 11 12  2  0
 12 13  1  0
 13 14  2  0
 14 15  1  0
 15 16  2  0
 16 17  1  0
 17 18  2  0
 18 19  1  0
 19 20  2  0
 15 21  1  0
 21 22  1  0
 22 23  1  0
 23 24  1  0
 24 25  1  0
 25 26  1  0
 25 27  1  0
 27 28  1  0
 28 29  2  0
 28 30  1  0
 30 31  1  0
 31 32  1  0
 32 33  1  0
 33 34  1  0
 34 35  1  0
  8  3  1  0
 20 11  1  0
 26 21  1  0
 34 30  1  0
 19 14  1  0
  1 36  1  0
  1 37  1  0
  1 38  1  0
  4 39  1  0
  5 40  1  0
  7 41  1  0
 10 42  1  0
 10 43  1  0
 10 44  1  0
 12 45  1  0
 13 46  1  0
 17 47  1  0
 20 48  1  0
 22 49  1  0
 22 50  1  0
 23 51  1  0
 23 52  1  0
 24 53  1  0
 24 54  1  0
 25 55  1  1
 26 56  1  0
 26 57  1  0
 27 58  1  0
 30 59  1  6
 31 60  1  0
 31 61  1  0
 32 62  1  0
 33 63  1  0
 33 64  1  0
 34 65  1  6
 35 66  1  0
M  END
$$$$
[H]c1nc([H])c2sc(C(=O)N([H])[H])c([H])c2c1Oc1c([H])c([H])c(N([H])C(=O)c2c([H])c([H])c(C(F)(F)F)c(C(F)(F)F)c2[H])c([H])c1[H]
     RDKit          3D

 49 52  0  0  0  0  0  0  0  0999 V2000
  -10.0187    1.9768    0.2863 N   0  0  0  0  0  0  0  0  0  0  0  0
   -8.6348    2.2121    0.2276 C   0  0  0  0  0  0  0  0  0  0  0  0
   -8.1741    3.3726    0.1740 O   0  0  0  0  0  0  0  0  0  0  0  0
   -7.6663    1.0871    0.2270 C   0  0  0  0  0  0  0  0  0  0  0  0
   -6.3036    1.1474    0.1745 C   0  0  0  0  0  0  0  0  0  0  0  0
   -5.6334   -0.0303    0.1867 C   0  0  0  0  0  0  0  0  0  0  0  0
   -4.2335   -0.2016    0.1402 C   0  0  0  0  0  0  0  0  0  0  0  0
   -3.3586    0.8672    0.0740 O   0  0  0  0  0  0  0  0  0  0  0  0
   -1.9913    0.7064    0.0283 C   0  0  0  0  0  0  0  0  0  0  0  0
   -1.2649    0.6639    1.2044 C   0  0  0  0  0  0  0  0  0  0  0  0
    0.0920    0.5037    1.1318 C   0  0  0  0  0  0  0  0  0  0  0  0
    0.7512    0.3831   -0.1023 C   0  0  0  0  0  0  0  0  0  0  0  0
    2.1596    0.1955   -0.0741 N   0  0  0  0  0  0  0  0  0  0  0  0
    3.0218    0.4481   -1.1455 C   0  0  0  0  0  0  0  0  0  0  0  0
    2.6000    0.8839   -2.2422 O   0  0  0  0  0  0  0  0  0  0  0  0
    4.4644    0.1927   -0.9689 C   0  0  0  0  0  0  0  0  0  0  0  0
    5.3695    0.8690   -1.7443 C   0  0  0  0  0  0  0  0  0  0  0  0
    6.7001    0.5982   -1.5593 C   0  0  0  0  0  0  0  0  0  0  0  0
    7.1938   -0.3259   -0.6282 C   0  0  0  0  0  0  0  0  0  0  0  0
    6.2844   -0.9971    0.1412 C   0  0  0  0  0  0  0  0  0  0  0  0
    4.9143   -0.7121   -0.0555 C   0  0  0  0  0  0  0  0  0  0  0  0
    6.6529   -1.9883    1.1288 C   0  0  0  0  0  0  0  0  0  0  0  0
    7.4512   -1.6163    2.1593 F   0  0  0  0  0  0  0  0  0  0  0  0
    7.0565   -3.2202    0.5742 F   0  0  0  0  0  0  0  0  0  0  0  0
    5.4641   -2.3881    1.7892 F   0  0  0  0  0  0  0  0  0  0  0  0
    8.6243   -0.5312   -0.4988 C   0  0  0  0  0  0  0  0  0  0  0  0
    9.2405    0.2936   -1.4803 F   0  0  0  0  0  0  0  0  0  0  0  0
    9.1796    0.0367    0.6685 F   0  0  0  0  0  0  0  0  0  0  0  0
    9.1265   -1.7542   -0.7841 F   0  0  0  0  0  0  0  0  0  0  0  0
   -0.0046    0.4296   -1.2425 C   0  0  0  0  0  0  0  0  0  0  0  0
   -1.3784    0.5914   -1.1901 C   0  0  0  0  0  0  0  0  0  0  0  0
   -3.7107   -1.4568    0.1603 C   0  0  0  0  0  0  0  0  0  0  0  0
   -4.4372   -2.6001    0.2232 N   0  0  0  0  0  0  0  0  0  0  0  0
   -5.7701   -2.4382    0.2676 C   0  0  0  0  0  0  0  0  0  0  0  0
   -6.3785   -1.1705    0.2503 C   0  0  0  0  0  0  0  0  0  0  0  0
   -7.9779   -0.5895    0.2914 S   0  0  0  0  0  0  0  0  0  0  0  0
  -10.6489    2.0123   -0.5401 H   0  0  0  0  0  0  0  0  0  0  0  0
  -10.4525    1.7523    1.2068 H   0  0  0  0  0  0  0  0  0  0  0  0
   -5.8233    2.1595    0.1249 H   0  0  0  0  0  0  0  0  0  0  0  0
   -1.7460    0.7542    2.1716 H   0  0  0  0  0  0  0  0  0  0  0  0
    0.6846    0.4685    2.0583 H   0  0  0  0  0  0  0  0  0  0  0  0
    2.5695   -0.1662    0.8507 H   0  0  0  0  0  0  0  0  0  0  0  0
    5.0436    1.6033   -2.4891 H   0  0  0  0  0  0  0  0  0  0  0  0
    7.4131    1.1454   -2.1850 H   0  0  0  0  0  0  0  0  0  0  0  0
    4.1810   -1.2442    0.5438 H   0  0  0  0  0  0  0  0  0  0  0  0
    0.4007    0.3319   -2.2284 H   0  0  0  0  0  0  0  0  0  0  0  0
   -1.9715    0.6282   -2.0914 H   0  0  0  0  0  0  0  0  0  0  0  0
   -2.6350   -1.5947    0.1247 H   0  0  0  0  0  0  0  0  0  0  0  0
   -6.4257   -3.2892    0.3187 H   0  0  0  0  0  0  0  0  0  0  0  0
  1  2  1  0
  2  3  2  0
  2  4  1  0
  4  5  2  0
  5  6  1  0
  6  7  2  0
  7  8  1  0
  8  9  1  0
  9 10  2  0
 10 11  1  0
 11 12  2  0
 12 13  1  0
 13 14  1  0
 14 15  2  0
 14 16  1  0
 16 17  2  0
 17 18  1  0
 18 19  2  0
 19 20  1  0
 20 21  2  0
 20 22  1  0
 22 23  1  0
 22 24  1  0
 22 25  1  0
 19 26  1  0
 26 27  1  0
 26 28  1  0
 26 29  1  0
 12 30  1  0
 30 31  2  0
  7 32  1  0
 32 33  2  0
 33 34  1  0
 34 35  2  0
 35 36  1  0
 36  4  1  0
 35  6  1  0
 31  9  1  0
 21 16  1  0
  1 37  1  0
  1 38  1  0
  5 39  1  0
 10 40  1  0
 11 41  1  0
 13 42  1  0
 17 43  1  0
 18 44  1  0
 21 45  1  0
 30 46  1  0
 31 47  1  0
 32 48  1  0
 34 49  1  0
M  END
$$$$
[H]c1nc2c([H])c(F)c(N([H])C(=O)c3nsc(C(=O)N([H])[H])n3)c([H])c2c([H])c1[H]
     RDKit          3D

 30 32  0  0  0  0  0  0  0  0999 V2000
    7.4104   -0.4451    0.2450 N   0  0  0  0  0  0  0  0  0  0  0  0
    6.1241   -0.9804    0.6210 C   0  0  0  0  0  0  0  0  0  0  0  0
    6.0753   -2.0016    1.3151 O   0  0  0  0  0  0  0  0  0  0  0  0
    4.9040   -0.3038    0.1732 C   0  0  0  0  0  0  0  0  0  0  0  0
    3.6390   -0.5983    0.3855 N   0  0  0  0  0  0  0  0  0  0  0  0
    2.7227    0.1635   -0.1230 C   0  0  0  0  0  0  0  0  0  0  0  0
    3.1092    1.2210   -0.8450 N   0  0  0  0  0  0  0  0  0  0  0  0
    4.7905    1.1039   -0.7817 S   0  0  0  0  0  0  0  0  0  0  0  0
    1.2641   -0.1198    0.0835 C   0  0  0  0  0  0  0  0  0  0  0  0
    0.9256   -1.1137    0.7617 O   0  0  0  0  0  0  0  0  0  0  0  0
    0.3086    0.7398   -0.4911 N   0  0  0  0  0  0  0  0  0  0  0  0
   -1.0866    0.6790   -0.4363 C   0  0  0  0  0  0  0  0  0  0  0  0
   -1.8100   -0.2868    0.2265 C   0  0  0  0  0  0  0  0  0  0  0  0
   -3.2093   -0.3267    0.2671 C   0  0  0  0  0  0  0  0  0  0  0  0
   -3.8774   -1.3180    0.9468 C   0  0  0  0  0  0  0  0  0  0  0  0
   -5.2704   -1.3117    0.9559 C   0  0  0  0  0  0  0  0  0  0  0  0
   -5.9276   -0.3053    0.2788 C   0  0  0  0  0  0  0  0  0  0  0  0
   -5.2255    0.6400   -0.3700 N   0  0  0  0  0  0  0  0  0  0  0  0
   -3.8760    0.6705   -0.4037 C   0  0  0  0  0  0  0  0  0  0  0  0
   -3.1775    1.6484   -1.0746 C   0  0  0  0  0  0  0  0  0  0  0  0
   -1.8116    1.6799   -1.1091 C   0  0  0  0  0  0  0  0  0  0  0  0
   -1.1529    2.6792   -1.7941 F   0  0  0  0  0  0  0  0  0  0  0  0
    7.7925   -0.6244   -0.6868 H   0  0  0  0  0  0  0  0  0  0  0  0
    7.9093    0.1131    0.9487 H   0  0  0  0  0  0  0  0  0  0  0  0
    0.7224    1.5613   -1.0530 H   0  0  0  0  0  0  0  0  0  0  0  0
   -1.3192   -1.0906    0.7677 H   0  0  0  0  0  0  0  0  0  0  0  0
   -3.3335   -2.0931    1.4679 H   0  0  0  0  0  0  0  0  0  0  0  0
   -5.8429   -2.0804    1.4835 H   0  0  0  0  0  0  0  0  0  0  0  0
   -7.0195   -0.3115    0.2936 H   0  0  0  0  0  0  0  0  0  0  0  0
   -3.7577    2.4114   -1.5871 H   0  0  0  0  0  0  0  0  0  0  0  0
  1  2  1  0
  2  3  2  0
  2  4  1  0
  4  5  2  0
  5  6  1  0
  6  7  2  0
  7  8  1  0
  6  9  1  0
  9 10  2  0
  9 11  1  0
 11 12  1  0
 12 13  2  0
 13 14  1  0
 14 15  2  0
 15 16  1  0
 16 17  2  0
 17 18  1  0
 18 19  2  0
 19 20  1  0
 20 21  2  0
 21 22  1  0
  8  4  1  0
 21 12  1  0
 19 14  1  0
  1 23  1  0
  1 24  1  0
 11 25  1  0
 13 26  1  0
 15 27  1  0
 16 28  1  0
 17 29  1  0
 20 30  1  0
M  END
$$$$
[H]N=C1N([H])C([H])([H])C([H])([H])C([H])([H])C([H])([H])C([H])(N([H])C([H])([H])C([H])([H])C([H])([H])N([H])S(=O)(=O)c2c([H])c([H])c([H])c(Cl)c2[H])C12C([H])([H])C([H])([H])C([H])([H])C2([H])[H]
     RDKit          3D

 59 61  0  0  0  0  0  0  0  0999 V2000
    7.0149    2.7022    1.5262 Cl  0  0  0  0  0  0  0  0  0  0  0  0
    6.5260    1.1207    1.0196 C   0  0  0  0  0  0  0  0  0  0  0  0
    6.9184    0.0205    1.7400 C   0  0  0  0  0  0  0  0  0  0  0  0
    6.5537   -1.2676    1.3776 C   0  0  0  0  0  0  0  0  0  0  0  0
    5.7650   -1.4695    0.2507 C   0  0  0  0  0  0  0  0  0  0  0  0
    5.3797   -0.3590   -0.4607 C   0  0  0  0  0  0  0  0  0  0  0  0
    5.7435    0.9158   -0.0979 C   0  0  0  0  0  0  0  0  0  0  0  0
    4.3887   -0.5689   -1.8780 S   0  0  0  0  0  0  0  0  0  0  0  0
    4.7080    0.5400   -2.8428 O   0  0  0  0  0  0  0  0  0  0  0  0
    4.6729   -1.8635   -2.5554 O   0  0  0  0  0  0  0  0  0  0  0  0
    2.7497   -0.5027   -1.3864 N   0  0  0  0  0  0  0  0  0  0  0  0
    2.5046   -1.5835   -0.4658 C   0  0  0  0  0  0  0  0  0  0  0  0
    1.0390   -1.5349   -0.0160 C   0  0  0  0  0  0  0  0  0  0  0  0
    0.8405   -0.2081    0.6458 C   0  0  0  0  0  0  0  0  0  0  0  0
   -0.5091   -0.0967    1.0927 N   0  0  0  0  0  0  0  0  0  0  0  0
   -1.5074   -0.0046    0.0838 C   0  0  0  0  0  0  0  0  0  0  0  0
   -1.3629    1.2197   -0.7914 C   0  0  0  0  0  0  0  0  0  0  0  0
   -2.1797    1.1764   -2.0328 C   0  0  0  0  0  0  0  0  0  0  0  0
   -2.9537    2.4731   -2.2918 C   0  0  0  0  0  0  0  0  0  0  0  0
   -4.2917    2.3092   -1.5966 C   0  0  0  0  0  0  0  0  0  0  0  0
   -4.1335    2.1986   -0.1697 N   0  0  0  0  0  0  0  0  0  0  0  0
   -3.3998    1.3803    0.7195 C   0  0  0  0  0  0  0  0  0  0  0  0
   -3.0850    1.9746    1.8423 N   0  0  0  0  0  0  0  0  0  0  0  0
   -2.8663   -0.0282    0.7306 C   0  0  0  0  0  0  0  0  0  0  0  0
   -3.8224   -0.9780    0.0359 C   0  0  0  0  0  0  0  0  0  0  0  0
   -4.3603   -1.9378    1.0341 C   0  0  0  0  0  0  0  0  0  0  0  0
   -3.2439   -1.9665    2.0875 C   0  0  0  0  0  0  0  0  0  0  0  0
   -2.9116   -0.4936    2.1382 C   0  0  0  0  0  0  0  0  0  0  0  0
    7.5382    0.1641    2.6291 H   0  0  0  0  0  0  0  0  0  0  0  0
    6.8455   -2.1336    1.9207 H   0  0  0  0  0  0  0  0  0  0  0  0
    5.4784   -2.4584   -0.0370 H   0  0  0  0  0  0  0  0  0  0  0  0
    5.4469    1.7821   -0.6474 H   0  0  0  0  0  0  0  0  0  0  0  0
    2.0705   -0.4375   -2.1510 H   0  0  0  0  0  0  0  0  0  0  0  0
    3.0894   -1.4415    0.4739 H   0  0  0  0  0  0  0  0  0  0  0  0
    2.7739   -2.5791   -0.8647 H   0  0  0  0  0  0  0  0  0  0  0  0
    0.3580   -1.7749   -0.8282 H   0  0  0  0  0  0  0  0  0  0  0  0
    0.9776   -2.3119    0.8031 H   0  0  0  0  0  0  0  0  0  0  0  0
    1.4796   -0.2229    1.5799 H   0  0  0  0  0  0  0  0  0  0  0  0
    1.2145    0.6489    0.0670 H   0  0  0  0  0  0  0  0  0  0  0  0
   -0.6887   -1.0234    1.5936 H   0  0  0  0  0  0  0  0  0  0  0  0
   -1.4465   -0.8855   -0.5841 H   0  0  0  0  0  0  0  0  0  0  0  0
   -0.2890    1.3205   -1.1259 H   0  0  0  0  0  0  0  0  0  0  0  0
   -1.5604    2.1704   -0.2620 H   0  0  0  0  0  0  0  0  0  0  0  0
   -1.5526    1.0447   -2.9657 H   0  0  0  0  0  0  0  0  0  0  0  0
   -2.9231    0.3713   -2.0841 H   0  0  0  0  0  0  0  0  0  0  0  0
   -2.4204    3.3272   -1.8291 H   0  0  0  0  0  0  0  0  0  0  0  0
   -3.1509    2.6196   -3.3716 H   0  0  0  0  0  0  0  0  0  0  0  0
   -4.7906    1.4464   -2.0504 H   0  0  0  0  0  0  0  0  0  0  0  0
   -4.8936    3.2155   -1.8465 H   0  0  0  0  0  0  0  0  0  0  0  0
   -4.7019    2.8968    0.3393 H   0  0  0  0  0  0  0  0  0  0  0  0
   -3.3391    2.9388    2.0690 H   0  0  0  0  0  0  0  0  0  0  0  0
   -4.6524   -0.4559   -0.4572 H   0  0  0  0  0  0  0  0  0  0  0  0
   -3.2693   -1.5822   -0.7388 H   0  0  0  0  0  0  0  0  0  0  0  0
   -4.4376   -2.9642    0.6335 H   0  0  0  0  0  0  0  0  0  0  0  0
   -5.3262   -1.6448    1.4788 H   0  0  0  0  0  0  0  0  0  0  0  0
   -2.4711   -2.6116    1.6842 H   0  0  0  0  0  0  0  0  0  0  0  0
   -3.6078   -2.3432    3.0409 H   0  0  0  0  0  0  0  0  0  0  0  0
   -2.0975   -0.2177    2.7941 H   0  0  0  0  0  0  0  0  0  0  0  0
   -3.8313   -0.0261    2.6096 H   0  0  0  0  0  0  0  0  0  0  0  0
  1  2  1  0
  2  3  2  0
  3  4  1  0
  4  5  2  0
  5  6  1  0
  6  7  2  0
  6  8  1  0
  8  9  2  0
  8 10  2  0
  8 11  1  0
 11 12  1  0
 12 13  1  0
 13 14  1  0
 14 15  1  0
 15 16  1  0
 16 17  1  0
 17 18  1  0
 18 19  1  0
 19 20  1  0
 20 21  1  0
 21 22  1  0
 22 23  2  3
 22 24  1  0
 24 25  1  0
 25 26  1  0
 26 27  1  0
 27 28  1  0
  7  2  1  0
 24 16  1  0
 28 24  1  0
  3 29  1  0
  4 30  1  0
  5 31  1  0
  7 32  1  0
 11 33  1  0
 12 34  1  0
 12 35  1  0
 13 36  1  0
 13 37  1  0
 14 38  1  0
 14 39  1  0
 15 40  1  0
 16 41  1  0
 17 42  1  0
 17 43  1  0
 18 44  1  0
 18 45  1  0
 19 46  1  0
 19 47  1  0
 20 48  1  0
 20 49  1  0
 21 50  1  0
 23 51  1  0
 25 52  1  0
 25 53  1  0
 26 54  1  0
 26 55  1  0
 27 56  1  0
 27 57  1  0
 28 58  1  0
 28 59  1  0
M  END
$$$$
[H]N=C(c1c([H])c([H])c(OC(=O)c2c([H])c([H])c3c([H])c(C([H])([H])C([H])([H])N=C(N([H])[H])N([H])[H])c([H])c([H])c3c2[H])c(F)c1[H])N([H])[H]
     RDKit          3D

 49 51  0  0  0  0  0  0  0  0999 V2000
   -6.3022   -0.5747    2.3512 N   0  0  0  0  0  0  0  0  0  0  0  0
   -6.7142   -0.2105    1.0456 C   0  0  0  0  0  0  0  0  0  0  0  0
   -7.9275   -0.6671    0.4878 N   0  0  0  0  0  0  0  0  0  0  0  0
   -5.9407    0.5649    0.3601 N   0  0  0  0  0  0  0  0  0  0  0  0
   -6.3077    0.9738   -0.9846 C   0  0  0  0  0  0  0  0  0  0  0  0
   -5.5219    0.1262   -1.9746 C   0  0  0  0  0  0  0  0  0  0  0  0
   -4.0621    0.3037   -1.7941 C   0  0  0  0  0  0  0  0  0  0  0  0
   -3.3277    1.2647   -2.4568 C   0  0  0  0  0  0  0  0  0  0  0  0
   -1.9680    1.4309   -2.2894 C   0  0  0  0  0  0  0  0  0  0  0  0
   -1.2995    0.5944   -1.4134 C   0  0  0  0  0  0  0  0  0  0  0  0
    0.0649    0.7237   -1.2131 C   0  0  0  0  0  0  0  0  0  0  0  0
    0.7042   -0.1193   -0.3382 C   0  0  0  0  0  0  0  0  0  0  0  0
   -0.0415   -1.0726    0.3153 C   0  0  0  0  0  0  0  0  0  0  0  0
   -1.3903   -1.2289    0.1419 C   0  0  0  0  0  0  0  0  0  0  0  0
   -2.0279   -0.3796   -0.7381 C   0  0  0  0  0  0  0  0  0  0  0  0
   -3.3847   -0.5260   -0.9219 C   0  0  0  0  0  0  0  0  0  0  0  0
    2.1370    0.0370   -0.1454 C   0  0  0  0  0  0  0  0  0  0  0  0
    2.7833    0.9209   -0.7617 O   0  0  0  0  0  0  0  0  0  0  0  0
    2.8727   -0.7652    0.7163 O   0  0  0  0  0  0  0  0  0  0  0  0
    4.2421   -0.5887    0.8770 C   0  0  0  0  0  0  0  0  0  0  0  0
    5.1166   -1.2831    0.0528 C   0  0  0  0  0  0  0  0  0  0  0  0
    6.4788   -1.1153    0.2036 C   0  0  0  0  0  0  0  0  0  0  0  0
    6.9738   -0.2550    1.1763 C   0  0  0  0  0  0  0  0  0  0  0  0
    6.1066    0.4351    1.9953 C   0  0  0  0  0  0  0  0  0  0  0  0
    4.7470    0.2625    1.8389 C   0  0  0  0  0  0  0  0  0  0  0  0
    3.8399    0.9119    2.6125 F   0  0  0  0  0  0  0  0  0  0  0  0
    8.3963   -0.0972    1.3138 C   0  0  0  0  0  0  0  0  0  0  0  0
    9.3086   -0.8107    0.4666 N   0  0  0  0  0  0  0  0  0  0  0  0
    8.8695    0.6950    2.2089 N   0  0  0  0  0  0  0  0  0  0  0  0
   -6.9932   -0.7432    3.1212 H   0  0  0  0  0  0  0  0  0  0  0  0
   -5.2697   -0.6818    2.5637 H   0  0  0  0  0  0  0  0  0  0  0  0
   -7.9248   -1.5025   -0.1286 H   0  0  0  0  0  0  0  0  0  0  0  0
   -8.8041   -0.1671    0.6977 H   0  0  0  0  0  0  0  0  0  0  0  0
   -6.0075    2.0271   -1.1662 H   0  0  0  0  0  0  0  0  0  0  0  0
   -7.3801    0.8377   -1.1642 H   0  0  0  0  0  0  0  0  0  0  0  0
   -5.7802    0.5239   -2.9932 H   0  0  0  0  0  0  0  0  0  0  0  0
   -5.7596   -0.9381   -1.8970 H   0  0  0  0  0  0  0  0  0  0  0  0
   -3.8452    1.9247   -3.1456 H   0  0  0  0  0  0  0  0  0  0  0  0
   -1.3972    2.1933   -2.8178 H   0  0  0  0  0  0  0  0  0  0  0  0
    0.5979    1.5064   -1.7676 H   0  0  0  0  0  0  0  0  0  0  0  0
    0.4461   -1.7614    1.0223 H   0  0  0  0  0  0  0  0  0  0  0  0
   -1.9405   -1.9911    0.6749 H   0  0  0  0  0  0  0  0  0  0  0  0
   -3.9226   -1.2784   -0.3947 H   0  0  0  0  0  0  0  0  0  0  0  0
    4.7503   -1.9573   -0.7102 H   0  0  0  0  0  0  0  0  0  0  0  0
    7.1445   -1.6719   -0.4560 H   0  0  0  0  0  0  0  0  0  0  0  0
    6.4348    1.1148    2.7658 H   0  0  0  0  0  0  0  0  0  0  0  0
   10.2261   -1.1019    0.8606 H   0  0  0  0  0  0  0  0  0  0  0  0
    9.0943   -1.0498   -0.5230 H   0  0  0  0  0  0  0  0  0  0  0  0
    9.9051    0.8241    2.3253 H   0  0  0  0  0  0  0  0  0  0  0  0
  1  2  1  0
  2  3  1  0
  2  4  2  3
  4  5  1  0
  5  6  1  0
  6  7  1  0
  7  8  2  0
  8  9  1  0
  9 10  2  0
 10 11  1  0
 11 12  2  0
 12 13  1  0
 13 14  2  0
 14 15  1  0
 15 16  2  0
 12 17  1  0
 17 18  2  0
 17 19  1  0
 19 20  1  0
 20 21  2  0
 21 22  1  0
 22 23  2  0
 23 24  1  0
 24 25  2  0
 25 26  1  0
 23 27  1  0
 27 28  1  0
 27 29  2  3
 16  7  1  0
 25 20  1  0
 15 10  1  0
  1 30  1  0
  1 31  1  0
  3 32  1  0
  3 33  1  0
  5 34  1  0
  5 35  1  0
  6 36  1  0
  6 37  1  0
  8 38  1  0
  9 39  1  0
 11 40  1  0
 13 41  1  0
 14 42  1  0
 16 43  1  0
 21 44  1  0
 22 45  1  0
 24 46  1  0
 28 47  1  0
 28 48  1  0
 29 49  1  0
M  END
$$$$
[H]c1c([H])c(OC([H])([H])[H])c(C([H])([H])Oc2c([H])c(N([H])c3c([H])c([H])c(C([H])([H])[H])c4c([H])c([H])c([H])c([H])c34)c([H])c([H])c2C([H])([H])[H])c([H])c1F
     RDKit          3D

 54 57  0  0  0  0  0  0  0  0999 V2000
   -4.1303   -3.4690   -1.1188 C   0  0  0  0  0  0  0  0  0  0  0  0
   -3.7289   -2.1820   -0.7689 O   0  0  0  0  0  0  0  0  0  0  0  0
   -4.5776   -1.0774   -0.7590 C   0  0  0  0  0  0  0  0  0  0  0  0
   -5.8941   -1.1464   -1.0927 C   0  0  0  0  0  0  0  0  0  0  0  0
   -6.7428   -0.0614   -1.0866 C   0  0  0  0  0  0  0  0  0  0  0  0
   -6.1748    1.1534   -0.7104 C   0  0  0  0  0  0  0  0  0  0  0  0
   -7.0193    2.2384   -0.7032 F   0  0  0  0  0  0  0  0  0  0  0  0
   -4.8510    1.2662   -0.3662 C   0  0  0  0  0  0  0  0  0  0  0  0
   -4.0511    0.1480   -0.3908 C   0  0  0  0  0  0  0  0  0  0  0  0
   -2.5900    0.2132   -0.0226 C   0  0  0  0  0  0  0  0  0  0  0  0
   -2.2895    1.5261    0.3078 O   0  0  0  0  0  0  0  0  0  0  0  0
   -1.0955    2.0439    0.6997 C   0  0  0  0  0  0  0  0  0  0  0  0
    0.0799    1.3383    0.8474 C   0  0  0  0  0  0  0  0  0  0  0  0
    1.2779    1.8922    1.2467 C   0  0  0  0  0  0  0  0  0  0  0  0
    2.4966    1.1830    1.3753 N   0  0  0  0  0  0  0  0  0  0  0  0
    2.9529    0.1393    0.5364 C   0  0  0  0  0  0  0  0  0  0  0  0
    2.4074   -0.1143   -0.6997 C   0  0  0  0  0  0  0  0  0  0  0  0
    2.8583   -1.0884   -1.5699 C   0  0  0  0  0  0  0  0  0  0  0  0
    3.9237   -1.8608   -1.1843 C   0  0  0  0  0  0  0  0  0  0  0  0
    4.4860   -2.9361   -2.0478 C   0  0  0  0  0  0  0  0  0  0  0  0
    4.5215   -1.6599    0.0458 C   0  0  0  0  0  0  0  0  0  0  0  0
    5.5954   -2.4543    0.4216 C   0  0  0  0  0  0  0  0  0  0  0  0
    6.1774   -2.2487    1.6495 C   0  0  0  0  0  0  0  0  0  0  0  0
    5.7204   -1.2788    2.5075 C   0  0  0  0  0  0  0  0  0  0  0  0
    4.6372   -0.4800    2.1242 C   0  0  0  0  0  0  0  0  0  0  0  0
    4.0406   -0.6653    0.9048 C   0  0  0  0  0  0  0  0  0  0  0  0
    1.3226    3.2540    1.5248 C   0  0  0  0  0  0  0  0  0  0  0  0
    0.1727    3.9843    1.3885 C   0  0  0  0  0  0  0  0  0  0  0  0
   -1.0100    3.4007    0.9864 C   0  0  0  0  0  0  0  0  0  0  0  0
   -2.2133    4.2358    0.8573 C   0  0  0  0  0  0  0  0  0  0  0  0
   -3.3719   -4.1852   -0.6924 H   0  0  0  0  0  0  0  0  0  0  0  0
   -4.1781   -3.5400   -2.2257 H   0  0  0  0  0  0  0  0  0  0  0  0
   -5.1345   -3.6732   -0.6724 H   0  0  0  0  0  0  0  0  0  0  0  0
   -6.3042   -2.0948   -1.3784 H   0  0  0  0  0  0  0  0  0  0  0  0
   -7.7855   -0.1571   -1.3590 H   0  0  0  0  0  0  0  0  0  0  0  0
   -4.4776    2.2346   -0.0856 H   0  0  0  0  0  0  0  0  0  0  0  0
   -1.9651   -0.2256   -0.8062 H   0  0  0  0  0  0  0  0  0  0  0  0
   -2.5000   -0.4038    0.9103 H   0  0  0  0  0  0  0  0  0  0  0  0
    0.0211    0.2775    0.6420 H   0  0  0  0  0  0  0  0  0  0  0  0
    3.0954    1.4979    2.1772 H   0  0  0  0  0  0  0  0  0  0  0  0
    1.5908    0.4820   -1.0487 H   0  0  0  0  0  0  0  0  0  0  0  0
    2.4196   -1.2688   -2.5245 H   0  0  0  0  0  0  0  0  0  0  0  0
    3.9591   -3.0157   -3.0061 H   0  0  0  0  0  0  0  0  0  0  0  0
    5.5318   -2.6585   -2.2568 H   0  0  0  0  0  0  0  0  0  0  0  0
    4.4438   -3.9241   -1.5555 H   0  0  0  0  0  0  0  0  0  0  0  0
    5.9586   -3.2257   -0.2610 H   0  0  0  0  0  0  0  0  0  0  0  0
    7.0163   -2.8624    1.9538 H   0  0  0  0  0  0  0  0  0  0  0  0
    6.1578   -1.0955    3.4775 H   0  0  0  0  0  0  0  0  0  0  0  0
    4.2939    0.2706    2.8221 H   0  0  0  0  0  0  0  0  0  0  0  0
    2.2677    3.7166    1.8454 H   0  0  0  0  0  0  0  0  0  0  0  0
    0.2515    5.0550    1.6177 H   0  0  0  0  0  0  0  0  0  0  0  0
   -3.1026    3.7857    1.3567 H   0  0  0  0  0  0  0  0  0  0  0  0
   -2.0565    5.2236    1.3765 H   0  0  0  0  0  0  0  0  0  0  0  0
   -2.4336    4.4925   -0.1946 H   0  0  0  0  0  0  0  0  0  0  0  0
  1  2  1  0
  2  3  1  0
  3  4  2  0
  4  5  1  0
  5  6  2  0
  6  7  1  0
  6  8  1  0
  8  9  2  0
  9 10  1  0
 10 11  1  0
 11 12  1  0
 12 13  2  0
 13 14  1  0
 14 15  1  0
 15 16  1  0
 16 17  2  0
 17 18  1  0
 18 19  2  0
 19 20  1  0
 19 21  1  0
 21 22  2  0
 22 23  1  0
 23 24  2  0
 24 25  1  0
 25 26  2  0
 14 27  2  0
 27 28  1  0
 28 29  2  0
 29 30  1  0
  9  3  1  0
 29 12  1  0
 26 16  1  0
 26 21  1  0
  1 31  1  0
  1 32  1  0
  1 33  1  0
  4 34  1  0
  5 35  1  0
  8 36  1  0
 10 37  1  0
 10 38  1  0
 13 39  1  0
 15 40  1  0
 17 41  1  0
 18 42  1  0
 20 43  1  0
 20 44  1  0
 20 45  1  0
 22 46  1  0
 23 47  1  0
 24 48  1  0
 25 49  1  0
 27 50  1  0
 28 51  1  0
 30 52  1  0
 30 53  1  0
 30 54  1  0
M  END
$$$$
[H]OC1([H])C([H])([H])C([H])([H])C([H])(N([H])c2nc(N([H])c3c([H])c([H])c([H])c(Cl)c3[H])nc([H])c2-c2c([H])c([H])c([H])c([H])c2F)C([H])([H])C1([H])[H]
     RDKit          3D

 51 54  0  0  0  0  0  0  0  0999 V2000
    1.0880    3.4644    2.0735 F   0  0  0  0  0  0  0  0  0  0  0  0
    0.3725    3.9281    1.0183 C   0  0  0  0  0  0  0  0  0  0  0  0
   -0.0935    5.2382    1.0715 C   0  0  0  0  0  0  0  0  0  0  0  0
   -0.8181    5.6916   -0.0055 C   0  0  0  0  0  0  0  0  0  0  0  0
   -1.0886    4.9133   -1.1070 C   0  0  0  0  0  0  0  0  0  0  0  0
   -0.6059    3.6151   -1.1204 C   0  0  0  0  0  0  0  0  0  0  0  0
    0.1169    3.1228   -0.0692 C   0  0  0  0  0  0  0  0  0  0  0  0
    0.6515    1.7739   -0.1240 C   0  0  0  0  0  0  0  0  0  0  0  0
    2.0514    1.6758   -0.0322 C   0  0  0  0  0  0  0  0  0  0  0  0
    2.6213    0.4673   -0.1259 N   0  0  0  0  0  0  0  0  0  0  0  0
    1.9042   -0.6538   -0.3043 C   0  0  0  0  0  0  0  0  0  0  0  0
    2.5020   -1.9296   -0.4408 N   0  0  0  0  0  0  0  0  0  0  0  0
    3.8946   -2.1949   -0.4484 C   0  0  0  0  0  0  0  0  0  0  0  0
    4.8633   -1.3245   -0.8912 C   0  0  0  0  0  0  0  0  0  0  0  0
    6.1819   -1.6998   -0.8163 C   0  0  0  0  0  0  0  0  0  0  0  0
    6.5929   -2.9083   -0.3233 C   0  0  0  0  0  0  0  0  0  0  0  0
    5.6285   -3.8060    0.1296 C   0  0  0  0  0  0  0  0  0  0  0  0
    6.1642   -5.3618    0.7728 Cl  0  0  0  0  0  0  0  0  0  0  0  0
    4.3196   -3.4438    0.0636 C   0  0  0  0  0  0  0  0  0  0  0  0
    0.5495   -0.5297   -0.3880 N   0  0  0  0  0  0  0  0  0  0  0  0
   -0.0901    0.6453   -0.3030 C   0  0  0  0  0  0  0  0  0  0  0  0
   -1.4965    0.7211   -0.3777 N   0  0  0  0  0  0  0  0  0  0  0  0
   -2.3975   -0.3958   -0.5671 C   0  0  0  0  0  0  0  0  0  0  0  0
   -3.7879    0.1433   -0.6940 C   0  0  0  0  0  0  0  0  0  0  0  0
   -4.8699   -0.8756   -0.5648 C   0  0  0  0  0  0  0  0  0  0  0  0
   -4.3574   -2.2572   -0.2435 C   0  0  0  0  0  0  0  0  0  0  0  0
   -5.4496   -3.0129    0.1772 O   0  0  0  0  0  0  0  0  0  0  0  0
   -3.4335   -2.1085    0.9446 C   0  0  0  0  0  0  0  0  0  0  0  0
   -2.2072   -1.3058    0.6099 C   0  0  0  0  0  0  0  0  0  0  0  0
    0.1211    5.8558    1.9256 H   0  0  0  0  0  0  0  0  0  0  0  0
   -1.1896    6.7000    0.0192 H   0  0  0  0  0  0  0  0  0  0  0  0
   -1.6613    5.2769   -1.9395 H   0  0  0  0  0  0  0  0  0  0  0  0
   -0.8187    3.0003   -2.0104 H   0  0  0  0  0  0  0  0  0  0  0  0
    2.6336    2.5795    0.1086 H   0  0  0  0  0  0  0  0  0  0  0  0
    1.8737   -2.7518   -0.5518 H   0  0  0  0  0  0  0  0  0  0  0  0
    4.6204   -0.3762   -1.3053 H   0  0  0  0  0  0  0  0  0  0  0  0
    6.9607   -1.0005   -1.1706 H   0  0  0  0  0  0  0  0  0  0  0  0
    7.6291   -3.2095   -0.2699 H   0  0  0  0  0  0  0  0  0  0  0  0
    3.5856   -4.1431    0.4177 H   0  0  0  0  0  0  0  0  0  0  0  0
   -1.9401    1.6704   -0.2793 H   0  0  0  0  0  0  0  0  0  0  0  0
   -2.1082   -0.8857   -1.5130 H   0  0  0  0  0  0  0  0  0  0  0  0
   -3.9452    0.9241    0.0758 H   0  0  0  0  0  0  0  0  0  0  0  0
   -3.8944    0.6487   -1.6722 H   0  0  0  0  0  0  0  0  0  0  0  0
   -5.5943   -0.6015    0.2370 H   0  0  0  0  0  0  0  0  0  0  0  0
   -5.4710   -0.9654   -1.4946 H   0  0  0  0  0  0  0  0  0  0  0  0
   -3.8918   -2.7611   -1.0846 H   0  0  0  0  0  0  0  0  0  0  0  0
   -5.2851   -3.9880    0.0158 H   0  0  0  0  0  0  0  0  0  0  0  0
   -3.9808   -1.6446    1.7805 H   0  0  0  0  0  0  0  0  0  0  0  0
   -3.1515   -3.1322    1.2714 H   0  0  0  0  0  0  0  0  0  0  0  0
   -1.8970   -0.7598    1.5242 H   0  0  0  0  0  0  0  0  0  0  0  0
   -1.4018   -2.0282    0.3781 H   0  0  0  0  0  0  0  0  0  0  0  0
  1  2  1  0
  2  3  2  0
  3  4  1  0
  4  5  2  0
  5  6  1  0
  6  7  2  0
  7  8  1  0
  8  9  2  0
  9 10  1  0
 10 11  2  0
 11 12  1  0
 12 13  1  0
 13 14  2  0
 14 15  1  0
 15 16  2  0
 16 17  1  0
 17 18  1  0
 17 19  2  0
 11 20  1  0
 20 21  2  0
 21 22  1  0
 22 23  1  0
 23 24  1  0
 24 25  1  0
 25 26  1  0
 26 27  1  0
 26 28  1  0
 28 29  1  0
  7  2  1  0
 21  8  1  0
 29 23  1  0
 19 13  1  0
  3 30  1  0
  4 31  1  0
  5 32  1  0
  6 33  1  0
  9 34  1  0
 12 35  1  0
 14 36  1  0
 15 37  1  0
 16 38  1  0
 19 39  1  0
 22 40  1  0
 23 41  1  0
 24 42  1  0
 24 43  1  0
 25 44  1  0
 25 45  1  0
 26 46  1  0
 27 47  1  0
 28 48  1  0
 28 49  1  0
 29 50  1  0
 29 51  1  0
M  END
$$$$
[H]c1c([H])c([H])c2c(c1[H])c1c3c(c4c5c([H])c([H])c([H])c([H])c5n5c4c1n2[C@@]1(C([H])([H])[H])O[C@]5([H])C([H])([H])[C@@]([H])(N([H])C([H])([H])[H])[C@@]1([H])OC([H])([H])[H])C(=O)N([H])C3([H])[H]
     RDKit          3D

 61 68  0  0  0  0  0  0  0  0999 V2000
   -3.3415   -2.0929    0.8927 C   0  0  0  0  0  0  0  0  0  0  0  0
   -2.7520   -0.8244    0.5060 N   0  0  0  0  0  0  0  0  0  0  0  0
   -2.5947   -0.7699   -0.9652 C   0  0  2  0  0  0  0  0  0  0  0  0
   -1.6635   -1.8336   -1.3456 C   0  0  0  0  0  0  0  0  0  0  0  0
   -0.4098   -1.3263   -1.9401 C   0  0  1  0  0  0  0  0  0  0  0  0
   -0.2904   -0.0961   -2.3609 O   0  0  0  0  0  0  0  0  0  0  0  0
   -0.9141    0.9817   -1.7381 C   0  0  1  0  0  0  0  0  0  0  0  0
   -0.8729    2.0231   -2.8643 C   0  0  0  0  0  0  0  0  0  0  0  0
   -2.2914    0.6326   -1.4119 C   0  0  2  0  0  0  0  0  0  0  0  0
   -2.9229    1.4324   -0.4622 O   0  0  0  0  0  0  0  0  0  0  0  0
   -4.0664    2.0564   -0.9455 C   0  0  0  0  0  0  0  0  0  0  0  0
   -0.0747    1.3904   -0.5981 N   0  0  0  0  0  0  0  0  0  0  0  0
    0.0066    2.5943   -0.0347 C   0  0  0  0  0  0  0  0  0  0  0  0
   -0.6403    3.7755   -0.2701 C   0  0  0  0  0  0  0  0  0  0  0  0
   -0.3753    4.9057    0.4704 C   0  0  0  0  0  0  0  0  0  0  0  0
    0.5715    4.8915    1.4994 C   0  0  0  0  0  0  0  0  0  0  0  0
    1.2169    3.7192    1.7374 C   0  0  0  0  0  0  0  0  0  0  0  0
    0.9447    2.6014    0.9941 C   0  0  0  0  0  0  0  0  0  0  0  0
    1.4533    1.3308    1.0530 C   0  0  0  0  0  0  0  0  0  0  0  0
    2.4134    0.7192    1.8621 C   0  0  0  0  0  0  0  0  0  0  0  0
    3.2252    1.2814    2.9656 C   0  0  0  0  0  0  0  0  0  0  0  0
    4.0513    0.2282    3.4563 N   0  0  0  0  0  0  0  0  0  0  0  0
    3.7725   -0.9500    2.6928 C   0  0  0  0  0  0  0  0  0  0  0  0
    4.3602   -2.0093    2.9202 O   0  0  0  0  0  0  0  0  0  0  0  0
    2.7553   -0.6238    1.7110 C   0  0  0  0  0  0  0  0  0  0  0  0
    2.1006   -1.3257    0.7242 C   0  0  0  0  0  0  0  0  0  0  0  0
    2.1422   -2.6347    0.2794 C   0  0  0  0  0  0  0  0  0  0  0  0
    2.8759   -3.7217    0.6638 C   0  0  0  0  0  0  0  0  0  0  0  0
    2.6892   -4.9254    0.0128 C   0  0  0  0  0  0  0  0  0  0  0  0
    1.7808   -5.0386   -1.0084 C   0  0  0  0  0  0  0  0  0  0  0  0
    1.0343   -3.9515   -1.4066 C   0  0  0  0  0  0  0  0  0  0  0  0
    1.2263   -2.7646   -0.7562 C   0  0  0  0  0  0  0  0  0  0  0  0
    0.6469   -1.5975   -0.9447 N   0  0  0  0  0  0  0  0  0  0  0  0
    1.1358   -0.7009   -0.0851 C   0  0  0  0  0  0  0  0  0  0  0  0
    0.8119    0.6350    0.0794 C   0  0  0  0  0  0  0  0  0  0  0  0
   -3.9345   -1.8764    1.8249 H   0  0  0  0  0  0  0  0  0  0  0  0
   -2.5804   -2.8202    1.1896 H   0  0  0  0  0  0  0  0  0  0  0  0
   -4.0376   -2.4413    0.1071 H   0  0  0  0  0  0  0  0  0  0  0  0
   -1.8252   -0.7857    0.9817 H   0  0  0  0  0  0  0  0  0  0  0  0
   -3.6418   -1.0758   -1.3069 H   0  0  0  0  0  0  0  0  0  0  0  0
   -1.4743   -2.5407   -0.4944 H   0  0  0  0  0  0  0  0  0  0  0  0
   -2.1827   -2.5069   -2.1019 H   0  0  0  0  0  0  0  0  0  0  0  0
   -0.1764   -2.0147   -2.8352 H   0  0  0  0  0  0  0  0  0  0  0  0
   -1.8561    2.5173   -2.9808 H   0  0  0  0  0  0  0  0  0  0  0  0
   -0.0367    2.7359   -2.7018 H   0  0  0  0  0  0  0  0  0  0  0  0
   -0.6761    1.5932   -3.8662 H   0  0  0  0  0  0  0  0  0  0  0  0
   -2.9127    0.7625   -2.3525 H   0  0  0  0  0  0  0  0  0  0  0  0
   -4.5472    2.6842   -0.1440 H   0  0  0  0  0  0  0  0  0  0  0  0
   -3.8494    2.7776   -1.7563 H   0  0  0  0  0  0  0  0  0  0  0  0
   -4.7942    1.3294   -1.3803 H   0  0  0  0  0  0  0  0  0  0  0  0
   -1.3647    3.8112   -1.0348 H   0  0  0  0  0  0  0  0  0  0  0  0
   -0.8845    5.8355    0.2847 H   0  0  0  0  0  0  0  0  0  0  0  0
    0.7949    5.7654    2.0918 H   0  0  0  0  0  0  0  0  0  0  0  0
    1.9682    3.6487    2.5304 H   0  0  0  0  0  0  0  0  0  0  0  0
    3.8868    2.0907    2.5395 H   0  0  0  0  0  0  0  0  0  0  0  0
    2.5967    1.6993    3.7873 H   0  0  0  0  0  0  0  0  0  0  0  0
    4.7363    0.3270    4.2421 H   0  0  0  0  0  0  0  0  0  0  0  0
    3.5871   -3.7061    1.4353 H   0  0  0  0  0  0  0  0  0  0  0  0
    3.2659   -5.8106    0.3031 H   0  0  0  0  0  0  0  0  0  0  0  0
    1.6292   -5.9934   -1.5280 H   0  0  0  0  0  0  0  0  0  0  0  0
    0.3048   -4.0175   -2.2172 H   0  0  0  0  0  0  0  0  0  0  0  0
  1  2  1  0
  2  3  1  0
  3  4  1  0
  4  5  1  0
  5  6  1  0
  6  7  1  0
  7  8  1  6
  7  9  1  0
  9 10  1  0
 10 11  1  0
  7 12  1  0
 12 13  1  0
 13 14  2  0
 14 15  1  0
 15 16  2  0
 16 17  1  0
 17 18  2  0
 18 19  1  0
 19 20  2  0
 20 21  1  0
 21 22  1  0
 22 23  1  0
 23 24  2  0
 23 25  1  0
 25 26  2  0
 26 27  1  0
 27 28  2  0
 28 29  1  0
 29 30  2  0
 30 31  1  0
 31 32  2  0
 32 33  1  0
 33 34  1  0
 34 35  2  0
  9  3  1  0
 35 12  1  0
 33  5  1  0
 18 13  1  0
 35 19  1  0
 25 20  1  0
 34 26  1  0
 32 27  1  0
  1 36  1  0
  1 37  1  0
  1 38  1  0
  2 39  1  0
  3 40  1  6
  4 41  1  0
  4 42  1  0
  5 43  1  6
  8 44  1  0
  8 45  1  0
  8 46  1  0
  9 47  1  6
 11 48  1  0
 11 49  1  0
 11 50  1  0
 14 51  1  0
 15 52  1  0
 16 53  1  0
 17 54  1  0
 21 55  1  0
 21 56  1  0
 22 57  1  0
 28 58  1  0
 29 59  1  0
 30 60  1  0
 31 61  1  0
M  END
$$$$
[H]c1c([H])c(-c2c(C([H])([H])[H])c([H])c([H])c([H])c2C([H])([H])[H])c([H])c(N([H])C([H])([H])[C@@]([H])(OC(=O)c2c([H])c([H])c3c([H])c([H])c([H])c([H])c3c2[H])C([H])([H])[H])c1[H]
     RDKit          3D

 58 61  0  0  0  0  0  0  0  0999 V2000
    0.4848   -0.2864   -1.5173 C   0  0  0  0  0  0  0  0  0  0  0  0
    1.1274   -0.0888   -0.1928 C   0  0  1  0  0  0  0  0  0  0  0  0
    0.3665   -0.6818    0.9253 C   0  0  0  0  0  0  0  0  0  0  0  0
   -1.0033   -0.2491    0.9283 N   0  0  0  0  0  0  0  0  0  0  0  0
   -2.1073   -0.8379    0.3048 C   0  0  0  0  0  0  0  0  0  0  0  0
   -2.1029   -2.0923   -0.2939 C   0  0  0  0  0  0  0  0  0  0  0  0
   -3.2608   -2.5666   -0.8746 C   0  0  0  0  0  0  0  0  0  0  0  0
   -4.4401   -1.8549   -0.8938 C   0  0  0  0  0  0  0  0  0  0  0  0
   -4.4626   -0.6016   -0.2998 C   0  0  0  0  0  0  0  0  0  0  0  0
   -3.3018   -0.1482    0.2710 C   0  0  0  0  0  0  0  0  0  0  0  0
   -5.6729    0.2276   -0.2533 C   0  0  0  0  0  0  0  0  0  0  0  0
   -6.6706   -0.0964    0.6704 C   0  0  0  0  0  0  0  0  0  0  0  0
   -6.4735   -1.2865    1.5513 C   0  0  0  0  0  0  0  0  0  0  0  0
   -7.8031    0.6619    0.7617 C   0  0  0  0  0  0  0  0  0  0  0  0
   -7.9907    1.7589   -0.0491 C   0  0  0  0  0  0  0  0  0  0  0  0
   -7.0140    2.0809   -0.9580 C   0  0  0  0  0  0  0  0  0  0  0  0
   -5.8535    1.3124   -1.0586 C   0  0  0  0  0  0  0  0  0  0  0  0
   -4.7996    1.6674   -2.0480 C   0  0  0  0  0  0  0  0  0  0  0  0
    2.4982   -0.4748   -0.1956 O   0  0  0  0  0  0  0  0  0  0  0  0
    3.5234    0.4256   -0.0361 C   0  0  0  0  0  0  0  0  0  0  0  0
    3.1543    1.6501    0.1092 O   0  0  0  0  0  0  0  0  0  0  0  0
    4.9480    0.0964   -0.0195 C   0  0  0  0  0  0  0  0  0  0  0  0
    5.4562   -1.1699   -0.1473 C   0  0  0  0  0  0  0  0  0  0  0  0
    6.8120   -1.4463   -0.1228 C   0  0  0  0  0  0  0  0  0  0  0  0
    7.7146   -0.3957    0.0391 C   0  0  0  0  0  0  0  0  0  0  0  0
    9.0884   -0.6640    0.0655 C   0  0  0  0  0  0  0  0  0  0  0  0
    9.9349    0.4086    0.2269 C   0  0  0  0  0  0  0  0  0  0  0  0
    9.4768    1.7216    0.3616 C   0  0  0  0  0  0  0  0  0  0  0  0
    8.1171    1.9263    0.3284 C   0  0  0  0  0  0  0  0  0  0  0  0
    7.2238    0.8746    0.1677 C   0  0  0  0  0  0  0  0  0  0  0  0
    5.8556    1.1232    0.1394 C   0  0  0  0  0  0  0  0  0  0  0  0
    1.1086    0.3042   -2.2595 H   0  0  0  0  0  0  0  0  0  0  0  0
   -0.4981    0.1975   -1.5571 H   0  0  0  0  0  0  0  0  0  0  0  0
    0.4207   -1.3312   -1.8398 H   0  0  0  0  0  0  0  0  0  0  0  0
    1.1376    1.0331   -0.0123 H   0  0  0  0  0  0  0  0  0  0  0  0
    0.8076   -0.4582    1.9302 H   0  0  0  0  0  0  0  0  0  0  0  0
    0.4281   -1.8175    0.8752 H   0  0  0  0  0  0  0  0  0  0  0  0
   -1.1823    0.6584    1.4906 H   0  0  0  0  0  0  0  0  0  0  0  0
   -1.1675   -2.6753   -0.2886 H   0  0  0  0  0  0  0  0  0  0  0  0
   -3.2865   -3.5430   -1.3494 H   0  0  0  0  0  0  0  0  0  0  0  0
   -5.3448   -2.1982   -1.3343 H   0  0  0  0  0  0  0  0  0  0  0  0
   -3.3624    0.8524    0.7288 H   0  0  0  0  0  0  0  0  0  0  0  0
   -6.7959   -2.1645    0.9503 H   0  0  0  0  0  0  0  0  0  0  0  0
   -7.1392   -1.2242    2.4290 H   0  0  0  0  0  0  0  0  0  0  0  0
   -5.4441   -1.3763    1.9135 H   0  0  0  0  0  0  0  0  0  0  0  0
   -8.5861    0.4231    1.4731 H   0  0  0  0  0  0  0  0  0  0  0  0
   -8.8873    2.3522    0.0308 H   0  0  0  0  0  0  0  0  0  0  0  0
   -7.0943    2.9381   -1.6327 H   0  0  0  0  0  0  0  0  0  0  0  0
   -3.8031    1.6531   -1.6094 H   0  0  0  0  0  0  0  0  0  0  0  0
   -4.9276    0.9968   -2.9375 H   0  0  0  0  0  0  0  0  0  0  0  0
   -5.0217    2.7040   -2.4071 H   0  0  0  0  0  0  0  0  0  0  0  0
    4.7415   -1.9869   -0.2724 H   0  0  0  0  0  0  0  0  0  0  0  0
    7.1971   -2.4427   -0.2244 H   0  0  0  0  0  0  0  0  0  0  0  0
    9.3940   -1.6821   -0.0383 H   0  0  0  0  0  0  0  0  0  0  0  0
   11.0050    0.2224    0.2502 H   0  0  0  0  0  0  0  0  0  0  0  0
   10.2100    2.5067    0.4845 H   0  0  0  0  0  0  0  0  0  0  0  0
    7.7248    2.9260    0.4304 H   0  0  0  0  0  0  0  0  0  0  0  0
    5.5401    2.1378    0.2451 H   0  0  0  0  0  0  0  0  0  0  0  0
  1  2  1  0
  2  3  1  0
  3  4  1  0
  4  5  1  0
  5  6  2  0
  6  7  1  0
  7  8  2  0
  8  9  1  0
  9 10  2  0
  9 11  1  0
 11 12  2  0
 12 13  1  0
 12 14  1  0
 14 15  2  0
 15 16  1  0
 16 17  2  0
 17 18  1  0
  2 19  1  0
 19 20  1  0
 20 21  2  0
 20 22  1  0
 22 23  2  0
 23 24  1  0
 24 25  2  0
 25 26  1  0
 26 27  2  0
 27 28  1  0
 28 29  2  0
 29 30  1  0
 30 31  2  0
 10  5  1  0
 17 11  1  0
 31 22  1  0
 30 25  1  0
  1 32  1  0
  1 33  1  0
  1 34  1  0
  2 35  1  1
  3 36  1  0
  3 37  1  0
  4 38  1  0
  6 39  1  0
  7 40  1  0
  8 41  1  0
 10 42  1  0
 13 43  1  0
 13 44  1  0
 13 45  1  0
 14 46  1  0
 15 47  1  0
 16 48  1  0
 18 49  1  0
 18 50  1  0
 18 51  1  0
 23 52  1  0
 24 53  1  0
 26 54  1  0
 27 55  1  0
 28 56  1  0
 29 57  1  0
 31 58  1  0
M  END
$$$$
[H]OC(C([H])([H])[H])(C([H])([H])[H])C([H])([H])Oc1nc(N([H])c2c([H])c([H])c(Br)c([H])c2[H])nc([H])c1C(=O)N1C([H])([H])C([H])([H])OC([H])([H])[C@]1([H])C([H])([H])[H]
     RDKit          3D

 54 56  0  0  0  0  0  0  0  0999 V2000
   -4.7296   -1.3972    0.8482 C   0  0  0  0  0  0  0  0  0  0  0  0
   -3.6850   -2.4374    1.1361 C   0  0  1  0  0  0  0  0  0  0  0  0
   -4.0738   -3.7252    0.4321 C   0  0  0  0  0  0  0  0  0  0  0  0
   -4.1156   -3.6086   -0.9328 O   0  0  0  0  0  0  0  0  0  0  0  0
   -3.1563   -2.7981   -1.4828 C   0  0  0  0  0  0  0  0  0  0  0  0
   -1.9418   -2.7224   -0.5796 C   0  0  0  0  0  0  0  0  0  0  0  0
   -2.3738   -2.0726    0.6433 N   0  0  0  0  0  0  0  0  0  0  0  0
   -1.6079   -1.1377    1.3492 C   0  0  0  0  0  0  0  0  0  0  0  0
   -2.0773   -0.6271    2.4087 O   0  0  0  0  0  0  0  0  0  0  0  0
   -0.2853   -0.6943    0.9559 C   0  0  0  0  0  0  0  0  0  0  0  0
    0.8352   -1.3475    1.3956 C   0  0  0  0  0  0  0  0  0  0  0  0
    2.0316   -0.9061    1.0096 N   0  0  0  0  0  0  0  0  0  0  0  0
    2.2627    0.1456    0.2090 C   0  0  0  0  0  0  0  0  0  0  0  0
    3.5158    0.6184   -0.2031 N   0  0  0  0  0  0  0  0  0  0  0  0
    4.7633    0.0877    0.1581 C   0  0  0  0  0  0  0  0  0  0  0  0
    5.8837    0.3566   -0.6543 C   0  0  0  0  0  0  0  0  0  0  0  0
    7.1168   -0.1155   -0.3318 C   0  0  0  0  0  0  0  0  0  0  0  0
    7.3501   -0.8765    0.7930 C   0  0  0  0  0  0  0  0  0  0  0  0
    9.1016   -1.5271    1.2180 Br  0  0  0  0  0  0  0  0  0  0  0  0
    6.2642   -1.1365    1.5801 C   0  0  0  0  0  0  0  0  0  0  0  0
    4.9898   -0.6678    1.2781 C   0  0  0  0  0  0  0  0  0  0  0  0
    1.1246    0.7866   -0.2208 N   0  0  0  0  0  0  0  0  0  0  0  0
   -0.1118    0.4240    0.1079 C   0  0  0  0  0  0  0  0  0  0  0  0
   -1.2305    1.0642   -0.3251 O   0  0  0  0  0  0  0  0  0  0  0  0
   -1.4846    2.1453   -1.1186 C   0  0  0  0  0  0  0  0  0  0  0  0
   -0.9661    3.4668   -0.6440 C   0  0  0  0  0  0  0  0  0  0  0  0
   -1.5890    3.7325    0.7273 C   0  0  0  0  0  0  0  0  0  0  0  0
   -1.4426    4.5628   -1.5825 C   0  0  0  0  0  0  0  0  0  0  0  0
    0.3968    3.5589   -0.5073 O   0  0  0  0  0  0  0  0  0  0  0  0
   -5.5004   -1.7850    0.1232 H   0  0  0  0  0  0  0  0  0  0  0  0
   -4.3228   -0.4644    0.4280 H   0  0  0  0  0  0  0  0  0  0  0  0
   -5.2895   -1.2180    1.8117 H   0  0  0  0  0  0  0  0  0  0  0  0
   -3.6177   -2.6835    2.2172 H   0  0  0  0  0  0  0  0  0  0  0  0
   -3.4807   -4.5924    0.7996 H   0  0  0  0  0  0  0  0  0  0  0  0
   -5.1296   -3.9391    0.7718 H   0  0  0  0  0  0  0  0  0  0  0  0
   -3.5731   -1.7517   -1.5420 H   0  0  0  0  0  0  0  0  0  0  0  0
   -2.8688   -3.0825   -2.5134 H   0  0  0  0  0  0  0  0  0  0  0  0
   -1.1022   -2.1988   -1.0647 H   0  0  0  0  0  0  0  0  0  0  0  0
   -1.5670   -3.7616   -0.3627 H   0  0  0  0  0  0  0  0  0  0  0  0
    0.6893   -2.2035    2.0454 H   0  0  0  0  0  0  0  0  0  0  0  0
    3.5268    1.4597   -0.8482 H   0  0  0  0  0  0  0  0  0  0  0  0
    5.6987    0.9658   -1.5560 H   0  0  0  0  0  0  0  0  0  0  0  0
    7.9684    0.1076   -0.9790 H   0  0  0  0  0  0  0  0  0  0  0  0
    6.4099   -1.7313    2.4720 H   0  0  0  0  0  0  0  0  0  0  0  0
    4.2012   -0.9291    1.9973 H   0  0  0  0  0  0  0  0  0  0  0  0
   -2.6035    2.2831   -1.2377 H   0  0  0  0  0  0  0  0  0  0  0  0
   -1.0834    1.9830   -2.1791 H   0  0  0  0  0  0  0  0  0  0  0  0
   -1.4828    4.8104    0.9723 H   0  0  0  0  0  0  0  0  0  0  0  0
   -2.6610    3.4323    0.6918 H   0  0  0  0  0  0  0  0  0  0  0  0
   -1.0433    3.1167    1.4855 H   0  0  0  0  0  0  0  0  0  0  0  0
   -2.4307    4.9225   -1.2321 H   0  0  0  0  0  0  0  0  0  0  0  0
   -1.5134    4.2105   -2.6294 H   0  0  0  0  0  0  0  0  0  0  0  0
   -0.7273    5.4244   -1.5803 H   0  0  0  0  0  0  0  0  0  0  0  0
    0.7380    4.4731   -0.7438 H   0  0  0  0  0  0  0  0  0  0  0  0
  1  2  1  0
  2  3  1  0
  3  4  1  0
  4  5  1  0
  5  6  1  0
  6  7  1  0
  7  8  1  0
  8  9  2  0
  8 10  1  0
 10 11  2  0
 11 12  1  0
 12 13  2  0
 13 14  1  0
 14 15  1  0
 15 16  2  0
 16 17  1  0
 17 18  2  0
 18 19  1  0
 18 20  1  0
 20 21  2  0
 13 22  1  0
 22 23  2  0
 23 24  1  0
 24 25  1  0
 25 26  1  0
 26 27  1  0
 26 28  1  0
 26 29  1  0
  7  2  1  0
 23 10  1  0
 21 15  1  0
  1 30  1  0
  1 31  1  0
  1 32  1  0
  2 33  1  1
  3 34  1  0
  3 35  1  0
  5 36  1  0
  5 37  1  0
  6 38  1  0
  6 39  1  0
 11 40  1  0
 14 41  1  0
 16 42  1  0
 17 43  1  0
 20 44  1  0
 21 45  1  0
 25 46  1  0
 25 47  1  0
 27 48  1  0
 27 49  1  0
 27 50  1  0
 28 51  1  0
 28 52  1  0
 28 53  1  0
 29 54  1  0
M  END
$$$$
[H]c1c([H])c([H])c2c(c1[H])c1c3c(c4c5c([H])c([H])c([H])c([H])c5n5c4c1n2[C@@]1(C([H])([H])[H])O[C@]5([H])C([H])([H])[C@@]([H])(N([H])C([H])([H])[H])[C@@]1([H])OC([H])([H])[H])C(=O)N([H])C3([H])[H]
     RDKit          3D

 61 68  0  0  0  0  0  0  0  0999 V2000
   -3.3415   -2.0929    0.8927 C   0  0  0  0  0  0  0  0  0  0  0  0
   -2.7520   -0.8244    0.5060 N   0  0  0  0  0  0  0  0  0  0  0  0
   -2.5947   -0.7699   -0.9652 C   0  0  2  0  0  0  0  0  0  0  0  0
   -1.6635   -1.8336   -1.3456 C   0  0  0  0  0  0  0  0  0  0  0  0
   -0.4098   -1.3263   -1.9401 C   0  0  1  0  0  0  0  0  0  0  0  0
   -0.2904   -0.0961   -2.3609 O   0  0  0  0  0  0  0  0  0  0  0  0
   -0.9141    0.9817   -1.7381 C   0  0  1  0  0  0  0  0  0  0  0  0
   -0.8729    2.0231   -2.8643 C   0  0  0  0  0  0  0  0  0  0  0  0
   -2.2914    0.6326   -1.4119 C   0  0  2  0  0  0  0  0  0  0  0  0
   -2.9229    1.4324   -0.4622 O   0  0  0  0  0  0  0  0  0  0  0  0
   -4.0664    2.0564   -0.9455 C   0  0  0  0  0  0  0  0  0  0  0  0
   -0.0747    1.3904   -0.5981 N   0  0  0  0  0  0  0  0  0  0  0  0
    0.0066    2.5943   -0.0347 C   0  0  0  0  0  0  0  0  0  0  0  0
   -0.6403    3.7755   -0.2701 C   0  0  0  0  0  0  0  0  0  0  0  0
   -0.3753    4.9057    0.4704 C   0  0  0  0  0  0  0  0  0  0  0  0
    0.5715    4.8915    1.4994 C   0  0  0  0  0  0  0  0  0  0  0  0
    1.2169    3.7192    1.7374 C   0  0  0  0  0  0  0  0  0  0  0  0
    0.9447    2.6014    0.9941 C   0  0  0  0  0  0  0  0  0  0  0  0
    1.4533    1.3308    1.0530 C   0  0  0  0  0  0  0  0  0  0  0  0
    2.4134    0.7192    1.8621 C   0  0  0  0  0  0  0  0  0  0  0  0
    3.2252    1.2814    2.9656 C   0  0  0  0  0  0  0  0  0  0  0  0
    4.0513    0.2282    3.4563 N   0  0  0  0  0  0  0  0  0  0  0  0
    3.7725   -0.9500    2.6928 C   0  0  0  0  0  0  0  0  0  0  0  0
    4.3602   -2.0093    2.9202 O   0  0  0  0  0  0  0  0  0  0  0  0
    2.7553   -0.6238    1.7110 C   0  0  0  0  0  0  0  0  0  0  0  0
    2.1006   -1.3257    0.7242 C   0  0  0  0  0  0  0  0  0  0  0  0
    2.1422   -2.6347    0.2794 C   0  0  0  0  0  0  0  0  0  0  0  0
    2.8759   -3.7217    0.6638 C   0  0  0  0  0  0  0  0  0  0  0  0
    2.6892   -4.9254    0.0128 C   0  0  0  0  0  0  0  0  0  0  0  0
    1.7808   -5.0386   -1.0084 C   0  0  0  0  0  0  0  0  0  0  0  0
    1.0343   -3.9515   -1.4066 C   0  0  0  0  0  0  0  0  0  0  0  0
    1.2263   -2.7646   -0.7562 C   0  0  0  0  0  0  0  0  0  0  0  0
    0.6469   -1.5975   -0.9447 N   0  0  0  0  0  0  0  0  0  0  0  0
    1.1358   -0.7009   -0.0851 C   0  0  0  0  0  0  0  0  0  0  0  0
    0.8119    0.6350    0.0794 C   0  0  0  0  0  0  0  0  0  0  0  0
   -3.9345   -1.8764    1.8249 H   0  0  0  0  0  0  0  0  0  0  0  0
   -2.5804   -2.8202    1.1896 H   0  0  0  0  0  0  0  0  0  0  0  0
   -4.0376   -2.4413    0.1071 H   0  0  0  0  0  0  0  0  0  0  0  0
   -1.8252   -0.7857    0.9817 H   0  0  0  0  0  0  0  0  0  0  0  0
   -3.6418   -1.0758   -1.3069 H   0  0  0  0  0  0  0  0  0  0  0  0
   -1.4743   -2.5407   -0.4944 H   0  0  0  0  0  0  0  0  0  0  0  0
   -2.1827   -2.5069   -2.1019 H   0  0  0  0  0  0  0  0  0  0  0  0
   -0.1764   -2.0147   -2.8352 H   0  0  0  0  0  0  0  0  0  0  0  0
   -1.8561    2.5173   -2.9808 H   0  0  0  0  0  0  0  0  0  0  0  0
   -0.0367    2.7359   -2.7018 H   0  0  0  0  0  0  0  0  0  0  0  0
   -0.6761    1.5932   -3.8662 H   0  0  0  0  0  0  0  0  0  0  0  0
   -2.9127    0.7625   -2.3525 H   0  0  0  0  0  0  0  0  0  0  0  0
   -4.5472    2.6842   -0.1440 H   0  0  0  0  0  0  0  0  0  0  0  0
   -3.8494    2.7776   -1.7563 H   0  0  0  0  0  0  0  0  0  0  0  0
   -4.7942    1.3294   -1.3803 H   0  0  0  0  0  0  0  0  0  0  0  0
   -1.3647    3.8112   -1.0348 H   0  0  0  0  0  0  0  0  0  0  0  0
   -0.8845    5.8355    0.2847 H   0  0  0  0  0  0  0  0  0  0  0  0
    0.7949    5.7654    2.0918 H   0  0  0  0  0  0  0  0  0  0  0  0
    1.9682    3.6487    2.5304 H   0  0  0  0  0  0  0  0  0  0  0  0
    3.8868    2.0907    2.5395 H   0  0  0  0  0  0  0  0  0  0  0  0
    2.5967    1.6993    3.7873 H   0  0  0  0  0  0  0  0  0  0  0  0
    4.7363    0.3270    4.2421 H   0  0  0  0  0  0  0  0  0  0  0  0
    3.5871   -3.7061    1.4353 H   0  0  0  0  0  0  0  0  0  0  0  0
    3.2659   -5.8106    0.3031 H   0  0  0  0  0  0  0  0  0  0  0  0
    1.6292   -5.9934   -1.5280 H   0  0  0  0  0  0  0  0  0  0  0  0
    0.3048   -4.0175   -2.2172 H   0  0  0  0  0  0  0  0  0  0  0  0
  1  2  1  0
  2  3  1  0
  3  4  1  0
  4  5  1  0
  5  6  1  0
  6  7  1  0
  7  8  1  6
  7  9  1  0
  9 10  1  0
 10 11  1  0
  7 12  1  0
 12 13  1  0
 13 14  2  0
 14 15  1  0
 15 16  2  0
 16 17  1  0
 17 18  2  0
 18 19  1  0
 19 20  2  0
 20 21  1  0
 21 22  1  0
 22 23  1  0
 23 24  2  0
 23 25  1  0
 25 26  2  0
 26 27  1  0
 27 28  2  0
 28 29  1  0
 29 30  2  0
 30 31  1  0
 31 32  2  0
 32 33  1  0
 33 34  1  0
 34 35  2  0
  9  3  1  0
 35 12  1  0
 33  5  1  0
 18 13  1  0
 35 19  1  0
 25 20  1  0
 34 26  1  0
 32 27  1  0
  1 36  1  0
  1 37  1  0
  1 38  1  0
  2 39  1  0
  3 40  1  6
  4 41  1  0
  4 42  1  0
  5 43  1  6
  8 44  1  0
  8 45  1  0
  8 46  1  0
  9 47  1  6
 11 48  1  0
 11 49  1  0
 11 50  1  0
 14 51  1  0
 15 52  1  0
 16 53  1  0
 17 54  1  0
 21 55  1  0
 21 56  1  0
 22 57  1  0
 28 58  1  0
 29 59  1  0
 30 60  1  0
 31 61  1  0
M  END
$$$$
[H]c1c([H])c(-c2nc3c([H])c([H])c(-c4c([H])c(F)c5nc(N([H])[H])nn5c4[H])c([H])n3c2[H])c([H])c2c1OC(C([H])([H])[H])(C([H])([H])[H])C2([H])[H]
     RDKit          3D

 50 55  0  0  0  0  0  0  0  0999 V2000
   -7.8758    1.9806   -0.5369 C   0  0  0  0  0  0  0  0  0  0  0  0
   -6.7486    1.2283    0.1185 C   0  0  0  0  0  0  0  0  0  0  0  0
   -6.8312    1.1947    1.6085 C   0  0  0  0  0  0  0  0  0  0  0  0
   -5.3929    1.7525   -0.3262 C   0  0  0  0  0  0  0  0  0  0  0  0
   -4.5504    0.5321   -0.2838 C   0  0  0  0  0  0  0  0  0  0  0  0
   -3.1753    0.3571   -0.2247 C   0  0  0  0  0  0  0  0  0  0  0  0
   -2.6335   -0.8965   -0.1857 C   0  0  0  0  0  0  0  0  0  0  0  0
   -3.4967   -1.9716   -0.2070 C   0  0  0  0  0  0  0  0  0  0  0  0
   -4.8689   -1.8543   -0.2654 C   0  0  0  0  0  0  0  0  0  0  0  0
   -5.3949   -0.5448   -0.3048 C   0  0  0  0  0  0  0  0  0  0  0  0
   -6.6922   -0.0934   -0.3657 O   0  0  0  0  0  0  0  0  0  0  0  0
   -1.1738   -1.1046   -0.1225 C   0  0  0  0  0  0  0  0  0  0  0  0
   -0.1842   -0.1603   -0.0943 C   0  0  0  0  0  0  0  0  0  0  0  0
    1.0110   -0.8186   -0.0360 N   0  0  0  0  0  0  0  0  0  0  0  0
    2.2856   -0.3709    0.0108 C   0  0  0  0  0  0  0  0  0  0  0  0
    3.3123   -1.2867    0.0656 C   0  0  0  0  0  0  0  0  0  0  0  0
    3.0924   -2.6452    0.0748 C   0  0  0  0  0  0  0  0  0  0  0  0
    1.7741   -3.1024    0.0264 C   0  0  0  0  0  0  0  0  0  0  0  0
    0.7834   -2.1426   -0.0276 C   0  0  0  0  0  0  0  0  0  0  0  0
   -0.5561   -2.2971   -0.0809 N   0  0  0  0  0  0  0  0  0  0  0  0
    4.6891   -0.8176    0.1161 C   0  0  0  0  0  0  0  0  0  0  0  0
    5.6540   -1.5433    0.7787 C   0  0  0  0  0  0  0  0  0  0  0  0
    6.9730   -1.0995    0.8301 C   0  0  0  0  0  0  0  0  0  0  0  0
    7.9400   -1.8014    1.4789 F   0  0  0  0  0  0  0  0  0  0  0  0
    7.3115    0.0862    0.2056 C   0  0  0  0  0  0  0  0  0  0  0  0
    8.4860    0.7336    0.1012 N   0  0  0  0  0  0  0  0  0  0  0  0
    8.2796    1.8576   -0.6169 C   0  0  0  0  0  0  0  0  0  0  0  0
    9.2976    2.7838   -0.9246 N   0  0  0  0  0  0  0  0  0  0  0  0
    6.9767    1.8663   -0.9336 N   0  0  0  0  0  0  0  0  0  0  0  0
    6.3638    0.8007   -0.4461 N   0  0  0  0  0  0  0  0  0  0  0  0
    5.0813    0.3595   -0.4904 C   0  0  0  0  0  0  0  0  0  0  0  0
   -7.7156    1.9143   -1.6335 H   0  0  0  0  0  0  0  0  0  0  0  0
   -7.7758    3.0497   -0.2613 H   0  0  0  0  0  0  0  0  0  0  0  0
   -8.8224    1.5330   -0.2049 H   0  0  0  0  0  0  0  0  0  0  0  0
   -5.8669    1.5279    2.0713 H   0  0  0  0  0  0  0  0  0  0  0  0
   -7.0451    0.1588    2.0031 H   0  0  0  0  0  0  0  0  0  0  0  0
   -7.6236    1.8371    2.0290 H   0  0  0  0  0  0  0  0  0  0  0  0
   -5.4333    2.2230   -1.3155 H   0  0  0  0  0  0  0  0  0  0  0  0
   -4.9790    2.4746    0.4251 H   0  0  0  0  0  0  0  0  0  0  0  0
   -2.5282    1.2253   -0.2095 H   0  0  0  0  0  0  0  0  0  0  0  0
   -3.0237   -2.9638   -0.1743 H   0  0  0  0  0  0  0  0  0  0  0  0
   -5.5287   -2.7101   -0.2813 H   0  0  0  0  0  0  0  0  0  0  0  0
   -0.3187    0.8957   -0.1141 H   0  0  0  0  0  0  0  0  0  0  0  0
    2.4545    0.7126    0.0031 H   0  0  0  0  0  0  0  0  0  0  0  0
    3.8525   -3.3930    0.1164 H   0  0  0  0  0  0  0  0  0  0  0  0
    1.5715   -4.1681    0.0323 H   0  0  0  0  0  0  0  0  0  0  0  0
    5.3830   -2.4709    1.2657 H   0  0  0  0  0  0  0  0  0  0  0  0
    9.1160    3.7974   -0.8442 H   0  0  0  0  0  0  0  0  0  0  0  0
   10.2260    2.4576   -1.2305 H   0  0  0  0  0  0  0  0  0  0  0  0
    4.3209    0.9169   -1.0040 H   0  0  0  0  0  0  0  0  0  0  0  0
  1  2  1  0
  2  3  1  0
  2  4  1  0
  4  5  1  0
  5  6  2  0
  6  7  1  0
  7  8  2  0
  8  9  1  0
  9 10  2  0
 10 11  1  0
  7 12  1  0
 12 13  2  0
 13 14  1  0
 14 15  1  0
 15 16  2  0
 16 17  1  0
 17 18  2  0
 18 19  1  0
 19 20  2  0
 16 21  1  0
 21 22  1  0
 22 23  2  0
 23 24  1  0
 23 25  1  0
 25 26  2  0
 26 27  1  0
 27 28  1  0
 27 29  2  0
 29 30  1  0
 30 31  1  0
 11  2  1  0
 20 12  1  0
 31 21  2  0
 10  5  1  0
 19 14  1  0
 30 25  1  0
  1 32  1  0
  1 33  1  0
  1 34  1  0
  3 35  1  0
  3 36  1  0
  3 37  1  0
  4 38  1  0
  4 39  1  0
  6 40  1  0
  8 41  1  0
  9 42  1  0
 13 43  1  0
 15 44  1  0
 17 45  1  0
 18 46  1  0
 22 47  1  0
 28 48  1  0
 28 49  1  0
 31 50  1  0
M  END
$$$$
[H]c1c([H])c([H])c(S(=O)(=O)N([H])C(=S)N([H])C([H])([H])C([H])([H])C([H])([H])C([H])([H])C([H])([H])N([H])[H])c([H])c1[H]
     RDKit          3D

 38 38  0  0  0  0  0  0  0  0999 V2000
    4.0245    2.3454   -0.6456 N   0  0  0  0  0  0  0  0  0  0  0  0
    4.8744    1.1882   -0.4787 C   0  0  0  0  0  0  0  0  0  0  0  0
    3.9937   -0.0477   -0.5971 C   0  0  0  0  0  0  0  0  0  0  0  0
    2.9712    0.0584    0.5017 C   0  0  0  0  0  0  0  0  0  0  0  0
    2.0651   -1.1203    0.4803 C   0  0  0  0  0  0  0  0  0  0  0  0
    1.2878   -1.2486   -0.8401 C   0  0  0  0  0  0  0  0  0  0  0  0
    0.4502   -2.3819   -0.6952 N   0  0  0  0  0  0  0  0  0  0  0  0
   -0.7090   -2.5683   -0.0022 C   0  0  0  0  0  0  0  0  0  0  0  0
   -1.2346   -4.2370   -0.1323 S   0  0  0  0  0  0  0  0  0  0  0  0
   -1.5410   -1.7903    0.7490 N   0  0  0  0  0  0  0  0  0  0  0  0
   -1.7227   -0.1956    1.2536 S   0  0  0  0  0  0  0  0  0  0  0  0
   -0.6630    0.7633    0.9014 O   0  0  0  0  0  0  0  0  0  0  0  0
   -1.8553   -0.1117    2.7825 O   0  0  0  0  0  0  0  0  0  0  0  0
   -3.2482    0.4685    0.5746 C   0  0  0  0  0  0  0  0  0  0  0  0
   -4.4408    0.3375    1.2400 C   0  0  0  0  0  0  0  0  0  0  0  0
   -5.6150    0.8668    0.6804 C   0  0  0  0  0  0  0  0  0  0  0  0
   -5.5538    1.5208   -0.5471 C   0  0  0  0  0  0  0  0  0  0  0  0
   -4.3492    1.6438   -1.2018 C   0  0  0  0  0  0  0  0  0  0  0  0
   -3.1980    1.1149   -0.6347 C   0  0  0  0  0  0  0  0  0  0  0  0
    4.6793    3.1310   -0.9427 H   0  0  0  0  0  0  0  0  0  0  0  0
    3.5596    2.6260    0.2431 H   0  0  0  0  0  0  0  0  0  0  0  0
    5.3572    1.1472    0.5149 H   0  0  0  0  0  0  0  0  0  0  0  0
    5.6555    1.1266   -1.2509 H   0  0  0  0  0  0  0  0  0  0  0  0
    3.4819   -0.0684   -1.5789 H   0  0  0  0  0  0  0  0  0  0  0  0
    4.6524   -0.9239   -0.4666 H   0  0  0  0  0  0  0  0  0  0  0  0
    2.3469    0.9934    0.3803 H   0  0  0  0  0  0  0  0  0  0  0  0
    3.4465    0.1408    1.5062 H   0  0  0  0  0  0  0  0  0  0  0  0
    2.6570   -2.0882    0.5312 H   0  0  0  0  0  0  0  0  0  0  0  0
    1.3841   -1.1613    1.3344 H   0  0  0  0  0  0  0  0  0  0  0  0
    0.8030   -0.3140   -1.1372 H   0  0  0  0  0  0  0  0  0  0  0  0
    2.0606   -1.4287   -1.6492 H   0  0  0  0  0  0  0  0  0  0  0  0
    0.8575   -3.2442   -1.2676 H   0  0  0  0  0  0  0  0  0  0  0  0
   -2.4162   -2.3901    1.2053 H   0  0  0  0  0  0  0  0  0  0  0  0
   -4.4566   -0.1699    2.1824 H   0  0  0  0  0  0  0  0  0  0  0  0
   -6.5583    0.7628    1.2061 H   0  0  0  0  0  0  0  0  0  0  0  0
   -6.4918    1.9070   -0.9262 H   0  0  0  0  0  0  0  0  0  0  0  0
   -4.3250    2.1484   -2.1427 H   0  0  0  0  0  0  0  0  0  0  0  0
   -2.2302    1.1991   -1.1306 H   0  0  0  0  0  0  0  0  0  0  0  0
  1  2  1  0
  2  3  1  0
  3  4  1  0
  4  5  1  0
  5  6  1  0
  6  7  1  0
  7  8  1  0
  8  9  2  0
  8 10  1  0
 10 11  1  0
 11 12  2  0
 11 13  2  0
 11 14  1  0
 14 15  2  0
 15 16  1  0
 16 17  2  0
 17 18  1  0
 18 19  2  0
 19 14  1  0
  1 20  1  0
  1 21  1  0
  2 22  1  0
  2 23  1  0
  3 24  1  0
  3 25  1  0
  4 26  1  0
  4 27  1  0
  5 28  1  0
  5 29  1  0
  6 30  1  0
  6 31  1  0
  7 32  1  0
 10 33  1  0
 15 34  1  0
 16 35  1  0
 17 36  1  0
 18 37  1  0
 19 38  1  0
M  END
$$$$
[H]c1nc(N([H])c2c([H])c([H])c(C(=O)N([H])C([H])([H])C([H])([H])N(C([H])([H])[H])C([H])([H])[H])c([H])c2C(F)(F)F)c(C([H])([H])[H])c([H])c1C(=O)N1C([H])([H])C([H])([H])C([H])([H])[C@@]1([H])c1c([H])n(C([H])([H])[H])c2c([H])c([H])c([H])c([H])c12
     RDKit          3D

 78 82  0  0  0  0  0  0  0  0999 V2000
   11.1051    2.5673    0.0025 C   0  0  0  0  0  0  0  0  0  0  0  0
   10.9552    1.2099   -0.4327 N   0  0  0  0  0  0  0  0  0  0  0  0
   11.8260    0.2756    0.2112 C   0  0  0  0  0  0  0  0  0  0  0  0
    9.5688    0.7690   -0.4367 C   0  0  0  0  0  0  0  0  0  0  0  0
    8.7472    1.4359   -1.4788 C   0  0  0  0  0  0  0  0  0  0  0  0
    7.3816    0.9545   -1.4174 N   0  0  0  0  0  0  0  0  0  0  0  0
    6.5263    1.1089   -0.3116 C   0  0  0  0  0  0  0  0  0  0  0  0
    6.9075    1.6965    0.7179 O   0  0  0  0  0  0  0  0  0  0  0  0
    5.1560    0.5702   -0.3676 C   0  0  0  0  0  0  0  0  0  0  0  0
    4.1656    1.0883    0.4160 C   0  0  0  0  0  0  0  0  0  0  0  0
    2.8781    0.5855    0.3758 C   0  0  0  0  0  0  0  0  0  0  0  0
    2.5136   -0.4544   -0.4441 C   0  0  0  0  0  0  0  0  0  0  0  0
    1.2382   -0.9857   -0.5277 N   0  0  0  0  0  0  0  0  0  0  0  0
    0.0594   -0.5744    0.1311 C   0  0  0  0  0  0  0  0  0  0  0  0
   -0.0746    0.4490    0.9640 N   0  0  0  0  0  0  0  0  0  0  0  0
   -1.1970    0.8448    1.5743 C   0  0  0  0  0  0  0  0  0  0  0  0
   -2.4075    0.1594    1.3669 C   0  0  0  0  0  0  0  0  0  0  0  0
   -2.3139   -0.8974    0.5183 C   0  0  0  0  0  0  0  0  0  0  0  0
   -1.1253   -1.2916   -0.1083 C   0  0  0  0  0  0  0  0  0  0  0  0
   -1.1481   -2.4553   -1.0105 C   0  0  0  0  0  0  0  0  0  0  0  0
   -3.5843    0.6256    2.0232 C   0  0  0  0  0  0  0  0  0  0  0  0
   -3.4446    1.7572    2.7055 O   0  0  0  0  0  0  0  0  0  0  0  0
   -4.8811    0.1293    2.1031 N   0  0  0  0  0  0  0  0  0  0  0  0
   -5.9103    0.8970    2.8934 C   0  0  0  0  0  0  0  0  0  0  0  0
   -6.6597   -0.1800    3.6621 C   0  0  0  0  0  0  0  0  0  0  0  0
   -6.2379   -1.4996    3.0271 C   0  0  0  0  0  0  0  0  0  0  0  0
   -5.6357   -1.0138    1.6768 C   0  0  1  0  0  0  0  0  0  0  0  0
   -6.6803   -0.8156    0.6893 C   0  0  0  0  0  0  0  0  0  0  0  0
   -8.0168   -1.2530    0.8323 C   0  0  0  0  0  0  0  0  0  0  0  0
   -8.7170   -0.9321   -0.2645 N   0  0  0  0  0  0  0  0  0  0  0  0
  -10.1166   -1.2104   -0.5225 C   0  0  0  0  0  0  0  0  0  0  0  0
   -7.9163   -0.2943   -1.1483 C   0  0  0  0  0  0  0  0  0  0  0  0
   -8.1441    0.2319   -2.4029 C   0  0  0  0  0  0  0  0  0  0  0  0
   -7.1283    0.8378   -3.0942 C   0  0  0  0  0  0  0  0  0  0  0  0
   -5.8867    0.9024   -2.4985 C   0  0  0  0  0  0  0  0  0  0  0  0
   -5.6611    0.3787   -1.2498 C   0  0  0  0  0  0  0  0  0  0  0  0
   -6.6569   -0.2247   -0.5529 C   0  0  0  0  0  0  0  0  0  0  0  0
    3.5374   -0.9651   -1.2306 C   0  0  0  0  0  0  0  0  0  0  0  0
    4.8324   -0.4663   -1.1964 C   0  0  0  0  0  0  0  0  0  0  0  0
    3.3153   -2.1077   -2.1597 C   0  0  0  0  0  0  0  0  0  0  0  0
    2.9575   -3.2122   -1.4485 F   0  0  0  0  0  0  0  0  0  0  0  0
    4.5036   -2.4321   -2.8117 F   0  0  0  0  0  0  0  0  0  0  0  0
    2.4380   -1.7864   -3.1893 F   0  0  0  0  0  0  0  0  0  0  0  0
   12.0041    3.0338   -0.4365 H   0  0  0  0  0  0  0  0  0  0  0  0
   11.2968    2.5345    1.1167 H   0  0  0  0  0  0  0  0  0  0  0  0
   10.2056    3.1867   -0.1017 H   0  0  0  0  0  0  0  0  0  0  0  0
   12.7262    0.0488   -0.3929 H   0  0  0  0  0  0  0  0  0  0  0  0
   12.1696    0.7240    1.1655 H   0  0  0  0  0  0  0  0  0  0  0  0
   11.2104   -0.6480    0.4143 H   0  0  0  0  0  0  0  0  0  0  0  0
    9.1696    0.9528    0.5532 H   0  0  0  0  0  0  0  0  0  0  0  0
    9.6270   -0.3307   -0.6709 H   0  0  0  0  0  0  0  0  0  0  0  0
    9.1280    1.2464   -2.5183 H   0  0  0  0  0  0  0  0  0  0  0  0
    8.7403    2.5397   -1.3344 H   0  0  0  0  0  0  0  0  0  0  0  0
    6.9899    0.4481   -2.2751 H   0  0  0  0  0  0  0  0  0  0  0  0
    4.3946    1.9044    1.0771 H   0  0  0  0  0  0  0  0  0  0  0  0
    2.1452    1.0539    1.0373 H   0  0  0  0  0  0  0  0  0  0  0  0
    1.1124   -1.8230   -1.1819 H   0  0  0  0  0  0  0  0  0  0  0  0
   -1.2003    1.6969    2.2402 H   0  0  0  0  0  0  0  0  0  0  0  0
   -3.2212   -1.4656    0.2921 H   0  0  0  0  0  0  0  0  0  0  0  0
   -0.7081   -3.3664   -0.5631 H   0  0  0  0  0  0  0  0  0  0  0  0
   -2.2056   -2.6932   -1.2470 H   0  0  0  0  0  0  0  0  0  0  0  0
   -0.6832   -2.2275   -2.0151 H   0  0  0  0  0  0  0  0  0  0  0  0
   -6.5858    1.3760    2.1834 H   0  0  0  0  0  0  0  0  0  0  0  0
   -5.4614    1.6105    3.5658 H   0  0  0  0  0  0  0  0  0  0  0  0
   -6.3115   -0.1102    4.7165 H   0  0  0  0  0  0  0  0  0  0  0  0
   -7.7379   -0.0048    3.5614 H   0  0  0  0  0  0  0  0  0  0  0  0
   -5.4309   -1.9008    3.6751 H   0  0  0  0  0  0  0  0  0  0  0  0
   -6.9934   -2.2442    2.9294 H   0  0  0  0  0  0  0  0  0  0  0  0
   -4.9935   -1.8388    1.4047 H   0  0  0  0  0  0  0  0  0  0  0  0
   -8.4245   -1.7700    1.6952 H   0  0  0  0  0  0  0  0  0  0  0  0
  -10.4616   -1.9288    0.2418 H   0  0  0  0  0  0  0  0  0  0  0  0
  -10.2556   -1.6175   -1.5612 H   0  0  0  0  0  0  0  0  0  0  0  0
  -10.7273   -0.3105   -0.4650 H   0  0  0  0  0  0  0  0  0  0  0  0
   -9.1196    0.1689   -2.8440 H   0  0  0  0  0  0  0  0  0  0  0  0
   -7.2711    1.2668   -4.0934 H   0  0  0  0  0  0  0  0  0  0  0  0
   -5.1116    1.3923   -3.0812 H   0  0  0  0  0  0  0  0  0  0  0  0
   -4.6970    0.4538   -0.8358 H   0  0  0  0  0  0  0  0  0  0  0  0
    5.6131   -0.9115   -1.8378 H   0  0  0  0  0  0  0  0  0  0  0  0
  1  2  1  0
  2  3  1  0
  2  4  1  0
  4  5  1  0
  5  6  1  0
  6  7  1  0
  7  8  2  0
  7  9  1  0
  9 10  2  0
 10 11  1  0
 11 12  2  0
 12 13  1  0
 13 14  1  0
 14 15  2  0
 15 16  1  0
 16 17  2  0
 17 18  1  0
 18 19  2  0
 19 20  1  0
 17 21  1  0
 21 22  2  0
 21 23  1  0
 23 24  1  0
 24 25  1  0
 25 26  1  0
 26 27  1  0
 27 28  1  0
 28 29  2  0
 29 30  1  0
 30 31  1  0
 30 32  1  0
 32 33  2  0
 33 34  1  0
 34 35  2  0
 35 36  1  0
 36 37  2  0
 12 38  1  0
 38 39  2  0
 38 40  1  0
 40 41  1  0
 40 42  1  0
 40 43  1  0
 39  9  1  0
 19 14  1  0
 27 23  1  0
 37 28  1  0
 37 32  1  0
  1 44  1  0
  1 45  1  0
  1 46  1  0
  3 47  1  0
  3 48  1  0
  3 49  1  0
  4 50  1  0
  4 51  1  0
  5 52  1  0
  5 53  1  0
  6 54  1  0
 10 55  1  0
 11 56  1  0
 13 57  1  0
 16 58  1  0
 18 59  1  0
 20 60  1  0
 20 61  1  0
 20 62  1  0
 24 63  1  0
 24 64  1  0
 25 65  1  0
 25 66  1  0
 26 67  1  0
 26 68  1  0
 27 69  1  6
 29 70  1  0
 31 71  1  0
 31 72  1  0
 31 73  1  0
 33 74  1  0
 34 75  1  0
 35 76  1  0
 36 77  1  0
 39 78  1  0
M  END
$$$$
[H]O[C@@]1(C([H])([H])N(C(=O)c2sc([H])c(C(=O)OC([H])([H])[H])c2[H])C([H])([H])[H])OC2([H])C([H])([H])C([H])([H])C(=O)C(C([H])([H])[H])(C([H])([H])[H])O[C@@]2(C([H])([H])[H])C([H])([H])C1([H])[H]
     RDKit          3D

 59 61  0  0  0  0  0  0  0  0999 V2000
    9.0240   -2.0899    0.2005 C   0  0  0  0  0  0  0  0  0  0  0  0
    7.7796   -1.4365    0.0353 O   0  0  0  0  0  0  0  0  0  0  0  0
    7.4915   -0.5927   -1.0100 C   0  0  0  0  0  0  0  0  0  0  0  0
    8.3306   -0.3620   -1.8747 O   0  0  0  0  0  0  0  0  0  0  0  0
    6.1495    0.0329   -1.0732 C   0  0  0  0  0  0  0  0  0  0  0  0
    5.8484    0.8804   -2.1158 C   0  0  0  0  0  0  0  0  0  0  0  0
    4.2509    1.3481   -1.7884 S   0  0  0  0  0  0  0  0  0  0  0  0
    3.9854    0.4717   -0.3465 C   0  0  0  0  0  0  0  0  0  0  0  0
    5.1852   -0.1714   -0.1681 C   0  0  0  0  0  0  0  0  0  0  0  0
    2.7901    0.4079    0.5002 C   0  0  0  0  0  0  0  0  0  0  0  0
    2.8809   -0.3414    1.5230 O   0  0  0  0  0  0  0  0  0  0  0  0
    1.6041    1.1029    0.2464 N   0  0  0  0  0  0  0  0  0  0  0  0
    1.4641    1.9677   -0.8917 C   0  0  0  0  0  0  0  0  0  0  0  0
    0.4743    0.9642    1.1388 C   0  0  0  0  0  0  0  0  0  0  0  0
   -0.4745   -0.1287    0.8152 C   0  0  1  0  0  0  0  0  0  0  0  0
    0.2818   -1.3377    0.8470 O   0  0  0  0  0  0  0  0  0  0  0  0
   -1.4737   -0.2742    1.9450 C   0  0  0  0  0  0  0  0  0  0  0  0
   -2.5327    0.7562    1.8711 C   0  0  0  0  0  0  0  0  0  0  0  0
   -3.1360    0.9449    0.4984 C   0  0  1  0  0  0  0  0  0  0  0  0
   -3.4304    2.4706    0.4379 C   0  0  0  0  0  0  0  0  0  0  0  0
   -2.1462    0.7190   -0.6044 C   0  0  0  0  0  0  0  0  0  0  0  0
   -2.8732    0.1812   -1.8526 C   0  0  0  0  0  0  0  0  0  0  0  0
   -2.9724   -1.3172   -1.8015 C   0  0  0  0  0  0  0  0  0  0  0  0
   -3.5996   -1.6935   -0.5291 C   0  0  0  0  0  0  0  0  0  0  0  0
   -3.3035   -2.7607   -0.0099 O   0  0  0  0  0  0  0  0  0  0  0  0
   -4.5971   -0.8999    0.2417 C   0  0  0  0  0  0  0  0  0  0  0  0
   -4.9212   -1.5751    1.5759 C   0  0  0  0  0  0  0  0  0  0  0  0
   -5.9044   -1.0547   -0.5694 C   0  0  0  0  0  0  0  0  0  0  0  0
   -4.3685    0.4130    0.3320 O   0  0  0  0  0  0  0  0  0  0  0  0
   -1.1187   -0.1221   -0.3619 O   0  0  0  0  0  0  0  0  0  0  0  0
    9.7394   -1.8243   -0.5914 H   0  0  0  0  0  0  0  0  0  0  0  0
    8.8467   -3.1879    0.1414 H   0  0  0  0  0  0  0  0  0  0  0  0
    9.4382   -1.8867    1.1926 H   0  0  0  0  0  0  0  0  0  0  0  0
    6.4892    1.1851   -2.9630 H   0  0  0  0  0  0  0  0  0  0  0  0
    5.3171   -0.8385    0.7189 H   0  0  0  0  0  0  0  0  0  0  0  0
    2.2277    2.8032   -0.9017 H   0  0  0  0  0  0  0  0  0  0  0  0
    0.4967    2.5320   -0.8739 H   0  0  0  0  0  0  0  0  0  0  0  0
    1.5821    1.4432   -1.8596 H   0  0  0  0  0  0  0  0  0  0  0  0
   -0.0336    1.9550    1.2928 H   0  0  0  0  0  0  0  0  0  0  0  0
    0.9117    0.7414    2.1516 H   0  0  0  0  0  0  0  0  0  0  0  0
    0.5655   -1.5625   -0.0648 H   0  0  0  0  0  0  0  0  0  0  0  0
   -1.8106   -1.3243    2.0192 H   0  0  0  0  0  0  0  0  0  0  0  0
   -0.9456   -0.1096    2.9360 H   0  0  0  0  0  0  0  0  0  0  0  0
   -2.1271    1.7004    2.3092 H   0  0  0  0  0  0  0  0  0  0  0  0
   -3.3514    0.4531    2.5882 H   0  0  0  0  0  0  0  0  0  0  0  0
   -3.6958    2.7443   -0.6083 H   0  0  0  0  0  0  0  0  0  0  0  0
   -4.3059    2.6590    1.1136 H   0  0  0  0  0  0  0  0  0  0  0  0
   -2.5416    2.9838    0.7970 H   0  0  0  0  0  0  0  0  0  0  0  0
   -1.7036    1.6813   -1.0044 H   0  0  0  0  0  0  0  0  0  0  0  0
   -3.8916    0.5923   -1.8422 H   0  0  0  0  0  0  0  0  0  0  0  0
   -2.3864    0.4844   -2.7808 H   0  0  0  0  0  0  0  0  0  0  0  0
   -1.9826   -1.8146   -1.8750 H   0  0  0  0  0  0  0  0  0  0  0  0
   -3.6511   -1.6379   -2.6192 H   0  0  0  0  0  0  0  0  0  0  0  0
   -5.3664   -0.8063    2.2571 H   0  0  0  0  0  0  0  0  0  0  0  0
   -4.0720   -2.1069    2.0028 H   0  0  0  0  0  0  0  0  0  0  0  0
   -5.7351   -2.3439    1.4596 H   0  0  0  0  0  0  0  0  0  0  0  0
   -6.3040   -2.0961   -0.4169 H   0  0  0  0  0  0  0  0  0  0  0  0
   -5.7273   -0.9424   -1.6382 H   0  0  0  0  0  0  0  0  0  0  0  0
   -6.6709   -0.3741   -0.1515 H   0  0  0  0  0  0  0  0  0  0  0  0
  1  2  1  0
  2  3  1  0
  3  4  2  0
  3  5  1  0
  5  6  2  0
  6  7  1  0
  7  8  1  0
  8  9  2  0
  8 10  1  0
 10 11  2  0
 10 12  1  0
 12 13  1  0
 12 14  1  0
 14 15  1  0
 15 16  1  6
 15 17  1  0
 17 18  1  0
 18 19  1  0
 19 20  1  1
 19 21  1  0
 21 22  1  0
 22 23  1  0
 23 24  1  0
 24 25  2  0
 24 26  1  0
 26 27  1  0
 26 28  1  0
 26 29  1  0
 21 30  1  0
  9  5  1  0
 30 15  1  0
 29 19  1  0
  1 31  1  0
  1 32  1  0
  1 33  1  0
  6 34  1  0
  9 35  1  0
 13 36  1  0
 13 37  1  0
 13 38  1  0
 14 39  1  0
 14 40  1  0
 16 41  1  0
 17 42  1  0
 17 43  1  0
 18 44  1  0
 18 45  1  0
 20 46  1  0
 20 47  1  0
 20 48  1  0
 21 49  1  0
 22 50  1  0
 22 51  1  0
 23 52  1  0
 23 53  1  0
 27 54  1  0
 27 55  1  0
 27 56  1  0
 28 57  1  0
 28 58  1  0
 28 59  1  0
M  END
$$$$
[H]N=C(c1c([H])c(C(=O)N(C([H])(C([H])([H])[H])C([H])([H])[H])C([H])(C([H])([H])[H])C([H])([H])[H])c([H])c(C(F)(F)F)c1[H])N([H])[H]
     RDKit          3D

 42 42  0  0  0  0  0  0  0  0999 V2000
   -2.1836    1.8262    0.7610 C   0  0  0  0  0  0  0  0  0  0  0  0
   -2.3114    1.0283   -0.5563 C   0  0  0  0  0  0  0  0  0  0  0  0
   -1.7590    1.7899   -1.6648 C   0  0  0  0  0  0  0  0  0  0  0  0
   -1.9302   -0.3434   -0.3436 N   0  0  0  0  0  0  0  0  0  0  0  0
   -3.1265   -1.2135   -0.1105 C   0  0  0  0  0  0  0  0  0  0  0  0
   -3.1795   -2.4687   -0.8515 C   0  0  0  0  0  0  0  0  0  0  0  0
   -3.1563   -1.4990    1.4070 C   0  0  0  0  0  0  0  0  0  0  0  0
   -0.7064   -0.9627   -0.2031 C   0  0  0  0  0  0  0  0  0  0  0  0
   -0.8086   -2.3066   -0.0737 O   0  0  0  0  0  0  0  0  0  0  0  0
    0.6822   -0.5829   -0.1561 C   0  0  0  0  0  0  0  0  0  0  0  0
    1.6648   -1.5928   -0.2014 C   0  0  0  0  0  0  0  0  0  0  0  0
    3.0021   -1.2940   -0.0704 C   0  0  0  0  0  0  0  0  0  0  0  0
    3.4475   -0.0052    0.1125 C   0  0  0  0  0  0  0  0  0  0  0  0
    2.5256    0.9933    0.1620 C   0  0  0  0  0  0  0  0  0  0  0  0
    1.1583    0.6885    0.0257 C   0  0  0  0  0  0  0  0  0  0  0  0
    2.9494    2.3684    0.3992 C   0  0  0  0  0  0  0  0  0  0  0  0
    4.2882    2.6289    0.7421 N   0  0  0  0  0  0  0  0  0  0  0  0
    2.0869    3.3169    0.3433 N   0  0  0  0  0  0  0  0  0  0  0  0
    4.0345   -2.3635   -0.1337 C   0  0  0  0  0  0  0  0  0  0  0  0
    4.5347   -2.6425    1.1209 F   0  0  0  0  0  0  0  0  0  0  0  0
    5.1106   -1.9284   -0.9211 F   0  0  0  0  0  0  0  0  0  0  0  0
    3.5652   -3.5074   -0.7186 F   0  0  0  0  0  0  0  0  0  0  0  0
   -1.6677    2.7599    0.6106 H   0  0  0  0  0  0  0  0  0  0  0  0
   -1.6124    1.1931    1.5011 H   0  0  0  0  0  0  0  0  0  0  0  0
   -3.1669    2.0325    1.2335 H   0  0  0  0  0  0  0  0  0  0  0  0
   -3.4867    1.0562   -0.6789 H   0  0  0  0  0  0  0  0  0  0  0  0
   -1.3914    1.1971   -2.5275 H   0  0  0  0  0  0  0  0  0  0  0  0
   -2.5768    2.4614   -2.0874 H   0  0  0  0  0  0  0  0  0  0  0  0
   -0.9607    2.5457   -1.3958 H   0  0  0  0  0  0  0  0  0  0  0  0
   -4.0219   -0.5821   -0.3387 H   0  0  0  0  0  0  0  0  0  0  0  0
   -4.2809   -2.7545   -0.9777 H   0  0  0  0  0  0  0  0  0  0  0  0
   -2.7556   -2.5394   -1.8566 H   0  0  0  0  0  0  0  0  0  0  0  0
   -2.8465   -3.3213   -0.1640 H   0  0  0  0  0  0  0  0  0  0  0  0
   -3.5366   -2.5107    1.6061 H   0  0  0  0  0  0  0  0  0  0  0  0
   -3.8652   -0.7812    1.8579 H   0  0  0  0  0  0  0  0  0  0  0  0
   -2.1422   -1.4237    1.8137 H   0  0  0  0  0  0  0  0  0  0  0  0
    1.4097   -2.6431   -0.3335 H   0  0  0  0  0  0  0  0  0  0  0  0
    4.5103    0.1886    0.2124 H   0  0  0  0  0  0  0  0  0  0  0  0
    0.5404    1.5341    0.0871 H   0  0  0  0  0  0  0  0  0  0  0  0
    4.9307    3.2787    0.2821 H   0  0  0  0  0  0  0  0  0  0  0  0
    4.6642    2.0842    1.5778 H   0  0  0  0  0  0  0  0  0  0  0  0
    2.3678    4.2947    0.5089 H   0  0  0  0  0  0  0  0  0  0  0  0
  1  2  1  0
  2  3  1  0
  2  4  1  0
  4  5  1  0
  5  6  1  0
  5  7  1  0
  4  8  1  0
  8  9  2  0
  8 10  1  0
 10 11  2  0
 11 12  1  0
 12 13  2  0
 13 14  1  0
 14 15  2  0
 14 16  1  0
 16 17  1  0
 16 18  2  3
 12 19  1  0
 19 20  1  0
 19 21  1  0
 19 22  1  0
 15 10  1  0
  1 23  1  0
  1 24  1  0
  1 25  1  0
  2 26  1  0
  3 27  1  0
  3 28  1  0
  3 29  1  0
  5 30  1  0
  6 31  1  0
  6 32  1  0
  6 33  1  0
  7 34  1  0
  7 35  1  0
  7 36  1  0
 11 37  1  0
 13 38  1  0
 15 39  1  0
 17 40  1  0
 17 41  1  0
 18 42  1  0
M  END
$$$$
[H]c1nc(N([H])c2c([H])c(OC([H])([H])[H])c(N([H])C(=O)c3sc4c(c3[H])C([H])([H])C([H])([H])C([H])([H])C4([H])[H])c([H])c2C([H])([H])[H])c(OC([H])([H])C([H])([H])[H])c([H])c1-n1nc([H])c2c([H])c(C(=O)C([H])([H])[H])c([H])c([H])c2c1=O
     RDKit          3D

 78 83  0  0  0  0  0  0  0  0999 V2000
    4.8512   -4.2594    1.1839 C   0  0  0  0  0  0  0  0  0  0  0  0
    3.9579   -4.3488   -0.0317 C   0  0  0  0  0  0  0  0  0  0  0  0
    2.8592   -3.5230   -0.0312 O   0  0  0  0  0  0  0  0  0  0  0  0
    2.8118   -2.1403    0.0047 C   0  0  0  0  0  0  0  0  0  0  0  0
    3.9992   -1.4240    0.0352 C   0  0  0  0  0  0  0  0  0  0  0  0
    3.9769   -0.0526    0.0702 C   0  0  0  0  0  0  0  0  0  0  0  0
    2.7330    0.5908    0.0736 C   0  0  0  0  0  0  0  0  0  0  0  0
    1.6281   -0.1637    0.0430 N   0  0  0  0  0  0  0  0  0  0  0  0
    1.5708   -1.4805    0.0086 C   0  0  0  0  0  0  0  0  0  0  0  0
    0.4148   -2.2334    0.0023 N   0  0  0  0  0  0  0  0  0  0  0  0
   -0.9366   -1.7973   -0.0197 C   0  0  0  0  0  0  0  0  0  0  0  0
   -1.3444   -0.5238   -0.2879 C   0  0  0  0  0  0  0  0  0  0  0  0
   -2.6759   -0.1499   -0.3428 C   0  0  0  0  0  0  0  0  0  0  0  0
   -3.0412    1.1493   -0.6161 O   0  0  0  0  0  0  0  0  0  0  0  0
   -2.1117    2.1874   -0.8597 C   0  0  0  0  0  0  0  0  0  0  0  0
   -3.6963   -1.0742   -0.1222 C   0  0  0  0  0  0  0  0  0  0  0  0
   -5.0472   -0.6823   -0.2511 N   0  0  0  0  0  0  0  0  0  0  0  0
   -6.1928   -1.3644    0.1898 C   0  0  0  0  0  0  0  0  0  0  0  0
   -6.1786   -2.4324    0.7927 O   0  0  0  0  0  0  0  0  0  0  0  0
   -7.4984   -0.6945   -0.1224 C   0  0  0  0  0  0  0  0  0  0  0  0
   -7.7293    0.4250   -0.8739 C   0  0  0  0  0  0  0  0  0  0  0  0
   -9.0203    0.8017   -1.0381 C   0  0  0  0  0  0  0  0  0  0  0  0
   -9.5096    1.9937   -1.8760 C   0  0  0  0  0  0  0  0  0  0  0  0
  -10.7481    1.4307   -2.5474 C   0  0  0  0  0  0  0  0  0  0  0  0
  -11.8072    1.3227   -1.4857 C   0  0  0  0  0  0  0  0  0  0  0  0
  -11.4311    0.2884   -0.4846 C   0  0  0  0  0  0  0  0  0  0  0  0
   -9.9774    0.0261   -0.4330 C   0  0  0  0  0  0  0  0  0  0  0  0
   -9.0617   -1.1867    0.3312 S   0  0  0  0  0  0  0  0  0  0  0  0
   -3.3061   -2.3565    0.1487 C   0  0  0  0  0  0  0  0  0  0  0  0
   -1.9610   -2.7305    0.2032 C   0  0  0  0  0  0  0  0  0  0  0  0
   -1.5989   -4.1237    0.4853 C   0  0  0  0  0  0  0  0  0  0  0  0
    5.1788    0.7253    0.1075 N   0  0  0  0  0  0  0  0  0  0  0  0
    5.4187    1.6421   -0.8100 N   0  0  0  0  0  0  0  0  0  0  0  0
    6.5495    2.3794   -0.7667 C   0  0  0  0  0  0  0  0  0  0  0  0
    7.4770    2.1997    0.2237 C   0  0  0  0  0  0  0  0  0  0  0  0
    8.6469    2.9392    0.2869 C   0  0  0  0  0  0  0  0  0  0  0  0
    9.5422    2.7162    1.2926 C   0  0  0  0  0  0  0  0  0  0  0  0
    9.2515    1.7410    2.2387 C   0  0  0  0  0  0  0  0  0  0  0  0
    8.0926    0.9974    2.1912 C   0  0  0  0  0  0  0  0  0  0  0  0
    7.2017    1.2220    1.1857 C   0  0  0  0  0  0  0  0  0  0  0  0
    6.0270    0.4788    1.1136 C   0  0  0  0  0  0  0  0  0  0  0  0
    5.8271   -0.3902    2.0060 O   0  0  0  0  0  0  0  0  0  0  0  0
   10.7987    3.4859    1.3924 C   0  0  0  0  0  0  0  0  0  0  0  0
   11.1155    4.5349    0.4150 C   0  0  0  0  0  0  0  0  0  0  0  0
   11.5874    3.2207    2.3318 O   0  0  0  0  0  0  0  0  0  0  0  0
    4.3974   -3.4985    1.8459 H   0  0  0  0  0  0  0  0  0  0  0  0
    4.8941   -5.2730    1.6391 H   0  0  0  0  0  0  0  0  0  0  0  0
    5.9061   -4.0018    0.8902 H   0  0  0  0  0  0  0  0  0  0  0  0
    3.6175   -5.3904   -0.2164 H   0  0  0  0  0  0  0  0  0  0  0  0
    4.5913   -4.0973   -0.9298 H   0  0  0  0  0  0  0  0  0  0  0  0
    4.9703   -1.9398    0.0223 H   0  0  0  0  0  0  0  0  0  0  0  0
    2.7633    1.6681    0.1010 H   0  0  0  0  0  0  0  0  0  0  0  0
    0.5451   -3.3063    0.0073 H   0  0  0  0  0  0  0  0  0  0  0  0
   -0.6065    0.2572   -0.4835 H   0  0  0  0  0  0  0  0  0  0  0  0
   -1.5876    2.0403   -1.8347 H   0  0  0  0  0  0  0  0  0  0  0  0
   -1.3230    2.1786   -0.0775 H   0  0  0  0  0  0  0  0  0  0  0  0
   -2.5675    3.1740   -0.8785 H   0  0  0  0  0  0  0  0  0  0  0  0
   -5.1553    0.2633   -0.7674 H   0  0  0  0  0  0  0  0  0  0  0  0
   -6.8676    0.9887   -1.3262 H   0  0  0  0  0  0  0  0  0  0  0  0
   -9.8021    2.8312   -1.2337 H   0  0  0  0  0  0  0  0  0  0  0  0
   -8.7649    2.3176   -2.5945 H   0  0  0  0  0  0  0  0  0  0  0  0
  -11.1179    2.0728   -3.3750 H   0  0  0  0  0  0  0  0  0  0  0  0
  -10.4812    0.4300   -2.9371 H   0  0  0  0  0  0  0  0  0  0  0  0
  -11.8353    2.3299   -0.9624 H   0  0  0  0  0  0  0  0  0  0  0  0
  -12.8158    1.1138   -1.9311 H   0  0  0  0  0  0  0  0  0  0  0  0
  -11.8216    0.5745    0.5406 H   0  0  0  0  0  0  0  0  0  0  0  0
  -11.9889   -0.6607   -0.7524 H   0  0  0  0  0  0  0  0  0  0  0  0
   -4.0344   -3.1534    0.3271 H   0  0  0  0  0  0  0  0  0  0  0  0
   -0.7935   -4.1223    1.2522 H   0  0  0  0  0  0  0  0  0  0  0  0
   -2.4398   -4.6761    0.9684 H   0  0  0  0  0  0  0  0  0  0  0  0
   -1.3202   -4.6879   -0.4333 H   0  0  0  0  0  0  0  0  0  0  0  0
    6.7352    3.1392   -1.5401 H   0  0  0  0  0  0  0  0  0  0  0  0
    8.8157    3.6817   -0.4752 H   0  0  0  0  0  0  0  0  0  0  0  0
    9.9748    1.5651    3.0440 H   0  0  0  0  0  0  0  0  0  0  0  0
    7.8457    0.2275    2.9262 H   0  0  0  0  0  0  0  0  0  0  0  0
   12.2121    4.7919    0.4459 H   0  0  0  0  0  0  0  0  0  0  0  0
   10.6025    5.5119    0.6401 H   0  0  0  0  0  0  0  0  0  0  0  0
   10.8086    4.2840   -0.6214 H   0  0  0  0  0  0  0  0  0  0  0  0
  1  2  1  0
  2  3  1  0
  3  4  1  0
  4  5  2  0
  5  6  1  0
  6  7  2  0
  7  8  1  0
  8  9  2  0
  9 10  1  0
 10 11  1  0
 11 12  2  0
 12 13  1  0
 13 14  1  0
 14 15  1  0
 13 16  2  0
 16 17  1  0
 17 18  1  0
 18 19  2  0
 18 20  1  0
 20 21  2  0
 21 22  1  0
 22 23  1  0
 23 24  1  0
 24 25  1  0
 25 26  1  0
 26 27  1  0
 27 28  1  0
 16 29  1  0
 29 30  2  0
 30 31  1  0
  6 32  1  0
 32 33  1  0
 33 34  2  0
 34 35  1  0
 35 36  2  0
 36 37  1  0
 37 38  2  0
 38 39  1  0
 39 40  2  0
 40 41  1  0
 41 42  2  0
 37 43  1  0
 43 44  1  0
 43 45  2  0
  9  4  1  0
 30 11  1  0
 41 32  1  0
 28 20  1  0
 40 35  1  0
 27 22  2  0
  1 46  1  0
  1 47  1  0
  1 48  1  0
  2 49  1  0
  2 50  1  0
  5 51  1  0
  7 52  1  0
 10 53  1  0
 12 54  1  0
 15 55  1  0
 15 56  1  0
 15 57  1  0
 17 58  1  0
 21 59  1  0
 23 60  1  0
 23 61  1  0
 24 62  1  0
 24 63  1  0
 25 64  1  0
 25 65  1  0
 26 66  1  0
 26 67  1  0
 29 68  1  0
 31 69  1  0
 31 70  1  0
 31 71  1  0
 34 72  1  0
 36 73  1  0
 38 74  1  0
 39 75  1  0
 44 76  1  0
 44 77  1  0
 44 78  1  0
M  END
$$$$
[H]C(OC([H])([H])c1c([H])c([H])c(OC([H])([H])[H])c(OC([H])([H])[H])c1[H])=C1C(=O)C([H])=C(C([H])([H])[H])N(C2([H])C([H])([H])C([H])([H])C([H])([H])C([H])([H])C2([H])[H])C1=O
     RDKit          3D

 55 57  0  0  0  0  0  0  0  0999 V2000
    8.5481   -1.4374   -1.3360 C   0  0  0  0  0  0  0  0  0  0  0  0
    7.8052   -0.6247   -0.4660 O   0  0  0  0  0  0  0  0  0  0  0  0
    6.4663   -0.8928   -0.2690 C   0  0  0  0  0  0  0  0  0  0  0  0
    5.8641   -1.9440   -0.9167 C   0  0  0  0  0  0  0  0  0  0  0  0
    4.5271   -2.2312   -0.7355 C   0  0  0  0  0  0  0  0  0  0  0  0
    3.7291   -1.4725    0.1085 C   0  0  0  0  0  0  0  0  0  0  0  0
    2.3040   -1.7957    0.2884 C   0  0  0  0  0  0  0  0  0  0  0  0
    1.5449   -1.0789   -0.6925 O   0  0  0  0  0  0  0  0  0  0  0  0
    0.1646   -1.1846   -0.7694 C   0  0  0  0  0  0  0  0  0  0  0  0
   -0.6308   -0.2070   -0.4064 C   0  0  0  0  0  0  0  0  0  0  0  0
   -0.0992    1.0542    0.1019 C   0  0  0  0  0  0  0  0  0  0  0  0
    1.1403    1.2463    0.2092 O   0  0  0  0  0  0  0  0  0  0  0  0
   -1.0316    2.0995    0.4879 C   0  0  0  0  0  0  0  0  0  0  0  0
   -2.3450    1.9717    0.4039 C   0  0  0  0  0  0  0  0  0  0  0  0
   -3.2175    3.1195    0.8315 C   0  0  0  0  0  0  0  0  0  0  0  0
   -2.9145    0.7580   -0.0866 N   0  0  0  0  0  0  0  0  0  0  0  0
   -4.3348    0.6588   -0.1587 C   0  0  0  0  0  0  0  0  0  0  0  0
   -4.8354    0.3690   -1.5588 C   0  0  0  0  0  0  0  0  0  0  0  0
   -6.2893    0.7746   -1.6021 C   0  0  0  0  0  0  0  0  0  0  0  0
   -7.0311   -0.0605   -0.6081 C   0  0  0  0  0  0  0  0  0  0  0  0
   -6.1439   -1.0641    0.0920 C   0  0  0  0  0  0  0  0  0  0  0  0
   -4.9258   -0.4207    0.7216 C   0  0  0  0  0  0  0  0  0  0  0  0
   -2.0787   -0.3259   -0.4903 C   0  0  0  0  0  0  0  0  0  0  0  0
   -2.5772   -1.3931   -0.9222 O   0  0  0  0  0  0  0  0  0  0  0  0
    4.3413   -0.4240    0.7511 C   0  0  0  0  0  0  0  0  0  0  0  0
    5.6725   -0.1283    0.5783 C   0  0  0  0  0  0  0  0  0  0  0  0
    6.2612    0.9466    1.2489 O   0  0  0  0  0  0  0  0  0  0  0  0
    5.4609    1.7269    2.1107 C   0  0  0  0  0  0  0  0  0  0  0  0
    8.6698   -2.4306   -0.9053 H   0  0  0  0  0  0  0  0  0  0  0  0
    9.5414   -0.9282   -1.4879 H   0  0  0  0  0  0  0  0  0  0  0  0
    8.0349   -1.4936   -2.3348 H   0  0  0  0  0  0  0  0  0  0  0  0
    6.4530   -2.5749   -1.5958 H   0  0  0  0  0  0  0  0  0  0  0  0
    4.0602   -3.0646   -1.2523 H   0  0  0  0  0  0  0  0  0  0  0  0
    2.0645   -2.8578    0.1982 H   0  0  0  0  0  0  0  0  0  0  0  0
    1.9838   -1.4514    1.3010 H   0  0  0  0  0  0  0  0  0  0  0  0
   -0.2774   -2.0969   -1.1385 H   0  0  0  0  0  0  0  0  0  0  0  0
   -0.5892    3.0329    0.8652 H   0  0  0  0  0  0  0  0  0  0  0  0
   -3.8519    2.8636    1.6795 H   0  0  0  0  0  0  0  0  0  0  0  0
   -2.6178    4.0029    1.0761 H   0  0  0  0  0  0  0  0  0  0  0  0
   -3.8830    3.4140   -0.0312 H   0  0  0  0  0  0  0  0  0  0  0  0
   -4.8103    1.6124    0.1943 H   0  0  0  0  0  0  0  0  0  0  0  0
   -4.7818   -0.7151   -1.7889 H   0  0  0  0  0  0  0  0  0  0  0  0
   -4.2317    0.8741   -2.3350 H   0  0  0  0  0  0  0  0  0  0  0  0
   -6.7092    0.7104   -2.6277 H   0  0  0  0  0  0  0  0  0  0  0  0
   -6.3680    1.8400   -1.3023 H   0  0  0  0  0  0  0  0  0  0  0  0
   -7.7997   -0.6453   -1.1546 H   0  0  0  0  0  0  0  0  0  0  0  0
   -7.5837    0.5503    0.1469 H   0  0  0  0  0  0  0  0  0  0  0  0
   -5.8938   -1.9103   -0.5720 H   0  0  0  0  0  0  0  0  0  0  0  0
   -6.7839   -1.5139    0.9028 H   0  0  0  0  0  0  0  0  0  0  0  0
   -5.2949    0.0105    1.6958 H   0  0  0  0  0  0  0  0  0  0  0  0
   -4.2049   -1.2439    0.9018 H   0  0  0  0  0  0  0  0  0  0  0  0
    3.7126    0.1801    1.4211 H   0  0  0  0  0  0  0  0  0  0  0  0
    5.2096    1.1095    3.0001 H   0  0  0  0  0  0  0  0  0  0  0  0
    4.5545    2.0377    1.5604 H   0  0  0  0  0  0  0  0  0  0  0  0
    6.0217    2.6482    2.4003 H   0  0  0  0  0  0  0  0  0  0  0  0
  1  2  1  0
  2  3  1  0
  3  4  2  0
  4  5  1  0
  5  6  2  0
  6  7  1  0
  7  8  1  0
  8  9  1  0
  9 10  2  3
 10 11  1  0
 11 12  2  0
 11 13  1  0
 13 14  2  0
 14 15  1  0
 14 16  1  0
 16 17  1  0
 17 18  1  0
 18 19  1  0
 19 20  1  0
 20 21  1  0
 21 22  1  0
 16 23  1  0
 23 24  2  0
  6 25  1  0
 25 26  2  0
 26 27  1  0
 27 28  1  0
 26  3  1  0
 23 10  1  0
 22 17  1  0
  1 29  1  0
  1 30  1  0
  1 31  1  0
  4 32  1  0
  5 33  1  0
  7 34  1  0
  7 35  1  0
  9 36  1  0
 13 37  1  0
 15 38  1  0
 15 39  1  0
 15 40  1  0
 17 41  1  0
 18 42  1  0
 18 43  1  0
 19 44  1  0
 19 45  1  0
 20 46  1  0
 20 47  1  0
 21 48  1  0
 21 49  1  0
 22 50  1  0
 22 51  1  0
 25 52  1  0
 28 53  1  0
 28 54  1  0
 28 55  1  0
M  END
$$$$
[H]c1c([H])c([H])c(-c2c([H])c([H])c(OC([H])([H])[H])c([H])c2[H])c(C(=O)N([H])c2c([H])c(C(F)(F)F)nn2C([H])([H])[H])c1[H]
     RDKit          3D

 43 45  0  0  0  0  0  0  0  0999 V2000
   -4.2338   -3.3770   -1.1305 C   0  0  0  0  0  0  0  0  0  0  0  0
   -3.9091   -2.7140    0.0612 O   0  0  0  0  0  0  0  0  0  0  0  0
   -3.1569   -1.5250    0.1202 C   0  0  0  0  0  0  0  0  0  0  0  0
   -2.6671   -0.9139   -0.9790 C   0  0  0  0  0  0  0  0  0  0  0  0
   -1.9387    0.2725   -0.8501 C   0  0  0  0  0  0  0  0  0  0  0  0
   -1.7005    0.8531    0.3650 C   0  0  0  0  0  0  0  0  0  0  0  0
   -2.2132    0.1940    1.4908 C   0  0  0  0  0  0  0  0  0  0  0  0
   -2.9440   -0.9978    1.3788 C   0  0  0  0  0  0  0  0  0  0  0  0
   -1.1069    2.1521    0.5498 C   0  0  0  0  0  0  0  0  0  0  0  0
   -1.7589    3.0884    1.3906 C   0  0  0  0  0  0  0  0  0  0  0  0
   -1.3141    4.3756    1.5333 C   0  0  0  0  0  0  0  0  0  0  0  0
   -0.1785    4.7914    0.8303 C   0  0  0  0  0  0  0  0  0  0  0  0
    0.4615    3.9058    0.0219 C   0  0  0  0  0  0  0  0  0  0  0  0
   -0.0224    2.5929   -0.0968 C   0  0  0  0  0  0  0  0  0  0  0  0
    0.8708    1.6526   -0.8563 C   0  0  0  0  0  0  0  0  0  0  0  0
    1.0936    1.8782   -2.0372 O   0  0  0  0  0  0  0  0  0  0  0  0
    1.3940    0.5878   -0.1290 N   0  0  0  0  0  0  0  0  0  0  0  0
    2.3197   -0.4351   -0.3950 C   0  0  0  0  0  0  0  0  0  0  0  0
    2.6409   -1.3652    0.6210 C   0  0  0  0  0  0  0  0  0  0  0  0
    3.6079   -2.2581    0.1479 C   0  0  0  0  0  0  0  0  0  0  0  0
    3.8499   -1.8797   -1.0857 N   0  0  0  0  0  0  0  0  0  0  0  0
    3.0899   -0.8037   -1.4046 N   0  0  0  0  0  0  0  0  0  0  0  0
    3.1982   -0.1988   -2.6899 C   0  0  0  0  0  0  0  0  0  0  0  0
    4.1914   -3.3694    0.9630 C   0  0  0  0  0  0  0  0  0  0  0  0
    5.5610   -3.1754    1.1156 F   0  0  0  0  0  0  0  0  0  0  0  0
    3.9863   -4.5661    0.2989 F   0  0  0  0  0  0  0  0  0  0  0  0
    3.6747   -3.4334    2.2330 F   0  0  0  0  0  0  0  0  0  0  0  0
   -3.3480   -3.5115   -1.7406 H   0  0  0  0  0  0  0  0  0  0  0  0
   -4.6981   -4.3410   -0.8373 H   0  0  0  0  0  0  0  0  0  0  0  0
   -5.0428   -2.8268   -1.6977 H   0  0  0  0  0  0  0  0  0  0  0  0
   -2.8635   -1.3738   -1.9444 H   0  0  0  0  0  0  0  0  0  0  0  0
   -1.5544    0.7167   -1.7668 H   0  0  0  0  0  0  0  0  0  0  0  0
   -2.0576    0.5702    2.4802 H   0  0  0  0  0  0  0  0  0  0  0  0
   -3.3373   -1.5079    2.2223 H   0  0  0  0  0  0  0  0  0  0  0  0
   -2.6406    2.7024    1.9123 H   0  0  0  0  0  0  0  0  0  0  0  0
   -1.8213    5.0752    2.1957 H   0  0  0  0  0  0  0  0  0  0  0  0
    0.1464    5.8132    0.9598 H   0  0  0  0  0  0  0  0  0  0  0  0
    1.3338    4.2077   -0.5273 H   0  0  0  0  0  0  0  0  0  0  0  0
    1.0173    0.6155    0.9140 H   0  0  0  0  0  0  0  0  0  0  0  0
    2.2276   -1.4170    1.6142 H   0  0  0  0  0  0  0  0  0  0  0  0
    2.2956   -0.2759   -3.3361 H   0  0  0  0  0  0  0  0  0  0  0  0
    4.0575   -0.6548   -3.2646 H   0  0  0  0  0  0  0  0  0  0  0  0
    3.4897    0.8762   -2.6233 H   0  0  0  0  0  0  0  0  0  0  0  0
  1  2  1  0
  2  3  1  0
  3  4  2  0
  4  5  1  0
  5  6  2  0
  6  7  1  0
  7  8  2  0
  6  9  1  0
  9 10  2  0
 10 11  1  0
 11 12  2  0
 12 13  1  0
 13 14  2  0
 14 15  1  0
 15 16  2  0
 15 17  1  0
 17 18  1  0
 18 19  2  0
 19 20  1  0
 20 21  2  0
 21 22  1  0
 22 23  1  0
 20 24  1  0
 24 25  1  0
 24 26  1  0
 24 27  1  0
  8  3  1  0
 14  9  1  0
 22 18  1  0
  1 28  1  0
  1 29  1  0
  1 30  1  0
  4 31  1  0
  5 32  1  0
  7 33  1  0
  8 34  1  0
 10 35  1  0
 11 36  1  0
 12 37  1  0
 13 38  1  0
 17 39  1  0
 19 40  1  0
 23 41  1  0
 23 42  1  0
 23 43  1  0
M  END
$$$$
[H]c1c([H])c(F)c([H])c(Oc2c([H])c([H])c(N3C(=O)C([H])([H])C4(C([H])([H])C3([H])[H])C([H])([H])C([H])([H])N(C([H])([H])c3c([H])c([H])c([H])c([H])c3S(=O)(=O)C([H])([H])[H])C([H])([H])C4([H])[H])c([H])c2[H])c1[H]
     RDKit          3D

 68 72  0  0  0  0  0  0  0  0999 V2000
   -6.8761   -1.4301   -1.6106 C   0  0  0  0  0  0  0  0  0  0  0  0
   -7.4534   -0.9617   -0.0075 S   0  0  0  0  0  0  0  0  0  0  0  0
   -8.9740   -0.8875   -0.0990 O   0  0  0  0  0  0  0  0  0  0  0  0
   -7.2217   -2.0878    0.9889 O   0  0  0  0  0  0  0  0  0  0  0  0
   -6.9079    0.5649    0.5649 C   0  0  0  0  0  0  0  0  0  0  0  0
   -7.8007    1.6180    0.8049 C   0  0  0  0  0  0  0  0  0  0  0  0
   -7.4027    2.8385    1.2922 C   0  0  0  0  0  0  0  0  0  0  0  0
   -6.0742    3.0287    1.5544 C   0  0  0  0  0  0  0  0  0  0  0  0
   -5.1538    1.9899    1.3205 C   0  0  0  0  0  0  0  0  0  0  0  0
   -5.5624    0.8035    0.8347 C   0  0  0  0  0  0  0  0  0  0  0  0
   -4.6650   -0.3308    0.4235 C   0  0  0  0  0  0  0  0  0  0  0  0
   -3.7848    0.1041   -0.6012 N   0  0  0  0  0  0  0  0  0  0  0  0
   -3.0518   -0.9879   -1.1991 C   0  0  0  0  0  0  0  0  0  0  0  0
   -2.0519   -1.4315   -0.1722 C   0  0  0  0  0  0  0  0  0  0  0  0
   -1.1013   -0.2750    0.1155 C   0  0  0  0  0  0  0  0  0  0  0  0
   -0.3834   -0.6154    1.3758 C   0  0  0  0  0  0  0  0  0  0  0  0
    0.8033   -1.5271    1.1289 C   0  0  0  0  0  0  0  0  0  0  0  0
    1.7073   -0.8044    0.2964 N   0  0  0  0  0  0  0  0  0  0  0  0
    1.1572   -0.1875   -0.8873 C   0  0  0  0  0  0  0  0  0  0  0  0
    1.9445    0.2886   -1.7290 O   0  0  0  0  0  0  0  0  0  0  0  0
   -0.2763   -0.1062   -1.1186 C   0  0  0  0  0  0  0  0  0  0  0  0
    3.1076   -0.6812    0.4868 C   0  0  0  0  0  0  0  0  0  0  0  0
    3.8191   -1.7770    0.9301 C   0  0  0  0  0  0  0  0  0  0  0  0
    5.1799   -1.7639    0.9801 C   0  0  0  0  0  0  0  0  0  0  0  0
    5.9297   -0.6274    0.5817 C   0  0  0  0  0  0  0  0  0  0  0  0
    7.2772   -0.7030    0.6648 O   0  0  0  0  0  0  0  0  0  0  0  0
    8.3610   -0.1256    0.1816 C   0  0  0  0  0  0  0  0  0  0  0  0
    8.7904    1.1472    0.5056 C   0  0  0  0  0  0  0  0  0  0  0  0
    9.9534    1.6899   -0.0251 C   0  0  0  0  0  0  0  0  0  0  0  0
   10.7172    0.9616   -0.8974 C   0  0  0  0  0  0  0  0  0  0  0  0
   10.3252   -0.2996   -1.2473 C   0  0  0  0  0  0  0  0  0  0  0  0
   11.1026   -0.9932   -2.1155 F   0  0  0  0  0  0  0  0  0  0  0  0
    9.1583   -0.8187   -0.7047 C   0  0  0  0  0  0  0  0  0  0  0  0
    5.2104    0.4514    0.1492 C   0  0  0  0  0  0  0  0  0  0  0  0
    3.8113    0.4378    0.1012 C   0  0  0  0  0  0  0  0  0  0  0  0
   -1.7791    1.0531    0.3633 C   0  0  0  0  0  0  0  0  0  0  0  0
   -2.9800    1.2180   -0.5488 C   0  0  0  0  0  0  0  0  0  0  0  0
   -6.0326   -2.1487   -1.5708 H   0  0  0  0  0  0  0  0  0  0  0  0
   -7.7002   -2.0031   -2.1593 H   0  0  0  0  0  0  0  0  0  0  0  0
   -6.6030   -0.5311   -2.1758 H   0  0  0  0  0  0  0  0  0  0  0  0
   -8.8450    1.4659    0.5557 H   0  0  0  0  0  0  0  0  0  0  0  0
   -8.1184    3.6519    1.4546 H   0  0  0  0  0  0  0  0  0  0  0  0
   -5.6859    3.9610    1.9338 H   0  0  0  0  0  0  0  0  0  0  0  0
   -4.1368    2.1789    1.6431 H   0  0  0  0  0  0  0  0  0  0  0  0
   -3.9401   -0.3708    1.3590 H   0  0  0  0  0  0  0  0  0  0  0  0
   -5.0575   -1.3041    0.3973 H   0  0  0  0  0  0  0  0  0  0  0  0
   -3.6735   -1.8272   -1.5112 H   0  0  0  0  0  0  0  0  0  0  0  0
   -2.4719   -0.5585   -2.0678 H   0  0  0  0  0  0  0  0  0  0  0  0
   -1.4056   -2.1899   -0.7141 H   0  0  0  0  0  0  0  0  0  0  0  0
   -2.4794   -1.8864    0.7110 H   0  0  0  0  0  0  0  0  0  0  0  0
   -1.1236   -1.1934    2.0178 H   0  0  0  0  0  0  0  0  0  0  0  0
   -0.0318    0.2647    1.9343 H   0  0  0  0  0  0  0  0  0  0  0  0
    1.1724   -1.9049    2.0734 H   0  0  0  0  0  0  0  0  0  0  0  0
    0.3763   -2.3721    0.4900 H   0  0  0  0  0  0  0  0  0  0  0  0
   -0.5213   -0.8596   -1.9304 H   0  0  0  0  0  0  0  0  0  0  0  0
   -0.4894    0.8804   -1.6341 H   0  0  0  0  0  0  0  0  0  0  0  0
    3.2247   -2.6429    1.2423 H   0  0  0  0  0  0  0  0  0  0  0  0
    5.7488   -2.6201    1.3203 H   0  0  0  0  0  0  0  0  0  0  0  0
    8.1651    1.7000    1.1903 H   0  0  0  0  0  0  0  0  0  0  0  0
   10.2708    2.6847    0.2186 H   0  0  0  0  0  0  0  0  0  0  0  0
   11.6469    1.4072   -1.2703 H   0  0  0  0  0  0  0  0  0  0  0  0
    8.8927   -1.8126   -1.0338 H   0  0  0  0  0  0  0  0  0  0  0  0
    5.7157    1.3429   -0.1845 H   0  0  0  0  0  0  0  0  0  0  0  0
    3.2673    1.3273   -0.2023 H   0  0  0  0  0  0  0  0  0  0  0  0
   -1.0618    1.8474    0.0334 H   0  0  0  0  0  0  0  0  0  0  0  0
   -1.9889    1.2183    1.4195 H   0  0  0  0  0  0  0  0  0  0  0  0
   -2.5380    1.3279   -1.6181 H   0  0  0  0  0  0  0  0  0  0  0  0
   -3.4306    2.1939   -0.4043 H   0  0  0  0  0  0  0  0  0  0  0  0
  1  2  1  0
  2  3  2  0
  2  4  2  0
  2  5  1  0
  5  6  2  0
  6  7  1  0
  7  8  2  0
  8  9  1  0
  9 10  2  0
 10 11  1  0
 11 12  1  0
 12 13  1  0
 13 14  1  0
 14 15  1  0
 15 16  1  0
 16 17  1  0
 17 18  1  0
 18 19  1  0
 19 20  2  0
 19 21  1  0
 18 22  1  0
 22 23  2  0
 23 24  1  0
 24 25  2  0
 25 26  1  0
 26 27  1  0
 27 28  2  0
 28 29  1  0
 29 30  2  0
 30 31  1  0
 31 32  1  0
 31 33  2  0
 25 34  1  0
 34 35  2  0
 15 36  1  0
 36 37  1  0
 10  5  1  0
 37 12  1  0
 21 15  1  0
 35 22  1  0
 33 27  1  0
  1 38  1  0
  1 39  1  0
  1 40  1  0
  6 41  1  0
  7 42  1  0
  8 43  1  0
  9 44  1  0
 11 45  1  0
 11 46  1  0
 13 47  1  0
 13 48  1  0
 14 49  1  0
 14 50  1  0
 16 51  1  0
 16 52  1  0
 17 53  1  0
 17 54  1  0
 21 55  1  0
 21 56  1  0
 23 57  1  0
 24 58  1  0
 28 59  1  0
 29 60  1  0
 30 61  1  0
 33 62  1  0
 34 63  1  0
 35 64  1  0
 36 65  1  0
 36 66  1  0
 37 67  1  0
 37 68  1  0
M  END
$$$$
[H]c1nc(N([H])[H])c([H])c([H])c1-c1c([H])c([H])c([H])c(C([H])([H])Oc2c([H])n([H])c3c([H])c(C(=O)OC([H])([H])[H])c([H])c([H])c23)c1[H]
     RDKit          3D

 47 50  0  0  0  0  0  0  0  0999 V2000
    9.0667    1.4591   -0.5679 C   0  0  0  0  0  0  0  0  0  0  0  0
    7.8328    0.7726   -0.5608 O   0  0  0  0  0  0  0  0  0  0  0  0
    6.7529    1.3531    0.0795 C   0  0  0  0  0  0  0  0  0  0  0  0
    6.8978    2.4871    0.6438 O   0  0  0  0  0  0  0  0  0  0  0  0
    5.4748    0.6682    0.1013 C   0  0  0  0  0  0  0  0  0  0  0  0
    4.4201    1.2779    0.7498 C   0  0  0  0  0  0  0  0  0  0  0  0
    3.1793    0.6444    0.7874 C   0  0  0  0  0  0  0  0  0  0  0  0
    3.0398   -0.5635    0.1813 C   0  0  0  0  0  0  0  0  0  0  0  0
    1.8849   -1.3738    0.0978 C   0  0  0  0  0  0  0  0  0  0  0  0
    0.6912   -1.1696    0.5726 O   0  0  0  0  0  0  0  0  0  0  0  0
   -0.4798   -0.9694    1.0384 C   0  0  0  0  0  0  0  0  0  0  0  0
   -1.5787   -0.8988    0.0051 C   0  0  0  0  0  0  0  0  0  0  0  0
   -1.4080   -1.2957   -1.2852 C   0  0  0  0  0  0  0  0  0  0  0  0
   -2.4606   -1.2032   -2.2086 C   0  0  0  0  0  0  0  0  0  0  0  0
   -3.6654   -0.7064   -1.7926 C   0  0  0  0  0  0  0  0  0  0  0  0
   -3.8867   -0.2895   -0.4893 C   0  0  0  0  0  0  0  0  0  0  0  0
   -2.8266   -0.4008    0.3735 C   0  0  0  0  0  0  0  0  0  0  0  0
   -5.1638    0.2427   -0.0486 C   0  0  0  0  0  0  0  0  0  0  0  0
   -5.6167    0.0787    1.2404 C   0  0  0  0  0  0  0  0  0  0  0  0
   -6.8373    0.5928    1.6574 C   0  0  0  0  0  0  0  0  0  0  0  0
   -7.6368    1.2935    0.7664 C   0  0  0  0  0  0  0  0  0  0  0  0
   -8.8937    1.8292    1.1787 N   0  0  0  0  0  0  0  0  0  0  0  0
   -7.1735    1.4406   -0.4866 N   0  0  0  0  0  0  0  0  0  0  0  0
   -5.9914    0.9445   -0.8961 C   0  0  0  0  0  0  0  0  0  0  0  0
    2.3363   -2.4822   -0.6348 C   0  0  0  0  0  0  0  0  0  0  0  0
    3.6278   -2.3344   -0.9487 N   0  0  0  0  0  0  0  0  0  0  0  0
    4.0869   -1.1691   -0.4629 C   0  0  0  0  0  0  0  0  0  0  0  0
    5.3444   -0.5525   -0.5147 C   0  0  0  0  0  0  0  0  0  0  0  0
    9.8498    0.8036   -0.1213 H   0  0  0  0  0  0  0  0  0  0  0  0
    9.3069    1.6881   -1.6372 H   0  0  0  0  0  0  0  0  0  0  0  0
    9.0262    2.4250   -0.0518 H   0  0  0  0  0  0  0  0  0  0  0  0
    4.5417    2.2341    1.2262 H   0  0  0  0  0  0  0  0  0  0  0  0
    2.3800    1.1736    1.3148 H   0  0  0  0  0  0  0  0  0  0  0  0
   -0.6097   -0.0180    1.6563 H   0  0  0  0  0  0  0  0  0  0  0  0
   -0.7963   -1.8116    1.7553 H   0  0  0  0  0  0  0  0  0  0  0  0
   -0.4592   -1.6884   -1.6219 H   0  0  0  0  0  0  0  0  0  0  0  0
   -2.3196   -1.5185   -3.2240 H   0  0  0  0  0  0  0  0  0  0  0  0
   -4.5105   -0.6136   -2.4653 H   0  0  0  0  0  0  0  0  0  0  0  0
   -2.9335   -0.0918    1.4081 H   0  0  0  0  0  0  0  0  0  0  0  0
   -5.0015   -0.4633    1.9350 H   0  0  0  0  0  0  0  0  0  0  0  0
   -7.2135    0.4763    2.6648 H   0  0  0  0  0  0  0  0  0  0  0  0
   -9.0311    2.8032    1.5125 H   0  0  0  0  0  0  0  0  0  0  0  0
   -9.7271    1.2094    1.1447 H   0  0  0  0  0  0  0  0  0  0  0  0
   -5.6433    1.0831   -1.9273 H   0  0  0  0  0  0  0  0  0  0  0  0
    1.7389   -3.3389   -0.9128 H   0  0  0  0  0  0  0  0  0  0  0  0
    4.2152   -3.0242   -1.4982 H   0  0  0  0  0  0  0  0  0  0  0  0
    6.1697   -1.0035   -1.0084 H   0  0  0  0  0  0  0  0  0  0  0  0
  1  2  1  0
  2  3  1  0
  3  4  2  0
  3  5  1  0
  5  6  2  0
  6  7  1  0
  7  8  2  0
  8  9  1  0
  9 10  1  0
 10 11  1  0
 11 12  1  0
 12 13  2  0
 13 14  1  0
 14 15  2  0
 15 16  1  0
 16 17  2  0
 16 18  1  0
 18 19  2  0
 19 20  1  0
 20 21  2  0
 21 22  1  0
 21 23  1  0
 23 24  2  0
  9 25  2  0
 25 26  1  0
 26 27  1  0
 27 28  2  0
 28  5  1  0
 27  8  1  0
 17 12  1  0
 24 18  1  0
  1 29  1  0
  1 30  1  0
  1 31  1  0
  6 32  1  0
  7 33  1  0
 11 34  1  0
 11 35  1  0
 13 36  1  0
 14 37  1  0
 15 38  1  0
 17 39  1  0
 19 40  1  0
 20 41  1  0
 22 42  1  0
 22 43  1  0
 24 44  1  0
 25 45  1  0
 26 46  1  0
 28 47  1  0
M  END
$$$$
[H]N=C(N([H])[H])N([H])C([H])([H])C([H])([H])C([H])([H])[C@@]([H])(C(=O)c1nc2c([H])c([H])c([H])c([H])c2s1)N([H])C(=O)c1c([H])c([H])c(C(=O)/C(=N\OC([H])([H])[H])N([H])[H])c([H])c1[H]
     RDKit          3D

 60 62  0  0  0  0  0  0  0  0999 V2000
    7.7783    5.4895    0.0684 C   0  0  0  0  0  0  0  0  0  0  0  0
    6.6339    5.3053   -0.7064 O   0  0  0  0  0  0  0  0  0  0  0  0
    6.5123    4.5010   -1.7912 N   0  0  0  0  0  0  0  0  0  0  0  0
    5.6817    3.4827   -1.8491 C   0  0  0  0  0  0  0  0  0  0  0  0
    5.6763    2.7520   -3.0395 N   0  0  0  0  0  0  0  0  0  0  0  0
    4.8686    3.2039   -0.7108 C   0  0  0  0  0  0  0  0  0  0  0  0
    5.0401    4.0081    0.3025 O   0  0  0  0  0  0  0  0  0  0  0  0
    3.8802    2.1632   -0.5041 C   0  0  0  0  0  0  0  0  0  0  0  0
    3.5414    1.2392   -1.4482 C   0  0  0  0  0  0  0  0  0  0  0  0
    2.5913    0.2738   -1.1695 C   0  0  0  0  0  0  0  0  0  0  0  0
    1.9378    0.1686    0.0284 C   0  0  0  0  0  0  0  0  0  0  0  0
    2.2785    1.1074    0.9941 C   0  0  0  0  0  0  0  0  0  0  0  0
    3.2171    2.0679    0.7311 C   0  0  0  0  0  0  0  0  0  0  0  0
    0.9453   -0.8552    0.2930 C   0  0  0  0  0  0  0  0  0  0  0  0
    1.2781   -1.8648    0.9440 O   0  0  0  0  0  0  0  0  0  0  0  0
   -0.3682   -0.7157   -0.1749 N   0  0  0  0  0  0  0  0  0  0  0  0
   -1.4107   -1.7020    0.0438 C   0  0  1  0  0  0  0  0  0  0  0  0
   -2.3382   -1.3765    1.1422 C   0  0  0  0  0  0  0  0  0  0  0  0
   -3.1699   -0.1689    1.1138 C   0  0  0  0  0  0  0  0  0  0  0  0
   -2.5328    1.1666    1.0994 C   0  0  0  0  0  0  0  0  0  0  0  0
   -1.6710    1.3833    2.2508 N   0  0  0  0  0  0  0  0  0  0  0  0
   -0.9807    2.6020    2.4618 C   0  0  0  0  0  0  0  0  0  0  0  0
   -0.3585    2.8272    3.7162 N   0  0  0  0  0  0  0  0  0  0  0  0
   -0.9056    3.5014    1.5584 N   0  0  0  0  0  0  0  0  0  0  0  0
   -2.0436   -2.1005   -1.2127 C   0  0  0  0  0  0  0  0  0  0  0  0
   -1.6593   -1.5128   -2.2807 O   0  0  0  0  0  0  0  0  0  0  0  0
   -3.0792   -3.1119   -1.3765 C   0  0  0  0  0  0  0  0  0  0  0  0
   -3.6589   -3.8819   -0.4825 N   0  0  0  0  0  0  0  0  0  0  0  0
   -4.5777   -4.7371   -0.8326 C   0  0  0  0  0  0  0  0  0  0  0  0
   -5.2676   -5.6141    0.0335 C   0  0  0  0  0  0  0  0  0  0  0  0
   -6.2008   -6.4528   -0.4719 C   0  0  0  0  0  0  0  0  0  0  0  0
   -6.5587   -6.5403   -1.7952 C   0  0  0  0  0  0  0  0  0  0  0  0
   -5.8850   -5.6818   -2.6527 C   0  0  0  0  0  0  0  0  0  0  0  0
   -4.9114   -4.8003   -2.1569 C   0  0  0  0  0  0  0  0  0  0  0  0
   -3.8754   -3.6153   -2.8300 S   0  0  0  0  0  0  0  0  0  0  0  0
    7.9058    4.6605    0.7958 H   0  0  0  0  0  0  0  0  0  0  0  0
    8.7212    5.5676   -0.5185 H   0  0  0  0  0  0  0  0  0  0  0  0
    7.6680    6.4507    0.6164 H   0  0  0  0  0  0  0  0  0  0  0  0
    5.0213    3.0124   -3.8072 H   0  0  0  0  0  0  0  0  0  0  0  0
    6.3227    1.9249   -3.2035 H   0  0  0  0  0  0  0  0  0  0  0  0
    4.0037    1.2385   -2.4368 H   0  0  0  0  0  0  0  0  0  0  0  0
    2.3386   -0.4525   -1.9380 H   0  0  0  0  0  0  0  0  0  0  0  0
    1.7953    1.0778    1.9643 H   0  0  0  0  0  0  0  0  0  0  0  0
    3.4771    2.8019    1.4966 H   0  0  0  0  0  0  0  0  0  0  0  0
   -0.6076    0.1218   -0.7238 H   0  0  0  0  0  0  0  0  0  0  0  0
   -0.8310   -2.6192    0.4089 H   0  0  0  0  0  0  0  0  0  0  0  0
   -1.6662   -1.2607    2.0746 H   0  0  0  0  0  0  0  0  0  0  0  0
   -2.9444   -2.3128    1.3655 H   0  0  0  0  0  0  0  0  0  0  0  0
   -3.7946   -0.1952    2.0725 H   0  0  0  0  0  0  0  0  0  0  0  0
   -3.9893   -0.2163    0.3291 H   0  0  0  0  0  0  0  0  0  0  0  0
   -3.4037    1.9029    1.2950 H   0  0  0  0  0  0  0  0  0  0  0  0
   -2.0886    1.5370    0.1944 H   0  0  0  0  0  0  0  0  0  0  0  0
   -1.5778    0.5979    2.9261 H   0  0  0  0  0  0  0  0  0  0  0  0
   -0.5704    3.6869    4.2902 H   0  0  0  0  0  0  0  0  0  0  0  0
    0.3175    2.1590    4.1036 H   0  0  0  0  0  0  0  0  0  0  0  0
   -1.3272    3.4304    0.6169 H   0  0  0  0  0  0  0  0  0  0  0  0
   -5.0760   -5.6405    1.0953 H   0  0  0  0  0  0  0  0  0  0  0  0
   -6.7390   -7.1381    0.2034 H   0  0  0  0  0  0  0  0  0  0  0  0
   -7.3005   -7.2029   -2.2066 H   0  0  0  0  0  0  0  0  0  0  0  0
   -6.0624   -5.6433   -3.7034 H   0  0  0  0  0  0  0  0  0  0  0  0
  1  2  1  0
  2  3  1  0
  3  4  2  0
  4  5  1  0
  4  6  1  0
  6  7  2  0
  6  8  1  0
  8  9  2  0
  9 10  1  0
 10 11  2  0
 11 12  1  0
 12 13  2  0
 11 14  1  0
 14 15  2  0
 14 16  1  0
 16 17  1  0
 17 18  1  0
 18 19  1  0
 19 20  1  0
 20 21  1  0
 21 22  1  0
 22 23  1  0
 22 24  2  3
 17 25  1  0
 25 26  2  0
 25 27  1  0
 27 28  2  0
 28 29  1  0
 29 30  2  0
 30 31  1  0
 31 32  2  0
 32 33  1  0
 33 34  2  0
 34 35  1  0
 13  8  1  0
 35 27  1  0
 34 29  1  0
  1 36  1  0
  1 37  1  0
  1 38  1  0
  5 39  1  0
  5 40  1  0
  9 41  1  0
 10 42  1  0
 12 43  1  0
 13 44  1  0
 16 45  1  0
 17 46  1  1
 18 47  1  0
 18 48  1  0
 19 49  1  0
 19 50  1  0
 20 51  1  0
 20 52  1  0
 21 53  1  0
 23 54  1  0
 23 55  1  0
 24 56  1  0
 30 57  1  0
 31 58  1  0
 32 59  1  0
 33 60  1  0
M  END
$$$$
[H]O[C@@]1(C([H])([H])[H])C([H])([H])[C@]([H])(N([H])C([H])([H])[H])[C@@]([H])(OC([H])([H])[H])[C@@]2(C([H])([H])[H])O[C@]1([H])n1c3c([H])c([H])c([H])c([H])c3c3c4c(c5c6c([H])c([H])c([H])c([H])c6n2c5c31)C([H])([H])N([H])C4=O
     RDKit          3D

 68 75  0  0  0  0  0  0  0  0999 V2000
    5.5382    0.6547    0.5104 C   0  0  0  0  0  0  0  0  0  0  0  0
    4.5913   -0.2991   -0.0329 N   0  0  0  0  0  0  0  0  0  0  0  0
    3.2591    0.1219    0.2162 C   0  0  1  0  0  0  0  0  0  0  0  0
    2.9387    1.4101   -0.4540 C   0  0  0  0  0  0  0  0  0  0  0  0
    1.5930    1.9768   -0.0511 C   0  0  2  0  0  0  0  0  0  0  0  0
    0.7995    2.1606   -1.3277 C   0  0  0  0  0  0  0  0  0  0  0  0
    1.9652    3.3298    0.2366 O   0  0  0  0  0  0  0  0  0  0  0  0
    0.8902    1.3310    1.0651 C   0  0  2  0  0  0  0  0  0  0  0  0
    1.1294    0.0980    1.4443 O   0  0  0  0  0  0  0  0  0  0  0  0
    1.2220   -1.0288    0.7262 C   0  0  2  0  0  0  0  0  0  0  0  0
    1.8346   -2.0164    1.7451 C   0  0  0  0  0  0  0  0  0  0  0  0
    2.2093   -0.8581   -0.3533 C   0  0  2  0  0  0  0  0  0  0  0  0
    2.9332   -1.8969   -0.8225 O   0  0  0  0  0  0  0  0  0  0  0  0
    2.8199   -2.0122   -2.2278 C   0  0  0  0  0  0  0  0  0  0  0  0
   -0.0973   -1.4488    0.2925 N   0  0  0  0  0  0  0  0  0  0  0  0
   -0.4854   -2.6882   -0.0661 C   0  0  0  0  0  0  0  0  0  0  0  0
    0.1855   -3.8723   -0.1494 C   0  0  0  0  0  0  0  0  0  0  0  0
   -0.4391   -5.0384   -0.5429 C   0  0  0  0  0  0  0  0  0  0  0  0
   -1.7773   -5.0794   -0.8754 C   0  0  0  0  0  0  0  0  0  0  0  0
   -2.4657   -3.8855   -0.7943 C   0  0  0  0  0  0  0  0  0  0  0  0
   -1.8271   -2.7280   -0.3990 C   0  0  0  0  0  0  0  0  0  0  0  0
   -2.2856   -1.4534   -0.2357 C   0  0  0  0  0  0  0  0  0  0  0  0
   -3.5513   -0.8989   -0.3800 C   0  0  0  0  0  0  0  0  0  0  0  0
   -4.8216   -1.5544   -0.8155 C   0  0  0  0  0  0  0  0  0  0  0  0
   -5.8126   -0.5252   -0.8051 N   0  0  0  0  0  0  0  0  0  0  0  0
   -5.1758    0.6923   -0.3610 C   0  0  0  0  0  0  0  0  0  0  0  0
   -5.8452    1.7278   -0.2602 O   0  0  0  0  0  0  0  0  0  0  0  0
   -3.7762    0.4328   -0.1048 C   0  0  0  0  0  0  0  0  0  0  0  0
   -2.7072    1.1832    0.3136 C   0  0  0  0  0  0  0  0  0  0  0  0
   -2.5724    2.5050    0.7160 C   0  0  0  0  0  0  0  0  0  0  0  0
   -3.4369    3.5348    0.8417 C   0  0  0  0  0  0  0  0  0  0  0  0
   -2.9939    4.7731    1.3334 C   0  0  0  0  0  0  0  0  0  0  0  0
   -1.6804    4.9275    1.6853 C   0  0  0  0  0  0  0  0  0  0  0  0
   -0.7746    3.8902    1.5673 C   0  0  0  0  0  0  0  0  0  0  0  0
   -1.2279    2.6839    1.0796 C   0  0  0  0  0  0  0  0  0  0  0  0
   -0.5671    1.5298    0.8993 N   0  0  0  0  0  0  0  0  0  0  0  0
   -1.4398    0.6290    0.4540 C   0  0  0  0  0  0  0  0  0  0  0  0
   -1.2313   -0.7054    0.1774 C   0  0  0  0  0  0  0  0  0  0  0  0
    5.7408    1.5161   -0.1240 H   0  0  0  0  0  0  0  0  0  0  0  0
    6.4677    0.1489    0.8721 H   0  0  0  0  0  0  0  0  0  0  0  0
    5.0561    1.0491    1.4530 H   0  0  0  0  0  0  0  0  0  0  0  0
    4.8385   -1.2293    0.3678 H   0  0  0  0  0  0  0  0  0  0  0  0
    3.1509    0.2640    1.3042 H   0  0  0  0  0  0  0  0  0  0  0  0
    3.7981    2.0835   -0.2751 H   0  0  0  0  0  0  0  0  0  0  0  0
    2.9843    1.2068   -1.5659 H   0  0  0  0  0  0  0  0  0  0  0  0
    0.1787    3.1039   -1.3056 H   0  0  0  0  0  0  0  0  0  0  0  0
    0.1354    1.3643   -1.6088 H   0  0  0  0  0  0  0  0  0  0  0  0
    1.5069    2.3532   -2.1949 H   0  0  0  0  0  0  0  0  0  0  0  0
    2.5396    3.6766   -0.4775 H   0  0  0  0  0  0  0  0  0  0  0  0
    1.1079    1.9471    1.9824 H   0  0  0  0  0  0  0  0  0  0  0  0
    2.7272   -2.5410    1.2920 H   0  0  0  0  0  0  0  0  0  0  0  0
    1.0775   -2.7091    2.1438 H   0  0  0  0  0  0  0  0  0  0  0  0
    2.2675   -1.5119    2.6274 H   0  0  0  0  0  0  0  0  0  0  0  0
    1.6900   -0.4039   -1.2256 H   0  0  0  0  0  0  0  0  0  0  0  0
    1.7276   -2.1686   -2.4315 H   0  0  0  0  0  0  0  0  0  0  0  0
    3.3670   -2.8726   -2.6211 H   0  0  0  0  0  0  0  0  0  0  0  0
    3.0696   -1.0448   -2.7055 H   0  0  0  0  0  0  0  0  0  0  0  0
    1.2054   -3.9136    0.0904 H   0  0  0  0  0  0  0  0  0  0  0  0
    0.1411   -5.9603   -0.5936 H   0  0  0  0  0  0  0  0  0  0  0  0
   -2.2152   -6.0143   -1.1758 H   0  0  0  0  0  0  0  0  0  0  0  0
   -3.5226   -3.8994   -1.0548 H   0  0  0  0  0  0  0  0  0  0  0  0
   -5.1031   -2.3802   -0.1005 H   0  0  0  0  0  0  0  0  0  0  0  0
   -4.7533   -1.9845   -1.8135 H   0  0  0  0  0  0  0  0  0  0  0  0
   -6.8081   -0.6677   -1.0774 H   0  0  0  0  0  0  0  0  0  0  0  0
   -4.4653    3.4473    0.5766 H   0  0  0  0  0  0  0  0  0  0  0  0
   -3.7307    5.5814    1.4179 H   0  0  0  0  0  0  0  0  0  0  0  0
   -1.3143    5.8856    2.0715 H   0  0  0  0  0  0  0  0  0  0  0  0
    0.2174    4.0708    1.9073 H   0  0  0  0  0  0  0  0  0  0  0  0
  1  2  1  0
  2  3  1  0
  3  4  1  0
  4  5  1  0
  5  6  1  0
  5  7  1  1
  5  8  1  0
  8  9  1  0
  9 10  1  0
 10 11  1  1
 10 12  1  0
 12 13  1  0
 13 14  1  0
 10 15  1  0
 15 16  1  0
 16 17  2  0
 17 18  1  0
 18 19  2  0
 19 20  1  0
 20 21  2  0
 21 22  1  0
 22 23  2  0
 23 24  1  0
 24 25  1  0
 25 26  1  0
 26 27  2  0
 26 28  1  0
 28 29  2  0
 29 30  1  0
 30 31  2  0
 31 32  1  0
 32 33  2  0
 33 34  1  0
 34 35  2  0
 35 36  1  0
 36 37  1  0
 37 38  2  0
 12  3  1  0
 38 15  1  0
 36  8  1  0
 21 16  1  0
 38 22  1  0
 28 23  1  0
 37 29  1  0
 35 30  1  0
  1 39  1  0
  1 40  1  0
  1 41  1  0
  2 42  1  0
  3 43  1  1
  4 44  1  0
  4 45  1  0
  6 46  1  0
  6 47  1  0
  6 48  1  0
  7 49  1  0
  8 50  1  1
 11 51  1  0
 11 52  1  0
 11 53  1  0
 12 54  1  6
 14 55  1  0
 14 56  1  0
 14 57  1  0
 17 58  1  0
 18 59  1  0
 19 60  1  0
 20 61  1  0
 24 62  1  0
 24 63  1  0
 25 64  1  0
 31 65  1  0
 32 66  1  0
 33 67  1  0
 34 68  1  0
M  END
$$$$
[H]Oc1c([H])c([H])c(C([H])([H])[C@@]([H])(C(=O)N([H])[C@@]([H])(C(=O)N([H])[C@]([H])(C(=O)N([H])C(C([H])([H])[H])(C([H])([H])[H])C([H])([H])[H])C([H])([H])c2c([H])c([H])c([H])c([H])c2[H])C([H])([H])SSC([H])([H])[C@]2([H])C(=O)N([H])[C@]([H])(C([H])([H])C([H])([H])SC([H])([H])[H])[C@@]([H])(C([H])(C([H])([H])[H])C([H])([H])[H])N([H])C2=O)N([H])[H])c([H])c1[H]
     RDKit          3D

106108  0  0  0  0  0  0  0  0999 V2000
    9.0824    1.3725   -0.6456 C   0  0  0  0  0  0  0  0  0  0  0  0
    7.9339    1.7761   -1.4898 C   0  0  0  0  0  0  0  0  0  0  0  0
    7.4142    3.1202   -0.9520 C   0  0  0  0  0  0  0  0  0  0  0  0
    6.7848    0.8079   -1.6560 C   0  0  1  0  0  0  0  0  0  0  0  0
    5.8211    1.5624   -2.5200 N   0  0  0  0  0  0  0  0  0  0  0  0
    4.4178    1.4015   -2.5021 C   0  0  0  0  0  0  0  0  0  0  0  0
    3.7883    2.4768   -2.7238 O   0  0  0  0  0  0  0  0  0  0  0  0
    3.6085    0.1697   -2.2661 C   0  0  2  0  0  0  0  0  0  0  0  0
    3.0488    0.0477   -0.8965 C   0  0  0  0  0  0  0  0  0  0  0  0
    1.9620    1.3676   -0.3813 S   0  0  0  0  0  0  0  0  0  0  0  0
    0.2027    1.4995   -1.5138 S   0  0  0  0  0  0  0  0  0  0  0  0
   -1.1512    0.4914   -0.8543 C   0  0  0  0  0  0  0  0  0  0  0  0
   -1.6290    0.9536    0.4701 C   0  0  1  0  0  0  0  0  0  0  0  0
   -2.1162    2.3066    0.5113 N   0  0  0  0  0  0  0  0  0  0  0  0
   -1.5934    3.3144    1.3470 C   0  0  0  0  0  0  0  0  0  0  0  0
   -0.6563    3.1035    2.1281 O   0  0  0  0  0  0  0  0  0  0  0  0
   -2.2293    4.6796    1.2521 C   0  0  1  0  0  0  0  0  0  0  0  0
   -1.4960    5.5704    2.1239 N   0  0  0  0  0  0  0  0  0  0  0  0
   -2.0171    5.1750   -0.1824 C   0  0  0  0  0  0  0  0  0  0  0  0
   -2.6298    6.5067   -0.3782 C   0  0  0  0  0  0  0  0  0  0  0  0
   -1.9805    7.6958   -0.1684 C   0  0  0  0  0  0  0  0  0  0  0  0
   -2.5982    8.9271   -0.3659 C   0  0  0  0  0  0  0  0  0  0  0  0
   -3.9054    8.9818   -0.7862 C   0  0  0  0  0  0  0  0  0  0  0  0
   -4.5485   10.1700   -0.9916 O   0  0  0  0  0  0  0  0  0  0  0  0
   -4.5806    7.7906   -1.0048 C   0  0  0  0  0  0  0  0  0  0  0  0
   -3.9716    6.5699   -0.8103 C   0  0  0  0  0  0  0  0  0  0  0  0
   -2.7235    0.0304    0.9406 C   0  0  0  0  0  0  0  0  0  0  0  0
   -3.3964    0.4723    1.9127 O   0  0  0  0  0  0  0  0  0  0  0  0
   -2.9594   -1.2113    0.3323 N   0  0  0  0  0  0  0  0  0  0  0  0
   -4.0262   -2.1284    0.7845 C   0  0  1  0  0  0  0  0  0  0  0  0
   -5.1614   -1.9668   -0.1961 C   0  0  0  0  0  0  0  0  0  0  0  0
   -6.3239   -2.7994    0.0281 C   0  0  0  0  0  0  0  0  0  0  0  0
   -7.3017   -2.4050    0.9170 C   0  0  0  0  0  0  0  0  0  0  0  0
   -8.4335   -3.1571    1.1091 C   0  0  0  0  0  0  0  0  0  0  0  0
   -8.6121   -4.3166    0.4183 C   0  0  0  0  0  0  0  0  0  0  0  0
   -7.6308   -4.7227   -0.4802 C   0  0  0  0  0  0  0  0  0  0  0  0
   -6.5083   -3.9779   -0.6711 C   0  0  0  0  0  0  0  0  0  0  0  0
   -3.5030   -3.4852    0.9306 C   0  0  0  0  0  0  0  0  0  0  0  0
   -2.3407   -3.8099    0.4830 O   0  0  0  0  0  0  0  0  0  0  0  0
   -4.2160   -4.5307    1.5678 N   0  0  0  0  0  0  0  0  0  0  0  0
   -3.6371   -5.8818    1.6728 C   0  0  0  0  0  0  0  0  0  0  0  0
   -2.3487   -5.9023    2.4262 C   0  0  0  0  0  0  0  0  0  0  0  0
   -3.3224   -6.3640    0.2473 C   0  0  0  0  0  0  0  0  0  0  0  0
   -4.6034   -6.8452    2.3154 C   0  0  0  0  0  0  0  0  0  0  0  0
    7.0306   -0.4419   -2.3595 C   0  0  1  0  0  0  0  0  0  0  0  0
    8.0447   -1.4100   -1.8163 C   0  0  0  0  0  0  0  0  0  0  0  0
    7.8131   -1.9586   -0.4594 C   0  0  0  0  0  0  0  0  0  0  0  0
    6.2413   -2.8997   -0.3128 S   0  0  0  0  0  0  0  0  0  0  0  0
    6.2094   -3.4971    1.4157 C   0  0  0  0  0  0  0  0  0  0  0  0
    5.8416   -1.2276   -2.6069 N   0  0  0  0  0  0  0  0  0  0  0  0
    4.4700   -0.9878   -2.5536 C   0  0  0  0  0  0  0  0  0  0  0  0
    3.7557   -2.0370   -2.8248 O   0  0  0  0  0  0  0  0  0  0  0  0
    9.9050    0.8430   -1.1445 H   0  0  0  0  0  0  0  0  0  0  0  0
    9.6274    2.3111   -0.2430 H   0  0  0  0  0  0  0  0  0  0  0  0
    8.7642    0.9043    0.3306 H   0  0  0  0  0  0  0  0  0  0  0  0
    8.2466    2.0283   -2.5431 H   0  0  0  0  0  0  0  0  0  0  0  0
    7.7951    3.2837    0.0912 H   0  0  0  0  0  0  0  0  0  0  0  0
    6.3271    3.1672   -0.9061 H   0  0  0  0  0  0  0  0  0  0  0  0
    7.8233    3.9822   -1.5450 H   0  0  0  0  0  0  0  0  0  0  0  0
    6.3467    0.6290   -0.6629 H   0  0  0  0  0  0  0  0  0  0  0  0
    6.2676    2.2521   -3.1626 H   0  0  0  0  0  0  0  0  0  0  0  0
    2.7412    0.1474   -2.9915 H   0  0  0  0  0  0  0  0  0  0  0  0
    3.8823   -0.0793   -0.1712 H   0  0  0  0  0  0  0  0  0  0  0  0
    2.4797   -0.9085   -0.8623 H   0  0  0  0  0  0  0  0  0  0  0  0
   -0.7288   -0.5377   -0.7810 H   0  0  0  0  0  0  0  0  0  0  0  0
   -1.9570    0.4749   -1.6102 H   0  0  0  0  0  0  0  0  0  0  0  0
   -0.7803    0.8444    1.1956 H   0  0  0  0  0  0  0  0  0  0  0  0
   -2.9213    2.5544   -0.1326 H   0  0  0  0  0  0  0  0  0  0  0  0
   -3.2879    4.5733    1.4845 H   0  0  0  0  0  0  0  0  0  0  0  0
   -1.9089    5.5401    3.0651 H   0  0  0  0  0  0  0  0  0  0  0  0
   -0.4732    5.2970    2.1447 H   0  0  0  0  0  0  0  0  0  0  0  0
   -0.9471    5.2387   -0.4245 H   0  0  0  0  0  0  0  0  0  0  0  0
   -2.5142    4.4724   -0.9077 H   0  0  0  0  0  0  0  0  0  0  0  0
   -0.9402    7.6634    0.1642 H   0  0  0  0  0  0  0  0  0  0  0  0
   -2.0746    9.8702   -0.1972 H   0  0  0  0  0  0  0  0  0  0  0  0
   -4.5540   10.6582   -1.8799 H   0  0  0  0  0  0  0  0  0  0  0  0
   -5.6192    7.8150   -1.3398 H   0  0  0  0  0  0  0  0  0  0  0  0
   -4.4778    5.6239   -0.9738 H   0  0  0  0  0  0  0  0  0  0  0  0
   -2.3779   -1.5150   -0.4694 H   0  0  0  0  0  0  0  0  0  0  0  0
   -4.3897   -1.7509    1.7500 H   0  0  0  0  0  0  0  0  0  0  0  0
   -4.8381   -2.0855   -1.2527 H   0  0  0  0  0  0  0  0  0  0  0  0
   -5.4395   -0.8679   -0.1348 H   0  0  0  0  0  0  0  0  0  0  0  0
   -7.1566   -1.4639    1.4712 H   0  0  0  0  0  0  0  0  0  0  0  0
   -9.2044   -2.8385    1.8186 H   0  0  0  0  0  0  0  0  0  0  0  0
   -9.5031   -4.9289    0.5528 H   0  0  0  0  0  0  0  0  0  0  0  0
   -7.8207   -5.6414   -1.0008 H   0  0  0  0  0  0  0  0  0  0  0  0
   -5.7315   -4.2701   -1.3608 H   0  0  0  0  0  0  0  0  0  0  0  0
   -5.1467   -4.4186    2.0054 H   0  0  0  0  0  0  0  0  0  0  0  0
   -1.4582   -5.9327    1.7400 H   0  0  0  0  0  0  0  0  0  0  0  0
   -2.2134   -4.9990    3.0694 H   0  0  0  0  0  0  0  0  0  0  0  0
   -2.2984   -6.8216    3.0343 H   0  0  0  0  0  0  0  0  0  0  0  0
   -3.9307   -5.7686   -0.4607 H   0  0  0  0  0  0  0  0  0  0  0  0
   -2.2505   -6.2240    0.0485 H   0  0  0  0  0  0  0  0  0  0  0  0
   -3.6275   -7.4259    0.1705 H   0  0  0  0  0  0  0  0  0  0  0  0
   -5.4241   -6.3180    2.8735 H   0  0  0  0  0  0  0  0  0  0  0  0
   -5.1452   -7.4453    1.5394 H   0  0  0  0  0  0  0  0  0  0  0  0
   -4.1160   -7.5351    3.0396 H   0  0  0  0  0  0  0  0  0  0  0  0
    7.4105   -0.2002   -3.4084 H   0  0  0  0  0  0  0  0  0  0  0  0
    7.9242   -2.3224   -2.5177 H   0  0  0  0  0  0  0  0  0  0  0  0
    9.0767   -1.1171   -2.0121 H   0  0  0  0  0  0  0  0  0  0  0  0
    8.5981   -2.7682   -0.2771 H   0  0  0  0  0  0  0  0  0  0  0  0
    7.9071   -1.2536    0.3809 H   0  0  0  0  0  0  0  0  0  0  0  0
    5.3570   -4.1369    1.6267 H   0  0  0  0  0  0  0  0  0  0  0  0
    7.1301   -4.1146    1.6033 H   0  0  0  0  0  0  0  0  0  0  0  0
    6.2621   -2.6174    2.0808 H   0  0  0  0  0  0  0  0  0  0  0  0
    6.0650   -2.2446   -2.9149 H   0  0  0  0  0  0  0  0  0  0  0  0
  1  2  1  0
  2  3  1  0
  2  4  1  0
  4  5  1  0
  5  6  1  0
  6  7  2  0
  6  8  1  0
  8  9  1  0
  9 10  1  0
 10 11  1  0
 11 12  1  0
 12 13  1  0
 13 14  1  0
 14 15  1  0
 15 16  2  0
 15 17  1  0
 17 18  1  0
 17 19  1  0
 19 20  1  0
 20 21  2  0
 21 22  1  0
 22 23  2  0
 23 24  1  0
 23 25  1  0
 25 26  2  0
 13 27  1  0
 27 28  2  0
 27 29  1  0
 29 30  1  0
 30 31  1  0
 31 32  1  0
 32 33  2  0
 33 34  1  0
 34 35  2  0
 35 36  1  0
 36 37  2  0
 30 38  1  0
 38 39  2  0
 38 40  1  0
 40 41  1  0
 41 42  1  0
 41 43  1  0
 41 44  1  0
  4 45  1  0
 45 46  1  0
 46 47  1  0
 47 48  1  0
 48 49  1  0
 45 50  1  0
 50 51  1  0
 51 52  2  0
 51  8  1  0
 26 20  1  0
 37 32  1  0
  1 53  1  0
  1 54  1  0
  1 55  1  0
  2 56  1  0
  3 57  1  0
  3 58  1  0
  3 59  1  0
  4 60  1  1
  5 61  1  0
  8 62  1  6
  9 63  1  0
  9 64  1  0
 12 65  1  0
 12 66  1  0
 13 67  1  1
 14 68  1  0
 17 69  1  1
 18 70  1  0
 18 71  1  0
 19 72  1  0
 19 73  1  0
 21 74  1  0
 22 75  1  0
 24 76  1  0
 25 77  1  0
 26 78  1  0
 29 79  1  0
 30 80  1  1
 31 81  1  0
 31 82  1  0
 33 83  1  0
 34 84  1  0
 35 85  1  0
 36 86  1  0
 37 87  1  0
 40 88  1  0
 42 89  1  0
 42 90  1  0
 42 91  1  0
 43 92  1  0
 43 93  1  0
 43 94  1  0
 44 95  1  0
 44 96  1  0
 44 97  1  0
 45 98  1  6
 46 99  1  0
 46100  1  0
 47101  1  0
 47102  1  0
 49103  1  0
 49104  1  0
 49105  1  0
 50106  1  0
M  END
$$$$
[H]c1nc2nc(N([H])[H])nc(N([H])[H])c2nc1C([H])([H])N(c1c([H])c(OC([H])([H])[H])c([H])c([H])c1OC([H])([H])[H])C([H])([H])[H]
     RDKit          3D

 44 46  0  0  0  0  0  0  0  0999 V2000
    6.4895   -2.1283    0.7000 C   0  0  0  0  0  0  0  0  0  0  0  0
    5.0905   -2.2396    0.7527 O   0  0  0  0  0  0  0  0  0  0  0  0
    4.2417   -1.1536    0.5249 C   0  0  0  0  0  0  0  0  0  0  0  0
    4.7594    0.1008    0.2323 C   0  0  0  0  0  0  0  0  0  0  0  0
    3.9322    1.1850    0.0045 C   0  0  0  0  0  0  0  0  0  0  0  0
    2.5610    1.0607    0.0594 C   0  0  0  0  0  0  0  0  0  0  0  0
    1.7084    2.1329   -0.1653 O   0  0  0  0  0  0  0  0  0  0  0  0
    2.2991    3.3850   -0.4587 C   0  0  0  0  0  0  0  0  0  0  0  0
    2.0479   -0.2027    0.3539 C   0  0  0  0  0  0  0  0  0  0  0  0
    2.8703   -1.2846    0.5813 C   0  0  0  0  0  0  0  0  0  0  0  0
    0.6556   -0.3294    0.4102 N   0  0  0  0  0  0  0  0  0  0  0  0
   -0.0808    0.4677    1.3786 C   0  0  0  0  0  0  0  0  0  0  0  0
   -0.1182   -1.2116   -0.4408 C   0  0  0  0  0  0  0  0  0  0  0  0
   -1.5593   -1.1396   -0.1623 C   0  0  0  0  0  0  0  0  0  0  0  0
   -2.1356   -1.9913    0.7806 C   0  0  0  0  0  0  0  0  0  0  0  0
   -3.4502   -1.9438    1.0522 N   0  0  0  0  0  0  0  0  0  0  0  0
   -4.2387   -1.0685    0.4155 C   0  0  0  0  0  0  0  0  0  0  0  0
   -5.5555   -0.9996    0.6675 N   0  0  0  0  0  0  0  0  0  0  0  0
   -6.3161   -0.1137    0.0141 C   0  0  0  0  0  0  0  0  0  0  0  0
   -7.7054   -0.0336    0.2732 N   0  0  0  0  0  0  0  0  0  0  0  0
   -5.8016    0.7312   -0.9075 N   0  0  0  0  0  0  0  0  0  0  0  0
   -4.4965    0.7010   -1.1932 C   0  0  0  0  0  0  0  0  0  0  0  0
   -3.9000    1.5607   -2.1485 N   0  0  0  0  0  0  0  0  0  0  0  0
   -3.6988   -0.2082   -0.5268 C   0  0  0  0  0  0  0  0  0  0  0  0
   -2.3879   -0.2762   -0.7781 N   0  0  0  0  0  0  0  0  0  0  0  0
    6.8292   -1.4506    1.5032 H   0  0  0  0  0  0  0  0  0  0  0  0
    6.7209   -1.5876   -0.2655 H   0  0  0  0  0  0  0  0  0  0  0  0
    6.9970   -3.0914    0.6653 H   0  0  0  0  0  0  0  0  0  0  0  0
    5.8386    0.1916    0.1908 H   0  0  0  0  0  0  0  0  0  0  0  0
    4.3907    2.1571   -0.2234 H   0  0  0  0  0  0  0  0  0  0  0  0
    2.9805    3.3396   -1.3304 H   0  0  0  0  0  0  0  0  0  0  0  0
    1.4901    4.1336   -0.6183 H   0  0  0  0  0  0  0  0  0  0  0  0
    2.9284    3.6824    0.4106 H   0  0  0  0  0  0  0  0  0  0  0  0
    2.4624   -2.2679    0.8106 H   0  0  0  0  0  0  0  0  0  0  0  0
   -0.7451    1.2110    0.8508 H   0  0  0  0  0  0  0  0  0  0  0  0
    0.6134    1.1002    1.9921 H   0  0  0  0  0  0  0  0  0  0  0  0
   -0.6781   -0.1544    2.0728 H   0  0  0  0  0  0  0  0  0  0  0  0
    0.1946   -2.2740   -0.3465 H   0  0  0  0  0  0  0  0  0  0  0  0
    0.0506   -0.9224   -1.4898 H   0  0  0  0  0  0  0  0  0  0  0  0
   -1.4633   -2.6905    1.2792 H   0  0  0  0  0  0  0  0  0  0  0  0
   -8.2423   -0.9398    0.4180 H   0  0  0  0  0  0  0  0  0  0  0  0
   -8.2552    0.8376    0.3356 H   0  0  0  0  0  0  0  0  0  0  0  0
   -3.2439    1.1448   -2.8396 H   0  0  0  0  0  0  0  0  0  0  0  0
   -4.0797    2.5796   -2.1982 H   0  0  0  0  0  0  0  0  0  0  0  0
  1  2  1  0
  2  3  1  0
  3  4  2  0
  4  5  1  0
  5  6  2  0
  6  7  1  0
  7  8  1  0
  6  9  1  0
  9 10  2  0
  9 11  1  0
 11 12  1  0
 11 13  1  0
 13 14  1  0
 14 15  2  0
 15 16  1  0
 16 17  2  0
 17 18  1  0
 18 19  2  0
 19 20  1  0
 19 21  1  0
 21 22  2  0
 22 23  1  0
 22 24  1  0
 24 25  2  0
 10  3  1  0
 25 14  1  0
 24 17  1  0
  1 26  1  0
  1 27  1  0
  1 28  1  0
  4 29  1  0
  5 30  1  0
  8 31  1  0
  8 32  1  0
  8 33  1  0
 10 34  1  0
 12 35  1  0
 12 36  1  0
 12 37  1  0
 13 38  1  0
 13 39  1  0
 15 40  1  0
 20 41  1  0
 20 42  1  0
 23 43  1  0
 23 44  1  0
M  END
$$$$
[H]c1c([H])c(C(=O)N([H])C([H])([H])C(F)(F)F)c([H])c(C([H])(N([H])S(=O)(=O)c2c([H])c([H])c([H])c(Cl)c2[H])C([H])([H])C([H])([H])N(C([H])([H])[H])C([H])([H])[H])c1[H]
     RDKit          3D

 54 55  0  0  0  0  0  0  0  0999 V2000
   -2.6717   -5.3837    1.3636 C   0  0  0  0  0  0  0  0  0  0  0  0
   -1.6413   -4.6019    0.6630 N   0  0  0  0  0  0  0  0  0  0  0  0
   -2.0288   -4.7611   -0.7735 C   0  0  0  0  0  0  0  0  0  0  0  0
   -1.8308   -3.1899    0.9442 C   0  0  0  0  0  0  0  0  0  0  0  0
   -0.5658   -2.4189    0.5534 C   0  0  0  0  0  0  0  0  0  0  0  0
   -0.7389   -0.9220    0.7293 C   0  0  0  0  0  0  0  0  0  0  0  0
   -1.7635   -0.4671   -0.2575 N   0  0  0  0  0  0  0  0  0  0  0  0
   -3.0290    0.3576    0.6005 S   0  0  0  0  0  0  0  0  0  0  0  0
   -2.7744    0.4331    2.0852 O   0  0  0  0  0  0  0  0  0  0  0  0
   -4.3095   -0.4083    0.3958 O   0  0  0  0  0  0  0  0  0  0  0  0
   -3.1593    1.9981   -0.0316 C   0  0  0  0  0  0  0  0  0  0  0  0
   -4.2750    2.2508   -0.8520 C   0  0  0  0  0  0  0  0  0  0  0  0
   -4.4160    3.5403   -1.4372 C   0  0  0  0  0  0  0  0  0  0  0  0
   -3.4915    4.4768   -1.1862 C   0  0  0  0  0  0  0  0  0  0  0  0
   -2.4159    4.2369   -0.3825 C   0  0  0  0  0  0  0  0  0  0  0  0
   -1.2279    5.4839   -0.1088 Cl  0  0  0  0  0  0  0  0  0  0  0  0
   -2.2586    2.9596    0.1954 C   0  0  0  0  0  0  0  0  0  0  0  0
    0.4629   -0.1092    0.7506 C   0  0  0  0  0  0  0  0  0  0  0  0
    0.7445    0.6400    1.8995 C   0  0  0  0  0  0  0  0  0  0  0  0
    1.8779    1.4059    2.0710 C   0  0  0  0  0  0  0  0  0  0  0  0
    2.7888    1.4345    1.0130 C   0  0  0  0  0  0  0  0  0  0  0  0
    2.5459    0.7193   -0.1320 C   0  0  0  0  0  0  0  0  0  0  0  0
    1.4153   -0.0353   -0.2586 C   0  0  0  0  0  0  0  0  0  0  0  0
    3.5459    0.8386   -1.3002 C   0  0  0  0  0  0  0  0  0  0  0  0
    3.2315    0.2801   -2.3521 O   0  0  0  0  0  0  0  0  0  0  0  0
    4.6615    1.5683   -1.0334 N   0  0  0  0  0  0  0  0  0  0  0  0
    5.7956    2.3013   -0.7901 C   0  0  0  0  0  0  0  0  0  0  0  0
    7.1307    1.5357   -1.0590 C   0  0  0  0  0  0  0  0  0  0  0  0
    7.2862    0.4408   -0.2768 F   0  0  0  0  0  0  0  0  0  0  0  0
    8.1261    2.4745   -0.7862 F   0  0  0  0  0  0  0  0  0  0  0  0
    7.2430    1.2486   -2.3924 F   0  0  0  0  0  0  0  0  0  0  0  0
   -3.6518   -4.9077    1.0696 H   0  0  0  0  0  0  0  0  0  0  0  0
   -2.6512   -6.3993    0.9692 H   0  0  0  0  0  0  0  0  0  0  0  0
   -2.5251   -5.3708    2.4529 H   0  0  0  0  0  0  0  0  0  0  0  0
   -1.9658   -3.8274   -1.3367 H   0  0  0  0  0  0  0  0  0  0  0  0
   -1.4305   -5.5920   -1.1804 H   0  0  0  0  0  0  0  0  0  0  0  0
   -3.1199   -5.0799   -0.8292 H   0  0  0  0  0  0  0  0  0  0  0  0
   -1.9356   -3.0915    2.0478 H   0  0  0  0  0  0  0  0  0  0  0  0
   -2.7472   -2.7818    0.4618 H   0  0  0  0  0  0  0  0  0  0  0  0
    0.3019   -2.8726    0.9696 H   0  0  0  0  0  0  0  0  0  0  0  0
   -0.5234   -2.6001   -0.5841 H   0  0  0  0  0  0  0  0  0  0  0  0
   -1.2142   -0.8038    1.7630 H   0  0  0  0  0  0  0  0  0  0  0  0
   -1.2883    0.1501   -0.9285 H   0  0  0  0  0  0  0  0  0  0  0  0
   -4.9643    1.5218   -1.0748 H   0  0  0  0  0  0  0  0  0  0  0  0
   -5.2744    3.6843   -2.0641 H   0  0  0  0  0  0  0  0  0  0  0  0
   -3.5841    5.4516   -1.6509 H   0  0  0  0  0  0  0  0  0  0  0  0
   -1.3689    2.8304    0.8333 H   0  0  0  0  0  0  0  0  0  0  0  0
    0.0068    0.6147    2.7280 H   0  0  0  0  0  0  0  0  0  0  0  0
    2.0423    1.9788    2.9559 H   0  0  0  0  0  0  0  0  0  0  0  0
    3.6895    2.0060    1.0610 H   0  0  0  0  0  0  0  0  0  0  0  0
    1.2258   -0.6022   -1.1588 H   0  0  0  0  0  0  0  0  0  0  0  0
    4.9568    1.6319   -2.3638 H   0  0  0  0  0  0  0  0  0  0  0  0
    5.8692    2.4262    0.3914 H   0  0  0  0  0  0  0  0  0  0  0  0
    5.8945    3.3060   -1.2252 H   0  0  0  0  0  0  0  0  0  0  0  0
  1  2  1  0
  2  3  1  0
  2  4  1  0
  4  5  1  0
  5  6  1  0
  6  7  1  0
  7  8  1  0
  8  9  2  0
  8 10  2  0
  8 11  1  0
 11 12  2  0
 12 13  1  0
 13 14  2  0
 14 15  1  0
 15 16  1  0
 15 17  2  0
  6 18  1  0
 18 19  2  0
 19 20  1  0
 20 21  2  0
 21 22  1  0
 22 23  2  0
 22 24  1  0
 24 25  2  0
 24 26  1  0
 26 27  1  0
 27 28  1  0
 28 29  1  0
 28 30  1  0
 28 31  1  0
 17 11  1  0
 23 18  1  0
  1 32  1  0
  1 33  1  0
  1 34  1  0
  3 35  1  0
  3 36  1  0
  3 37  1  0
  4 38  1  0
  4 39  1  0
  5 40  1  0
  5 41  1  0
  6 42  1  0
  7 43  1  0
 12 44  1  0
 13 45  1  0
 14 46  1  0
 17 47  1  0
 19 48  1  0
 20 49  1  0
 21 50  1  0
 23 51  1  0
 26 52  1  0
 27 53  1  0
 27 54  1  0
M  END
$$$$
[H]c1nc([H])c(C([H])([H])N([H])C(=O)N([H])[C@]([H])(C(=O)N([H])[C@]2([H])c3c(c4c([H])c([H])c([H])c([H])c4n3[H])C([H])([H])C2([H])[H])C([H])([H])c2c([H])c([H])c([H])c([H])c2[H])c(Cl)c1[H]
     RDKit          3D

 61 65  0  0  0  0  0  0  0  0999 V2000
   -6.7737   -2.9061   -2.0224 Cl  0  0  0  0  0  0  0  0  0  0  0  0
   -6.7079   -1.2053   -1.5590 C   0  0  0  0  0  0  0  0  0  0  0  0
   -7.8011   -0.5566   -1.0442 C   0  0  0  0  0  0  0  0  0  0  0  0
   -7.7298    0.7793   -0.6876 C   0  0  0  0  0  0  0  0  0  0  0  0
   -6.5811    1.4186   -0.8553 N   0  0  0  0  0  0  0  0  0  0  0  0
   -5.4491    0.8394   -1.3624 C   0  0  0  0  0  0  0  0  0  0  0  0
   -5.5203   -0.4800   -1.7138 C   0  0  0  0  0  0  0  0  0  0  0  0
   -4.3702   -1.1931   -2.3085 C   0  0  0  0  0  0  0  0  0  0  0  0
   -3.1631   -0.4683   -2.3892 N   0  0  0  0  0  0  0  0  0  0  0  0
   -2.4154   -0.0928   -1.1974 C   0  0  0  0  0  0  0  0  0  0  0  0
   -2.9317   -0.4564   -0.1403 O   0  0  0  0  0  0  0  0  0  0  0  0
   -1.2259    0.6148   -1.3428 N   0  0  0  0  0  0  0  0  0  0  0  0
   -0.2438    1.1675   -0.5297 C   0  0  1  0  0  0  0  0  0  0  0  0
   -0.1245    1.1358    0.9161 C   0  0  0  0  0  0  0  0  0  0  0  0
   -1.1350    1.7626    1.7804 C   0  0  0  0  0  0  0  0  0  0  0  0
   -1.1380    3.1710    1.9029 C   0  0  0  0  0  0  0  0  0  0  0  0
   -1.9975    3.8218    2.7622 C   0  0  0  0  0  0  0  0  0  0  0  0
   -2.8952    3.1330    3.5431 C   0  0  0  0  0  0  0  0  0  0  0  0
   -2.9121    1.7593    3.4425 C   0  0  0  0  0  0  0  0  0  0  0  0
   -2.0415    1.1328    2.5753 C   0  0  0  0  0  0  0  0  0  0  0  0
    1.1311    1.0766   -1.1770 C   0  0  0  0  0  0  0  0  0  0  0  0
    1.2270    1.2756   -2.4143 O   0  0  0  0  0  0  0  0  0  0  0  0
    2.3025    0.7779   -0.4612 N   0  0  0  0  0  0  0  0  0  0  0  0
    3.6090    0.6963   -1.0908 C   0  0  1  0  0  0  0  0  0  0  0  0
    4.6333    1.5349   -0.3918 C   0  0  0  0  0  0  0  0  0  0  0  0
    5.1690    0.6611    0.7183 C   0  0  0  0  0  0  0  0  0  0  0  0
    4.9731   -0.7232    0.2115 C   0  0  0  0  0  0  0  0  0  0  0  0
    4.0835   -0.6998   -0.8286 C   0  0  0  0  0  0  0  0  0  0  0  0
    3.9510   -1.9728   -1.2499 N   0  0  0  0  0  0  0  0  0  0  0  0
    4.7261   -2.7875   -0.5094 C   0  0  0  0  0  0  0  0  0  0  0  0
    4.9818   -4.1550   -0.4942 C   0  0  0  0  0  0  0  0  0  0  0  0
    5.8519   -4.7452    0.4059 C   0  0  0  0  0  0  0  0  0  0  0  0
    6.5058   -3.9560    1.3400 C   0  0  0  0  0  0  0  0  0  0  0  0
    6.2761   -2.5981    1.3541 C   0  0  0  0  0  0  0  0  0  0  0  0
    5.3928   -2.0366    0.4312 C   0  0  0  0  0  0  0  0  0  0  0  0
   -8.7094   -1.0944   -0.9202 H   0  0  0  0  0  0  0  0  0  0  0  0
   -8.6337    1.2142   -0.2936 H   0  0  0  0  0  0  0  0  0  0  0  0
   -4.5525    1.4135   -1.4901 H   0  0  0  0  0  0  0  0  0  0  0  0
   -4.6651   -1.5577   -3.3336 H   0  0  0  0  0  0  0  0  0  0  0  0
   -4.1885   -2.1634   -1.7432 H   0  0  0  0  0  0  0  0  0  0  0  0
   -2.7678   -0.1772   -3.3174 H   0  0  0  0  0  0  0  0  0  0  0  0
   -0.9794    0.8012   -2.4318 H   0  0  0  0  0  0  0  0  0  0  0  0
   -0.4787    2.3485   -0.6814 H   0  0  0  0  0  0  0  0  0  0  0  0
    0.8327    1.7051    1.1893 H   0  0  0  0  0  0  0  0  0  0  0  0
   -0.0108    0.0748    1.2640 H   0  0  0  0  0  0  0  0  0  0  0  0
   -0.4177    3.7077    1.2744 H   0  0  0  0  0  0  0  0  0  0  0  0
   -1.9818    4.9083    2.8401 H   0  0  0  0  0  0  0  0  0  0  0  0
   -3.5811    3.6335    4.2283 H   0  0  0  0  0  0  0  0  0  0  0  0
   -3.6215    1.2220    4.0587 H   0  0  0  0  0  0  0  0  0  0  0  0
   -2.0832    0.0553    2.5323 H   0  0  0  0  0  0  0  0  0  0  0  0
    2.2462    0.5941    0.5605 H   0  0  0  0  0  0  0  0  0  0  0  0
    3.5877    0.9369   -2.1436 H   0  0  0  0  0  0  0  0  0  0  0  0
    5.4837    1.7562   -1.0754 H   0  0  0  0  0  0  0  0  0  0  0  0
    4.2156    2.4906    0.0070 H   0  0  0  0  0  0  0  0  0  0  0  0
    4.5663    0.8233    1.6371 H   0  0  0  0  0  0  0  0  0  0  0  0
    6.2399    0.8701    0.9333 H   0  0  0  0  0  0  0  0  0  0  0  0
    3.3346   -2.2944   -2.0425 H   0  0  0  0  0  0  0  0  0  0  0  0
    4.4891   -4.7884   -1.2021 H   0  0  0  0  0  0  0  0  0  0  0  0
    6.0577   -5.7993    0.4259 H   0  0  0  0  0  0  0  0  0  0  0  0
    7.1903   -4.4410    2.0414 H   0  0  0  0  0  0  0  0  0  0  0  0
    6.7704   -1.9647    2.0687 H   0  0  0  0  0  0  0  0  0  0  0  0
  1  2  1  0
  2  3  2  0
  3  4  1  0
  4  5  2  0
  5  6  1  0
  6  7  2  0
  7  8  1  0
  8  9  1  0
  9 10  1  0
 10 11  2  0
 10 12  1  0
 12 13  1  0
 13 14  1  0
 14 15  1  0
 15 16  2  0
 16 17  1  0
 17 18  2  0
 18 19  1  0
 19 20  2  0
 13 21  1  0
 21 22  2  0
 21 23  1  0
 23 24  1  0
 24 25  1  0
 25 26  1  0
 26 27  1  0
 27 28  2  0
 28 29  1  0
 29 30  1  0
 30 31  2  0
 31 32  1  0
 32 33  2  0
 33 34  1  0
 34 35  2  0
  7  2  1  0
 20 15  1  0
 28 24  1  0
 35 30  1  0
 35 27  1  0
  3 36  1  0
  4 37  1  0
  6 38  1  0
  8 39  1  0
  8 40  1  0
  9 41  1  0
 12 42  1  0
 13 43  1  1
 14 44  1  0
 14 45  1  0
 16 46  1  0
 17 47  1  0
 18 48  1  0
 19 49  1  0
 20 50  1  0
 23 51  1  0
 24 52  1  6
 25 53  1  0
 25 54  1  0
 26 55  1  0
 26 56  1  0
 29 57  1  0
 31 58  1  0
 32 59  1  0
 33 60  1  0
 34 61  1  0
M  END
$$$$
[H]c1nc(Oc2nc3c([H])c([H])c([H])c([H])c3c([H])c2[H])c(C(=O)N2C([H])([H])C([H])([H])SC([H])([H])C2([H])[H])c([H])c1[H]
     RDKit          3D

 42 45  0  0  0  0  0  0  0  0999 V2000
   -2.3164    1.8816   -1.9816 O   0  0  0  0  0  0  0  0  0  0  0  0
   -2.3450    0.8313   -1.2810 C   0  0  0  0  0  0  0  0  0  0  0  0
   -3.1635    0.7028   -0.1200 N   0  0  0  0  0  0  0  0  0  0  0  0
   -3.0941   -0.5358    0.5694 C   0  0  0  0  0  0  0  0  0  0  0  0
   -3.6107   -0.5842    1.9524 C   0  0  0  0  0  0  0  0  0  0  0  0
   -4.9518    0.5467    2.3186 S   0  0  0  0  0  0  0  0  0  0  0  0
   -5.3201    1.4612    0.7926 C   0  0  0  0  0  0  0  0  0  0  0  0
   -3.9708    1.8409    0.2275 C   0  0  0  0  0  0  0  0  0  0  0  0
   -1.4759   -0.2436   -1.7492 C   0  0  0  0  0  0  0  0  0  0  0  0
   -1.9104   -1.2000   -2.6417 C   0  0  0  0  0  0  0  0  0  0  0  0
   -1.0312   -2.1959   -3.0458 C   0  0  0  0  0  0  0  0  0  0  0  0
    0.2574   -2.2323   -2.5650 C   0  0  0  0  0  0  0  0  0  0  0  0
    0.6636   -1.2916   -1.6956 N   0  0  0  0  0  0  0  0  0  0  0  0
   -0.1713   -0.2982   -1.2759 C   0  0  0  0  0  0  0  0  0  0  0  0
    0.2159    0.6842   -0.3826 O   0  0  0  0  0  0  0  0  0  0  0  0
    1.5075    0.6809    0.1243 C   0  0  0  0  0  0  0  0  0  0  0  0
    1.9223    1.6625    1.0279 C   0  0  0  0  0  0  0  0  0  0  0  0
    3.1988    1.6822    1.5461 C   0  0  0  0  0  0  0  0  0  0  0  0
    4.0997    0.7019    1.1624 C   0  0  0  0  0  0  0  0  0  0  0  0
    5.3867    0.6606    1.6388 C   0  0  0  0  0  0  0  0  0  0  0  0
    6.2380   -0.3327    1.2256 C   0  0  0  0  0  0  0  0  0  0  0  0
    5.8275   -1.2994    0.3350 C   0  0  0  0  0  0  0  0  0  0  0  0
    4.5456   -1.2784   -0.1547 C   0  0  0  0  0  0  0  0  0  0  0  0
    3.6869   -0.2726    0.2649 C   0  0  0  0  0  0  0  0  0  0  0  0
    2.4442   -0.2270   -0.1907 N   0  0  0  0  0  0  0  0  0  0  0  0
   -2.0353   -0.8718    0.5725 H   0  0  0  0  0  0  0  0  0  0  0  0
   -3.6385   -1.2999   -0.0541 H   0  0  0  0  0  0  0  0  0  0  0  0
   -3.9781   -1.6186    2.1919 H   0  0  0  0  0  0  0  0  0  0  0  0
   -2.7988   -0.3961    2.7035 H   0  0  0  0  0  0  0  0  0  0  0  0
   -5.9049    0.8444    0.0894 H   0  0  0  0  0  0  0  0  0  0  0  0
   -5.8495    2.4119    1.0177 H   0  0  0  0  0  0  0  0  0  0  0  0
   -3.4552    2.4590    0.9867 H   0  0  0  0  0  0  0  0  0  0  0  0
   -4.1677    2.4787   -0.6581 H   0  0  0  0  0  0  0  0  0  0  0  0
   -2.9308   -1.1529   -3.0086 H   0  0  0  0  0  0  0  0  0  0  0  0
   -1.3388   -2.9570   -3.7410 H   0  0  0  0  0  0  0  0  0  0  0  0
    0.9534   -3.0017   -2.8706 H   0  0  0  0  0  0  0  0  0  0  0  0
    1.2319    2.4167    1.3243 H   0  0  0  0  0  0  0  0  0  0  0  0
    3.5436    2.4322    2.2476 H   0  0  0  0  0  0  0  0  0  0  0  0
    5.6922    1.4325    2.3412 H   0  0  0  0  0  0  0  0  0  0  0  0
    7.2549   -0.3892    1.5841 H   0  0  0  0  0  0  0  0  0  0  0  0
    6.5292   -2.0806    0.0227 H   0  0  0  0  0  0  0  0  0  0  0  0
    4.2596   -2.0524   -0.8510 H   0  0  0  0  0  0  0  0  0  0  0  0
  1  2  2  0
  2  3  1  0
  3  4  1  0
  4  5  1  0
  5  6  1  0
  6  7  1  0
  7  8  1  0
  2  9  1  0
  9 10  2  0
 10 11  1  0
 11 12  2  0
 12 13  1  0
 13 14  2  0
 14 15  1  0
 15 16  1  0
 16 17  2  0
 17 18  1  0
 18 19  2  0
 19 20  1  0
 20 21  2  0
 21 22  1  0
 22 23  2  0
 23 24  1  0
 24 25  2  0
  8  3  1  0
 14  9  1  0
 25 16  1  0
 24 19  1  0
  4 26  1  0
  4 27  1  0
  5 28  1  0
  5 29  1  0
  7 30  1  0
  7 31  1  0
  8 32  1  0
  8 33  1  0
 10 34  1  0
 11 35  1  0
 12 36  1  0
 17 37  1  0
 18 38  1  0
 20 39  1  0
 21 40  1  0
 22 41  1  0
 23 42  1  0
M  END
$$$$
[H]c1c([H])c([H])c(-c2c(C([H])([H])N(C(=O)B(C([H])([H])C([H])([H])[H])C([H])([H])C([H])([H])[H])N([H])C(=O)OC([H])([H])c3c([H])c([H])c([H])c([H])c3[H])c(C(C([H])([H])[H])(C([H])([H])[H])C([H])([H])[H])nn2-c2c([H])c([H])c([H])c([H])c2[H])c([H])c1[H]
     RDKit          3D

 80 83  0  0  0  0  0  0  0  0999 V2000
    2.4900   -4.0664    0.6634 C   0  0  0  0  0  0  0  0  0  0  0  0
    2.9002   -3.3856   -0.6080 C   0  0  0  0  0  0  0  0  0  0  0  0
    1.6874   -2.6492   -1.3255 B   0  0  0  0  0  0  0  0  0  0  0  0
    1.3069   -3.1526   -2.7864 C   0  0  0  0  0  0  0  0  0  0  0  0
    1.0733   -4.6560   -2.6782 C   0  0  0  0  0  0  0  0  0  0  0  0
    0.5641   -2.0751   -0.4355 C   0  0  0  0  0  0  0  0  0  0  0  0
   -0.5332   -2.7541   -0.4884 O   0  0  0  0  0  0  0  0  0  0  0  0
    0.6272   -0.9275    0.3988 N   0  0  0  0  0  0  0  0  0  0  0  0
    1.7694   -0.1584    0.4219 N   0  0  0  0  0  0  0  0  0  0  0  0
    2.5974    0.3460   -0.5572 C   0  0  0  0  0  0  0  0  0  0  0  0
    2.4804    0.2057   -1.7952 O   0  0  0  0  0  0  0  0  0  0  0  0
    3.7425    1.1283   -0.2154 O   0  0  0  0  0  0  0  0  0  0  0  0
    4.5805    1.6379   -1.2297 C   0  0  0  0  0  0  0  0  0  0  0  0
    5.6991    2.4145   -0.6626 C   0  0  0  0  0  0  0  0  0  0  0  0
    6.6081    2.9883   -1.4919 C   0  0  0  0  0  0  0  0  0  0  0  0
    7.6630    3.7204   -0.9373 C   0  0  0  0  0  0  0  0  0  0  0  0
    7.8062    3.8758    0.4179 C   0  0  0  0  0  0  0  0  0  0  0  0
    6.8702    3.2838    1.2437 C   0  0  0  0  0  0  0  0  0  0  0  0
    5.8314    2.5627    0.6962 C   0  0  0  0  0  0  0  0  0  0  0  0
   -0.4524   -0.7661    1.3223 C   0  0  0  0  0  0  0  0  0  0  0  0
   -1.7194   -0.1733    1.1563 C   0  0  0  0  0  0  0  0  0  0  0  0
   -2.6024   -0.1448    2.2810 C   0  0  0  0  0  0  0  0  0  0  0  0
   -3.7492    0.3191    1.8307 N   0  0  0  0  0  0  0  0  0  0  0  0
   -3.7574    0.6078    0.5700 N   0  0  0  0  0  0  0  0  0  0  0  0
   -2.4725    0.3029    0.1225 C   0  0  0  0  0  0  0  0  0  0  0  0
   -2.1210    0.6755   -1.2405 C   0  0  0  0  0  0  0  0  0  0  0  0
   -0.9610    1.3018   -1.5689 C   0  0  0  0  0  0  0  0  0  0  0  0
   -0.5960    1.5789   -2.8888 C   0  0  0  0  0  0  0  0  0  0  0  0
   -1.4236    1.2156   -3.9222 C   0  0  0  0  0  0  0  0  0  0  0  0
   -2.6076    0.5788   -3.6328 C   0  0  0  0  0  0  0  0  0  0  0  0
   -2.9351    0.3200   -2.3043 C   0  0  0  0  0  0  0  0  0  0  0  0
   -4.8630    1.1608   -0.1318 C   0  0  0  0  0  0  0  0  0  0  0  0
   -4.7598    2.4102   -0.6935 C   0  0  0  0  0  0  0  0  0  0  0  0
   -5.8587    2.9758   -1.3550 C   0  0  0  0  0  0  0  0  0  0  0  0
   -7.0463    2.2871   -1.4468 C   0  0  0  0  0  0  0  0  0  0  0  0
   -7.1559    1.0355   -0.8863 C   0  0  0  0  0  0  0  0  0  0  0  0
   -6.0637    0.4928   -0.2385 C   0  0  0  0  0  0  0  0  0  0  0  0
   -2.3933   -0.4700    3.6662 C   0  0  0  0  0  0  0  0  0  0  0  0
   -1.3570    0.4428    4.2949 C   0  0  0  0  0  0  0  0  0  0  0  0
   -3.6860   -0.1705    4.4533 C   0  0  0  0  0  0  0  0  0  0  0  0
   -2.1151   -1.9096    3.9774 C   0  0  0  0  0  0  0  0  0  0  0  0
    3.0526   -5.0325    0.7201 H   0  0  0  0  0  0  0  0  0  0  0  0
    2.8291   -3.4936    1.5694 H   0  0  0  0  0  0  0  0  0  0  0  0
    1.4213   -4.3179    0.7217 H   0  0  0  0  0  0  0  0  0  0  0  0
    3.6662   -2.6054   -0.3260 H   0  0  0  0  0  0  0  0  0  0  0  0
    3.4406   -4.0723   -1.2897 H   0  0  0  0  0  0  0  0  0  0  0  0
    0.3444   -2.6928   -3.1302 H   0  0  0  0  0  0  0  0  0  0  0  0
    2.1212   -2.9153   -3.5016 H   0  0  0  0  0  0  0  0  0  0  0  0
    0.5199   -4.8342   -1.7234 H   0  0  0  0  0  0  0  0  0  0  0  0
    0.5120   -5.0575   -3.5374 H   0  0  0  0  0  0  0  0  0  0  0  0
    2.0344   -5.2059   -2.5909 H   0  0  0  0  0  0  0  0  0  0  0  0
    2.0651    0.0946    1.4377 H   0  0  0  0  0  0  0  0  0  0  0  0
    5.0182    0.8308   -1.8561 H   0  0  0  0  0  0  0  0  0  0  0  0
    4.0325    2.3200   -1.9313 H   0  0  0  0  0  0  0  0  0  0  0  0
    6.5856    2.9260   -2.5721 H   0  0  0  0  0  0  0  0  0  0  0  0
    8.4017    4.1883   -1.5852 H   0  0  0  0  0  0  0  0  0  0  0  0
    8.6064    4.4329    0.8832 H   0  0  0  0  0  0  0  0  0  0  0  0
    6.9686    3.3973    2.3134 H   0  0  0  0  0  0  0  0  0  0  0  0
    5.1159    2.1122    1.3461 H   0  0  0  0  0  0  0  0  0  0  0  0
    0.0611   -0.4039    2.3152 H   0  0  0  0  0  0  0  0  0  0  0  0
   -0.5841   -1.8712    1.6955 H   0  0  0  0  0  0  0  0  0  0  0  0
   -0.2468    1.6546   -0.8060 H   0  0  0  0  0  0  0  0  0  0  0  0
    0.3499    2.0848   -3.0900 H   0  0  0  0  0  0  0  0  0  0  0  0
   -1.1357    1.4344   -4.9489 H   0  0  0  0  0  0  0  0  0  0  0  0
   -3.2715    0.2852   -4.4284 H   0  0  0  0  0  0  0  0  0  0  0  0
   -3.8381   -0.1960   -2.1384 H   0  0  0  0  0  0  0  0  0  0  0  0
   -3.8554    3.0076   -0.6580 H   0  0  0  0  0  0  0  0  0  0  0  0
   -5.7867    3.9555   -1.7992 H   0  0  0  0  0  0  0  0  0  0  0  0
   -7.9125    2.7079   -1.9541 H   0  0  0  0  0  0  0  0  0  0  0  0
   -8.0726    0.4772   -0.9452 H   0  0  0  0  0  0  0  0  0  0  0  0
   -6.1116   -0.4935    0.2163 H   0  0  0  0  0  0  0  0  0  0  0  0
   -1.7584    0.9789    5.1984 H   0  0  0  0  0  0  0  0  0  0  0  0
   -0.4618   -0.1570    4.5727 H   0  0  0  0  0  0  0  0  0  0  0  0
   -1.0200    1.2244    3.5858 H   0  0  0  0  0  0  0  0  0  0  0  0
   -4.4240   -0.9421    4.1893 H   0  0  0  0  0  0  0  0  0  0  0  0
   -3.4307   -0.2797    5.5128 H   0  0  0  0  0  0  0  0  0  0  0  0
   -4.0693    0.8396    4.2027 H   0  0  0  0  0  0  0  0  0  0  0  0
   -2.4641   -2.0943    5.0143 H   0  0  0  0  0  0  0  0  0  0  0  0
   -2.7321   -2.5274    3.3175 H   0  0  0  0  0  0  0  0  0  0  0  0
   -1.0388   -2.1696    4.0041 H   0  0  0  0  0  0  0  0  0  0  0  0
  1  2  1  0
  2  3  1  0
  3  4  1  0
  4  5  1  0
  3  6  1  0
  6  7  2  0
  6  8  1  0
  8  9  1  0
  9 10  1  0
 10 11  2  0
 10 12  1  0
 12 13  1  0
 13 14  1  0
 14 15  2  0
 15 16  1  0
 16 17  2  0
 17 18  1  0
 18 19  2  0
  8 20  1  0
 20 21  1  0
 21 22  1  0
 22 23  2  0
 23 24  1  0
 24 25  1  0
 25 26  1  0
 26 27  2  0
 27 28  1  0
 28 29  2  0
 29 30  1  0
 30 31  2  0
 24 32  1  0
 32 33  2  0
 33 34  1  0
 34 35  2  0
 35 36  1  0
 36 37  2  0
 22 38  1  0
 38 39  1  0
 38 40  1  0
 38 41  1  0
 19 14  1  0
 25 21  2  0
 31 26  1  0
 37 32  1  0
  1 42  1  0
  1 43  1  0
  1 44  1  0
  2 45  1  0
  2 46  1  0
  4 47  1  0
  4 48  1  0
  5 49  1  0
  5 50  1  0
  5 51  1  0
  9 52  1  0
 13 53  1  0
 13 54  1  0
 15 55  1  0
 16 56  1  0
 17 57  1  0
 18 58  1  0
 19 59  1  0
 20 60  1  0
 20 61  1  0
 27 62  1  0
 28 63  1  0
 29 64  1  0
 30 65  1  0
 31 66  1  0
 33 67  1  0
 34 68  1  0
 35 69  1  0
 36 70  1  0
 37 71  1  0
 39 72  1  0
 39 73  1  0
 39 74  1  0
 40 75  1  0
 40 76  1  0
 40 77  1  0
 41 78  1  0
 41 79  1  0
 41 80  1  0
M  END
$$$$
[H]c1nc(C2(C(=O)N3C([H])([H])[C@]([H])(S(=O)(=O)c4c([H])c([H])c([H])c([H])c4Cl)C([H])([H])[C@@]3([H])C(=O)N([H])[C@]([H])(C(=O)C(=O)N([H])C3([H])C([H])([H])C3([H])[H])C([H])([H])C([H])([H])C([H])([H])[H])C([H])([H])C2([H])[H])c(Cl)c([H])c1Cl
     RDKit          3D

 74 78  0  0  0  0  0  0  0  0999 V2000
    5.7931    2.8690   -1.7431 C   0  0  0  0  0  0  0  0  0  0  0  0
    5.1771    1.4775   -1.5062 C   0  0  0  0  0  0  0  0  0  0  0  0
    3.9575    1.6599   -0.6866 C   0  0  0  0  0  0  0  0  0  0  0  0
    3.1751    0.3996   -0.3605 C   0  0  2  0  0  0  0  0  0  0  0  0
    2.0392    0.8858    0.4635 N   0  0  0  0  0  0  0  0  0  0  0  0
    0.7141    0.8304    0.0180 C   0  0  0  0  0  0  0  0  0  0  0  0
    0.5078    0.3424   -1.1421 O   0  0  0  0  0  0  0  0  0  0  0  0
   -0.4255    1.3067    0.8220 C   0  0  2  0  0  0  0  0  0  0  0  0
   -0.7966    0.3490    1.9565 C   0  0  0  0  0  0  0  0  0  0  0  0
   -1.4096   -0.8225    1.2166 C   0  0  2  0  0  0  0  0  0  0  0  0
   -2.0642   -0.1265    0.0405 C   0  0  0  0  0  0  0  0  0  0  0  0
   -1.6737    1.2345    0.0106 N   0  0  0  0  0  0  0  0  0  0  0  0
   -2.2386    2.3398   -0.6323 C   0  0  0  0  0  0  0  0  0  0  0  0
   -1.5393    3.4403   -0.4824 O   0  0  0  0  0  0  0  0  0  0  0  0
   -3.4797    2.4650   -1.4434 C   0  0  0  0  0  0  0  0  0  0  0  0
   -3.9090    1.2825   -2.1863 C   0  0  0  0  0  0  0  0  0  0  0  0
   -3.2215    2.4124   -2.8901 C   0  0  0  0  0  0  0  0  0  0  0  0
   -4.3913    3.4686   -0.8351 C   0  0  0  0  0  0  0  0  0  0  0  0
   -4.0232    4.0964    0.3297 N   0  0  0  0  0  0  0  0  0  0  0  0
   -4.7870    5.0185    0.9499 C   0  0  0  0  0  0  0  0  0  0  0  0
   -5.9934    5.4131    0.4787 C   0  0  0  0  0  0  0  0  0  0  0  0
   -6.9344    6.6219    1.3200 Cl  0  0  0  0  0  0  0  0  0  0  0  0
   -6.4185    4.8074   -0.7033 C   0  0  0  0  0  0  0  0  0  0  0  0
   -5.6092    3.8624   -1.3167 C   0  0  0  0  0  0  0  0  0  0  0  0
   -6.1868    3.1788   -2.7976 Cl  0  0  0  0  0  0  0  0  0  0  0  0
   -2.5756   -1.6935    2.2239 S   0  0  0  0  0  0  0  0  0  0  0  0
   -1.9486   -2.0901    3.5457 O   0  0  0  0  0  0  0  0  0  0  0  0
   -3.7316   -0.7793    2.6120 O   0  0  0  0  0  0  0  0  0  0  0  0
   -3.2667   -3.0720    1.4412 C   0  0  0  0  0  0  0  0  0  0  0  0
   -2.9377   -3.4621    0.1712 C   0  0  0  0  0  0  0  0  0  0  0  0
   -3.5211   -4.5703   -0.3972 C   0  0  0  0  0  0  0  0  0  0  0  0
   -4.4657   -5.3523    0.2656 C   0  0  0  0  0  0  0  0  0  0  0  0
   -4.7890   -4.9394    1.5594 C   0  0  0  0  0  0  0  0  0  0  0  0
   -4.2081   -3.8348    2.1318 C   0  0  0  0  0  0  0  0  0  0  0  0
   -4.7017   -3.4319    3.7649 Cl  0  0  0  0  0  0  0  0  0  0  0  0
    3.9373   -0.6102    0.3748 C   0  0  0  0  0  0  0  0  0  0  0  0
    3.7188   -0.6692    1.6351 O   0  0  0  0  0  0  0  0  0  0  0  0
    4.9016   -1.5462   -0.1520 C   0  0  0  0  0  0  0  0  0  0  0  0
    5.1256   -1.6494   -1.4181 O   0  0  0  0  0  0  0  0  0  0  0  0
    5.6707   -2.4112    0.6605 N   0  0  0  0  0  0  0  0  0  0  0  0
    6.6319   -3.3335    0.1208 C   0  0  0  0  0  0  0  0  0  0  0  0
    7.9363   -3.5317    0.8162 C   0  0  0  0  0  0  0  0  0  0  0  0
    6.8903   -4.6192    0.8871 C   0  0  0  0  0  0  0  0  0  0  0  0
    6.3816    3.1443   -0.8438 H   0  0  0  0  0  0  0  0  0  0  0  0
    5.0476    3.6461   -1.9145 H   0  0  0  0  0  0  0  0  0  0  0  0
    6.4880    2.8428   -2.6124 H   0  0  0  0  0  0  0  0  0  0  0  0
    5.9944    0.9357   -0.9726 H   0  0  0  0  0  0  0  0  0  0  0  0
    4.9444    1.0668   -2.4994 H   0  0  0  0  0  0  0  0  0  0  0  0
    3.2686    2.3359   -1.2311 H   0  0  0  0  0  0  0  0  0  0  0  0
    4.2394    2.1808    0.2599 H   0  0  0  0  0  0  0  0  0  0  0  0
    2.7950   -0.0184   -1.3023 H   0  0  0  0  0  0  0  0  0  0  0  0
    2.2965    1.2685    1.3854 H   0  0  0  0  0  0  0  0  0  0  0  0
   -0.2967    2.3303    1.1953 H   0  0  0  0  0  0  0  0  0  0  0  0
   -1.5957    0.8322    2.5431 H   0  0  0  0  0  0  0  0  0  0  0  0
    0.0561    0.0560    2.5759 H   0  0  0  0  0  0  0  0  0  0  0  0
   -0.5871   -1.4647    0.9075 H   0  0  0  0  0  0  0  0  0  0  0  0
   -3.1313   -0.3224    0.1314 H   0  0  0  0  0  0  0  0  0  0  0  0
   -1.7088   -0.6767   -0.8945 H   0  0  0  0  0  0  0  0  0  0  0  0
   -3.3673    0.2958   -2.1488 H   0  0  0  0  0  0  0  0  0  0  0  0
   -4.9833    1.0191   -2.3962 H   0  0  0  0  0  0  0  0  0  0  0  0
   -3.6805    3.0340   -3.6580 H   0  0  0  0  0  0  0  0  0  0  0  0
   -2.1743    2.1309   -3.2400 H   0  0  0  0  0  0  0  0  0  0  0  0
   -4.3632    5.4280    1.8646 H   0  0  0  0  0  0  0  0  0  0  0  0
   -7.3809    5.0938   -1.1221 H   0  0  0  0  0  0  0  0  0  0  0  0
   -2.2149   -2.9157   -0.4035 H   0  0  0  0  0  0  0  0  0  0  0  0
   -3.2354   -4.8405   -1.3953 H   0  0  0  0  0  0  0  0  0  0  0  0
   -4.9058   -6.2133   -0.2092 H   0  0  0  0  0  0  0  0  0  0  0  0
   -5.5188   -5.5545    2.0567 H   0  0  0  0  0  0  0  0  0  0  0  0
    5.5340   -2.3758    1.6890 H   0  0  0  0  0  0  0  0  0  0  0  0
    6.7103   -3.3970   -1.0072 H   0  0  0  0  0  0  0  0  0  0  0  0
    8.2144   -2.9703    1.7317 H   0  0  0  0  0  0  0  0  0  0  0  0
    8.8214   -3.7812    0.2036 H   0  0  0  0  0  0  0  0  0  0  0  0
    7.0066   -5.5562    0.3009 H   0  0  0  0  0  0  0  0  0  0  0  0
    6.4170   -4.7711    1.8825 H   0  0  0  0  0  0  0  0  0  0  0  0
  1  2  1  0
  2  3  1  0
  3  4  1  0
  4  5  1  0
  5  6  1  0
  6  7  2  0
  6  8  1  0
  8  9  1  0
  9 10  1  0
 10 11  1  0
 11 12  1  0
 12 13  1  0
 13 14  2  0
 13 15  1  0
 15 16  1  0
 16 17  1  0
 15 18  1  0
 18 19  2  0
 19 20  1  0
 20 21  2  0
 21 22  1  0
 21 23  1  0
 23 24  2  0
 24 25  1  0
 10 26  1  0
 26 27  2  0
 26 28  2  0
 26 29  1  0
 29 30  2  0
 30 31  1  0
 31 32  2  0
 32 33  1  0
 33 34  2  0
 34 35  1  0
  4 36  1  0
 36 37  2  0
 36 38  1  0
 38 39  2  0
 38 40  1  0
 40 41  1  0
 41 42  1  0
 42 43  1  0
 12  8  1  0
 17 15  1  0
 24 18  1  0
 34 29  1  0
 43 41  1  0
  1 44  1  0
  1 45  1  0
  1 46  1  0
  2 47  1  0
  2 48  1  0
  3 49  1  0
  3 50  1  0
  4 51  1  6
  5 52  1  0
  8 53  1  1
  9 54  1  0
  9 55  1  0
 10 56  1  6
 11 57  1  0
 11 58  1  0
 16 59  1  0
 16 60  1  0
 17 61  1  0
 17 62  1  0
 20 63  1  0
 23 64  1  0
 30 65  1  0
 31 66  1  0
 32 67  1  0
 33 68  1  0
 40 69  1  0
 41 70  1  0
 42 71  1  0
 42 72  1  0
 43 73  1  0
 43 74  1  0
M  END
$$$$
[H]c1nc2c(c(N([H])C(=O)c3c([H])c([H])c(N4C([H])([H])C([H])([H])N(C([H])([H])[H])C([H])([H])C4([H])[H])c([H])c3C(F)(F)F)nn2[H])c([H])c1-c1c([H])c([H])c([H])c(C(F)(F)F)c1[H]
     RDKit          3D

 61 65  0  0  0  0  0  0  0  0999 V2000
   -4.6937   -6.1721   -1.4813 C   0  0  0  0  0  0  0  0  0  0  0  0
   -4.0304   -5.4000   -0.4444 N   0  0  0  0  0  0  0  0  0  0  0  0
   -2.9376   -4.6921   -1.0269 C   0  0  0  0  0  0  0  0  0  0  0  0
   -2.9709   -3.2230   -0.9010 C   0  0  0  0  0  0  0  0  0  0  0  0
   -3.6115   -2.6697    0.2880 N   0  0  0  0  0  0  0  0  0  0  0  0
   -4.4400   -3.4938    1.0844 C   0  0  0  0  0  0  0  0  0  0  0  0
   -4.9972   -4.6191    0.2508 C   0  0  0  0  0  0  0  0  0  0  0  0
   -3.3083   -1.2716    0.5274 C   0  0  0  0  0  0  0  0  0  0  0  0
   -2.3591   -0.9484    1.4472 C   0  0  0  0  0  0  0  0  0  0  0  0
   -1.9193    0.3764    1.5494 C   0  0  0  0  0  0  0  0  0  0  0  0
   -2.4063    1.3912    0.7472 C   0  0  0  0  0  0  0  0  0  0  0  0
   -1.7187    2.7101    0.6792 C   0  0  0  0  0  0  0  0  0  0  0  0
   -2.3289    3.6475    0.1202 O   0  0  0  0  0  0  0  0  0  0  0  0
   -0.4388    2.9795    1.1538 N   0  0  0  0  0  0  0  0  0  0  0  0
    0.3937    2.5545    2.1675 C   0  0  0  0  0  0  0  0  0  0  0  0
    0.1173    2.2753    3.4669 N   0  0  0  0  0  0  0  0  0  0  0  0
    1.2135    2.1738    4.1775 N   0  0  0  0  0  0  0  0  0  0  0  0
    2.2786    2.3733    3.3900 C   0  0  0  0  0  0  0  0  0  0  0  0
    3.6207    2.2574    3.5570 N   0  0  0  0  0  0  0  0  0  0  0  0
    4.4983    2.3608    2.5169 C   0  0  0  0  0  0  0  0  0  0  0  0
    4.0437    2.5895    1.2407 C   0  0  0  0  0  0  0  0  0  0  0  0
    2.6769    2.7219    1.0769 C   0  0  0  0  0  0  0  0  0  0  0  0
    1.8021    2.6104    2.1465 C   0  0  0  0  0  0  0  0  0  0  0  0
    4.8837    2.4693    0.0412 C   0  0  0  0  0  0  0  0  0  0  0  0
    4.2399    2.0484   -1.1384 C   0  0  0  0  0  0  0  0  0  0  0  0
    4.9593    1.7755   -2.3140 C   0  0  0  0  0  0  0  0  0  0  0  0
    6.3425    1.9243   -2.2718 C   0  0  0  0  0  0  0  0  0  0  0  0
    6.9490    2.3373   -1.1060 C   0  0  0  0  0  0  0  0  0  0  0  0
    6.2278    2.6036    0.0302 C   0  0  0  0  0  0  0  0  0  0  0  0
    8.4624    2.4936   -1.0437 C   0  0  0  0  0  0  0  0  0  0  0  0
    8.8666    1.8365    0.0842 F   0  0  0  0  0  0  0  0  0  0  0  0
    8.7881    3.8189   -0.9951 F   0  0  0  0  0  0  0  0  0  0  0  0
    9.0124    1.8420   -2.1524 F   0  0  0  0  0  0  0  0  0  0  0  0
   -3.3831    1.0568   -0.1756 C   0  0  0  0  0  0  0  0  0  0  0  0
   -3.8270   -0.2828   -0.2817 C   0  0  0  0  0  0  0  0  0  0  0  0
   -4.0378    2.0111   -1.0659 C   0  0  0  0  0  0  0  0  0  0  0  0
   -3.3405    2.7076   -1.9553 F   0  0  0  0  0  0  0  0  0  0  0  0
   -5.0539    1.3131   -1.8324 F   0  0  0  0  0  0  0  0  0  0  0  0
   -4.8451    2.8580   -0.2881 F   0  0  0  0  0  0  0  0  0  0  0  0
   -4.8282   -7.2298   -1.1893 H   0  0  0  0  0  0  0  0  0  0  0  0
   -5.7128   -5.7683   -1.5928 H   0  0  0  0  0  0  0  0  0  0  0  0
   -4.1853   -6.0709   -2.4587 H   0  0  0  0  0  0  0  0  0  0  0  0
   -2.8477   -4.9349   -2.1421 H   0  0  0  0  0  0  0  0  0  0  0  0
   -1.9944   -5.0903   -0.5824 H   0  0  0  0  0  0  0  0  0  0  0  0
   -1.8952   -2.8326   -0.7896 H   0  0  0  0  0  0  0  0  0  0  0  0
   -3.3513   -2.7583   -1.8221 H   0  0  0  0  0  0  0  0  0  0  0  0
   -5.3214   -2.9191    1.4811 H   0  0  0  0  0  0  0  0  0  0  0  0
   -3.8615   -3.8448    1.9608 H   0  0  0  0  0  0  0  0  0  0  0  0
   -5.7184   -4.1781   -0.4764 H   0  0  0  0  0  0  0  0  0  0  0  0
   -5.5776   -5.2735    0.9168 H   0  0  0  0  0  0  0  0  0  0  0  0
   -1.9317   -1.6925    2.1017 H   0  0  0  0  0  0  0  0  0  0  0  0
   -1.1797    0.5389    2.2874 H   0  0  0  0  0  0  0  0  0  0  0  0
   -0.1128    4.0453    0.8686 H   0  0  0  0  0  0  0  0  0  0  0  0
    1.2582    1.9595    5.2024 H   0  0  0  0  0  0  0  0  0  0  0  0
    5.5744    2.2663    2.7076 H   0  0  0  0  0  0  0  0  0  0  0  0
    2.2193    2.9300    0.1078 H   0  0  0  0  0  0  0  0  0  0  0  0
    3.1697    1.9268   -1.2141 H   0  0  0  0  0  0  0  0  0  0  0  0
    4.4805    1.4513   -3.2385 H   0  0  0  0  0  0  0  0  0  0  0  0
    6.9587    1.7124   -3.1690 H   0  0  0  0  0  0  0  0  0  0  0  0
    6.7233    2.9532    0.9620 H   0  0  0  0  0  0  0  0  0  0  0  0
   -4.5945   -0.5355   -1.0193 H   0  0  0  0  0  0  0  0  0  0  0  0
  1  2  1  0
  2  3  1  0
  3  4  1  0
  4  5  1  0
  5  6  1  0
  6  7  1  0
  5  8  1  0
  8  9  2  0
  9 10  1  0
 10 11  2  0
 11 12  1  0
 12 13  2  0
 12 14  1  0
 14 15  1  0
 15 16  2  0
 16 17  1  0
 17 18  1  0
 18 19  2  0
 19 20  1  0
 20 21  2  0
 21 22  1  0
 22 23  2  0
 21 24  1  0
 24 25  2  0
 25 26  1  0
 26 27  2  0
 27 28  1  0
 28 29  2  0
 28 30  1  0
 30 31  1  0
 30 32  1  0
 30 33  1  0
 11 34  1  0
 34 35  2  0
 34 36  1  0
 36 37  1  0
 36 38  1  0
 36 39  1  0
  7  2  1  0
 35  8  1  0
 23 15  1  0
 29 24  1  0
 23 18  1  0
  1 40  1  0
  1 41  1  0
  1 42  1  0
  3 43  1  0
  3 44  1  0
  4 45  1  0
  4 46  1  0
  6 47  1  0
  6 48  1  0
  7 49  1  0
  7 50  1  0
  9 51  1  0
 10 52  1  0
 14 53  1  0
 17 54  1  0
 20 55  1  0
 22 56  1  0
 25 57  1  0
 26 58  1  0
 27 59  1  0
 29 60  1  0
 35 61  1  0
M  END
$$$$
[H]c1c([H])c(C([H])([H])N(C([H])([H])[H])C([H])([H])[H])c([H])c([H])c1N([H])c1nc([H])c2c(=O)c(C([H])(C([H])([H])[H])C([H])([H])[H])c([H])n(-c3c([H])c([H])c4c(c3[H])C([H])([H])C([H])([H])C4([H])[H])c2n1
     RDKit          3D

 65 69  0  0  0  0  0  0  0  0999 V2000
   -5.4228    3.9892    0.7122 C   0  0  0  0  0  0  0  0  0  0  0  0
   -3.9851    4.4309    0.5122 C   0  0  0  0  0  0  0  0  0  0  0  0
   -3.8408    5.3524   -0.6712 C   0  0  0  0  0  0  0  0  0  0  0  0
   -3.1106    3.2338    0.4081 C   0  0  0  0  0  0  0  0  0  0  0  0
   -3.5731    1.9407    0.4832 C   0  0  0  0  0  0  0  0  0  0  0  0
   -2.7874    0.8542    0.3896 N   0  0  0  0  0  0  0  0  0  0  0  0
   -3.3203   -0.4737    0.4745 C   0  0  0  0  0  0  0  0  0  0  0  0
   -3.1681   -1.2155    1.6295 C   0  0  0  0  0  0  0  0  0  0  0  0
   -3.6707   -2.4885    1.7310 C   0  0  0  0  0  0  0  0  0  0  0  0
   -4.3482   -3.0813    0.6860 C   0  0  0  0  0  0  0  0  0  0  0  0
   -4.9794   -4.4209    0.5409 C   0  0  0  0  0  0  0  0  0  0  0  0
   -5.9805   -4.1949   -0.5539 C   0  0  0  0  0  0  0  0  0  0  0  0
   -5.2617   -3.1976   -1.4411 C   0  0  0  0  0  0  0  0  0  0  0  0
   -4.5016   -2.3430   -0.4683 C   0  0  0  0  0  0  0  0  0  0  0  0
   -3.9948   -1.0635   -0.5661 C   0  0  0  0  0  0  0  0  0  0  0  0
   -1.4386    0.9765    0.2085 C   0  0  0  0  0  0  0  0  0  0  0  0
   -0.6608   -0.1143    0.1160 N   0  0  0  0  0  0  0  0  0  0  0  0
    0.6833    0.0904   -0.0653 C   0  0  0  0  0  0  0  0  0  0  0  0
    1.5605   -1.0059   -0.1501 N   0  0  0  0  0  0  0  0  0  0  0  0
    2.9494   -1.0224   -0.3457 C   0  0  0  0  0  0  0  0  0  0  0  0
    3.6594   -2.1713    0.0338 C   0  0  0  0  0  0  0  0  0  0  0  0
    5.0136   -2.2730   -0.1426 C   0  0  0  0  0  0  0  0  0  0  0  0
    5.7614   -1.2592   -0.7009 C   0  0  0  0  0  0  0  0  0  0  0  0
    7.2333   -1.3885   -0.8846 C   0  0  0  0  0  0  0  0  0  0  0  0
    7.9514   -0.9478    0.2999 N   0  0  0  0  0  0  0  0  0  0  0  0
    9.3835   -1.0765    0.1221 C   0  0  0  0  0  0  0  0  0  0  0  0
    7.6586    0.4405    0.6050 C   0  0  0  0  0  0  0  0  0  0  0  0
    5.0817   -0.1268   -1.0787 C   0  0  0  0  0  0  0  0  0  0  0  0
    3.7021   -0.0151   -0.9029 C   0  0  0  0  0  0  0  0  0  0  0  0
    1.1618    1.3358   -0.1421 N   0  0  0  0  0  0  0  0  0  0  0  0
    0.4340    2.4356   -0.0564 C   0  0  0  0  0  0  0  0  0  0  0  0
   -0.9349    2.2585    0.1280 C   0  0  0  0  0  0  0  0  0  0  0  0
   -1.7448    3.3738    0.2245 C   0  0  0  0  0  0  0  0  0  0  0  0
   -1.2751    4.5419    0.1497 O   0  0  0  0  0  0  0  0  0  0  0  0
   -5.7949    3.4181   -0.1643 H   0  0  0  0  0  0  0  0  0  0  0  0
   -6.0839    4.8391    0.9630 H   0  0  0  0  0  0  0  0  0  0  0  0
   -5.4082    3.3508    1.6437 H   0  0  0  0  0  0  0  0  0  0  0  0
   -3.6945    5.0180    1.4126 H   0  0  0  0  0  0  0  0  0  0  0  0
   -3.0816    6.1504   -0.5041 H   0  0  0  0  0  0  0  0  0  0  0  0
   -3.5710    4.8220   -1.5996 H   0  0  0  0  0  0  0  0  0  0  0  0
   -4.7936    5.9022   -0.8905 H   0  0  0  0  0  0  0  0  0  0  0  0
   -4.6331    1.7624    0.6263 H   0  0  0  0  0  0  0  0  0  0  0  0
   -2.6389   -0.7677    2.4615 H   0  0  0  0  0  0  0  0  0  0  0  0
   -3.5228   -3.0248    2.6592 H   0  0  0  0  0  0  0  0  0  0  0  0
   -4.2344   -5.1918    0.2355 H   0  0  0  0  0  0  0  0  0  0  0  0
   -5.4670   -4.7534    1.4677 H   0  0  0  0  0  0  0  0  0  0  0  0
   -6.9015   -3.7363   -0.1788 H   0  0  0  0  0  0  0  0  0  0  0  0
   -6.2452   -5.1208   -1.1014 H   0  0  0  0  0  0  0  0  0  0  0  0
   -5.9692   -2.5650   -1.9852 H   0  0  0  0  0  0  0  0  0  0  0  0
   -4.5650   -3.7636   -2.0921 H   0  0  0  0  0  0  0  0  0  0  0  0
   -4.1322   -0.5143   -1.4823 H   0  0  0  0  0  0  0  0  0  0  0  0
    1.0887   -1.9618   -0.0568 H   0  0  0  0  0  0  0  0  0  0  0  0
    3.0763   -2.9851    0.4810 H   0  0  0  0  0  0  0  0  0  0  0  0
    5.5454   -3.1743    0.1592 H   0  0  0  0  0  0  0  0  0  0  0  0
    7.4636   -2.4302   -1.1369 H   0  0  0  0  0  0  0  0  0  0  0  0
    7.5336   -0.7711   -1.7674 H   0  0  0  0  0  0  0  0  0  0  0  0
    9.8339   -0.1139   -0.2553 H   0  0  0  0  0  0  0  0  0  0  0  0
    9.6550   -1.9082   -0.5665 H   0  0  0  0  0  0  0  0  0  0  0  0
    9.8683   -1.3160    1.1031 H   0  0  0  0  0  0  0  0  0  0  0  0
    8.4121    0.8446    1.3225 H   0  0  0  0  0  0  0  0  0  0  0  0
    7.6678    1.0637   -0.3233 H   0  0  0  0  0  0  0  0  0  0  0  0
    6.6327    0.4955    1.0116 H   0  0  0  0  0  0  0  0  0  0  0  0
    5.6259    0.7072   -1.5270 H   0  0  0  0  0  0  0  0  0  0  0  0
    3.2528    0.9065   -1.2437 H   0  0  0  0  0  0  0  0  0  0  0  0
    0.8456    3.4433   -0.1217 H   0  0  0  0  0  0  0  0  0  0  0  0
  1  2  1  0
  2  3  1  0
  2  4  1  0
  4  5  2  0
  5  6  1  0
  6  7  1  0
  7  8  2  0
  8  9  1  0
  9 10  2  0
 10 11  1  0
 11 12  1  0
 12 13  1  0
 13 14  1  0
 14 15  2  0
  6 16  1  0
 16 17  2  0
 17 18  1  0
 18 19  1  0
 19 20  1  0
 20 21  2  0
 21 22  1  0
 22 23  2  0
 23 24  1  0
 24 25  1  0
 25 26  1  0
 25 27  1  0
 23 28  1  0
 28 29  2  0
 18 30  2  0
 30 31  1  0
 31 32  2  0
 32 33  1  0
 33 34  2  0
 33  4  1  0
 15  7  1  0
 32 16  1  0
 14 10  1  0
 29 20  1  0
  1 35  1  0
  1 36  1  0
  1 37  1  0
  2 38  1  0
  3 39  1  0
  3 40  1  0
  3 41  1  0
  5 42  1  0
  8 43  1  0
  9 44  1  0
 11 45  1  0
 11 46  1  0
 12 47  1  0
 12 48  1  0
 13 49  1  0
 13 50  1  0
 15 51  1  0
 19 52  1  0
 21 53  1  0
 22 54  1  0
 24 55  1  0
 24 56  1  0
 26 57  1  0
 26 58  1  0
 26 59  1  0
 27 60  1  0
 27 61  1  0
 27 62  1  0
 28 63  1  0
 29 64  1  0
 31 65  1  0
M  END
$$$$
[H]c1c([H])c(OC([H])([H])C([H])([H])c2c([H])c(N([H])C(=O)C(C(=O)C(=O)N([H])C3(C(=O)N([H])C([H])([H])[H])C([H])([H])C(F)(F)C3([H])[H])(C([H])([H])[H])C([H])([H])[H])c([H])c([H])c2OC([H])([H])[H])c([H])c([H])c1F
     RDKit          3D

 69 71  0  0  0  0  0  0  0  0999 V2000
   -8.7494   -1.8211    0.1769 C   0  0  0  0  0  0  0  0  0  0  0  0
   -7.9170   -1.0358    1.0545 N   0  0  0  0  0  0  0  0  0  0  0  0
   -6.5077   -0.8983    0.8900 C   0  0  0  0  0  0  0  0  0  0  0  0
   -5.9744   -1.4912   -0.0662 O   0  0  0  0  0  0  0  0  0  0  0  0
   -5.7010   -0.0859    1.8132 C   0  0  0  0  0  0  0  0  0  0  0  0
   -6.2902    1.2889    2.0838 C   0  0  0  0  0  0  0  0  0  0  0  0
   -6.2479    1.0397    3.5555 C   0  0  0  0  0  0  0  0  0  0  0  0
   -7.4509    1.2705    4.2161 F   0  0  0  0  0  0  0  0  0  0  0  0
   -5.1819    1.6943    4.1790 F   0  0  0  0  0  0  0  0  0  0  0  0
   -5.9694   -0.4184    3.2673 C   0  0  0  0  0  0  0  0  0  0  0  0
   -4.3222   -0.0433    1.4416 N   0  0  0  0  0  0  0  0  0  0  0  0
   -3.9141    0.5355    0.2228 C   0  0  0  0  0  0  0  0  0  0  0  0
   -4.7944    1.0214   -0.5306 O   0  0  0  0  0  0  0  0  0  0  0  0
   -2.4964    0.5718   -0.1591 C   0  0  0  0  0  0  0  0  0  0  0  0
   -1.6493    0.0747    0.6274 O   0  0  0  0  0  0  0  0  0  0  0  0
   -2.1299    1.1874   -1.4450 C   0  0  0  0  0  0  0  0  0  0  0  0
   -2.7794    0.4788   -2.6193 C   0  0  0  0  0  0  0  0  0  0  0  0
   -2.5155    2.6387   -1.5042 C   0  0  0  0  0  0  0  0  0  0  0  0
   -0.6225    1.0960   -1.6457 C   0  0  0  0  0  0  0  0  0  0  0  0
    0.0136    2.1646   -1.7822 O   0  0  0  0  0  0  0  0  0  0  0  0
    0.0111   -0.1507   -1.6738 N   0  0  0  0  0  0  0  0  0  0  0  0
    1.3775   -0.4432   -1.8425 C   0  0  0  0  0  0  0  0  0  0  0  0
    1.7837   -1.7709   -2.0708 C   0  0  0  0  0  0  0  0  0  0  0  0
    3.0888   -2.1142   -2.2293 C   0  0  0  0  0  0  0  0  0  0  0  0
    4.0596   -1.1236   -2.1650 C   0  0  0  0  0  0  0  0  0  0  0  0
    5.3911   -1.4759   -2.3312 O   0  0  0  0  0  0  0  0  0  0  0  0
    5.7571   -2.8011   -2.5564 C   0  0  0  0  0  0  0  0  0  0  0  0
    3.7477    0.1866   -1.9462 C   0  0  0  0  0  0  0  0  0  0  0  0
    4.7601    1.2638   -1.8478 C   0  0  0  0  0  0  0  0  0  0  0  0
    5.4325    1.3713   -0.5290 C   0  0  0  0  0  0  0  0  0  0  0  0
    6.1007    0.1986   -0.2063 O   0  0  0  0  0  0  0  0  0  0  0  0
    6.7932    0.0987    0.9896 C   0  0  0  0  0  0  0  0  0  0  0  0
    6.8348    1.1516    1.8766 C   0  0  0  0  0  0  0  0  0  0  0  0
    7.5188    1.0717    3.0737 C   0  0  0  0  0  0  0  0  0  0  0  0
    8.1895   -0.0956    3.4088 C   0  0  0  0  0  0  0  0  0  0  0  0
    8.8688   -0.1793    4.5957 F   0  0  0  0  0  0  0  0  0  0  0  0
    8.1685   -1.1689    2.5433 C   0  0  0  0  0  0  0  0  0  0  0  0
    7.4711   -1.0520    1.3506 C   0  0  0  0  0  0  0  0  0  0  0  0
    2.3836    0.4943   -1.7879 C   0  0  0  0  0  0  0  0  0  0  0  0
   -9.4149   -2.5150    0.7395 H   0  0  0  0  0  0  0  0  0  0  0  0
   -9.4421   -1.1737   -0.4179 H   0  0  0  0  0  0  0  0  0  0  0  0
   -8.1330   -2.3755   -0.5767 H   0  0  0  0  0  0  0  0  0  0  0  0
   -8.3872   -0.5487    1.8471 H   0  0  0  0  0  0  0  0  0  0  0  0
   -5.6373    2.1288    1.7514 H   0  0  0  0  0  0  0  0  0  0  0  0
   -7.3114    1.4323    1.6972 H   0  0  0  0  0  0  0  0  0  0  0  0
   -6.8962   -1.0285    3.4186 H   0  0  0  0  0  0  0  0  0  0  0  0
   -5.1275   -0.8299    3.8336 H   0  0  0  0  0  0  0  0  0  0  0  0
   -3.5923   -0.4417    2.0689 H   0  0  0  0  0  0  0  0  0  0  0  0
   -3.1859    1.1910   -3.3481 H   0  0  0  0  0  0  0  0  0  0  0  0
   -3.5916   -0.2140   -2.2927 H   0  0  0  0  0  0  0  0  0  0  0  0
   -2.0233   -0.1915   -3.1205 H   0  0  0  0  0  0  0  0  0  0  0  0
   -3.4561    2.8157   -2.0579 H   0  0  0  0  0  0  0  0  0  0  0  0
   -1.6853    3.2775   -1.8465 H   0  0  0  0  0  0  0  0  0  0  0  0
   -2.7352    2.9735   -0.4466 H   0  0  0  0  0  0  0  0  0  0  0  0
   -0.6262   -1.0040   -1.5451 H   0  0  0  0  0  0  0  0  0  0  0  0
    0.9987   -2.5017   -2.1135 H   0  0  0  0  0  0  0  0  0  0  0  0
    3.4023   -3.1526   -2.4067 H   0  0  0  0  0  0  0  0  0  0  0  0
    6.8653   -2.9080   -2.5182 H   0  0  0  0  0  0  0  0  0  0  0  0
    5.3247   -3.1409   -3.5072 H   0  0  0  0  0  0  0  0  0  0  0  0
    5.3453   -3.4233   -1.7245 H   0  0  0  0  0  0  0  0  0  0  0  0
    5.5019    1.1493   -2.6667 H   0  0  0  0  0  0  0  0  0  0  0  0
    4.2493    2.2465   -2.0711 H   0  0  0  0  0  0  0  0  0  0  0  0
    6.1770    2.2126   -0.5798 H   0  0  0  0  0  0  0  0  0  0  0  0
    4.7164    1.6978    0.2604 H   0  0  0  0  0  0  0  0  0  0  0  0
    6.2965    2.0626    1.5870 H   0  0  0  0  0  0  0  0  0  0  0  0
    7.5250    1.9199    3.7376 H   0  0  0  0  0  0  0  0  0  0  0  0
    8.6980   -2.0659    2.8242 H   0  0  0  0  0  0  0  0  0  0  0  0
    7.4337   -1.8676    0.6524 H   0  0  0  0  0  0  0  0  0  0  0  0
    2.1729    1.5454   -1.6060 H   0  0  0  0  0  0  0  0  0  0  0  0
  1  2  1  0
  2  3  1  0
  3  4  2  0
  3  5  1  0
  5  6  1  0
  6  7  1  0
  7  8  1  0
  7  9  1  0
  7 10  1  0
  5 11  1  0
 11 12  1  0
 12 13  2  0
 12 14  1  0
 14 15  2  0
 14 16  1  0
 16 17  1  0
 16 18  1  0
 16 19  1  0
 19 20  2  0
 19 21  1  0
 21 22  1  0
 22 23  2  0
 23 24  1  0
 24 25  2  0
 25 26  1  0
 26 27  1  0
 25 28  1  0
 28 29  1  0
 29 30  1  0
 30 31  1  0
 31 32  1  0
 32 33  2  0
 33 34  1  0
 34 35  2  0
 35 36  1  0
 35 37  1  0
 37 38  2  0
 28 39  2  0
 10  5  1  0
 39 22  1  0
 38 32  1  0
  1 40  1  0
  1 41  1  0
  1 42  1  0
  2 43  1  0
  6 44  1  0
  6 45  1  0
 10 46  1  0
 10 47  1  0
 11 48  1  0
 17 49  1  0
 17 50  1  0
 17 51  1  0
 18 52  1  0
 18 53  1  0
 18 54  1  0
 21 55  1  0
 23 56  1  0
 24 57  1  0
 27 58  1  0
 27 59  1  0
 27 60  1  0
 29 61  1  0
 29 62  1  0
 30 63  1  0
 30 64  1  0
 33 65  1  0
 34 66  1  0
 37 67  1  0
 38 68  1  0
 39 69  1  0
M  END
$$$$
[H]c1nc(Cl)c([H])c([H])c1C1([H])C([H])([H])C2([H])N([H])C1([H])C([H])([H])C2([H])[H]
     RDKit          3D

 27 29  0  0  0  0  0  0  0  0999 V2000
    5.6758    0.8831    0.6925 Cl  0  0  0  0  0  0  0  0  0  0  0  0
    3.9284    0.7936    0.5502 C   0  0  0  0  0  0  0  0  0  0  0  0
    3.3682   -0.3421    0.0489 C   0  0  0  0  0  0  0  0  0  0  0  0
    1.9797   -0.4088   -0.0624 C   0  0  0  0  0  0  0  0  0  0  0  0
    1.1786    0.6415    0.3216 C   0  0  0  0  0  0  0  0  0  0  0  0
    1.8046    1.7602    0.8199 C   0  0  0  0  0  0  0  0  0  0  0  0
    3.1501    1.8475    0.9370 N   0  0  0  0  0  0  0  0  0  0  0  0
   -0.2843    0.5958    0.2146 C   0  0  0  0  0  0  0  0  0  0  0  0
   -0.7539    0.3074   -1.2126 C   0  0  0  0  0  0  0  0  0  0  0  0
   -1.6567   -0.8927   -1.0415 C   0  0  0  0  0  0  0  0  0  0  0  0
   -2.8937   -0.4617   -0.3307 C   0  0  0  0  0  0  0  0  0  0  0  0
   -2.4018   -0.2047    1.1022 C   0  0  0  0  0  0  0  0  0  0  0  0
   -0.9243   -0.5017    1.0105 C   0  0  0  0  0  0  0  0  0  0  0  0
   -0.9470   -1.6023    0.0387 N   0  0  0  0  0  0  0  0  0  0  0  0
    3.9997   -1.1590   -0.2492 H   0  0  0  0  0  0  0  0  0  0  0  0
    1.5788   -1.3076   -0.4566 H   0  0  0  0  0  0  0  0  0  0  0  0
    1.2479    2.6363    1.1469 H   0  0  0  0  0  0  0  0  0  0  0  0
   -0.7424    1.5560    0.5785 H   0  0  0  0  0  0  0  0  0  0  0  0
   -1.3094    1.1920   -1.5708 H   0  0  0  0  0  0  0  0  0  0  0  0
    0.1394    0.0893   -1.8248 H   0  0  0  0  0  0  0  0  0  0  0  0
   -1.7910   -1.4927   -1.9267 H   0  0  0  0  0  0  0  0  0  0  0  0
   -3.6114   -1.3074   -0.3475 H   0  0  0  0  0  0  0  0  0  0  0  0
   -3.2916    0.4499   -0.7888 H   0  0  0  0  0  0  0  0  0  0  0  0
   -2.9334   -0.8445    1.8126 H   0  0  0  0  0  0  0  0  0  0  0  0
   -2.5174    0.8731    1.2946 H   0  0  0  0  0  0  0  0  0  0  0  0
   -0.4460   -0.7545    1.9421 H   0  0  0  0  0  0  0  0  0  0  0  0
   -1.5468   -2.3461    0.4567 H   0  0  0  0  0  0  0  0  0  0  0  0
  1  2  1  0
  2  3  2  0
  3  4  1  0
  4  5  2  0
  5  6  1  0
  6  7  2  0
  5  8  1  0
  8  9  1  0
  9 10  1  0
 10 11  1  0
 11 12  1  0
 12 13  1  0
 13 14  1  0
  7  2  1  0
 13  8  1  0
 14 10  1  0
  3 15  1  0
  4 16  1  0
  6 17  1  0
  8 18  1  0
  9 19  1  0
  9 20  1  0
 10 21  1  0
 11 22  1  0
 11 23  1  0
 12 24  1  0
 12 25  1  0
 13 26  1  0
 14 27  1  0
M  END
$$$$
[H]c1c(C([H])([H])[H])nc(-c2c([H])c(OC([H])([H])C([H])([H])N([H])C(=O)C([H])(N([H])[H])C([H])([H])[H])c([H])c([H])c2Cl)nc1C([H])([H])[H]
     RDKit          3D

 45 46  0  0  0  0  0  0  0  0999 V2000
    7.5121   -1.0296   -0.0769 C   0  0  0  0  0  0  0  0  0  0  0  0
    6.6423    0.1950   -0.2343 C   0  0  0  0  0  0  0  0  0  0  0  0
    7.1258    1.2172    0.6457 N   0  0  0  0  0  0  0  0  0  0  0  0
    5.2350   -0.2034    0.0797 C   0  0  0  0  0  0  0  0  0  0  0  0
    4.7519   -1.0964   -0.6562 O   0  0  0  0  0  0  0  0  0  0  0  0
    4.5038    0.3864    1.1319 N   0  0  0  0  0  0  0  0  0  0  0  0
    3.1570    0.0851    1.5168 C   0  0  0  0  0  0  0  0  0  0  0  0
    2.2238    0.3732    0.3927 C   0  0  0  0  0  0  0  0  0  0  0  0
    0.8687    0.0932    0.7229 O   0  0  0  0  0  0  0  0  0  0  0  0
   -0.0911    0.3225   -0.2449 C   0  0  0  0  0  0  0  0  0  0  0  0
    0.1864    0.8069   -1.5127 C   0  0  0  0  0  0  0  0  0  0  0  0
   -0.7949    1.0224   -2.4488 C   0  0  0  0  0  0  0  0  0  0  0  0
   -2.1211    0.7405   -2.1038 C   0  0  0  0  0  0  0  0  0  0  0  0
   -3.4428    0.9812   -3.2255 Cl  0  0  0  0  0  0  0  0  0  0  0  0
   -2.4245    0.2586   -0.8519 C   0  0  0  0  0  0  0  0  0  0  0  0
   -1.4168    0.0569    0.0545 C   0  0  0  0  0  0  0  0  0  0  0  0
   -3.8033   -0.0331   -0.4970 C   0  0  0  0  0  0  0  0  0  0  0  0
   -4.1116   -0.5080    0.7339 N   0  0  0  0  0  0  0  0  0  0  0  0
   -5.3771   -0.7817    1.0764 C   0  0  0  0  0  0  0  0  0  0  0  0
   -5.6542   -1.3020    2.4451 C   0  0  0  0  0  0  0  0  0  0  0  0
   -6.4148   -0.5913    0.1915 C   0  0  0  0  0  0  0  0  0  0  0  0
   -6.0959   -0.1057   -1.0657 C   0  0  0  0  0  0  0  0  0  0  0  0
   -7.1898    0.1252   -2.0833 C   0  0  0  0  0  0  0  0  0  0  0  0
   -4.8185    0.1505   -1.3551 N   0  0  0  0  0  0  0  0  0  0  0  0
    7.0796   -1.7718    0.6248 H   0  0  0  0  0  0  0  0  0  0  0  0
    8.4982   -0.7350    0.3419 H   0  0  0  0  0  0  0  0  0  0  0  0
    7.6384   -1.5308   -1.0420 H   0  0  0  0  0  0  0  0  0  0  0  0
    6.7151    0.5774   -1.2750 H   0  0  0  0  0  0  0  0  0  0  0  0
    6.5321    2.0522    0.7049 H   0  0  0  0  0  0  0  0  0  0  0  0
    7.2728    0.8045    1.5863 H   0  0  0  0  0  0  0  0  0  0  0  0
    4.9989    1.1318    1.7005 H   0  0  0  0  0  0  0  0  0  0  0  0
    3.0752   -1.0187    1.7292 H   0  0  0  0  0  0  0  0  0  0  0  0
    2.8631    0.5667    2.4708 H   0  0  0  0  0  0  0  0  0  0  0  0
    2.4958   -0.2469   -0.4808 H   0  0  0  0  0  0  0  0  0  0  0  0
    2.2926    1.4400    0.0916 H   0  0  0  0  0  0  0  0  0  0  0  0
    1.2423    1.0091   -1.7250 H   0  0  0  0  0  0  0  0  0  0  0  0
   -0.5731    1.3948   -3.4207 H   0  0  0  0  0  0  0  0  0  0  0  0
   -1.6445   -0.3238    1.0474 H   0  0  0  0  0  0  0  0  0  0  0  0
   -5.7464   -2.4016    2.3715 H   0  0  0  0  0  0  0  0  0  0  0  0
   -6.6352   -0.9152    2.7910 H   0  0  0  0  0  0  0  0  0  0  0  0
   -4.8823   -1.0002    3.1751 H   0  0  0  0  0  0  0  0  0  0  0  0
   -7.4481   -0.8019    0.4350 H   0  0  0  0  0  0  0  0  0  0  0  0
   -7.5950    1.1526   -1.9419 H   0  0  0  0  0  0  0  0  0  0  0  0
   -7.9357   -0.6654   -1.9503 H   0  0  0  0  0  0  0  0  0  0  0  0
   -6.6939    0.1189   -3.0670 H   0  0  0  0  0  0  0  0  0  0  0  0
  1  2  1  0
  2  3  1  0
  2  4  1  0
  4  5  2  0
  4  6  1  0
  6  7  1  0
  7  8  1  0
  8  9  1  0
  9 10  1  0
 10 11  2  0
 11 12  1  0
 12 13  2  0
 13 14  1  0
 13 15  1  0
 15 16  2  0
 15 17  1  0
 17 18  2  0
 18 19  1  0
 19 20  1  0
 19 21  2  0
 21 22  1  0
 22 23  1  0
 22 24  2  0
 16 10  1  0
 24 17  1  0
  1 25  1  0
  1 26  1  0
  1 27  1  0
  2 28  1  0
  3 29  1  0
  3 30  1  0
  6 31  1  0
  7 32  1  0
  7 33  1  0
  8 34  1  0
  8 35  1  0
 11 36  1  0
 12 37  1  0
 16 38  1  0
 20 39  1  0
 20 40  1  0
 20 41  1  0
 21 42  1  0
 23 43  1  0
 23 44  1  0
 23 45  1  0
M  END
$$$$
[H]c1nc([H])c2sc(C(=O)N([H])C([H])([H])[H])c([H])c2c1Oc1c([H])c([H])c(N([H])C(=O)c2c(C([H])([H])[H])nn(C([H])([H])[H])c2C([H])([H])[H])c([H])c1Cl
     RDKit          3D

 52 55  0  0  0  0  0  0  0  0999 V2000
    4.8768    3.5670    0.9192 C   0  0  0  0  0  0  0  0  0  0  0  0
    4.6946    2.1410    0.6775 N   0  0  0  0  0  0  0  0  0  0  0  0
    5.4639    1.2346    1.4068 C   0  0  0  0  0  0  0  0  0  0  0  0
    6.2955    1.5770    2.2507 O   0  0  0  0  0  0  0  0  0  0  0  0
    5.2871   -0.2094    1.1698 C   0  0  0  0  0  0  0  0  0  0  0  0
    4.4350   -0.8222    0.2941 C   0  0  0  0  0  0  0  0  0  0  0  0
    4.4438   -2.1678    0.2474 C   0  0  0  0  0  0  0  0  0  0  0  0
    3.6761   -3.0144   -0.5749 C   0  0  0  0  0  0  0  0  0  0  0  0
    2.7559   -2.5424   -1.4773 O   0  0  0  0  0  0  0  0  0  0  0  0
    1.5853   -1.8928   -1.1561 C   0  0  0  0  0  0  0  0  0  0  0  0
    1.1577   -1.7210    0.1583 C   0  0  0  0  0  0  0  0  0  0  0  0
   -0.0124   -1.0650    0.4121 C   0  0  0  0  0  0  0  0  0  0  0  0
   -0.7744   -0.5705   -0.6511 C   0  0  0  0  0  0  0  0  0  0  0  0
   -1.9792    0.1343   -0.2841 N   0  0  0  0  0  0  0  0  0  0  0  0
   -3.1614    0.1029   -1.0364 C   0  0  0  0  0  0  0  0  0  0  0  0
   -3.0988   -0.6305   -2.0976 O   0  0  0  0  0  0  0  0  0  0  0  0
   -4.4085    0.7854   -0.7577 C   0  0  0  0  0  0  0  0  0  0  0  0
   -5.5300    0.6406   -1.5873 C   0  0  0  0  0  0  0  0  0  0  0  0
   -5.6557   -0.1752   -2.8143 C   0  0  0  0  0  0  0  0  0  0  0  0
   -6.4876    1.3923   -1.0539 N   0  0  0  0  0  0  0  0  0  0  0  0
   -6.0729    1.9918    0.0272 N   0  0  0  0  0  0  0  0  0  0  0  0
   -6.8268    2.8991    0.8945 C   0  0  0  0  0  0  0  0  0  0  0  0
   -4.7796    1.6335    0.2386 C   0  0  0  0  0  0  0  0  0  0  0  0
   -3.9544    2.1119    1.3714 C   0  0  0  0  0  0  0  0  0  0  0  0
   -0.3537   -0.7392   -1.9423 C   0  0  0  0  0  0  0  0  0  0  0  0
    0.8240   -1.3996   -2.1964 C   0  0  0  0  0  0  0  0  0  0  0  0
    1.2982   -1.5787   -3.8785 Cl  0  0  0  0  0  0  0  0  0  0  0  0
    3.8314   -4.3777   -0.5001 C   0  0  0  0  0  0  0  0  0  0  0  0
    4.6791   -4.9903    0.3180 N   0  0  0  0  0  0  0  0  0  0  0  0
    5.4281   -4.2144    1.1197 C   0  0  0  0  0  0  0  0  0  0  0  0
    5.3127   -2.8115    1.0858 C   0  0  0  0  0  0  0  0  0  0  0  0
    6.0825   -1.5239    1.9081 S   0  0  0  0  0  0  0  0  0  0  0  0
    4.6726    3.7775    2.0003 H   0  0  0  0  0  0  0  0  0  0  0  0
    4.1680    4.1890    0.3526 H   0  0  0  0  0  0  0  0  0  0  0  0
    5.8939    3.8500    0.6114 H   0  0  0  0  0  0  0  0  0  0  0  0
    3.9856    1.8778   -0.0410 H   0  0  0  0  0  0  0  0  0  0  0  0
    3.7804   -0.1852   -0.3467 H   0  0  0  0  0  0  0  0  0  0  0  0
    1.7458   -2.1192    0.9899 H   0  0  0  0  0  0  0  0  0  0  0  0
   -0.3677   -0.9184    1.4463 H   0  0  0  0  0  0  0  0  0  0  0  0
   -1.8945    0.6775    0.5956 H   0  0  0  0  0  0  0  0  0  0  0  0
   -4.9080    0.1252   -3.5916 H   0  0  0  0  0  0  0  0  0  0  0  0
   -5.5883   -1.2725   -2.6040 H   0  0  0  0  0  0  0  0  0  0  0  0
   -6.6463   -0.0118   -3.2809 H   0  0  0  0  0  0  0  0  0  0  0  0
   -7.1836    2.3876    1.7991 H   0  0  0  0  0  0  0  0  0  0  0  0
   -6.2003    3.7762    1.1504 H   0  0  0  0  0  0  0  0  0  0  0  0
   -7.6843    3.2841    0.2688 H   0  0  0  0  0  0  0  0  0  0  0  0
   -4.5177    2.8737    1.9717 H   0  0  0  0  0  0  0  0  0  0  0  0
   -3.6617    1.2504    1.9763 H   0  0  0  0  0  0  0  0  0  0  0  0
   -3.0484    2.6324    1.0182 H   0  0  0  0  0  0  0  0  0  0  0  0
   -0.9440   -0.3302   -2.7686 H   0  0  0  0  0  0  0  0  0  0  0  0
    3.2215   -5.0320   -1.1543 H   0  0  0  0  0  0  0  0  0  0  0  0
    6.1447   -4.5971    1.8202 H   0  0  0  0  0  0  0  0  0  0  0  0
  1  2  1  0
  2  3  1  0
  3  4  2  0
  3  5  1  0
  5  6  2  0
  6  7  1  0
  7  8  2  0
  8  9  1  0
  9 10  1  0
 10 11  2  0
 11 12  1  0
 12 13  2  0
 13 14  1  0
 14 15  1  0
 15 16  2  0
 15 17  1  0
 17 18  1  0
 18 19  1  0
 18 20  2  0
 20 21  1  0
 21 22  1  0
 21 23  1  0
 23 24  1  0
 13 25  1  0
 25 26  2  0
 26 27  1  0
  8 28  1  0
 28 29  2  0
 29 30  1  0
 30 31  2  0
 31 32  1  0
 32  5  1  0
 31  7  1  0
 26 10  1  0
 23 17  2  0
  1 33  1  0
  1 34  1  0
  1 35  1  0
  2 36  1  0
  6 37  1  0
 11 38  1  0
 12 39  1  0
 14 40  1  0
 19 41  1  0
 19 42  1  0
 19 43  1  0
 22 44  1  0
 22 45  1  0
 22 46  1  0
 24 47  1  0
 24 48  1  0
 24 49  1  0
 25 50  1  0
 28 51  1  0
 30 52  1  0
M  END
$$$$
[H]c1nc(C(=O)N([H])[C@@]([H])(C(=O)N2C([H])([H])C([H])([H])C([H])([H])[C@]2([H])C(=O)N([H])[C@@]([H])(C(=O)N([H])[H])C([H])([H])C([H])(C([H])([H])[H])C([H])([H])[H])C([H])([H])c2c([H])c([H])c([H])c([H])c2[H])c([H])c([H])c1[H]
     RDKit          3D

 68 70  0  0  0  0  0  0  0  0999 V2000
    6.0627    2.0549   -0.5078 C   0  0  0  0  0  0  0  0  0  0  0  0
    5.9556    0.7985    0.2671 C   0  0  0  0  0  0  0  0  0  0  0  0
    7.0563    0.8532    1.3377 C   0  0  0  0  0  0  0  0  0  0  0  0
    5.8766   -0.5414   -0.3100 C   0  0  0  0  0  0  0  0  0  0  0  0
    4.6225   -0.7471   -1.2372 C   0  0  1  0  0  0  0  0  0  0  0  0
    3.5245   -0.3315   -0.3557 N   0  0  0  0  0  0  0  0  0  0  0  0
    2.5780   -1.2174    0.2207 C   0  0  0  0  0  0  0  0  0  0  0  0
    2.6719   -2.4374   -0.1205 O   0  0  0  0  0  0  0  0  0  0  0  0
    1.5943   -0.8027    1.1304 C   0  0  1  0  0  0  0  0  0  0  0  0
    1.6975    0.5553    1.7932 C   0  0  0  0  0  0  0  0  0  0  0  0
    0.5362    0.4274    2.7899 C   0  0  0  0  0  0  0  0  0  0  0  0
   -0.1521   -0.9244    2.4323 C   0  0  0  0  0  0  0  0  0  0  0  0
    0.1693   -0.8620    0.9492 N   0  0  0  0  0  0  0  0  0  0  0  0
   -0.7303   -0.6277   -0.0535 C   0  0  0  0  0  0  0  0  0  0  0  0
   -0.2935    0.0450   -1.0698 O   0  0  0  0  0  0  0  0  0  0  0  0
   -2.1763   -1.0053   -0.1985 C   0  0  1  0  0  0  0  0  0  0  0  0
   -2.6776   -2.0444    0.7220 C   0  0  0  0  0  0  0  0  0  0  0  0
   -4.0761   -2.5150    0.4499 C   0  0  0  0  0  0  0  0  0  0  0  0
   -5.2153   -2.0177    1.0107 C   0  0  0  0  0  0  0  0  0  0  0  0
   -6.4683   -2.4702    0.7425 C   0  0  0  0  0  0  0  0  0  0  0  0
   -6.6374   -3.5140   -0.1673 C   0  0  0  0  0  0  0  0  0  0  0  0
   -5.5107   -4.0412   -0.7520 C   0  0  0  0  0  0  0  0  0  0  0  0
   -4.2599   -3.5666   -0.4613 C   0  0  0  0  0  0  0  0  0  0  0  0
   -2.8989    0.2042   -0.3864 N   0  0  0  0  0  0  0  0  0  0  0  0
   -3.8982    0.7243   -1.2219 C   0  0  0  0  0  0  0  0  0  0  0  0
   -4.4390    0.0216   -2.1037 O   0  0  0  0  0  0  0  0  0  0  0  0
   -4.2809    2.1462   -1.0203 C   0  0  0  0  0  0  0  0  0  0  0  0
   -5.3057    2.7445   -1.6451 C   0  0  0  0  0  0  0  0  0  0  0  0
   -5.5705    4.1111   -1.4729 C   0  0  0  0  0  0  0  0  0  0  0  0
   -4.7303    4.7976   -0.6342 C   0  0  0  0  0  0  0  0  0  0  0  0
   -3.6731    4.1577    0.0083 C   0  0  0  0  0  0  0  0  0  0  0  0
   -3.4842    2.8572   -0.2063 N   0  0  0  0  0  0  0  0  0  0  0  0
    4.8040   -0.1955   -2.5254 C   0  0  0  0  0  0  0  0  0  0  0  0
    3.8524   -0.2925   -3.6094 N   0  0  0  0  0  0  0  0  0  0  0  0
    5.8484    0.4587   -2.8473 O   0  0  0  0  0  0  0  0  0  0  0  0
    7.0249    2.2033   -1.0425 H   0  0  0  0  0  0  0  0  0  0  0  0
    5.1721    2.3246   -1.1131 H   0  0  0  0  0  0  0  0  0  0  0  0
    6.0964    2.9410    0.2360 H   0  0  0  0  0  0  0  0  0  0  0  0
    5.0001    0.9297    0.9745 H   0  0  0  0  0  0  0  0  0  0  0  0
    7.3769    1.9177    1.5028 H   0  0  0  0  0  0  0  0  0  0  0  0
    7.9173    0.3092    0.9462 H   0  0  0  0  0  0  0  0  0  0  0  0
    6.7165    0.3959    2.2996 H   0  0  0  0  0  0  0  0  0  0  0  0
    5.8176   -1.2926    0.4872 H   0  0  0  0  0  0  0  0  0  0  0  0
    6.7238   -0.7493   -0.9684 H   0  0  0  0  0  0  0  0  0  0  0  0
    4.5490   -1.8778   -1.2846 H   0  0  0  0  0  0  0  0  0  0  0  0
    3.4529    0.6859   -0.1619 H   0  0  0  0  0  0  0  0  0  0  0  0
    1.8210   -1.4996    2.0985 H   0  0  0  0  0  0  0  0  0  0  0  0
    1.4578    1.3736    1.1063 H   0  0  0  0  0  0  0  0  0  0  0  0
    2.6714    0.7036    2.2922 H   0  0  0  0  0  0  0  0  0  0  0  0
    0.8916    0.4279    3.8064 H   0  0  0  0  0  0  0  0  0  0  0  0
   -0.2379    1.2016    2.5633 H   0  0  0  0  0  0  0  0  0  0  0  0
   -1.1845   -0.7895    2.6573 H   0  0  0  0  0  0  0  0  0  0  0  0
    0.4209   -1.7096    2.8813 H   0  0  0  0  0  0  0  0  0  0  0  0
   -2.2552   -1.5299   -1.2369 H   0  0  0  0  0  0  0  0  0  0  0  0
   -2.8316   -1.5441    1.7362 H   0  0  0  0  0  0  0  0  0  0  0  0
   -2.0218   -2.9076    0.7860 H   0  0  0  0  0  0  0  0  0  0  0  0
   -5.1148   -1.1931    1.7424 H   0  0  0  0  0  0  0  0  0  0  0  0
   -7.3008   -2.0209    1.2314 H   0  0  0  0  0  0  0  0  0  0  0  0
   -7.6421   -3.8959   -0.4036 H   0  0  0  0  0  0  0  0  0  0  0  0
   -5.6875   -4.8557   -1.4517 H   0  0  0  0  0  0  0  0  0  0  0  0
   -3.3732   -3.9984   -0.9264 H   0  0  0  0  0  0  0  0  0  0  0  0
   -2.5826    0.9696    0.3723 H   0  0  0  0  0  0  0  0  0  0  0  0
   -5.9579    2.1775   -2.2922 H   0  0  0  0  0  0  0  0  0  0  0  0
   -6.4129    4.5779   -1.9779 H   0  0  0  0  0  0  0  0  0  0  0  0
   -4.9132    5.8440   -0.4748 H   0  0  0  0  0  0  0  0  0  0  0  0
   -3.0078    4.7264    0.6796 H   0  0  0  0  0  0  0  0  0  0  0  0
    2.8907   -0.6128   -3.4568 H   0  0  0  0  0  0  0  0  0  0  0  0
    4.1511   -0.0357   -4.5563 H   0  0  0  0  0  0  0  0  0  0  0  0
  1  2  1  0
  2  3  1  0
  2  4  1  0
  4  5  1  0
  5  6  1  0
  6  7  1  0
  7  8  2  0
  7  9  1  0
  9 10  1  0
 10 11  1  0
 11 12  1  0
 12 13  1  0
 13 14  1  0
 14 15  2  0
 14 16  1  0
 16 17  1  0
 17 18  1  0
 18 19  2  0
 19 20  1  0
 20 21  2  0
 21 22  1  0
 22 23  2  0
 16 24  1  0
 24 25  1  0
 25 26  2  0
 25 27  1  0
 27 28  2  0
 28 29  1  0
 29 30  2  0
 30 31  1  0
 31 32  2  0
  5 33  1  0
 33 34  1  0
 33 35  2  0
 13  9  1  0
 23 18  1  0
 32 27  1  0
  1 36  1  0
  1 37  1  0
  1 38  1  0
  2 39  1  0
  3 40  1  0
  3 41  1  0
  3 42  1  0
  4 43  1  0
  4 44  1  0
  5 45  1  6
  6 46  1  0
  9 47  1  1
 10 48  1  0
 10 49  1  0
 11 50  1  0
 11 51  1  0
 12 52  1  0
 12 53  1  0
 16 54  1  6
 17 55  1  0
 17 56  1  0
 19 57  1  0
 20 58  1  0
 21 59  1  0
 22 60  1  0
 23 61  1  0
 24 62  1  0
 28 63  1  0
 29 64  1  0
 30 65  1  0
 31 66  1  0
 34 67  1  0
 34 68  1  0
M  END
$$$$
[H]/C(C(=O)N1C(=O)C([H])([H])C([H])([H])C1([H])[H])=C(/[H])c1c2c(n([H])c1N([H])C(=O)c1c([H])c([H])c(N(C([H])([H])[H])C([H])([H])[H])c([H])c1[H])C([H])([H])C1(N([H])C(C([H])([H])[H])(C([H])([H])[H])C([H])([H])C1([H])[H])C([H])([H])C2([H])[H]
     RDKit          3D

 74 78  0  0  0  0  0  0  0  0999 V2000
    9.0509   -0.9919   -1.2590 C   0  0  0  0  0  0  0  0  0  0  0  0
    8.3929   -0.5781   -0.0111 N   0  0  0  0  0  0  0  0  0  0  0  0
    9.1794    0.0223    1.0242 C   0  0  0  0  0  0  0  0  0  0  0  0
    6.9871   -0.8034    0.0959 C   0  0  0  0  0  0  0  0  0  0  0  0
    6.4688   -1.9722    0.6106 C   0  0  0  0  0  0  0  0  0  0  0  0
    5.1047   -2.1601    0.7007 C   0  0  0  0  0  0  0  0  0  0  0  0
    4.2016   -1.1980    0.2847 C   0  0  0  0  0  0  0  0  0  0  0  0
    4.7035   -0.0343   -0.2278 C   0  0  0  0  0  0  0  0  0  0  0  0
    6.0877    0.1548   -0.3184 C   0  0  0  0  0  0  0  0  0  0  0  0
    2.7432   -1.4768    0.4089 C   0  0  0  0  0  0  0  0  0  0  0  0
    2.3845   -2.6582    0.6463 O   0  0  0  0  0  0  0  0  0  0  0  0
    1.8210   -0.4225    0.2594 N   0  0  0  0  0  0  0  0  0  0  0  0
    0.4092   -0.5854    0.2793 C   0  0  0  0  0  0  0  0  0  0  0  0
   -0.2645   -1.7763    0.2417 N   0  0  0  0  0  0  0  0  0  0  0  0
   -1.5922   -1.5589    0.1447 C   0  0  0  0  0  0  0  0  0  0  0  0
   -2.6780   -2.5652    0.0743 C   0  0  0  0  0  0  0  0  0  0  0  0
   -3.9800   -1.9955   -0.3624 C   0  0  0  0  0  0  0  0  0  0  0  0
   -4.9685   -1.9689    0.7846 C   0  0  0  0  0  0  0  0  0  0  0  0
   -5.6772   -3.3056    0.6606 C   0  0  0  0  0  0  0  0  0  0  0  0
   -5.7093   -3.4804   -0.8415 C   0  0  0  0  0  0  0  0  0  0  0  0
   -5.6466   -4.9686   -1.1361 C   0  0  0  0  0  0  0  0  0  0  0  0
   -6.9391   -2.8503   -1.4606 C   0  0  0  0  0  0  0  0  0  0  0  0
   -4.5498   -2.8380   -1.3797 N   0  0  0  0  0  0  0  0  0  0  0  0
   -3.8944   -0.5933   -0.9073 C   0  0  0  0  0  0  0  0  0  0  0  0
   -3.1237    0.3229    0.0198 C   0  0  0  0  0  0  0  0  0  0  0  0
   -1.7548   -0.2265    0.1228 C   0  0  0  0  0  0  0  0  0  0  0  0
   -0.5059    0.4411    0.2094 C   0  0  0  0  0  0  0  0  0  0  0  0
   -0.3903    1.8896    0.3286 C   0  0  0  0  0  0  0  0  0  0  0  0
    0.5719    2.6084    0.7930 C   0  0  0  0  0  0  0  0  0  0  0  0
    0.6984    4.0421    0.9095 C   0  0  0  0  0  0  0  0  0  0  0  0
    1.8512    4.4030    1.4358 O   0  0  0  0  0  0  0  0  0  0  0  0
   -0.2017    5.0667    0.5536 N   0  0  0  0  0  0  0  0  0  0  0  0
   -1.5087    5.0126   -0.0198 C   0  0  0  0  0  0  0  0  0  0  0  0
   -2.0684    6.4265   -0.0854 C   0  0  0  0  0  0  0  0  0  0  0  0
   -1.1660    7.2417    0.8231 C   0  0  0  0  0  0  0  0  0  0  0  0
    0.1057    6.4727    0.7367 C   0  0  0  0  0  0  0  0  0  0  0  0
    1.2469    6.9337    0.8066 O   0  0  0  0  0  0  0  0  0  0  0  0
    8.4937   -0.5424   -2.1151 H   0  0  0  0  0  0  0  0  0  0  0  0
   10.0773   -0.5544   -1.2955 H   0  0  0  0  0  0  0  0  0  0  0  0
    9.0764   -2.0967   -1.3550 H   0  0  0  0  0  0  0  0  0  0  0  0
    8.6472    0.8500    1.5509 H   0  0  0  0  0  0  0  0  0  0  0  0
    9.5523   -0.7209    1.7711 H   0  0  0  0  0  0  0  0  0  0  0  0
   10.0769    0.4816    0.5644 H   0  0  0  0  0  0  0  0  0  0  0  0
    7.1494   -2.7287    0.9382 H   0  0  0  0  0  0  0  0  0  0  0  0
    4.6772   -3.0817    1.1075 H   0  0  0  0  0  0  0  0  0  0  0  0
    4.0577    0.7536   -0.5729 H   0  0  0  0  0  0  0  0  0  0  0  0
    6.4946    1.0731   -0.7225 H   0  0  0  0  0  0  0  0  0  0  0  0
    2.2101    0.5412    0.0643 H   0  0  0  0  0  0  0  0  0  0  0  0
    0.1828   -2.7211    0.2787 H   0  0  0  0  0  0  0  0  0  0  0  0
   -2.8182   -3.0906    1.0600 H   0  0  0  0  0  0  0  0  0  0  0  0
   -2.3159   -3.3763   -0.6245 H   0  0  0  0  0  0  0  0  0  0  0  0
   -5.6961   -1.1601    0.7242 H   0  0  0  0  0  0  0  0  0  0  0  0
   -4.3781   -1.9722    1.7378 H   0  0  0  0  0  0  0  0  0  0  0  0
   -5.1300   -4.0961    1.1706 H   0  0  0  0  0  0  0  0  0  0  0  0
   -6.6990   -3.2863    1.0521 H   0  0  0  0  0  0  0  0  0  0  0  0
   -6.1731   -5.4766   -0.3189 H   0  0  0  0  0  0  0  0  0  0  0  0
   -6.1946   -5.2132   -2.0707 H   0  0  0  0  0  0  0  0  0  0  0  0
   -4.5776   -5.2417   -1.2150 H   0  0  0  0  0  0  0  0  0  0  0  0
   -7.4765   -2.3089   -0.6481 H   0  0  0  0  0  0  0  0  0  0  0  0
   -6.6777   -2.0922   -2.2257 H   0  0  0  0  0  0  0  0  0  0  0  0
   -7.5659   -3.6693   -1.8567 H   0  0  0  0  0  0  0  0  0  0  0  0
   -3.8613   -3.5287   -1.7774 H   0  0  0  0  0  0  0  0  0  0  0  0
   -4.9362   -0.1971   -0.9436 H   0  0  0  0  0  0  0  0  0  0  0  0
   -3.4840   -0.5402   -1.9214 H   0  0  0  0  0  0  0  0  0  0  0  0
   -3.1035    1.3196   -0.4737 H   0  0  0  0  0  0  0  0  0  0  0  0
   -3.6171    0.3929    0.9986 H   0  0  0  0  0  0  0  0  0  0  0  0
   -1.2641    2.4575   -0.0520 H   0  0  0  0  0  0  0  0  0  0  0  0
    1.4153    2.0260    1.2170 H   0  0  0  0  0  0  0  0  0  0  0  0
   -2.1979    4.4275    0.6553 H   0  0  0  0  0  0  0  0  0  0  0  0
   -1.5405    4.5411   -1.0227 H   0  0  0  0  0  0  0  0  0  0  0  0
   -2.0283    6.8425   -1.1125 H   0  0  0  0  0  0  0  0  0  0  0  0
   -3.1300    6.4488    0.2353 H   0  0  0  0  0  0  0  0  0  0  0  0
   -1.5977    7.2558    1.8337 H   0  0  0  0  0  0  0  0  0  0  0  0
   -1.0370    8.2543    0.4182 H   0  0  0  0  0  0  0  0  0  0  0  0
  1  2  1  0
  2  3  1  0
  2  4  1  0
  4  5  2  0
  5  6  1  0
  6  7  2  0
  7  8  1  0
  8  9  2  0
  7 10  1  0
 10 11  2  0
 10 12  1  0
 12 13  1  0
 13 14  1  0
 14 15  1  0
 15 16  1  0
 16 17  1  0
 17 18  1  0
 18 19  1  0
 19 20  1  0
 20 21  1  0
 20 22  1  0
 20 23  1  0
 17 24  1  0
 24 25  1  0
 25 26  1  0
 26 27  1  0
 27 28  1  0
 28 29  2  0
 29 30  1  0
 30 31  2  0
 30 32  1  0
 32 33  1  0
 33 34  1  0
 34 35  1  0
 35 36  1  0
 36 37  2  0
  9  4  1  0
 27 13  2  0
 36 32  1  0
 26 15  2  0
 23 17  1  0
  1 38  1  0
  1 39  1  0
  1 40  1  0
  3 41  1  0
  3 42  1  0
  3 43  1  0
  5 44  1  0
  6 45  1  0
  8 46  1  0
  9 47  1  0
 12 48  1  0
 14 49  1  0
 16 50  1  0
 16 51  1  0
 18 52  1  0
 18 53  1  0
 19 54  1  0
 19 55  1  0
 21 56  1  0
 21 57  1  0
 21 58  1  0
 22 59  1  0
 22 60  1  0
 22 61  1  0
 23 62  1  0
 24 63  1  0
 24 64  1  0
 25 65  1  0
 25 66  1  0
 28 67  1  0
 29 68  1  0
 33 69  1  0
 33 70  1  0
 34 71  1  0
 34 72  1  0
 35 73  1  0
 35 74  1  0
M  END
$$$$
[H]c1nc([H])c(-c2c([H])c([H])c(C([H])([H])[H])c([H])c2Cl)nc1Oc1c([H])c(C([H])([H])[H])c([H])c([H])c1-c1c([H])nc([H])c([H])c1C([H])([H])[H]
     RDKit          3D

 49 52  0  0  0  0  0  0  0  0999 V2000
   -4.4688    1.3178   -1.5973 C   0  0  0  0  0  0  0  0  0  0  0  0
   -3.5497    1.9414   -0.6312 C   0  0  0  0  0  0  0  0  0  0  0  0
   -3.5140    3.3085   -0.5518 C   0  0  0  0  0  0  0  0  0  0  0  0
   -2.6620    3.9517    0.3098 C   0  0  0  0  0  0  0  0  0  0  0  0
   -1.8652    3.2017    1.0715 N   0  0  0  0  0  0  0  0  0  0  0  0
   -1.8973    1.8368    0.9969 C   0  0  0  0  0  0  0  0  0  0  0  0
   -2.7053    1.1264    0.1763 C   0  0  0  0  0  0  0  0  0  0  0  0
   -2.9157   -0.2897    0.0362 C   0  0  0  0  0  0  0  0  0  0  0  0
   -4.2146   -0.7814    0.3327 C   0  0  0  0  0  0  0  0  0  0  0  0
   -4.5577   -2.0985    0.1809 C   0  0  0  0  0  0  0  0  0  0  0  0
   -3.6026   -2.9793   -0.2776 C   0  0  0  0  0  0  0  0  0  0  0  0
   -3.9859   -4.4088   -0.4313 C   0  0  0  0  0  0  0  0  0  0  0  0
   -2.3397   -2.5586   -0.5756 C   0  0  0  0  0  0  0  0  0  0  0  0
   -2.0185   -1.1989   -0.4074 C   0  0  0  0  0  0  0  0  0  0  0  0
   -0.7261   -0.8912   -0.7485 O   0  0  0  0  0  0  0  0  0  0  0  0
    0.2937   -0.8826    0.1667 C   0  0  0  0  0  0  0  0  0  0  0  0
    0.0812   -1.3044    1.4633 C   0  0  0  0  0  0  0  0  0  0  0  0
    1.0519   -1.3229    2.3849 N   0  0  0  0  0  0  0  0  0  0  0  0
    2.3237   -0.9114    2.0618 C   0  0  0  0  0  0  0  0  0  0  0  0
    2.5708   -0.4918    0.7964 C   0  0  0  0  0  0  0  0  0  0  0  0
    1.5402   -0.4867   -0.1286 N   0  0  0  0  0  0  0  0  0  0  0  0
    3.8617    0.0222    0.3575 C   0  0  0  0  0  0  0  0  0  0  0  0
    3.8592    0.9316   -0.7256 C   0  0  0  0  0  0  0  0  0  0  0  0
    4.9829    1.4642   -1.2747 C   0  0  0  0  0  0  0  0  0  0  0  0
    6.2221    1.1135   -0.7605 C   0  0  0  0  0  0  0  0  0  0  0  0
    7.4561    1.6972   -1.3577 C   0  0  0  0  0  0  0  0  0  0  0  0
    6.2692    0.2385    0.2840 C   0  0  0  0  0  0  0  0  0  0  0  0
    5.0898   -0.2977    0.8297 C   0  0  0  0  0  0  0  0  0  0  0  0
    5.2494   -1.4810    2.1236 Cl  0  0  0  0  0  0  0  0  0  0  0  0
   -3.9728    0.4244   -2.0049 H   0  0  0  0  0  0  0  0  0  0  0  0
   -4.5627    2.0288   -2.4809 H   0  0  0  0  0  0  0  0  0  0  0  0
   -5.4968    1.1792   -1.2560 H   0  0  0  0  0  0  0  0  0  0  0  0
   -4.1530    3.9508   -1.1612 H   0  0  0  0  0  0  0  0  0  0  0  0
   -2.6388    5.0577    0.3710 H   0  0  0  0  0  0  0  0  0  0  0  0
   -1.2453    1.3107    1.6625 H   0  0  0  0  0  0  0  0  0  0  0  0
   -4.9228   -0.0487    0.6918 H   0  0  0  0  0  0  0  0  0  0  0  0
   -5.5658   -2.4665    0.4155 H   0  0  0  0  0  0  0  0  0  0  0  0
   -4.9605   -4.4782   -0.9262 H   0  0  0  0  0  0  0  0  0  0  0  0
   -3.1862   -4.9970   -0.9356 H   0  0  0  0  0  0  0  0  0  0  0  0
   -4.0957   -4.8700    0.5791 H   0  0  0  0  0  0  0  0  0  0  0  0
   -1.5956   -3.2717   -0.9363 H   0  0  0  0  0  0  0  0  0  0  0  0
   -0.8940   -1.6437    1.7927 H   0  0  0  0  0  0  0  0  0  0  0  0
    3.0623   -0.9107    2.8392 H   0  0  0  0  0  0  0  0  0  0  0  0
    2.8879    1.2078   -1.1307 H   0  0  0  0  0  0  0  0  0  0  0  0
    4.9671    2.1671   -2.1143 H   0  0  0  0  0  0  0  0  0  0  0  0
    7.6950    1.2613   -2.3506 H   0  0  0  0  0  0  0  0  0  0  0  0
    8.3251    1.6138   -0.6838 H   0  0  0  0  0  0  0  0  0  0  0  0
    7.3268    2.7977   -1.5518 H   0  0  0  0  0  0  0  0  0  0  0  0
    7.1973   -0.0792    0.7344 H   0  0  0  0  0  0  0  0  0  0  0  0
  1  2  1  0
  2  3  2  0
  3  4  1  0
  4  5  2  0
  5  6  1  0
  6  7  2  0
  7  8  1  0
  8  9  2  0
  9 10  1  0
 10 11  2  0
 11 12  1  0
 11 13  1  0
 13 14  2  0
 14 15  1  0
 15 16  1  0
 16 17  2  0
 17 18  1  0
 18 19  2  0
 19 20  1  0
 20 21  2  0
 20 22  1  0
 22 23  2  0
 23 24  1  0
 24 25  2  0
 25 26  1  0
 25 27  1  0
 27 28  2  0
 28 29  1  0
  7  2  1  0
 14  8  1  0
 21 16  1  0
 28 22  1  0
  1 30  1  0
  1 31  1  0
  1 32  1  0
  3 33  1  0
  4 34  1  0
  6 35  1  0
  9 36  1  0
 10 37  1  0
 12 38  1  0
 12 39  1  0
 12 40  1  0
 13 41  1  0
 17 42  1  0
 19 43  1  0
 23 44  1  0
 24 45  1  0
 26 46  1  0
 26 47  1  0
 26 48  1  0
 27 49  1  0
M  END
$$$$
[H]c1nc(N2C([H])([H])C([H])([H])N(C([H])([H])[H])C([H])([H])C2([H])[H])nc([H])c1-c1c([H])c([H])c(Cl)c(Cl)c1[H]
     RDKit          3D

 37 39  0  0  0  0  0  0  0  0999 V2000
    5.5479   -0.0908    0.9464 C   0  0  0  0  0  0  0  0  0  0  0  0
    4.7306    0.2887   -0.1906 N   0  0  0  0  0  0  0  0  0  0  0  0
    4.0714   -0.8535   -0.7786 C   0  0  0  0  0  0  0  0  0  0  0  0
    2.6931   -1.0802   -0.2069 C   0  0  0  0  0  0  0  0  0  0  0  0
    1.8951    0.0875   -0.3953 N   0  0  0  0  0  0  0  0  0  0  0  0
    2.5723    1.3272   -0.7147 C   0  0  0  0  0  0  0  0  0  0  0  0
    3.8375    1.3703    0.1092 C   0  0  0  0  0  0  0  0  0  0  0  0
    0.4796    0.1109   -0.2891 C   0  0  0  0  0  0  0  0  0  0  0  0
   -0.2591    1.2182   -0.4701 N   0  0  0  0  0  0  0  0  0  0  0  0
   -1.6080    1.1988   -0.3601 C   0  0  0  0  0  0  0  0  0  0  0  0
   -2.2697    0.0307   -0.0562 C   0  0  0  0  0  0  0  0  0  0  0  0
   -1.4907   -1.1158    0.1300 C   0  0  0  0  0  0  0  0  0  0  0  0
   -0.1575   -1.0289    0.0066 N   0  0  0  0  0  0  0  0  0  0  0  0
   -3.7127   -0.0427    0.0732 C   0  0  0  0  0  0  0  0  0  0  0  0
   -4.4662    1.0171    0.5382 C   0  0  0  0  0  0  0  0  0  0  0  0
   -5.8343    0.9313    0.6543 C   0  0  0  0  0  0  0  0  0  0  0  0
   -6.4749   -0.2398    0.2993 C   0  0  0  0  0  0  0  0  0  0  0  0
   -8.2327   -0.3280    0.4558 Cl  0  0  0  0  0  0  0  0  0  0  0  0
   -5.7252   -1.2901   -0.1614 C   0  0  0  0  0  0  0  0  0  0  0  0
   -6.5689   -2.7733   -0.6071 Cl  0  0  0  0  0  0  0  0  0  0  0  0
   -4.3531   -1.2237   -0.2853 C   0  0  0  0  0  0  0  0  0  0  0  0
    5.9908    0.8189    1.3864 H   0  0  0  0  0  0  0  0  0  0  0  0
    6.3779   -0.7177    0.5484 H   0  0  0  0  0  0  0  0  0  0  0  0
    4.9521   -0.6711    1.6871 H   0  0  0  0  0  0  0  0  0  0  0  0
    4.0035   -0.7821   -1.8744 H   0  0  0  0  0  0  0  0  0  0  0  0
    4.6978   -1.7391   -0.5446 H   0  0  0  0  0  0  0  0  0  0  0  0
    2.2639   -1.9695   -0.7098 H   0  0  0  0  0  0  0  0  0  0  0  0
    2.8146   -1.3596    0.8609 H   0  0  0  0  0  0  0  0  0  0  0  0
    2.7752    1.3742   -1.7933 H   0  0  0  0  0  0  0  0  0  0  0  0
    1.9429    2.1855   -0.3975 H   0  0  0  0  0  0  0  0  0  0  0  0
    4.3489    2.3367   -0.0826 H   0  0  0  0  0  0  0  0  0  0  0  0
    3.5211    1.3214    1.1721 H   0  0  0  0  0  0  0  0  0  0  0  0
   -2.1882    2.0949   -0.5077 H   0  0  0  0  0  0  0  0  0  0  0  0
   -1.9831   -2.0478    0.3697 H   0  0  0  0  0  0  0  0  0  0  0  0
   -3.9949    1.9467    0.8246 H   0  0  0  0  0  0  0  0  0  0  0  0
   -6.3838    1.7840    1.0210 H   0  0  0  0  0  0  0  0  0  0  0  0
   -3.8134   -2.0895   -0.6578 H   0  0  0  0  0  0  0  0  0  0  0  0
  1  2  1  0
  2  3  1  0
  3  4  1  0
  4  5  1  0
  5  6  1  0
  6  7  1  0
  5  8  1  0
  8  9  2  0
  9 10  1  0
 10 11  2  0
 11 12  1  0
 12 13  2  0
 11 14  1  0
 14 15  2  0
 15 16  1  0
 16 17  2  0
 17 18  1  0
 17 19  1  0
 19 20  1  0
 19 21  2  0
  7  2  1  0
 13  8  1  0
 21 14  1  0
  1 22  1  0
  1 23  1  0
  1 24  1  0
  3 25  1  0
  3 26  1  0
  4 27  1  0
  4 28  1  0
  6 29  1  0
  6 30  1  0
  7 31  1  0
  7 32  1  0
 10 33  1  0
 12 34  1  0
 15 35  1  0
 16 36  1  0
 21 37  1  0
M  END
$$$$
[H]c1nc([H])c(-n2nc(-c3c([H])c([H])c([H])c([H])c3[H])c(-c3c([H])c([H])c(N([H])C(=O)c4c(Cl)c([H])c([H])c([H])c4Cl)c([H])c3[H])c2[H])c([H])c1[H]
     RDKit          3D

 52 56  0  0  0  0  0  0  0  0999 V2000
    5.7624    3.0134   -0.6687 Cl  0  0  0  0  0  0  0  0  0  0  0  0
    6.5751    1.4815   -0.5520 C   0  0  0  0  0  0  0  0  0  0  0  0
    7.9882    1.4937   -0.5088 C   0  0  0  0  0  0  0  0  0  0  0  0
    8.7275    0.3426   -0.4709 C   0  0  0  0  0  0  0  0  0  0  0  0
    8.0338   -0.8396   -0.4765 C   0  0  0  0  0  0  0  0  0  0  0  0
    6.6705   -0.9104   -0.5165 C   0  0  0  0  0  0  0  0  0  0  0  0
    5.8760   -2.4601   -0.5209 Cl  0  0  0  0  0  0  0  0  0  0  0  0
    5.9332    0.2975   -0.5540 C   0  0  0  0  0  0  0  0  0  0  0  0
    4.5063    0.1325   -0.5287 C   0  0  0  0  0  0  0  0  0  0  0  0
    4.0088   -0.9544   -1.0249 O   0  0  0  0  0  0  0  0  0  0  0  0
    3.5903    1.0389   -0.0094 N   0  0  0  0  0  0  0  0  0  0  0  0
    2.1871    0.8249   -0.0436 C   0  0  0  0  0  0  0  0  0  0  0  0
    1.3981    1.3396    1.0076 C   0  0  0  0  0  0  0  0  0  0  0  0
    0.0394    1.1802    0.9828 C   0  0  0  0  0  0  0  0  0  0  0  0
   -0.6155    0.5298   -0.0359 C   0  0  0  0  0  0  0  0  0  0  0  0
    0.1250    0.0285   -1.0553 C   0  0  0  0  0  0  0  0  0  0  0  0
    1.5184    0.1848   -1.0434 C   0  0  0  0  0  0  0  0  0  0  0  0
   -2.0555    0.4029    0.0088 C   0  0  0  0  0  0  0  0  0  0  0  0
   -2.9449    1.4698    0.0214 C   0  0  0  0  0  0  0  0  0  0  0  0
   -4.1733    0.9610    0.0642 N   0  0  0  0  0  0  0  0  0  0  0  0
   -4.0844   -0.3422    0.0783 N   0  0  0  0  0  0  0  0  0  0  0  0
   -2.8131   -0.7518    0.0460 C   0  0  0  0  0  0  0  0  0  0  0  0
   -2.3390   -2.1197    0.0503 C   0  0  0  0  0  0  0  0  0  0  0  0
   -2.6630   -2.9963   -0.9758 C   0  0  0  0  0  0  0  0  0  0  0  0
   -2.2146   -4.2958   -0.9733 C   0  0  0  0  0  0  0  0  0  0  0  0
   -1.4292   -4.7362    0.0667 C   0  0  0  0  0  0  0  0  0  0  0  0
   -1.1008   -3.8739    1.0920 C   0  0  0  0  0  0  0  0  0  0  0  0
   -1.5513   -2.5720    1.0875 C   0  0  0  0  0  0  0  0  0  0  0  0
   -5.3903    1.7323    0.0901 C   0  0  0  0  0  0  0  0  0  0  0  0
   -6.6001    1.0814    0.0206 C   0  0  0  0  0  0  0  0  0  0  0  0
   -7.7564    1.8306    0.0462 C   0  0  0  0  0  0  0  0  0  0  0  0
   -7.7190    3.2063    0.1391 C   0  0  0  0  0  0  0  0  0  0  0  0
   -6.5022    3.7731    0.2031 N   0  0  0  0  0  0  0  0  0  0  0  0
   -5.3472    3.0865    0.1818 C   0  0  0  0  0  0  0  0  0  0  0  0
    8.4968    2.4473   -0.5060 H   0  0  0  0  0  0  0  0  0  0  0  0
    9.7918    0.3894   -0.4391 H   0  0  0  0  0  0  0  0  0  0  0  0
    8.6206   -1.7550   -0.4469 H   0  0  0  0  0  0  0  0  0  0  0  0
    3.9397    1.9166    0.4638 H   0  0  0  0  0  0  0  0  0  0  0  0
    1.9254    1.8484    1.8024 H   0  0  0  0  0  0  0  0  0  0  0  0
   -0.5306    1.5968    1.8208 H   0  0  0  0  0  0  0  0  0  0  0  0
   -0.3324   -0.4831   -1.8674 H   0  0  0  0  0  0  0  0  0  0  0  0
    2.0605   -0.2096   -1.8884 H   0  0  0  0  0  0  0  0  0  0  0  0
   -2.6394    2.5285   -0.0012 H   0  0  0  0  0  0  0  0  0  0  0  0
   -3.2864   -2.6774   -1.8195 H   0  0  0  0  0  0  0  0  0  0  0  0
   -2.4999   -4.9447   -1.8070 H   0  0  0  0  0  0  0  0  0  0  0  0
   -1.1005   -5.7616    0.0276 H   0  0  0  0  0  0  0  0  0  0  0  0
   -0.4813   -4.2828    1.8770 H   0  0  0  0  0  0  0  0  0  0  0  0
   -1.2650   -1.9217    1.9245 H   0  0  0  0  0  0  0  0  0  0  0  0
   -6.6000    0.0056   -0.0520 H   0  0  0  0  0  0  0  0  0  0  0  0
   -8.7107    1.3038   -0.0088 H   0  0  0  0  0  0  0  0  0  0  0  0
   -8.6295    3.8124    0.1600 H   0  0  0  0  0  0  0  0  0  0  0  0
   -4.3997    3.6076    0.2371 H   0  0  0  0  0  0  0  0  0  0  0  0
  1  2  1  0
  2  3  2  0
  3  4  1  0
  4  5  2  0
  5  6  1  0
  6  7  1  0
  6  8  2  0
  8  9  1  0
  9 10  2  0
  9 11  1  0
 11 12  1  0
 12 13  2  0
 13 14  1  0
 14 15  2  0
 15 16  1  0
 16 17  2  0
 15 18  1  0
 18 19  2  0
 19 20  1  0
 20 21  1  0
 21 22  2  0
 22 23  1  0
 23 24  2  0
 24 25  1  0
 25 26  2  0
 26 27  1  0
 27 28  2  0
 20 29  1  0
 29 30  2  0
 30 31  1  0
 31 32  2  0
 32 33  1  0
 33 34  2  0
  8  2  1  0
 17 12  1  0
 22 18  1  0
 28 23  1  0
 34 29  1  0
  3 35  1  0
  4 36  1  0
  5 37  1  0
 11 38  1  0
 13 39  1  0
 14 40  1  0
 16 41  1  0
 17 42  1  0
 19 43  1  0
 24 44  1  0
 25 45  1  0
 26 46  1  0
 27 47  1  0
 28 48  1  0
 30 49  1  0
 31 50  1  0
 32 51  1  0
 34 52  1  0
M  END
$$$$
[H]Oc1c([H])c(C([H])([H])O[H])c(-c2nc(-c3c([H])c([H])c([H])c([H])c3[H])c3c(N([H])[H])nn([H])c3c2[H])c([H])c1F
     RDKit          3D

 41 44  0  0  0  0  0  0  0  0999 V2000
   -3.6345   -2.3482    1.5110 N   0  0  0  0  0  0  0  0  0  0  0  0
   -2.2557   -2.2959    1.8379 C   0  0  0  0  0  0  0  0  0  0  0  0
   -1.7105   -3.0169    2.8431 N   0  0  0  0  0  0  0  0  0  0  0  0
   -0.4345   -2.7416    2.9269 N   0  0  0  0  0  0  0  0  0  0  0  0
   -0.0934   -1.8493    2.0028 C   0  0  0  0  0  0  0  0  0  0  0  0
    1.0947   -1.2101    1.6726 C   0  0  0  0  0  0  0  0  0  0  0  0
    1.1377   -0.2839    0.6468 C   0  0  0  0  0  0  0  0  0  0  0  0
   -0.0083   -0.0431    0.0006 N   0  0  0  0  0  0  0  0  0  0  0  0
   -1.1993   -0.6192    0.2568 C   0  0  0  0  0  0  0  0  0  0  0  0
   -2.3857   -0.2733   -0.4888 C   0  0  0  0  0  0  0  0  0  0  0  0
   -2.7465    1.0816   -0.4610 C   0  0  0  0  0  0  0  0  0  0  0  0
   -3.8234    1.5554   -1.1798 C   0  0  0  0  0  0  0  0  0  0  0  0
   -4.5900    0.7179   -1.9553 C   0  0  0  0  0  0  0  0  0  0  0  0
   -4.2499   -0.6060   -1.9926 C   0  0  0  0  0  0  0  0  0  0  0  0
   -3.1569   -1.0754   -1.2611 C   0  0  0  0  0  0  0  0  0  0  0  0
   -1.2437   -1.5390    1.2789 C   0  0  0  0  0  0  0  0  0  0  0  0
    2.4080    0.3588    0.3406 C   0  0  0  0  0  0  0  0  0  0  0  0
    3.5414    0.0492    1.0759 C   0  0  0  0  0  0  0  0  0  0  0  0
    4.7480    0.6692    0.7740 C   0  0  0  0  0  0  0  0  0  0  0  0
    5.8631    0.3623    1.5002 F   0  0  0  0  0  0  0  0  0  0  0  0
    4.8875    1.5910   -0.2321 C   0  0  0  0  0  0  0  0  0  0  0  0
    6.0952    2.2113   -0.5340 O   0  0  0  0  0  0  0  0  0  0  0  0
    3.7558    1.8800   -0.9435 C   0  0  0  0  0  0  0  0  0  0  0  0
    2.5131    1.2795   -0.6761 C   0  0  0  0  0  0  0  0  0  0  0  0
    1.3524    1.6783   -1.5256 C   0  0  0  0  0  0  0  0  0  0  0  0
    1.7797    2.6406   -2.4779 O   0  0  0  0  0  0  0  0  0  0  0  0
   -3.9944   -3.1463    0.9734 H   0  0  0  0  0  0  0  0  0  0  0  0
   -4.2568   -1.5896    1.8146 H   0  0  0  0  0  0  0  0  0  0  0  0
    0.2187   -3.1599    3.6163 H   0  0  0  0  0  0  0  0  0  0  0  0
    1.9375   -1.5029    2.2753 H   0  0  0  0  0  0  0  0  0  0  0  0
   -2.1714    1.7853    0.1378 H   0  0  0  0  0  0  0  0  0  0  0  0
   -4.0470    2.6197   -1.1121 H   0  0  0  0  0  0  0  0  0  0  0  0
   -5.4339    1.0978   -2.5162 H   0  0  0  0  0  0  0  0  0  0  0  0
   -4.8408   -1.2783   -2.5965 H   0  0  0  0  0  0  0  0  0  0  0  0
   -2.9028   -2.1206   -1.3290 H   0  0  0  0  0  0  0  0  0  0  0  0
    3.5224   -0.6570    1.8771 H   0  0  0  0  0  0  0  0  0  0  0  0
    6.9440    2.0360   -0.0479 H   0  0  0  0  0  0  0  0  0  0  0  0
    3.8095    2.5974   -1.7450 H   0  0  0  0  0  0  0  0  0  0  0  0
    0.5833    2.1680   -0.9135 H   0  0  0  0  0  0  0  0  0  0  0  0
    0.9232    0.8397   -2.0930 H   0  0  0  0  0  0  0  0  0  0  0  0
    2.0645    2.1375   -3.2818 H   0  0  0  0  0  0  0  0  0  0  0  0
  1  2  1  0
  2  3  2  0
  3  4  1  0
  4  5  1  0
  5  6  2  0
  6  7  1  0
  7  8  2  0
  8  9  1  0
  9 10  1  0
 10 11  2  0
 11 12  1  0
 12 13  2  0
 13 14  1  0
 14 15  2  0
  9 16  2  0
  7 17  1  0
 17 18  2  0
 18 19  1  0
 19 20  1  0
 19 21  2  0
 21 22  1  0
 21 23  1  0
 23 24  2  0
 24 25  1  0
 25 26  1  0
 16  2  1  0
 24 17  1  0
 16  5  1  0
 15 10  1  0
  1 27  1  0
  1 28  1  0
  4 29  1  0
  6 30  1  0
 11 31  1  0
 12 32  1  0
 13 33  1  0
 14 34  1  0
 15 35  1  0
 18 36  1  0
 22 37  1  0
 23 38  1  0
 25 39  1  0
 25 40  1  0
 26 41  1  0
M  END
$$$$
[H]N=C(c1c([H])c([H])c([H])c(N([H])C(=O)[C@]2([H])N(C(=O)[C@@]([H])(N([H])C(=O)[C@@]([H])(N([H])[H])C([H])([H])c3c([H])c([H])c(O[H])c([H])c3[H])C([H])([H])c3c([H])c([H])c([H])c([H])c3[H])C([H])([H])C([H])([H])C2([H])[H])c1[H])N([H])[H]
     RDKit          3D

 74 77  0  0  0  0  0  0  0  0999 V2000
   -5.4173    0.9637   -0.2000 N   0  0  0  0  0  0  0  0  0  0  0  0
   -3.9905    1.1363   -0.2473 C   0  0  1  0  0  0  0  0  0  0  0  0
   -3.4785    1.9105    0.9475 C   0  0  0  0  0  0  0  0  0  0  0  0
   -4.0539    3.2775    1.0286 C   0  0  0  0  0  0  0  0  0  0  0  0
   -3.3959    4.3117    0.4415 C   0  0  0  0  0  0  0  0  0  0  0  0
   -3.9189    5.5825    0.5016 C   0  0  0  0  0  0  0  0  0  0  0  0
   -5.1176    5.7929    1.1643 C   0  0  0  0  0  0  0  0  0  0  0  0
   -5.6814    7.0596    1.2482 O   0  0  0  0  0  0  0  0  0  0  0  0
   -5.7804    4.7590    1.7542 C   0  0  0  0  0  0  0  0  0  0  0  0
   -5.2523    3.4967    1.6896 C   0  0  0  0  0  0  0  0  0  0  0  0
   -3.3480   -0.2110   -0.3219 C   0  0  0  0  0  0  0  0  0  0  0  0
   -4.0525   -1.2199   -0.2797 O   0  0  0  0  0  0  0  0  0  0  0  0
   -1.9725   -0.2425   -0.4369 N   0  0  0  0  0  0  0  0  0  0  0  0
   -1.1493   -1.5208   -0.5281 C   0  0  1  0  0  0  0  0  0  0  0  0
   -0.8430   -1.7137   -1.9241 C   0  0  0  0  0  0  0  0  0  0  0  0
   -0.1069   -2.8395   -2.4776 C   0  0  0  0  0  0  0  0  0  0  0  0
    1.1955   -2.7959   -2.9012 C   0  0  0  0  0  0  0  0  0  0  0  0
    1.8199   -3.8969   -3.4121 C   0  0  0  0  0  0  0  0  0  0  0  0
    1.1514   -5.1086   -3.5205 C   0  0  0  0  0  0  0  0  0  0  0  0
   -0.1538   -5.1482   -3.0948 C   0  0  0  0  0  0  0  0  0  0  0  0
   -0.7904   -4.0618   -2.5842 C   0  0  0  0  0  0  0  0  0  0  0  0
   -0.3558   -1.5174    0.6395 C   0  0  0  0  0  0  0  0  0  0  0  0
   -0.7619   -0.5312    1.4909 O   0  0  0  0  0  0  0  0  0  0  0  0
    0.7137   -2.1874    1.2290 N   0  0  0  0  0  0  0  0  0  0  0  0
    1.1052   -1.8837    2.6421 C   0  0  0  0  0  0  0  0  0  0  0  0
    1.0790   -3.3302    3.1631 C   0  0  0  0  0  0  0  0  0  0  0  0
    1.9630   -3.9628    2.0683 C   0  0  0  0  0  0  0  0  0  0  0  0
    1.7035   -3.1478    0.8440 C   0  0  2  0  0  0  0  0  0  0  0  0
    2.9534   -2.4269    0.3591 C   0  0  0  0  0  0  0  0  0  0  0  0
    3.9203   -3.1506    0.0607 O   0  0  0  0  0  0  0  0  0  0  0  0
    2.9805   -1.0469    0.2639 N   0  0  0  0  0  0  0  0  0  0  0  0
    4.0064   -0.1719   -0.1483 C   0  0  0  0  0  0  0  0  0  0  0  0
    5.2977   -0.5169   -0.4287 C   0  0  0  0  0  0  0  0  0  0  0  0
    6.2120    0.4029   -0.8393 C   0  0  0  0  0  0  0  0  0  0  0  0
    5.8869    1.7470   -0.9979 C   0  0  0  0  0  0  0  0  0  0  0  0
    4.5858    2.0898   -0.7142 C   0  0  0  0  0  0  0  0  0  0  0  0
    3.6645    1.1730   -0.3016 C   0  0  0  0  0  0  0  0  0  0  0  0
    4.2106    3.5074   -0.8807 C   0  0  0  0  0  0  0  0  0  0  0  0
    2.8527    3.8789   -0.5901 N   0  0  0  0  0  0  0  0  0  0  0  0
    5.0098    4.4169   -1.2669 N   0  0  0  0  0  0  0  0  0  0  0  0
   -5.7440    0.7763   -1.1933 H   0  0  0  0  0  0  0  0  0  0  0  0
   -5.6506    0.1134    0.3475 H   0  0  0  0  0  0  0  0  0  0  0  0
   -3.6776    1.7526   -1.1403 H   0  0  0  0  0  0  0  0  0  0  0  0
   -3.7848    1.4112    1.8992 H   0  0  0  0  0  0  0  0  0  0  0  0
   -2.3743    1.9416    0.9455 H   0  0  0  0  0  0  0  0  0  0  0  0
   -2.4432    4.1221   -0.0765 H   0  0  0  0  0  0  0  0  0  0  0  0
   -3.4222    6.4337    0.0467 H   0  0  0  0  0  0  0  0  0  0  0  0
   -6.3273    7.4024    0.5421 H   0  0  0  0  0  0  0  0  0  0  0  0
   -6.7257    4.9542    2.2720 H   0  0  0  0  0  0  0  0  0  0  0  0
   -5.7840    2.6883    2.1615 H   0  0  0  0  0  0  0  0  0  0  0  0
   -1.3896    0.6026   -0.4732 H   0  0  0  0  0  0  0  0  0  0  0  0
   -2.0119   -2.2897   -0.3069 H   0  0  0  0  0  0  0  0  0  0  0  0
   -0.3967   -0.7906   -2.4303 H   0  0  0  0  0  0  0  0  0  0  0  0
   -1.8651   -1.7426   -2.4803 H   0  0  0  0  0  0  0  0  0  0  0  0
    1.7610   -1.8442   -2.8298 H   0  0  0  0  0  0  0  0  0  0  0  0
    2.8660   -3.8776   -3.7590 H   0  0  0  0  0  0  0  0  0  0  0  0
    1.6243   -5.9808   -3.9173 H   0  0  0  0  0  0  0  0  0  0  0  0
   -0.6852   -6.1104   -3.1849 H   0  0  0  0  0  0  0  0  0  0  0  0
   -1.8363   -4.1193   -2.2525 H   0  0  0  0  0  0  0  0  0  0  0  0
    2.1391   -1.5250    2.6053 H   0  0  0  0  0  0  0  0  0  0  0  0
    0.3749   -1.2636    3.1461 H   0  0  0  0  0  0  0  0  0  0  0  0
    0.0422   -3.6818    3.1054 H   0  0  0  0  0  0  0  0  0  0  0  0
    1.5309   -3.4295    4.1565 H   0  0  0  0  0  0  0  0  0  0  0  0
    2.9995   -3.8419    2.4503 H   0  0  0  0  0  0  0  0  0  0  0  0
    1.6915   -5.0068    1.9723 H   0  0  0  0  0  0  0  0  0  0  0  0
    1.4224   -3.8129    0.0046 H   0  0  0  0  0  0  0  0  0  0  0  0
    2.0668   -0.5569    0.5449 H   0  0  0  0  0  0  0  0  0  0  0  0
    5.5964   -1.5756   -0.3111 H   0  0  0  0  0  0  0  0  0  0  0  0
    7.2253    0.0861   -1.0516 H   0  0  0  0  0  0  0  0  0  0  0  0
    6.6508    2.4273   -1.3254 H   0  0  0  0  0  0  0  0  0  0  0  0
    2.6648    1.5499   -0.1059 H   0  0  0  0  0  0  0  0  0  0  0  0
    2.4227    3.5573    0.3097 H   0  0  0  0  0  0  0  0  0  0  0  0
    2.3414    4.4513   -1.2732 H   0  0  0  0  0  0  0  0  0  0  0  0
    6.0072    4.3053   -1.5143 H   0  0  0  0  0  0  0  0  0  0  0  0
  1  2  1  0
  2  3  1  0
  3  4  1  0
  4  5  2  0
  5  6  1  0
  6  7  2  0
  7  8  1  0
  7  9  1  0
  9 10  2  0
  2 11  1  0
 11 12  2  0
 11 13  1  0
 13 14  1  0
 14 15  1  0
 15 16  1  0
 16 17  2  0
 17 18  1  0
 18 19  2  0
 19 20  1  0
 20 21  2  0
 14 22  1  0
 22 23  2  0
 22 24  1  0
 24 25  1  0
 25 26  1  0
 26 27  1  0
 27 28  1  0
 28 29  1  0
 29 30  2  0
 29 31  1  0
 31 32  1  0
 32 33  2  0
 33 34  1  0
 34 35  2  0
 35 36  1  0
 36 37  2  0
 36 38  1  0
 38 39  1  0
 38 40  2  3
 10  4  1  0
 21 16  1  0
 28 24  1  0
 37 32  1  0
  1 41  1  0
  1 42  1  0
  2 43  1  6
  3 44  1  0
  3 45  1  0
  5 46  1  0
  6 47  1  0
  8 48  1  0
  9 49  1  0
 10 50  1  0
 13 51  1  0
 14 52  1  1
 15 53  1  0
 15 54  1  0
 17 55  1  0
 18 56  1  0
 19 57  1  0
 20 58  1  0
 21 59  1  0
 25 60  1  0
 25 61  1  0
 26 62  1  0
 26 63  1  0
 27 64  1  0
 27 65  1  0
 28 66  1  6
 31 67  1  0
 33 68  1  0
 34 69  1  0
 35 70  1  0
 37 71  1  0
 39 72  1  0
 39 73  1  0
 40 74  1  0
M  END
$$$$
[H]c1nc(N([H])[H])c2c(-c3c([H])nc(Oc4c([H])c([H])c(C([H])([H])[H])c([H])c4[H])nc3-c3c([H])c([H])c(N([H])C(=O)OC(C([H])([H])[H])(C([H])([H])[H])C([H])([H])[H])c([H])c3[H])c(N([H])[H])nn2n1
     RDKit          3D

 66 70  0  0  0  0  0  0  0  0999 V2000
    8.9115    4.7463    1.2729 C   0  0  0  0  0  0  0  0  0  0  0  0
    7.6110    4.0726    1.0532 C   0  0  0  0  0  0  0  0  0  0  0  0
    6.5034    4.8402    0.7897 C   0  0  0  0  0  0  0  0  0  0  0  0
    5.3159    4.2134    0.5892 C   0  0  0  0  0  0  0  0  0  0  0  0
    5.1494    2.8302    0.6342 C   0  0  0  0  0  0  0  0  0  0  0  0
    3.9207    2.3613    0.4163 O   0  0  0  0  0  0  0  0  0  0  0  0
    3.3634    1.1243    0.3804 C   0  0  0  0  0  0  0  0  0  0  0  0
    4.0124   -0.0303    0.5873 N   0  0  0  0  0  0  0  0  0  0  0  0
    3.4277   -1.2287    0.5429 C   0  0  0  0  0  0  0  0  0  0  0  0
    2.0585   -1.3456    0.2683 C   0  0  0  0  0  0  0  0  0  0  0  0
    1.3741   -0.1736    0.0530 C   0  0  0  0  0  0  0  0  0  0  0  0
    2.0513    1.0158    0.1172 N   0  0  0  0  0  0  0  0  0  0  0  0
   -0.0482   -0.1641   -0.2470 C   0  0  0  0  0  0  0  0  0  0  0  0
   -0.5060   -0.6604   -1.4320 C   0  0  0  0  0  0  0  0  0  0  0  0
   -1.8522   -0.6479   -1.7237 C   0  0  0  0  0  0  0  0  0  0  0  0
   -2.7678   -0.1187   -0.7935 C   0  0  0  0  0  0  0  0  0  0  0  0
   -4.1411   -0.1083   -1.1375 N   0  0  0  0  0  0  0  0  0  0  0  0
   -5.2531    0.1108   -0.3217 C   0  0  0  0  0  0  0  0  0  0  0  0
   -5.1896    0.3364    0.9011 O   0  0  0  0  0  0  0  0  0  0  0  0
   -6.5426    0.0871   -0.8559 O   0  0  0  0  0  0  0  0  0  0  0  0
   -7.7118    0.2939   -0.1020 C   0  0  0  0  0  0  0  0  0  0  0  0
   -7.6274    1.6636    0.5295 C   0  0  0  0  0  0  0  0  0  0  0  0
   -8.9391    0.3006   -1.0186 C   0  0  0  0  0  0  0  0  0  0  0  0
   -7.9684   -0.7262    0.9555 C   0  0  0  0  0  0  0  0  0  0  0  0
   -2.3053    0.3746    0.3842 C   0  0  0  0  0  0  0  0  0  0  0  0
   -0.9360    0.3432    0.6412 C   0  0  0  0  0  0  0  0  0  0  0  0
    1.4113   -2.6361    0.2325 C   0  0  0  0  0  0  0  0  0  0  0  0
    0.6215   -3.2378    1.1860 C   0  0  0  0  0  0  0  0  0  0  0  0
    0.2996   -2.6749    2.4444 N   0  0  0  0  0  0  0  0  0  0  0  0
    0.2524   -4.4334    0.6967 N   0  0  0  0  0  0  0  0  0  0  0  0
    0.7590   -4.6390   -0.5175 N   0  0  0  0  0  0  0  0  0  0  0  0
    0.6698   -5.6478   -1.3645 N   0  0  0  0  0  0  0  0  0  0  0  0
    1.2917   -5.6072   -2.5490 C   0  0  0  0  0  0  0  0  0  0  0  0
    2.0095   -4.5325   -2.8741 N   0  0  0  0  0  0  0  0  0  0  0  0
    2.1253   -3.4985   -2.0541 C   0  0  0  0  0  0  0  0  0  0  0  0
    2.8952   -2.3359   -2.3861 N   0  0  0  0  0  0  0  0  0  0  0  0
    1.4902   -3.5254   -0.8305 C   0  0  0  0  0  0  0  0  0  0  0  0
    6.2638    2.0754    0.8983 C   0  0  0  0  0  0  0  0  0  0  0  0
    7.4994    2.6986    1.1086 C   0  0  0  0  0  0  0  0  0  0  0  0
    8.8641    5.7918    0.9447 H   0  0  0  0  0  0  0  0  0  0  0  0
    9.2454    4.6978    2.3351 H   0  0  0  0  0  0  0  0  0  0  0  0
    9.6546    4.2340    0.5979 H   0  0  0  0  0  0  0  0  0  0  0  0
    6.5689    5.9393    0.7408 H   0  0  0  0  0  0  0  0  0  0  0  0
    4.4532    4.8679    0.3807 H   0  0  0  0  0  0  0  0  0  0  0  0
    3.9533   -2.1670    0.7106 H   0  0  0  0  0  0  0  0  0  0  0  0
    0.1462   -1.0774   -2.2063 H   0  0  0  0  0  0  0  0  0  0  0  0
   -2.2241   -1.0383   -2.6581 H   0  0  0  0  0  0  0  0  0  0  0  0
   -4.3943   -0.2927   -2.1766 H   0  0  0  0  0  0  0  0  0  0  0  0
   -7.3806    1.5186    1.6034 H   0  0  0  0  0  0  0  0  0  0  0  0
   -6.8030    2.2403    0.0880 H   0  0  0  0  0  0  0  0  0  0  0  0
   -8.5974    2.2037    0.4841 H   0  0  0  0  0  0  0  0  0  0  0  0
   -8.9936    1.2852   -1.5567 H   0  0  0  0  0  0  0  0  0  0  0  0
   -8.9025   -0.4825   -1.7753 H   0  0  0  0  0  0  0  0  0  0  0  0
   -9.8208    0.2153   -0.3342 H   0  0  0  0  0  0  0  0  0  0  0  0
   -8.5903   -1.5841    0.5695 H   0  0  0  0  0  0  0  0  0  0  0  0
   -7.0929   -1.0818    1.4964 H   0  0  0  0  0  0  0  0  0  0  0  0
   -8.6370   -0.2427    1.7244 H   0  0  0  0  0  0  0  0  0  0  0  0
   -2.9713    0.8055    1.1371 H   0  0  0  0  0  0  0  0  0  0  0  0
   -0.5940    0.7397    1.5823 H   0  0  0  0  0  0  0  0  0  0  0  0
   -0.1169   -3.2324    3.2276 H   0  0  0  0  0  0  0  0  0  0  0  0
    0.4834   -1.6651    2.6005 H   0  0  0  0  0  0  0  0  0  0  0  0
    1.2080   -6.4623   -3.2511 H   0  0  0  0  0  0  0  0  0  0  0  0
    3.9340   -2.3954   -2.3658 H   0  0  0  0  0  0  0  0  0  0  0  0
    2.4720   -1.4264   -2.6495 H   0  0  0  0  0  0  0  0  0  0  0  0
    6.2706    1.0109    0.9596 H   0  0  0  0  0  0  0  0  0  0  0  0
    8.3657    2.0822    1.3156 H   0  0  0  0  0  0  0  0  0  0  0  0
  1  2  1  0
  2  3  2  0
  3  4  1  0
  4  5  2  0
  5  6  1  0
  6  7  1  0
  7  8  2  0
  8  9  1  0
  9 10  2  0
 10 11  1  0
 11 12  2  0
 11 13  1  0
 13 14  2  0
 14 15  1  0
 15 16  2  0
 16 17  1  0
 17 18  1  0
 18 19  2  0
 18 20  1  0
 20 21  1  0
 21 22  1  0
 21 23  1  0
 21 24  1  0
 16 25  1  0
 25 26  2  0
 10 27  1  0
 27 28  1  0
 28 29  1  0
 28 30  2  0
 30 31  1  0
 31 32  1  0
 32 33  2  0
 33 34  1  0
 34 35  2  0
 35 36  1  0
 35 37  1  0
  5 38  1  0
 38 39  2  0
 39  2  1  0
 12  7  1  0
 26 13  1  0
 37 27  2  0
 37 31  1  0
  1 40  1  0
  1 41  1  0
  1 42  1  0
  3 43  1  0
  4 44  1  0
  9 45  1  0
 14 46  1  0
 15 47  1  0
 17 48  1  0
 22 49  1  0
 22 50  1  0
 22 51  1  0
 23 52  1  0
 23 53  1  0
 23 54  1  0
 24 55  1  0
 24 56  1  0
 24 57  1  0
 25 58  1  0
 26 59  1  0
 29 60  1  0
 29 61  1  0
 33 62  1  0
 36 63  1  0
 36 64  1  0
 38 65  1  0
 39 66  1  0
M  END
$$$$
[H]c1nc(N([H])[H])c2c(-c3c([H])c([H])c(N([H])C(=O)c4c([H])c([H])c([H])c(C(F)(F)F)c4[H])c([H])c3[H])c([H])c([C@]3([H])C([H])([H])[C@]([H])(C([H])([H])N4C([H])([H])C([H])([H])OC([H])([H])C4([H])[H])C3([H])[H])n2n1
     RDKit          3D

 69 74  0  0  0  0  0  0  0  0999 V2000
    1.7257   -3.1767   -1.5668 N   0  0  0  0  0  0  0  0  0  0  0  0
    0.3629   -3.4955   -1.3626 C   0  0  0  0  0  0  0  0  0  0  0  0
   -0.0855   -4.6726   -1.8881 N   0  0  0  0  0  0  0  0  0  0  0  0
   -1.3825   -4.9616   -1.7222 C   0  0  0  0  0  0  0  0  0  0  0  0
   -2.1764   -4.1201   -1.0678 N   0  0  0  0  0  0  0  0  0  0  0  0
   -1.7508   -2.9552   -0.5407 N   0  0  0  0  0  0  0  0  0  0  0  0
   -2.4394   -2.0103    0.1296 C   0  0  0  0  0  0  0  0  0  0  0  0
   -1.5118   -1.0293    0.4223 C   0  0  0  0  0  0  0  0  0  0  0  0
   -0.2784   -1.3879   -0.0678 C   0  0  0  0  0  0  0  0  0  0  0  0
    1.0150   -0.7384    0.0482 C   0  0  0  0  0  0  0  0  0  0  0  0
    2.0237   -1.2955    0.8420 C   0  0  0  0  0  0  0  0  0  0  0  0
    3.2867   -0.7651    0.9387 C   0  0  0  0  0  0  0  0  0  0  0  0
    3.6175    0.3674    0.2342 C   0  0  0  0  0  0  0  0  0  0  0  0
    4.9443    0.9098    0.2252 N   0  0  0  0  0  0  0  0  0  0  0  0
    6.0877    0.1135    0.3799 C   0  0  0  0  0  0  0  0  0  0  0  0
    5.9673   -1.1349    0.5261 O   0  0  0  0  0  0  0  0  0  0  0  0
    7.4337    0.6392    0.3816 C   0  0  0  0  0  0  0  0  0  0  0  0
    8.5245   -0.2554    0.3451 C   0  0  0  0  0  0  0  0  0  0  0  0
    9.8146    0.1813    0.3480 C   0  0  0  0  0  0  0  0  0  0  0  0
   10.1196    1.5138    0.3862 C   0  0  0  0  0  0  0  0  0  0  0  0
    9.0795    2.4321    0.4236 C   0  0  0  0  0  0  0  0  0  0  0  0
    7.7848    1.9647    0.4199 C   0  0  0  0  0  0  0  0  0  0  0  0
    9.4356    3.8640    0.4656 C   0  0  0  0  0  0  0  0  0  0  0  0
   10.2452    4.1275    1.5669 F   0  0  0  0  0  0  0  0  0  0  0  0
    8.3223    4.6431    0.4796 F   0  0  0  0  0  0  0  0  0  0  0  0
   10.1511    4.1595   -0.6966 F   0  0  0  0  0  0  0  0  0  0  0  0
    2.6288    0.9328   -0.5540 C   0  0  0  0  0  0  0  0  0  0  0  0
    1.3483    0.3867   -0.6442 C   0  0  0  0  0  0  0  0  0  0  0  0
   -0.4544   -2.6217   -0.6821 C   0  0  0  0  0  0  0  0  0  0  0  0
   -3.8530   -2.1203    0.4490 C   0  0  2  0  0  0  0  0  0  0  0  0
   -4.8191   -1.4128   -0.5493 C   0  0  0  0  0  0  0  0  0  0  0  0
   -5.7066   -1.2780    0.6371 C   0  0  2  0  0  0  0  0  0  0  0  0
   -6.7353   -0.2519    0.7476 C   0  0  0  0  0  0  0  0  0  0  0  0
   -6.3998    1.1130    0.6745 N   0  0  0  0  0  0  0  0  0  0  0  0
   -6.0185    1.5485   -0.6407 C   0  0  0  0  0  0  0  0  0  0  0  0
   -6.9244    2.6969   -1.1127 C   0  0  0  0  0  0  0  0  0  0  0  0
   -6.7596    3.7326   -0.2151 O   0  0  0  0  0  0  0  0  0  0  0  0
   -7.2677    3.3892    1.0030 C   0  0  0  0  0  0  0  0  0  0  0  0
   -7.5039    1.9070    1.1367 C   0  0  0  0  0  0  0  0  0  0  0  0
   -4.4195   -1.1354    1.4438 C   0  0  0  0  0  0  0  0  0  0  0  0
    1.9984   -2.3787   -2.1600 H   0  0  0  0  0  0  0  0  0  0  0  0
    2.4543   -3.7532   -1.1146 H   0  0  0  0  0  0  0  0  0  0  0  0
   -1.7379   -5.9006   -2.1460 H   0  0  0  0  0  0  0  0  0  0  0  0
   -1.6916   -0.1041    0.9584 H   0  0  0  0  0  0  0  0  0  0  0  0
    1.7152   -2.1955    1.3871 H   0  0  0  0  0  0  0  0  0  0  0  0
    3.9629   -1.2621    1.5968 H   0  0  0  0  0  0  0  0  0  0  0  0
    5.0243    1.9314    0.0990 H   0  0  0  0  0  0  0  0  0  0  0  0
    8.3104   -1.3188    0.3126 H   0  0  0  0  0  0  0  0  0  0  0  0
   10.6446   -0.5388    0.3175 H   0  0  0  0  0  0  0  0  0  0  0  0
   11.1337    1.8749    0.3901 H   0  0  0  0  0  0  0  0  0  0  0  0
    6.9882    2.6911    0.4511 H   0  0  0  0  0  0  0  0  0  0  0  0
    2.8368    1.8283   -1.1304 H   0  0  0  0  0  0  0  0  0  0  0  0
    0.6406    0.8889   -1.2832 H   0  0  0  0  0  0  0  0  0  0  0  0
   -4.2537   -3.1476    0.6477 H   0  0  0  0  0  0  0  0  0  0  0  0
   -5.0749   -2.1328   -1.3249 H   0  0  0  0  0  0  0  0  0  0  0  0
   -4.2463   -0.5073   -0.8725 H   0  0  0  0  0  0  0  0  0  0  0  0
   -6.1013   -2.3170    0.8885 H   0  0  0  0  0  0  0  0  0  0  0  0
   -7.3555   -0.4304    1.6671 H   0  0  0  0  0  0  0  0  0  0  0  0
   -7.4921   -0.4414   -0.0846 H   0  0  0  0  0  0  0  0  0  0  0  0
   -6.1684    0.7163   -1.3654 H   0  0  0  0  0  0  0  0  0  0  0  0
   -4.9968    1.9403   -0.7192 H   0  0  0  0  0  0  0  0  0  0  0  0
   -6.4890    3.0409   -2.1002 H   0  0  0  0  0  0  0  0  0  0  0  0
   -7.9553    2.3501   -1.2530 H   0  0  0  0  0  0  0  0  0  0  0  0
   -6.6720    3.7676    1.8628 H   0  0  0  0  0  0  0  0  0  0  0  0
   -8.2738    3.8895    1.1114 H   0  0  0  0  0  0  0  0  0  0  0  0
   -7.7650    1.6716    2.2066 H   0  0  0  0  0  0  0  0  0  0  0  0
   -8.4097    1.6103    0.5711 H   0  0  0  0  0  0  0  0  0  0  0  0
   -4.0083   -0.1268    1.2420 H   0  0  0  0  0  0  0  0  0  0  0  0
   -4.4501   -1.4505    2.4815 H   0  0  0  0  0  0  0  0  0  0  0  0
  1  2  1  0
  2  3  2  0
  3  4  1  0
  4  5  2  0
  5  6  1  0
  6  7  1  0
  7  8  2  0
  8  9  1  0
  9 10  1  0
 10 11  2  0
 11 12  1  0
 12 13  2  0
 13 14  1  0
 14 15  1  0
 15 16  2  0
 15 17  1  0
 17 18  2  0
 18 19  1  0
 19 20  2  0
 20 21  1  0
 21 22  2  0
 21 23  1  0
 23 24  1  0
 23 25  1  0
 23 26  1  0
 13 27  1  0
 27 28  2  0
  9 29  2  0
  7 30  1  0
 30 31  1  0
 31 32  1  0
 32 33  1  0
 33 34  1  0
 34 35  1  0
 35 36  1  0
 36 37  1  0
 37 38  1  0
 38 39  1  0
 32 40  1  0
 29  2  1  0
 40 30  1  0
 29  6  1  0
 39 34  1  0
 28 10  1  0
 22 17  1  0
  1 41  1  0
  1 42  1  0
  4 43  1  0
  8 44  1  0
 11 45  1  0
 12 46  1  0
 14 47  1  0
 18 48  1  0
 19 49  1  0
 20 50  1  0
 22 51  1  0
 27 52  1  0
 28 53  1  0
 30 54  1  1
 31 55  1  0
 31 56  1  0
 32 57  1  1
 33 58  1  0
 33 59  1  0
 35 60  1  0
 35 61  1  0
 36 62  1  0
 36 63  1  0
 38 64  1  0
 38 65  1  0
 39 66  1  0
 39 67  1  0
 40 68  1  0
 40 69  1  0
M  END
$$$$
[H]c1nc(N([H])c2c([H])c(C3([H])C([H])([H])C3([H])[H])nn2[H])c(C(=O)N([H])[H])c(N([H])[C@]2([H])C([H])([H])C([H])([H])[C@@]([H])(N([H])[H])C([H])([H])C2([H])[H])c1[H]
     RDKit          3D

 51 54  0  0  0  0  0  0  0  0999 V2000
   -6.3632    1.9134   -0.2231 N   0  0  0  0  0  0  0  0  0  0  0  0
   -6.1248    0.5082   -0.4025 C   0  0  1  0  0  0  0  0  0  0  0  0
   -4.9005    0.2922   -1.2767 C   0  0  0  0  0  0  0  0  0  0  0  0
   -3.6393    0.6579   -0.5512 C   0  0  0  0  0  0  0  0  0  0  0  0
   -3.4237   -0.1319    0.7119 C   0  0  1  0  0  0  0  0  0  0  0  0
   -4.6467   -1.0066    0.9013 C   0  0  0  0  0  0  0  0  0  0  0  0
   -5.9062   -0.2015    0.9127 C   0  0  0  0  0  0  0  0  0  0  0  0
   -2.2597   -1.0144    0.5734 N   0  0  0  0  0  0  0  0  0  0  0  0
   -0.9678   -0.4919    0.3434 C   0  0  0  0  0  0  0  0  0  0  0  0
   -0.8087    0.8533    0.6671 C   0  0  0  0  0  0  0  0  0  0  0  0
    0.4511    1.3993    0.5864 C   0  0  0  0  0  0  0  0  0  0  0  0
    1.4890    0.6567    0.2086 N   0  0  0  0  0  0  0  0  0  0  0  0
    1.3945   -0.6568   -0.1198 C   0  0  0  0  0  0  0  0  0  0  0  0
    2.5551   -1.3674   -0.4769 N   0  0  0  0  0  0  0  0  0  0  0  0
    3.8553   -0.7604   -0.5842 C   0  0  0  0  0  0  0  0  0  0  0  0
    4.2345    0.5142   -0.3870 C   0  0  0  0  0  0  0  0  0  0  0  0
    5.6171    0.6415   -0.6085 C   0  0  0  0  0  0  0  0  0  0  0  0
    6.0142   -0.5888   -0.9358 N   0  0  0  0  0  0  0  0  0  0  0  0
    4.9983   -1.4243   -0.9274 N   0  0  0  0  0  0  0  0  0  0  0  0
    6.3643    1.8940   -0.4818 C   0  0  0  0  0  0  0  0  0  0  0  0
    7.7158    1.6974    0.2394 C   0  0  0  0  0  0  0  0  0  0  0  0
    7.6627    2.0952   -1.1751 C   0  0  0  0  0  0  0  0  0  0  0  0
    0.1479   -1.2441   -0.0558 C   0  0  0  0  0  0  0  0  0  0  0  0
   -0.1220   -2.5821   -0.5165 C   0  0  0  0  0  0  0  0  0  0  0  0
    0.8166   -3.5751   -0.8658 N   0  0  0  0  0  0  0  0  0  0  0  0
   -1.3516   -2.9770   -0.6423 O   0  0  0  0  0  0  0  0  0  0  0  0
   -5.6539    2.4556   -0.7650 H   0  0  0  0  0  0  0  0  0  0  0  0
   -6.2551    2.1713    0.7978 H   0  0  0  0  0  0  0  0  0  0  0  0
   -6.9982    0.0935   -0.9545 H   0  0  0  0  0  0  0  0  0  0  0  0
   -5.0079    0.9822   -2.1342 H   0  0  0  0  0  0  0  0  0  0  0  0
   -4.9052   -0.7290   -1.6883 H   0  0  0  0  0  0  0  0  0  0  0  0
   -3.7099    1.7295   -0.2817 H   0  0  0  0  0  0  0  0  0  0  0  0
   -2.7915    0.4551   -1.2462 H   0  0  0  0  0  0  0  0  0  0  0  0
   -3.2787    0.4616    1.6175 H   0  0  0  0  0  0  0  0  0  0  0  0
   -4.6804   -1.7358    0.0712 H   0  0  0  0  0  0  0  0  0  0  0  0
   -4.5941   -1.5632    1.8747 H   0  0  0  0  0  0  0  0  0  0  0  0
   -6.7550   -0.8747    1.1264 H   0  0  0  0  0  0  0  0  0  0  0  0
   -5.8696    0.5460    1.7414 H   0  0  0  0  0  0  0  0  0  0  0  0
   -2.4648   -2.0078    0.7087 H   0  0  0  0  0  0  0  0  0  0  0  0
   -1.6652    1.4394    0.9769 H   0  0  0  0  0  0  0  0  0  0  0  0
    0.5607    2.4514    0.8417 H   0  0  0  0  0  0  0  0  0  0  0  0
    2.5593   -2.3880   -0.6750 H   0  0  0  0  0  0  0  0  0  0  0  0
    3.6397    1.3766   -0.1025 H   0  0  0  0  0  0  0  0  0  0  0  0
    5.0253   -2.4338   -1.1425 H   0  0  0  0  0  0  0  0  0  0  0  0
    5.7844    2.7860   -0.1920 H   0  0  0  0  0  0  0  0  0  0  0  0
    7.8895    2.4096    1.0562 H   0  0  0  0  0  0  0  0  0  0  0  0
    8.0623    0.6788    0.4483 H   0  0  0  0  0  0  0  0  0  0  0  0
    7.9321    3.1506   -1.3969 H   0  0  0  0  0  0  0  0  0  0  0  0
    8.0168    1.3889   -1.9530 H   0  0  0  0  0  0  0  0  0  0  0  0
    1.1290   -3.7541   -1.8658 H   0  0  0  0  0  0  0  0  0  0  0  0
    1.2280   -4.1907   -0.1060 H   0  0  0  0  0  0  0  0  0  0  0  0
  1  2  1  0
  2  3  1  0
  3  4  1  0
  4  5  1  0
  5  6  1  0
  6  7  1  0
  5  8  1  0
  8  9  1  0
  9 10  2  0
 10 11  1  0
 11 12  2  0
 12 13  1  0
 13 14  1  0
 14 15  1  0
 15 16  2  0
 16 17  1  0
 17 18  2  0
 18 19  1  0
 17 20  1  0
 20 21  1  0
 21 22  1  0
 13 23  2  0
 23 24  1  0
 24 25  1  0
 24 26  2  0
  7  2  1  0
 23  9  1  0
 19 15  1  0
 22 20  1  0
  1 27  1  0
  1 28  1  0
  2 29  1  6
  3 30  1  0
  3 31  1  0
  4 32  1  0
  4 33  1  0
  5 34  1  1
  6 35  1  0
  6 36  1  0
  7 37  1  0
  7 38  1  0
  8 39  1  0
 10 40  1  0
 11 41  1  0
 14 42  1  0
 16 43  1  0
 19 44  1  0
 20 45  1  0
 21 46  1  0
 21 47  1  0
 22 48  1  0
 22 49  1  0
 25 50  1  0
 25 51  1  0
M  END
$$$$
[H]c1nc2c([H])c([H])c([H])c([H])c2c(N([H])c2c(C(=O)N([H])[H])nn(C3([H])C([H])([H])C([H])([H])C([H])([H])C([H])([H])C3([H])[H])c2[H])c1[H]
     RDKit          3D

 46 49  0  0  0  0  0  0  0  0999 V2000
   -0.1093   -4.6301   -1.4795 N   0  0  0  0  0  0  0  0  0  0  0  0
   -0.8315   -3.4434   -1.0842 C   0  0  0  0  0  0  0  0  0  0  0  0
   -2.0430   -3.4754   -1.2102 O   0  0  0  0  0  0  0  0  0  0  0  0
   -0.0856   -2.3095   -0.5720 C   0  0  0  0  0  0  0  0  0  0  0  0
    1.2736   -2.2691   -0.4069 N   0  0  0  0  0  0  0  0  0  0  0  0
    1.6665   -1.1261    0.0824 N   0  0  0  0  0  0  0  0  0  0  0  0
    3.0632   -0.8028    0.3626 C   0  0  0  0  0  0  0  0  0  0  0  0
    3.8055   -0.4037   -0.8951 C   0  0  0  0  0  0  0  0  0  0  0  0
    4.2184    1.0478   -0.8224 C   0  0  0  0  0  0  0  0  0  0  0  0
    5.1731    1.2033    0.3455 C   0  0  0  0  0  0  0  0  0  0  0  0
    4.6372    0.5810    1.6027 C   0  0  0  0  0  0  0  0  0  0  0  0
    3.1616    0.2492    1.4440 C   0  0  0  0  0  0  0  0  0  0  0  0
    0.5729   -0.3630    0.2594 C   0  0  0  0  0  0  0  0  0  0  0  0
   -0.5418   -1.0722   -0.1391 C   0  0  0  0  0  0  0  0  0  0  0  0
   -1.8978   -0.6655   -0.2042 N   0  0  0  0  0  0  0  0  0  0  0  0
   -2.4923    0.4256    0.4636 C   0  0  0  0  0  0  0  0  0  0  0  0
   -1.9832    0.9997    1.6038 C   0  0  0  0  0  0  0  0  0  0  0  0
   -2.6120    2.0230    2.2976 C   0  0  0  0  0  0  0  0  0  0  0  0
   -3.7771    2.4771    1.8362 N   0  0  0  0  0  0  0  0  0  0  0  0
   -4.3349    1.9558    0.7198 C   0  0  0  0  0  0  0  0  0  0  0  0
   -5.5506    2.4590    0.2637 C   0  0  0  0  0  0  0  0  0  0  0  0
   -6.1573    1.9683   -0.8706 C   0  0  0  0  0  0  0  0  0  0  0  0
   -5.5641    0.9591   -1.5817 C   0  0  0  0  0  0  0  0  0  0  0  0
   -4.3504    0.4661   -1.1148 C   0  0  0  0  0  0  0  0  0  0  0  0
   -3.7227    0.9449    0.0249 C   0  0  0  0  0  0  0  0  0  0  0  0
    0.4584   -5.1564   -0.7801 H   0  0  0  0  0  0  0  0  0  0  0  0
   -0.1251   -4.9978   -2.4491 H   0  0  0  0  0  0  0  0  0  0  0  0
    3.5952   -1.7055    0.7618 H   0  0  0  0  0  0  0  0  0  0  0  0
    3.1779   -0.5887   -1.7945 H   0  0  0  0  0  0  0  0  0  0  0  0
    4.7345   -0.9914   -1.0480 H   0  0  0  0  0  0  0  0  0  0  0  0
    4.7721    1.2653   -1.7646 H   0  0  0  0  0  0  0  0  0  0  0  0
    3.3290    1.6922   -0.6983 H   0  0  0  0  0  0  0  0  0  0  0  0
    5.2772    2.3051    0.5200 H   0  0  0  0  0  0  0  0  0  0  0  0
    6.1846    0.8494    0.0716 H   0  0  0  0  0  0  0  0  0  0  0  0
    5.1608   -0.3802    1.8069 H   0  0  0  0  0  0  0  0  0  0  0  0
    4.7661    1.2155    2.5006 H   0  0  0  0  0  0  0  0  0  0  0  0
    2.8465   -0.2294    2.3883 H   0  0  0  0  0  0  0  0  0  0  0  0
    2.5744    1.1456    1.2459 H   0  0  0  0  0  0  0  0  0  0  0  0
    0.6145    0.6331    0.6290 H   0  0  0  0  0  0  0  0  0  0  0  0
   -2.5637   -1.2342   -0.8117 H   0  0  0  0  0  0  0  0  0  0  0  0
   -1.0475    0.6551    2.0665 H   0  0  0  0  0  0  0  0  0  0  0  0
   -2.1879    2.4637    3.1996 H   0  0  0  0  0  0  0  0  0  0  0  0
   -6.0274    3.2558    0.8175 H   0  0  0  0  0  0  0  0  0  0  0  0
   -7.1053    2.3539   -1.2342 H   0  0  0  0  0  0  0  0  0  0  0  0
   -6.0332    0.5668   -2.4751 H   0  0  0  0  0  0  0  0  0  0  0  0
   -3.9199   -0.3170   -1.7086 H   0  0  0  0  0  0  0  0  0  0  0  0
  1  2  1  0
  2  3  2  0
  2  4  1  0
  4  5  2  0
  5  6  1  0
  6  7  1  0
  7  8  1  0
  8  9  1  0
  9 10  1  0
 10 11  1  0
 11 12  1  0
  6 13  1  0
 13 14  2  0
 14 15  1  0
 15 16  1  0
 16 17  2  0
 17 18  1  0
 18 19  2  0
 19 20  1  0
 20 21  2  0
 21 22  1  0
 22 23  2  0
 23 24  1  0
 24 25  2  0
 14  4  1  0
 25 16  1  0
 12  7  1  0
 25 20  1  0
  1 26  1  0
  1 27  1  0
  7 28  1  0
  8 29  1  0
  8 30  1  0
  9 31  1  0
  9 32  1  0
 10 33  1  0
 10 34  1  0
 11 35  1  0
 11 36  1  0
 12 37  1  0
 12 38  1  0
 13 39  1  0
 15 40  1  0
 17 41  1  0
 18 42  1  0
 21 43  1  0
 22 44  1  0
 23 45  1  0
 24 46  1  0
M  END
$$$$
[H]c1nc(N([H])[H])c2c(n1)N(c1c([H])c([H])c([H])c(Cl)c1[H])C([H])([H])[C@@]([H])(c1c([H])c([H])c(N(C([H])([H])[H])C([H])([H])[H])c([H])c1[H])C2([H])[H]
     RDKit          3D

 49 52  0  0  0  0  0  0  0  0999 V2000
    5.6698    0.9217    1.7417 C   0  0  0  0  0  0  0  0  0  0  0  0
    5.2395    1.0333    0.3837 N   0  0  0  0  0  0  0  0  0  0  0  0
    6.1803    1.4401   -0.6368 C   0  0  0  0  0  0  0  0  0  0  0  0
    3.8896    0.7496    0.0097 C   0  0  0  0  0  0  0  0  0  0  0  0
    3.4839    0.8587   -1.2953 C   0  0  0  0  0  0  0  0  0  0  0  0
    2.1691    0.5825   -1.6605 C   0  0  0  0  0  0  0  0  0  0  0  0
    1.2258    0.1913   -0.7383 C   0  0  0  0  0  0  0  0  0  0  0  0
    1.6448    0.0848    0.5714 C   0  0  0  0  0  0  0  0  0  0  0  0
    2.9489    0.3569    0.9452 C   0  0  0  0  0  0  0  0  0  0  0  0
   -0.1593   -0.0909   -1.1771 C   0  0  1  0  0  0  0  0  0  0  0  0
   -0.4557   -1.5748   -0.9840 C   0  0  0  0  0  0  0  0  0  0  0  0
   -1.8412   -1.8217   -1.4750 C   0  0  0  0  0  0  0  0  0  0  0  0
   -2.1894   -2.8613   -2.2975 C   0  0  0  0  0  0  0  0  0  0  0  0
   -1.2072   -3.7722   -2.7199 N   0  0  0  0  0  0  0  0  0  0  0  0
   -3.4869   -2.9415   -2.6554 N   0  0  0  0  0  0  0  0  0  0  0  0
   -4.4346   -2.0740   -2.2561 C   0  0  0  0  0  0  0  0  0  0  0  0
   -4.0770   -1.0628   -1.4517 N   0  0  0  0  0  0  0  0  0  0  0  0
   -2.7946   -0.9301   -1.0596 C   0  0  0  0  0  0  0  0  0  0  0  0
   -2.4128    0.1355   -0.2086 N   0  0  0  0  0  0  0  0  0  0  0  0
   -1.1435    0.7865   -0.4549 C   0  0  0  0  0  0  0  0  0  0  0  0
   -3.2375    0.5578    0.8640 C   0  0  0  0  0  0  0  0  0  0  0  0
   -3.0009    1.8177    1.4176 C   0  0  0  0  0  0  0  0  0  0  0  0
   -3.7540    2.2900    2.4719 C   0  0  0  0  0  0  0  0  0  0  0  0
   -4.7710    1.5473    3.0281 C   0  0  0  0  0  0  0  0  0  0  0  0
   -5.0122    0.3067    2.4915 C   0  0  0  0  0  0  0  0  0  0  0  0
   -6.2989   -0.6485    3.1855 Cl  0  0  0  0  0  0  0  0  0  0  0  0
   -4.2488   -0.1693    1.4248 C   0  0  0  0  0  0  0  0  0  0  0  0
    6.6108    1.5030    1.8821 H   0  0  0  0  0  0  0  0  0  0  0  0
    4.9459    1.3475    2.4673 H   0  0  0  0  0  0  0  0  0  0  0  0
    5.9212   -0.1364    1.9862 H   0  0  0  0  0  0  0  0  0  0  0  0
    6.1154    0.7213   -1.4833 H   0  0  0  0  0  0  0  0  0  0  0  0
    7.2275    1.3787   -0.2716 H   0  0  0  0  0  0  0  0  0  0  0  0
    5.9842    2.4927   -0.9577 H   0  0  0  0  0  0  0  0  0  0  0  0
    4.2113    1.1692   -2.0600 H   0  0  0  0  0  0  0  0  0  0  0  0
    1.9320    0.6925   -2.7071 H   0  0  0  0  0  0  0  0  0  0  0  0
    0.9600   -0.2132    1.3262 H   0  0  0  0  0  0  0  0  0  0  0  0
    3.2700    0.2695    1.9843 H   0  0  0  0  0  0  0  0  0  0  0  0
   -0.2089    0.0744   -2.2717 H   0  0  0  0  0  0  0  0  0  0  0  0
    0.2203   -2.1240   -1.6717 H   0  0  0  0  0  0  0  0  0  0  0  0
   -0.3153   -1.8543    0.0618 H   0  0  0  0  0  0  0  0  0  0  0  0
   -0.7238   -3.6305   -3.6200 H   0  0  0  0  0  0  0  0  0  0  0  0
   -0.9708   -4.5846   -2.1255 H   0  0  0  0  0  0  0  0  0  0  0  0
   -5.4721   -2.1674   -2.5632 H   0  0  0  0  0  0  0  0  0  0  0  0
   -0.6936    1.1811    0.4992 H   0  0  0  0  0  0  0  0  0  0  0  0
   -1.3496    1.6795   -1.0795 H   0  0  0  0  0  0  0  0  0  0  0  0
   -2.2139    2.4212    1.0025 H   0  0  0  0  0  0  0  0  0  0  0  0
   -3.5667    3.2805    2.9060 H   0  0  0  0  0  0  0  0  0  0  0  0
   -5.3417    1.9492    3.8545 H   0  0  0  0  0  0  0  0  0  0  0  0
   -4.4684   -1.1630    1.0351 H   0  0  0  0  0  0  0  0  0  0  0  0
  1  2  1  0
  2  3  1  0
  2  4  1  0
  4  5  2  0
  5  6  1  0
  6  7  2  0
  7  8  1  0
  8  9  2  0
  7 10  1  0
 10 11  1  0
 11 12  1  0
 12 13  2  0
 13 14  1  0
 13 15  1  0
 15 16  2  0
 16 17  1  0
 17 18  2  0
 18 19  1  0
 19 20  1  0
 19 21  1  0
 21 22  2  0
 22 23  1  0
 23 24  2  0
 24 25  1  0
 25 26  1  0
 25 27  2  0
  9  4  1  0
 20 10  1  0
 27 21  1  0
 18 12  1  0
  1 28  1  0
  1 29  1  0
  1 30  1  0
  3 31  1  0
  3 32  1  0
  3 33  1  0
  5 34  1  0
  6 35  1  0
  8 36  1  0
  9 37  1  0
 10 38  1  6
 11 39  1  0
 11 40  1  0
 14 41  1  0
 14 42  1  0
 16 43  1  0
 20 44  1  0
 20 45  1  0
 22 46  1  0
 23 47  1  0
 24 48  1  0
 27 49  1  0
M  END
$$$$
[H]c1c(-c2c([H])c([H])c(N3C([H])([H])C([H])([H])OC([H])([H])C3([H])[H])c([H])c2[H])nc(N([H])[H])nc1C1([H])N(C([H])([H])[H])C([H])([H])C([H])([H])C1([H])[H]
     RDKit          3D

 50 53  0  0  0  0  0  0  0  0999 V2000
   -6.5878   -0.0569   -0.5625 C   0  0  0  0  0  0  0  0  0  0  0  0
   -5.3440   -0.1780    0.1587 N   0  0  0  0  0  0  0  0  0  0  0  0
   -5.1286    0.8779    1.0988 C   0  0  0  0  0  0  0  0  0  0  0  0
   -4.6231    2.0315    0.2840 C   0  0  0  0  0  0  0  0  0  0  0  0
   -4.0537    1.4180   -0.9950 C   0  0  0  0  0  0  0  0  0  0  0  0
   -4.2213   -0.0328   -0.7823 C   0  0  0  0  0  0  0  0  0  0  0  0
   -3.0744   -0.8260   -0.4021 C   0  0  0  0  0  0  0  0  0  0  0  0
   -3.3124   -2.1126   -0.0090 N   0  0  0  0  0  0  0  0  0  0  0  0
   -2.3165   -2.9298    0.3632 C   0  0  0  0  0  0  0  0  0  0  0  0
   -2.6353   -4.2642    0.7632 N   0  0  0  0  0  0  0  0  0  0  0  0
   -1.0661   -2.4933    0.3547 N   0  0  0  0  0  0  0  0  0  0  0  0
   -0.7225   -1.2235   -0.0217 C   0  0  0  0  0  0  0  0  0  0  0  0
   -1.7514   -0.4070   -0.3972 C   0  0  0  0  0  0  0  0  0  0  0  0
    0.6424   -0.7746   -0.0219 C   0  0  0  0  0  0  0  0  0  0  0  0
    1.6938   -1.6202    0.3654 C   0  0  0  0  0  0  0  0  0  0  0  0
    2.9929   -1.1588    0.3543 C   0  0  0  0  0  0  0  0  0  0  0  0
    3.3147    0.1256   -0.0289 C   0  0  0  0  0  0  0  0  0  0  0  0
    2.2964    0.9675   -0.4115 C   0  0  0  0  0  0  0  0  0  0  0  0
    0.9905    0.4861   -0.3946 C   0  0  0  0  0  0  0  0  0  0  0  0
    4.6803    0.5932   -0.0343 N   0  0  0  0  0  0  0  0  0  0  0  0
    4.9967    1.9375   -0.4534 C   0  0  0  0  0  0  0  0  0  0  0  0
    6.4410    1.9481   -0.9080 C   0  0  0  0  0  0  0  0  0  0  0  0
    7.2005    1.5471    0.1992 O   0  0  0  0  0  0  0  0  0  0  0  0
    7.0744    0.1965    0.4031 C   0  0  0  0  0  0  0  0  0  0  0  0
    5.6862   -0.3334    0.3923 C   0  0  0  0  0  0  0  0  0  0  0  0
   -7.3160    0.5984   -0.0805 H   0  0  0  0  0  0  0  0  0  0  0  0
   -6.3779    0.2233   -1.6304 H   0  0  0  0  0  0  0  0  0  0  0  0
   -7.0198   -1.0914   -0.6184 H   0  0  0  0  0  0  0  0  0  0  0  0
   -4.3001    0.5583    1.7759 H   0  0  0  0  0  0  0  0  0  0  0  0
   -6.0490    1.1288    1.6778 H   0  0  0  0  0  0  0  0  0  0  0  0
   -3.8504    2.6274    0.8108 H   0  0  0  0  0  0  0  0  0  0  0  0
   -5.4864    2.6976    0.0849 H   0  0  0  0  0  0  0  0  0  0  0  0
   -3.0769    1.8031   -1.2492 H   0  0  0  0  0  0  0  0  0  0  0  0
   -4.7381    1.7984   -1.8188 H   0  0  0  0  0  0  0  0  0  0  0  0
   -4.6261   -0.4677   -1.7454 H   0  0  0  0  0  0  0  0  0  0  0  0
   -1.9231   -5.0314    0.8077 H   0  0  0  0  0  0  0  0  0  0  0  0
   -3.6025   -4.5231    1.0284 H   0  0  0  0  0  0  0  0  0  0  0  0
   -1.6046    0.5985   -0.7087 H   0  0  0  0  0  0  0  0  0  0  0  0
    1.4843   -2.6412    0.6749 H   0  0  0  0  0  0  0  0  0  0  0  0
    3.7948   -1.8472    0.6637 H   0  0  0  0  0  0  0  0  0  0  0  0
    2.4746    1.9854   -0.7231 H   0  0  0  0  0  0  0  0  0  0  0  0
    0.2407    1.1935   -0.7047 H   0  0  0  0  0  0  0  0  0  0  0  0
    4.3982    2.2807   -1.3210 H   0  0  0  0  0  0  0  0  0  0  0  0
    4.8071    2.6133    0.3972 H   0  0  0  0  0  0  0  0  0  0  0  0
    6.7670    2.9434   -1.2552 H   0  0  0  0  0  0  0  0  0  0  0  0
    6.5371    1.1655   -1.6905 H   0  0  0  0  0  0  0  0  0  0  0  0
    7.7490   -0.3303   -0.3008 H   0  0  0  0  0  0  0  0  0  0  0  0
    7.5038   -0.0170    1.4260 H   0  0  0  0  0  0  0  0  0  0  0  0
    5.6615   -1.2031   -0.3267 H   0  0  0  0  0  0  0  0  0  0  0  0
    5.3800   -0.7812    1.3754 H   0  0  0  0  0  0  0  0  0  0  0  0
  1  2  1  0
  2  3  1  0
  3  4  1  0
  4  5  1  0
  5  6  1  0
  6  7  1  0
  7  8  2  0
  8  9  1  0
  9 10  1  0
  9 11  2  0
 11 12  1  0
 12 13  2  0
 12 14  1  0
 14 15  2  0
 15 16  1  0
 16 17  2  0
 17 18  1  0
 18 19  2  0
 17 20  1  0
 20 21  1  0
 21 22  1  0
 22 23  1  0
 23 24  1  0
 24 25  1  0
  6  2  1  0
 13  7  1  0
 19 14  1  0
 25 20  1  0
  1 26  1  0
  1 27  1  0
  1 28  1  0
  3 29  1  0
  3 30  1  0
  4 31  1  0
  4 32  1  0
  5 33  1  0
  5 34  1  0
  6 35  1  0
 10 36  1  0
 10 37  1  0
 13 38  1  0
 15 39  1  0
 16 40  1  0
 18 41  1  0
 19 42  1  0
 21 43  1  0
 21 44  1  0
 22 45  1  0
 22 46  1  0
 24 47  1  0
 24 48  1  0
 25 49  1  0
 25 50  1  0
M  END
$$$$
[H]N=C(c1c([H])c([H])c(S(=O)(=O)N([H])c2c([H])c([H])c(-c3c([H])c(C(=O)O[H])n([H])c3[H])c(C#N)c2[H])c([H])c1[H])N([H])[H]
     RDKit          3D

 44 46  0  0  0  0  0  0  0  0999 V2000
   -6.0663   -2.1846   -1.1245 N   0  0  0  0  0  0  0  0  0  0  0  0
   -5.0392   -1.3479   -1.6907 C   0  0  0  0  0  0  0  0  0  0  0  0
   -4.7842   -1.4203   -2.9336 N   0  0  0  0  0  0  0  0  0  0  0  0
   -4.3174   -0.4344   -0.8073 C   0  0  0  0  0  0  0  0  0  0  0  0
   -4.6343   -0.3905    0.5561 C   0  0  0  0  0  0  0  0  0  0  0  0
   -3.9859    0.4487    1.4229 C   0  0  0  0  0  0  0  0  0  0  0  0
   -2.9872    1.2951    1.0017 C   0  0  0  0  0  0  0  0  0  0  0  0
   -2.6752    1.2530   -0.3361 C   0  0  0  0  0  0  0  0  0  0  0  0
   -3.3232    0.4050   -1.2390 C   0  0  0  0  0  0  0  0  0  0  0  0
   -2.1543    2.3733    2.1154 S   0  0  0  0  0  0  0  0  0  0  0  0
   -1.8544    3.6840    1.4894 O   0  0  0  0  0  0  0  0  0  0  0  0
   -3.1361    2.6602    3.2442 O   0  0  0  0  0  0  0  0  0  0  0  0
   -0.7832    1.5779    2.7759 N   0  0  0  0  0  0  0  0  0  0  0  0
    0.2811    1.1276    1.9484 C   0  0  0  0  0  0  0  0  0  0  0  0
    0.7749   -0.1461    2.1613 C   0  0  0  0  0  0  0  0  0  0  0  0
    1.8053   -0.5861    1.3595 C   0  0  0  0  0  0  0  0  0  0  0  0
    2.3321    0.2255    0.3674 C   0  0  0  0  0  0  0  0  0  0  0  0
    3.4282   -0.2943   -0.4609 C   0  0  0  0  0  0  0  0  0  0  0  0
    3.6288   -0.2707   -1.8036 C   0  0  0  0  0  0  0  0  0  0  0  0
    4.8080   -0.8909   -2.0601 N   0  0  0  0  0  0  0  0  0  0  0  0
    5.3716   -1.3134   -0.9161 C   0  0  0  0  0  0  0  0  0  0  0  0
    4.5200   -0.9483    0.1019 C   0  0  0  0  0  0  0  0  0  0  0  0
    6.6416   -2.0206   -0.7988 C   0  0  0  0  0  0  0  0  0  0  0  0
    7.1556   -2.4239    0.4247 O   0  0  0  0  0  0  0  0  0  0  0  0
    7.3116   -2.2855   -1.8243 O   0  0  0  0  0  0  0  0  0  0  0  0
    1.8088    1.4888    0.1906 C   0  0  0  0  0  0  0  0  0  0  0  0
    0.7634    1.9742    0.9821 C   0  0  0  0  0  0  0  0  0  0  0  0
    2.3245    2.3537   -0.8157 C   0  0  0  0  0  0  0  0  0  0  0  0
    2.7430    3.0726   -1.6198 N   0  0  0  0  0  0  0  0  0  0  0  0
   -5.8549   -3.1422   -0.7965 H   0  0  0  0  0  0  0  0  0  0  0  0
   -7.0316   -1.8276   -1.0422 H   0  0  0  0  0  0  0  0  0  0  0  0
   -4.0578   -0.8379   -3.3706 H   0  0  0  0  0  0  0  0  0  0  0  0
   -5.4292   -1.0627    0.8973 H   0  0  0  0  0  0  0  0  0  0  0  0
   -4.2631    0.4544    2.4870 H   0  0  0  0  0  0  0  0  0  0  0  0
   -1.8931    1.9052   -0.7082 H   0  0  0  0  0  0  0  0  0  0  0  0
   -3.0287    0.4230   -2.2750 H   0  0  0  0  0  0  0  0  0  0  0  0
   -0.7565    1.4342    3.8196 H   0  0  0  0  0  0  0  0  0  0  0  0
    0.3538   -0.7890    2.9510 H   0  0  0  0  0  0  0  0  0  0  0  0
    2.2233   -1.5942    1.5003 H   0  0  0  0  0  0  0  0  0  0  0  0
    2.9439    0.1743   -2.5189 H   0  0  0  0  0  0  0  0  0  0  0  0
    5.1623   -0.9880   -3.0340 H   0  0  0  0  0  0  0  0  0  0  0  0
    4.6869   -1.1435    1.1442 H   0  0  0  0  0  0  0  0  0  0  0  0
    6.6046   -2.9561    1.0587 H   0  0  0  0  0  0  0  0  0  0  0  0
    0.3826    2.9683    0.8133 H   0  0  0  0  0  0  0  0  0  0  0  0
  1  2  1  0
  2  3  2  3
  2  4  1  0
  4  5  2  0
  5  6  1  0
  6  7  2  0
  7  8  1  0
  8  9  2  0
  7 10  1  0
 10 11  2  0
 10 12  2  0
 10 13  1  0
 13 14  1  0
 14 15  2  0
 15 16  1  0
 16 17  2  0
 17 18  1  0
 18 19  2  0
 19 20  1  0
 20 21  1  0
 21 22  2  0
 21 23  1  0
 23 24  1  0
 23 25  2  0
 17 26  1  0
 26 27  2  0
 26 28  1  0
 28 29  3  0
  9  4  1  0
 27 14  1  0
 22 18  1  0
  1 30  1  0
  1 31  1  0
  3 32  1  0
  5 33  1  0
  6 34  1  0
  8 35  1  0
  9 36  1  0
 13 37  1  0
 15 38  1  0
 16 39  1  0
 19 40  1  0
 20 41  1  0
 22 42  1  0
 24 43  1  0
 27 44  1  0
M  END
$$$$
[H]C#Cc1c([H])c([H])c([H])c(C([H])([H])n2c(N([H])C(=O)c3c([H])c([H])c(OC(F)(F)F)c([H])c3[H])nc3c([H])c(SC([H])([H])[H])c([H])c([H])c32)c1[H]
     RDKit          3D

 52 55  0  0  0  0  0  0  0  0999 V2000
   -5.3534   -4.8785    2.2582 C   0  0  0  0  0  0  0  0  0  0  0  0
   -4.7756   -5.2977    0.5689 S   0  0  0  0  0  0  0  0  0  0  0  0
   -3.8670   -3.8621   -0.0340 C   0  0  0  0  0  0  0  0  0  0  0  0
   -4.5179   -2.8707   -0.7158 C   0  0  0  0  0  0  0  0  0  0  0  0
   -3.8087   -1.7600   -1.1806 C   0  0  0  0  0  0  0  0  0  0  0  0
   -2.4597   -1.6095   -0.9824 C   0  0  0  0  0  0  0  0  0  0  0  0
   -1.5307   -0.6644   -1.3221 N   0  0  0  0  0  0  0  0  0  0  0  0
   -1.7771    0.5617   -2.0468 C   0  0  0  0  0  0  0  0  0  0  0  0
   -2.1166    1.6573   -1.1116 C   0  0  0  0  0  0  0  0  0  0  0  0
   -3.4754    1.8778   -0.8587 C   0  0  0  0  0  0  0  0  0  0  0  0
   -3.8765    2.8846    0.0025 C   0  0  0  0  0  0  0  0  0  0  0  0
   -2.9069    3.6622    0.6019 C   0  0  0  0  0  0  0  0  0  0  0  0
   -1.5759    3.4855    0.3855 C   0  0  0  0  0  0  0  0  0  0  0  0
   -1.1798    2.4646   -0.4871 C   0  0  0  0  0  0  0  0  0  0  0  0
   -0.5503    4.2819    0.9973 C   0  0  0  0  0  0  0  0  0  0  0  0
    0.3048    4.9573    1.5137 C   0  0  0  0  0  0  0  0  0  0  0  0
   -0.3244   -1.0720   -0.8601 C   0  0  0  0  0  0  0  0  0  0  0  0
    0.9210   -0.4092   -1.0312 N   0  0  0  0  0  0  0  0  0  0  0  0
    2.0771   -0.9742   -0.4586 C   0  0  0  0  0  0  0  0  0  0  0  0
    1.9782   -2.0393    0.1945 O   0  0  0  0  0  0  0  0  0  0  0  0
    3.4158   -0.3750   -0.5859 C   0  0  0  0  0  0  0  0  0  0  0  0
    4.5179   -0.9806    0.0015 C   0  0  0  0  0  0  0  0  0  0  0  0
    5.8004   -0.4736   -0.0782 C   0  0  0  0  0  0  0  0  0  0  0  0
    6.0051    0.6944   -0.7759 C   0  0  0  0  0  0  0  0  0  0  0  0
    7.2573    1.2630   -0.9001 O   0  0  0  0  0  0  0  0  0  0  0  0
    7.7427    2.2132    0.0536 C   0  0  0  0  0  0  0  0  0  0  0  0
    6.8865    3.2830    0.0573 F   0  0  0  0  0  0  0  0  0  0  0  0
    9.0416    2.5390   -0.2207 F   0  0  0  0  0  0  0  0  0  0  0  0
    7.7271    1.6584    1.3312 F   0  0  0  0  0  0  0  0  0  0  0  0
    4.9343    1.3164   -1.3678 C   0  0  0  0  0  0  0  0  0  0  0  0
    3.6441    0.7942   -1.2799 C   0  0  0  0  0  0  0  0  0  0  0  0
   -0.5352   -2.2553   -0.2430 N   0  0  0  0  0  0  0  0  0  0  0  0
   -1.8195   -2.6165   -0.2954 C   0  0  0  0  0  0  0  0  0  0  0  0
   -2.5166   -3.7347    0.1761 C   0  0  0  0  0  0  0  0  0  0  0  0
   -6.1831   -5.5415    2.5313 H   0  0  0  0  0  0  0  0  0  0  0  0
   -5.6713   -3.8020    2.2563 H   0  0  0  0  0  0  0  0  0  0  0  0
   -4.4622   -4.9770    2.9112 H   0  0  0  0  0  0  0  0  0  0  0  0
   -5.5796   -2.9383   -0.8992 H   0  0  0  0  0  0  0  0  0  0  0  0
   -4.3282   -0.9900   -1.7294 H   0  0  0  0  0  0  0  0  0  0  0  0
   -2.6443    0.3843   -2.7423 H   0  0  0  0  0  0  0  0  0  0  0  0
   -0.8708    0.7939   -2.6502 H   0  0  0  0  0  0  0  0  0  0  0  0
   -4.2410    1.2990   -1.3220 H   0  0  0  0  0  0  0  0  0  0  0  0
   -4.9445    3.0553    0.1999 H   0  0  0  0  0  0  0  0  0  0  0  0
   -3.2275    4.4515    1.2776 H   0  0  0  0  0  0  0  0  0  0  0  0
   -0.1339    2.3154   -0.6843 H   0  0  0  0  0  0  0  0  0  0  0  0
    1.0577    5.5518    1.9616 H   0  0  0  0  0  0  0  0  0  0  0  0
    1.0091    0.4736   -1.5713 H   0  0  0  0  0  0  0  0  0  0  0  0
    4.3579   -1.8874    0.5429 H   0  0  0  0  0  0  0  0  0  0  0  0
    6.6482   -0.9589    0.3859 H   0  0  0  0  0  0  0  0  0  0  0  0
    5.0683    2.2263   -1.9160 H   0  0  0  0  0  0  0  0  0  0  0  0
    2.8304    1.3174   -1.7616 H   0  0  0  0  0  0  0  0  0  0  0  0
   -1.9721   -4.4946    0.7078 H   0  0  0  0  0  0  0  0  0  0  0  0
  1  2  1  0
  2  3  1  0
  3  4  2  0
  4  5  1  0
  5  6  2  0
  6  7  1  0
  7  8  1  0
  8  9  1  0
  9 10  2  0
 10 11  1  0
 11 12  2  0
 12 13  1  0
 13 14  2  0
 13 15  1  0
 15 16  3  0
  7 17  1  0
 17 18  1  0
 18 19  1  0
 19 20  2  0
 19 21  1  0
 21 22  2  0
 22 23  1  0
 23 24  2  0
 24 25  1  0
 25 26  1  0
 26 27  1  0
 26 28  1  0
 26 29  1  0
 24 30  1  0
 30 31  2  0
 17 32  2  0
 32 33  1  0
 33 34  2  0
 34  3  1  0
 33  6  1  0
 14  9  1  0
 31 21  1  0
  1 35  1  0
  1 36  1  0
  1 37  1  0
  4 38  1  0
  5 39  1  0
  8 40  1  0
  8 41  1  0
 10 42  1  0
 11 43  1  0
 12 44  1  0
 14 45  1  0
 16 46  1  0
 18 47  1  0
 22 48  1  0
 23 49  1  0
 30 50  1  0
 31 51  1  0
 34 52  1  0
M  END
$$$$
[H]/C(=C1/C(=O)N([H])c2c([H])c([H])c(Cl)c([H])c21)c1c([H])c([H])c(C(=O)N(C([H])([H])[H])C([H])([H])[H])c([H])c1[H]
     RDKit          3D

 38 40  0  0  0  0  0  0  0  0999 V2000
   -4.9945   -1.7655    0.0796 C   0  0  0  0  0  0  0  0  0  0  0  0
   -5.1239   -0.3783    0.3433 N   0  0  0  0  0  0  0  0  0  0  0  0
   -6.5018    0.0852    0.6556 C   0  0  0  0  0  0  0  0  0  0  0  0
   -4.1376    0.5840    0.3454 C   0  0  0  0  0  0  0  0  0  0  0  0
   -4.5885    1.7996    0.6331 O   0  0  0  0  0  0  0  0  0  0  0  0
   -2.7051    0.5086    0.0918 C   0  0  0  0  0  0  0  0  0  0  0  0
   -1.9956   -0.6106   -0.2232 C   0  0  0  0  0  0  0  0  0  0  0  0
   -0.6120   -0.6124   -0.4551 C   0  0  0  0  0  0  0  0  0  0  0  0
    0.1075    0.5424   -0.3723 C   0  0  0  0  0  0  0  0  0  0  0  0
    1.5284    0.7049   -0.5593 C   0  0  0  0  0  0  0  0  0  0  0  0
    2.4549    0.1016    0.1599 C   0  0  0  0  0  0  0  0  0  0  0  0
    2.2559   -0.8174    1.2610 C   0  0  0  0  0  0  0  0  0  0  0  0
    1.1926   -1.2008    1.7647 O   0  0  0  0  0  0  0  0  0  0  0  0
    3.5770   -1.2168    1.6820 N   0  0  0  0  0  0  0  0  0  0  0  0
    4.5503   -0.5641    0.8678 C   0  0  0  0  0  0  0  0  0  0  0  0
    5.9259   -0.6138    0.8723 C   0  0  0  0  0  0  0  0  0  0  0  0
    6.6528    0.1166   -0.0240 C   0  0  0  0  0  0  0  0  0  0  0  0
    6.0272    0.9290   -0.9640 C   0  0  0  0  0  0  0  0  0  0  0  0
    7.0196    1.8316   -2.0754 Cl  0  0  0  0  0  0  0  0  0  0  0  0
    4.6543    0.9780   -0.9677 C   0  0  0  0  0  0  0  0  0  0  0  0
    3.9245    0.2387   -0.0608 C   0  0  0  0  0  0  0  0  0  0  0  0
   -0.5951    1.6986   -0.0525 C   0  0  0  0  0  0  0  0  0  0  0  0
   -1.9453    1.6918    0.1719 C   0  0  0  0  0  0  0  0  0  0  0  0
   -5.9926   -2.3070    0.1563 H   0  0  0  0  0  0  0  0  0  0  0  0
   -4.3490   -2.3328    0.7982 H   0  0  0  0  0  0  0  0  0  0  0  0
   -4.6452   -2.0320   -0.9422 H   0  0  0  0  0  0  0  0  0  0  0  0
   -6.4451    0.9479    1.3395 H   0  0  0  0  0  0  0  0  0  0  0  0
   -7.0039    0.3114   -0.3077 H   0  0  0  0  0  0  0  0  0  0  0  0
   -7.0747   -0.7207    1.1381 H   0  0  0  0  0  0  0  0  0  0  0  0
   -2.4941   -1.5487   -0.3044 H   0  0  0  0  0  0  0  0  0  0  0  0
   -0.1008   -1.5248   -0.7163 H   0  0  0  0  0  0  0  0  0  0  0  0
    1.9216    1.3774   -1.3547 H   0  0  0  0  0  0  0  0  0  0  0  0
    3.7343   -1.8776    2.4602 H   0  0  0  0  0  0  0  0  0  0  0  0
    6.4286   -1.2312    1.5856 H   0  0  0  0  0  0  0  0  0  0  0  0
    7.7312    0.0510    0.0111 H   0  0  0  0  0  0  0  0  0  0  0  0
    4.1410    1.5970   -1.6827 H   0  0  0  0  0  0  0  0  0  0  0  0
   -0.0493    2.6454    0.0220 H   0  0  0  0  0  0  0  0  0  0  0  0
   -2.4735    2.6138    0.4216 H   0  0  0  0  0  0  0  0  0  0  0  0
  1  2  1  0
  2  3  1  0
  2  4  1  0
  4  5  2  0
  4  6  1  0
  6  7  2  0
  7  8  1  0
  8  9  2  0
  9 10  1  0
 10 11  2  0
 11 12  1  0
 12 13  2  0
 12 14  1  0
 14 15  1  0
 15 16  2  0
 16 17  1  0
 17 18  2  0
 18 19  1  0
 18 20  1  0
 20 21  2  0
  9 22  1  0
 22 23  2  0
 23  6  1  0
 21 11  1  0
 21 15  1  0
  1 24  1  0
  1 25  1  0
  1 26  1  0
  3 27  1  0
  3 28  1  0
  3 29  1  0
  7 30  1  0
  8 31  1  0
 10 32  1  0
 14 33  1  0
 16 34  1  0
 17 35  1  0
 20 36  1  0
 22 37  1  0
 23 38  1  0
M  END
$$$$
[H]c1c([H])c(N2C([H])([H])C([H])([H])OC([H])([H])C2([H])[H])c([H])c(C([H])([H])C2([H])C([H])([H])C([H])([H])N(C([H])([H])C([H])([H])Oc3c([H])c([H])c([H])c4nc(C([H])([H])[H])c([H])c([H])c34)C([H])([H])C2([H])[H])c1[H]
     RDKit          3D

 68 72  0  0  0  0  0  0  0  0999 V2000
   -9.6326    1.3892    1.6558 C   0  0  0  0  0  0  0  0  0  0  0  0
   -8.3456    0.9450    1.0500 C   0  0  0  0  0  0  0  0  0  0  0  0
   -7.8073    1.6588   -0.0232 C   0  0  0  0  0  0  0  0  0  0  0  0
   -6.6262    1.2362   -0.5648 C   0  0  0  0  0  0  0  0  0  0  0  0
   -6.0055    0.1184   -0.0326 C   0  0  0  0  0  0  0  0  0  0  0  0
   -4.7815   -0.3232   -0.5894 C   0  0  0  0  0  0  0  0  0  0  0  0
   -4.2726    0.3394   -1.5943 O   0  0  0  0  0  0  0  0  0  0  0  0
   -3.3430    0.5592   -2.5147 C   0  0  0  0  0  0  0  0  0  0  0  0
   -1.9464    0.9036   -2.1334 C   0  0  0  0  0  0  0  0  0  0  0  0
   -1.1716    0.0207   -1.3861 N   0  0  0  0  0  0  0  0  0  0  0  0
   -0.7184   -1.1849   -1.9650 C   0  0  0  0  0  0  0  0  0  0  0  0
   -0.1178   -2.0544   -0.8711 C   0  0  0  0  0  0  0  0  0  0  0  0
    0.8876   -1.3458   -0.0265 C   0  0  0  0  0  0  0  0  0  0  0  0
    2.1589   -2.1334    0.1627 C   0  0  0  0  0  0  0  0  0  0  0  0
    3.1652   -1.4426    0.9970 C   0  0  0  0  0  0  0  0  0  0  0  0
    3.1282   -1.6172    2.3614 C   0  0  0  0  0  0  0  0  0  0  0  0
    4.0736   -0.9703    3.1236 C   0  0  0  0  0  0  0  0  0  0  0  0
    5.0334   -0.1684    2.5447 C   0  0  0  0  0  0  0  0  0  0  0  0
    5.0892    0.0229    1.1575 C   0  0  0  0  0  0  0  0  0  0  0  0
    4.1405   -0.6275    0.4035 C   0  0  0  0  0  0  0  0  0  0  0  0
    6.0999    0.8625    0.6528 N   0  0  0  0  0  0  0  0  0  0  0  0
    6.2924    1.0829   -0.7532 C   0  0  0  0  0  0  0  0  0  0  0  0
    7.7049    0.5742   -1.0826 C   0  0  0  0  0  0  0  0  0  0  0  0
    8.6027    1.0845   -0.1855 O   0  0  0  0  0  0  0  0  0  0  0  0
    8.1361    2.0735    0.6437 C   0  0  0  0  0  0  0  0  0  0  0  0
    7.0047    1.5570    1.5439 C   0  0  0  0  0  0  0  0  0  0  0  0
    1.1122    0.0362   -0.5908 C   0  0  0  0  0  0  0  0  0  0  0  0
   -0.2616    0.7234   -0.5444 C   0  0  0  0  0  0  0  0  0  0  0  0
   -4.1964   -1.4387   -0.0317 C   0  0  0  0  0  0  0  0  0  0  0  0
   -4.7613   -2.1165    1.0295 C   0  0  0  0  0  0  0  0  0  0  0  0
   -5.9507   -1.6723    1.5575 C   0  0  0  0  0  0  0  0  0  0  0  0
   -6.5578   -0.5567    1.0163 C   0  0  0  0  0  0  0  0  0  0  0  0
   -7.7353   -0.1402    1.5604 N   0  0  0  0  0  0  0  0  0  0  0  0
   -9.7062    1.0155    2.6885 H   0  0  0  0  0  0  0  0  0  0  0  0
  -10.4725    1.0664    1.0055 H   0  0  0  0  0  0  0  0  0  0  0  0
   -9.6299    2.4898    1.6605 H   0  0  0  0  0  0  0  0  0  0  0  0
   -8.3451    2.5083   -0.3754 H   0  0  0  0  0  0  0  0  0  0  0  0
   -6.1667    1.7521   -1.3958 H   0  0  0  0  0  0  0  0  0  0  0  0
   -3.6833    1.4546   -3.1576 H   0  0  0  0  0  0  0  0  0  0  0  0
   -3.3642   -0.2603   -3.3009 H   0  0  0  0  0  0  0  0  0  0  0  0
   -2.0129    1.9139   -1.6180 H   0  0  0  0  0  0  0  0  0  0  0  0
   -1.4199    1.1809   -3.1036 H   0  0  0  0  0  0  0  0  0  0  0  0
   -1.5818   -1.7484   -2.3667 H   0  0  0  0  0  0  0  0  0  0  0  0
    0.0555   -1.0966   -2.7416 H   0  0  0  0  0  0  0  0  0  0  0  0
   -0.9325   -2.5152   -0.2545 H   0  0  0  0  0  0  0  0  0  0  0  0
    0.3878   -2.9060   -1.3701 H   0  0  0  0  0  0  0  0  0  0  0  0
    0.3922   -1.1715    0.9764 H   0  0  0  0  0  0  0  0  0  0  0  0
    1.9503   -3.1477    0.5121 H   0  0  0  0  0  0  0  0  0  0  0  0
    2.6076   -2.2431   -0.8657 H   0  0  0  0  0  0  0  0  0  0  0  0
    2.3652   -2.2511    2.7940 H   0  0  0  0  0  0  0  0  0  0  0  0
    4.0398   -1.1113    4.2078 H   0  0  0  0  0  0  0  0  0  0  0  0
    5.7676    0.3337    3.1475 H   0  0  0  0  0  0  0  0  0  0  0  0
    4.1410   -0.5115   -0.6783 H   0  0  0  0  0  0  0  0  0  0  0  0
    5.5507    0.6394   -1.4189 H   0  0  0  0  0  0  0  0  0  0  0  0
    6.3728    2.1977   -0.9570 H   0  0  0  0  0  0  0  0  0  0  0  0
    7.6640   -0.5281   -0.9579 H   0  0  0  0  0  0  0  0  0  0  0  0
    7.9881    0.8714   -2.1137 H   0  0  0  0  0  0  0  0  0  0  0  0
    7.8797    3.0076    0.1386 H   0  0  0  0  0  0  0  0  0  0  0  0
    8.9868    2.3379    1.3374 H   0  0  0  0  0  0  0  0  0  0  0  0
    7.5143    0.8883    2.2673 H   0  0  0  0  0  0  0  0  0  0  0  0
    6.5579    2.4548    2.0054 H   0  0  0  0  0  0  0  0  0  0  0  0
    1.5099    0.0296   -1.6083 H   0  0  0  0  0  0  0  0  0  0  0  0
    1.8377    0.6140    0.0362 H   0  0  0  0  0  0  0  0  0  0  0  0
   -0.1336    1.7946   -0.8053 H   0  0  0  0  0  0  0  0  0  0  0  0
   -0.6087    0.6113    0.5061 H   0  0  0  0  0  0  0  0  0  0  0  0
   -3.2686   -1.8594   -0.3915 H   0  0  0  0  0  0  0  0  0  0  0  0
   -4.2676   -2.9964    1.4446 H   0  0  0  0  0  0  0  0  0  0  0  0
   -6.3732   -2.2106    2.3807 H   0  0  0  0  0  0  0  0  0  0  0  0
  1  2  1  0
  2  3  2  0
  3  4  1  0
  4  5  2  0
  5  6  1  0
  6  7  1  0
  7  8  1  0
  8  9  1  0
  9 10  1  0
 10 11  1  0
 11 12  1  0
 12 13  1  0
 13 14  1  0
 14 15  1  0
 15 16  2  0
 16 17  1  0
 17 18  2  0
 18 19  1  0
 19 20  2  0
 19 21  1  0
 21 22  1  0
 22 23  1  0
 23 24  1  0
 24 25  1  0
 25 26  1  0
 13 27  1  0
 27 28  1  0
  6 29  2  0
 29 30  1  0
 30 31  2  0
 31 32  1  0
 32 33  2  0
 33  2  1  0
 32  5  1  0
 28 10  1  0
 20 15  1  0
 26 21  1  0
  1 34  1  0
  1 35  1  0
  1 36  1  0
  3 37  1  0
  4 38  1  0
  8 39  1  0
  8 40  1  0
  9 41  1  0
  9 42  1  0
 11 43  1  0
 11 44  1  0
 12 45  1  0
 12 46  1  0
 13 47  1  0
 14 48  1  0
 14 49  1  0
 16 50  1  0
 17 51  1  0
 18 52  1  0
 20 53  1  0
 22 54  1  0
 22 55  1  0
 23 56  1  0
 23 57  1  0
 25 58  1  0
 25 59  1  0
 26 60  1  0
 26 61  1  0
 27 62  1  0
 27 63  1  0
 28 64  1  0
 28 65  1  0
 29 66  1  0
 30 67  1  0
 31 68  1  0
M  END
$$$$
[H]c1c([H])c(C([H])([H])N2C([H])([H])C([H])([H])N(C([H])([H])C([H])([H])[H])C([H])([H])C2([H])[H])c(C(F)(F)F)c([H])c1N([H])c1nc2c([H])c([H])c(Cl)c([H])c2c(N([H])C([H])([H])[H])c1[H]
     RDKit          3D

 60 63  0  0  0  0  0  0  0  0999 V2000
    7.5574    1.6051    0.0357 C   0  0  0  0  0  0  0  0  0  0  0  0
    6.9807    0.5229   -0.7994 C   0  0  0  0  0  0  0  0  0  0  0  0
    5.5957    0.2156   -0.5064 N   0  0  0  0  0  0  0  0  0  0  0  0
    5.2040   -0.8496   -1.4056 C   0  0  0  0  0  0  0  0  0  0  0  0
    4.0413   -0.5057   -2.2521 C   0  0  0  0  0  0  0  0  0  0  0  0
    2.9263   -0.1113   -1.3822 N   0  0  0  0  0  0  0  0  0  0  0  0
    2.6716   -1.1536   -0.3983 C   0  0  0  0  0  0  0  0  0  0  0  0
    1.3723   -0.9129    0.2465 C   0  0  0  0  0  0  0  0  0  0  0  0
    0.5145    0.0855   -0.1396 C   0  0  0  0  0  0  0  0  0  0  0  0
   -0.7378    0.2947    0.4386 C   0  0  0  0  0  0  0  0  0  0  0  0
   -1.1672   -0.5226    1.4478 C   0  0  0  0  0  0  0  0  0  0  0  0
   -2.4167   -0.4159    2.0750 N   0  0  0  0  0  0  0  0  0  0  0  0
   -3.6686   -0.1269    1.4727 C   0  0  0  0  0  0  0  0  0  0  0  0
   -3.8821   -0.0124    0.1349 C   0  0  0  0  0  0  0  0  0  0  0  0
   -5.1317    0.3074   -0.3949 C   0  0  0  0  0  0  0  0  0  0  0  0
   -5.2776    0.4109   -1.8018 N   0  0  0  0  0  0  0  0  0  0  0  0
   -4.1227    0.1795   -2.6521 C   0  0  0  0  0  0  0  0  0  0  0  0
   -6.2013    0.5180    0.4443 C   0  0  0  0  0  0  0  0  0  0  0  0
   -7.4600    0.8360   -0.0009 C   0  0  0  0  0  0  0  0  0  0  0  0
   -8.4989    1.0362    0.9079 C   0  0  0  0  0  0  0  0  0  0  0  0
  -10.0784    1.4400    0.2536 Cl  0  0  0  0  0  0  0  0  0  0  0  0
   -8.3034    0.9239    2.2658 C   0  0  0  0  0  0  0  0  0  0  0  0
   -7.0357    0.6050    2.6877 C   0  0  0  0  0  0  0  0  0  0  0  0
   -5.9693    0.3966    1.8139 C   0  0  0  0  0  0  0  0  0  0  0  0
   -4.7510    0.0881    2.2729 N   0  0  0  0  0  0  0  0  0  0  0  0
   -0.3358   -1.5459    1.8725 C   0  0  0  0  0  0  0  0  0  0  0  0
    0.9099   -1.7349    1.2811 C   0  0  0  0  0  0  0  0  0  0  0  0
    1.8115   -2.8281    1.7285 C   0  0  0  0  0  0  0  0  0  0  0  0
    1.1239   -3.4998    2.7634 F   0  0  0  0  0  0  0  0  0  0  0  0
    2.9495   -2.3437    2.3453 F   0  0  0  0  0  0  0  0  0  0  0  0
    2.0440   -3.7856    0.7872 F   0  0  0  0  0  0  0  0  0  0  0  0
    3.3182    1.1287   -0.7016 C   0  0  0  0  0  0  0  0  0  0  0  0
    4.7802    1.3939   -0.6800 C   0  0  0  0  0  0  0  0  0  0  0  0
    7.1146    1.7370    1.0191 H   0  0  0  0  0  0  0  0  0  0  0  0
    7.5343    2.5563   -0.5688 H   0  0  0  0  0  0  0  0  0  0  0  0
    8.6571    1.4089    0.2026 H   0  0  0  0  0  0  0  0  0  0  0  0
    7.0247    0.7720   -1.9010 H   0  0  0  0  0  0  0  0  0  0  0  0
    7.5611   -0.4148   -0.6822 H   0  0  0  0  0  0  0  0  0  0  0  0
    6.0428   -1.1460   -2.1026 H   0  0  0  0  0  0  0  0  0  0  0  0
    5.0118   -1.7559   -0.8086 H   0  0  0  0  0  0  0  0  0  0  0  0
    3.7132   -1.3759   -2.8200 H   0  0  0  0  0  0  0  0  0  0  0  0
    4.2576    0.3839   -2.8847 H   0  0  0  0  0  0  0  0  0  0  0  0
    3.5183   -1.0683    0.3485 H   0  0  0  0  0  0  0  0  0  0  0  0
    2.7865   -2.1551   -0.8586 H   0  0  0  0  0  0  0  0  0  0  0  0
    0.8067    0.7533   -0.9572 H   0  0  0  0  0  0  0  0  0  0  0  0
   -1.3302    1.1249    0.0735 H   0  0  0  0  0  0  0  0  0  0  0  0
   -2.4046   -0.5745    3.1417 H   0  0  0  0  0  0  0  0  0  0  0  0
   -3.0878   -0.1902   -0.5667 H   0  0  0  0  0  0  0  0  0  0  0  0
   -6.1575    0.6435   -2.2940 H   0  0  0  0  0  0  0  0  0  0  0  0
   -3.7080   -0.8388   -2.3951 H   0  0  0  0  0  0  0  0  0  0  0  0
   -4.4260    0.1969   -3.7144 H   0  0  0  0  0  0  0  0  0  0  0  0
   -3.2929    0.8922   -2.4392 H   0  0  0  0  0  0  0  0  0  0  0  0
   -7.6215    0.9256   -1.0562 H   0  0  0  0  0  0  0  0  0  0  0  0
   -9.1247    1.0831    2.9640 H   0  0  0  0  0  0  0  0  0  0  0  0
   -6.8378    0.5069    3.7401 H   0  0  0  0  0  0  0  0  0  0  0  0
   -0.6188   -2.2198    2.6617 H   0  0  0  0  0  0  0  0  0  0  0  0
    2.8656    1.1250    0.3102 H   0  0  0  0  0  0  0  0  0  0  0  0
    2.8382    1.9533   -1.2651 H   0  0  0  0  0  0  0  0  0  0  0  0
    4.9701    2.0388    0.2291 H   0  0  0  0  0  0  0  0  0  0  0  0
    5.1447    1.9986   -1.5363 H   0  0  0  0  0  0  0  0  0  0  0  0
  1  2  1  0
  2  3  1  0
  3  4  1  0
  4  5  1  0
  5  6  1  0
  6  7  1  0
  7  8  1  0
  8  9  2  0
  9 10  1  0
 10 11  2  0
 11 12  1  0
 12 13  1  0
 13 14  2  0
 14 15  1  0
 15 16  1  0
 16 17  1  0
 15 18  2  0
 18 19  1  0
 19 20  2  0
 20 21  1  0
 20 22  1  0
 22 23  2  0
 23 24  1  0
 24 25  2  0
 11 26  1  0
 26 27  2  0
 27 28  1  0
 28 29  1  0
 28 30  1  0
 28 31  1  0
  6 32  1  0
 32 33  1  0
 33  3  1  0
 27  8  1  0
 25 13  1  0
 24 18  1  0
  1 34  1  0
  1 35  1  0
  1 36  1  0
  2 37  1  0
  2 38  1  0
  4 39  1  0
  4 40  1  0
  5 41  1  0
  5 42  1  0
  7 43  1  0
  7 44  1  0
  9 45  1  0
 10 46  1  0
 12 47  1  0
 14 48  1  0
 16 49  1  0
 17 50  1  0
 17 51  1  0
 17 52  1  0
 19 53  1  0
 22 54  1  0
 23 55  1  0
 26 56  1  0
 32 57  1  0
 32 58  1  0
 33 59  1  0
 33 60  1  0
M  END
$$$$
[H]c1c([H])c([H])c2c(c1[H])c1c3c(c4c5c([H])c([H])c([H])c([H])c5n5c4c1n2[C@@]1(C([H])([H])[H])O[C@]5([H])C([H])([H])[C@@]([H])(N([H])C([H])([H])[H])[C@@]1([H])OC([H])([H])[H])C(=O)N([H])C3([H])[H]
     RDKit          3D

 61 68  0  0  0  0  0  0  0  0999 V2000
   -3.3415   -2.0929    0.8927 C   0  0  0  0  0  0  0  0  0  0  0  0
   -2.7520   -0.8244    0.5060 N   0  0  0  0  0  0  0  0  0  0  0  0
   -2.5947   -0.7699   -0.9652 C   0  0  2  0  0  0  0  0  0  0  0  0
   -1.6635   -1.8336   -1.3456 C   0  0  0  0  0  0  0  0  0  0  0  0
   -0.4098   -1.3263   -1.9401 C   0  0  1  0  0  0  0  0  0  0  0  0
   -0.2904   -0.0961   -2.3609 O   0  0  0  0  0  0  0  0  0  0  0  0
   -0.9141    0.9817   -1.7381 C   0  0  1  0  0  0  0  0  0  0  0  0
   -0.8729    2.0231   -2.8643 C   0  0  0  0  0  0  0  0  0  0  0  0
   -2.2914    0.6326   -1.4119 C   0  0  2  0  0  0  0  0  0  0  0  0
   -2.9229    1.4324   -0.4622 O   0  0  0  0  0  0  0  0  0  0  0  0
   -4.0664    2.0564   -0.9455 C   0  0  0  0  0  0  0  0  0  0  0  0
   -0.0747    1.3904   -0.5981 N   0  0  0  0  0  0  0  0  0  0  0  0
    0.0066    2.5943   -0.0347 C   0  0  0  0  0  0  0  0  0  0  0  0
   -0.6403    3.7755   -0.2701 C   0  0  0  0  0  0  0  0  0  0  0  0
   -0.3753    4.9057    0.4704 C   0  0  0  0  0  0  0  0  0  0  0  0
    0.5715    4.8915    1.4994 C   0  0  0  0  0  0  0  0  0  0  0  0
    1.2169    3.7192    1.7374 C   0  0  0  0  0  0  0  0  0  0  0  0
    0.9447    2.6014    0.9941 C   0  0  0  0  0  0  0  0  0  0  0  0
    1.4533    1.3308    1.0530 C   0  0  0  0  0  0  0  0  0  0  0  0
    2.4134    0.7192    1.8621 C   0  0  0  0  0  0  0  0  0  0  0  0
    3.2252    1.2814    2.9656 C   0  0  0  0  0  0  0  0  0  0  0  0
    4.0513    0.2282    3.4563 N   0  0  0  0  0  0  0  0  0  0  0  0
    3.7725   -0.9500    2.6928 C   0  0  0  0  0  0  0  0  0  0  0  0
    4.3602   -2.0093    2.9202 O   0  0  0  0  0  0  0  0  0  0  0  0
    2.7553   -0.6238    1.7110 C   0  0  0  0  0  0  0  0  0  0  0  0
    2.1006   -1.3257    0.7242 C   0  0  0  0  0  0  0  0  0  0  0  0
    2.1422   -2.6347    0.2794 C   0  0  0  0  0  0  0  0  0  0  0  0
    2.8759   -3.7217    0.6638 C   0  0  0  0  0  0  0  0  0  0  0  0
    2.6892   -4.9254    0.0128 C   0  0  0  0  0  0  0  0  0  0  0  0
    1.7808   -5.0386   -1.0084 C   0  0  0  0  0  0  0  0  0  0  0  0
    1.0343   -3.9515   -1.4066 C   0  0  0  0  0  0  0  0  0  0  0  0
    1.2263   -2.7646   -0.7562 C   0  0  0  0  0  0  0  0  0  0  0  0
    0.6469   -1.5975   -0.9447 N   0  0  0  0  0  0  0  0  0  0  0  0
    1.1358   -0.7009   -0.0851 C   0  0  0  0  0  0  0  0  0  0  0  0
    0.8119    0.6350    0.0794 C   0  0  0  0  0  0  0  0  0  0  0  0
   -3.9345   -1.8764    1.8249 H   0  0  0  0  0  0  0  0  0  0  0  0
   -2.5804   -2.8202    1.1896 H   0  0  0  0  0  0  0  0  0  0  0  0
   -4.0376   -2.4413    0.1071 H   0  0  0  0  0  0  0  0  0  0  0  0
   -1.8252   -0.7857    0.9817 H   0  0  0  0  0  0  0  0  0  0  0  0
   -3.6418   -1.0758   -1.3069 H   0  0  0  0  0  0  0  0  0  0  0  0
   -1.4743   -2.5407   -0.4944 H   0  0  0  0  0  0  0  0  0  0  0  0
   -2.1827   -2.5069   -2.1019 H   0  0  0  0  0  0  0  0  0  0  0  0
   -0.1764   -2.0147   -2.8352 H   0  0  0  0  0  0  0  0  0  0  0  0
   -1.8561    2.5173   -2.9808 H   0  0  0  0  0  0  0  0  0  0  0  0
   -0.0367    2.7359   -2.7018 H   0  0  0  0  0  0  0  0  0  0  0  0
   -0.6761    1.5932   -3.8662 H   0  0  0  0  0  0  0  0  0  0  0  0
   -2.9127    0.7625   -2.3525 H   0  0  0  0  0  0  0  0  0  0  0  0
   -4.5472    2.6842   -0.1440 H   0  0  0  0  0  0  0  0  0  0  0  0
   -3.8494    2.7776   -1.7563 H   0  0  0  0  0  0  0  0  0  0  0  0
   -4.7942    1.3294   -1.3803 H   0  0  0  0  0  0  0  0  0  0  0  0
   -1.3647    3.8112   -1.0348 H   0  0  0  0  0  0  0  0  0  0  0  0
   -0.8845    5.8355    0.2847 H   0  0  0  0  0  0  0  0  0  0  0  0
    0.7949    5.7654    2.0918 H   0  0  0  0  0  0  0  0  0  0  0  0
    1.9682    3.6487    2.5304 H   0  0  0  0  0  0  0  0  0  0  0  0
    3.8868    2.0907    2.5395 H   0  0  0  0  0  0  0  0  0  0  0  0
    2.5967    1.6993    3.7873 H   0  0  0  0  0  0  0  0  0  0  0  0
    4.7363    0.3270    4.2421 H   0  0  0  0  0  0  0  0  0  0  0  0
    3.5871   -3.7061    1.4353 H   0  0  0  0  0  0  0  0  0  0  0  0
    3.2659   -5.8106    0.3031 H   0  0  0  0  0  0  0  0  0  0  0  0
    1.6292   -5.9934   -1.5280 H   0  0  0  0  0  0  0  0  0  0  0  0
    0.3048   -4.0175   -2.2172 H   0  0  0  0  0  0  0  0  0  0  0  0
  1  2  1  0
  2  3  1  0
  3  4  1  0
  4  5  1  0
  5  6  1  0
  6  7  1  0
  7  8  1  6
  7  9  1  0
  9 10  1  0
 10 11  1  0
  7 12  1  0
 12 13  1  0
 13 14  2  0
 14 15  1  0
 15 16  2  0
 16 17  1  0
 17 18  2  0
 18 19  1  0
 19 20  2  0
 20 21  1  0
 21 22  1  0
 22 23  1  0
 23 24  2  0
 23 25  1  0
 25 26  2  0
 26 27  1  0
 27 28  2  0
 28 29  1  0
 29 30  2  0
 30 31  1  0
 31 32  2  0
 32 33  1  0
 33 34  1  0
 34 35  2  0
  9  3  1  0
 35 12  1  0
 33  5  1  0
 18 13  1  0
 35 19  1  0
 25 20  1  0
 34 26  1  0
 32 27  1  0
  1 36  1  0
  1 37  1  0
  1 38  1  0
  2 39  1  0
  3 40  1  6
  4 41  1  0
  4 42  1  0
  5 43  1  6
  8 44  1  0
  8 45  1  0
  8 46  1  0
  9 47  1  6
 11 48  1  0
 11 49  1  0
 11 50  1  0
 14 51  1  0
 15 52  1  0
 16 53  1  0
 17 54  1  0
 21 55  1  0
 21 56  1  0
 22 57  1  0
 28 58  1  0
 29 59  1  0
 30 60  1  0
 31 61  1  0
M  END
$$$$
[H]OC(=O)C(O/C([H])=C(\[H])C([H])([H])Oc1c([H])c([H])c([H])c(C([H])([H])N2C([H])([H])C([H])([H])C(c3c([H])c([H])c([H])c(O[H])c3[H])(C([H])([H])O[H])C([H])([H])C2([H])[H])c1[H])(C([H])([H])[H])C([H])([H])[H]
     RDKit          3D

 66 68  0  0  0  0  0  0  0  0999 V2000
   -9.1441    0.9087    0.8961 C   0  0  0  0  0  0  0  0  0  0  0  0
   -8.0651    0.1733    0.0277 C   0  0  0  0  0  0  0  0  0  0  0  0
   -8.1668   -1.2609    0.4576 C   0  0  0  0  0  0  0  0  0  0  0  0
   -6.8606    0.7251    0.3418 O   0  0  0  0  0  0  0  0  0  0  0  0
   -5.5738    0.4669   -0.0982 C   0  0  0  0  0  0  0  0  0  0  0  0
   -5.4084   -0.4315   -1.0672 C   0  0  0  0  0  0  0  0  0  0  0  0
   -4.0982   -0.7921   -1.6128 C   0  0  0  0  0  0  0  0  0  0  0  0
   -2.9751   -0.2566   -1.1851 O   0  0  0  0  0  0  0  0  0  0  0  0
   -2.0805   -0.0010   -0.2548 C   0  0  0  0  0  0  0  0  0  0  0  0
   -2.2310   -0.4510    1.0513 C   0  0  0  0  0  0  0  0  0  0  0  0
   -1.2888   -0.1732    1.9870 C   0  0  0  0  0  0  0  0  0  0  0  0
   -0.1768    0.5453    1.6773 C   0  0  0  0  0  0  0  0  0  0  0  0
    0.0360    1.0209    0.3982 C   0  0  0  0  0  0  0  0  0  0  0  0
    1.2460    1.7890    0.0078 C   0  0  0  0  0  0  0  0  0  0  0  0
    2.2780    0.9919   -0.6170 N   0  0  0  0  0  0  0  0  0  0  0  0
    3.3559    1.8720   -1.0708 C   0  0  0  0  0  0  0  0  0  0  0  0
    4.5770    1.0141   -1.3293 C   0  0  0  0  0  0  0  0  0  0  0  0
    5.1974    0.5799   -0.0521 C   0  0  0  0  0  0  0  0  0  0  0  0
    6.1812    1.6492    0.4055 C   0  0  0  0  0  0  0  0  0  0  0  0
    5.6147    2.8812    0.6299 O   0  0  0  0  0  0  0  0  0  0  0  0
    4.0784    0.3583    0.9491 C   0  0  0  0  0  0  0  0  0  0  0  0
    2.8019   -0.0667    0.2087 C   0  0  0  0  0  0  0  0  0  0  0  0
    5.9667   -0.6843   -0.1101 C   0  0  0  0  0  0  0  0  0  0  0  0
    6.2398   -1.2713   -1.3161 C   0  0  0  0  0  0  0  0  0  0  0  0
    6.9728   -2.4651   -1.3496 C   0  0  0  0  0  0  0  0  0  0  0  0
    7.4245   -3.0543   -0.1787 C   0  0  0  0  0  0  0  0  0  0  0  0
    7.1345   -2.4353    1.0184 C   0  0  0  0  0  0  0  0  0  0  0  0
    7.5691   -2.9926    2.1811 O   0  0  0  0  0  0  0  0  0  0  0  0
    6.4032   -1.2457    1.0642 C   0  0  0  0  0  0  0  0  0  0  0  0
   -0.9202    0.7377   -0.5346 C   0  0  0  0  0  0  0  0  0  0  0  0
   -8.5657    0.3972   -1.3538 C   0  0  0  0  0  0  0  0  0  0  0  0
   -9.6828   -0.2293   -1.8246 O   0  0  0  0  0  0  0  0  0  0  0  0
   -7.9205    1.2007   -2.1070 O   0  0  0  0  0  0  0  0  0  0  0  0
  -10.1088    0.4528    0.6224 H   0  0  0  0  0  0  0  0  0  0  0  0
   -9.0805    1.9824    0.7002 H   0  0  0  0  0  0  0  0  0  0  0  0
   -8.9512    0.6597    1.9584 H   0  0  0  0  0  0  0  0  0  0  0  0
   -9.1944   -1.5091    0.8495 H   0  0  0  0  0  0  0  0  0  0  0  0
   -7.4830   -1.4136    1.3396 H   0  0  0  0  0  0  0  0  0  0  0  0
   -7.9470   -1.9647   -0.3621 H   0  0  0  0  0  0  0  0  0  0  0  0
   -4.7428    0.9773    0.3258 H   0  0  0  0  0  0  0  0  0  0  0  0
   -6.2600   -0.9356   -1.4870 H   0  0  0  0  0  0  0  0  0  0  0  0
   -4.0458   -1.9605   -1.6171 H   0  0  0  0  0  0  0  0  0  0  0  0
   -4.1353   -0.6403   -2.7731 H   0  0  0  0  0  0  0  0  0  0  0  0
   -3.1163   -1.0360    1.3226 H   0  0  0  0  0  0  0  0  0  0  0  0
   -1.4037   -0.5272    3.0163 H   0  0  0  0  0  0  0  0  0  0  0  0
    0.5413    0.7432    2.4373 H   0  0  0  0  0  0  0  0  0  0  0  0
    1.6714    2.3138    0.9057 H   0  0  0  0  0  0  0  0  0  0  0  0
    0.9335    2.5788   -0.6948 H   0  0  0  0  0  0  0  0  0  0  0  0
    3.5119    2.7455   -0.4585 H   0  0  0  0  0  0  0  0  0  0  0  0
    3.0126    2.2515   -2.0742 H   0  0  0  0  0  0  0  0  0  0  0  0
    4.1675    0.1447   -1.9315 H   0  0  0  0  0  0  0  0  0  0  0  0
    5.2930    1.6007   -1.9338 H   0  0  0  0  0  0  0  0  0  0  0  0
    6.6901    1.3266    1.3490 H   0  0  0  0  0  0  0  0  0  0  0  0
    7.0148    1.7394   -0.3476 H   0  0  0  0  0  0  0  0  0  0  0  0
    5.0746    2.9107    1.4511 H   0  0  0  0  0  0  0  0  0  0  0  0
    4.2997   -0.4771    1.6347 H   0  0  0  0  0  0  0  0  0  0  0  0
    3.8953    1.2549    1.5300 H   0  0  0  0  0  0  0  0  0  0  0  0
    2.1002   -0.3940    0.9734 H   0  0  0  0  0  0  0  0  0  0  0  0
    3.1155   -0.9545   -0.4067 H   0  0  0  0  0  0  0  0  0  0  0  0
    5.8860   -0.8130   -2.2178 H   0  0  0  0  0  0  0  0  0  0  0  0
    7.1885   -2.9273   -2.3033 H   0  0  0  0  0  0  0  0  0  0  0  0
    7.9953   -3.9855   -0.2260 H   0  0  0  0  0  0  0  0  0  0  0  0
    8.4865   -2.7491    2.5794 H   0  0  0  0  0  0  0  0  0  0  0  0
    6.2317   -0.8412    2.0468 H   0  0  0  0  0  0  0  0  0  0  0  0
   -0.8079    1.0921   -1.5632 H   0  0  0  0  0  0  0  0  0  0  0  0
   -9.7515   -1.1455   -2.2242 H   0  0  0  0  0  0  0  0  0  0  0  0
  1  2  1  0
  2  3  1  0
  2  4  1  0
  4  5  1  0
  5  6  2  0
  6  7  1  0
  7  8  1  0
  8  9  1  0
  9 10  2  0
 10 11  1  0
 11 12  2  0
 12 13  1  0
 13 14  1  0
 14 15  1  0
 15 16  1  0
 16 17  1  0
 17 18  1  0
 18 19  1  0
 19 20  1  0
 18 21  1  0
 21 22  1  0
 18 23  1  0
 23 24  2  0
 24 25  1  0
 25 26  2  0
 26 27  1  0
 27 28  1  0
 27 29  2  0
 13 30  2  0
  2 31  1  0
 31 32  1  0
 31 33  2  0
 30  9  1  0
 22 15  1  0
 29 23  1  0
  1 34  1  0
  1 35  1  0
  1 36  1  0
  3 37  1  0
  3 38  1  0
  3 39  1  0
  5 40  1  0
  6 41  1  0
  7 42  1  0
  7 43  1  0
 10 44  1  0
 11 45  1  0
 12 46  1  0
 14 47  1  0
 14 48  1  0
 16 49  1  0
 16 50  1  0
 17 51  1  0
 17 52  1  0
 19 53  1  0
 19 54  1  0
 20 55  1  0
 21 56  1  0
 21 57  1  0
 22 58  1  0
 22 59  1  0
 24 60  1  0
 25 61  1  0
 26 62  1  0
 28 63  1  0
 29 64  1  0
 30 65  1  0
 32 66  1  0
M  END
$$$$
[H]SC([H])([H])[C@@]([H])(C(=O)N([H])C1([H])C([H])([H])C([H])([H])C([H])([H])C([H])([H])C1([H])[H])N([H])[H]
     RDKit          3D

 31 31  0  0  0  0  0  0  0  0999 V2000
   -3.8230    0.9732    1.1742 N   0  0  0  0  0  0  0  0  0  0  0  0
   -2.9744    0.0468    0.5096 C   0  0  1  0  0  0  0  0  0  0  0  0
   -3.2270   -0.0642   -0.9716 C   0  0  0  0  0  0  0  0  0  0  0  0
   -4.9106   -0.5999   -1.3452 S   0  0  0  0  0  0  0  0  0  0  0  0
   -1.5525    0.4553    0.6872 C   0  0  0  0  0  0  0  0  0  0  0  0
   -1.2643    1.4852    1.3469 O   0  0  0  0  0  0  0  0  0  0  0  0
   -0.4848   -0.2925    0.1260 N   0  0  0  0  0  0  0  0  0  0  0  0
    0.8809    0.0904    0.2903 C   0  0  0  0  0  0  0  0  0  0  0  0
    1.5949    0.3405   -1.0105 C   0  0  0  0  0  0  0  0  0  0  0  0
    2.8710   -0.4364   -1.1456 C   0  0  0  0  0  0  0  0  0  0  0  0
    3.7564   -0.0734    0.0394 C   0  0  0  0  0  0  0  0  0  0  0  0
    3.0392   -0.2847    1.3538 C   0  0  0  0  0  0  0  0  0  0  0  0
    1.6829   -0.9274    1.0843 C   0  0  0  0  0  0  0  0  0  0  0  0
   -3.6492    1.9652    0.9974 H   0  0  0  0  0  0  0  0  0  0  0  0
   -4.7952    0.6851    1.3088 H   0  0  0  0  0  0  0  0  0  0  0  0
   -3.1181   -0.9540    0.9447 H   0  0  0  0  0  0  0  0  0  0  0  0
   -2.5285   -0.8314   -1.3645 H   0  0  0  0  0  0  0  0  0  0  0  0
   -2.9957    0.8823   -1.4870 H   0  0  0  0  0  0  0  0  0  0  0  0
   -5.7558    0.4761   -1.5852 H   0  0  0  0  0  0  0  0  0  0  0  0
   -0.7315   -1.1460   -0.4202 H   0  0  0  0  0  0  0  0  0  0  0  0
    0.9098    1.0337    0.9098 H   0  0  0  0  0  0  0  0  0  0  0  0
    1.8614    1.4248   -1.0977 H   0  0  0  0  0  0  0  0  0  0  0  0
    0.9666    0.1194   -1.8982 H   0  0  0  0  0  0  0  0  0  0  0  0
    3.3910   -0.0583   -2.0545 H   0  0  0  0  0  0  0  0  0  0  0  0
    2.7274   -1.5226   -1.2310 H   0  0  0  0  0  0  0  0  0  0  0  0
    4.0029    1.0199   -0.0920 H   0  0  0  0  0  0  0  0  0  0  0  0
    4.6907   -0.6722   -0.0063 H   0  0  0  0  0  0  0  0  0  0  0  0
    3.6229   -0.8376    2.0904 H   0  0  0  0  0  0  0  0  0  0  0  0
    2.8077    0.7253    1.8028 H   0  0  0  0  0  0  0  0  0  0  0  0
    1.7824   -1.8847    0.5567 H   0  0  0  0  0  0  0  0  0  0  0  0
    1.2225   -1.1379    2.0692 H   0  0  0  0  0  0  0  0  0  0  0  0
  1  2  1  0
  2  3  1  0
  3  4  1  0
  2  5  1  0
  5  6  2  0
  5  7  1  0
  7  8  1  0
  8  9  1  0
  9 10  1  0
 10 11  1  0
 11 12  1  0
 12 13  1  0
 13  8  1  0
  1 14  1  0
  1 15  1  0
  2 16  1  1
  3 17  1  0
  3 18  1  0
  4 19  1  0
  7 20  1  0
  8 21  1  0
  9 22  1  0
  9 23  1  0
 10 24  1  0
 10 25  1  0
 11 26  1  0
 11 27  1  0
 12 28  1  0
 12 29  1  0
 13 30  1  0
 13 31  1  0
M  END
$$$$
[H]c1nc(N2C([H])([H])C([H])([H])OC([H])([H])C2([H])[H])c([H])c(-c2c3c([H])c(-c4c([H])c([H])c([H])c(N([H])C(=O)C5([H])C([H])([H])C([H])([H])OC([H])([H])C5([H])[H])c4F)c([H])nc3nn2-c2c([H])c([H])c(OC([H])([H])[H])c([H])c2F)c1[H]
     RDKit          3D

 78 84  0  0  0  0  0  0  0  0999 V2000
   -7.3450    6.9461    1.7081 C   0  0  0  0  0  0  0  0  0  0  0  0
   -6.9773    6.0570    0.7077 O   0  0  0  0  0  0  0  0  0  0  0  0
   -5.7991    5.3448    0.6183 C   0  0  0  0  0  0  0  0  0  0  0  0
   -4.7676    5.3895    1.5032 C   0  0  0  0  0  0  0  0  0  0  0  0
   -3.6227    4.6231    1.3148 C   0  0  0  0  0  0  0  0  0  0  0  0
   -3.4780    3.7868    0.2333 C   0  0  0  0  0  0  0  0  0  0  0  0
   -4.5391    3.7452   -0.6727 C   0  0  0  0  0  0  0  0  0  0  0  0
   -4.4093    2.9446   -1.7566 F   0  0  0  0  0  0  0  0  0  0  0  0
   -5.6744    4.5066   -0.4850 C   0  0  0  0  0  0  0  0  0  0  0  0
   -2.3106    3.0092    0.0255 N   0  0  0  0  0  0  0  0  0  0  0  0
   -1.1501    3.5741   -0.3553 N   0  0  0  0  0  0  0  0  0  0  0  0
   -0.2128    2.6575   -0.5494 C   0  0  0  0  0  0  0  0  0  0  0  0
    1.0815    2.7023   -0.9194 N   0  0  0  0  0  0  0  0  0  0  0  0
    1.7884    1.5782   -1.0218 C   0  0  0  0  0  0  0  0  0  0  0  0
    1.2500    0.3325   -0.7597 C   0  0  0  0  0  0  0  0  0  0  0  0
   -0.0810    0.2819   -0.3772 C   0  0  0  0  0  0  0  0  0  0  0  0
   -0.8394    1.4295   -0.2652 C   0  0  0  0  0  0  0  0  0  0  0  0
   -2.1596    1.6669    0.0960 C   0  0  0  0  0  0  0  0  0  0  0  0
   -3.1559    0.6603    0.3582 C   0  0  0  0  0  0  0  0  0  0  0  0
   -4.2218    0.9176    1.2191 C   0  0  0  0  0  0  0  0  0  0  0  0
   -5.2450    0.0140    1.4220 C   0  0  0  0  0  0  0  0  0  0  0  0
   -5.2085   -1.1419    0.7714 N   0  0  0  0  0  0  0  0  0  0  0  0
   -4.2273   -1.4799   -0.0767 C   0  0  0  0  0  0  0  0  0  0  0  0
   -3.2079   -0.5839   -0.2811 C   0  0  0  0  0  0  0  0  0  0  0  0
   -4.3067   -2.7623   -0.7242 N   0  0  0  0  0  0  0  0  0  0  0  0
   -3.4608   -3.1952   -1.7793 C   0  0  0  0  0  0  0  0  0  0  0  0
   -3.0815   -4.6266   -1.6012 C   0  0  0  0  0  0  0  0  0  0  0  0
   -4.0449   -5.4437   -1.0704 O   0  0  0  0  0  0  0  0  0  0  0  0
   -4.5698   -4.9605    0.1271 C   0  0  0  0  0  0  0  0  0  0  0  0
   -5.3350   -3.6889   -0.2670 C   0  0  0  0  0  0  0  0  0  0  0  0
    2.0563   -0.8838   -0.9323 C   0  0  0  0  0  0  0  0  0  0  0  0
    1.5261   -1.9315   -1.6592 C   0  0  0  0  0  0  0  0  0  0  0  0
    2.2243   -3.0794   -1.9111 C   0  0  0  0  0  0  0  0  0  0  0  0
    3.5289   -3.2074   -1.4163 C   0  0  0  0  0  0  0  0  0  0  0  0
    4.1235   -2.2165   -0.6874 C   0  0  0  0  0  0  0  0  0  0  0  0
    5.3836   -2.1870   -0.1837 N   0  0  0  0  0  0  0  0  0  0  0  0
    6.6384   -2.1582    0.3178 C   0  0  0  0  0  0  0  0  0  0  0  0
    7.4643   -3.1364    0.3038 O   0  0  0  0  0  0  0  0  0  0  0  0
    7.2332   -0.9113    0.9761 C   0  0  0  0  0  0  0  0  0  0  0  0
    7.4357    0.2015    0.0203 C   0  0  0  0  0  0  0  0  0  0  0  0
    8.8685    0.4082   -0.4067 C   0  0  0  0  0  0  0  0  0  0  0  0
    9.7719    0.1974    0.6156 O   0  0  0  0  0  0  0  0  0  0  0  0
    9.6746   -1.1433    0.9851 C   0  0  0  0  0  0  0  0  0  0  0  0
    8.4106   -1.2761    1.8092 C   0  0  0  0  0  0  0  0  0  0  0  0
    3.3124   -1.0369   -0.4673 C   0  0  0  0  0  0  0  0  0  0  0  0
    3.8790   -0.0616    0.2721 F   0  0  0  0  0  0  0  0  0  0  0  0
   -6.5818    7.7231    1.8255 H   0  0  0  0  0  0  0  0  0  0  0  0
   -7.6291    6.4562    2.6619 H   0  0  0  0  0  0  0  0  0  0  0  0
   -8.2780    7.4653    1.3365 H   0  0  0  0  0  0  0  0  0  0  0  0
   -4.8384    6.0215    2.3486 H   0  0  0  0  0  0  0  0  0  0  0  0
   -2.7864    4.6537    2.0186 H   0  0  0  0  0  0  0  0  0  0  0  0
   -6.4799    4.4403   -1.2246 H   0  0  0  0  0  0  0  0  0  0  0  0
    2.8193    1.6003   -1.3168 H   0  0  0  0  0  0  0  0  0  0  0  0
   -0.4768   -0.7000   -0.1414 H   0  0  0  0  0  0  0  0  0  0  0  0
   -4.2831    1.8139    1.7821 H   0  0  0  0  0  0  0  0  0  0  0  0
   -6.0733    0.2417    2.1074 H   0  0  0  0  0  0  0  0  0  0  0  0
   -2.4453   -0.8225   -0.9807 H   0  0  0  0  0  0  0  0  0  0  0  0
   -2.5378   -2.6013   -1.9366 H   0  0  0  0  0  0  0  0  0  0  0  0
   -4.0579   -3.0916   -2.7410 H   0  0  0  0  0  0  0  0  0  0  0  0
   -2.8705   -5.0333   -2.6346 H   0  0  0  0  0  0  0  0  0  0  0  0
   -2.1150   -4.6650   -1.0544 H   0  0  0  0  0  0  0  0  0  0  0  0
   -3.7720   -4.6223    0.8312 H   0  0  0  0  0  0  0  0  0  0  0  0
   -5.1994   -5.7201    0.5822 H   0  0  0  0  0  0  0  0  0  0  0  0
   -5.9572   -3.9581   -1.1416 H   0  0  0  0  0  0  0  0  0  0  0  0
   -5.9185   -3.2823    0.5875 H   0  0  0  0  0  0  0  0  0  0  0  0
    0.5265   -1.8682   -2.0525 H   0  0  0  0  0  0  0  0  0  0  0  0
    1.8133   -3.8981   -2.4819 H   0  0  0  0  0  0  0  0  0  0  0  0
    4.0387   -4.1508   -1.6612 H   0  0  0  0  0  0  0  0  0  0  0  0
    5.5574   -3.5131   -0.4233 H   0  0  0  0  0  0  0  0  0  0  0  0
    6.4192   -0.6058    1.6828 H   0  0  0  0  0  0  0  0  0  0  0  0
    6.8366    0.0163   -0.8919 H   0  0  0  0  0  0  0  0  0  0  0  0
    7.0444    1.1723    0.4303 H   0  0  0  0  0  0  0  0  0  0  0  0
    9.1050   -0.2098   -1.3127 H   0  0  0  0  0  0  0  0  0  0  0  0
    8.9778    1.4662   -0.7224 H   0  0  0  0  0  0  0  0  0  0  0  0
   10.5616   -1.5040    1.5300 H   0  0  0  0  0  0  0  0  0  0  0  0
    9.5209   -1.7156    0.0306 H   0  0  0  0  0  0  0  0  0  0  0  0
    8.3281   -2.3423    2.1201 H   0  0  0  0  0  0  0  0  0  0  0  0
    8.5313   -0.6292    2.7012 H   0  0  0  0  0  0  0  0  0  0  0  0
  1  2  1  0
  2  3  1  0
  3  4  2  0
  4  5  1  0
  5  6  2  0
  6  7  1  0
  7  8  1  0
  7  9  2  0
  6 10  1  0
 10 11  1  0
 11 12  2  0
 12 13  1  0
 13 14  2  0
 14 15  1  0
 15 16  2  0
 16 17  1  0
 17 18  2  0
 18 19  1  0
 19 20  2  0
 20 21  1  0
 21 22  2  0
 22 23  1  0
 23 24  2  0
 23 25  1  0
 25 26  1  0
 26 27  1  0
 27 28  1  0
 28 29  1  0
 29 30  1  0
 15 31  1  0
 31 32  2  0
 32 33  1  0
 33 34  2  0
 34 35  1  0
 35 36  1  0
 36 37  1  0
 37 38  2  0
 37 39  1  0
 39 40  1  0
 40 41  1  0
 41 42  1  0
 42 43  1  0
 43 44  1  0
 35 45  2  0
 45 46  1  0
  9  3  1  0
 18 10  1  0
 24 19  1  0
 30 25  1  0
 45 31  1  0
 17 12  1  0
 44 39  1  0
  1 47  1  0
  1 48  1  0
  1 49  1  0
  4 50  1  0
  5 51  1  0
  9 52  1  0
 14 53  1  0
 16 54  1  0
 20 55  1  0
 21 56  1  0
 24 57  1  0
 26 58  1  0
 26 59  1  0
 27 60  1  0
 27 61  1  0
 29 62  1  0
 29 63  1  0
 30 64  1  0
 30 65  1  0
 32 66  1  0
 33 67  1  0
 34 68  1  0
 36 69  1  0
 39 70  1  0
 40 71  1  0
 40 72  1  0
 41 73  1  0
 41 74  1  0
 43 75  1  0
 43 76  1  0
 44 77  1  0
 44 78  1  0
M  END
$$$$
[H]OB(O[H])[C@@]([H])(N([H])C(=O)[C@@]([H])(N([H])C(=O)c1oc([H])c([H])c1[H])C([H])([H])C([H])(C([H])([H])[H])C([H])([H])[H])C([H])([H])C([H])([H])C([H])([H])C([H])([H])[H]
     RDKit          3D

 51 51  0  0  0  0  0  0  0  0999 V2000
    4.8036    0.6409    2.5213 C   0  0  0  0  0  0  0  0  0  0  0  0
    5.2574   -0.4195    1.5544 C   0  0  0  0  0  0  0  0  0  0  0  0
    4.1499   -0.7953    0.5954 C   0  0  0  0  0  0  0  0  0  0  0  0
    3.7248    0.4252   -0.1940 C   0  0  0  0  0  0  0  0  0  0  0  0
    2.6165    0.0987   -1.1685 C   0  0  2  0  0  0  0  0  0  0  0  0
    1.4401   -0.4024   -0.5220 N   0  0  0  0  0  0  0  0  0  0  0  0
    0.2241    0.3086   -0.6227 C   0  0  0  0  0  0  0  0  0  0  0  0
    0.1803    1.3717   -1.2754 O   0  0  0  0  0  0  0  0  0  0  0  0
   -1.0363   -0.1755    0.0369 C   0  0  2  0  0  0  0  0  0  0  0  0
   -1.2586   -1.5760   -0.4120 C   0  0  0  0  0  0  0  0  0  0  0  0
   -2.4594   -2.2678    0.1242 C   0  0  0  0  0  0  0  0  0  0  0  0
   -2.4662   -2.3686    1.6340 C   0  0  0  0  0  0  0  0  0  0  0  0
   -3.7729   -1.7528   -0.3468 C   0  0  0  0  0  0  0  0  0  0  0  0
   -2.0699    0.7564   -0.2531 N   0  0  0  0  0  0  0  0  0  0  0  0
   -2.6925    1.6100    0.6789 C   0  0  0  0  0  0  0  0  0  0  0  0
   -2.3144    1.5565    1.8726 O   0  0  0  0  0  0  0  0  0  0  0  0
   -3.7439    2.5433    0.3288 C   0  0  0  0  0  0  0  0  0  0  0  0
   -4.4029    3.4115    1.1837 C   0  0  0  0  0  0  0  0  0  0  0  0
   -5.3267    4.1208    0.4562 C   0  0  0  0  0  0  0  0  0  0  0  0
   -5.2045    3.6624   -0.8303 C   0  0  0  0  0  0  0  0  0  0  0  0
   -4.2681    2.7403   -0.8634 O   0  0  0  0  0  0  0  0  0  0  0  0
    3.1154   -0.9405   -2.2551 B   0  0  0  0  0  0  0  0  0  0  0  0
    2.9565   -2.3476   -1.9692 O   0  0  0  0  0  0  0  0  0  0  0  0
    3.8104   -0.4319   -3.4332 O   0  0  0  0  0  0  0  0  0  0  0  0
    3.8720    0.2860    3.0425 H   0  0  0  0  0  0  0  0  0  0  0  0
    5.5757    0.7318    3.3218 H   0  0  0  0  0  0  0  0  0  0  0  0
    4.6836    1.6096    2.0331 H   0  0  0  0  0  0  0  0  0  0  0  0
    5.5186   -1.3243    2.1505 H   0  0  0  0  0  0  0  0  0  0  0  0
    6.1305   -0.0251    1.0080 H   0  0  0  0  0  0  0  0  0  0  0  0
    4.5410   -1.5935   -0.0513 H   0  0  0  0  0  0  0  0  0  0  0  0
    3.2789   -1.1584    1.1764 H   0  0  0  0  0  0  0  0  0  0  0  0
    3.4422    1.2546    0.4539 H   0  0  0  0  0  0  0  0  0  0  0  0
    4.6035    0.7456   -0.7943 H   0  0  0  0  0  0  0  0  0  0  0  0
    2.3647    1.0418   -1.6882 H   0  0  0  0  0  0  0  0  0  0  0  0
    1.5003   -1.2908    0.0170 H   0  0  0  0  0  0  0  0  0  0  0  0
   -0.8303   -0.1265    1.1381 H   0  0  0  0  0  0  0  0  0  0  0  0
   -0.3718   -2.2176   -0.1549 H   0  0  0  0  0  0  0  0  0  0  0  0
   -1.3208   -1.6496   -1.5348 H   0  0  0  0  0  0  0  0  0  0  0  0
   -2.3773   -3.3411   -0.2437 H   0  0  0  0  0  0  0  0  0  0  0  0
   -2.7926   -1.3840    2.0784 H   0  0  0  0  0  0  0  0  0  0  0  0
   -1.5226   -2.7156    2.0576 H   0  0  0  0  0  0  0  0  0  0  0  0
   -3.2539   -3.0960    1.9186 H   0  0  0  0  0  0  0  0  0  0  0  0
   -4.4520   -2.6291   -0.5280 H   0  0  0  0  0  0  0  0  0  0  0  0
   -3.6242   -1.2188   -1.3083 H   0  0  0  0  0  0  0  0  0  0  0  0
   -4.2572   -1.0793    0.4198 H   0  0  0  0  0  0  0  0  0  0  0  0
   -2.3999    0.8223   -1.2418 H   0  0  0  0  0  0  0  0  0  0  0  0
   -4.2050    3.5010    2.2552 H   0  0  0  0  0  0  0  0  0  0  0  0
   -5.9856    4.8640    0.8377 H   0  0  0  0  0  0  0  0  0  0  0  0
   -5.7952    4.0170   -1.6707 H   0  0  0  0  0  0  0  0  0  0  0  0
    2.0748   -2.6320   -2.3240 H   0  0  0  0  0  0  0  0  0  0  0  0
    4.3401   -1.1604   -3.8491 H   0  0  0  0  0  0  0  0  0  0  0  0
  1  2  1  0
  2  3  1  0
  3  4  1  0
  4  5  1  0
  5  6  1  0
  6  7  1  0
  7  8  2  0
  7  9  1  0
  9 10  1  0
 10 11  1  0
 11 12  1  0
 11 13  1  0
  9 14  1  0
 14 15  1  0
 15 16  2  0
 15 17  1  0
 17 18  2  0
 18 19  1  0
 19 20  2  0
 20 21  1  0
  5 22  1  0
 22 23  1  0
 22 24  1  0
 21 17  1  0
  1 25  1  0
  1 26  1  0
  1 27  1  0
  2 28  1  0
  2 29  1  0
  3 30  1  0
  3 31  1  0
  4 32  1  0
  4 33  1  0
  5 34  1  6
  6 35  1  0
  9 36  1  1
 10 37  1  0
 10 38  1  0
 11 39  1  0
 12 40  1  0
 12 41  1  0
 12 42  1  0
 13 43  1  0
 13 44  1  0
 13 45  1  0
 14 46  1  0
 18 47  1  0
 19 48  1  0
 20 49  1  0
 23 50  1  0
 24 51  1  0
M  END
$$$$
[H]c1c([H])c([H])c2c(c1[H])c1c3c(c4c5c([H])c([H])c([H])c([H])c5n5c4c1n2[C@@]1(C([H])([H])[H])O[C@]5([H])C([H])([H])[C@@]([H])(N([H])C([H])([H])[H])[C@@]1([H])OC([H])([H])[H])C(=O)N([H])C3([H])[H]
     RDKit          3D

 61 68  0  0  0  0  0  0  0  0999 V2000
   -3.3415   -2.0929    0.8927 C   0  0  0  0  0  0  0  0  0  0  0  0
   -2.7520   -0.8244    0.5060 N   0  0  0  0  0  0  0  0  0  0  0  0
   -2.5947   -0.7699   -0.9652 C   0  0  2  0  0  0  0  0  0  0  0  0
   -1.6635   -1.8336   -1.3456 C   0  0  0  0  0  0  0  0  0  0  0  0
   -0.4098   -1.3263   -1.9401 C   0  0  1  0  0  0  0  0  0  0  0  0
   -0.2904   -0.0961   -2.3609 O   0  0  0  0  0  0  0  0  0  0  0  0
   -0.9141    0.9817   -1.7381 C   0  0  1  0  0  0  0  0  0  0  0  0
   -0.8729    2.0231   -2.8643 C   0  0  0  0  0  0  0  0  0  0  0  0
   -2.2914    0.6326   -1.4119 C   0  0  2  0  0  0  0  0  0  0  0  0
   -2.9229    1.4324   -0.4622 O   0  0  0  0  0  0  0  0  0  0  0  0
   -4.0664    2.0564   -0.9455 C   0  0  0  0  0  0  0  0  0  0  0  0
   -0.0747    1.3904   -0.5981 N   0  0  0  0  0  0  0  0  0  0  0  0
    0.0066    2.5943   -0.0347 C   0  0  0  0  0  0  0  0  0  0  0  0
   -0.6403    3.7755   -0.2701 C   0  0  0  0  0  0  0  0  0  0  0  0
   -0.3753    4.9057    0.4704 C   0  0  0  0  0  0  0  0  0  0  0  0
    0.5715    4.8915    1.4994 C   0  0  0  0  0  0  0  0  0  0  0  0
    1.2169    3.7192    1.7374 C   0  0  0  0  0  0  0  0  0  0  0  0
    0.9447    2.6014    0.9941 C   0  0  0  0  0  0  0  0  0  0  0  0
    1.4533    1.3308    1.0530 C   0  0  0  0  0  0  0  0  0  0  0  0
    2.4134    0.7192    1.8621 C   0  0  0  0  0  0  0  0  0  0  0  0
    3.2252    1.2814    2.9656 C   0  0  0  0  0  0  0  0  0  0  0  0
    4.0513    0.2282    3.4563 N   0  0  0  0  0  0  0  0  0  0  0  0
    3.7725   -0.9500    2.6928 C   0  0  0  0  0  0  0  0  0  0  0  0
    4.3602   -2.0093    2.9202 O   0  0  0  0  0  0  0  0  0  0  0  0
    2.7553   -0.6238    1.7110 C   0  0  0  0  0  0  0  0  0  0  0  0
    2.1006   -1.3257    0.7242 C   0  0  0  0  0  0  0  0  0  0  0  0
    2.1422   -2.6347    0.2794 C   0  0  0  0  0  0  0  0  0  0  0  0
    2.8759   -3.7217    0.6638 C   0  0  0  0  0  0  0  0  0  0  0  0
    2.6892   -4.9254    0.0128 C   0  0  0  0  0  0  0  0  0  0  0  0
    1.7808   -5.0386   -1.0084 C   0  0  0  0  0  0  0  0  0  0  0  0
    1.0343   -3.9515   -1.4066 C   0  0  0  0  0  0  0  0  0  0  0  0
    1.2263   -2.7646   -0.7562 C   0  0  0  0  0  0  0  0  0  0  0  0
    0.6469   -1.5975   -0.9447 N   0  0  0  0  0  0  0  0  0  0  0  0
    1.1358   -0.7009   -0.0851 C   0  0  0  0  0  0  0  0  0  0  0  0
    0.8119    0.6350    0.0794 C   0  0  0  0  0  0  0  0  0  0  0  0
   -3.9345   -1.8764    1.8249 H   0  0  0  0  0  0  0  0  0  0  0  0
   -2.5804   -2.8202    1.1896 H   0  0  0  0  0  0  0  0  0  0  0  0
   -4.0376   -2.4413    0.1071 H   0  0  0  0  0  0  0  0  0  0  0  0
   -1.8252   -0.7857    0.9817 H   0  0  0  0  0  0  0  0  0  0  0  0
   -3.6418   -1.0758   -1.3069 H   0  0  0  0  0  0  0  0  0  0  0  0
   -1.4743   -2.5407   -0.4944 H   0  0  0  0  0  0  0  0  0  0  0  0
   -2.1827   -2.5069   -2.1019 H   0  0  0  0  0  0  0  0  0  0  0  0
   -0.1764   -2.0147   -2.8352 H   0  0  0  0  0  0  0  0  0  0  0  0
   -1.8561    2.5173   -2.9808 H   0  0  0  0  0  0  0  0  0  0  0  0
   -0.0367    2.7359   -2.7018 H   0  0  0  0  0  0  0  0  0  0  0  0
   -0.6761    1.5932   -3.8662 H   0  0  0  0  0  0  0  0  0  0  0  0
   -2.9127    0.7625   -2.3525 H   0  0  0  0  0  0  0  0  0  0  0  0
   -4.5472    2.6842   -0.1440 H   0  0  0  0  0  0  0  0  0  0  0  0
   -3.8494    2.7776   -1.7563 H   0  0  0  0  0  0  0  0  0  0  0  0
   -4.7942    1.3294   -1.3803 H   0  0  0  0  0  0  0  0  0  0  0  0
   -1.3647    3.8112   -1.0348 H   0  0  0  0  0  0  0  0  0  0  0  0
   -0.8845    5.8355    0.2847 H   0  0  0  0  0  0  0  0  0  0  0  0
    0.7949    5.7654    2.0918 H   0  0  0  0  0  0  0  0  0  0  0  0
    1.9682    3.6487    2.5304 H   0  0  0  0  0  0  0  0  0  0  0  0
    3.8868    2.0907    2.5395 H   0  0  0  0  0  0  0  0  0  0  0  0
    2.5967    1.6993    3.7873 H   0  0  0  0  0  0  0  0  0  0  0  0
    4.7363    0.3270    4.2421 H   0  0  0  0  0  0  0  0  0  0  0  0
    3.5871   -3.7061    1.4353 H   0  0  0  0  0  0  0  0  0  0  0  0
    3.2659   -5.8106    0.3031 H   0  0  0  0  0  0  0  0  0  0  0  0
    1.6292   -5.9934   -1.5280 H   0  0  0  0  0  0  0  0  0  0  0  0
    0.3048   -4.0175   -2.2172 H   0  0  0  0  0  0  0  0  0  0  0  0
  1  2  1  0
  2  3  1  0
  3  4  1  0
  4  5  1  0
  5  6  1  0
  6  7  1  0
  7  8  1  6
  7  9  1  0
  9 10  1  0
 10 11  1  0
  7 12  1  0
 12 13  1  0
 13 14  2  0
 14 15  1  0
 15 16  2  0
 16 17  1  0
 17 18  2  0
 18 19  1  0
 19 20  2  0
 20 21  1  0
 21 22  1  0
 22 23  1  0
 23 24  2  0
 23 25  1  0
 25 26  2  0
 26 27  1  0
 27 28  2  0
 28 29  1  0
 29 30  2  0
 30 31  1  0
 31 32  2  0
 32 33  1  0
 33 34  1  0
 34 35  2  0
  9  3  1  0
 35 12  1  0
 33  5  1  0
 18 13  1  0
 35 19  1  0
 25 20  1  0
 34 26  1  0
 32 27  1  0
  1 36  1  0
  1 37  1  0
  1 38  1  0
  2 39  1  0
  3 40  1  6
  4 41  1  0
  4 42  1  0
  5 43  1  6
  8 44  1  0
  8 45  1  0
  8 46  1  0
  9 47  1  6
 11 48  1  0
 11 49  1  0
 11 50  1  0
 14 51  1  0
 15 52  1  0
 16 53  1  0
 17 54  1  0
 21 55  1  0
 21 56  1  0
 22 57  1  0
 28 58  1  0
 29 59  1  0
 30 60  1  0
 31 61  1  0
M  END
$$$$
[H]c1c([H])c([H])c2c(c1[H])c1c3c(c4c5c([H])c([H])c([H])c([H])c5n5c4c1n2[C@@]1(C([H])([H])[H])O[C@]5([H])C([H])([H])[C@@]([H])(N([H])C([H])([H])[H])[C@@]1([H])OC([H])([H])[H])C(=O)N([H])C3([H])[H]
     RDKit          3D

 61 68  0  0  0  0  0  0  0  0999 V2000
   -3.3415   -2.0929    0.8927 C   0  0  0  0  0  0  0  0  0  0  0  0
   -2.7520   -0.8244    0.5060 N   0  0  0  0  0  0  0  0  0  0  0  0
   -2.5947   -0.7699   -0.9652 C   0  0  2  0  0  0  0  0  0  0  0  0
   -1.6635   -1.8336   -1.3456 C   0  0  0  0  0  0  0  0  0  0  0  0
   -0.4098   -1.3263   -1.9401 C   0  0  1  0  0  0  0  0  0  0  0  0
   -0.2904   -0.0961   -2.3609 O   0  0  0  0  0  0  0  0  0  0  0  0
   -0.9141    0.9817   -1.7381 C   0  0  1  0  0  0  0  0  0  0  0  0
   -0.8729    2.0231   -2.8643 C   0  0  0  0  0  0  0  0  0  0  0  0
   -2.2914    0.6326   -1.4119 C   0  0  2  0  0  0  0  0  0  0  0  0
   -2.9229    1.4324   -0.4622 O   0  0  0  0  0  0  0  0  0  0  0  0
   -4.0664    2.0564   -0.9455 C   0  0  0  0  0  0  0  0  0  0  0  0
   -0.0747    1.3904   -0.5981 N   0  0  0  0  0  0  0  0  0  0  0  0
    0.0066    2.5943   -0.0347 C   0  0  0  0  0  0  0  0  0  0  0  0
   -0.6403    3.7755   -0.2701 C   0  0  0  0  0  0  0  0  0  0  0  0
   -0.3753    4.9057    0.4704 C   0  0  0  0  0  0  0  0  0  0  0  0
    0.5715    4.8915    1.4994 C   0  0  0  0  0  0  0  0  0  0  0  0
    1.2169    3.7192    1.7374 C   0  0  0  0  0  0  0  0  0  0  0  0
    0.9447    2.6014    0.9941 C   0  0  0  0  0  0  0  0  0  0  0  0
    1.4533    1.3308    1.0530 C   0  0  0  0  0  0  0  0  0  0  0  0
    2.4134    0.7192    1.8621 C   0  0  0  0  0  0  0  0  0  0  0  0
    3.2252    1.2814    2.9656 C   0  0  0  0  0  0  0  0  0  0  0  0
    4.0513    0.2282    3.4563 N   0  0  0  0  0  0  0  0  0  0  0  0
    3.7725   -0.9500    2.6928 C   0  0  0  0  0  0  0  0  0  0  0  0
    4.3602   -2.0093    2.9202 O   0  0  0  0  0  0  0  0  0  0  0  0
    2.7553   -0.6238    1.7110 C   0  0  0  0  0  0  0  0  0  0  0  0
    2.1006   -1.3257    0.7242 C   0  0  0  0  0  0  0  0  0  0  0  0
    2.1422   -2.6347    0.2794 C   0  0  0  0  0  0  0  0  0  0  0  0
    2.8759   -3.7217    0.6638 C   0  0  0  0  0  0  0  0  0  0  0  0
    2.6892   -4.9254    0.0128 C   0  0  0  0  0  0  0  0  0  0  0  0
    1.7808   -5.0386   -1.0084 C   0  0  0  0  0  0  0  0  0  0  0  0
    1.0343   -3.9515   -1.4066 C   0  0  0  0  0  0  0  0  0  0  0  0
    1.2263   -2.7646   -0.7562 C   0  0  0  0  0  0  0  0  0  0  0  0
    0.6469   -1.5975   -0.9447 N   0  0  0  0  0  0  0  0  0  0  0  0
    1.1358   -0.7009   -0.0851 C   0  0  0  0  0  0  0  0  0  0  0  0
    0.8119    0.6350    0.0794 C   0  0  0  0  0  0  0  0  0  0  0  0
   -3.9345   -1.8764    1.8249 H   0  0  0  0  0  0  0  0  0  0  0  0
   -2.5804   -2.8202    1.1896 H   0  0  0  0  0  0  0  0  0  0  0  0
   -4.0376   -2.4413    0.1071 H   0  0  0  0  0  0  0  0  0  0  0  0
   -1.8252   -0.7857    0.9817 H   0  0  0  0  0  0  0  0  0  0  0  0
   -3.6418   -1.0758   -1.3069 H   0  0  0  0  0  0  0  0  0  0  0  0
   -1.4743   -2.5407   -0.4944 H   0  0  0  0  0  0  0  0  0  0  0  0
   -2.1827   -2.5069   -2.1019 H   0  0  0  0  0  0  0  0  0  0  0  0
   -0.1764   -2.0147   -2.8352 H   0  0  0  0  0  0  0  0  0  0  0  0
   -1.8561    2.5173   -2.9808 H   0  0  0  0  0  0  0  0  0  0  0  0
   -0.0367    2.7359   -2.7018 H   0  0  0  0  0  0  0  0  0  0  0  0
   -0.6761    1.5932   -3.8662 H   0  0  0  0  0  0  0  0  0  0  0  0
   -2.9127    0.7625   -2.3525 H   0  0  0  0  0  0  0  0  0  0  0  0
   -4.5472    2.6842   -0.1440 H   0  0  0  0  0  0  0  0  0  0  0  0
   -3.8494    2.7776   -1.7563 H   0  0  0  0  0  0  0  0  0  0  0  0
   -4.7942    1.3294   -1.3803 H   0  0  0  0  0  0  0  0  0  0  0  0
   -1.3647    3.8112   -1.0348 H   0  0  0  0  0  0  0  0  0  0  0  0
   -0.8845    5.8355    0.2847 H   0  0  0  0  0  0  0  0  0  0  0  0
    0.7949    5.7654    2.0918 H   0  0  0  0  0  0  0  0  0  0  0  0
    1.9682    3.6487    2.5304 H   0  0  0  0  0  0  0  0  0  0  0  0
    3.8868    2.0907    2.5395 H   0  0  0  0  0  0  0  0  0  0  0  0
    2.5967    1.6993    3.7873 H   0  0  0  0  0  0  0  0  0  0  0  0
    4.7363    0.3270    4.2421 H   0  0  0  0  0  0  0  0  0  0  0  0
    3.5871   -3.7061    1.4353 H   0  0  0  0  0  0  0  0  0  0  0  0
    3.2659   -5.8106    0.3031 H   0  0  0  0  0  0  0  0  0  0  0  0
    1.6292   -5.9934   -1.5280 H   0  0  0  0  0  0  0  0  0  0  0  0
    0.3048   -4.0175   -2.2172 H   0  0  0  0  0  0  0  0  0  0  0  0
  1  2  1  0
  2  3  1  0
  3  4  1  0
  4  5  1  0
  5  6  1  0
  6  7  1  0
  7  8  1  6
  7  9  1  0
  9 10  1  0
 10 11  1  0
  7 12  1  0
 12 13  1  0
 13 14  2  0
 14 15  1  0
 15 16  2  0
 16 17  1  0
 17 18  2  0
 18 19  1  0
 19 20  2  0
 20 21  1  0
 21 22  1  0
 22 23  1  0
 23 24  2  0
 23 25  1  0
 25 26  2  0
 26 27  1  0
 27 28  2  0
 28 29  1  0
 29 30  2  0
 30 31  1  0
 31 32  2  0
 32 33  1  0
 33 34  1  0
 34 35  2  0
  9  3  1  0
 35 12  1  0
 33  5  1  0
 18 13  1  0
 35 19  1  0
 25 20  1  0
 34 26  1  0
 32 27  1  0
  1 36  1  0
  1 37  1  0
  1 38  1  0
  2 39  1  0
  3 40  1  6
  4 41  1  0
  4 42  1  0
  5 43  1  6
  8 44  1  0
  8 45  1  0
  8 46  1  0
  9 47  1  6
 11 48  1  0
 11 49  1  0
 11 50  1  0
 14 51  1  0
 15 52  1  0
 16 53  1  0
 17 54  1  0
 21 55  1  0
 21 56  1  0
 22 57  1  0
 28 58  1  0
 29 59  1  0
 30 60  1  0
 31 61  1  0
M  END
$$$$
[H]c1nc2c([H])c(-n3c([H])nc([H])c3[H])c([H])c([H])c2c(-c2c([H])c([H])c(N(C([H])([H])[H])S(=O)(=O)C([H])([H])c3c([H])c(F)c([H])c(F)c3[H])c([H])c2[H])c1[H]
     RDKit          3D

 55 59  0  0  0  0  0  0  0  0999 V2000
    3.4622    1.9175   -3.3820 C   0  0  0  0  0  0  0  0  0  0  0  0
    2.9172    1.4039   -2.1393 N   0  0  0  0  0  0  0  0  0  0  0  0
    1.6027    0.8321   -2.1343 C   0  0  0  0  0  0  0  0  0  0  0  0
    0.5027    1.6258   -1.8927 C   0  0  0  0  0  0  0  0  0  0  0  0
   -0.7725    1.0968   -1.8830 C   0  0  0  0  0  0  0  0  0  0  0  0
   -1.0268   -0.2316   -2.1092 C   0  0  0  0  0  0  0  0  0  0  0  0
    0.0978   -1.0314   -2.3540 C   0  0  0  0  0  0  0  0  0  0  0  0
    1.3731   -0.5060   -2.3644 C   0  0  0  0  0  0  0  0  0  0  0  0
   -2.3383   -0.8650   -2.1153 C   0  0  0  0  0  0  0  0  0  0  0  0
   -2.7466   -1.5392   -3.2641 C   0  0  0  0  0  0  0  0  0  0  0  0
   -3.9864   -2.1062   -3.3065 C   0  0  0  0  0  0  0  0  0  0  0  0
   -4.8546   -2.0543   -2.2903 N   0  0  0  0  0  0  0  0  0  0  0  0
   -4.4854   -1.4147   -1.1792 C   0  0  0  0  0  0  0  0  0  0  0  0
   -5.3527   -1.3443   -0.0914 C   0  0  0  0  0  0  0  0  0  0  0  0
   -5.0405   -0.7142    1.0873 C   0  0  0  0  0  0  0  0  0  0  0  0
   -3.7909   -0.1384    1.1438 C   0  0  0  0  0  0  0  0  0  0  0  0
   -2.8822   -0.1793    0.0820 C   0  0  0  0  0  0  0  0  0  0  0  0
   -3.2480   -0.8165   -1.0607 C   0  0  0  0  0  0  0  0  0  0  0  0
   -5.9518   -0.6614    2.1790 N   0  0  0  0  0  0  0  0  0  0  0  0
   -5.9580    0.1921    3.2114 C   0  0  0  0  0  0  0  0  0  0  0  0
   -7.0241   -0.1224    4.0362 C   0  0  0  0  0  0  0  0  0  0  0  0
   -7.6582   -1.1629    3.5013 N   0  0  0  0  0  0  0  0  0  0  0  0
   -6.9953   -1.4778    2.3751 C   0  0  0  0  0  0  0  0  0  0  0  0
    3.8777    1.5042   -0.7228 S   0  0  0  0  0  0  0  0  0  0  0  0
    3.1111    2.3113    0.2985 O   0  0  0  0  0  0  0  0  0  0  0  0
    5.1353    2.2598   -1.0113 O   0  0  0  0  0  0  0  0  0  0  0  0
    4.2429   -0.1057   -0.0489 C   0  0  0  0  0  0  0  0  0  0  0  0
    5.0664    0.0971    1.1553 C   0  0  0  0  0  0  0  0  0  0  0  0
    4.4757    0.2469    2.3816 C   0  0  0  0  0  0  0  0  0  0  0  0
    5.2265    0.4401    3.5390 C   0  0  0  0  0  0  0  0  0  0  0  0
    4.6194    0.5860    4.7421 F   0  0  0  0  0  0  0  0  0  0  0  0
    6.6010    0.4772    3.4178 C   0  0  0  0  0  0  0  0  0  0  0  0
    7.2313    0.3289    2.1916 C   0  0  0  0  0  0  0  0  0  0  0  0
    8.5821    0.3739    2.1321 F   0  0  0  0  0  0  0  0  0  0  0  0
    6.4362    0.1392    1.0707 C   0  0  0  0  0  0  0  0  0  0  0  0
    4.0011    1.1557   -3.9596 H   0  0  0  0  0  0  0  0  0  0  0  0
    2.6059    2.2460   -4.0300 H   0  0  0  0  0  0  0  0  0  0  0  0
    4.0648    2.8443   -3.2204 H   0  0  0  0  0  0  0  0  0  0  0  0
    0.6706    2.6890   -1.7086 H   0  0  0  0  0  0  0  0  0  0  0  0
   -1.6383    1.7379   -1.6904 H   0  0  0  0  0  0  0  0  0  0  0  0
   -0.0830   -2.0947   -2.5370 H   0  0  0  0  0  0  0  0  0  0  0  0
    2.2364   -1.1339   -2.5549 H   0  0  0  0  0  0  0  0  0  0  0  0
   -2.0652   -1.5897   -4.0838 H   0  0  0  0  0  0  0  0  0  0  0  0
   -4.2858   -2.6197   -4.1939 H   0  0  0  0  0  0  0  0  0  0  0  0
   -6.3100   -1.8129   -0.1997 H   0  0  0  0  0  0  0  0  0  0  0  0
   -3.4836    0.3741    2.0474 H   0  0  0  0  0  0  0  0  0  0  0  0
   -1.9129    0.2782    0.1911 H   0  0  0  0  0  0  0  0  0  0  0  0
   -5.2471    0.9920    3.3706 H   0  0  0  0  0  0  0  0  0  0  0  0
   -7.3278    0.3686    4.9688 H   0  0  0  0  0  0  0  0  0  0  0  0
   -7.2826   -2.2906    1.7226 H   0  0  0  0  0  0  0  0  0  0  0  0
    4.7616   -0.7460   -0.7655 H   0  0  0  0  0  0  0  0  0  0  0  0
    3.3275   -0.6306    0.2622 H   0  0  0  0  0  0  0  0  0  0  0  0
    3.3997    0.2181    2.4784 H   0  0  0  0  0  0  0  0  0  0  0  0
    7.1820    0.6257    4.3066 H   0  0  0  0  0  0  0  0  0  0  0  0
    6.9377    0.0267    0.1335 H   0  0  0  0  0  0  0  0  0  0  0  0
  1  2  1  0
  2  3  1  0
  3  4  2  0
  4  5  1  0
  5  6  2  0
  6  7  1  0
  7  8  2  0
  6  9  1  0
  9 10  2  0
 10 11  1  0
 11 12  2  0
 12 13  1  0
 13 14  2  0
 14 15  1  0
 15 16  2  0
 16 17  1  0
 17 18  2  0
 15 19  1  0
 19 20  1  0
 20 21  2  0
 21 22  1  0
 22 23  2  0
  2 24  1  0
 24 25  2  0
 24 26  2  0
 24 27  1  0
 27 28  1  0
 28 29  2  0
 29 30  1  0
 30 31  1  0
 30 32  2  0
 32 33  1  0
 33 34  1  0
 33 35  2  0
  8  3  1  0
 18  9  1  0
 23 19  1  0
 35 28  1  0
 18 13  1  0
  1 36  1  0
  1 37  1  0
  1 38  1  0
  4 39  1  0
  5 40  1  0
  7 41  1  0
  8 42  1  0
 10 43  1  0
 11 44  1  0
 14 45  1  0
 16 46  1  0
 17 47  1  0
 20 48  1  0
 21 49  1  0
 23 50  1  0
 27 51  1  0
 27 52  1  0
 29 53  1  0
 32 54  1  0
 35 55  1  0
M  END
$$$$
[H]c1c([H])c([H])c2c(c1[H])c(C([H])([H])[C@@]([H])(C(=O)N([H])[C@]([H])(C(=O)N([H])[C@]([H])(C(=O)N([H])[C@]([H])(C(=O)N1C([H])([H])[C@]3([H])C([H])([H])C([H])([H])C([H])([H])[C@@]3([H])C([H])([H])[C@]1([H])C(=O)N([H])[H])C([H])([H])C([H])(C([H])([H])[H])C([H])([H])[H])C([H])([H])C([H])(C([H])([H])[H])C([H])([H])[H])C([H])([H])C(=O)N([H])[H])N([H])S(=O)(=O)C([H])([H])[H])c([H])n2[H]
     RDKit          3D

110113  0  0  0  0  0  0  0  0999 V2000
   -5.3225   -3.1539   -0.1637 C   0  0  0  0  0  0  0  0  0  0  0  0
   -4.0374   -3.0312   -0.8696 C   0  0  0  0  0  0  0  0  0  0  0  0
   -4.1951   -3.8225   -2.1918 C   0  0  0  0  0  0  0  0  0  0  0  0
   -3.5366   -1.6982   -1.2632 C   0  0  0  0  0  0  0  0  0  0  0  0
   -3.2454   -0.6806   -0.2416 C   0  0  2  0  0  0  0  0  0  0  0  0
   -2.2264   -1.1504    0.7033 N   0  0  0  0  0  0  0  0  0  0  0  0
   -1.0013   -0.4930    0.9346 C   0  0  0  0  0  0  0  0  0  0  0  0
   -0.8106    0.5866    0.2478 O   0  0  0  0  0  0  0  0  0  0  0  0
    0.0711   -0.8638    1.8353 C   0  0  2  0  0  0  0  0  0  0  0  0
   -0.2176   -1.0123    3.2796 C   0  0  0  0  0  0  0  0  0  0  0  0
   -1.1883   -2.0270    3.7318 C   0  0  0  0  0  0  0  0  0  0  0  0
   -0.7629   -3.4468    3.3326 C   0  0  0  0  0  0  0  0  0  0  0  0
   -1.1232   -2.0190    5.2818 C   0  0  0  0  0  0  0  0  0  0  0  0
    1.2190    0.0627    1.7636 N   0  0  0  0  0  0  0  0  0  0  0  0
    2.4954   -0.3446    1.2987 C   0  0  0  0  0  0  0  0  0  0  0  0
    2.6924   -1.5133    0.9132 O   0  0  0  0  0  0  0  0  0  0  0  0
    3.6518    0.6214    1.2621 C   0  0  2  0  0  0  0  0  0  0  0  0
    3.2815    1.8852    0.5878 C   0  0  0  0  0  0  0  0  0  0  0  0
    4.3274    2.9331    0.5800 C   0  0  0  0  0  0  0  0  0  0  0  0
    5.5973    2.8018    1.1967 N   0  0  0  0  0  0  0  0  0  0  0  0
    4.1125    4.0486   -0.0074 O   0  0  0  0  0  0  0  0  0  0  0  0
    4.7865   -0.0754    0.7188 N   0  0  0  0  0  0  0  0  0  0  0  0
    4.8963   -0.6055   -0.6023 C   0  0  0  0  0  0  0  0  0  0  0  0
    3.9207   -0.3943   -1.3826 O   0  0  0  0  0  0  0  0  0  0  0  0
    6.0642   -1.3772   -1.0307 C   0  0  2  0  0  0  0  0  0  0  0  0
    7.0446   -0.7798   -1.9410 C   0  0  0  0  0  0  0  0  0  0  0  0
    7.7616    0.4396   -1.6029 C   0  0  0  0  0  0  0  0  0  0  0  0
    8.9519    0.5678   -0.8758 C   0  0  0  0  0  0  0  0  0  0  0  0
    9.2655    1.8475   -0.7667 N   0  0  0  0  0  0  0  0  0  0  0  0
    8.3241    2.5686   -1.3973 C   0  0  0  0  0  0  0  0  0  0  0  0
    8.2440    3.9483   -1.5736 C   0  0  0  0  0  0  0  0  0  0  0  0
    7.1831    4.4417   -2.2990 C   0  0  0  0  0  0  0  0  0  0  0  0
    6.2436    3.5856   -2.8236 C   0  0  0  0  0  0  0  0  0  0  0  0
    6.3212    2.2363   -2.6497 C   0  0  0  0  0  0  0  0  0  0  0  0
    7.3878    1.7288   -1.9197 C   0  0  0  0  0  0  0  0  0  0  0  0
    5.5651   -2.5867   -1.7667 N   0  0  0  0  0  0  0  0  0  0  0  0
    6.0203   -4.0302   -0.9860 S   0  0  0  0  0  0  0  0  0  0  0  0
    7.7869   -4.2425   -0.8760 C   0  0  0  0  0  0  0  0  0  0  0  0
    5.4316   -4.0412    0.4005 O   0  0  0  0  0  0  0  0  0  0  0  0
    5.4937   -5.2297   -1.7165 O   0  0  0  0  0  0  0  0  0  0  0  0
   -4.4033   -0.1209    0.4211 C   0  0  0  0  0  0  0  0  0  0  0  0
   -4.3861   -0.2438    1.7199 O   0  0  0  0  0  0  0  0  0  0  0  0
   -5.5339    0.5295   -0.0845 N   0  0  0  0  0  0  0  0  0  0  0  0
   -6.5868    0.8905    0.8740 C   0  0  0  0  0  0  0  0  0  0  0  0
   -6.8521    2.3538    0.7306 C   0  0  2  0  0  0  0  0  0  0  0  0
   -8.0290    2.8401    1.5047 C   0  0  0  0  0  0  0  0  0  0  0  0
   -8.3488    4.1453    0.7968 C   0  0  0  0  0  0  0  0  0  0  0  0
   -7.8284    4.0131   -0.6038 C   0  0  0  0  0  0  0  0  0  0  0  0
   -7.3243    2.6223   -0.7079 C   0  0  1  0  0  0  0  0  0  0  0  0
   -6.1297    2.4227   -1.5643 C   0  0  0  0  0  0  0  0  0  0  0  0
   -5.7504    0.9244   -1.4468 C   0  0  2  0  0  0  0  0  0  0  0  0
   -6.8677    0.2153   -2.1021 C   0  0  0  0  0  0  0  0  0  0  0  0
   -7.1259    0.5656   -3.4586 N   0  0  0  0  0  0  0  0  0  0  0  0
   -7.5372   -0.6279   -1.5133 O   0  0  0  0  0  0  0  0  0  0  0  0
   -6.1368   -3.1427   -0.9590 H   0  0  0  0  0  0  0  0  0  0  0  0
   -5.4566   -4.1972    0.2760 H   0  0  0  0  0  0  0  0  0  0  0  0
   -5.5540   -2.4897    0.6548 H   0  0  0  0  0  0  0  0  0  0  0  0
   -3.2735   -3.6436   -0.3185 H   0  0  0  0  0  0  0  0  0  0  0  0
   -4.2460   -4.8838   -1.9505 H   0  0  0  0  0  0  0  0  0  0  0  0
   -3.2926   -3.6234   -2.7688 H   0  0  0  0  0  0  0  0  0  0  0  0
   -5.1319   -3.4285   -2.6606 H   0  0  0  0  0  0  0  0  0  0  0  0
   -4.1699   -1.3636   -2.1261 H   0  0  0  0  0  0  0  0  0  0  0  0
   -2.5475   -1.9323   -1.8278 H   0  0  0  0  0  0  0  0  0  0  0  0
   -2.7353    0.1856   -0.7672 H   0  0  0  0  0  0  0  0  0  0  0  0
   -2.4579   -2.0192    1.1913 H   0  0  0  0  0  0  0  0  0  0  0  0
    0.5051   -1.8546    1.4809 H   0  0  0  0  0  0  0  0  0  0  0  0
    0.7759   -1.2937    3.7639 H   0  0  0  0  0  0  0  0  0  0  0  0
   -0.4094    0.0035    3.7572 H   0  0  0  0  0  0  0  0  0  0  0  0
   -2.2299   -1.9092    3.4736 H   0  0  0  0  0  0  0  0  0  0  0  0
    0.1937   -3.6726    3.8487 H   0  0  0  0  0  0  0  0  0  0  0  0
   -0.5285   -3.4940    2.2342 H   0  0  0  0  0  0  0  0  0  0  0  0
   -1.4996   -4.2001    3.6028 H   0  0  0  0  0  0  0  0  0  0  0  0
   -1.8197   -1.2424    5.6392 H   0  0  0  0  0  0  0  0  0  0  0  0
   -1.4741   -3.0009    5.6388 H   0  0  0  0  0  0  0  0  0  0  0  0
   -0.1117   -1.7540    5.6243 H   0  0  0  0  0  0  0  0  0  0  0  0
    1.0224    1.0355    2.0792 H   0  0  0  0  0  0  0  0  0  0  0  0
    3.9197    0.9038    2.3288 H   0  0  0  0  0  0  0  0  0  0  0  0
    3.0117    1.7408   -0.4972 H   0  0  0  0  0  0  0  0  0  0  0  0
    2.3284    2.2866    1.0339 H   0  0  0  0  0  0  0  0  0  0  0  0
    6.2448    2.0358    0.9843 H   0  0  0  0  0  0  0  0  0  0  0  0
    5.8531    3.5518    1.9051 H   0  0  0  0  0  0  0  0  0  0  0  0
    5.6275   -0.2284    1.3326 H   0  0  0  0  0  0  0  0  0  0  0  0
    6.6143   -1.8121   -0.1574 H   0  0  0  0  0  0  0  0  0  0  0  0
    7.8724   -1.5425   -2.1926 H   0  0  0  0  0  0  0  0  0  0  0  0
    6.6152   -0.6149   -2.9846 H   0  0  0  0  0  0  0  0  0  0  0  0
    9.5043   -0.2912   -0.4773 H   0  0  0  0  0  0  0  0  0  0  0  0
   10.0997    2.2472   -0.2762 H   0  0  0  0  0  0  0  0  0  0  0  0
    9.0039    4.5876   -1.1432 H   0  0  0  0  0  0  0  0  0  0  0  0
    7.0955    5.5095   -2.4512 H   0  0  0  0  0  0  0  0  0  0  0  0
    5.4256    4.0093   -3.3870 H   0  0  0  0  0  0  0  0  0  0  0  0
    5.6144    1.5215   -3.0368 H   0  0  0  0  0  0  0  0  0  0  0  0
    5.9666   -2.5650   -2.7168 H   0  0  0  0  0  0  0  0  0  0  0  0
    7.9637   -5.1813   -0.3097 H   0  0  0  0  0  0  0  0  0  0  0  0
    8.2247   -4.3655   -1.8777 H   0  0  0  0  0  0  0  0  0  0  0  0
    8.2674   -3.4233   -0.2973 H   0  0  0  0  0  0  0  0  0  0  0  0
   -7.5234    0.3536    0.7099 H   0  0  0  0  0  0  0  0  0  0  0  0
   -6.2464    0.7253    1.9210 H   0  0  0  0  0  0  0  0  0  0  0  0
   -5.9995    3.0031    0.9210 H   0  0  0  0  0  0  0  0  0  0  0  0
   -7.6729    3.1170    2.5222 H   0  0  0  0  0  0  0  0  0  0  0  0
   -8.8768    2.1356    1.5231 H   0  0  0  0  0  0  0  0  0  0  0  0
   -9.4500    4.3544    0.8245 H   0  0  0  0  0  0  0  0  0  0  0  0
   -7.8343    5.0098    1.2688 H   0  0  0  0  0  0  0  0  0  0  0  0
   -7.1077    4.7865   -0.9121 H   0  0  0  0  0  0  0  0  0  0  0  0
   -8.7103    4.1638   -1.3007 H   0  0  0  0  0  0  0  0  0  0  0  0
   -8.1678    1.9426   -0.9407 H   0  0  0  0  0  0  0  0  0  0  0  0
   -6.3158    2.5728   -2.6479 H   0  0  0  0  0  0  0  0  0  0  0  0
   -5.3006    3.0400   -1.1992 H   0  0  0  0  0  0  0  0  0  0  0  0
   -4.8465    0.7621   -2.0866 H   0  0  0  0  0  0  0  0  0  0  0  0
   -6.4160    0.3075   -4.1726 H   0  0  0  0  0  0  0  0  0  0  0  0
   -7.9773    1.0629   -3.7833 H   0  0  0  0  0  0  0  0  0  0  0  0
  1  2  1  0
  2  3  1  0
  2  4  1  0
  4  5  1  0
  5  6  1  0
  6  7  1  0
  7  8  2  0
  7  9  1  0
  9 10  1  0
 10 11  1  0
 11 12  1  0
 11 13  1  0
  9 14  1  0
 14 15  1  0
 15 16  2  0
 15 17  1  0
 17 18  1  0
 18 19  1  0
 19 20  1  0
 19 21  2  0
 17 22  1  0
 22 23  1  0
 23 24  2  0
 23 25  1  0
 25 26  1  0
 26 27  1  0
 27 28  2  0
 28 29  1  0
 29 30  1  0
 30 31  2  0
 31 32  1  0
 32 33  2  0
 33 34  1  0
 34 35  2  0
 25 36  1  0
 36 37  1  0
 37 38  1  0
 37 39  2  0
 37 40  2  0
  5 41  1  0
 41 42  2  0
 41 43  1  0
 43 44  1  0
 44 45  1  0
 45 46  1  0
 46 47  1  0
 47 48  1  0
 48 49  1  0
 49 50  1  0
 50 51  1  0
 51 52  1  0
 52 53  1  0
 52 54  2  0
 35 27  1  0
 51 43  1  0
 35 30  1  0
 49 45  1  0
  1 55  1  0
  1 56  1  0
  1 57  1  0
  2 58  1  0
  3 59  1  0
  3 60  1  0
  3 61  1  0
  4 62  1  0
  4 63  1  0
  5 64  1  6
  6 65  1  0
  9 66  1  6
 10 67  1  0
 10 68  1  0
 11 69  1  0
 12 70  1  0
 12 71  1  0
 12 72  1  0
 13 73  1  0
 13 74  1  0
 13 75  1  0
 14 76  1  0
 17 77  1  1
 18 78  1  0
 18 79  1  0
 20 80  1  0
 20 81  1  0
 22 82  1  0
 25 83  1  1
 26 84  1  0
 26 85  1  0
 28 86  1  0
 29 87  1  0
 31 88  1  0
 32 89  1  0
 33 90  1  0
 34 91  1  0
 36 92  1  0
 38 93  1  0
 38 94  1  0
 38 95  1  0
 44 96  1  0
 44 97  1  0
 45 98  1  1
 46 99  1  0
 46100  1  0
 47101  1  0
 47102  1  0
 48103  1  0
 48104  1  0
 49105  1  6
 50106  1  0
 50107  1  0
 51108  1  6
 53109  1  0
 53110  1  0
M  END
$$$$
[H]N=C(N([H])[H])N([H])C([H])([H])C([H])([H])C([H])([H])[C@]([H])(C(=O)N([H])C([H])([H])C1([H])C([H])([H])C([H])([H])C([H])([H])C([H])([H])C1([H])[H])N([H])C(=O)[C@@]([H])(N([H])[H])C([H])([H])c1sc([H])c(O[H])c1[H]
     RDKit          3D

 64 65  0  0  0  0  0  0  0  0999 V2000
    3.0581    4.5477    4.7343 N   0  0  0  0  0  0  0  0  0  0  0  0
    2.4015    3.2947    4.7403 C   0  0  0  0  0  0  0  0  0  0  0  0
    2.5748    2.5028    5.7222 N   0  0  0  0  0  0  0  0  0  0  0  0
    1.5573    2.9484    3.6425 N   0  0  0  0  0  0  0  0  0  0  0  0
    0.4286    2.1135    3.8878 C   0  0  0  0  0  0  0  0  0  0  0  0
   -0.3784    1.7883    2.6218 C   0  0  0  0  0  0  0  0  0  0  0  0
    0.5194    1.0704    1.6911 C   0  0  0  0  0  0  0  0  0  0  0  0
   -0.0364    0.6681    0.3635 C   0  0  1  0  0  0  0  0  0  0  0  0
    1.0530   -0.0299   -0.3469 N   0  0  0  0  0  0  0  0  0  0  0  0
    1.4692    0.4819   -1.5896 C   0  0  0  0  0  0  0  0  0  0  0  0
    0.9304    1.4983   -2.0723 O   0  0  0  0  0  0  0  0  0  0  0  0
    2.5578   -0.1946   -2.3320 C   0  0  1  0  0  0  0  0  0  0  0  0
    2.7610    0.4496   -3.6266 N   0  0  0  0  0  0  0  0  0  0  0  0
    3.8291   -0.0632   -1.4899 C   0  0  0  0  0  0  0  0  0  0  0  0
    4.9033   -0.7670   -2.2910 C   0  0  0  0  0  0  0  0  0  0  0  0
    5.7195   -0.2134   -3.2396 C   0  0  0  0  0  0  0  0  0  0  0  0
    6.6099   -1.0205   -3.8351 C   0  0  0  0  0  0  0  0  0  0  0  0
    7.5197   -0.5786   -4.8388 O   0  0  0  0  0  0  0  0  0  0  0  0
    6.6249   -2.3337   -3.4395 C   0  0  0  0  0  0  0  0  0  0  0  0
    5.4017   -2.3937   -2.2574 S   0  0  0  0  0  0  0  0  0  0  0  0
   -1.2287   -0.2308    0.4431 C   0  0  0  0  0  0  0  0  0  0  0  0
   -1.0429   -1.4125    0.0795 O   0  0  0  0  0  0  0  0  0  0  0  0
   -2.4829    0.1926    0.8871 N   0  0  0  0  0  0  0  0  0  0  0  0
   -3.7246   -0.4379    1.0309 C   0  0  0  0  0  0  0  0  0  0  0  0
   -4.4654   -0.8399   -0.1855 C   0  0  0  0  0  0  0  0  0  0  0  0
   -3.8115   -1.7974   -1.0841 C   0  0  0  0  0  0  0  0  0  0  0  0
   -4.8956   -2.2154   -2.1245 C   0  0  0  0  0  0  0  0  0  0  0  0
   -5.7774   -3.1957   -1.3916 C   0  0  0  0  0  0  0  0  0  0  0  0
   -6.1480   -2.7093   -0.0212 C   0  0  0  0  0  0  0  0  0  0  0  0
   -5.8747   -1.2565    0.1897 C   0  0  0  0  0  0  0  0  0  0  0  0
    4.0371    4.6134    4.4146 H   0  0  0  0  0  0  0  0  0  0  0  0
    2.5555    5.3853    5.0482 H   0  0  0  0  0  0  0  0  0  0  0  0
    2.1450    1.5718    5.8230 H   0  0  0  0  0  0  0  0  0  0  0  0
    1.7568    3.2976    2.6969 H   0  0  0  0  0  0  0  0  0  0  0  0
    0.7063    1.1535    4.3784 H   0  0  0  0  0  0  0  0  0  0  0  0
   -0.2440    2.6458    4.6161 H   0  0  0  0  0  0  0  0  0  0  0  0
   -1.1569    1.0634    3.0245 H   0  0  0  0  0  0  0  0  0  0  0  0
   -0.8216    2.7156    2.2682 H   0  0  0  0  0  0  0  0  0  0  0  0
    1.4515    1.6914    1.5417 H   0  0  0  0  0  0  0  0  0  0  0  0
    0.8909    0.1455    2.2032 H   0  0  0  0  0  0  0  0  0  0  0  0
   -0.2915    1.5522   -0.2230 H   0  0  0  0  0  0  0  0  0  0  0  0
    1.4722   -0.8792    0.1033 H   0  0  0  0  0  0  0  0  0  0  0  0
    2.3304   -1.2616   -2.5349 H   0  0  0  0  0  0  0  0  0  0  0  0
    2.0864    0.0657   -4.3306 H   0  0  0  0  0  0  0  0  0  0  0  0
    2.6563    1.4864   -3.5659 H   0  0  0  0  0  0  0  0  0  0  0  0
    4.0971    0.9913   -1.4578 H   0  0  0  0  0  0  0  0  0  0  0  0
    3.6755   -0.5583   -0.5279 H   0  0  0  0  0  0  0  0  0  0  0  0
    5.6339    0.8715   -3.4955 H   0  0  0  0  0  0  0  0  0  0  0  0
    8.4187   -0.2407   -4.4738 H   0  0  0  0  0  0  0  0  0  0  0  0
    7.2916   -3.1295   -3.8259 H   0  0  0  0  0  0  0  0  0  0  0  0
   -2.5040    1.2624    1.1599 H   0  0  0  0  0  0  0  0  0  0  0  0
   -3.6713   -1.3000    1.7804 H   0  0  0  0  0  0  0  0  0  0  0  0
   -4.4309    0.2667    1.5965 H   0  0  0  0  0  0  0  0  0  0  0  0
   -4.5974    0.1215   -0.8013 H   0  0  0  0  0  0  0  0  0  0  0  0
   -3.4653   -2.6808   -0.5501 H   0  0  0  0  0  0  0  0  0  0  0  0
   -3.0643   -1.2966   -1.7392 H   0  0  0  0  0  0  0  0  0  0  0  0
   -4.3412   -2.7541   -2.8951 H   0  0  0  0  0  0  0  0  0  0  0  0
   -5.3811   -1.2871   -2.4239 H   0  0  0  0  0  0  0  0  0  0  0  0
   -6.6784   -3.3522   -2.0159 H   0  0  0  0  0  0  0  0  0  0  0  0
   -5.2392   -4.1604   -1.3463 H   0  0  0  0  0  0  0  0  0  0  0  0
   -5.5512   -3.2851    0.7107 H   0  0  0  0  0  0  0  0  0  0  0  0
   -7.2091   -2.9536    0.1595 H   0  0  0  0  0  0  0  0  0  0  0  0
   -6.5733   -0.6672   -0.4273 H   0  0  0  0  0  0  0  0  0  0  0  0
   -6.0370   -0.9609    1.2408 H   0  0  0  0  0  0  0  0  0  0  0  0
  1  2  1  0
  2  3  2  3
  2  4  1  0
  4  5  1  0
  5  6  1  0
  6  7  1  0
  7  8  1  0
  8  9  1  0
  9 10  1  0
 10 11  2  0
 10 12  1  0
 12 13  1  0
 12 14  1  0
 14 15  1  0
 15 16  2  0
 16 17  1  0
 17 18  1  0
 17 19  2  0
 19 20  1  0
  8 21  1  0
 21 22  2  0
 21 23  1  0
 23 24  1  0
 24 25  1  0
 25 26  1  0
 26 27  1  0
 27 28  1  0
 28 29  1  0
 29 30  1  0
 20 15  1  0
 30 25  1  0
  1 31  1  0
  1 32  1  0
  3 33  1  0
  4 34  1  0
  5 35  1  0
  5 36  1  0
  6 37  1  0
  6 38  1  0
  7 39  1  0
  7 40  1  0
  8 41  1  6
  9 42  1  0
 12 43  1  6
 13 44  1  0
 13 45  1  0
 14 46  1  0
 14 47  1  0
 16 48  1  0
 18 49  1  0
 19 50  1  0
 23 51  1  0
 24 52  1  0
 24 53  1  0
 25 54  1  0
 26 55  1  0
 26 56  1  0
 27 57  1  0
 27 58  1  0
 28 59  1  0
 28 60  1  0
 29 61  1  0
 29 62  1  0
 30 63  1  0
 30 64  1  0
M  END
$$$$
[H]c1nn(-c2c([H])c(C([H])(C([H])([H])[H])C([H])([H])[H])c(C([H])([H])c3c([H])c([H])c(S(=O)(=O)N([H])[H])c([H])c3[H])c([H])c2Br)c([H])c1[H]
     RDKit          3D

 46 48  0  0  0  0  0  0  0  0999 V2000
    1.8862   -2.3793    1.4224 C   0  0  0  0  0  0  0  0  0  0  0  0
    0.6585   -1.5014    1.0706 C   0  0  0  0  0  0  0  0  0  0  0  0
    0.1947   -2.1021   -0.2771 C   0  0  0  0  0  0  0  0  0  0  0  0
    1.1452   -0.1277    0.8266 C   0  0  0  0  0  0  0  0  0  0  0  0
    2.4858   -0.0062    0.4109 C   0  0  0  0  0  0  0  0  0  0  0  0
    3.0479    1.2013    0.0870 C   0  0  0  0  0  0  0  0  0  0  0  0
    2.2240    2.3118    0.1882 C   0  0  0  0  0  0  0  0  0  0  0  0
    2.8939    4.0352   -0.2363 Br  0  0  0  0  0  0  0  0  0  0  0  0
    0.9254    2.1841    0.5925 C   0  0  0  0  0  0  0  0  0  0  0  0
    0.3296    0.9483    0.9324 C   0  0  0  0  0  0  0  0  0  0  0  0
   -1.0379    0.9116    1.4273 C   0  0  0  0  0  0  0  0  0  0  0  0
   -2.0978    0.4234    0.5417 C   0  0  0  0  0  0  0  0  0  0  0  0
   -2.3438    0.8645   -0.7386 C   0  0  0  0  0  0  0  0  0  0  0  0
   -3.3913    0.3981   -1.4992 C   0  0  0  0  0  0  0  0  0  0  0  0
   -4.2468   -0.5396   -1.0091 C   0  0  0  0  0  0  0  0  0  0  0  0
   -4.0381   -1.0074    0.2659 C   0  0  0  0  0  0  0  0  0  0  0  0
   -2.9921   -0.5394    1.0210 C   0  0  0  0  0  0  0  0  0  0  0  0
   -5.5994   -1.1766   -1.9541 S   0  0  0  0  0  0  0  0  0  0  0  0
   -6.9757   -0.1397   -1.7868 N   0  0  0  0  0  0  0  0  0  0  0  0
   -5.9253   -2.5383   -1.3947 O   0  0  0  0  0  0  0  0  0  0  0  0
   -5.1927   -1.2700   -3.3953 O   0  0  0  0  0  0  0  0  0  0  0  0
    4.4052    1.3165   -0.3251 N   0  0  0  0  0  0  0  0  0  0  0  0
    5.5247    1.3939    0.4427 C   0  0  0  0  0  0  0  0  0  0  0  0
    6.6447    1.5007   -0.3379 C   0  0  0  0  0  0  0  0  0  0  0  0
    6.1643    1.4847   -1.6393 C   0  0  0  0  0  0  0  0  0  0  0  0
    4.8203    1.3729   -1.5679 N   0  0  0  0  0  0  0  0  0  0  0  0
    2.5669   -1.8112    2.0729 H   0  0  0  0  0  0  0  0  0  0  0  0
    1.4735   -3.2572    1.9579 H   0  0  0  0  0  0  0  0  0  0  0  0
    2.3782   -2.7662    0.5160 H   0  0  0  0  0  0  0  0  0  0  0  0
   -0.0830   -1.6683    1.8020 H   0  0  0  0  0  0  0  0  0  0  0  0
    0.3715   -1.4115   -1.1019 H   0  0  0  0  0  0  0  0  0  0  0  0
    0.7209   -3.0818   -0.4651 H   0  0  0  0  0  0  0  0  0  0  0  0
   -0.8723   -2.3768   -0.2308 H   0  0  0  0  0  0  0  0  0  0  0  0
    3.1280   -0.8912    0.3327 H   0  0  0  0  0  0  0  0  0  0  0  0
    0.2694    3.0621    0.6723 H   0  0  0  0  0  0  0  0  0  0  0  0
   -1.1087    0.4388    2.4498 H   0  0  0  0  0  0  0  0  0  0  0  0
   -1.3430    1.9836    1.6709 H   0  0  0  0  0  0  0  0  0  0  0  0
   -1.6470    1.6181   -1.1256 H   0  0  0  0  0  0  0  0  0  0  0  0
   -3.5311    0.7803   -2.4878 H   0  0  0  0  0  0  0  0  0  0  0  0
   -4.7407   -1.7651    0.6354 H   0  0  0  0  0  0  0  0  0  0  0  0
   -2.8402   -0.9147    2.0118 H   0  0  0  0  0  0  0  0  0  0  0  0
   -7.5389   -0.3325   -0.9556 H   0  0  0  0  0  0  0  0  0  0  0  0
   -6.7081    0.8653   -1.9219 H   0  0  0  0  0  0  0  0  0  0  0  0
    5.4872    1.3706    1.5118 H   0  0  0  0  0  0  0  0  0  0  0  0
    7.6972    1.5843   -0.0272 H   0  0  0  0  0  0  0  0  0  0  0  0
    6.8107    1.5540   -2.5012 H   0  0  0  0  0  0  0  0  0  0  0  0
  1  2  1  0
  2  3  1  0
  2  4  1  0
  4  5  2  0
  5  6  1  0
  6  7  2  0
  7  8  1  0
  7  9  1  0
  9 10  2  0
 10 11  1  0
 11 12  1  0
 12 13  2  0
 13 14  1  0
 14 15  2  0
 15 16  1  0
 16 17  2  0
 15 18  1  0
 18 19  1  0
 18 20  2  0
 18 21  2  0
  6 22  1  0
 22 23  1  0
 23 24  2  0
 24 25  1  0
 25 26  2  0
 10  4  1  0
 17 12  1  0
 26 22  1  0
  1 27  1  0
  1 28  1  0
  1 29  1  0
  2 30  1  0
  3 31  1  0
  3 32  1  0
  3 33  1  0
  5 34  1  0
  9 35  1  0
 11 36  1  0
 11 37  1  0
 13 38  1  0
 14 39  1  0
 16 40  1  0
 17 41  1  0
 19 42  1  0
 19 43  1  0
 23 44  1  0
 24 45  1  0
 25 46  1  0
M  END
$$$$
[H]c1nc2c(nc([H])n2-c2c([H])c(-c3c([H])c(OC([H])([H])[H])c(OC([H])([H])[H])c(OC([H])([H])[H])c3[H])c([H])c([H])c2OC([H])([H])[H])c([H])c1N([H])C(=O)N([H])C([H])([H])C([H])([H])[H]
     RDKit          3D

 62 65  0  0  0  0  0  0  0  0999 V2000
    9.3608   -1.0605    2.2144 C   0  0  0  0  0  0  0  0  0  0  0  0
    9.5123   -1.1623    0.6961 C   0  0  0  0  0  0  0  0  0  0  0  0
    8.2959   -1.6085    0.0667 N   0  0  0  0  0  0  0  0  0  0  0  0
    7.1116   -0.8004    0.2398 C   0  0  0  0  0  0  0  0  0  0  0  0
    7.1987    0.2453    0.9261 O   0  0  0  0  0  0  0  0  0  0  0  0
    5.8905   -1.1680   -0.3411 N   0  0  0  0  0  0  0  0  0  0  0  0
    4.6698   -0.4945   -0.2506 C   0  0  0  0  0  0  0  0  0  0  0  0
    3.6152   -0.8748   -1.1106 C   0  0  0  0  0  0  0  0  0  0  0  0
    2.4127   -0.2930   -1.0794 N   0  0  0  0  0  0  0  0  0  0  0  0
    2.1110    0.6948   -0.2326 C   0  0  0  0  0  0  0  0  0  0  0  0
    0.9777    1.4317   -0.0155 N   0  0  0  0  0  0  0  0  0  0  0  0
    1.2505    2.3093    0.9837 C   0  0  0  0  0  0  0  0  0  0  0  0
    2.5246    2.1075    1.3641 N   0  0  0  0  0  0  0  0  0  0  0  0
    3.0788    1.1237    0.6366 C   0  0  0  0  0  0  0  0  0  0  0  0
    4.3444    0.5165    0.6092 C   0  0  0  0  0  0  0  0  0  0  0  0
   -0.2349    1.2809   -0.7190 C   0  0  0  0  0  0  0  0  0  0  0  0
   -1.4027    0.9170   -0.0951 C   0  0  0  0  0  0  0  0  0  0  0  0
   -2.5941    0.7745   -0.8182 C   0  0  0  0  0  0  0  0  0  0  0  0
   -2.5883    1.0034   -2.1707 C   0  0  0  0  0  0  0  0  0  0  0  0
   -1.4440    1.3639   -2.8058 C   0  0  0  0  0  0  0  0  0  0  0  0
   -0.2641    1.5027   -2.0754 C   0  0  0  0  0  0  0  0  0  0  0  0
    0.8727    1.8656   -2.7344 O   0  0  0  0  0  0  0  0  0  0  0  0
    0.8463    2.0940   -4.1265 C   0  0  0  0  0  0  0  0  0  0  0  0
   -3.8057    0.3837   -0.0912 C   0  0  0  0  0  0  0  0  0  0  0  0
   -5.0598    0.8004   -0.4868 C   0  0  0  0  0  0  0  0  0  0  0  0
   -6.2050    0.4366    0.1924 C   0  0  0  0  0  0  0  0  0  0  0  0
   -7.4646    0.8529   -0.2018 O   0  0  0  0  0  0  0  0  0  0  0  0
   -7.5906    1.6807   -1.3404 C   0  0  0  0  0  0  0  0  0  0  0  0
   -6.1383   -0.3710    1.3114 C   0  0  0  0  0  0  0  0  0  0  0  0
   -7.2770   -0.7538    2.0162 O   0  0  0  0  0  0  0  0  0  0  0  0
   -7.9971   -1.9356    1.7005 C   0  0  0  0  0  0  0  0  0  0  0  0
   -4.8840   -0.7881    1.7075 C   0  0  0  0  0  0  0  0  0  0  0  0
   -4.8393   -1.6084    2.8475 O   0  0  0  0  0  0  0  0  0  0  0  0
   -3.5709   -2.0566    3.2849 C   0  0  0  0  0  0  0  0  0  0  0  0
   -3.7383   -0.4227    1.0260 C   0  0  0  0  0  0  0  0  0  0  0  0
   10.3344   -1.3042    2.6875 H   0  0  0  0  0  0  0  0  0  0  0  0
    8.6071   -1.8113    2.5135 H   0  0  0  0  0  0  0  0  0  0  0  0
    9.0432   -0.0673    2.5377 H   0  0  0  0  0  0  0  0  0  0  0  0
    9.7754   -0.1552    0.2981 H   0  0  0  0  0  0  0  0  0  0  0  0
   10.3751   -1.8132    0.4671 H   0  0  0  0  0  0  0  0  0  0  0  0
    8.2898   -2.4745   -0.4828 H   0  0  0  0  0  0  0  0  0  0  0  0
    5.9342   -2.0804   -0.9130 H   0  0  0  0  0  0  0  0  0  0  0  0
    3.8276   -1.6799   -1.8167 H   0  0  0  0  0  0  0  0  0  0  0  0
    0.5248    3.0200    1.3607 H   0  0  0  0  0  0  0  0  0  0  0  0
    5.0676    0.8817    1.3186 H   0  0  0  0  0  0  0  0  0  0  0  0
   -1.4439    0.7292    0.9670 H   0  0  0  0  0  0  0  0  0  0  0  0
   -3.5315    0.8817   -2.6908 H   0  0  0  0  0  0  0  0  0  0  0  0
   -1.4186    1.5473   -3.8624 H   0  0  0  0  0  0  0  0  0  0  0  0
    1.9118    2.2510   -4.4383 H   0  0  0  0  0  0  0  0  0  0  0  0
    0.5224    1.1731   -4.6559 H   0  0  0  0  0  0  0  0  0  0  0  0
    0.2142    2.9708   -4.4049 H   0  0  0  0  0  0  0  0  0  0  0  0
   -5.1117    1.4334   -1.3639 H   0  0  0  0  0  0  0  0  0  0  0  0
   -6.9798    1.2221   -2.1549 H   0  0  0  0  0  0  0  0  0  0  0  0
   -8.6576    1.7178   -1.6944 H   0  0  0  0  0  0  0  0  0  0  0  0
   -7.1903    2.6937   -1.1421 H   0  0  0  0  0  0  0  0  0  0  0  0
   -7.5582   -2.8284    2.1865 H   0  0  0  0  0  0  0  0  0  0  0  0
   -7.9703   -2.1281    0.5986 H   0  0  0  0  0  0  0  0  0  0  0  0
   -9.0846   -1.8173    1.9423 H   0  0  0  0  0  0  0  0  0  0  0  0
   -2.9309   -1.1869    3.6075 H   0  0  0  0  0  0  0  0  0  0  0  0
   -3.7268   -2.7568    4.1553 H   0  0  0  0  0  0  0  0  0  0  0  0
   -3.0242   -2.5631    2.4907 H   0  0  0  0  0  0  0  0  0  0  0  0
   -2.7738   -0.7650    1.3607 H   0  0  0  0  0  0  0  0  0  0  0  0
  1  2  1  0
  2  3  1  0
  3  4  1  0
  4  5  2  0
  4  6  1  0
  6  7  1  0
  7  8  2  0
  8  9  1  0
  9 10  2  0
 10 11  1  0
 11 12  1  0
 12 13  2  0
 13 14  1  0
 14 15  2  0
 11 16  1  0
 16 17  2  0
 17 18  1  0
 18 19  2  0
 19 20  1  0
 20 21  2  0
 21 22  1  0
 22 23  1  0
 18 24  1  0
 24 25  2  0
 25 26  1  0
 26 27  1  0
 27 28  1  0
 26 29  2  0
 29 30  1  0
 30 31  1  0
 29 32  1  0
 32 33  1  0
 33 34  1  0
 32 35  2  0
 15  7  1  0
 21 16  1  0
 35 24  1  0
 14 10  1  0
  1 36  1  0
  1 37  1  0
  1 38  1  0
  2 39  1  0
  2 40  1  0
  3 41  1  0
  6 42  1  0
  8 43  1  0
 12 44  1  0
 15 45  1  0
 17 46  1  0
 19 47  1  0
 20 48  1  0
 23 49  1  0
 23 50  1  0
 23 51  1  0
 25 52  1  0
 28 53  1  0
 28 54  1  0
 28 55  1  0
 31 56  1  0
 31 57  1  0
 31 58  1  0
 34 59  1  0
 34 60  1  0
 34 61  1  0
 35 62  1  0
M  END
$$$$
[H]c1nc(C([H])([H])C([H])([H])[C@]([H])(N2C([H])([H])[C@]([H])(F)C([H])([H])[C@@]2([H])C(=O)N([H])C(C([H])([H])[H])(C([H])([H])[H])C([H])([H])[H])C([H])([H])[H])nc2c1c([H])c([H])n2[H]
     RDKit          3D

 54 56  0  0  0  0  0  0  0  0999 V2000
    0.1945   -2.3289    2.0549 C   0  0  0  0  0  0  0  0  0  0  0  0
    0.1942   -1.1337    1.1343 C   0  0  2  0  0  0  0  0  0  0  0  0
    1.4373   -0.9361    0.3445 C   0  0  0  0  0  0  0  0  0  0  0  0
    2.7104   -0.7668    1.0892 C   0  0  0  0  0  0  0  0  0  0  0  0
    3.8731   -0.6060    0.1216 C   0  0  0  0  0  0  0  0  0  0  0  0
    4.5457   -1.6832   -0.3166 N   0  0  0  0  0  0  0  0  0  0  0  0
    5.5845   -1.5521   -1.1808 C   0  0  0  0  0  0  0  0  0  0  0  0
    5.9471   -0.3008   -1.6080 C   0  0  0  0  0  0  0  0  0  0  0  0
    6.9323    0.1807   -2.4655 C   0  0  0  0  0  0  0  0  0  0  0  0
    6.8073    1.5564   -2.5066 C   0  0  0  0  0  0  0  0  0  0  0  0
    5.7919    1.9101   -1.7116 N   0  0  0  0  0  0  0  0  0  0  0  0
    5.2642    0.7888   -1.1624 C   0  0  0  0  0  0  0  0  0  0  0  0
    4.2403    0.6047   -0.3049 N   0  0  0  0  0  0  0  0  0  0  0  0
   -0.4193    0.0342    1.5759 N   0  0  0  0  0  0  0  0  0  0  0  0
   -0.0047    0.6986    2.7360 C   0  0  0  0  0  0  0  0  0  0  0  0
   -0.8421    1.9990    2.6348 C   0  0  2  0  0  0  0  0  0  0  0  0
   -0.8561    2.6943    3.7993 F   0  0  0  0  0  0  0  0  0  0  0  0
   -2.1830    1.3474    2.3012 C   0  0  0  0  0  0  0  0  0  0  0  0
   -1.8329    0.0872    1.5428 C   0  0  1  0  0  0  0  0  0  0  0  0
   -2.4237    0.1281    0.1729 C   0  0  0  0  0  0  0  0  0  0  0  0
   -1.7543    0.2107   -0.8745 O   0  0  0  0  0  0  0  0  0  0  0  0
   -3.8390    0.0685    0.0627 N   0  0  0  0  0  0  0  0  0  0  0  0
   -4.5115    0.1013   -1.2221 C   0  0  0  0  0  0  0  0  0  0  0  0
   -4.2151    1.3673   -1.9777 C   0  0  0  0  0  0  0  0  0  0  0  0
   -4.0749   -1.0640   -2.0921 C   0  0  0  0  0  0  0  0  0  0  0  0
   -6.0019    0.0012   -1.0138 C   0  0  0  0  0  0  0  0  0  0  0  0
    0.4972   -3.2032    1.4439 H   0  0  0  0  0  0  0  0  0  0  0  0
    0.7964   -2.1981    2.9575 H   0  0  0  0  0  0  0  0  0  0  0  0
   -0.8699   -2.5324    2.3406 H   0  0  0  0  0  0  0  0  0  0  0  0
   -0.5731   -1.5261    0.3091 H   0  0  0  0  0  0  0  0  0  0  0  0
    1.3544   -0.0224   -0.3288 H   0  0  0  0  0  0  0  0  0  0  0  0
    1.5601   -1.7634   -0.4324 H   0  0  0  0  0  0  0  0  0  0  0  0
    2.9209   -1.7292    1.6199 H   0  0  0  0  0  0  0  0  0  0  0  0
    2.7689    0.1033    1.7330 H   0  0  0  0  0  0  0  0  0  0  0  0
    6.1308   -2.4050   -1.5383 H   0  0  0  0  0  0  0  0  0  0  0  0
    7.6429   -0.4331   -2.9833 H   0  0  0  0  0  0  0  0  0  0  0  0
    7.4228    2.2627   -3.0846 H   0  0  0  0  0  0  0  0  0  0  0  0
    5.4389    2.8828   -1.5242 H   0  0  0  0  0  0  0  0  0  0  0  0
    1.0388    0.9355    2.8912 H   0  0  0  0  0  0  0  0  0  0  0  0
   -0.3662    0.2135    3.6917 H   0  0  0  0  0  0  0  0  0  0  0  0
   -0.4480    2.5468    1.7634 H   0  0  0  0  0  0  0  0  0  0  0  0
   -2.7720    1.1588    3.2182 H   0  0  0  0  0  0  0  0  0  0  0  0
   -2.7007    2.0249    1.5962 H   0  0  0  0  0  0  0  0  0  0  0  0
   -2.3134   -0.7536    2.1240 H   0  0  0  0  0  0  0  0  0  0  0  0
   -4.4123   -0.0004    0.9149 H   0  0  0  0  0  0  0  0  0  0  0  0
   -4.0720    2.2362   -1.2946 H   0  0  0  0  0  0  0  0  0  0  0  0
   -3.3681    1.2529   -2.6900 H   0  0  0  0  0  0  0  0  0  0  0  0
   -5.1021    1.6120   -2.5939 H   0  0  0  0  0  0  0  0  0  0  0  0
   -3.6985   -1.8973   -1.4951 H   0  0  0  0  0  0  0  0  0  0  0  0
   -3.3166   -0.7045   -2.8447 H   0  0  0  0  0  0  0  0  0  0  0  0
   -4.9511   -1.3958   -2.6927 H   0  0  0  0  0  0  0  0  0  0  0  0
   -6.3891    0.6805   -0.2421 H   0  0  0  0  0  0  0  0  0  0  0  0
   -6.5025    0.3043   -1.9767 H   0  0  0  0  0  0  0  0  0  0  0  0
   -6.2807   -1.0566   -0.8545 H   0  0  0  0  0  0  0  0  0  0  0  0
  1  2  1  0
  2  3  1  0
  3  4  1  0
  4  5  1  0
  5  6  2  0
  6  7  1  0
  7  8  2  0
  8  9  1  0
  9 10  2  0
 10 11  1  0
 11 12  1  0
 12 13  2  0
  2 14  1  0
 14 15  1  0
 15 16  1  0
 16 17  1  0
 16 18  1  0
 18 19  1  0
 19 20  1  0
 20 21  2  0
 20 22  1  0
 22 23  1  0
 23 24  1  0
 23 25  1  0
 23 26  1  0
 13  5  1  0
 19 14  1  0
 12  8  1  0
  1 27  1  0
  1 28  1  0
  1 29  1  0
  2 30  1  6
  3 31  1  0
  3 32  1  0
  4 33  1  0
  4 34  1  0
  7 35  1  0
  9 36  1  0
 10 37  1  0
 11 38  1  0
 15 39  1  0
 15 40  1  0
 16 41  1  6
 18 42  1  0
 18 43  1  0
 19 44  1  1
 22 45  1  0
 24 46  1  0
 24 47  1  0
 24 48  1  0
 25 49  1  0
 25 50  1  0
 25 51  1  0
 26 52  1  0
 26 53  1  0
 26 54  1  0
M  END
$$$$
[H]c1sc([H])c(C(=O)N2C([H])([H])C3(C2([H])[H])C([H])([H])C([H])([H])N(C(=O)N([H])C2(c4c([H])c([H])c(OC([H])([H])[H])c([H])c4[H])C([H])([H])C2([H])[H])C([H])([H])C3([H])[H])c1[H]
     RDKit          3D

 57 61  0  0  0  0  0  0  0  0999 V2000
    8.8662    0.1251   -0.9457 C   0  0  0  0  0  0  0  0  0  0  0  0
    8.0230   -0.9726   -1.1572 O   0  0  0  0  0  0  0  0  0  0  0  0
    6.7654   -0.9947   -0.5730 C   0  0  0  0  0  0  0  0  0  0  0  0
    6.2525    0.0189    0.2124 C   0  0  0  0  0  0  0  0  0  0  0  0
    5.0017   -0.0677    0.7737 C   0  0  0  0  0  0  0  0  0  0  0  0
    4.1760   -1.1669    0.5930 C   0  0  0  0  0  0  0  0  0  0  0  0
    4.6885   -2.1688   -0.1903 C   0  0  0  0  0  0  0  0  0  0  0  0
    5.9382   -2.1106   -0.7652 C   0  0  0  0  0  0  0  0  0  0  0  0
    2.8341   -1.1989    1.2559 C   0  0  0  0  0  0  0  0  0  0  0  0
    2.5920   -2.2096    2.3244 C   0  0  0  0  0  0  0  0  0  0  0  0
    2.9505   -0.8193    2.7084 C   0  0  0  0  0  0  0  0  0  0  0  0
    1.7562   -0.6212    0.4980 N   0  0  0  0  0  0  0  0  0  0  0  0
    1.0336    0.5537    0.7464 C   0  0  0  0  0  0  0  0  0  0  0  0
    1.4019    1.2754    1.7489 O   0  0  0  0  0  0  0  0  0  0  0  0
   -0.0586    1.0388    0.0282 N   0  0  0  0  0  0  0  0  0  0  0  0
   -0.5869    2.3758    0.3037 C   0  0  0  0  0  0  0  0  0  0  0  0
   -2.0167    2.3001    0.7480 C   0  0  0  0  0  0  0  0  0  0  0  0
   -2.8362    1.2613    0.0221 C   0  0  0  0  0  0  0  0  0  0  0  0
   -3.6887    1.7699   -1.0796 C   0  0  0  0  0  0  0  0  0  0  0  0
   -4.8096    0.9679   -0.5510 N   0  0  0  0  0  0  0  0  0  0  0  0
   -4.1730    1.0158    0.7186 C   0  0  0  0  0  0  0  0  0  0  0  0
   -5.9377    0.4721   -1.2523 C   0  0  0  0  0  0  0  0  0  0  0  0
   -6.0459    0.6934   -2.5132 O   0  0  0  0  0  0  0  0  0  0  0  0
   -7.0359   -0.3010   -0.6362 C   0  0  0  0  0  0  0  0  0  0  0  0
   -8.0473   -0.8188   -1.3502 C   0  0  0  0  0  0  0  0  0  0  0  0
   -9.0215   -1.5008   -0.6729 C   0  0  0  0  0  0  0  0  0  0  0  0
   -8.5157   -1.4052    0.9408 S   0  0  0  0  0  0  0  0  0  0  0  0
   -7.0854   -0.5091    0.7314 C   0  0  0  0  0  0  0  0  0  0  0  0
   -2.1342   -0.0282   -0.1844 C   0  0  0  0  0  0  0  0  0  0  0  0
   -0.8090    0.2012   -0.9206 C   0  0  0  0  0  0  0  0  0  0  0  0
    8.7545    0.5974    0.0707 H   0  0  0  0  0  0  0  0  0  0  0  0
    8.5947    0.9166   -1.6746 H   0  0  0  0  0  0  0  0  0  0  0  0
    9.9443   -0.1797   -1.0730 H   0  0  0  0  0  0  0  0  0  0  0  0
    6.8854    0.9193    0.3625 H   0  0  0  0  0  0  0  0  0  0  0  0
    4.6240    0.7394    1.3796 H   0  0  0  0  0  0  0  0  0  0  0  0
    4.0405   -3.0361   -0.3585 H   0  0  0  0  0  0  0  0  0  0  0  0
    6.3083   -2.9167   -1.3737 H   0  0  0  0  0  0  0  0  0  0  0  0
    3.3496   -3.0044    2.5239 H   0  0  0  0  0  0  0  0  0  0  0  0
    1.5461   -2.5979    2.4646 H   0  0  0  0  0  0  0  0  0  0  0  0
    2.1356   -0.2834    3.2185 H   0  0  0  0  0  0  0  0  0  0  0  0
    3.9366   -0.6134    3.1504 H   0  0  0  0  0  0  0  0  0  0  0  0
    1.4934   -1.1973   -0.3680 H   0  0  0  0  0  0  0  0  0  0  0  0
   -0.5070    2.9059   -0.6927 H   0  0  0  0  0  0  0  0  0  0  0  0
    0.0438    2.8893    1.0387 H   0  0  0  0  0  0  0  0  0  0  0  0
   -2.0541    2.2125    1.8546 H   0  0  0  0  0  0  0  0  0  0  0  0
   -2.4890    3.2993    0.4975 H   0  0  0  0  0  0  0  0  0  0  0  0
   -3.8811    2.8598   -0.9559 H   0  0  0  0  0  0  0  0  0  0  0  0
   -3.4023    1.4661   -2.1138 H   0  0  0  0  0  0  0  0  0  0  0  0
   -4.0920    0.0982    1.3375 H   0  0  0  0  0  0  0  0  0  0  0  0
   -4.4226    1.9382    1.3319 H   0  0  0  0  0  0  0  0  0  0  0  0
   -8.1522   -0.7394   -2.4688 H   0  0  0  0  0  0  0  0  0  0  0  0
   -9.9198   -1.9853   -1.1116 H   0  0  0  0  0  0  0  0  0  0  0  0
   -6.3713   -0.1573    1.4846 H   0  0  0  0  0  0  0  0  0  0  0  0
   -2.7287   -0.8380   -0.6015 H   0  0  0  0  0  0  0  0  0  0  0  0
   -1.8066   -0.3784    0.8367 H   0  0  0  0  0  0  0  0  0  0  0  0
   -0.3341   -0.7820   -1.0666 H   0  0  0  0  0  0  0  0  0  0  0  0
   -0.9735    0.6912   -1.8849 H   0  0  0  0  0  0  0  0  0  0  0  0
  1  2  1  0
  2  3  1  0
  3  4  2  0
  4  5  1  0
  5  6  2  0
  6  7  1  0
  7  8  2  0
  6  9  1  0
  9 10  1  0
 10 11  1  0
  9 12  1  0
 12 13  1  0
 13 14  2  0
 13 15  1  0
 15 16  1  0
 16 17  1  0
 17 18  1  0
 18 19  1  0
 19 20  1  0
 20 21  1  0
 20 22  1  0
 22 23  2  0
 22 24  1  0
 24 25  1  0
 25 26  2  0
 26 27  1  0
 27 28  1  0
 18 29  1  0
 29 30  1  0
  8  3  1  0
 11  9  1  0
 30 15  1  0
 21 18  1  0
 28 24  2  0
  1 31  1  0
  1 32  1  0
  1 33  1  0
  4 34  1  0
  5 35  1  0
  7 36  1  0
  8 37  1  0
 10 38  1  0
 10 39  1  0
 11 40  1  0
 11 41  1  0
 12 42  1  0
 16 43  1  0
 16 44  1  0
 17 45  1  0
 17 46  1  0
 19 47  1  0
 19 48  1  0
 21 49  1  0
 21 50  1  0
 25 51  1  0
 26 52  1  0
 28 53  1  0
 29 54  1  0
 29 55  1  0
 30 56  1  0
 30 57  1  0
M  END
$$$$
[H]c1c([H])c([H])c2c(c1[H])N(C(=O)C1([H])C([H])([H])C([H])([H])C([H])([H])C1([H])[H])C([H])([H])C([H])([H])N2c1c([H])c([H])c(N([H])C(=O)c2nn(C([H])([H])[H])c([H])c2[H])c([H])c1[H]
     RDKit          3D

 59 63  0  0  0  0  0  0  0  0999 V2000
   -9.3686    1.8972    0.7452 C   0  0  0  0  0  0  0  0  0  0  0  0
   -8.5756    0.9299   -0.0272 N   0  0  0  0  0  0  0  0  0  0  0  0
   -9.0159    0.1019   -0.9861 C   0  0  0  0  0  0  0  0  0  0  0  0
   -7.9743   -0.6330   -1.4563 C   0  0  0  0  0  0  0  0  0  0  0  0
   -6.8570   -0.2354   -0.7549 C   0  0  0  0  0  0  0  0  0  0  0  0
   -7.2839    0.7100    0.0927 N   0  0  0  0  0  0  0  0  0  0  0  0
   -5.4734   -0.7430   -0.9029 C   0  0  0  0  0  0  0  0  0  0  0  0
   -5.2766   -1.6269   -1.7489 O   0  0  0  0  0  0  0  0  0  0  0  0
   -4.4560   -0.2202   -0.1013 N   0  0  0  0  0  0  0  0  0  0  0  0
   -3.0863   -0.5737   -0.1021 C   0  0  0  0  0  0  0  0  0  0  0  0
   -2.4526   -1.3639   -1.0138 C   0  0  0  0  0  0  0  0  0  0  0  0
   -1.0979   -1.6428   -0.8839 C   0  0  0  0  0  0  0  0  0  0  0  0
   -0.3359   -1.1332    0.1708 C   0  0  0  0  0  0  0  0  0  0  0  0
   -0.9775   -0.3423    1.0787 C   0  0  0  0  0  0  0  0  0  0  0  0
   -2.3153   -0.0655    0.9533 C   0  0  0  0  0  0  0  0  0  0  0  0
    1.0653   -1.4257    0.2442 N   0  0  0  0  0  0  0  0  0  0  0  0
    1.8570   -1.6543   -0.9374 C   0  0  0  0  0  0  0  0  0  0  0  0
    3.2990   -1.3379   -0.8171 C   0  0  0  0  0  0  0  0  0  0  0  0
    3.6377   -0.6467    0.4007 N   0  0  0  0  0  0  0  0  0  0  0  0
    4.5399    0.4342    0.4423 C   0  0  0  0  0  0  0  0  0  0  0  0
    4.7815    1.0092    1.5456 O   0  0  0  0  0  0  0  0  0  0  0  0
    5.2267    0.9323   -0.7869 C   0  0  0  0  0  0  0  0  0  0  0  0
    6.4296    1.7863   -0.4079 C   0  0  0  0  0  0  0  0  0  0  0  0
    6.5822    2.8008   -1.5210 C   0  0  0  0  0  0  0  0  0  0  0  0
    5.3810    2.5861   -2.4251 C   0  0  0  0  0  0  0  0  0  0  0  0
    4.3728    1.9757   -1.4760 C   0  0  0  0  0  0  0  0  0  0  0  0
    3.0229   -1.1126    1.5997 C   0  0  0  0  0  0  0  0  0  0  0  0
    3.6833   -1.1695    2.7875 C   0  0  0  0  0  0  0  0  0  0  0  0
    3.0053   -1.6359    3.9097 C   0  0  0  0  0  0  0  0  0  0  0  0
    1.6793   -2.0400    3.8349 C   0  0  0  0  0  0  0  0  0  0  0  0
    1.0220   -1.9782    2.6289 C   0  0  0  0  0  0  0  0  0  0  0  0
    1.6845   -1.5184    1.5179 C   0  0  0  0  0  0  0  0  0  0  0  0
   -8.8193    2.0915    1.7061 H   0  0  0  0  0  0  0  0  0  0  0  0
   -9.3881    2.8439    0.2013 H   0  0  0  0  0  0  0  0  0  0  0  0
  -10.3522    1.4759    0.9803 H   0  0  0  0  0  0  0  0  0  0  0  0
  -10.0373    0.0463   -1.3144 H   0  0  0  0  0  0  0  0  0  0  0  0
   -8.0047   -1.3994   -2.2435 H   0  0  0  0  0  0  0  0  0  0  0  0
   -4.7869    0.5447    0.5861 H   0  0  0  0  0  0  0  0  0  0  0  0
   -3.0078   -1.7669   -1.8430 H   0  0  0  0  0  0  0  0  0  0  0  0
   -0.6036   -2.2683   -1.6079 H   0  0  0  0  0  0  0  0  0  0  0  0
   -0.4055    0.0865    1.9200 H   0  0  0  0  0  0  0  0  0  0  0  0
   -2.7867    0.5794    1.7163 H   0  0  0  0  0  0  0  0  0  0  0  0
    1.4093   -1.1310   -1.8281 H   0  0  0  0  0  0  0  0  0  0  0  0
    1.7585   -2.7526   -1.2085 H   0  0  0  0  0  0  0  0  0  0  0  0
    3.6218   -0.7001   -1.6699 H   0  0  0  0  0  0  0  0  0  0  0  0
    3.9071   -2.2814   -0.9178 H   0  0  0  0  0  0  0  0  0  0  0  0
    5.4600    0.1280   -1.4547 H   0  0  0  0  0  0  0  0  0  0  0  0
    6.3076    2.2683    0.5721 H   0  0  0  0  0  0  0  0  0  0  0  0
    7.3383    1.1490   -0.3652 H   0  0  0  0  0  0  0  0  0  0  0  0
    6.5367    3.8520   -1.1447 H   0  0  0  0  0  0  0  0  0  0  0  0
    7.5325    2.6337   -2.0828 H   0  0  0  0  0  0  0  0  0  0  0  0
    5.0222    3.5305   -2.8803 H   0  0  0  0  0  0  0  0  0  0  0  0
    5.5850    1.8331   -3.2173 H   0  0  0  0  0  0  0  0  0  0  0  0
    3.5061    1.5972   -2.0096 H   0  0  0  0  0  0  0  0  0  0  0  0
    4.0809    2.7920   -0.7805 H   0  0  0  0  0  0  0  0  0  0  0  0
    4.7150   -0.8509    2.7932 H   0  0  0  0  0  0  0  0  0  0  0  0
    3.5372   -1.6741    4.8346 H   0  0  0  0  0  0  0  0  0  0  0  0
    1.1540   -2.4063    4.7246 H   0  0  0  0  0  0  0  0  0  0  0  0
   -0.0033   -2.2854    2.5420 H   0  0  0  0  0  0  0  0  0  0  0  0
  1  2  1  0
  2  3  1  0
  3  4  2  0
  4  5  1  0
  5  6  2  0
  5  7  1  0
  7  8  2  0
  7  9  1  0
  9 10  1  0
 10 11  2  0
 11 12  1  0
 12 13  2  0
 13 14  1  0
 14 15  2  0
 13 16  1  0
 16 17  1  0
 17 18  1  0
 18 19  1  0
 19 20  1  0
 20 21  2  0
 20 22  1  0
 22 23  1  0
 23 24  1  0
 24 25  1  0
 25 26  1  0
 19 27  1  0
 27 28  2  0
 28 29  1  0
 29 30  2  0
 30 31  1  0
 31 32  2  0
  6  2  1  0
 15 10  1  0
 32 16  1  0
 26 22  1  0
 32 27  1  0
  1 33  1  0
  1 34  1  0
  1 35  1  0
  3 36  1  0
  4 37  1  0
  9 38  1  0
 11 39  1  0
 12 40  1  0
 14 41  1  0
 15 42  1  0
 17 43  1  0
 17 44  1  0
 18 45  1  0
 18 46  1  0
 22 47  1  0
 23 48  1  0
 23 49  1  0
 24 50  1  0
 24 51  1  0
 25 52  1  0
 25 53  1  0
 26 54  1  0
 26 55  1  0
 28 56  1  0
 29 57  1  0
 30 58  1  0
 31 59  1  0
M  END
$$$$
[H]c1c([H])c([H])c2c(c1[H])N(C([H])([H])C([H])([H])c1c(C([H])([H])[H])n([H])c3c([H])c([H])c([H])c([H])c13)C(=O)C21C([H])([H])C([H])([H])C([H])([H])C([H])([H])C1([H])[H]
     RDKit          3D

 53 57  0  0  0  0  0  0  0  0999 V2000
    3.0216    0.0051    3.0999 C   0  0  0  0  0  0  0  0  0  0  0  0
    3.6757    0.1757    1.7647 C   0  0  0  0  0  0  0  0  0  0  0  0
    5.0195    0.3063    1.5559 N   0  0  0  0  0  0  0  0  0  0  0  0
    5.2872    0.4458    0.2525 C   0  0  0  0  0  0  0  0  0  0  0  0
    6.4915    0.6063   -0.4081 C   0  0  0  0  0  0  0  0  0  0  0  0
    6.5393    0.7366   -1.7972 C   0  0  0  0  0  0  0  0  0  0  0  0
    5.3504    0.7010   -2.4979 C   0  0  0  0  0  0  0  0  0  0  0  0
    4.1330    0.5384   -1.8275 C   0  0  0  0  0  0  0  0  0  0  0  0
    4.1128    0.4122   -0.4575 C   0  0  0  0  0  0  0  0  0  0  0  0
    3.1050    0.2406    0.5148 C   0  0  0  0  0  0  0  0  0  0  0  0
    1.6975    0.1548    0.1217 C   0  0  0  0  0  0  0  0  0  0  0  0
    0.7201   -0.3229    1.1195 C   0  0  0  0  0  0  0  0  0  0  0  0
   -0.6491   -0.3644    0.5486 N   0  0  0  0  0  0  0  0  0  0  0  0
   -1.6317    0.6523    0.5401 C   0  0  0  0  0  0  0  0  0  0  0  0
   -1.4699    1.7990    1.0251 O   0  0  0  0  0  0  0  0  0  0  0  0
   -2.8673    0.1788   -0.1151 C   0  0  0  0  0  0  0  0  0  0  0  0
   -3.2647    0.9493   -1.3300 C   0  0  0  0  0  0  0  0  0  0  0  0
   -4.0760    2.1702   -1.0881 C   0  0  0  0  0  0  0  0  0  0  0  0
   -5.2738    1.8269   -0.2271 C   0  0  0  0  0  0  0  0  0  0  0  0
   -4.7335    1.3329    1.0984 C   0  0  0  0  0  0  0  0  0  0  0  0
   -3.9783    0.0456    0.8967 C   0  0  0  0  0  0  0  0  0  0  0  0
   -2.5018   -1.2096   -0.5066 C   0  0  0  0  0  0  0  0  0  0  0  0
   -3.2466   -2.1645   -1.1642 C   0  0  0  0  0  0  0  0  0  0  0  0
   -2.7491   -3.4348   -1.4473 C   0  0  0  0  0  0  0  0  0  0  0  0
   -1.4598   -3.6872   -1.0308 C   0  0  0  0  0  0  0  0  0  0  0  0
   -0.7068   -2.7383   -0.3719 C   0  0  0  0  0  0  0  0  0  0  0  0
   -1.2135   -1.4857   -0.0988 C   0  0  0  0  0  0  0  0  0  0  0  0
    2.4509   -0.9303    3.1951 H   0  0  0  0  0  0  0  0  0  0  0  0
    2.4850    0.9161    3.4330 H   0  0  0  0  0  0  0  0  0  0  0  0
    3.8507   -0.1023    3.8650 H   0  0  0  0  0  0  0  0  0  0  0  0
    5.7094    0.2936    2.3338 H   0  0  0  0  0  0  0  0  0  0  0  0
    7.4043    0.6289    0.1694 H   0  0  0  0  0  0  0  0  0  0  0  0
    7.4965    0.8601   -2.2696 H   0  0  0  0  0  0  0  0  0  0  0  0
    5.3924    0.8034   -3.5743 H   0  0  0  0  0  0  0  0  0  0  0  0
    3.2131    0.5100   -2.3570 H   0  0  0  0  0  0  0  0  0  0  0  0
    1.3852    1.2052   -0.1813 H   0  0  0  0  0  0  0  0  0  0  0  0
    1.6422   -0.4035   -0.8527 H   0  0  0  0  0  0  0  0  0  0  0  0
    1.0042   -1.3632    1.4055 H   0  0  0  0  0  0  0  0  0  0  0  0
    0.7007    0.3708    1.9821 H   0  0  0  0  0  0  0  0  0  0  0  0
   -2.3082    1.2740   -1.8333 H   0  0  0  0  0  0  0  0  0  0  0  0
   -3.7999    0.3219   -2.0778 H   0  0  0  0  0  0  0  0  0  0  0  0
   -3.5124    2.9727   -0.5498 H   0  0  0  0  0  0  0  0  0  0  0  0
   -4.4277    2.5638   -2.0680 H   0  0  0  0  0  0  0  0  0  0  0  0
   -5.8910    1.0206   -0.6614 H   0  0  0  0  0  0  0  0  0  0  0  0
   -5.8997    2.7347   -0.0249 H   0  0  0  0  0  0  0  0  0  0  0  0
   -4.1193    2.1239    1.5498 H   0  0  0  0  0  0  0  0  0  0  0  0
   -5.6052    1.1194    1.7502 H   0  0  0  0  0  0  0  0  0  0  0  0
   -3.5156   -0.2716    1.8569 H   0  0  0  0  0  0  0  0  0  0  0  0
   -4.6662   -0.7514    0.5814 H   0  0  0  0  0  0  0  0  0  0  0  0
   -4.2611   -1.9671   -1.4939 H   0  0  0  0  0  0  0  0  0  0  0  0
   -3.3390   -4.1754   -1.9625 H   0  0  0  0  0  0  0  0  0  0  0  0
   -1.0256   -4.6671   -1.2287 H   0  0  0  0  0  0  0  0  0  0  0  0
    0.3047   -2.9574   -0.0527 H   0  0  0  0  0  0  0  0  0  0  0  0
  1  2  1  0
  2  3  1  0
  3  4  1  0
  4  5  2  0
  5  6  1  0
  6  7  2  0
  7  8  1  0
  8  9  2  0
  9 10  1  0
 10 11  1  0
 11 12  1  0
 12 13  1  0
 13 14  1  0
 14 15  2  0
 14 16  1  0
 16 17  1  0
 17 18  1  0
 18 19  1  0
 19 20  1  0
 20 21  1  0
 16 22  1  0
 22 23  2  0
 23 24  1  0
 24 25  2  0
 25 26  1  0
 26 27  2  0
 10  2  2  0
 27 13  1  0
  9  4  1  0
 21 16  1  0
 27 22  1  0
  1 28  1  0
  1 29  1  0
  1 30  1  0
  3 31  1  0
  5 32  1  0
  6 33  1  0
  7 34  1  0
  8 35  1  0
 11 36  1  0
 11 37  1  0
 12 38  1  0
 12 39  1  0
 17 40  1  0
 17 41  1  0
 18 42  1  0
 18 43  1  0
 19 44  1  0
 19 45  1  0
 20 46  1  0
 20 47  1  0
 21 48  1  0
 21 49  1  0
 23 50  1  0
 24 51  1  0
 25 52  1  0
 26 53  1  0
M  END
$$$$
[H]c1c([H])c([H])c(C([H])(c2c([H])c([H])c(C(=O)N(C([H])([H])[H])C3([H])C([H])([H])C([H])([H])C3([H])[H])c([H])c2[H])N2C([H])([H])C([H])([H])C([H])([H])C2([H])[H])c([H])c1[H]
     RDKit          3D

 54 57  0  0  0  0  0  0  0  0999 V2000
    4.2502   -1.0477   -1.6177 C   0  0  0  0  0  0  0  0  0  0  0  0
    4.2769   -0.3704   -0.3371 N   0  0  0  0  0  0  0  0  0  0  0  0
    5.6286   -0.1368    0.1853 C   0  0  0  0  0  0  0  0  0  0  0  0
    5.9633    1.2661    0.5870 C   0  0  0  0  0  0  0  0  0  0  0  0
    6.4261    0.7835    1.9625 C   0  0  0  0  0  0  0  0  0  0  0  0
    5.9026   -0.6034    1.5799 C   0  0  0  0  0  0  0  0  0  0  0  0
    3.1443    0.0374    0.3407 C   0  0  0  0  0  0  0  0  0  0  0  0
    3.4120    0.6149    1.4885 O   0  0  0  0  0  0  0  0  0  0  0  0
    1.7282   -0.0338    0.0615 C   0  0  0  0  0  0  0  0  0  0  0  0
    1.1370   -0.5398   -1.0618 C   0  0  0  0  0  0  0  0  0  0  0  0
   -0.2525   -0.5808   -1.2475 C   0  0  0  0  0  0  0  0  0  0  0  0
   -1.1057   -0.1097   -0.3016 C   0  0  0  0  0  0  0  0  0  0  0  0
   -0.5307    0.4029    0.8337 C   0  0  0  0  0  0  0  0  0  0  0  0
    0.8191    0.4512    1.0327 C   0  0  0  0  0  0  0  0  0  0  0  0
   -2.5575   -0.1526   -0.4946 C   0  0  0  0  0  0  0  0  0  0  0  0
   -3.1392    1.1064   -0.1088 N   0  0  0  0  0  0  0  0  0  0  0  0
   -4.5488    1.1812   -0.2517 C   0  0  0  0  0  0  0  0  0  0  0  0
   -4.8898    2.5700   -0.7133 C   0  0  0  0  0  0  0  0  0  0  0  0
   -3.5829    3.2621   -0.9941 C   0  0  0  0  0  0  0  0  0  0  0  0
   -2.5309    2.2497   -0.6751 C   0  0  0  0  0  0  0  0  0  0  0  0
   -3.1916   -1.3064    0.1748 C   0  0  0  0  0  0  0  0  0  0  0  0
   -3.4608   -1.2604    1.5237 C   0  0  0  0  0  0  0  0  0  0  0  0
   -4.0488   -2.3231    2.1585 C   0  0  0  0  0  0  0  0  0  0  0  0
   -4.3682   -3.4386    1.4334 C   0  0  0  0  0  0  0  0  0  0  0  0
   -4.1268   -3.5535    0.0773 C   0  0  0  0  0  0  0  0  0  0  0  0
   -3.5314   -2.4504   -0.5113 C   0  0  0  0  0  0  0  0  0  0  0  0
    5.3257   -1.3703   -1.8829 H   0  0  0  0  0  0  0  0  0  0  0  0
    3.8698   -0.4507   -2.4476 H   0  0  0  0  0  0  0  0  0  0  0  0
    3.6999   -2.0044   -1.5542 H   0  0  0  0  0  0  0  0  0  0  0  0
    6.3956   -0.5741   -0.5320 H   0  0  0  0  0  0  0  0  0  0  0  0
    5.1346    1.9567    0.5864 H   0  0  0  0  0  0  0  0  0  0  0  0
    6.8681    1.6758    0.0513 H   0  0  0  0  0  0  0  0  0  0  0  0
    7.5317    0.7748    2.0977 H   0  0  0  0  0  0  0  0  0  0  0  0
    5.8897    1.2777    2.7945 H   0  0  0  0  0  0  0  0  0  0  0  0
    5.0747   -0.9658    2.1809 H   0  0  0  0  0  0  0  0  0  0  0  0
    6.7298   -1.3829    1.6173 H   0  0  0  0  0  0  0  0  0  0  0  0
    1.7484   -0.9233   -1.8530 H   0  0  0  0  0  0  0  0  0  0  0  0
   -0.5848   -1.0083   -2.1840 H   0  0  0  0  0  0  0  0  0  0  0  0
   -1.1619    0.7915    1.6188 H   0  0  0  0  0  0  0  0  0  0  0  0
    1.2167    0.8627    1.9408 H   0  0  0  0  0  0  0  0  0  0  0  0
   -2.7574   -0.2707   -1.5859 H   0  0  0  0  0  0  0  0  0  0  0  0
   -5.1263    0.8986    0.6504 H   0  0  0  0  0  0  0  0  0  0  0  0
   -4.8610    0.4793   -1.0547 H   0  0  0  0  0  0  0  0  0  0  0  0
   -5.4879    2.5661   -1.6666 H   0  0  0  0  0  0  0  0  0  0  0  0
   -5.5084    3.0947    0.0357 H   0  0  0  0  0  0  0  0  0  0  0  0
   -3.5185    3.6391   -2.0446 H   0  0  0  0  0  0  0  0  0  0  0  0
   -3.5352    4.1671   -0.3522 H   0  0  0  0  0  0  0  0  0  0  0  0
   -2.0756    1.9385   -1.6624 H   0  0  0  0  0  0  0  0  0  0  0  0
   -1.6835    2.6675   -0.0925 H   0  0  0  0  0  0  0  0  0  0  0  0
   -3.2061   -0.3637    2.1160 H   0  0  0  0  0  0  0  0  0  0  0  0
   -4.2536   -2.2592    3.2414 H   0  0  0  0  0  0  0  0  0  0  0  0
   -4.8311   -4.2676    1.9476 H   0  0  0  0  0  0  0  0  0  0  0  0
   -4.3843   -4.4434   -0.4875 H   0  0  0  0  0  0  0  0  0  0  0  0
   -3.3319   -2.5240   -1.5890 H   0  0  0  0  0  0  0  0  0  0  0  0
  1  2  1  0
  2  3  1  0
  3  4  1  0
  4  5  1  0
  5  6  1  0
  2  7  1  0
  7  8  2  0
  7  9  1  0
  9 10  2  0
 10 11  1  0
 11 12  2  0
 12 13  1  0
 13 14  2  0
 12 15  1  0
 15 16  1  0
 16 17  1  0
 17 18  1  0
 18 19  1  0
 19 20  1  0
 15 21  1  0
 21 22  2  0
 22 23  1  0
 23 24  2  0
 24 25  1  0
 25 26  2  0
  6  3  1  0
 14  9  1  0
 20 16  1  0
 26 21  1  0
  1 27  1  0
  1 28  1  0
  1 29  1  0
  3 30  1  0
  4 31  1  0
  4 32  1  0
  5 33  1  0
  5 34  1  0
  6 35  1  0
  6 36  1  0
 10 37  1  0
 11 38  1  0
 13 39  1  0
 14 40  1  0
 15 41  1  0
 17 42  1  0
 17 43  1  0
 18 44  1  0
 18 45  1  0
 19 46  1  0
 19 47  1  0
 20 48  1  0
 20 49  1  0
 22 50  1  0
 23 51  1  0
 24 52  1  0
 25 53  1  0
 26 54  1  0
M  END
$$$$
[H]c1c([H])c(N([H])C(=O)N2C([H])([H])C([H])([H])C([H])(c3noc4c([H])c(Cl)c([H])c([H])c34)C([H])([H])C2([H])[H])c([H])c([H])c1OC(F)(F)F
     RDKit          3D

 47 50  0  0  0  0  0  0  0  0999 V2000
   -9.8273    1.1886   -0.0886 F   0  0  0  0  0  0  0  0  0  0  0  0
   -8.5308    1.0342    0.4059 C   0  0  0  0  0  0  0  0  0  0  0  0
   -8.2171    2.1606    1.1197 F   0  0  0  0  0  0  0  0  0  0  0  0
   -8.5587   -0.0234    1.2667 F   0  0  0  0  0  0  0  0  0  0  0  0
   -7.6891    0.8400   -0.6949 O   0  0  0  0  0  0  0  0  0  0  0  0
   -6.3351    0.6484   -0.6397 C   0  0  0  0  0  0  0  0  0  0  0  0
   -5.4551    1.6962   -0.6866 C   0  0  0  0  0  0  0  0  0  0  0  0
   -4.1105    1.5173   -0.6323 C   0  0  0  0  0  0  0  0  0  0  0  0
   -3.5675    0.2341   -0.5246 C   0  0  0  0  0  0  0  0  0  0  0  0
   -2.1575    0.0788   -0.5022 N   0  0  0  0  0  0  0  0  0  0  0  0
   -1.5108   -1.0077    0.0841 C   0  0  0  0  0  0  0  0  0  0  0  0
   -2.1236   -1.9199    0.6427 O   0  0  0  0  0  0  0  0  0  0  0  0
   -0.0941   -1.0760    0.0421 N   0  0  0  0  0  0  0  0  0  0  0  0
    0.5529   -2.2077    0.6660 C   0  0  0  0  0  0  0  0  0  0  0  0
    1.9289   -1.8406    1.1763 C   0  0  0  0  0  0  0  0  0  0  0  0
    2.7759   -1.2045    0.1110 C   0  0  0  0  0  0  0  0  0  0  0  0
    2.0961   -0.2260   -0.7619 C   0  0  0  0  0  0  0  0  0  0  0  0
    0.6368   -0.0356   -0.6087 C   0  0  0  0  0  0  0  0  0  0  0  0
    3.9338   -0.5577    0.8213 C   0  0  0  0  0  0  0  0  0  0  0  0
    4.1554   -0.4869    2.1450 N   0  0  0  0  0  0  0  0  0  0  0  0
    5.2460    0.1424    2.3982 O   0  0  0  0  0  0  0  0  0  0  0  0
    5.8369    0.5394    1.2898 C   0  0  0  0  0  0  0  0  0  0  0  0
    6.9972    1.2333    1.0120 C   0  0  0  0  0  0  0  0  0  0  0  0
    7.3352    1.4907   -0.3067 C   0  0  0  0  0  0  0  0  0  0  0  0
    8.8174    2.3777   -0.6834 Cl  0  0  0  0  0  0  0  0  0  0  0  0
    6.5388    1.0694   -1.3481 C   0  0  0  0  0  0  0  0  0  0  0  0
    5.3736    0.3716   -1.0459 C   0  0  0  0  0  0  0  0  0  0  0  0
    5.0071    0.0984    0.2545 C   0  0  0  0  0  0  0  0  0  0  0  0
   -4.4385   -0.8220   -0.4776 C   0  0  0  0  0  0  0  0  0  0  0  0
   -5.8209   -0.6144   -0.5347 C   0  0  0  0  0  0  0  0  0  0  0  0
   -5.8577    2.6963   -0.7697 H   0  0  0  0  0  0  0  0  0  0  0  0
   -3.3900    2.3366   -0.6674 H   0  0  0  0  0  0  0  0  0  0  0  0
   -1.5979    0.8656   -0.9750 H   0  0  0  0  0  0  0  0  0  0  0  0
   -0.0525   -2.4618    1.5813 H   0  0  0  0  0  0  0  0  0  0  0  0
    0.5666   -3.1091    0.0521 H   0  0  0  0  0  0  0  0  0  0  0  0
    1.8461   -1.1542    2.0416 H   0  0  0  0  0  0  0  0  0  0  0  0
    2.4378   -2.7595    1.5134 H   0  0  0  0  0  0  0  0  0  0  0  0
    3.2393   -2.0224   -0.5153 H   0  0  0  0  0  0  0  0  0  0  0  0
    2.5685    0.7915   -0.5898 H   0  0  0  0  0  0  0  0  0  0  0  0
    2.3826   -0.4415   -1.8347 H   0  0  0  0  0  0  0  0  0  0  0  0
    0.3637    0.9201   -0.0872 H   0  0  0  0  0  0  0  0  0  0  0  0
    0.1479    0.0910   -1.6267 H   0  0  0  0  0  0  0  0  0  0  0  0
    7.6444    1.5773    1.8186 H   0  0  0  0  0  0  0  0  0  0  0  0
    6.8115    1.2746   -2.3747 H   0  0  0  0  0  0  0  0  0  0  0  0
    4.7265    0.0260   -1.8305 H   0  0  0  0  0  0  0  0  0  0  0  0
   -4.1230   -1.8682   -0.4134 H   0  0  0  0  0  0  0  0  0  0  0  0
   -6.5093   -1.4612   -0.4962 H   0  0  0  0  0  0  0  0  0  0  0  0
  1  2  1  0
  2  3  1  0
  2  4  1  0
  2  5  1  0
  5  6  1  0
  6  7  2  0
  7  8  1  0
  8  9  2  0
  9 10  1  0
 10 11  1  0
 11 12  2  0
 11 13  1  0
 13 14  1  0
 14 15  1  0
 15 16  1  0
 16 17  1  0
 17 18  1  0
 16 19  1  0
 19 20  2  0
 20 21  1  0
 21 22  1  0
 22 23  2  0
 23 24  1  0
 24 25  1  0
 24 26  2  0
 26 27  1  0
 27 28  2  0
  9 29  1  0
 29 30  2  0
 30  6  1  0
 18 13  1  0
 28 19  1  0
 28 22  1  0
  7 31  1  0
  8 32  1  0
 10 33  1  0
 14 34  1  0
 14 35  1  0
 15 36  1  0
 15 37  1  0
 16 38  1  0
 17 39  1  0
 17 40  1  0
 18 41  1  0
 18 42  1  0
 23 43  1  0
 26 44  1  0
 27 45  1  0
 29 46  1  0
 30 47  1  0
M  END
$$$$
[H]c1nc(N([H])c2c([H])c(C(F)(F)F)c([H])c(S(=O)(=O)C([H])([H])[H])c2[H])nc(-c2nc(SC([H])(C([H])([H])[H])C([H])([H])[H])sc2[H])c1[H]
     RDKit          3D

 47 49  0  0  0  0  0  0  0  0999 V2000
    9.3881   -0.1732   -0.4450 C   0  0  0  0  0  0  0  0  0  0  0  0
    7.9520    0.3277   -0.6609 C   0  0  0  0  0  0  0  0  0  0  0  0
    7.8796    1.7550   -0.1789 C   0  0  0  0  0  0  0  0  0  0  0  0
    6.8284   -0.6562    0.3650 S   0  0  0  0  0  0  0  0  0  0  0  0
    5.1496   -0.1295   -0.0701 C   0  0  0  0  0  0  0  0  0  0  0  0
    4.0008   -0.5697    0.3918 N   0  0  0  0  0  0  0  0  0  0  0  0
    2.8828   -0.0805   -0.0500 C   0  0  0  0  0  0  0  0  0  0  0  0
    2.9652    0.9086   -1.0090 C   0  0  0  0  0  0  0  0  0  0  0  0
    4.6693    1.0499   -1.1956 S   0  0  0  0  0  0  0  0  0  0  0  0
    1.5597   -0.5592    0.4331 C   0  0  0  0  0  0  0  0  0  0  0  0
    1.4868   -1.5856    1.3752 C   0  0  0  0  0  0  0  0  0  0  0  0
    0.2433   -2.0017    1.7636 C   0  0  0  0  0  0  0  0  0  0  0  0
   -0.8237   -1.4212    1.2382 N   0  0  0  0  0  0  0  0  0  0  0  0
   -0.7694   -0.4337    0.3287 C   0  0  0  0  0  0  0  0  0  0  0  0
   -1.8647    0.2108   -0.2719 N   0  0  0  0  0  0  0  0  0  0  0  0
   -3.2315   -0.0714   -0.0527 C   0  0  0  0  0  0  0  0  0  0  0  0
   -3.6544   -1.2970    0.3818 C   0  0  0  0  0  0  0  0  0  0  0  0
   -5.0293   -1.4562    0.6092 C   0  0  0  0  0  0  0  0  0  0  0  0
   -5.9206   -0.4331    0.4091 C   0  0  0  0  0  0  0  0  0  0  0  0
   -5.4921    0.8055   -0.0306 C   0  0  0  0  0  0  0  0  0  0  0  0
   -4.1480    0.9756   -0.2583 C   0  0  0  0  0  0  0  0  0  0  0  0
   -6.5603    2.1735   -0.2374 S   0  0  0  0  0  0  0  0  0  0  0  0
   -8.0214    1.7438   -1.1621 C   0  0  0  0  0  0  0  0  0  0  0  0
   -6.9797    2.7330    1.0894 O   0  0  0  0  0  0  0  0  0  0  0  0
   -5.8406    3.2372   -1.0376 O   0  0  0  0  0  0  0  0  0  0  0  0
   -5.4456   -2.8147    1.0917 C   0  0  0  0  0  0  0  0  0  0  0  0
   -4.8589   -3.7105    0.1770 F   0  0  0  0  0  0  0  0  0  0  0  0
   -6.8002   -2.9285    1.1219 F   0  0  0  0  0  0  0  0  0  0  0  0
   -4.8324   -3.0484    2.3061 F   0  0  0  0  0  0  0  0  0  0  0  0
    0.4555   -0.0132   -0.0641 N   0  0  0  0  0  0  0  0  0  0  0  0
   10.0597    0.4359   -1.0684 H   0  0  0  0  0  0  0  0  0  0  0  0
    9.4147   -1.2211   -0.8546 H   0  0  0  0  0  0  0  0  0  0  0  0
    9.6807   -0.1490    0.6174 H   0  0  0  0  0  0  0  0  0  0  0  0
    7.7463    0.2061   -1.7252 H   0  0  0  0  0  0  0  0  0  0  0  0
    8.3699    2.4480   -0.8855 H   0  0  0  0  0  0  0  0  0  0  0  0
    6.8415    2.0061    0.0447 H   0  0  0  0  0  0  0  0  0  0  0  0
    8.4136    1.7554    0.8067 H   0  0  0  0  0  0  0  0  0  0  0  0
    2.1513    1.4720   -1.5139 H   0  0  0  0  0  0  0  0  0  0  0  0
    2.4063   -1.9909    1.7371 H   0  0  0  0  0  0  0  0  0  0  0  0
    0.1735   -2.7960    2.5002 H   0  0  0  0  0  0  0  0  0  0  0  0
   -1.6525    0.9945   -0.9693 H   0  0  0  0  0  0  0  0  0  0  0  0
   -2.9948   -2.1401    0.5418 H   0  0  0  0  0  0  0  0  0  0  0  0
   -6.9445   -0.5661    0.5869 H   0  0  0  0  0  0  0  0  0  0  0  0
   -3.7952    1.9516   -0.6162 H   0  0  0  0  0  0  0  0  0  0  0  0
   -8.6779    1.1518   -0.4697 H   0  0  0  0  0  0  0  0  0  0  0  0
   -8.5689    2.6731   -1.3656 H   0  0  0  0  0  0  0  0  0  0  0  0
   -7.8119    1.2319   -2.1131 H   0  0  0  0  0  0  0  0  0  0  0  0
  1  2  1  0
  2  3  1  0
  2  4  1  0
  4  5  1  0
  5  6  2  0
  6  7  1  0
  7  8  2  0
  8  9  1  0
  7 10  1  0
 10 11  2  0
 11 12  1  0
 12 13  2  0
 13 14  1  0
 14 15  1  0
 15 16  1  0
 16 17  2  0
 17 18  1  0
 18 19  2  0
 19 20  1  0
 20 21  2  0
 20 22  1  0
 22 23  1  0
 22 24  2  0
 22 25  2  0
 18 26  1  0
 26 27  1  0
 26 28  1  0
 26 29  1  0
 14 30  2  0
  9  5  1  0
 30 10  1  0
 21 16  1  0
  1 31  1  0
  1 32  1  0
  1 33  1  0
  2 34  1  0
  3 35  1  0
  3 36  1  0
  3 37  1  0
  8 38  1  0
 11 39  1  0
 12 40  1  0
 15 41  1  0
 17 42  1  0
 19 43  1  0
 21 44  1  0
 23 45  1  0
 23 46  1  0
 23 47  1  0
M  END
$$$$
[H]c1nc(OC2([H])C([H])([H])C([H])([H])N(C(=O)N3C([H])([H])SC([H])(C([H])([H])c4c([H])c([H])c([H])c([H])c4[H])C3([H])[H])C([H])([H])C2([H])[H])c(N=C(N([H])[H])N([H])[H])c(N([H])[H])n1
     RDKit          3D

 60 63  0  0  0  0  0  0  0  0999 V2000
   -5.8574    0.3698   -1.8235 N   0  0  0  0  0  0  0  0  0  0  0  0
   -6.5475   -0.7110   -1.2260 C   0  0  0  0  0  0  0  0  0  0  0  0
   -7.1699   -1.6501   -2.1041 N   0  0  0  0  0  0  0  0  0  0  0  0
   -6.6548   -0.9077    0.0353 N   0  0  0  0  0  0  0  0  0  0  0  0
   -6.1082   -0.0866    1.0451 C   0  0  0  0  0  0  0  0  0  0  0  0
   -6.9375    0.5656    1.9461 C   0  0  0  0  0  0  0  0  0  0  0  0
   -8.3497    0.3701    1.8010 N   0  0  0  0  0  0  0  0  0  0  0  0
   -6.4194    1.3431    2.9069 N   0  0  0  0  0  0  0  0  0  0  0  0
   -5.0868    1.5292    3.0459 C   0  0  0  0  0  0  0  0  0  0  0  0
   -4.3033    0.8923    2.1681 N   0  0  0  0  0  0  0  0  0  0  0  0
   -4.7328    0.0992    1.1802 C   0  0  0  0  0  0  0  0  0  0  0  0
   -3.9079   -0.5463    0.2876 O   0  0  0  0  0  0  0  0  0  0  0  0
   -2.5080   -0.4020    0.3761 C   0  0  0  0  0  0  0  0  0  0  0  0
   -1.8414   -1.7574    0.5486 C   0  0  0  0  0  0  0  0  0  0  0  0
   -0.7866   -1.9617   -0.5239 C   0  0  0  0  0  0  0  0  0  0  0  0
    0.1395   -0.8255   -0.5271 N   0  0  0  0  0  0  0  0  0  0  0  0
   -0.4572    0.4605   -0.7083 C   0  0  0  0  0  0  0  0  0  0  0  0
   -1.9707    0.2991   -0.8498 C   0  0  0  0  0  0  0  0  0  0  0  0
    1.5056   -1.0535   -0.3647 C   0  0  0  0  0  0  0  0  0  0  0  0
    1.7824   -2.3436   -0.2367 O   0  0  0  0  0  0  0  0  0  0  0  0
    2.5841   -0.1636   -0.3182 N   0  0  0  0  0  0  0  0  0  0  0  0
    2.6555    1.2517   -0.4042 C   0  0  0  0  0  0  0  0  0  0  0  0
    3.9935    1.3915   -1.6917 S   0  0  0  0  0  0  0  0  0  0  0  0
    4.5820   -0.3499   -1.5505 C   0  0  0  0  0  0  0  0  0  0  0  0
    6.0580   -0.4545   -1.5803 C   0  0  0  0  0  0  0  0  0  0  0  0
    6.7737    0.2601   -0.5125 C   0  0  0  0  0  0  0  0  0  0  0  0
    7.0810   -0.3461    0.6876 C   0  0  0  0  0  0  0  0  0  0  0  0
    7.7595    0.3252    1.6946 C   0  0  0  0  0  0  0  0  0  0  0  0
    8.1573    1.6359    1.5368 C   0  0  0  0  0  0  0  0  0  0  0  0
    7.8527    2.2479    0.3408 C   0  0  0  0  0  0  0  0  0  0  0  0
    7.1776    1.5827   -0.6645 C   0  0  0  0  0  0  0  0  0  0  0  0
    3.9853   -0.6405   -0.1625 C   0  0  0  0  0  0  0  0  0  0  0  0
   -4.9602    0.1147   -2.3231 H   0  0  0  0  0  0  0  0  0  0  0  0
   -6.1693    1.3626   -1.8011 H   0  0  0  0  0  0  0  0  0  0  0  0
   -8.2058   -1.6300   -2.3102 H   0  0  0  0  0  0  0  0  0  0  0  0
   -6.6390   -2.4062   -2.5885 H   0  0  0  0  0  0  0  0  0  0  0  0
   -8.9636    1.1403    2.1631 H   0  0  0  0  0  0  0  0  0  0  0  0
   -8.7148   -0.5047    1.3535 H   0  0  0  0  0  0  0  0  0  0  0  0
   -4.6685    2.1551    3.8183 H   0  0  0  0  0  0  0  0  0  0  0  0
   -2.2739    0.2354    1.2452 H   0  0  0  0  0  0  0  0  0  0  0  0
   -2.6023   -2.5473    0.3890 H   0  0  0  0  0  0  0  0  0  0  0  0
   -1.4305   -1.8724    1.5593 H   0  0  0  0  0  0  0  0  0  0  0  0
   -1.2799   -2.0189   -1.4939 H   0  0  0  0  0  0  0  0  0  0  0  0
   -0.2234   -2.8585   -0.2778 H   0  0  0  0  0  0  0  0  0  0  0  0
   -0.3008    1.1755    0.1155 H   0  0  0  0  0  0  0  0  0  0  0  0
   -0.1181    0.9641   -1.6521 H   0  0  0  0  0  0  0  0  0  0  0  0
   -2.4174    1.3120   -0.8824 H   0  0  0  0  0  0  0  0  0  0  0  0
   -2.1965   -0.2124   -1.7925 H   0  0  0  0  0  0  0  0  0  0  0  0
    3.1014    1.6285    0.5712 H   0  0  0  0  0  0  0  0  0  0  0  0
    1.7978    1.8148   -0.7082 H   0  0  0  0  0  0  0  0  0  0  0  0
    4.1240   -0.9801   -2.3078 H   0  0  0  0  0  0  0  0  0  0  0  0
    6.3087   -1.5491   -1.5970 H   0  0  0  0  0  0  0  0  0  0  0  0
    6.3893   -0.0961   -2.6001 H   0  0  0  0  0  0  0  0  0  0  0  0
    6.7618   -1.3878    0.8073 H   0  0  0  0  0  0  0  0  0  0  0  0
    7.9882   -0.1681    2.6228 H   0  0  0  0  0  0  0  0  0  0  0  0
    8.6907    2.1781    2.3177 H   0  0  0  0  0  0  0  0  0  0  0  0
    8.1683    3.2858    0.2194 H   0  0  0  0  0  0  0  0  0  0  0  0
    6.9433    2.0705   -1.6006 H   0  0  0  0  0  0  0  0  0  0  0  0
    4.4456    0.0607    0.5387 H   0  0  0  0  0  0  0  0  0  0  0  0
    3.9966   -1.6905    0.0986 H   0  0  0  0  0  0  0  0  0  0  0  0
  1  2  1  0
  2  3  1  0
  2  4  2  3
  4  5  1  0
  5  6  2  0
  6  7  1  0
  6  8  1  0
  8  9  2  0
  9 10  1  0
 10 11  2  0
 11 12  1  0
 12 13  1  0
 13 14  1  0
 14 15  1  0
 15 16  1  0
 16 17  1  0
 17 18  1  0
 16 19  1  0
 19 20  2  0
 19 21  1  0
 21 22  1  0
 22 23  1  0
 23 24  1  0
 24 25  1  0
 25 26  1  0
 26 27  2  0
 27 28  1  0
 28 29  2  0
 29 30  1  0
 30 31  2  0
 24 32  1  0
 11  5  1  0
 18 13  1  0
 32 21  1  0
 31 26  1  0
  1 33  1  0
  1 34  1  0
  3 35  1  0
  3 36  1  0
  7 37  1  0
  7 38  1  0
  9 39  1  0
 13 40  1  0
 14 41  1  0
 14 42  1  0
 15 43  1  0
 15 44  1  0
 17 45  1  0
 17 46  1  0
 18 47  1  0
 18 48  1  0
 22 49  1  0
 22 50  1  0
 24 51  1  0
 25 52  1  0
 25 53  1  0
 27 54  1  0
 28 55  1  0
 29 56  1  0
 30 57  1  0
 31 58  1  0
 32 59  1  0
 32 60  1  0
M  END
$$$$
[H]/C(=C(/[H])c1c([H])c([H])c(N2C(=O)C([H])([H])c3c([H])c([H])c([H])c([H])c3C2([H])[H])c([H])c1[H])c1noc(C([H])([H])[H])c1C([H])([H])[H]
     RDKit          3D

 46 49  0  0  0  0  0  0  0  0999 V2000
    5.9568    1.9728   -0.6001 C   0  0  0  0  0  0  0  0  0  0  0  0
    6.1309    0.6014   -0.0224 C   0  0  0  0  0  0  0  0  0  0  0  0
    7.3067   -0.0794    0.2392 C   0  0  0  0  0  0  0  0  0  0  0  0
    8.6627    0.4593   -0.0402 C   0  0  0  0  0  0  0  0  0  0  0  0
    6.9767   -1.2301    0.7536 O   0  0  0  0  0  0  0  0  0  0  0  0
    5.6899   -1.3474    0.8446 N   0  0  0  0  0  0  0  0  0  0  0  0
    5.1061   -0.2178    0.3671 C   0  0  0  0  0  0  0  0  0  0  0  0
    3.6620    0.0530    0.2580 C   0  0  0  0  0  0  0  0  0  0  0  0
    2.7507   -0.7757    0.6760 C   0  0  0  0  0  0  0  0  0  0  0  0
    1.3123   -0.5443    0.5840 C   0  0  0  0  0  0  0  0  0  0  0  0
    0.4244   -1.4951    1.0947 C   0  0  0  0  0  0  0  0  0  0  0  0
   -0.9397   -1.3614    1.0218 C   0  0  0  0  0  0  0  0  0  0  0  0
   -1.4579   -0.2220    0.4076 C   0  0  0  0  0  0  0  0  0  0  0  0
   -0.5627    0.7127   -0.0937 C   0  0  0  0  0  0  0  0  0  0  0  0
    0.7950    0.5778   -0.0194 C   0  0  0  0  0  0  0  0  0  0  0  0
   -2.8519   -0.0759    0.3210 N   0  0  0  0  0  0  0  0  0  0  0  0
   -3.5109   -0.0839   -0.9594 C   0  0  0  0  0  0  0  0  0  0  0  0
   -4.9850   -0.2631   -0.8765 C   0  0  0  0  0  0  0  0  0  0  0  0
   -5.6524   -0.7772   -1.9951 C   0  0  0  0  0  0  0  0  0  0  0  0
   -7.0081   -0.9634   -1.9865 C   0  0  0  0  0  0  0  0  0  0  0  0
   -7.7738   -0.6540   -0.8838 C   0  0  0  0  0  0  0  0  0  0  0  0
   -7.1142   -0.1491    0.2140 C   0  0  0  0  0  0  0  0  0  0  0  0
   -5.7416    0.0434    0.2192 C   0  0  0  0  0  0  0  0  0  0  0  0
   -5.0478    0.5919    1.4144 C   0  0  0  0  0  0  0  0  0  0  0  0
   -3.6528    0.0774    1.4834 C   0  0  0  0  0  0  0  0  0  0  0  0
   -3.2243   -0.2138    2.6391 O   0  0  0  0  0  0  0  0  0  0  0  0
    6.9273    2.4156   -0.8968 H   0  0  0  0  0  0  0  0  0  0  0  0
    5.2812    1.9082   -1.4724 H   0  0  0  0  0  0  0  0  0  0  0  0
    5.5334    2.6266    0.2045 H   0  0  0  0  0  0  0  0  0  0  0  0
    8.6862    0.9467   -1.0237 H   0  0  0  0  0  0  0  0  0  0  0  0
    8.9851    1.1661    0.7213 H   0  0  0  0  0  0  0  0  0  0  0  0
    9.3758   -0.4037   -0.0142 H   0  0  0  0  0  0  0  0  0  0  0  0
    3.3592    0.9863   -0.1900 H   0  0  0  0  0  0  0  0  0  0  0  0
    3.1036   -1.7027    1.1300 H   0  0  0  0  0  0  0  0  0  0  0  0
    0.8416   -2.3747    1.5688 H   0  0  0  0  0  0  0  0  0  0  0  0
   -1.6201   -2.1204    1.4347 H   0  0  0  0  0  0  0  0  0  0  0  0
   -0.9706    1.6137   -0.5803 H   0  0  0  0  0  0  0  0  0  0  0  0
    1.4075    1.3573   -0.4379 H   0  0  0  0  0  0  0  0  0  0  0  0
   -3.3388    0.9207   -1.4238 H   0  0  0  0  0  0  0  0  0  0  0  0
   -3.1436   -0.9032   -1.6171 H   0  0  0  0  0  0  0  0  0  0  0  0
   -5.0445   -1.0193   -2.8653 H   0  0  0  0  0  0  0  0  0  0  0  0
   -7.5267   -1.3625   -2.8497 H   0  0  0  0  0  0  0  0  0  0  0  0
   -8.8621   -0.8018   -0.8806 H   0  0  0  0  0  0  0  0  0  0  0  0
   -7.6452    0.1134    1.1073 H   0  0  0  0  0  0  0  0  0  0  0  0
   -5.6312    0.3129    2.3048 H   0  0  0  0  0  0  0  0  0  0  0  0
   -4.9693    1.6844    1.2420 H   0  0  0  0  0  0  0  0  0  0  0  0
  1  2  1  0
  2  3  2  0
  3  4  1  0
  3  5  1  0
  5  6  1  0
  6  7  2  0
  7  8  1  0
  8  9  2  0
  9 10  1  0
 10 11  2  0
 11 12  1  0
 12 13  2  0
 13 14  1  0
 14 15  2  0
 13 16  1  0
 16 17  1  0
 17 18  1  0
 18 19  2  0
 19 20  1  0
 20 21  2  0
 21 22  1  0
 22 23  2  0
 23 24  1  0
 24 25  1  0
 25 26  2  0
  7  2  1  0
 15 10  1  0
 25 16  1  0
 23 18  1  0
  1 27  1  0
  1 28  1  0
  1 29  1  0
  4 30  1  0
  4 31  1  0
  4 32  1  0
  8 33  1  0
  9 34  1  0
 11 35  1  0
 12 36  1  0
 14 37  1  0
 15 38  1  0
 17 39  1  0
 17 40  1  0
 19 41  1  0
 20 42  1  0
 21 43  1  0
 22 44  1  0
 24 45  1  0
 24 46  1  0
M  END
$$$$
[H]Oc1c([H])c([H])c(-c2c([H])c([H])c3c(c2[H])Oc2c([H])c(O[H])c([H])c([H])c2[C@@]3([H])c2c([H])c([H])c([H])c([H])c2[H])c([H])c1[H]
     RDKit          3D

 46 50  0  0  0  0  0  0  0  0999 V2000
    7.8866    0.1269    0.5353 O   0  0  0  0  0  0  0  0  0  0  0  0
    6.5278    0.1578    0.2529 C   0  0  0  0  0  0  0  0  0  0  0  0
    5.9809    0.8278   -0.8122 C   0  0  0  0  0  0  0  0  0  0  0  0
    4.6203    0.8137   -1.0294 C   0  0  0  0  0  0  0  0  0  0  0  0
    3.8233    0.1137   -0.1554 C   0  0  0  0  0  0  0  0  0  0  0  0
    4.3356   -0.5778    0.9347 C   0  0  0  0  0  0  0  0  0  0  0  0
    5.7015   -0.5376    1.1149 C   0  0  0  0  0  0  0  0  0  0  0  0
    2.3835    0.0836   -0.3633 C   0  0  0  0  0  0  0  0  0  0  0  0
    1.7571    1.1679   -0.9276 C   0  0  0  0  0  0  0  0  0  0  0  0
    0.3914    1.1454   -1.1262 C   0  0  0  0  0  0  0  0  0  0  0  0
   -0.3389    0.0374   -0.7584 C   0  0  0  0  0  0  0  0  0  0  0  0
   -1.8047    0.0604   -0.9890 C   0  0  2  0  0  0  0  0  0  0  0  0
   -2.4036    1.2506   -0.3348 C   0  0  0  0  0  0  0  0  0  0  0  0
   -2.7450    1.1743    1.0104 C   0  0  0  0  0  0  0  0  0  0  0  0
   -3.3127    2.2798    1.6429 C   0  0  0  0  0  0  0  0  0  0  0  0
   -3.5438    3.4554    0.9559 C   0  0  0  0  0  0  0  0  0  0  0  0
   -3.2052    3.5312   -0.3780 C   0  0  0  0  0  0  0  0  0  0  0  0
   -2.6366    2.4258   -1.0139 C   0  0  0  0  0  0  0  0  0  0  0  0
   -2.4619   -1.1919   -0.5523 C   0  0  0  0  0  0  0  0  0  0  0  0
   -3.8221   -1.3057   -0.7119 C   0  0  0  0  0  0  0  0  0  0  0  0
   -4.5138   -2.4442   -0.3266 C   0  0  0  0  0  0  0  0  0  0  0  0
   -3.7995   -3.4745    0.2278 C   0  0  0  0  0  0  0  0  0  0  0  0
   -4.4387   -4.6324    0.6296 O   0  0  0  0  0  0  0  0  0  0  0  0
   -2.4295   -3.4035    0.4073 C   0  0  0  0  0  0  0  0  0  0  0  0
   -1.7761   -2.2458    0.0078 C   0  0  0  0  0  0  0  0  0  0  0  0
   -0.4081   -2.1679    0.1834 O   0  0  0  0  0  0  0  0  0  0  0  0
    0.3151   -1.0520   -0.1879 C   0  0  0  0  0  0  0  0  0  0  0  0
    1.6686   -1.0167    0.0032 C   0  0  0  0  0  0  0  0  0  0  0  0
    8.2359    0.8643    1.1436 H   0  0  0  0  0  0  0  0  0  0  0  0
    6.6418    1.3768   -1.4919 H   0  0  0  0  0  0  0  0  0  0  0  0
    4.1897    1.3499   -1.8810 H   0  0  0  0  0  0  0  0  0  0  0  0
    3.6890   -1.1265    1.6164 H   0  0  0  0  0  0  0  0  0  0  0  0
    6.1203   -1.0768    1.9673 H   0  0  0  0  0  0  0  0  0  0  0  0
    2.3180    2.0642   -1.2295 H   0  0  0  0  0  0  0  0  0  0  0  0
   -0.0639    2.0328   -1.5805 H   0  0  0  0  0  0  0  0  0  0  0  0
   -1.9275    0.1630   -2.1062 H   0  0  0  0  0  0  0  0  0  0  0  0
   -2.5584    0.2584    1.5227 H   0  0  0  0  0  0  0  0  0  0  0  0
   -3.5595    2.1620    2.6965 H   0  0  0  0  0  0  0  0  0  0  0  0
   -3.9892    4.3022    1.4783 H   0  0  0  0  0  0  0  0  0  0  0  0
   -3.3642    4.4279   -0.9611 H   0  0  0  0  0  0  0  0  0  0  0  0
   -2.3694    2.4774   -2.0596 H   0  0  0  0  0  0  0  0  0  0  0  0
   -4.3951   -0.5024   -1.1461 H   0  0  0  0  0  0  0  0  0  0  0  0
   -5.5996   -2.5232   -0.4590 H   0  0  0  0  0  0  0  0  0  0  0  0
   -5.4314   -4.7742    0.5387 H   0  0  0  0  0  0  0  0  0  0  0  0
   -1.8406   -4.1956    0.8397 H   0  0  0  0  0  0  0  0  0  0  0  0
    2.1528   -1.8820    0.4513 H   0  0  0  0  0  0  0  0  0  0  0  0
  1  2  1  0
  2  3  2  0
  3  4  1  0
  4  5  2  0
  5  6  1  0
  6  7  2  0
  5  8  1  0
  8  9  2  0
  9 10  1  0
 10 11  2  0
 11 12  1  0
 12 13  1  0
 13 14  2  0
 14 15  1  0
 15 16  2  0
 16 17  1  0
 17 18  2  0
 12 19  1  0
 19 20  2  0
 20 21  1  0
 21 22  2  0
 22 23  1  0
 22 24  1  0
 24 25  2  0
 25 26  1  0
 26 27  1  0
 27 28  2  0
  7  2  1  0
 28  8  1  0
 27 11  1  0
 18 13  1  0
 25 19  1  0
  1 29  1  0
  3 30  1  0
  4 31  1  0
  6 32  1  0
  7 33  1  0
  9 34  1  0
 10 35  1  0
 12 36  1  6
 14 37  1  0
 15 38  1  0
 16 39  1  0
 17 40  1  0
 18 41  1  0
 20 42  1  0
 21 43  1  0
 23 44  1  0
 24 45  1  0
 28 46  1  0
M  END
$$$$
[H]C1=NC(C([H])([H])[H])(C([H])([H])C([H])([H])C([H])([H])[H])S(=O)(=O)N1N([H])[H]
     RDKit          3D

 25 25  0  0  0  0  0  0  0  0999 V2000
   -3.4873    0.4939    0.4264 C   0  0  0  0  0  0  0  0  0  0  0  0
   -2.2328    0.2702   -0.4004 C   0  0  0  0  0  0  0  0  0  0  0  0
   -1.0713   -0.0383    0.5137 C   0  0  0  0  0  0  0  0  0  0  0  0
    0.1735   -0.2605   -0.3036 C   0  0  0  0  0  0  0  0  0  0  0  0
    0.0177   -1.4162   -1.2721 C   0  0  0  0  0  0  0  0  0  0  0  0
    0.6321    0.9121   -0.9677 N   0  0  0  0  0  0  0  0  0  0  0  0
    1.7879    1.3273   -0.7702 C   0  0  0  0  0  0  0  0  0  0  0  0
    2.5906    0.5914    0.1220 N   0  0  0  0  0  0  0  0  0  0  0  0
    3.9145    0.7932    0.3933 N   0  0  0  0  0  0  0  0  0  0  0  0
    1.5462   -0.5943    0.7783 S   0  0  0  0  0  0  0  0  0  0  0  0
    1.1915   -0.3228    2.2110 O   0  0  0  0  0  0  0  0  0  0  0  0
    2.0538   -1.9895    0.5786 O   0  0  0  0  0  0  0  0  0  0  0  0
   -3.4774   -0.2070    1.2926 H   0  0  0  0  0  0  0  0  0  0  0  0
   -3.4674    1.5142    0.8174 H   0  0  0  0  0  0  0  0  0  0  0  0
   -4.4130    0.2807   -0.1554 H   0  0  0  0  0  0  0  0  0  0  0  0
   -2.4366   -0.6031   -1.0558 H   0  0  0  0  0  0  0  0  0  0  0  0
   -2.0429    1.1853   -0.9936 H   0  0  0  0  0  0  0  0  0  0  0  0
   -1.2579   -0.9626    1.0867 H   0  0  0  0  0  0  0  0  0  0  0  0
   -0.9125    0.8231    1.1659 H   0  0  0  0  0  0  0  0  0  0  0  0
   -0.0769   -1.0252   -2.3183 H   0  0  0  0  0  0  0  0  0  0  0  0
   -0.8033   -2.0939   -1.0023 H   0  0  0  0  0  0  0  0  0  0  0  0
    0.9501   -2.0181   -1.2679 H   0  0  0  0  0  0  0  0  0  0  0  0
    2.1563    2.2448   -1.2860 H   0  0  0  0  0  0  0  0  0  0  0  0
    4.5263    0.0119    0.0429 H   0  0  0  0  0  0  0  0  0  0  0  0
    4.1389    1.0834    1.3657 H   0  0  0  0  0  0  0  0  0  0  0  0
  1  2  1  0
  2  3  1  0
  3  4  1  0
  4  5  1  0
  4  6  1  0
  6  7  2  0
  7  8  1  0
  8  9  1  0
  8 10  1  0
 10 11  2  0
 10 12  2  0
 10  4  1  0
  1 13  1  0
  1 14  1  0
  1 15  1  0
  2 16  1  0
  2 17  1  0
  3 18  1  0
  3 19  1  0
  5 20  1  0
  5 21  1  0
  5 22  1  0
  7 23  1  0
  9 24  1  0
  9 25  1  0
M  END
$$$$
[H]c1c([H])c([H])c(C([H])([H])C([H])([H])N([H])S(=O)(=O)c2c([H])c([H])c3c([H])c([H])c([H])c([H])c3c2[H])c(-c2c([H])c([H])c(F)c([H])c2OC([H])([H])[H])c1[H]
     RDKit          3D

 53 56  0  0  0  0  0  0  0  0999 V2000
   -3.0179    0.8173    2.9459 C   0  0  0  0  0  0  0  0  0  0  0  0
   -2.8237    0.0140    1.8113 O   0  0  0  0  0  0  0  0  0  0  0  0
   -3.6479    0.1737    0.7182 C   0  0  0  0  0  0  0  0  0  0  0  0
   -4.6630    1.0932    0.6902 C   0  0  0  0  0  0  0  0  0  0  0  0
   -5.4721    1.2330   -0.4166 C   0  0  0  0  0  0  0  0  0  0  0  0
   -6.4742    2.1511   -0.4285 F   0  0  0  0  0  0  0  0  0  0  0  0
   -5.2237    0.4136   -1.4943 C   0  0  0  0  0  0  0  0  0  0  0  0
   -4.1933   -0.5398   -1.5005 C   0  0  0  0  0  0  0  0  0  0  0  0
   -3.4090   -0.6521   -0.3888 C   0  0  0  0  0  0  0  0  0  0  0  0
   -2.3593   -1.6370   -0.2811 C   0  0  0  0  0  0  0  0  0  0  0  0
   -2.5237   -2.5064    0.8229 C   0  0  0  0  0  0  0  0  0  0  0  0
   -1.6708   -3.5640    1.0528 C   0  0  0  0  0  0  0  0  0  0  0  0
   -0.6211   -3.7880    0.1827 C   0  0  0  0  0  0  0  0  0  0  0  0
   -0.4495   -2.9557   -0.8865 C   0  0  0  0  0  0  0  0  0  0  0  0
   -1.3256   -1.8558   -1.1341 C   0  0  0  0  0  0  0  0  0  0  0  0
   -1.0077   -0.9761   -2.2535 C   0  0  0  0  0  0  0  0  0  0  0  0
   -0.1196    0.1840   -2.0072 C   0  0  0  0  0  0  0  0  0  0  0  0
   -0.5389    1.1142   -1.0266 N   0  0  0  0  0  0  0  0  0  0  0  0
    0.5758    2.4336   -0.8551 S   0  0  0  0  0  0  0  0  0  0  0  0
    0.0303    3.4018    0.1614 O   0  0  0  0  0  0  0  0  0  0  0  0
    0.7096    3.1899   -2.1488 O   0  0  0  0  0  0  0  0  0  0  0  0
    2.1065    1.7843   -0.3414 C   0  0  0  0  0  0  0  0  0  0  0  0
    2.3583    1.5942    0.9987 C   0  0  0  0  0  0  0  0  0  0  0  0
    3.5573    1.0969    1.4870 C   0  0  0  0  0  0  0  0  0  0  0  0
    4.5569    0.7742    0.5749 C   0  0  0  0  0  0  0  0  0  0  0  0
    5.7870    0.2767    0.9994 C   0  0  0  0  0  0  0  0  0  0  0  0
    6.7914   -0.0431    0.1210 C   0  0  0  0  0  0  0  0  0  0  0  0
    6.5579    0.1404   -1.2229 C   0  0  0  0  0  0  0  0  0  0  0  0
    5.3567    0.6283   -1.6737 C   0  0  0  0  0  0  0  0  0  0  0  0
    4.3485    0.9483   -0.7755 C   0  0  0  0  0  0  0  0  0  0  0  0
    3.1227    1.4520   -1.2173 C   0  0  0  0  0  0  0  0  0  0  0  0
   -3.9397    0.5042    3.4638 H   0  0  0  0  0  0  0  0  0  0  0  0
   -3.0904    1.8883    2.6254 H   0  0  0  0  0  0  0  0  0  0  0  0
   -2.1867    0.7015    3.6861 H   0  0  0  0  0  0  0  0  0  0  0  0
   -4.8567    1.7440    1.5528 H   0  0  0  0  0  0  0  0  0  0  0  0
   -5.8361    0.4970   -2.3746 H   0  0  0  0  0  0  0  0  0  0  0  0
   -4.0776   -1.1636   -2.3821 H   0  0  0  0  0  0  0  0  0  0  0  0
   -3.3265   -2.3719    1.5269 H   0  0  0  0  0  0  0  0  0  0  0  0
   -1.7833   -4.2380    1.8924 H   0  0  0  0  0  0  0  0  0  0  0  0
    0.0458   -4.6112    0.3562 H   0  0  0  0  0  0  0  0  0  0  0  0
    0.3619   -3.1029   -1.5876 H   0  0  0  0  0  0  0  0  0  0  0  0
   -1.9180   -0.5969   -2.7439 H   0  0  0  0  0  0  0  0  0  0  0  0
   -0.5200   -1.5928   -3.0999 H   0  0  0  0  0  0  0  0  0  0  0  0
    0.9242   -0.1471   -1.7087 H   0  0  0  0  0  0  0  0  0  0  0  0
    0.0709    0.6653   -3.0113 H   0  0  0  0  0  0  0  0  0  0  0  0
   -0.6746    0.6614   -0.0756 H   0  0  0  0  0  0  0  0  0  0  0  0
    1.5844    1.8441    1.7382 H   0  0  0  0  0  0  0  0  0  0  0  0
    3.7268    0.9597    2.5370 H   0  0  0  0  0  0  0  0  0  0  0  0
    5.9553    0.1362    2.0730 H   0  0  0  0  0  0  0  0  0  0  0  0
    7.7511   -0.4296    0.4287 H   0  0  0  0  0  0  0  0  0  0  0  0
    7.3400   -0.1061   -1.9279 H   0  0  0  0  0  0  0  0  0  0  0  0
    5.1557    0.7805   -2.7304 H   0  0  0  0  0  0  0  0  0  0  0  0
    2.9753    1.5814   -2.2823 H   0  0  0  0  0  0  0  0  0  0  0  0
  1  2  1  0
  2  3  1  0
  3  4  2  0
  4  5  1  0
  5  6  1  0
  5  7  2  0
  7  8  1  0
  8  9  2  0
  9 10  1  0
 10 11  2  0
 11 12  1  0
 12 13  2  0
 13 14  1  0
 14 15  2  0
 15 16  1  0
 16 17  1  0
 17 18  1  0
 18 19  1  0
 19 20  2  0
 19 21  2  0
 19 22  1  0
 22 23  2  0
 23 24  1  0
 24 25  2  0
 25 26  1  0
 26 27  2  0
 27 28  1  0
 28 29  2  0
 29 30  1  0
 30 31  2  0
  9  3  1  0
 15 10  1  0
 31 22  1  0
 30 25  1  0
  1 32  1  0
  1 33  1  0
  1 34  1  0
  4 35  1  0
  7 36  1  0
  8 37  1  0
 11 38  1  0
 12 39  1  0
 13 40  1  0
 14 41  1  0
 16 42  1  0
 16 43  1  0
 17 44  1  0
 17 45  1  0
 18 46  1  0
 23 47  1  0
 24 48  1  0
 26 49  1  0
 27 50  1  0
 28 51  1  0
 29 52  1  0
 31 53  1  0
M  END
$$$$
[H]Cl.[H]c1c([H])c([H])c(N([H])C(=O)c2c([H])c([H])c([H])c3c2C([H])([H])C([H])([H])[C@]2([H])N([H])C([H])([H])C([H])([H])N(C([H])([H])c4c([H])c([H])c5c(c4[H])OC([H])([H])O5)[C@]32[H])c(Cl)c1[H]
     RDKit          3D

 62 66  0  0  0  0  0  0  0  0999 V2000
    0.6866    0.0000    0.0000 Cl  0  0  0  0  0  0  0  0  0  0  0  0
   -4.6676   -1.6990   -2.9709 Cl  0  0  0  0  0  0  0  0  0  0  0  0
   -6.0029   -1.3659   -1.8941 C   0  0  0  0  0  0  0  0  0  0  0  0
   -7.2171   -1.9115   -2.1727 C   0  0  0  0  0  0  0  0  0  0  0  0
   -8.2933   -1.6908   -1.3766 C   0  0  0  0  0  0  0  0  0  0  0  0
   -8.1507   -0.9083   -0.2791 C   0  0  0  0  0  0  0  0  0  0  0  0
   -6.9296   -0.3443    0.0240 C   0  0  0  0  0  0  0  0  0  0  0  0
   -5.8418   -0.5509   -0.7559 C   0  0  0  0  0  0  0  0  0  0  0  0
   -4.5696   -0.0186   -0.4890 N   0  0  0  0  0  0  0  0  0  0  0  0
   -4.1650    0.8501    0.5373 C   0  0  0  0  0  0  0  0  0  0  0  0
   -5.0039    1.2782    1.3706 O   0  0  0  0  0  0  0  0  0  0  0  0
   -2.7628    1.2629    0.6291 C   0  0  0  0  0  0  0  0  0  0  0  0
   -2.5197    2.6399    0.8061 C   0  0  0  0  0  0  0  0  0  0  0  0
   -1.2044    3.0419    0.8009 C   0  0  0  0  0  0  0  0  0  0  0  0
   -0.1571    2.1771    0.6350 C   0  0  0  0  0  0  0  0  0  0  0  0
   -0.3945    0.8551    0.4670 C   0  0  0  0  0  0  0  0  0  0  0  0
    0.6543   -0.1738    0.2804 C   0  0  2  0  0  0  0  0  0  0  0  0
    0.4347   -1.1374    1.4635 C   0  0  2  0  0  0  0  0  0  0  0  0
   -0.9447   -1.7031    1.4206 C   0  0  0  0  0  0  0  0  0  0  0  0
   -1.8384   -1.0829    0.3465 C   0  0  0  0  0  0  0  0  0  0  0  0
   -1.7190    0.3915    0.4659 C   0  0  0  0  0  0  0  0  0  0  0  0
    0.6615   -0.3212    2.6413 N   0  0  0  0  0  0  0  0  0  0  0  0
    2.0624   -0.0352    2.7520 C   0  0  0  0  0  0  0  0  0  0  0  0
    2.7541   -0.1048    1.4373 C   0  0  0  0  0  0  0  0  0  0  0  0
    1.9885    0.3012    0.2932 N   0  0  0  0  0  0  0  0  0  0  0  0
    2.6537   -0.2031   -0.8956 C   0  0  0  0  0  0  0  0  0  0  0  0
    4.0534    0.2455   -1.0435 C   0  0  0  0  0  0  0  0  0  0  0  0
    4.3879    1.4472   -1.6659 C   0  0  0  0  0  0  0  0  0  0  0  0
    5.6963    1.8604   -1.8114 C   0  0  0  0  0  0  0  0  0  0  0  0
    6.7204    1.0556   -1.3235 C   0  0  0  0  0  0  0  0  0  0  0  0
    8.1130    1.1951   -1.3197 O   0  0  0  0  0  0  0  0  0  0  0  0
    8.6562    0.2445   -0.4268 C   0  0  0  0  0  0  0  0  0  0  0  0
    7.6100   -0.7343   -0.3157 O   0  0  0  0  0  0  0  0  0  0  0  0
    6.4089   -0.1428   -0.7010 C   0  0  0  0  0  0  0  0  0  0  0  0
    5.0716   -0.5369   -0.5675 C   0  0  0  0  0  0  0  0  0  0  0  0
   -0.6866    0.0000    0.0000 H   0  0  0  0  0  0  0  0  0  0  0  0
   -7.3230   -2.5349   -3.0498 H   0  0  0  0  0  0  0  0  0  0  0  0
   -9.2427   -2.1459   -1.6363 H   0  0  0  0  0  0  0  0  0  0  0  0
   -9.0288   -0.7309    0.3684 H   0  0  0  0  0  0  0  0  0  0  0  0
   -6.9244    0.2611    0.9259 H   0  0  0  0  0  0  0  0  0  0  0  0
   -3.8031   -0.3139   -1.2099 H   0  0  0  0  0  0  0  0  0  0  0  0
   -3.3640    3.2911    0.9342 H   0  0  0  0  0  0  0  0  0  0  0  0
   -1.0072    4.1125    0.9397 H   0  0  0  0  0  0  0  0  0  0  0  0
    0.8867    2.5034    0.6307 H   0  0  0  0  0  0  0  0  0  0  0  0
    0.4343   -0.7188   -0.6441 H   0  0  0  0  0  0  0  0  0  0  0  0
    1.1747   -1.9557    1.4738 H   0  0  0  0  0  0  0  0  0  0  0  0
   -0.9704   -2.8247    1.3417 H   0  0  0  0  0  0  0  0  0  0  0  0
   -1.4413   -1.4595    2.3996 H   0  0  0  0  0  0  0  0  0  0  0  0
   -2.8578   -1.4783    0.5368 H   0  0  0  0  0  0  0  0  0  0  0  0
   -1.4753   -1.4066   -0.6338 H   0  0  0  0  0  0  0  0  0  0  0  0
    0.3560   -0.8514    3.4861 H   0  0  0  0  0  0  0  0  0  0  0  0
    2.5050   -0.7723    3.4837 H   0  0  0  0  0  0  0  0  0  0  0  0
    2.2110    1.0104    3.1405 H   0  0  0  0  0  0  0  0  0  0  0  0
    3.7214    0.4336    1.5246 H   0  0  0  0  0  0  0  0  0  0  0  0
    3.0188   -1.1885    1.2778 H   0  0  0  0  0  0  0  0  0  0  0  0
    2.0784    0.0882   -1.8256 H   0  0  0  0  0  0  0  0  0  0  0  0
    2.6178   -1.3344   -0.9200 H   0  0  0  0  0  0  0  0  0  0  0  0
    3.5991    2.0768   -2.0442 H   0  0  0  0  0  0  0  0  0  0  0  0
    5.9864    2.7894   -2.2890 H   0  0  0  0  0  0  0  0  0  0  0  0
    9.5865   -0.2312   -0.7950 H   0  0  0  0  0  0  0  0  0  0  0  0
    8.7865    0.6876    0.5967 H   0  0  0  0  0  0  0  0  0  0  0  0
    4.9307   -1.4890   -0.0738 H   0  0  0  0  0  0  0  0  0  0  0  0
  2  3  1  0
  3  4  2  0
  4  5  1  0
  5  6  2  0
  6  7  1  0
  7  8  2  0
  8  9  1  0
  9 10  1  0
 10 11  2  0
 10 12  1  0
 12 13  2  0
 13 14  1  0
 14 15  2  0
 15 16  1  0
 16 17  1  0
 17 18  1  0
 18 19  1  0
 19 20  1  0
 20 21  1  0
 18 22  1  0
 22 23  1  0
 23 24  1  0
 24 25  1  0
 25 26  1  0
 26 27  1  0
 27 28  2  0
 28 29  1  0
 29 30  2  0
 30 31  1  0
 31 32  1  0
 32 33  1  0
 33 34  1  0
 34 35  2  0
  8  3  1  0
 21 12  1  0
 35 27  1  0
 21 16  2  0
 34 30  1  0
 25 17  1  0
  1 36  1  0
  4 37  1  0
  5 38  1  0
  6 39  1  0
  7 40  1  0
  9 41  1  0
 13 42  1  0
 14 43  1  0
 15 44  1  0
 17 45  1  6
 18 46  1  6
 19 47  1  0
 19 48  1  0
 20 49  1  0
 20 50  1  0
 22 51  1  0
 23 52  1  0
 23 53  1  0
 24 54  1  0
 24 55  1  0
 26 56  1  0
 26 57  1  0
 28 58  1  0
 29 59  1  0
 32 60  1  0
 32 61  1  0
 35 62  1  0
M  END
$$$$
[H]c1nc([H])c2c([H])c([H])c(N([H])C([H])([H])C([H])([H])[H])nc2c1N([H])c1c([H])c(Oc2c([H])c([H])c(N([H])C(=O)C3(C(=O)N4C([H])([H])C([H])([H])N(C([H])([H])[H])C([H])([H])C4([H])[H])C([H])([H])C3([H])[H])c(C([H])([H])[H])c2[H])c(Cl)c([H])c1Cl
     RDKit          3D

 80 85  0  0  0  0  0  0  0  0999 V2000
   11.9702    0.0689   -2.3237 C   0  0  0  0  0  0  0  0  0  0  0  0
   11.5798    1.0152   -1.2070 C   0  0  0  0  0  0  0  0  0  0  0  0
   10.1627    1.2251   -1.0900 N   0  0  0  0  0  0  0  0  0  0  0  0
    9.3144    0.1660   -0.6697 C   0  0  0  0  0  0  0  0  0  0  0  0
    9.8525   -1.0519   -0.3359 C   0  0  0  0  0  0  0  0  0  0  0  0
    8.9643   -2.0513    0.0642 C   0  0  0  0  0  0  0  0  0  0  0  0
    7.6113   -1.7944    0.1115 C   0  0  0  0  0  0  0  0  0  0  0  0
    6.7109   -2.7603    0.5069 C   0  0  0  0  0  0  0  0  0  0  0  0
    5.3966   -2.4955    0.5524 N   0  0  0  0  0  0  0  0  0  0  0  0
    4.8746   -1.2833    0.2184 C   0  0  0  0  0  0  0  0  0  0  0  0
    5.7125   -0.2903   -0.1780 C   0  0  0  0  0  0  0  0  0  0  0  0
    5.2648    0.9555   -0.6041 N   0  0  0  0  0  0  0  0  0  0  0  0
    4.0617    1.6072   -0.3385 C   0  0  0  0  0  0  0  0  0  0  0  0
    3.2598    1.3288    0.7403 C   0  0  0  0  0  0  0  0  0  0  0  0
    2.0872    2.0430    1.0306 C   0  0  0  0  0  0  0  0  0  0  0  0
    1.3224    1.7143    2.1325 O   0  0  0  0  0  0  0  0  0  0  0  0
    0.0334    1.2501    2.0355 C   0  0  0  0  0  0  0  0  0  0  0  0
   -0.5833    0.9069    0.8681 C   0  0  0  0  0  0  0  0  0  0  0  0
   -1.9115    0.4402    0.8587 C   0  0  0  0  0  0  0  0  0  0  0  0
   -2.6632    0.2996    1.9950 C   0  0  0  0  0  0  0  0  0  0  0  0
   -3.9760   -0.1508    2.0814 N   0  0  0  0  0  0  0  0  0  0  0  0
   -4.8541   -0.5795    1.0525 C   0  0  0  0  0  0  0  0  0  0  0  0
   -4.4414   -0.5745   -0.0855 O   0  0  0  0  0  0  0  0  0  0  0  0
   -6.2175   -1.0062    1.4455 C   0  0  0  0  0  0  0  0  0  0  0  0
   -6.7734   -0.3185    2.7103 C   0  0  0  0  0  0  0  0  0  0  0  0
   -6.3176   -1.6992    2.8001 C   0  0  0  0  0  0  0  0  0  0  0  0
   -7.3029   -1.3598    0.5339 C   0  0  0  0  0  0  0  0  0  0  0  0
   -8.4089   -1.7592    1.2138 O   0  0  0  0  0  0  0  0  0  0  0  0
   -7.5146   -1.3992   -0.8292 N   0  0  0  0  0  0  0  0  0  0  0  0
   -8.8767   -1.8716   -1.2713 C   0  0  0  0  0  0  0  0  0  0  0  0
   -9.5361   -0.8458   -2.1433 C   0  0  0  0  0  0  0  0  0  0  0  0
   -8.6796   -0.4715   -3.2617 N   0  0  0  0  0  0  0  0  0  0  0  0
   -8.5148    0.9416   -3.4084 C   0  0  0  0  0  0  0  0  0  0  0  0
   -7.4602   -1.2210   -3.2570 C   0  0  0  0  0  0  0  0  0  0  0  0
   -6.6791   -1.0656   -1.9396 C   0  0  0  0  0  0  0  0  0  0  0  0
   -2.0096    0.6574    3.1820 C   0  0  0  0  0  0  0  0  0  0  0  0
   -2.7643    0.5298    4.4523 C   0  0  0  0  0  0  0  0  0  0  0  0
   -0.7110    1.1148    3.1970 C   0  0  0  0  0  0  0  0  0  0  0  0
    1.7606    3.0633    0.1733 C   0  0  0  0  0  0  0  0  0  0  0  0
    0.3329    4.0362    0.4708 Cl  0  0  0  0  0  0  0  0  0  0  0  0
    2.5699    3.3586   -0.9301 C   0  0  0  0  0  0  0  0  0  0  0  0
    3.7085    2.6568   -1.2047 C   0  0  0  0  0  0  0  0  0  0  0  0
    4.7126    3.0467   -2.6059 Cl  0  0  0  0  0  0  0  0  0  0  0  0
    7.0913   -0.5721   -0.2252 C   0  0  0  0  0  0  0  0  0  0  0  0
    7.9606    0.3755   -0.6073 N   0  0  0  0  0  0  0  0  0  0  0  0
   11.0638   -0.2578   -2.8667 H   0  0  0  0  0  0  0  0  0  0  0  0
   12.6040    0.5860   -3.0932 H   0  0  0  0  0  0  0  0  0  0  0  0
   12.6004   -0.7704   -1.9683 H   0  0  0  0  0  0  0  0  0  0  0  0
   12.1333    1.9724   -1.3802 H   0  0  0  0  0  0  0  0  0  0  0  0
   11.9683    0.6109   -0.2230 H   0  0  0  0  0  0  0  0  0  0  0  0
    9.7236    2.1708   -1.3140 H   0  0  0  0  0  0  0  0  0  0  0  0
   10.9154   -1.2782   -0.3562 H   0  0  0  0  0  0  0  0  0  0  0  0
    9.3523   -3.0218    0.3331 H   0  0  0  0  0  0  0  0  0  0  0  0
    7.0325   -3.7517    0.7903 H   0  0  0  0  0  0  0  0  0  0  0  0
    3.8022   -1.2299    0.2694 H   0  0  0  0  0  0  0  0  0  0  0  0
    5.9745    1.4839   -1.2380 H   0  0  0  0  0  0  0  0  0  0  0  0
    3.4895    0.5649    1.4714 H   0  0  0  0  0  0  0  0  0  0  0  0
   -0.0629    0.9805   -0.0765 H   0  0  0  0  0  0  0  0  0  0  0  0
   -2.3554    0.1821   -0.0947 H   0  0  0  0  0  0  0  0  0  0  0  0
   -4.4114   -0.2006    3.0587 H   0  0  0  0  0  0  0  0  0  0  0  0
   -7.8724   -0.1265    2.7569 H   0  0  0  0  0  0  0  0  0  0  0  0
   -6.2021    0.5020    3.1538 H   0  0  0  0  0  0  0  0  0  0  0  0
   -7.0971   -2.4770    2.9489 H   0  0  0  0  0  0  0  0  0  0  0  0
   -5.3415   -1.9666    3.2369 H   0  0  0  0  0  0  0  0  0  0  0  0
   -8.6844   -2.8158   -1.7927 H   0  0  0  0  0  0  0  0  0  0  0  0
   -9.5310   -2.0353   -0.4059 H   0  0  0  0  0  0  0  0  0  0  0  0
  -10.4256   -1.3338   -2.5887 H   0  0  0  0  0  0  0  0  0  0  0  0
   -9.8912    0.0167   -1.5543 H   0  0  0  0  0  0  0  0  0  0  0  0
   -8.3797    1.1465   -4.4998 H   0  0  0  0  0  0  0  0  0  0  0  0
   -7.6465    1.3567   -2.8789 H   0  0  0  0  0  0  0  0  0  0  0  0
   -9.4832    1.4245   -3.1144 H   0  0  0  0  0  0  0  0  0  0  0  0
   -7.6819   -2.2814   -3.4604 H   0  0  0  0  0  0  0  0  0  0  0  0
   -6.8029   -0.7915   -4.0457 H   0  0  0  0  0  0  0  0  0  0  0  0
   -6.3197   -0.0281   -1.9779 H   0  0  0  0  0  0  0  0  0  0  0  0
   -5.8752   -1.8317   -2.0304 H   0  0  0  0  0  0  0  0  0  0  0  0
   -3.1351   -0.5228    4.6157 H   0  0  0  0  0  0  0  0  0  0  0  0
   -2.0776    0.7139    5.3045 H   0  0  0  0  0  0  0  0  0  0  0  0
   -3.5791    1.2759    4.5551 H   0  0  0  0  0  0  0  0  0  0  0  0
   -0.2195    1.3898    4.1452 H   0  0  0  0  0  0  0  0  0  0  0  0
    2.2956    4.1637   -1.5907 H   0  0  0  0  0  0  0  0  0  0  0  0
  1  2  1  0
  2  3  1  0
  3  4  1  0
  4  5  2  0
  5  6  1  0
  6  7  2  0
  7  8  1  0
  8  9  2  0
  9 10  1  0
 10 11  2  0
 11 12  1  0
 12 13  1  0
 13 14  2  0
 14 15  1  0
 15 16  1  0
 16 17  1  0
 17 18  2  0
 18 19  1  0
 19 20  2  0
 20 21  1  0
 21 22  1  0
 22 23  2  0
 22 24  1  0
 24 25  1  0
 25 26  1  0
 24 27  1  0
 27 28  2  0
 27 29  1  0
 29 30  1  0
 30 31  1  0
 31 32  1  0
 32 33  1  0
 32 34  1  0
 34 35  1  0
 20 36  1  0
 36 37  1  0
 36 38  2  0
 15 39  2  0
 39 40  1  0
 39 41  1  0
 41 42  2  0
 42 43  1  0
 11 44  1  0
 44 45  2  0
 45  4  1  0
 44  7  1  0
 42 13  1  0
 38 17  1  0
 26 24  1  0
 35 29  1  0
  1 46  1  0
  1 47  1  0
  1 48  1  0
  2 49  1  0
  2 50  1  0
  3 51  1  0
  5 52  1  0
  6 53  1  0
  8 54  1  0
 10 55  1  0
 12 56  1  0
 14 57  1  0
 18 58  1  0
 19 59  1  0
 21 60  1  0
 25 61  1  0
 25 62  1  0
 26 63  1  0
 26 64  1  0
 30 65  1  0
 30 66  1  0
 31 67  1  0
 31 68  1  0
 33 69  1  0
 33 70  1  0
 33 71  1  0
 34 72  1  0
 34 73  1  0
 35 74  1  0
 35 75  1  0
 37 76  1  0
 37 77  1  0
 37 78  1  0
 38 79  1  0
 41 80  1  0
M  END
$$$$
[H]/C(=C1\C(=O)N2[C@]1([H])C([H])([H])[C@@]2([H])C([H])([H])C([H])([H])C([H])([H])C([H])([H])C([H])([H])C([H])([H])C([H])([H])C([H])([H])C([H])([H])C([H])([H])[H])c1sc2c(c1[H])C([H])([H])C(=O)S2
     RDKit          3D

 56 59  0  0  0  0  0  0  0  0999 V2000
   -5.8546    3.4164   -2.1497 C   0  0  0  0  0  0  0  0  0  0  0  0
   -5.4855    2.2386   -1.2636 C   0  0  0  0  0  0  0  0  0  0  0  0
   -4.9237    1.1632   -2.1368 C   0  0  0  0  0  0  0  0  0  0  0  0
   -4.5320   -0.0567   -1.3454 C   0  0  0  0  0  0  0  0  0  0  0  0
   -3.4860    0.3200   -0.3408 C   0  0  0  0  0  0  0  0  0  0  0  0
   -3.0373   -0.8648    0.4891 C   0  0  0  0  0  0  0  0  0  0  0  0
   -2.4498   -1.9669   -0.3511 C   0  0  0  0  0  0  0  0  0  0  0  0
   -2.0043   -3.1205    0.4793 C   0  0  0  0  0  0  0  0  0  0  0  0
   -0.9816   -2.8961    1.5240 C   0  0  0  0  0  0  0  0  0  0  0  0
    0.3656   -2.4520    1.1771 C   0  0  0  0  0  0  0  0  0  0  0  0
    0.6264   -1.1440    0.5511 C   0  0  2  0  0  0  0  0  0  0  0  0
    2.1641   -0.9945    0.3275 C   0  0  0  0  0  0  0  0  0  0  0  0
    1.9313    0.4336    0.6845 C   0  0  1  0  0  0  0  0  0  0  0  0
    0.7657   -0.0229    1.4848 N   0  0  0  0  0  0  0  0  0  0  0  0
    1.0152    1.1038    2.3050 C   0  0  0  0  0  0  0  0  0  0  0  0
    0.4048    1.9149    3.0468 O   0  0  0  0  0  0  0  0  0  0  0  0
    2.4262    0.9665    1.9297 C   0  0  0  0  0  0  0  0  0  0  0  0
    3.5855    1.2120    2.4907 C   0  0  0  0  0  0  0  0  0  0  0  0
    4.7923    0.8931    1.7280 C   0  0  0  0  0  0  0  0  0  0  0  0
    5.0343    1.0388    0.4036 C   0  0  0  0  0  0  0  0  0  0  0  0
    6.2699    0.6459   -0.0695 C   0  0  0  0  0  0  0  0  0  0  0  0
    6.8935    0.6319   -1.4597 C   0  0  0  0  0  0  0  0  0  0  0  0
    8.3517    0.7938   -1.3305 C   0  0  0  0  0  0  0  0  0  0  0  0
    9.1972    1.4179   -1.8964 O   0  0  0  0  0  0  0  0  0  0  0  0
    8.7014   -0.3064    0.0767 S   0  0  0  0  0  0  0  0  0  0  0  0
    7.1203    0.1468    0.8748 C   0  0  0  0  0  0  0  0  0  0  0  0
    6.2341    0.2272    2.3277 S   0  0  0  0  0  0  0  0  0  0  0  0
   -6.7029    3.9820   -1.6829 H   0  0  0  0  0  0  0  0  0  0  0  0
   -6.1435    3.0058   -3.1343 H   0  0  0  0  0  0  0  0  0  0  0  0
   -4.9672    4.0505   -2.3226 H   0  0  0  0  0  0  0  0  0  0  0  0
   -6.3609    1.9120   -0.6740 H   0  0  0  0  0  0  0  0  0  0  0  0
   -4.7270    2.6241   -0.5505 H   0  0  0  0  0  0  0  0  0  0  0  0
   -3.9810    1.5510   -2.5952 H   0  0  0  0  0  0  0  0  0  0  0  0
   -5.6322    0.9364   -2.9656 H   0  0  0  0  0  0  0  0  0  0  0  0
   -4.1593   -0.8204   -2.0762 H   0  0  0  0  0  0  0  0  0  0  0  0
   -5.4679   -0.4190   -0.8469 H   0  0  0  0  0  0  0  0  0  0  0  0
   -3.9597    1.0256    0.3852 H   0  0  0  0  0  0  0  0  0  0  0  0
   -2.6675    0.8332   -0.8429 H   0  0  0  0  0  0  0  0  0  0  0  0
   -2.3190   -0.5357    1.2274 H   0  0  0  0  0  0  0  0  0  0  0  0
   -3.9469   -1.2336    1.0181 H   0  0  0  0  0  0  0  0  0  0  0  0
   -3.3257   -2.3912   -0.9739 H   0  0  0  0  0  0  0  0  0  0  0  0
   -1.7416   -1.6742   -1.1061 H   0  0  0  0  0  0  0  0  0  0  0  0
   -1.6469   -3.9476   -0.2226 H   0  0  0  0  0  0  0  0  0  0  0  0
   -2.9680   -3.5334    0.9530 H   0  0  0  0  0  0  0  0  0  0  0  0
   -0.8598   -3.9088    2.0643 H   0  0  0  0  0  0  0  0  0  0  0  0
   -1.4191   -2.2733    2.3768 H   0  0  0  0  0  0  0  0  0  0  0  0
    1.0650   -2.5048    2.0858 H   0  0  0  0  0  0  0  0  0  0  0  0
    0.8190   -3.2340    0.4925 H   0  0  0  0  0  0  0  0  0  0  0  0
    0.0717   -0.7947   -0.3131 H   0  0  0  0  0  0  0  0  0  0  0  0
    2.3456   -1.1164   -0.7589 H   0  0  0  0  0  0  0  0  0  0  0  0
    2.7610   -1.5961    1.0090 H   0  0  0  0  0  0  0  0  0  0  0  0
    1.6636    1.1188   -0.1230 H   0  0  0  0  0  0  0  0  0  0  0  0
    3.6768    1.6407    3.4924 H   0  0  0  0  0  0  0  0  0  0  0  0
    4.2191    1.4687   -0.2342 H   0  0  0  0  0  0  0  0  0  0  0  0
    6.5349    1.4521   -2.0721 H   0  0  0  0  0  0  0  0  0  0  0  0
    6.7147   -0.3573   -1.9318 H   0  0  0  0  0  0  0  0  0  0  0  0
  1  2  1  0
  2  3  1  0
  3  4  1  0
  4  5  1  0
  5  6  1  0
  6  7  1  0
  7  8  1  0
  8  9  1  0
  9 10  1  0
 10 11  1  0
 11 12  1  0
 12 13  1  0
 13 14  1  0
 14 15  1  0
 15 16  2  0
 15 17  1  0
 17 18  2  0
 18 19  1  0
 19 20  2  0
 20 21  1  0
 21 22  1  0
 22 23  1  0
 23 24  2  0
 23 25  1  0
 25 26  1  0
 26 27  1  0
 14 11  1  0
 27 19  1  0
 17 13  1  0
 26 21  2  0
  1 28  1  0
  1 29  1  0
  1 30  1  0
  2 31  1  0
  2 32  1  0
  3 33  1  0
  3 34  1  0
  4 35  1  0
  4 36  1  0
  5 37  1  0
  5 38  1  0
  6 39  1  0
  6 40  1  0
  7 41  1  0
  7 42  1  0
  8 43  1  0
  8 44  1  0
  9 45  1  0
  9 46  1  0
 10 47  1  0
 10 48  1  0
 11 49  1  6
 12 50  1  0
 12 51  1  0
 13 52  1  6
 18 53  1  0
 20 54  1  0
 22 55  1  0
 22 56  1  0
M  END
$$$$
