[H]c1sc2c([H])c([H])c(N([H])S(=O)(=O)c3c([H])c([H])c([H])c(F)c3[H])c([H])c2c1-c1c([H])c([H])c2c(c1[H])N(C(=O)C([H])([H])[H])N=C(C([H])([H])[H])C(C([H])([H])[H])(C([H])([H])[H])O2
     RDKit          3D

 61 65  0  0  0  0  0  0  0  0999 V2000
   -4.8095    1.2765    3.5614 C   0  0  0  0  0  0  0  0  0  0  0  0
   -3.9959    1.4652    2.3111 C   0  0  0  0  0  0  0  0  0  0  0  0
   -3.4753    2.5783    2.1835 O   0  0  0  0  0  0  0  0  0  0  0  0
   -3.8492    0.4376    1.3662 N   0  0  0  0  0  0  0  0  0  0  0  0
   -4.7031   -0.7135    1.4452 N   0  0  0  0  0  0  0  0  0  0  0  0
   -5.3161   -1.2471    0.4155 C   0  0  0  0  0  0  0  0  0  0  0  0
   -6.1580   -2.4589    0.7646 C   0  0  0  0  0  0  0  0  0  0  0  0
   -5.3225   -0.8423   -0.9988 C   0  0  0  0  0  0  0  0  0  0  0  0
   -6.3123    0.3220   -1.2115 C   0  0  0  0  0  0  0  0  0  0  0  0
   -5.9008   -1.9771   -1.8406 C   0  0  0  0  0  0  0  0  0  0  0  0
   -4.0888   -0.4513   -1.5473 O   0  0  0  0  0  0  0  0  0  0  0  0
   -3.0239    0.2217   -0.9630 C   0  0  0  0  0  0  0  0  0  0  0  0
   -1.9885    0.5011   -1.8288 C   0  0  0  0  0  0  0  0  0  0  0  0
   -0.8713    1.1637   -1.3573 C   0  0  0  0  0  0  0  0  0  0  0  0
   -0.7140    1.5704   -0.0656 C   0  0  0  0  0  0  0  0  0  0  0  0
   -1.7659    1.2834    0.8029 C   0  0  0  0  0  0  0  0  0  0  0  0
   -2.8794    0.6310    0.3512 C   0  0  0  0  0  0  0  0  0  0  0  0
    0.4962    2.2814    0.4356 C   0  0  0  0  0  0  0  0  0  0  0  0
    0.3711    3.4431    1.1486 C   0  0  0  0  0  0  0  0  0  0  0  0
    1.9696    3.8924    1.4808 S   0  0  0  0  0  0  0  0  0  0  0  0
    2.7843    2.6043    0.7140 C   0  0  0  0  0  0  0  0  0  0  0  0
    4.1408    2.2589    0.5516 C   0  0  0  0  0  0  0  0  0  0  0  0
    4.5187    1.1245   -0.1300 C   0  0  0  0  0  0  0  0  0  0  0  0
    3.5086    0.3460   -0.6425 C   0  0  0  0  0  0  0  0  0  0  0  0
    3.8052   -0.8327   -1.3975 N   0  0  0  0  0  0  0  0  0  0  0  0
    4.7334   -2.0924   -0.7251 S   0  0  0  0  0  0  0  0  0  0  0  0
    4.0137   -2.5359    0.5522 O   0  0  0  0  0  0  0  0  0  0  0  0
    4.6993   -3.3259   -1.6066 O   0  0  0  0  0  0  0  0  0  0  0  0
    6.3407   -1.6835   -0.2626 C   0  0  0  0  0  0  0  0  0  0  0  0
    6.7594   -1.5060    1.0649 C   0  0  0  0  0  0  0  0  0  0  0  0
    8.0432   -1.1823    1.3915 C   0  0  0  0  0  0  0  0  0  0  0  0
    8.9918   -1.0158    0.3992 C   0  0  0  0  0  0  0  0  0  0  0  0
    8.6103   -1.1842   -0.9246 C   0  0  0  0  0  0  0  0  0  0  0  0
    9.5501   -1.0185   -1.8949 F   0  0  0  0  0  0  0  0  0  0  0  0
    7.3028   -1.5128   -1.2380 C   0  0  0  0  0  0  0  0  0  0  0  0
    2.1846    0.6782   -0.4879 C   0  0  0  0  0  0  0  0  0  0  0  0
    1.7699    1.8400    0.2076 C   0  0  0  0  0  0  0  0  0  0  0  0
   -4.1328    1.4062    4.4475 H   0  0  0  0  0  0  0  0  0  0  0  0
   -5.2327    0.2749    3.5274 H   0  0  0  0  0  0  0  0  0  0  0  0
   -5.5795    2.0725    3.5388 H   0  0  0  0  0  0  0  0  0  0  0  0
   -7.1341   -2.4304    0.2601 H   0  0  0  0  0  0  0  0  0  0  0  0
   -5.5605   -3.3349    0.4364 H   0  0  0  0  0  0  0  0  0  0  0  0
   -6.2339   -2.5171    1.8517 H   0  0  0  0  0  0  0  0  0  0  0  0
   -6.0731    0.8775   -2.1270 H   0  0  0  0  0  0  0  0  0  0  0  0
   -7.3493   -0.0707   -1.3246 H   0  0  0  0  0  0  0  0  0  0  0  0
   -6.3153    1.0040   -0.3532 H   0  0  0  0  0  0  0  0  0  0  0  0
   -5.4288   -2.9132   -1.5516 H   0  0  0  0  0  0  0  0  0  0  0  0
   -6.9995   -1.9333   -1.7060 H   0  0  0  0  0  0  0  0  0  0  0  0
   -5.7056   -1.6946   -2.8966 H   0  0  0  0  0  0  0  0  0  0  0  0
   -2.0774    0.1910   -2.8684 H   0  0  0  0  0  0  0  0  0  0  0  0
   -0.0936    1.3647   -2.0699 H   0  0  0  0  0  0  0  0  0  0  0  0
   -1.6812    1.5420    1.8242 H   0  0  0  0  0  0  0  0  0  0  0  0
   -0.5874    3.9310    1.4170 H   0  0  0  0  0  0  0  0  0  0  0  0
    4.8388    2.9446    0.9973 H   0  0  0  0  0  0  0  0  0  0  0  0
    5.5621    0.9161   -0.2453 H   0  0  0  0  0  0  0  0  0  0  0  0
    3.4230   -0.8955   -2.4009 H   0  0  0  0  0  0  0  0  0  0  0  0
    6.0330   -1.6325    1.8417 H   0  0  0  0  0  0  0  0  0  0  0  0
    8.3933   -1.0393    2.4079 H   0  0  0  0  0  0  0  0  0  0  0  0
   10.0162   -0.7610    0.6000 H   0  0  0  0  0  0  0  0  0  0  0  0
    7.0311   -1.6384   -2.2752 H   0  0  0  0  0  0  0  0  0  0  0  0
    1.4681   -0.0031   -0.9237 H   0  0  0  0  0  0  0  0  0  0  0  0
  1  2  1  0
  2  3  2  0
  2  4  1  0
  4  5  1  0
  5  6  2  0
  6  7  1  0
  6  8  1  0
  8  9  1  0
  8 10  1  0
  8 11  1  0
 11 12  1  0
 12 13  2  0
 13 14  1  0
 14 15  2  0
 15 16  1  0
 16 17  2  0
 15 18  1  0
 18 19  2  0
 19 20  1  0
 20 21  1  0
 21 22  2  0
 22 23  1  0
 23 24  2  0
 24 25  1  0
 25 26  1  0
 26 27  2  0
 26 28  2  0
 26 29  1  0
 29 30  2  0
 30 31  1  0
 31 32  2  0
 32 33  1  0
 33 34  1  0
 33 35  2  0
 24 36  1  0
 36 37  2  0
 17  4  1  0
 37 18  1  0
 17 12  1  0
 37 21  1  0
 35 29  1  0
  1 38  1  0
  1 39  1  0
  1 40  1  0
  7 41  1  0
  7 42  1  0
  7 43  1  0
  9 44  1  0
  9 45  1  0
  9 46  1  0
 10 47  1  0
 10 48  1  0
 10 49  1  0
 13 50  1  0
 14 51  1  0
 16 52  1  0
 19 53  1  0
 22 54  1  0
 23 55  1  0
 25 56  1  0
 30 57  1  0
 31 58  1  0
 32 59  1  0
 35 60  1  0
 36 61  1  0
M  END
$$$$
[H]Oc1c([H])c([H])c2c(N([H])[H])c([H])n(-c3c([H])c([H])c(S(=O)(=O)C([H])([H])[H])c([H])c3[H])c(=O)c2c1[H]
     RDKit          3D

 37 39  0  0  0  0  0  0  0  0999 V2000
    6.2434   -0.7185    0.6537 C   0  0  0  0  0  0  0  0  0  0  0  0
    5.4223    0.2869   -0.5793 S   0  0  0  0  0  0  0  0  0  0  0  0
    5.8314   -0.1289   -1.9678 O   0  0  0  0  0  0  0  0  0  0  0  0
    5.7853    1.7090   -0.2931 O   0  0  0  0  0  0  0  0  0  0  0  0
    3.6837    0.1069   -0.4596 C   0  0  0  0  0  0  0  0  0  0  0  0
    2.9624    0.9639    0.3713 C   0  0  0  0  0  0  0  0  0  0  0  0
    1.5964    0.8680    0.5035 C   0  0  0  0  0  0  0  0  0  0  0  0
    0.9156   -0.1120   -0.2124 C   0  0  0  0  0  0  0  0  0  0  0  0
    1.6189   -0.9544   -1.0284 C   0  0  0  0  0  0  0  0  0  0  0  0
    2.9852   -0.8418   -1.1466 C   0  0  0  0  0  0  0  0  0  0  0  0
   -0.5129   -0.1912   -0.0565 N   0  0  0  0  0  0  0  0  0  0  0  0
   -1.0145   -1.3734    0.3484 C   0  0  0  0  0  0  0  0  0  0  0  0
   -2.3813   -1.4858    0.5086 C   0  0  0  0  0  0  0  0  0  0  0  0
   -2.9311   -2.7269    0.9358 N   0  0  0  0  0  0  0  0  0  0  0  0
   -3.1765   -0.3866    0.2485 C   0  0  0  0  0  0  0  0  0  0  0  0
   -4.5512   -0.4583    0.3971 C   0  0  0  0  0  0  0  0  0  0  0  0
   -5.3407    0.6426    0.1360 C   0  0  0  0  0  0  0  0  0  0  0  0
   -4.8166    1.8490   -0.2783 C   0  0  0  0  0  0  0  0  0  0  0  0
   -5.6360    2.9565   -0.5386 O   0  0  0  0  0  0  0  0  0  0  0  0
   -3.4475    1.9230   -0.4270 C   0  0  0  0  0  0  0  0  0  0  0  0
   -2.6518    0.8184   -0.1654 C   0  0  0  0  0  0  0  0  0  0  0  0
   -1.2807    0.8835   -0.3117 C   0  0  0  0  0  0  0  0  0  0  0  0
   -0.7954    1.9811   -0.6894 O   0  0  0  0  0  0  0  0  0  0  0  0
    6.2551   -1.7890    0.3556 H   0  0  0  0  0  0  0  0  0  0  0  0
    7.2612   -0.3271    0.8563 H   0  0  0  0  0  0  0  0  0  0  0  0
    5.6760   -0.5696    1.6105 H   0  0  0  0  0  0  0  0  0  0  0  0
    3.4716    1.7329    0.9370 H   0  0  0  0  0  0  0  0  0  0  0  0
    1.0163    1.5221    1.1424 H   0  0  0  0  0  0  0  0  0  0  0  0
    1.0817   -1.7141   -1.5819 H   0  0  0  0  0  0  0  0  0  0  0  0
    3.5651   -1.5068   -1.7945 H   0  0  0  0  0  0  0  0  0  0  0  0
   -0.3515   -2.2270    0.5461 H   0  0  0  0  0  0  0  0  0  0  0  0
   -3.2099   -2.8242    1.9524 H   0  0  0  0  0  0  0  0  0  0  0  0
   -3.0562   -3.5108    0.2795 H   0  0  0  0  0  0  0  0  0  0  0  0
   -4.9492   -1.4097    0.7224 H   0  0  0  0  0  0  0  0  0  0  0  0
   -6.4214    0.5817    0.2542 H   0  0  0  0  0  0  0  0  0  0  0  0
   -5.8115    3.5666    0.2513 H   0  0  0  0  0  0  0  0  0  0  0  0
   -3.0357    2.8640   -0.7505 H   0  0  0  0  0  0  0  0  0  0  0  0
  1  2  1  0
  2  3  2  0
  2  4  2  0
  2  5  1  0
  5  6  2  0
  6  7  1  0
  7  8  2  0
  8  9  1  0
  9 10  2  0
  8 11  1  0
 11 12  1  0
 12 13  2  0
 13 14  1  0
 13 15  1  0
 15 16  2  0
 16 17  1  0
 17 18  2  0
 18 19  1  0
 18 20  1  0
 20 21  2  0
 21 22  1  0
 22 23  2  0
 10  5  1  0
 22 11  1  0
 21 15  1  0
  1 24  1  0
  1 25  1  0
  1 26  1  0
  6 27  1  0
  7 28  1  0
  9 29  1  0
 10 30  1  0
 12 31  1  0
 14 32  1  0
 14 33  1  0
 16 34  1  0
 17 35  1  0
 19 36  1  0
 20 37  1  0
M  END
$$$$
[H]Oc1c([H])c([H])c([H])c(C(=O)c2c([H])c(F)c([H])c([H])c2S(=O)(=O)C([H])([H])[H])c1[H]
     RDKit          3D

 31 32  0  0  0  0  0  0  0  0999 V2000
   -3.3893    1.8101    0.8153 C   0  0  0  0  0  0  0  0  0  0  0  0
   -2.9412    0.9265   -0.6398 S   0  0  0  0  0  0  0  0  0  0  0  0
   -4.2036    0.6363   -1.4057 O   0  0  0  0  0  0  0  0  0  0  0  0
   -2.1466    1.8323   -1.5919 O   0  0  0  0  0  0  0  0  0  0  0  0
   -2.0743   -0.5490   -0.3505 C   0  0  0  0  0  0  0  0  0  0  0  0
   -2.7412   -1.7631   -0.5803 C   0  0  0  0  0  0  0  0  0  0  0  0
   -2.1644   -2.9926   -0.3455 C   0  0  0  0  0  0  0  0  0  0  0  0
   -0.8932   -3.0140    0.1296 C   0  0  0  0  0  0  0  0  0  0  0  0
   -0.2920   -4.2184    0.3739 F   0  0  0  0  0  0  0  0  0  0  0  0
   -0.2351   -1.8533    0.3562 C   0  0  0  0  0  0  0  0  0  0  0  0
   -0.7814   -0.5715    0.1310 C   0  0  0  0  0  0  0  0  0  0  0  0
    0.0031    0.6100    0.3954 C   0  0  0  0  0  0  0  0  0  0  0  0
   -0.4182    1.6665    0.8890 O   0  0  0  0  0  0  0  0  0  0  0  0
    1.4324    0.6179    0.0712 C   0  0  0  0  0  0  0  0  0  0  0  0
    1.9817   -0.1931   -0.8919 C   0  0  0  0  0  0  0  0  0  0  0  0
    3.3319   -0.2173   -1.2028 C   0  0  0  0  0  0  0  0  0  0  0  0
    4.1788    0.6142   -0.5147 C   0  0  0  0  0  0  0  0  0  0  0  0
    3.6575    1.4476    0.4648 C   0  0  0  0  0  0  0  0  0  0  0  0
    4.5552    2.2771    1.1395 O   0  0  0  0  0  0  0  0  0  0  0  0
    2.3145    1.4427    0.7445 C   0  0  0  0  0  0  0  0  0  0  0  0
   -3.0308    2.8476    0.8629 H   0  0  0  0  0  0  0  0  0  0  0  0
   -3.1285    1.1834    1.6954 H   0  0  0  0  0  0  0  0  0  0  0  0
   -4.5175    1.9056    0.8958 H   0  0  0  0  0  0  0  0  0  0  0  0
   -3.7515   -1.6743   -0.9586 H   0  0  0  0  0  0  0  0  0  0  0  0
   -2.7634   -3.8661   -0.5555 H   0  0  0  0  0  0  0  0  0  0  0  0
    0.7871   -1.9215    0.7417 H   0  0  0  0  0  0  0  0  0  0  0  0
    1.2983   -0.8486   -1.4536 H   0  0  0  0  0  0  0  0  0  0  0  0
    3.7268   -0.8668   -1.9639 H   0  0  0  0  0  0  0  0  0  0  0  0
    5.2518    0.6230   -0.7328 H   0  0  0  0  0  0  0  0  0  0  0  0
    5.0384    2.0211    1.9792 H   0  0  0  0  0  0  0  0  0  0  0  0
    1.9146    2.0881    1.5022 H   0  0  0  0  0  0  0  0  0  0  0  0
  1  2  1  0
  2  3  2  0
  2  4  2  0
  2  5  1  0
  5  6  2  0
  6  7  1  0
  7  8  2  0
  8  9  1  0
  8 10  1  0
 10 11  2  0
 11 12  1  0
 12 13  2  0
 12 14  1  0
 14 15  2  0
 15 16  1  0
 16 17  2  0
 17 18  1  0
 18 19  1  0
 18 20  2  0
 11  5  1  0
 20 14  1  0
  1 21  1  0
  1 22  1  0
  1 23  1  0
  6 24  1  0
  7 25  1  0
 10 26  1  0
 15 27  1  0
 16 28  1  0
 17 29  1  0
 19 30  1  0
 20 31  1  0
M  END
$$$$
[H]c1c([H])c(N2C([H])([H])C([H])([H])[C@@]([H])(C([H])([H])[H])[C@]([H])(N(C([H])([H])[H])S(=O)(=O)c3c([H])c(F)c(C([H])([H])[H])c([H])c3F)C2([H])[H])c([H])c(F)c1C#N
     RDKit          3D

 52 54  0  0  0  0  0  0  0  0999 V2000
    1.3853   -1.3343    1.3425 C   0  0  0  0  0  0  0  0  0  0  0  0
    1.0068   -1.2188    0.0010 N   0  0  0  0  0  0  0  0  0  0  0  0
   -0.3524   -1.4433   -0.3337 C   0  0  2  0  0  0  0  0  0  0  0  0
   -1.1308   -0.1881   -0.2136 C   0  0  0  0  0  0  0  0  0  0  0  0
   -2.4570   -0.2885    0.3032 N   0  0  0  0  0  0  0  0  0  0  0  0
   -3.0016   -1.4437    0.9779 C   0  0  0  0  0  0  0  0  0  0  0  0
   -1.7962   -2.1738    1.5760 C   0  0  0  0  0  0  0  0  0  0  0  0
   -0.9524   -2.6159    0.4037 C   0  0  1  0  0  0  0  0  0  0  0  0
   -1.8291   -3.4679   -0.5256 C   0  0  0  0  0  0  0  0  0  0  0  0
   -3.3098    0.8482    0.1443 C   0  0  0  0  0  0  0  0  0  0  0  0
   -2.8456    2.0492   -0.3410 C   0  0  0  0  0  0  0  0  0  0  0  0
   -3.7382    3.0888   -0.4678 C   0  0  0  0  0  0  0  0  0  0  0  0
   -5.0714    3.0055   -0.1393 C   0  0  0  0  0  0  0  0  0  0  0  0
   -5.9750    4.1198   -0.2872 C   0  0  0  0  0  0  0  0  0  0  0  0
   -6.6930    5.0074   -0.3878 N   0  0  0  0  0  0  0  0  0  0  0  0
   -5.5200    1.7891    0.3474 C   0  0  0  0  0  0  0  0  0  0  0  0
   -6.8370    1.6352    0.6947 F   0  0  0  0  0  0  0  0  0  0  0  0
   -4.6418    0.7358    0.4817 C   0  0  0  0  0  0  0  0  0  0  0  0
    2.1559   -1.4512   -1.1818 S   0  0  0  0  0  0  0  0  0  0  0  0
    1.5280   -1.2272   -2.5441 O   0  0  0  0  0  0  0  0  0  0  0  0
    2.7932   -2.7967   -1.2183 O   0  0  0  0  0  0  0  0  0  0  0  0
    3.4294   -0.2604   -1.0256 C   0  0  0  0  0  0  0  0  0  0  0  0
    4.7518   -0.6355   -0.8003 C   0  0  0  0  0  0  0  0  0  0  0  0
    5.7637    0.2853   -0.6746 C   0  0  0  0  0  0  0  0  0  0  0  0
    7.0332   -0.1155   -0.4566 F   0  0  0  0  0  0  0  0  0  0  0  0
    5.5005    1.6317   -0.7687 C   0  0  0  0  0  0  0  0  0  0  0  0
    6.5842    2.6232   -0.6343 C   0  0  0  0  0  0  0  0  0  0  0  0
    4.1998    2.0213   -0.9912 C   0  0  0  0  0  0  0  0  0  0  0  0
    3.1898    1.0850   -1.1159 C   0  0  0  0  0  0  0  0  0  0  0  0
    1.9256    1.5175   -1.3349 F   0  0  0  0  0  0  0  0  0  0  0  0
    2.4945   -1.1514    1.4096 H   0  0  0  0  0  0  0  0  0  0  0  0
    1.1952   -2.2701    1.8625 H   0  0  0  0  0  0  0  0  0  0  0  0
    0.9425   -0.4703    1.9209 H   0  0  0  0  0  0  0  0  0  0  0  0
   -0.3731   -1.7568   -1.4208 H   0  0  0  0  0  0  0  0  0  0  0  0
   -1.2212    0.3005   -1.2293 H   0  0  0  0  0  0  0  0  0  0  0  0
   -0.5892    0.5859    0.3993 H   0  0  0  0  0  0  0  0  0  0  0  0
   -3.6242   -1.1838    1.8587 H   0  0  0  0  0  0  0  0  0  0  0  0
   -3.5927   -2.0945    0.3327 H   0  0  0  0  0  0  0  0  0  0  0  0
   -1.2400   -1.4373    2.1585 H   0  0  0  0  0  0  0  0  0  0  0  0
   -2.1012   -3.0652    2.1443 H   0  0  0  0  0  0  0  0  0  0  0  0
   -0.1969   -3.3175    0.8093 H   0  0  0  0  0  0  0  0  0  0  0  0
   -1.1997   -4.2751   -0.9750 H   0  0  0  0  0  0  0  0  0  0  0  0
   -2.1931   -2.8652   -1.3841 H   0  0  0  0  0  0  0  0  0  0  0  0
   -2.6411   -3.8917    0.0886 H   0  0  0  0  0  0  0  0  0  0  0  0
   -1.8006    2.1336   -0.6027 H   0  0  0  0  0  0  0  0  0  0  0  0
   -3.3891    4.0404   -0.8481 H   0  0  0  0  0  0  0  0  0  0  0  0
   -5.0710   -0.1838    0.8678 H   0  0  0  0  0  0  0  0  0  0  0  0
    4.9902   -1.6896   -0.7214 H   0  0  0  0  0  0  0  0  0  0  0  0
    6.7356    2.8332    0.4508 H   0  0  0  0  0  0  0  0  0  0  0  0
    6.2987    3.5937   -1.0973 H   0  0  0  0  0  0  0  0  0  0  0  0
    7.5238    2.2914   -1.0783 H   0  0  0  0  0  0  0  0  0  0  0  0
    3.9568    3.0912   -1.0713 H   0  0  0  0  0  0  0  0  0  0  0  0
  1  2  1  0
  2  3  1  0
  3  4  1  0
  4  5  1  0
  5  6  1  0
  6  7  1  0
  7  8  1  0
  8  9  1  0
  5 10  1  0
 10 11  2  0
 11 12  1  0
 12 13  2  0
 13 14  1  0
 14 15  3  0
 13 16  1  0
 16 17  1  0
 16 18  2  0
  2 19  1  0
 19 20  2  0
 19 21  2  0
 19 22  1  0
 22 23  2  0
 23 24  1  0
 24 25  1  0
 24 26  2  0
 26 27  1  0
 26 28  1  0
 28 29  2  0
 29 30  1  0
  8  3  1  0
 18 10  1  0
 29 22  1  0
  1 31  1  0
  1 32  1  0
  1 33  1  0
  3 34  1  6
  4 35  1  0
  4 36  1  0
  6 37  1  0
  6 38  1  0
  7 39  1  0
  7 40  1  0
  8 41  1  1
  9 42  1  0
  9 43  1  0
  9 44  1  0
 11 45  1  0
 12 46  1  0
 18 47  1  0
 23 48  1  0
 27 49  1  0
 27 50  1  0
 27 51  1  0
 28 52  1  0
M  END
$$$$
[H]OC([H])([H])C(=O)[C@@]1([H])C([H])([H])C([H])([H])[C@]2(O[H])C([H])([H])[C@@]3([H])[C@]4([H])C([H])([H])C([H])([H])C([H])([H])[C@]([H])(O[H])C([H])([H])[C@]4(C([H])([H])[H])[C@@]3(C([H])([H])[H])[C@@]([H])(O[H])C([H])([H])[C@]2(C([H])([H])[H])[C@]([H])(C([H])([H])C([H])([H])[H])C1([H])[H]
     RDKit          3D

 75 78  0  0  0  0  0  0  0  0999 V2000
    3.8599   -3.1886   -0.3833 C   0  0  0  0  0  0  0  0  0  0  0  0
    2.5928   -2.3194   -0.2247 C   0  0  0  0  0  0  0  0  0  0  0  0
    2.6791   -1.0581   -0.9870 C   0  0  2  0  0  0  0  0  0  0  0  0
    3.8506   -0.2423   -0.5062 C   0  0  0  0  0  0  0  0  0  0  0  0
    3.8839    0.0098    0.9675 C   0  0  2  0  0  0  0  0  0  0  0  0
    2.5901    0.6158    1.4020 C   0  0  0  0  0  0  0  0  0  0  0  0
    2.1492    1.5015    0.3172 C   0  0  0  0  0  0  0  0  0  0  0  0
    1.1287    0.9597   -0.6517 C   0  0  2  0  0  0  0  0  0  0  0  0
    1.2799    1.9881   -1.6563 O   0  0  0  0  0  0  0  0  0  0  0  0
   -0.2270    1.1739   -0.1394 C   0  0  0  0  0  0  0  0  0  0  0  0
   -1.1007    0.1477    0.4041 C   0  0  1  0  0  0  0  0  0  0  0  0
   -2.4895    0.7746    0.6720 C   0  0  2  0  0  0  0  0  0  0  0  0
   -2.9802    0.5122    2.0494 C   0  0  0  0  0  0  0  0  0  0  0  0
   -4.2284    1.2941    2.3120 C   0  0  0  0  0  0  0  0  0  0  0  0
   -5.0427    1.5314    1.0626 C   0  0  0  0  0  0  0  0  0  0  0  0
   -5.4647    0.2607    0.3995 C   0  0  2  0  0  0  0  0  0  0  0  0
   -6.3095   -0.4073    1.3200 O   0  0  0  0  0  0  0  0  0  0  0  0
   -4.3603   -0.6805    0.0697 C   0  0  0  0  0  0  0  0  0  0  0  0
   -3.0987    0.0243   -0.4435 C   0  0  1  0  0  0  0  0  0  0  0  0
   -3.5058    0.7502   -1.6885 C   0  0  0  0  0  0  0  0  0  0  0  0
   -1.8759   -0.7509   -0.5099 C   0  0  2  0  0  0  0  0  0  0  0  0
   -2.0114   -2.1632    0.0620 C   0  0  0  0  0  0  0  0  0  0  0  0
   -1.0115   -0.8514   -1.7405 C   0  0  1  0  0  0  0  0  0  0  0  0
   -1.0596    0.1879   -2.5880 O   0  0  0  0  0  0  0  0  0  0  0  0
    0.3055   -1.3175   -1.2346 C   0  0  0  0  0  0  0  0  0  0  0  0
    1.4592   -0.3039   -1.3668 C   0  0  2  0  0  0  0  0  0  0  0  0
    1.5341   -0.1062   -2.8985 C   0  0  0  0  0  0  0  0  0  0  0  0
    4.9700    1.0174    1.2020 C   0  0  0  0  0  0  0  0  0  0  0  0
    5.5876    1.4288    0.2373 O   0  0  0  0  0  0  0  0  0  0  0  0
    5.3466    1.5468    2.5098 C   0  0  0  0  0  0  0  0  0  0  0  0
    6.3898    2.4538    2.3596 O   0  0  0  0  0  0  0  0  0  0  0  0
    4.6910   -2.7878    0.2296 H   0  0  0  0  0  0  0  0  0  0  0  0
    3.6604   -4.2362   -0.1833 H   0  0  0  0  0  0  0  0  0  0  0  0
    4.1684   -3.0153   -1.4559 H   0  0  0  0  0  0  0  0  0  0  0  0
    1.7802   -3.0022   -0.3517 H   0  0  0  0  0  0  0  0  0  0  0  0
    2.6268   -2.0818    0.8629 H   0  0  0  0  0  0  0  0  0  0  0  0
    3.1112   -1.4759   -1.9668 H   0  0  0  0  0  0  0  0  0  0  0  0
    4.8193   -0.8276   -0.6754 H   0  0  0  0  0  0  0  0  0  0  0  0
    3.9877    0.6246   -1.1514 H   0  0  0  0  0  0  0  0  0  0  0  0
    4.1905   -0.8663    1.5641 H   0  0  0  0  0  0  0  0  0  0  0  0
    2.8506    1.2457    2.3120 H   0  0  0  0  0  0  0  0  0  0  0  0
    1.8293   -0.0651    1.8065 H   0  0  0  0  0  0  0  0  0  0  0  0
    3.0143    2.0233   -0.1212 H   0  0  0  0  0  0  0  0  0  0  0  0
    1.6071    2.3695    0.8207 H   0  0  0  0  0  0  0  0  0  0  0  0
    0.9005    2.8138   -1.2623 H   0  0  0  0  0  0  0  0  0  0  0  0
   -0.1408    1.8940    0.7508 H   0  0  0  0  0  0  0  0  0  0  0  0
   -0.8557    1.8473   -0.8100 H   0  0  0  0  0  0  0  0  0  0  0  0
   -0.7326   -0.3596    1.3190 H   0  0  0  0  0  0  0  0  0  0  0  0
   -2.5415    1.8713    0.4739 H   0  0  0  0  0  0  0  0  0  0  0  0
   -2.1961    0.9377    2.7488 H   0  0  0  0  0  0  0  0  0  0  0  0
   -3.1039   -0.5159    2.3498 H   0  0  0  0  0  0  0  0  0  0  0  0
   -4.9087    0.8021    3.0433 H   0  0  0  0  0  0  0  0  0  0  0  0
   -3.9946    2.2935    2.7333 H   0  0  0  0  0  0  0  0  0  0  0  0
   -5.9926    2.0346    1.4162 H   0  0  0  0  0  0  0  0  0  0  0  0
   -4.5433    2.2591    0.4241 H   0  0  0  0  0  0  0  0  0  0  0  0
   -6.1286    0.5187   -0.4485 H   0  0  0  0  0  0  0  0  0  0  0  0
   -6.5838   -1.2877    0.9635 H   0  0  0  0  0  0  0  0  0  0  0  0
   -4.1706   -1.3935    0.8631 H   0  0  0  0  0  0  0  0  0  0  0  0
   -4.7089   -1.2902   -0.8184 H   0  0  0  0  0  0  0  0  0  0  0  0
   -4.5897    1.0739   -1.6576 H   0  0  0  0  0  0  0  0  0  0  0  0
   -3.5095   -0.0241   -2.5149 H   0  0  0  0  0  0  0  0  0  0  0  0
   -2.9449    1.6377   -1.9445 H   0  0  0  0  0  0  0  0  0  0  0  0
   -1.2697   -2.8751   -0.3586 H   0  0  0  0  0  0  0  0  0  0  0  0
   -1.8763   -2.1892    1.1503 H   0  0  0  0  0  0  0  0  0  0  0  0
   -2.9994   -2.6097   -0.2616 H   0  0  0  0  0  0  0  0  0  0  0  0
   -1.4555   -1.7333   -2.3066 H   0  0  0  0  0  0  0  0  0  0  0  0
   -1.2868   -0.0250   -3.5331 H   0  0  0  0  0  0  0  0  0  0  0  0
    0.6862   -2.1990   -1.8381 H   0  0  0  0  0  0  0  0  0  0  0  0
    0.3124   -1.6231   -0.1962 H   0  0  0  0  0  0  0  0  0  0  0  0
    1.1905    0.8294   -3.2778 H   0  0  0  0  0  0  0  0  0  0  0  0
    1.0617   -0.9202   -3.4632 H   0  0  0  0  0  0  0  0  0  0  0  0
    2.6237   -0.1623   -3.2174 H   0  0  0  0  0  0  0  0  0  0  0  0
    5.7628    0.7012    3.1163 H   0  0  0  0  0  0  0  0  0  0  0  0
    4.5512    2.0798    3.0548 H   0  0  0  0  0  0  0  0  0  0  0  0
    6.2664    2.9194    1.4839 H   0  0  0  0  0  0  0  0  0  0  0  0
  1  2  1  0
  2  3  1  0
  3  4  1  0
  4  5  1  0
  5  6  1  0
  6  7  1  0
  7  8  1  0
  8  9  1  6
  8 10  1  0
 10 11  1  0
 11 12  1  0
 12 13  1  0
 13 14  1  0
 14 15  1  0
 15 16  1  0
 16 17  1  0
 16 18  1  0
 18 19  1  0
 19 20  1  6
 19 21  1  0
 21 22  1  1
 21 23  1  0
 23 24  1  0
 23 25  1  0
 25 26  1  0
 26 27  1  6
  5 28  1  0
 28 29  2  0
 28 30  1  0
 30 31  1  0
 26  3  1  0
 26  8  1  0
 21 11  1  0
 19 12  1  0
  1 32  1  0
  1 33  1  0
  1 34  1  0
  2 35  1  0
  2 36  1  0
  3 37  1  6
  4 38  1  0
  4 39  1  0
  5 40  1  1
  6 41  1  0
  6 42  1  0
  7 43  1  0
  7 44  1  0
  9 45  1  0
 10 46  1  0
 10 47  1  0
 11 48  1  1
 12 49  1  6
 13 50  1  0
 13 51  1  0
 14 52  1  0
 14 53  1  0
 15 54  1  0
 15 55  1  0
 16 56  1  6
 17 57  1  0
 18 58  1  0
 18 59  1  0
 20 60  1  0
 20 61  1  0
 20 62  1  0
 22 63  1  0
 22 64  1  0
 22 65  1  0
 23 66  1  6
 24 67  1  0
 25 68  1  0
 25 69  1  0
 27 70  1  0
 27 71  1  0
 27 72  1  0
 30 73  1  0
 30 74  1  0
 31 75  1  0
M  END
$$$$
[H]c1c([H])c(N2C(=S)N([H])C(C([H])([H])[H])(C([H])([H])[H])c3c([H])c([N+](=O)[O-])c([H])c([H])c3S2(=O)=O)c([H])c([N+](=O)[O-])c1[H]
     RDKit          3D

 42 44  0  0  0  0  0  0  0  0999 V2000
   -2.9170   -2.2540    0.3459 C   0  0  0  0  0  0  0  0  0  0  0  0
   -1.7621   -1.3319    0.0691 C   0  0  0  0  0  0  0  0  0  0  0  0
   -1.1969   -1.7442   -1.2959 C   0  0  0  0  0  0  0  0  0  0  0  0
   -0.7552   -1.5485    1.0978 N   0  0  0  0  0  0  0  0  0  0  0  0
    0.6033   -1.0621    1.0957 C   0  0  0  0  0  0  0  0  0  0  0  0
    1.6133   -1.8684    2.0935 S   0  0  0  0  0  0  0  0  0  0  0  0
    1.1441    0.0169    0.3372 N   0  0  0  0  0  0  0  0  0  0  0  0
    2.5618    0.1294    0.3706 C   0  0  0  0  0  0  0  0  0  0  0  0
    3.1451    0.9022    1.3537 C   0  0  0  0  0  0  0  0  0  0  0  0
    4.5402    1.0172    1.3923 C   0  0  0  0  0  0  0  0  0  0  0  0
    5.2800    0.3632    0.4587 C   0  0  0  0  0  0  0  0  0  0  0  0
    4.7155   -0.4137   -0.5315 C   0  0  0  0  0  0  0  0  0  0  0  0
    3.3361   -0.5183   -0.5574 C   0  0  0  0  0  0  0  0  0  0  0  0
    5.5174   -1.0843   -1.4923 N   0  0  0  0  0  0  0  0  0  0  0  0
    6.8716   -0.9616   -1.4401 O   0  0  0  0  0  0  0  0  0  0  0  0
    4.9735   -1.7719   -2.3649 O   0  0  0  0  0  0  0  0  0  0  0  0
    0.3716    1.2248   -0.6257 S   0  0  0  0  0  0  0  0  0  0  0  0
    0.9101    2.6059   -0.2738 O   0  0  0  0  0  0  0  0  0  0  0  0
    0.6227    1.0335   -2.0825 O   0  0  0  0  0  0  0  0  0  0  0  0
   -1.3462    1.1543   -0.2408 C   0  0  0  0  0  0  0  0  0  0  0  0
   -1.8621    2.4372   -0.2397 C   0  0  0  0  0  0  0  0  0  0  0  0
   -3.2091    2.6751    0.0365 C   0  0  0  0  0  0  0  0  0  0  0  0
   -4.0018    1.5885    0.3067 C   0  0  0  0  0  0  0  0  0  0  0  0
   -3.4701    0.3120    0.3015 C   0  0  0  0  0  0  0  0  0  0  0  0
   -2.1542    0.0855    0.0312 C   0  0  0  0  0  0  0  0  0  0  0  0
   -5.3810    1.7803    0.5941 N   0  0  0  0  0  0  0  0  0  0  0  0
   -5.9346    3.0233    0.6070 O   0  0  0  0  0  0  0  0  0  0  0  0
   -6.1272    0.8088    0.8439 O   0  0  0  0  0  0  0  0  0  0  0  0
   -3.6898   -2.2367   -0.4337 H   0  0  0  0  0  0  0  0  0  0  0  0
   -2.4902   -3.3004    0.3193 H   0  0  0  0  0  0  0  0  0  0  0  0
   -3.3200   -2.1489    1.3793 H   0  0  0  0  0  0  0  0  0  0  0  0
   -1.6932   -1.1680   -2.0969 H   0  0  0  0  0  0  0  0  0  0  0  0
   -1.4188   -2.8345   -1.4889 H   0  0  0  0  0  0  0  0  0  0  0  0
   -0.1030   -1.6591   -1.2872 H   0  0  0  0  0  0  0  0  0  0  0  0
   -1.0459   -2.1195    1.9319 H   0  0  0  0  0  0  0  0  0  0  0  0
    2.5239    1.4126    2.0859 H   0  0  0  0  0  0  0  0  0  0  0  0
    4.9607    1.6325    2.1787 H   0  0  0  0  0  0  0  0  0  0  0  0
    6.3703    0.4475    0.4814 H   0  0  0  0  0  0  0  0  0  0  0  0
    2.8599   -1.1174   -1.3177 H   0  0  0  0  0  0  0  0  0  0  0  0
   -1.2654    3.3166   -0.4485 H   0  0  0  0  0  0  0  0  0  0  0  0
   -3.6359    3.6676    0.0435 H   0  0  0  0  0  0  0  0  0  0  0  0
   -4.1415   -0.4915    0.5202 H   0  0  0  0  0  0  0  0  0  0  0  0
  1  2  1  0
  2  3  1  0
  2  4  1  0
  4  5  1  0
  5  6  2  0
  5  7  1  0
  7  8  1  0
  8  9  2  0
  9 10  1  0
 10 11  2  0
 11 12  1  0
 12 13  2  0
 12 14  1  0
 14 15  1  0
 14 16  2  0
  7 17  1  0
 17 18  2  0
 17 19  2  0
 17 20  1  0
 20 21  2  0
 21 22  1  0
 22 23  2  0
 23 24  1  0
 24 25  2  0
 23 26  1  0
 26 27  1  0
 26 28  2  0
 25  2  1  0
 13  8  1  0
 25 20  1  0
  1 29  1  0
  1 30  1  0
  1 31  1  0
  3 32  1  0
  3 33  1  0
  3 34  1  0
  4 35  1  0
  9 36  1  0
 10 37  1  0
 11 38  1  0
 13 39  1  0
 21 40  1  0
 22 41  1  0
 24 42  1  0
M  CHG  4  14   1  15  -1  26   1  27  -1
M  END
$$$$
[H]c1c([H])c([H])c(C([H])([H])O[C@@]([H])(C([H])([H])C([H])(C([H])([H])[H])C([H])([H])[H])[C@@]([H])(N2C([H])([H])C([H])([H])[C@]([H])(c3c([H])c([H])c([H])c([H])c3[H])[C@@]([H])(C([H])([H])[H])C2([H])[H])C([H])([H])[H])c([H])c1[H]
     RDKit          3D

 65 67  0  0  0  0  0  0  0  0999 V2000
   -1.8316   -3.4365   -0.6342 C   0  0  0  0  0  0  0  0  0  0  0  0
   -1.7981   -2.3834   -1.7302 C   0  0  0  0  0  0  0  0  0  0  0  0
   -2.7391   -3.0040   -2.8443 C   0  0  0  0  0  0  0  0  0  0  0  0
   -2.3558   -1.0959   -1.3188 C   0  0  0  0  0  0  0  0  0  0  0  0
   -1.8692   -0.3049   -0.1904 C   0  0  2  0  0  0  0  0  0  0  0  0
   -2.8401    0.8356   -0.2336 O   0  0  0  0  0  0  0  0  0  0  0  0
   -3.5624    0.8318    0.9497 C   0  0  0  0  0  0  0  0  0  0  0  0
   -4.5123    1.9582    0.8944 C   0  0  0  0  0  0  0  0  0  0  0  0
   -5.7612    1.7845    0.3248 C   0  0  0  0  0  0  0  0  0  0  0  0
   -6.6491    2.8249    0.2695 C   0  0  0  0  0  0  0  0  0  0  0  0
   -6.3246    4.0543    0.7729 C   0  0  0  0  0  0  0  0  0  0  0  0
   -5.0744    4.2572    1.3515 C   0  0  0  0  0  0  0  0  0  0  0  0
   -4.1786    3.1925    1.4033 C   0  0  0  0  0  0  0  0  0  0  0  0
   -0.5718    0.3928   -0.1825 C   0  0  2  0  0  0  0  0  0  0  0  0
   -0.6230    1.3676   -1.3887 C   0  0  0  0  0  0  0  0  0  0  0  0
    0.6590   -0.1997   -0.0446 N   0  0  0  0  0  0  0  0  0  0  0  0
    1.3080   -1.0419   -0.9172 C   0  0  0  0  0  0  0  0  0  0  0  0
    2.8109   -0.8309   -1.0421 C   0  0  0  0  0  0  0  0  0  0  0  0
    3.3207    0.0095    0.1299 C   0  0  1  0  0  0  0  0  0  0  0  0
    2.6334   -0.6013    1.3424 C   0  0  1  0  0  0  0  0  0  0  0  0
    3.3189   -0.1997    2.6260 C   0  0  0  0  0  0  0  0  0  0  0  0
    1.2025   -0.1550    1.3066 C   0  0  0  0  0  0  0  0  0  0  0  0
    4.7934   -0.0380    0.2166 C   0  0  0  0  0  0  0  0  0  0  0  0
    5.4722   -1.2224    0.3174 C   0  0  0  0  0  0  0  0  0  0  0  0
    6.8481   -1.2270    0.3948 C   0  0  0  0  0  0  0  0  0  0  0  0
    7.5482   -0.0390    0.3715 C   0  0  0  0  0  0  0  0  0  0  0  0
    6.8861    1.1710    0.2705 C   0  0  0  0  0  0  0  0  0  0  0  0
    5.5138    1.1373    0.1952 C   0  0  0  0  0  0  0  0  0  0  0  0
   -1.1045   -3.1480    0.1743 H   0  0  0  0  0  0  0  0  0  0  0  0
   -1.4471   -4.3763   -1.0658 H   0  0  0  0  0  0  0  0  0  0  0  0
   -2.8314   -3.6088   -0.2336 H   0  0  0  0  0  0  0  0  0  0  0  0
   -0.8466   -2.3996   -2.2333 H   0  0  0  0  0  0  0  0  0  0  0  0
   -2.4147   -4.0616   -2.9231 H   0  0  0  0  0  0  0  0  0  0  0  0
   -2.5256   -2.4081   -3.7376 H   0  0  0  0  0  0  0  0  0  0  0  0
   -3.7479   -2.9363   -2.4423 H   0  0  0  0  0  0  0  0  0  0  0  0
   -2.3623   -0.4336   -2.2705 H   0  0  0  0  0  0  0  0  0  0  0  0
   -3.5026   -1.2573   -1.2148 H   0  0  0  0  0  0  0  0  0  0  0  0
   -2.0979   -0.7405    0.8115 H   0  0  0  0  0  0  0  0  0  0  0  0
   -4.0993   -0.1586    0.9988 H   0  0  0  0  0  0  0  0  0  0  0  0
   -2.9008    0.9037    1.8319 H   0  0  0  0  0  0  0  0  0  0  0  0
   -5.9871    0.7841   -0.0686 H   0  0  0  0  0  0  0  0  0  0  0  0
   -7.6187    2.6835   -0.1744 H   0  0  0  0  0  0  0  0  0  0  0  0
   -6.9853    4.9172    0.7576 H   0  0  0  0  0  0  0  0  0  0  0  0
   -4.8136    5.2305    1.7510 H   0  0  0  0  0  0  0  0  0  0  0  0
   -3.2219    3.3616    1.8511 H   0  0  0  0  0  0  0  0  0  0  0  0
   -0.6513    1.1584    0.6977 H   0  0  0  0  0  0  0  0  0  0  0  0
   -1.5408    1.9620   -1.2453 H   0  0  0  0  0  0  0  0  0  0  0  0
   -0.7406    0.7721   -2.3028 H   0  0  0  0  0  0  0  0  0  0  0  0
    0.2295    2.0462   -1.3726 H   0  0  0  0  0  0  0  0  0  0  0  0
    0.9330   -0.8986   -1.9595 H   0  0  0  0  0  0  0  0  0  0  0  0
    1.1059   -2.1028   -0.6622 H   0  0  0  0  0  0  0  0  0  0  0  0
    3.2872   -1.8238   -0.9278 H   0  0  0  0  0  0  0  0  0  0  0  0
    3.1218   -0.4293   -2.0158 H   0  0  0  0  0  0  0  0  0  0  0  0
    2.9592    1.0384    0.0512 H   0  0  0  0  0  0  0  0  0  0  0  0
    2.6431   -1.7020    1.2085 H   0  0  0  0  0  0  0  0  0  0  0  0
    2.7084   -0.6010    3.4589 H   0  0  0  0  0  0  0  0  0  0  0  0
    4.3260   -0.6569    2.6646 H   0  0  0  0  0  0  0  0  0  0  0  0
    3.3510    0.9196    2.6622 H   0  0  0  0  0  0  0  0  0  0  0  0
    0.6027   -0.8174    1.9919 H   0  0  0  0  0  0  0  0  0  0  0  0
    1.1326    0.8701    1.7191 H   0  0  0  0  0  0  0  0  0  0  0  0
    4.9191   -2.1588    0.3355 H   0  0  0  0  0  0  0  0  0  0  0  0
    7.4199   -2.1548    0.4757 H   0  0  0  0  0  0  0  0  0  0  0  0
    8.6282   -0.0114    0.4302 H   0  0  0  0  0  0  0  0  0  0  0  0
    7.4504    2.1108    0.2519 H   0  0  0  0  0  0  0  0  0  0  0  0
    4.9983    2.0899    0.1162 H   0  0  0  0  0  0  0  0  0  0  0  0
  1  2  1  0
  2  3  1  0
  2  4  1  0
  4  5  1  0
  5  6  1  0
  6  7  1  0
  7  8  1  0
  8  9  2  0
  9 10  1  0
 10 11  2  0
 11 12  1  0
 12 13  2  0
  5 14  1  0
 14 15  1  0
 14 16  1  0
 16 17  1  0
 17 18  1  0
 18 19  1  0
 19 20  1  0
 20 21  1  0
 20 22  1  0
 19 23  1  0
 23 24  2  0
 24 25  1  0
 25 26  2  0
 26 27  1  0
 27 28  2  0
 13  8  1  0
 22 16  1  0
 28 23  1  0
  1 29  1  0
  1 30  1  0
  1 31  1  0
  2 32  1  0
  3 33  1  0
  3 34  1  0
  3 35  1  0
  4 36  1  0
  4 37  1  0
  5 38  1  1
  7 39  1  0
  7 40  1  0
  9 41  1  0
 10 42  1  0
 11 43  1  0
 12 44  1  0
 13 45  1  0
 14 46  1  1
 15 47  1  0
 15 48  1  0
 15 49  1  0
 17 50  1  0
 17 51  1  0
 18 52  1  0
 18 53  1  0
 19 54  1  6
 20 55  1  6
 21 56  1  0
 21 57  1  0
 21 58  1  0
 22 59  1  0
 22 60  1  0
 24 61  1  0
 25 62  1  0
 26 63  1  0
 27 64  1  0
 28 65  1  0
M  END
$$$$
[H]c1c([H])c([H])c(Oc2c([H])c(C([H])([H])[H])c3c(c2[H])C(C([H])([H])[H])(C([H])([H])[H])C([H])([H])C(=O)N3[H])c(C#N)c1[H]
     RDKit          3D

 41 43  0  0  0  0  0  0  0  0999 V2000
   -1.5621    2.0781    0.8482 C   0  0  0  0  0  0  0  0  0  0  0  0
   -2.0595    1.0693   -0.1936 C   0  0  0  0  0  0  0  0  0  0  0  0
   -1.8253    1.7020   -1.5491 C   0  0  0  0  0  0  0  0  0  0  0  0
   -3.5347    0.9286    0.0006 C   0  0  0  0  0  0  0  0  0  0  0  0
   -4.0721   -0.3979   -0.2761 C   0  0  0  0  0  0  0  0  0  0  0  0
   -5.2394   -0.5179   -0.6964 O   0  0  0  0  0  0  0  0  0  0  0  0
   -3.2912   -1.5661   -0.0766 N   0  0  0  0  0  0  0  0  0  0  0  0
   -1.8848   -1.4058    0.0645 C   0  0  0  0  0  0  0  0  0  0  0  0
   -1.0886   -2.5195    0.2605 C   0  0  0  0  0  0  0  0  0  0  0  0
   -1.6883   -3.8833    0.3254 C   0  0  0  0  0  0  0  0  0  0  0  0
    0.2738   -2.3742    0.3981 C   0  0  0  0  0  0  0  0  0  0  0  0
    0.9071   -1.1263    0.3482 C   0  0  0  0  0  0  0  0  0  0  0  0
    2.2538   -1.1136    0.4986 O   0  0  0  0  0  0  0  0  0  0  0  0
    3.1726   -0.1385    0.3888 C   0  0  0  0  0  0  0  0  0  0  0  0
    3.9147    0.2277    1.4902 C   0  0  0  0  0  0  0  0  0  0  0  0
    4.8776    1.2297    1.4263 C   0  0  0  0  0  0  0  0  0  0  0  0
    5.1081    1.8805    0.2465 C   0  0  0  0  0  0  0  0  0  0  0  0
    4.3717    1.5207   -0.8582 C   0  0  0  0  0  0  0  0  0  0  0  0
    3.4029    0.5128   -0.7960 C   0  0  0  0  0  0  0  0  0  0  0  0
    2.7148    0.2072   -2.0062 C   0  0  0  0  0  0  0  0  0  0  0  0
    2.1777   -0.0535   -2.9832 N   0  0  0  0  0  0  0  0  0  0  0  0
    0.0873   -0.0398    0.1524 C   0  0  0  0  0  0  0  0  0  0  0  0
   -1.3005   -0.1670    0.0101 C   0  0  0  0  0  0  0  0  0  0  0  0
   -0.6656    2.5506    0.4525 H   0  0  0  0  0  0  0  0  0  0  0  0
   -1.2973    1.4918    1.7543 H   0  0  0  0  0  0  0  0  0  0  0  0
   -2.3650    2.7868    1.1349 H   0  0  0  0  0  0  0  0  0  0  0  0
   -0.7972    2.0999   -1.6464 H   0  0  0  0  0  0  0  0  0  0  0  0
   -2.5014    2.5841   -1.6020 H   0  0  0  0  0  0  0  0  0  0  0  0
   -2.0984    1.0346   -2.3824 H   0  0  0  0  0  0  0  0  0  0  0  0
   -4.0776    1.6715   -0.6190 H   0  0  0  0  0  0  0  0  0  0  0  0
   -3.7970    1.1767    1.0709 H   0  0  0  0  0  0  0  0  0  0  0  0
   -3.7685   -2.4934   -0.0404 H   0  0  0  0  0  0  0  0  0  0  0  0
   -0.8999   -4.6169    0.1030 H   0  0  0  0  0  0  0  0  0  0  0  0
   -2.0900   -3.9937    1.3563 H   0  0  0  0  0  0  0  0  0  0  0  0
   -2.4736   -4.0164   -0.4449 H   0  0  0  0  0  0  0  0  0  0  0  0
    0.8719   -3.2541    0.5496 H   0  0  0  0  0  0  0  0  0  0  0  0
    3.7922   -0.2388    2.4590 H   0  0  0  0  0  0  0  0  0  0  0  0
    5.4463    1.4987    2.3034 H   0  0  0  0  0  0  0  0  0  0  0  0
    5.8695    2.6757    0.1888 H   0  0  0  0  0  0  0  0  0  0  0  0
    4.5766    2.0537   -1.7781 H   0  0  0  0  0  0  0  0  0  0  0  0
    0.5593    0.9360    0.1172 H   0  0  0  0  0  0  0  0  0  0  0  0
  1  2  1  0
  2  3  1  0
  2  4  1  0
  4  5  1  0
  5  6  2  0
  5  7  1  0
  7  8  1  0
  8  9  2  0
  9 10  1  0
  9 11  1  0
 11 12  2  0
 12 13  1  0
 13 14  1  0
 14 15  2  0
 15 16  1  0
 16 17  2  0
 17 18  1  0
 18 19  2  0
 19 20  1  0
 20 21  3  0
 12 22  1  0
 22 23  2  0
 23  2  1  0
 23  8  1  0
 19 14  1  0
  1 24  1  0
  1 25  1  0
  1 26  1  0
  3 27  1  0
  3 28  1  0
  3 29  1  0
  4 30  1  0
  4 31  1  0
  7 32  1  0
 10 33  1  0
 10 34  1  0
 10 35  1  0
 11 36  1  0
 15 37  1  0
 16 38  1  0
 17 39  1  0
 18 40  1  0
 22 41  1  0
M  END
$$$$
[H]Oc1c([H])c2c(c([H])c1F)OC([H])([H])/C(=C(/[H])c1c([H])c(C([H])([H])[H])c(O[H])c(C([H])([H])[H])c1[H])C2=O
     RDKit          3D

 38 40  0  0  0  0  0  0  0  0999 V2000
   -3.8369   -2.1673   -1.4715 C   0  0  0  0  0  0  0  0  0  0  0  0
   -3.3236   -1.0524   -0.6343 C   0  0  0  0  0  0  0  0  0  0  0  0
   -2.0251   -1.0790   -0.1679 C   0  0  0  0  0  0  0  0  0  0  0  0
   -1.5579   -0.0595    0.5965 C   0  0  0  0  0  0  0  0  0  0  0  0
   -0.2285    0.0765    1.1596 C   0  0  0  0  0  0  0  0  0  0  0  0
    0.9070   -0.1864    0.5741 C   0  0  0  0  0  0  0  0  0  0  0  0
    0.9531   -0.6756   -0.8013 C   0  0  0  0  0  0  0  0  0  0  0  0
    2.1476   -0.2340   -1.4737 O   0  0  0  0  0  0  0  0  0  0  0  0
    3.3597   -0.0727   -0.8600 C   0  0  0  0  0  0  0  0  0  0  0  0
    4.5609   -0.0184   -1.5742 C   0  0  0  0  0  0  0  0  0  0  0  0
    5.7821    0.1441   -0.9552 C   0  0  0  0  0  0  0  0  0  0  0  0
    6.8796    0.1852   -1.7131 F   0  0  0  0  0  0  0  0  0  0  0  0
    5.8610    0.2609    0.4154 C   0  0  0  0  0  0  0  0  0  0  0  0
    7.0919    0.4269    1.0657 O   0  0  0  0  0  0  0  0  0  0  0  0
    4.6791    0.2081    1.1256 C   0  0  0  0  0  0  0  0  0  0  0  0
    3.4535    0.0454    0.5107 C   0  0  0  0  0  0  0  0  0  0  0  0
    2.2059   -0.0105    1.2634 C   0  0  0  0  0  0  0  0  0  0  0  0
    2.2409    0.0922    2.5053 O   0  0  0  0  0  0  0  0  0  0  0  0
   -2.4227    1.0100    0.8962 C   0  0  0  0  0  0  0  0  0  0  0  0
   -3.7112    1.0442    0.4381 C   0  0  0  0  0  0  0  0  0  0  0  0
   -4.6264    2.1642    0.7481 C   0  0  0  0  0  0  0  0  0  0  0  0
   -4.1695   -0.0020   -0.3388 C   0  0  0  0  0  0  0  0  0  0  0  0
   -5.4752    0.0422   -0.7976 O   0  0  0  0  0  0  0  0  0  0  0  0
   -4.0581   -3.0782   -0.8929 H   0  0  0  0  0  0  0  0  0  0  0  0
   -4.7183   -1.8409   -2.0599 H   0  0  0  0  0  0  0  0  0  0  0  0
   -3.0327   -2.4276   -2.1906 H   0  0  0  0  0  0  0  0  0  0  0  0
   -1.3710   -1.9005   -0.3959 H   0  0  0  0  0  0  0  0  0  0  0  0
   -0.1373    0.4408    2.1995 H   0  0  0  0  0  0  0  0  0  0  0  0
    0.9536   -1.7891   -0.8627 H   0  0  0  0  0  0  0  0  0  0  0  0
    0.1332   -0.2173   -1.4052 H   0  0  0  0  0  0  0  0  0  0  0  0
    4.4666   -0.1139   -2.6598 H   0  0  0  0  0  0  0  0  0  0  0  0
    7.1518    0.5127    2.0714 H   0  0  0  0  0  0  0  0  0  0  0  0
    4.6961    0.2972    2.2235 H   0  0  0  0  0  0  0  0  0  0  0  0
   -2.1008    1.8483    1.5019 H   0  0  0  0  0  0  0  0  0  0  0  0
   -4.8988    2.7352   -0.1591 H   0  0  0  0  0  0  0  0  0  0  0  0
   -5.5641    1.7448    1.1845 H   0  0  0  0  0  0  0  0  0  0  0  0
   -4.1784    2.8371    1.5142 H   0  0  0  0  0  0  0  0  0  0  0  0
   -6.0874    0.8093   -0.5800 H   0  0  0  0  0  0  0  0  0  0  0  0
  1  2  1  0
  2  3  2  0
  3  4  1  0
  4  5  1  0
  5  6  2  0
  6  7  1  0
  7  8  1  0
  8  9  1  0
  9 10  2  0
 10 11  1  0
 11 12  1  0
 11 13  2  0
 13 14  1  0
 13 15  1  0
 15 16  2  0
 16 17  1  0
 17 18  2  0
  4 19  2  0
 19 20  1  0
 20 21  1  0
 20 22  2  0
 22 23  1  0
 22  2  1  0
 17  6  1  0
 16  9  1  0
  1 24  1  0
  1 25  1  0
  1 26  1  0
  3 27  1  0
  5 28  1  0
  7 29  1  0
  7 30  1  0
 10 31  1  0
 14 32  1  0
 15 33  1  0
 19 34  1  0
 21 35  1  0
 21 36  1  0
 21 37  1  0
 23 38  1  0
M  END
$$$$
[H]c1c([H])c2c(c([H])c1F)C(=O)N([C@@]([H])(C([H])([H])[H])C([H])([H])C([H])([H])C(=O)N([H])c1c([H])c([H])c(F)c(Cl)c1[H])C2=O
     RDKit          3D

 42 44  0  0  0  0  0  0  0  0999 V2000
    0.8248    2.2156   -0.2642 C   0  0  0  0  0  0  0  0  0  0  0  0
    0.8664    0.7104   -0.1072 C   0  0  1  0  0  0  0  0  0  0  0  0
    0.4694   -0.0140   -1.3440 C   0  0  0  0  0  0  0  0  0  0  0  0
   -0.8923    0.2415   -1.8677 C   0  0  0  0  0  0  0  0  0  0  0  0
   -2.0023   -0.1426   -0.9402 C   0  0  0  0  0  0  0  0  0  0  0  0
   -1.7864   -0.6914    0.1499 O   0  0  0  0  0  0  0  0  0  0  0  0
   -3.3190    0.1459   -1.3560 N   0  0  0  0  0  0  0  0  0  0  0  0
   -4.4895   -0.1298   -0.6213 C   0  0  0  0  0  0  0  0  0  0  0  0
   -5.7004   -0.1777   -1.3401 C   0  0  0  0  0  0  0  0  0  0  0  0
   -6.8601   -0.4188   -0.6586 C   0  0  0  0  0  0  0  0  0  0  0  0
   -6.8981   -0.6190    0.7125 C   0  0  0  0  0  0  0  0  0  0  0  0
   -8.0888   -0.8560    1.3357 F   0  0  0  0  0  0  0  0  0  0  0  0
   -5.7240   -0.5743    1.4242 C   0  0  0  0  0  0  0  0  0  0  0  0
   -5.7324   -0.8214    3.1506 Cl  0  0  0  0  0  0  0  0  0  0  0  0
   -4.5348   -0.3271    0.7281 C   0  0  0  0  0  0  0  0  0  0  0  0
    2.2308    0.3229    0.2062 N   0  0  0  0  0  0  0  0  0  0  0  0
    2.6458   -0.2983    1.4099 C   0  0  0  0  0  0  0  0  0  0  0  0
    1.8671   -0.5975    2.3689 O   0  0  0  0  0  0  0  0  0  0  0  0
    4.0894   -0.5450    1.3923 C   0  0  0  0  0  0  0  0  0  0  0  0
    4.9616   -1.1112    2.2980 C   0  0  0  0  0  0  0  0  0  0  0  0
    6.2902   -1.1953    1.9678 C   0  0  0  0  0  0  0  0  0  0  0  0
    6.7785   -0.7362    0.7702 C   0  0  0  0  0  0  0  0  0  0  0  0
    8.0811   -0.8302    0.4719 F   0  0  0  0  0  0  0  0  0  0  0  0
    5.8729   -0.1714   -0.1194 C   0  0  0  0  0  0  0  0  0  0  0  0
    4.5394   -0.0662    0.1663 C   0  0  0  0  0  0  0  0  0  0  0  0
    3.3986    0.4759   -0.5823 C   0  0  0  0  0  0  0  0  0  0  0  0
    3.4944    0.9773   -1.7199 O   0  0  0  0  0  0  0  0  0  0  0  0
   -0.1741    2.6114   -0.0524 H   0  0  0  0  0  0  0  0  0  0  0  0
    1.1440    2.5622   -1.2523 H   0  0  0  0  0  0  0  0  0  0  0  0
    1.5111    2.6292    0.5178 H   0  0  0  0  0  0  0  0  0  0  0  0
    0.2274    0.4528    0.7292 H   0  0  0  0  0  0  0  0  0  0  0  0
    1.2508    0.0920   -2.1401 H   0  0  0  0  0  0  0  0  0  0  0  0
    0.5052   -1.1164   -1.0769 H   0  0  0  0  0  0  0  0  0  0  0  0
   -0.9819   -0.2590   -2.8528 H   0  0  0  0  0  0  0  0  0  0  0  0
   -1.0656    1.3344   -2.0838 H   0  0  0  0  0  0  0  0  0  0  0  0
   -3.4288    0.6240   -2.3253 H   0  0  0  0  0  0  0  0  0  0  0  0
   -5.7262   -0.0286   -2.4081 H   0  0  0  0  0  0  0  0  0  0  0  0
   -7.8134   -0.4620   -1.1859 H   0  0  0  0  0  0  0  0  0  0  0  0
   -3.6527   -0.2888    1.3488 H   0  0  0  0  0  0  0  0  0  0  0  0
    4.5736   -1.4684    3.2328 H   0  0  0  0  0  0  0  0  0  0  0  0
    6.9898   -1.6395    2.6723 H   0  0  0  0  0  0  0  0  0  0  0  0
    6.2586    0.1901   -1.0628 H   0  0  0  0  0  0  0  0  0  0  0  0
  1  2  1  0
  2  3  1  0
  3  4  1  0
  4  5  1  0
  5  6  2  0
  5  7  1  0
  7  8  1  0
  8  9  2  0
  9 10  1  0
 10 11  2  0
 11 12  1  0
 11 13  1  0
 13 14  1  0
 13 15  2  0
  2 16  1  0
 16 17  1  0
 17 18  2  0
 17 19  1  0
 19 20  2  0
 20 21  1  0
 21 22  2  0
 22 23  1  0
 22 24  1  0
 24 25  2  0
 25 26  1  0
 26 27  2  0
 15  8  1  0
 26 16  1  0
 25 19  1  0
  1 28  1  0
  1 29  1  0
  1 30  1  0
  2 31  1  1
  3 32  1  0
  3 33  1  0
  4 34  1  0
  4 35  1  0
  7 36  1  0
  9 37  1  0
 10 38  1  0
 15 39  1  0
 20 40  1  0
 21 41  1  0
 24 42  1  0
M  END
$$$$
[H]Oc1c([H])c([H])c(C(=O)c2c([H])c([H])c(O[H])c(C([H])([H])N3C(=O)C([H])([H])C([H])([H])c4c([H])c([H])c([H])c([H])c43)c2[H])c([H])c1N(C([H])([H])[H])C([H])(C([H])([H])[H])C([H])([H])[H]
     RDKit          3D

 61 64  0  0  0  0  0  0  0  0999 V2000
    8.1055    1.3040    0.0493 C   0  0  0  0  0  0  0  0  0  0  0  0
    6.9790    0.5202    0.6877 C   0  0  0  0  0  0  0  0  0  0  0  0
    6.2347    1.3169    1.7090 C   0  0  0  0  0  0  0  0  0  0  0  0
    6.1497   -0.0373   -0.3460 N   0  0  0  0  0  0  0  0  0  0  0  0
    6.7486   -0.9993   -1.2850 C   0  0  0  0  0  0  0  0  0  0  0  0
    4.7797    0.2834   -0.5323 C   0  0  0  0  0  0  0  0  0  0  0  0
    3.7826   -0.6385   -0.3859 C   0  0  0  0  0  0  0  0  0  0  0  0
    2.4156   -0.3472   -0.5621 C   0  0  0  0  0  0  0  0  0  0  0  0
    2.1414    0.9357   -0.8944 C   0  0  0  0  0  0  0  0  0  0  0  0
    3.1580    1.9036   -1.0503 C   0  0  0  0  0  0  0  0  0  0  0  0
    4.4666    1.5795   -0.8706 C   0  0  0  0  0  0  0  0  0  0  0  0
    5.4720    2.5447   -1.0275 O   0  0  0  0  0  0  0  0  0  0  0  0
    1.4771   -1.3975   -0.3862 C   0  0  0  0  0  0  0  0  0  0  0  0
    1.9503   -2.6066   -0.6505 O   0  0  0  0  0  0  0  0  0  0  0  0
    0.1023   -1.4341    0.0316 C   0  0  0  0  0  0  0  0  0  0  0  0
   -0.2593   -2.5617    0.8017 C   0  0  0  0  0  0  0  0  0  0  0  0
   -1.5449   -2.7327    1.2451 C   0  0  0  0  0  0  0  0  0  0  0  0
   -2.5352   -1.7999    0.9499 C   0  0  0  0  0  0  0  0  0  0  0  0
   -3.8066   -2.0336    1.4182 O   0  0  0  0  0  0  0  0  0  0  0  0
   -2.2426   -0.6931    0.2120 C   0  0  0  0  0  0  0  0  0  0  0  0
   -3.1662    0.4089   -0.1263 C   0  0  0  0  0  0  0  0  0  0  0  0
   -4.5097    0.1606   -0.3742 N   0  0  0  0  0  0  0  0  0  0  0  0
   -4.9291   -0.2638   -1.6885 C   0  0  0  0  0  0  0  0  0  0  0  0
   -4.2875    0.0257   -2.7072 O   0  0  0  0  0  0  0  0  0  0  0  0
   -6.1905   -1.0828   -1.7850 C   0  0  0  0  0  0  0  0  0  0  0  0
   -7.2802   -0.2591   -1.1848 C   0  0  0  0  0  0  0  0  0  0  0  0
   -6.9143    0.2076    0.1671 C   0  0  0  0  0  0  0  0  0  0  0  0
   -7.9213    0.5019    1.0897 C   0  0  0  0  0  0  0  0  0  0  0  0
   -7.6427    0.9643    2.3431 C   0  0  0  0  0  0  0  0  0  0  0  0
   -6.3257    1.1407    2.6940 C   0  0  0  0  0  0  0  0  0  0  0  0
   -5.3181    0.8619    1.8160 C   0  0  0  0  0  0  0  0  0  0  0  0
   -5.5774    0.3869    0.5267 C   0  0  0  0  0  0  0  0  0  0  0  0
   -0.9110   -0.5685   -0.2172 C   0  0  0  0  0  0  0  0  0  0  0  0
    9.1063    0.9443    0.3462 H   0  0  0  0  0  0  0  0  0  0  0  0
    8.0339    1.1933   -1.0331 H   0  0  0  0  0  0  0  0  0  0  0  0
    8.0721    2.3799    0.3212 H   0  0  0  0  0  0  0  0  0  0  0  0
    7.4786   -0.3337    1.2110 H   0  0  0  0  0  0  0  0  0  0  0  0
    6.4912    2.3996    1.6684 H   0  0  0  0  0  0  0  0  0  0  0  0
    5.1666    1.1158    1.6602 H   0  0  0  0  0  0  0  0  0  0  0  0
    6.5727    0.9913    2.7242 H   0  0  0  0  0  0  0  0  0  0  0  0
    5.9576   -1.6293   -1.7423 H   0  0  0  0  0  0  0  0  0  0  0  0
    7.3010   -0.4202   -2.0497 H   0  0  0  0  0  0  0  0  0  0  0  0
    7.4900   -1.5968   -0.7246 H   0  0  0  0  0  0  0  0  0  0  0  0
    4.0344   -1.6540   -0.1187 H   0  0  0  0  0  0  0  0  0  0  0  0
    1.1487    1.3072   -1.0658 H   0  0  0  0  0  0  0  0  0  0  0  0
    2.9072    2.9171   -1.3151 H   0  0  0  0  0  0  0  0  0  0  0  0
    5.2557    3.4956   -1.2745 H   0  0  0  0  0  0  0  0  0  0  0  0
    0.4655   -3.3177    1.0623 H   0  0  0  0  0  0  0  0  0  0  0  0
   -1.8072   -3.6084    1.8384 H   0  0  0  0  0  0  0  0  0  0  0  0
   -4.0635   -2.8238    1.9580 H   0  0  0  0  0  0  0  0  0  0  0  0
   -2.6785    0.9312   -1.0443 H   0  0  0  0  0  0  0  0  0  0  0  0
   -2.9643    1.1993    0.6576 H   0  0  0  0  0  0  0  0  0  0  0  0
   -6.0597   -2.0328   -1.2420 H   0  0  0  0  0  0  0  0  0  0  0  0
   -6.4116   -1.2710   -2.8485 H   0  0  0  0  0  0  0  0  0  0  0  0
   -7.3776    0.6766   -1.8156 H   0  0  0  0  0  0  0  0  0  0  0  0
   -8.2653   -0.7784   -1.1766 H   0  0  0  0  0  0  0  0  0  0  0  0
   -8.9406    0.3425    0.7556 H   0  0  0  0  0  0  0  0  0  0  0  0
   -8.4619    1.1861    3.0447 H   0  0  0  0  0  0  0  0  0  0  0  0
   -6.1009    1.5104    3.6951 H   0  0  0  0  0  0  0  0  0  0  0  0
   -4.2655    0.9935    2.0887 H   0  0  0  0  0  0  0  0  0  0  0  0
   -0.6857    0.2917   -0.8155 H   0  0  0  0  0  0  0  0  0  0  0  0
  1  2  1  0
  2  3  1  0
  2  4  1  0
  4  5  1  0
  4  6  1  0
  6  7  2  0
  7  8  1  0
  8  9  2  0
  9 10  1  0
 10 11  2  0
 11 12  1  0
  8 13  1  0
 13 14  2  0
 13 15  1  0
 15 16  2  0
 16 17  1  0
 17 18  2  0
 18 19  1  0
 18 20  1  0
 20 21  1  0
 21 22  1  0
 22 23  1  0
 23 24  2  0
 23 25  1  0
 25 26  1  0
 26 27  1  0
 27 28  2  0
 28 29  1  0
 29 30  2  0
 30 31  1  0
 31 32  2  0
 20 33  2  0
 11  6  1  0
 33 15  1  0
 32 22  1  0
 32 27  1  0
  1 34  1  0
  1 35  1  0
  1 36  1  0
  2 37  1  0
  3 38  1  0
  3 39  1  0
  3 40  1  0
  5 41  1  0
  5 42  1  0
  5 43  1  0
  7 44  1  0
  9 45  1  0
 10 46  1  0
 12 47  1  0
 16 48  1  0
 17 49  1  0
 19 50  1  0
 21 51  1  0
 21 52  1  0
 25 53  1  0
 25 54  1  0
 26 55  1  0
 26 56  1  0
 28 57  1  0
 29 58  1  0
 30 59  1  0
 31 60  1  0
 33 61  1  0
M  END
$$$$
[H]Oc1c([H])c([H])c([H])c(/C([H])=C(\c2c([H])c([H])c(O[H])c(O[H])c2[H])c2c([H])c(OC([H])([H])[H])c(C([H])([H])[H])c(OC([H])([H])[H])c2[H])c1[H]
     RDKit          3D

 50 52  0  0  0  0  0  0  0  0999 V2000
    3.5627   -3.1922   -1.8862 C   0  0  0  0  0  0  0  0  0  0  0  0
    4.0922   -2.0835   -1.2080 O   0  0  0  0  0  0  0  0  0  0  0  0
    3.3206   -1.1020   -0.6062 C   0  0  0  0  0  0  0  0  0  0  0  0
    1.9218   -1.1355   -0.6238 C   0  0  0  0  0  0  0  0  0  0  0  0
    1.1660   -0.1666   -0.0296 C   0  0  0  0  0  0  0  0  0  0  0  0
    1.8051    0.8634    0.6001 C   0  0  0  0  0  0  0  0  0  0  0  0
    3.2032    0.9587    0.6545 C   0  0  0  0  0  0  0  0  0  0  0  0
    3.8718    1.9812    1.2782 O   0  0  0  0  0  0  0  0  0  0  0  0
    3.3861    3.0793    1.9519 C   0  0  0  0  0  0  0  0  0  0  0  0
    3.9214   -0.0507    0.0352 C   0  0  0  0  0  0  0  0  0  0  0  0
    5.4011    0.0282    0.0791 C   0  0  0  0  0  0  0  0  0  0  0  0
   -0.3055   -0.2976    0.0027 C   0  0  0  0  0  0  0  0  0  0  0  0
   -0.7895   -1.4922   -0.1945 C   0  0  0  0  0  0  0  0  0  0  0  0
   -2.1692   -1.9246   -0.2356 C   0  0  0  0  0  0  0  0  0  0  0  0
   -2.5284   -3.0122    0.5609 C   0  0  0  0  0  0  0  0  0  0  0  0
   -3.8235   -3.5135    0.5072 C   0  0  0  0  0  0  0  0  0  0  0  0
   -4.7780   -2.9535   -0.3279 C   0  0  0  0  0  0  0  0  0  0  0  0
   -4.4183   -1.8730   -1.1187 C   0  0  0  0  0  0  0  0  0  0  0  0
   -5.4081   -1.3490   -1.9365 O   0  0  0  0  0  0  0  0  0  0  0  0
   -3.1330   -1.3828   -1.0589 C   0  0  0  0  0  0  0  0  0  0  0  0
   -1.1428    0.8333    0.3540 C   0  0  0  0  0  0  0  0  0  0  0  0
   -2.3018    0.8284    1.0782 C   0  0  0  0  0  0  0  0  0  0  0  0
   -3.1036    1.9341    1.2463 C   0  0  0  0  0  0  0  0  0  0  0  0
   -2.7716    3.1432    0.6786 C   0  0  0  0  0  0  0  0  0  0  0  0
   -3.6088    4.2566    0.8660 O   0  0  0  0  0  0  0  0  0  0  0  0
   -1.6170    3.1939   -0.0547 C   0  0  0  0  0  0  0  0  0  0  0  0
   -1.2371    4.3826   -0.6441 O   0  0  0  0  0  0  0  0  0  0  0  0
   -0.8193    2.0757   -0.2181 C   0  0  0  0  0  0  0  0  0  0  0  0
    3.0024   -3.8170   -1.1765 H   0  0  0  0  0  0  0  0  0  0  0  0
    2.8951   -2.8260   -2.6972 H   0  0  0  0  0  0  0  0  0  0  0  0
    4.4314   -3.7796   -2.2748 H   0  0  0  0  0  0  0  0  0  0  0  0
    1.5269   -1.9759   -1.1597 H   0  0  0  0  0  0  0  0  0  0  0  0
    1.2560    1.6449    1.1141 H   0  0  0  0  0  0  0  0  0  0  0  0
    3.8004    3.0489    2.9852 H   0  0  0  0  0  0  0  0  0  0  0  0
    2.2986    3.0450    2.0521 H   0  0  0  0  0  0  0  0  0  0  0  0
    3.6153    4.0479    1.4486 H   0  0  0  0  0  0  0  0  0  0  0  0
    5.7468    0.8938    0.6672 H   0  0  0  0  0  0  0  0  0  0  0  0
    5.7397   -0.9361    0.5463 H   0  0  0  0  0  0  0  0  0  0  0  0
    5.8819    0.0754   -0.9063 H   0  0  0  0  0  0  0  0  0  0  0  0
   -0.0716   -2.3433   -0.3369 H   0  0  0  0  0  0  0  0  0  0  0  0
   -1.8175   -3.4802    1.2276 H   0  0  0  0  0  0  0  0  0  0  0  0
   -4.0608   -4.3702    1.1509 H   0  0  0  0  0  0  0  0  0  0  0  0
   -5.7700   -3.3796   -0.3319 H   0  0  0  0  0  0  0  0  0  0  0  0
   -5.5357   -1.7089   -2.8893 H   0  0  0  0  0  0  0  0  0  0  0  0
   -2.8842   -0.5412   -1.6876 H   0  0  0  0  0  0  0  0  0  0  0  0
   -2.6055   -0.1011    1.6003 H   0  0  0  0  0  0  0  0  0  0  0  0
   -4.0185    1.8819    1.8297 H   0  0  0  0  0  0  0  0  0  0  0  0
   -3.4343    5.1639    0.4859 H   0  0  0  0  0  0  0  0  0  0  0  0
   -1.7617    5.2220   -0.5668 H   0  0  0  0  0  0  0  0  0  0  0  0
    0.0688    2.2058   -0.8314 H   0  0  0  0  0  0  0  0  0  0  0  0
  1  2  1  0
  2  3  1  0
  3  4  2  0
  4  5  1  0
  5  6  2  0
  6  7  1  0
  7  8  1  0
  8  9  1  0
  7 10  2  0
 10 11  1  0
  5 12  1  0
 12 13  2  0
 13 14  1  0
 14 15  2  0
 15 16  1  0
 16 17  2  0
 17 18  1  0
 18 19  1  0
 18 20  2  0
 12 21  1  0
 21 22  2  0
 22 23  1  0
 23 24  2  0
 24 25  1  0
 24 26  1  0
 26 27  1  0
 26 28  2  0
 10  3  1  0
 20 14  1  0
 28 21  1  0
  1 29  1  0
  1 30  1  0
  1 31  1  0
  4 32  1  0
  6 33  1  0
  9 34  1  0
  9 35  1  0
  9 36  1  0
 11 37  1  0
 11 38  1  0
 11 39  1  0
 13 40  1  0
 15 41  1  0
 16 42  1  0
 17 43  1  0
 19 44  1  0
 20 45  1  0
 22 46  1  0
 23 47  1  0
 25 48  1  0
 27 49  1  0
 28 50  1  0
M  END
$$$$
[H]OC([H])([H])[C@@]12C3([H])C([H])([H])C([H])([H])[C@]3([H])[C@]1([H])C([H])([H])[C@]1(C([H])([H])[H])C(=C([H])[C@]1([H])OC([H])([H])[H])[C@]([H])(C([H])([H])C([H])([H])C([H])([H])C([H])([H])C([H])([H])C([H])([H])[H])C2([H])[H]
     RDKit          2D

 60 63  0  0  0  0  0  0  0  0999 V2000
  -11.0462    2.8046    0.0000 C   0  0  0  0  0  0  0  0  0  0  0  0
   -9.6304    2.3091    0.0000 C   0  0  0  0  0  0  0  0  0  0  0  0
   -8.2145    1.8137    0.0000 C   0  0  0  0  0  0  0  0  0  0  0  0
   -6.7987    1.3183    0.0000 C   0  0  0  0  0  0  0  0  0  0  0  0
   -5.3829    0.8229    0.0000 C   0  0  0  0  0  0  0  0  0  0  0  0
   -3.9671    0.3275    0.0000 C   0  0  0  0  0  0  0  0  0  0  0  0
   -2.5512   -0.1679    0.0000 C   0  0  0  0  0  0  0  0  0  0  0  0
   -3.3493   -1.4380    0.0000 C   0  0  0  0  0  0  0  0  0  0  0  0
   -2.8539   -2.8539    0.0000 C   0  0  0  0  0  0  0  0  0  0  0  0
   -4.3539   -2.8539    0.0000 C   0  0  0  0  0  0  0  0  0  0  0  0
   -5.8539   -2.8539    0.0000 O   0  0  0  0  0  0  0  0  0  0  0  0
   -3.3493   -4.2697    0.0000 C   0  0  0  0  0  0  0  0  0  0  0  0
   -3.8447   -5.6855    0.0000 C   0  0  0  0  0  0  0  0  0  0  0  0
   -2.4289   -6.1809    0.0000 C   0  0  0  0  0  0  0  0  0  0  0  0
   -1.9335   -4.7651    0.0000 C   0  0  0  0  0  0  0  0  0  0  0  0
   -1.4380   -3.3493    0.0000 C   0  0  0  0  0  0  0  0  0  0  0  0
   -0.1679   -2.5512    0.0000 C   0  0  0  0  0  0  0  0  0  0  0  0
   -0.0000   -1.0607    0.0000 C   0  0  0  0  0  0  0  0  0  0  0  0
    1.3515   -1.7115    0.0000 C   0  0  0  0  0  0  0  0  0  0  0  0
    1.0607    0.0000    0.0000 C   0  0  0  0  0  0  0  0  0  0  0  0
    2.1213    1.0607    0.0000 O   0  0  0  0  0  0  0  0  0  0  0  0
    3.5702    0.6724    0.0000 C   0  0  0  0  0  0  0  0  0  0  0  0
    0.0000    1.0607    0.0000 C   0  0  0  0  0  0  0  0  0  0  0  0
   -1.0607    0.0000    0.0000 C   0  0  0  0  0  0  0  0  0  0  0  0
  -12.4620    3.3000    0.0000 H   0  0  0  0  0  0  0  0  0  0  0  0
  -10.5508    4.2204    0.0000 H   0  0  0  0  0  0  0  0  0  0  0  0
  -11.5416    1.3887    0.0000 H   0  0  0  0  0  0  0  0  0  0  0  0
   -9.1349    3.7250    0.0000 H   0  0  0  0  0  0  0  0  0  0  0  0
  -10.1258    0.8933    0.0000 H   0  0  0  0  0  0  0  0  0  0  0  0
   -8.7099    0.3979    0.0000 H   0  0  0  0  0  0  0  0  0  0  0  0
   -7.7191    3.2296    0.0000 H   0  0  0  0  0  0  0  0  0  0  0  0
   -6.3033    2.7341    0.0000 H   0  0  0  0  0  0  0  0  0  0  0  0
   -7.2941   -0.0975    0.0000 H   0  0  0  0  0  0  0  0  0  0  0  0
   -5.8783   -0.5929    0.0000 H   0  0  0  0  0  0  0  0  0  0  0  0
   -4.8875    2.2387    0.0000 H   0  0  0  0  0  0  0  0  0  0  0  0
   -4.4046   -0.3389    0.0000 H   0  0  0  0  0  0  0  0  0  0  0  0
   -3.4716    1.7433    0.0000 H   0  0  0  0  0  0  0  0  0  0  0  0
   -2.3833    1.3226    0.0000 H   0  0  0  0  0  0  0  0  0  0  0  0
   -4.7747   -1.9050    0.0000 H   0  0  0  0  0  0  0  0  0  0  0  0
   -3.9775   -0.9473    0.0000 H   0  0  0  0  0  0  0  0  0  0  0  0
   -4.3539   -4.3539    0.0000 H   0  0  0  0  0  0  0  0  0  0  0  0
   -4.5367   -1.3650    0.0000 H   0  0  0  0  0  0  0  0  0  0  0  0
   -6.6039   -1.5548    0.0000 H   0  0  0  0  0  0  0  0  0  0  0  0
   -1.8556   -4.4078    0.0000 H   0  0  0  0  0  0  0  0  0  0  0  0
   -4.3401   -7.1013    0.0000 H   0  0  0  0  0  0  0  0  0  0  0  0
   -5.2605   -5.1901    0.0000 H   0  0  0  0  0  0  0  0  0  0  0  0
   -1.0130   -6.6763    0.0000 H   0  0  0  0  0  0  0  0  0  0  0  0
   -2.9243   -7.5968    0.0000 H   0  0  0  0  0  0  0  0  0  0  0  0
   -3.4271   -4.6270    0.0000 H   0  0  0  0  0  0  0  0  0  0  0  0
   -0.3880   -4.4205    0.0000 H   0  0  0  0  0  0  0  0  0  0  0  0
    1.3190   -2.7490    0.0000 H   0  0  0  0  0  0  0  0  0  0  0  0
    0.4964   -3.8961    0.0000 H   0  0  0  0  0  0  0  0  0  0  0  0
    2.7029   -2.3623    0.0000 H   0  0  0  0  0  0  0  0  0  0  0  0
    2.1622   -0.4494    0.0000 H   0  0  0  0  0  0  0  0  0  0  0  0
    0.7006   -3.0629    0.0000 H   0  0  0  0  0  0  0  0  0  0  0  0
    2.2427   -0.9235    0.0000 H   0  0  0  0  0  0  0  0  0  0  0  0
    5.0191    0.2842    0.0000 H   0  0  0  0  0  0  0  0  0  0  0  0
    3.9584    2.1213    0.0000 H   0  0  0  0  0  0  0  0  0  0  0  0
    3.1820   -0.7765    0.0000 H   0  0  0  0  0  0  0  0  0  0  0  0
    0.0000    2.5607    0.0000 H   0  0  0  0  0  0  0  0  0  0  0  0
  1  2  1  0
  2  3  1  0
  3  4  1  0
  4  5  1  0
  5  6  1  0
  6  7  1  0
  7  8  1  0
  8  9  1  0
  9 10  1  6
 10 11  1  0
  9 12  1  0
 12 13  1  0
 13 14  1  0
 14 15  1  0
 15 16  1  0
 16 17  1  0
 17 18  1  0
 18 19  1  1
 18 20  1  0
 20 21  1  0
 21 22  1  0
 20 23  1  0
 23 24  2  0
 24  7  1  0
 16  9  1  0
 24 18  1  0
 15 12  1  0
  1 25  1  0
  1 26  1  0
  1 27  1  0
  2 28  1  0
  2 29  1  0
  3 30  1  0
  3 31  1  0
  4 32  1  0
  4 33  1  0
  5 34  1  0
  5 35  1  0
  6 36  1  0
  6 37  1  0
  7 38  1  6
  8 39  1  0
  8 40  1  0
 10 41  1  0
 10 42  1  0
 11 43  1  0
 12 44  1  0
 13 45  1  0
 13 46  1  0
 14 47  1  0
 14 48  1  0
 15 49  1  6
 16 50  1  6
 17 51  1  0
 17 52  1  0
 19 53  1  0
 19 54  1  0
 19 55  1  0
 20 56  1  1
 22 57  1  0
 22 58  1  0
 22 59  1  0
 23 60  1  0
M  END
$$$$
[H]Oc1c([H])c([H])c2c(c1[H])-c1c(OC([H])([H])[H])c(OC([H])([H])[H])c([H])c([H])c1C([H])([H])c1c-2c([H])c([H])c2c([H])c([H])c(C([H])([H])O[H])c([H])c12
     RDKit          3D

 52 56  0  0  0  0  0  0  0  0999 V2000
   -4.8413    3.5052   -0.2696 C   0  0  0  0  0  0  0  0  0  0  0  0
   -4.4780    2.1407   -0.1656 O   0  0  0  0  0  0  0  0  0  0  0  0
   -3.2052    1.7362   -0.5115 C   0  0  0  0  0  0  0  0  0  0  0  0
   -2.2423    2.6184   -0.9660 C   0  0  0  0  0  0  0  0  0  0  0  0
   -0.9643    2.1457   -1.3008 C   0  0  0  0  0  0  0  0  0  0  0  0
   -0.6713    0.8200   -1.1818 C   0  0  0  0  0  0  0  0  0  0  0  0
    0.7721    0.5770   -1.4953 C   0  0  0  0  0  0  0  0  0  0  0  0
    1.3934   -0.3805   -0.5518 C   0  0  0  0  0  0  0  0  0  0  0  0
    0.9096   -1.5220    0.0785 C   0  0  0  0  0  0  0  0  0  0  0  0
    1.5712   -2.2773    0.9972 C   0  0  0  0  0  0  0  0  0  0  0  0
    2.8552   -1.8574    1.3221 C   0  0  0  0  0  0  0  0  0  0  0  0
    3.3956   -0.7360    0.7288 C   0  0  0  0  0  0  0  0  0  0  0  0
    4.6785   -0.4183    1.1046 C   0  0  0  0  0  0  0  0  0  0  0  0
    5.3053    0.6657    0.5547 C   0  0  0  0  0  0  0  0  0  0  0  0
    4.6352    1.4212   -0.3701 C   0  0  0  0  0  0  0  0  0  0  0  0
    5.2756    2.6056   -0.9939 C   0  0  0  0  0  0  0  0  0  0  0  0
    6.5563    2.7692   -0.4977 O   0  0  0  0  0  0  0  0  0  0  0  0
    3.3387    1.0820   -0.7349 C   0  0  0  0  0  0  0  0  0  0  0  0
    2.6644    0.0078   -0.2131 C   0  0  0  0  0  0  0  0  0  0  0  0
   -0.3676   -2.1262   -0.2378 C   0  0  0  0  0  0  0  0  0  0  0  0
   -0.3579   -3.4966   -0.1945 C   0  0  0  0  0  0  0  0  0  0  0  0
   -1.5096   -4.1798   -0.5660 C   0  0  0  0  0  0  0  0  0  0  0  0
   -2.6582   -3.4961   -0.9806 C   0  0  0  0  0  0  0  0  0  0  0  0
   -3.7901   -4.1749   -1.3469 O   0  0  0  0  0  0  0  0  0  0  0  0
   -2.6609   -2.1143   -1.0247 C   0  0  0  0  0  0  0  0  0  0  0  0
   -1.5279   -1.4558   -0.6519 C   0  0  0  0  0  0  0  0  0  0  0  0
   -1.6823   -0.0255   -0.7244 C   0  0  0  0  0  0  0  0  0  0  0  0
   -2.9304    0.3647   -0.3777 C   0  0  0  0  0  0  0  0  0  0  0  0
   -3.8829   -0.4947    0.0910 O   0  0  0  0  0  0  0  0  0  0  0  0
   -4.0752   -0.7534    1.4854 C   0  0  0  0  0  0  0  0  0  0  0  0
   -4.0833    4.1700    0.1569 H   0  0  0  0  0  0  0  0  0  0  0  0
   -5.7862    3.7043    0.3078 H   0  0  0  0  0  0  0  0  0  0  0  0
   -4.9621    3.7457   -1.3460 H   0  0  0  0  0  0  0  0  0  0  0  0
   -2.4646    3.6809   -1.0680 H   0  0  0  0  0  0  0  0  0  0  0  0
   -0.2636    2.9051   -1.6481 H   0  0  0  0  0  0  0  0  0  0  0  0
    0.8114    0.1961   -2.5220 H   0  0  0  0  0  0  0  0  0  0  0  0
    1.2275    1.5660   -1.3221 H   0  0  0  0  0  0  0  0  0  0  0  0
    1.0909   -3.1108    1.4430 H   0  0  0  0  0  0  0  0  0  0  0  0
    3.3953   -2.4529    2.0555 H   0  0  0  0  0  0  0  0  0  0  0  0
    5.2046   -1.0219    1.8382 H   0  0  0  0  0  0  0  0  0  0  0  0
    6.3120    0.9097    0.8545 H   0  0  0  0  0  0  0  0  0  0  0  0
    4.6893    3.5239   -0.8024 H   0  0  0  0  0  0  0  0  0  0  0  0
    5.3215    2.3923   -2.0928 H   0  0  0  0  0  0  0  0  0  0  0  0
    6.5144    3.0200    0.4530 H   0  0  0  0  0  0  0  0  0  0  0  0
    2.8961    1.6981   -1.4730 H   0  0  0  0  0  0  0  0  0  0  0  0
    0.5446   -3.9953    0.0905 H   0  0  0  0  0  0  0  0  0  0  0  0
   -1.5005   -5.2562   -0.5282 H   0  0  0  0  0  0  0  0  0  0  0  0
   -4.4943   -4.4002   -0.6497 H   0  0  0  0  0  0  0  0  0  0  0  0
   -3.4856   -1.5924   -1.4136 H   0  0  0  0  0  0  0  0  0  0  0  0
   -4.9046   -0.1424    1.8882 H   0  0  0  0  0  0  0  0  0  0  0  0
   -4.4316   -1.8064    1.5447 H   0  0  0  0  0  0  0  0  0  0  0  0
   -3.1371   -0.6839    2.0320 H   0  0  0  0  0  0  0  0  0  0  0  0
  1  2  1  0
  2  3  1  0
  3  4  2  0
  4  5  1  0
  5  6  2  0
  6  7  1  0
  7  8  1  0
  8  9  2  0
  9 10  1  0
 10 11  2  0
 11 12  1  0
 12 13  2  0
 13 14  1  0
 14 15  2  0
 15 16  1  0
 16 17  1  0
 15 18  1  0
 18 19  2  0
  9 20  1  0
 20 21  2  0
 21 22  1  0
 22 23  2  0
 23 24  1  0
 23 25  1  0
 25 26  2  0
 26 27  1  0
 27 28  2  0
 28 29  1  0
 29 30  1  0
 28  3  1  0
 27  6  1  0
 19  8  1  0
 26 20  1  0
 19 12  1  0
  1 31  1  0
  1 32  1  0
  1 33  1  0
  4 34  1  0
  5 35  1  0
  7 36  1  0
  7 37  1  0
 10 38  1  0
 11 39  1  0
 13 40  1  0
 14 41  1  0
 16 42  1  0
 16 43  1  0
 17 44  1  0
 18 45  1  0
 21 46  1  0
 22 47  1  0
 24 48  1  0
 25 49  1  0
 30 50  1  0
 30 51  1  0
 30 52  1  0
M  END
$$$$
