[H]Oc1c([H])c([H])c(N2c3c([H])c([H])c([H])c([H])c3C([H])([H])C(=O)C23C([H])([H])C([H])([H])C([H])(C([H])([H])C([H])([H])C([H])([H])[H])C3([H])[H])c([H])c1[H]
     RDKit          3D

 50 53  0  0  0  0  0  0  0  0999 V2000
    4.8990    1.7651    0.5561 C   0  0  0  0  0  0  0  0  0  0  0  0
    4.6589    1.1265   -0.7772 C   0  0  0  0  0  0  0  0  0  0  0  0
    3.2453    0.9033   -1.1429 C   0  0  0  0  0  0  0  0  0  0  0  0
    2.4701   -0.0250   -0.2910 C   0  0  0  0  0  0  0  0  0  0  0  0
    2.2982    0.2900    1.1419 C   0  0  0  0  0  0  0  0  0  0  0  0
    0.8853   -0.1993    1.5217 C   0  0  0  0  0  0  0  0  0  0  0  0
    0.2725   -0.7115    0.2457 C   0  0  0  0  0  0  0  0  0  0  0  0
    1.0798   -0.2065   -0.8981 C   0  0  0  0  0  0  0  0  0  0  0  0
   -1.1372   -0.4219    0.1148 N   0  0  0  0  0  0  0  0  0  0  0  0
   -2.0547   -1.4560    0.5516 C   0  0  0  0  0  0  0  0  0  0  0  0
   -3.2292   -1.1250    1.1948 C   0  0  0  0  0  0  0  0  0  0  0  0
   -4.0864   -2.1395    1.6096 C   0  0  0  0  0  0  0  0  0  0  0  0
   -3.7800   -3.4769    1.3873 C   0  0  0  0  0  0  0  0  0  0  0  0
   -2.5939   -3.8284    0.7370 C   0  0  0  0  0  0  0  0  0  0  0  0
   -1.7737   -2.8076    0.3423 C   0  0  0  0  0  0  0  0  0  0  0  0
   -0.4994   -3.0925   -0.3524 C   0  0  0  0  0  0  0  0  0  0  0  0
    0.5071   -2.2062    0.2734 C   0  0  0  0  0  0  0  0  0  0  0  0
    1.4819   -2.7118    0.7848 O   0  0  0  0  0  0  0  0  0  0  0  0
   -1.7210    0.7675   -0.3680 C   0  0  0  0  0  0  0  0  0  0  0  0
   -1.1108    1.9876   -0.1769 C   0  0  0  0  0  0  0  0  0  0  0  0
   -1.7005    3.1537   -0.6790 C   0  0  0  0  0  0  0  0  0  0  0  0
   -2.8911    3.1356   -1.3719 C   0  0  0  0  0  0  0  0  0  0  0  0
   -3.4778    4.2936   -1.8709 O   0  0  0  0  0  0  0  0  0  0  0  0
   -3.5134    1.9132   -1.5703 C   0  0  0  0  0  0  0  0  0  0  0  0
   -2.9306    0.7770   -1.0762 C   0  0  0  0  0  0  0  0  0  0  0  0
    4.8497    1.0597    1.3914 H   0  0  0  0  0  0  0  0  0  0  0  0
    4.2140    2.6323    0.7382 H   0  0  0  0  0  0  0  0  0  0  0  0
    5.9213    2.2420    0.5989 H   0  0  0  0  0  0  0  0  0  0  0  0
    5.2025    1.7505   -1.5495 H   0  0  0  0  0  0  0  0  0  0  0  0
    5.2355    0.1455   -0.8106 H   0  0  0  0  0  0  0  0  0  0  0  0
    3.1673    0.4860   -2.2012 H   0  0  0  0  0  0  0  0  0  0  0  0
    2.6720    1.8755   -1.2477 H   0  0  0  0  0  0  0  0  0  0  0  0
    2.9768   -1.0441   -0.4060 H   0  0  0  0  0  0  0  0  0  0  0  0
    3.0506   -0.3343    1.7170 H   0  0  0  0  0  0  0  0  0  0  0  0
    2.4266    1.3245    1.4547 H   0  0  0  0  0  0  0  0  0  0  0  0
    0.3103    0.5391    2.0703 H   0  0  0  0  0  0  0  0  0  0  0  0
    1.0424   -1.0407    2.2650 H   0  0  0  0  0  0  0  0  0  0  0  0
    0.7349    0.6865   -1.4067 H   0  0  0  0  0  0  0  0  0  0  0  0
    1.1904   -1.0204   -1.6820 H   0  0  0  0  0  0  0  0  0  0  0  0
   -3.4673   -0.0655    1.3678 H   0  0  0  0  0  0  0  0  0  0  0  0
   -5.0007   -1.8559    2.1115 H   0  0  0  0  0  0  0  0  0  0  0  0
   -4.4197   -4.2705    1.6953 H   0  0  0  0  0  0  0  0  0  0  0  0
   -2.3856   -4.8678    0.5802 H   0  0  0  0  0  0  0  0  0  0  0  0
   -0.2127   -4.1583   -0.2907 H   0  0  0  0  0  0  0  0  0  0  0  0
   -0.5675   -2.8447   -1.4423 H   0  0  0  0  0  0  0  0  0  0  0  0
   -0.1752    2.0346    0.3568 H   0  0  0  0  0  0  0  0  0  0  0  0
   -1.1855    4.0996   -0.5061 H   0  0  0  0  0  0  0  0  0  0  0  0
   -3.0051    5.1820   -1.7149 H   0  0  0  0  0  0  0  0  0  0  0  0
   -4.4477    1.8992   -2.1142 H   0  0  0  0  0  0  0  0  0  0  0  0
   -3.4254   -0.1600   -1.2467 H   0  0  0  0  0  0  0  0  0  0  0  0
  1  2  1  0
  2  3  1  0
  3  4  1  0
  4  5  1  0
  5  6  1  0
  6  7  1  0
  7  8  1  0
  7  9  1  0
  9 10  1  0
 10 11  2  0
 11 12  1  0
 12 13  2  0
 13 14  1  0
 14 15  2  0
 15 16  1  0
 16 17  1  0
 17 18  2  0
  9 19  1  0
 19 20  2  0
 20 21  1  0
 21 22  2  0
 22 23  1  0
 22 24  1  0
 24 25  2  0
  8  4  1  0
 15 10  1  0
 25 19  1  0
 17  7  1  0
  1 26  1  0
  1 27  1  0
  1 28  1  0
  2 29  1  0
  2 30  1  0
  3 31  1  0
  3 32  1  0
  4 33  1  0
  5 34  1  0
  5 35  1  0
  6 36  1  0
  6 37  1  0
  8 38  1  0
  8 39  1  0
 11 40  1  0
 12 41  1  0
 13 42  1  0
 14 43  1  0
 16 44  1  0
 16 45  1  0
 20 46  1  0
 21 47  1  0
 23 48  1  0
 24 49  1  0
 25 50  1  0
M  END
$$$$
[H]OC(=O)c1c([H])c([H])c2c(c1[H])C([H])(c1c([H])c([H])c([H])c(C([H])(C([H])([H])[H])C([H])([H])C([H])([H])[H])c1[H])C(=O)N2[H]
     RDKit          3D

 42 44  0  0  0  0  0  0  0  0999 V2000
   -4.2255    2.5528    0.7611 C   0  0  0  0  0  0  0  0  0  0  0  0
   -3.2176    1.8489   -0.1257 C   0  0  0  0  0  0  0  0  0  0  0  0
   -3.0501    0.4384    0.3985 C   0  0  0  0  0  0  0  0  0  0  0  0
   -4.3816   -0.2553    0.3454 C   0  0  0  0  0  0  0  0  0  0  0  0
   -2.0283   -0.3078   -0.3798 C   0  0  0  0  0  0  0  0  0  0  0  0
   -2.1779   -0.5513   -1.7290 C   0  0  0  0  0  0  0  0  0  0  0  0
   -1.2280   -1.2489   -2.4692 C   0  0  0  0  0  0  0  0  0  0  0  0
   -0.0906   -1.7088   -1.7986 C   0  0  0  0  0  0  0  0  0  0  0  0
    0.0871   -1.4811   -0.4518 C   0  0  0  0  0  0  0  0  0  0  0  0
   -0.8743   -0.7908    0.2324 C   0  0  0  0  0  0  0  0  0  0  0  0
    1.3091   -1.9863    0.2222 C   0  0  0  0  0  0  0  0  0  0  0  0
    1.0881   -2.2927    1.6403 C   0  0  0  0  0  0  0  0  0  0  0  0
    0.2392   -3.0771    2.1630 O   0  0  0  0  0  0  0  0  0  0  0  0
    2.0140   -1.5432    2.4000 N   0  0  0  0  0  0  0  0  0  0  0  0
    2.8036   -0.7801    1.4922 C   0  0  0  0  0  0  0  0  0  0  0  0
    3.8473    0.1074    1.8140 C   0  0  0  0  0  0  0  0  0  0  0  0
    4.4969    0.7573    0.7904 C   0  0  0  0  0  0  0  0  0  0  0  0
    4.1018    0.5151   -0.5081 C   0  0  0  0  0  0  0  0  0  0  0  0
    3.0831   -0.3517   -0.8143 C   0  0  0  0  0  0  0  0  0  0  0  0
    2.4115   -1.0203    0.2016 C   0  0  0  0  0  0  0  0  0  0  0  0
    4.7832    1.1975   -1.5894 C   0  0  0  0  0  0  0  0  0  0  0  0
    5.8102    2.0727   -1.2979 O   0  0  0  0  0  0  0  0  0  0  0  0
    4.4399    0.9911   -2.7683 O   0  0  0  0  0  0  0  0  0  0  0  0
   -4.2826    2.0850    1.7746 H   0  0  0  0  0  0  0  0  0  0  0  0
   -5.2398    2.5625    0.3408 H   0  0  0  0  0  0  0  0  0  0  0  0
   -3.9199    3.6187    0.9494 H   0  0  0  0  0  0  0  0  0  0  0  0
   -3.6658    1.7809   -1.1451 H   0  0  0  0  0  0  0  0  0  0  0  0
   -2.2797    2.4233   -0.1169 H   0  0  0  0  0  0  0  0  0  0  0  0
   -2.7244    0.5118    1.4471 H   0  0  0  0  0  0  0  0  0  0  0  0
   -5.0408    0.2554    1.0937 H   0  0  0  0  0  0  0  0  0  0  0  0
   -4.3140   -1.3206    0.6317 H   0  0  0  0  0  0  0  0  0  0  0  0
   -4.8614   -0.1080   -0.6428 H   0  0  0  0  0  0  0  0  0  0  0  0
   -3.0532   -0.1975   -2.2453 H   0  0  0  0  0  0  0  0  0  0  0  0
   -1.3771   -1.4221   -3.5252 H   0  0  0  0  0  0  0  0  0  0  0  0
    0.6466   -2.2493   -2.3692 H   0  0  0  0  0  0  0  0  0  0  0  0
   -0.7202   -0.6207    1.2872 H   0  0  0  0  0  0  0  0  0  0  0  0
    1.6573   -2.9340   -0.2546 H   0  0  0  0  0  0  0  0  0  0  0  0
    2.1130   -1.5410    3.4592 H   0  0  0  0  0  0  0  0  0  0  0  0
    4.1564    0.2983    2.8125 H   0  0  0  0  0  0  0  0  0  0  0  0
    5.3048    1.4509    0.9560 H   0  0  0  0  0  0  0  0  0  0  0  0
    2.7707   -0.5444   -1.8265 H   0  0  0  0  0  0  0  0  0  0  0  0
    5.5887    2.8652   -0.6870 H   0  0  0  0  0  0  0  0  0  0  0  0
  1  2  1  0
  2  3  1  0
  3  4  1  0
  3  5  1  0
  5  6  2  0
  6  7  1  0
  7  8  2  0
  8  9  1  0
  9 10  2  0
  9 11  1  0
 11 12  1  0
 12 13  2  0
 12 14  1  0
 14 15  1  0
 15 16  2  0
 16 17  1  0
 17 18  2  0
 18 19  1  0
 19 20  2  0
 18 21  1  0
 21 22  1  0
 21 23  2  0
 10  5  1  0
 20 11  1  0
 20 15  1  0
  1 24  1  0
  1 25  1  0
  1 26  1  0
  2 27  1  0
  2 28  1  0
  3 29  1  0
  4 30  1  0
  4 31  1  0
  4 32  1  0
  6 33  1  0
  7 34  1  0
  8 35  1  0
 10 36  1  0
 11 37  1  0
 14 38  1  0
 16 39  1  0
 17 40  1  0
 19 41  1  0
 22 42  1  0
M  END
$$$$
[H]Oc1c([H])c([H])c(N2C([H])([H])C([H])([H])N(S(=O)(=O)c3c([H])c([H])c(C#N)c([H])c3[H])C([H])(C(C([H])([H])[H])(C([H])([H])[H])C([H])([H])C([H])([H])[H])C2([H])[H])c([H])c1[H]
     RDKit          3D

 56 58  0  0  0  0  0  0  0  0999 V2000
    1.6887   -4.2265    1.5544 C   0  0  0  0  0  0  0  0  0  0  0  0
    1.1037   -2.8375    1.4425 C   0  0  0  0  0  0  0  0  0  0  0  0
    0.2115   -2.8096    0.1965 C   0  0  0  0  0  0  0  0  0  0  0  0
    1.0536   -3.1277   -0.9870 C   0  0  0  0  0  0  0  0  0  0  0  0
   -0.8843   -3.8239    0.4228 C   0  0  0  0  0  0  0  0  0  0  0  0
   -0.3634   -1.3915    0.0395 C   0  0  0  0  0  0  0  0  0  0  0  0
    0.7960   -0.4779   -0.1164 C   0  0  0  0  0  0  0  0  0  0  0  0
    0.7338    0.4861   -1.1713 N   0  0  0  0  0  0  0  0  0  0  0  0
   -0.1830    0.4161   -2.2393 C   0  0  0  0  0  0  0  0  0  0  0  0
   -1.0935   -0.7679   -2.1895 C   0  0  0  0  0  0  0  0  0  0  0  0
   -1.3946   -1.2909   -0.9168 N   0  0  0  0  0  0  0  0  0  0  0  0
   -2.9128   -0.7927   -0.3054 S   0  0  0  0  0  0  0  0  0  0  0  0
   -3.3730   -1.8303    0.7027 O   0  0  0  0  0  0  0  0  0  0  0  0
   -3.9348   -0.8002   -1.4393 O   0  0  0  0  0  0  0  0  0  0  0  0
   -2.8991    0.7983    0.4166 C   0  0  0  0  0  0  0  0  0  0  0  0
   -3.1722    1.9546   -0.2815 C   0  0  0  0  0  0  0  0  0  0  0  0
   -3.1618    3.2025    0.3029 C   0  0  0  0  0  0  0  0  0  0  0  0
   -2.8705    3.3483    1.6423 C   0  0  0  0  0  0  0  0  0  0  0  0
   -2.5947    2.2022    2.3573 C   0  0  0  0  0  0  0  0  0  0  0  0
   -2.6069    0.9465    1.7619 C   0  0  0  0  0  0  0  0  0  0  0  0
   -2.8556    4.6546    2.2714 C   0  0  0  0  0  0  0  0  0  0  0  0
   -2.8294    5.7029    2.7607 N   0  0  0  0  0  0  0  0  0  0  0  0
    1.6959    1.5693   -1.0897 C   0  0  0  0  0  0  0  0  0  0  0  0
    1.6570    2.5993   -2.0064 C   0  0  0  0  0  0  0  0  0  0  0  0
    2.5807    3.6244   -1.9244 C   0  0  0  0  0  0  0  0  0  0  0  0
    3.5509    3.6500   -0.9439 C   0  0  0  0  0  0  0  0  0  0  0  0
    4.4797    4.6791   -0.8600 O   0  0  0  0  0  0  0  0  0  0  0  0
    3.5909    2.6301   -0.0347 C   0  0  0  0  0  0  0  0  0  0  0  0
    2.6520    1.5946   -0.1237 C   0  0  0  0  0  0  0  0  0  0  0  0
    1.2500   -4.7999    2.4188 H   0  0  0  0  0  0  0  0  0  0  0  0
    1.5406   -4.8508    0.6568 H   0  0  0  0  0  0  0  0  0  0  0  0
    2.7862   -4.1875    1.7846 H   0  0  0  0  0  0  0  0  0  0  0  0
    0.4519   -2.6954    2.3364 H   0  0  0  0  0  0  0  0  0  0  0  0
    1.9330   -2.1353    1.3967 H   0  0  0  0  0  0  0  0  0  0  0  0
    1.1880   -2.3493   -1.7316 H   0  0  0  0  0  0  0  0  0  0  0  0
    2.0973   -3.4378   -0.6889 H   0  0  0  0  0  0  0  0  0  0  0  0
    0.5646   -3.9886   -1.5270 H   0  0  0  0  0  0  0  0  0  0  0  0
   -1.5672   -3.7626   -0.4354 H   0  0  0  0  0  0  0  0  0  0  0  0
   -0.4710   -4.8743    0.3755 H   0  0  0  0  0  0  0  0  0  0  0  0
   -1.3395   -3.7499    1.4141 H   0  0  0  0  0  0  0  0  0  0  0  0
   -0.8343   -1.1777    1.0541 H   0  0  0  0  0  0  0  0  0  0  0  0
    0.9162    0.0663    0.8805 H   0  0  0  0  0  0  0  0  0  0  0  0
    1.7608   -1.0471   -0.3096 H   0  0  0  0  0  0  0  0  0  0  0  0
   -0.8062    1.3416   -2.2063 H   0  0  0  0  0  0  0  0  0  0  0  0
    0.3108    0.4025   -3.2501 H   0  0  0  0  0  0  0  0  0  0  0  0
   -0.7369   -1.5897   -2.8759 H   0  0  0  0  0  0  0  0  0  0  0  0
   -2.1049   -0.4911   -2.6556 H   0  0  0  0  0  0  0  0  0  0  0  0
   -3.4013    1.8152   -1.3461 H   0  0  0  0  0  0  0  0  0  0  0  0
   -3.3830    4.0944   -0.2818 H   0  0  0  0  0  0  0  0  0  0  0  0
   -2.3647    2.3119    3.4120 H   0  0  0  0  0  0  0  0  0  0  0  0
   -2.3870    0.0698    2.3601 H   0  0  0  0  0  0  0  0  0  0  0  0
    0.9095    2.5989   -2.7781 H   0  0  0  0  0  0  0  0  0  0  0  0
    2.5416    4.4411   -2.6601 H   0  0  0  0  0  0  0  0  0  0  0  0
    5.3765    4.6590   -1.3344 H   0  0  0  0  0  0  0  0  0  0  0  0
    4.3414    2.6261    0.7443 H   0  0  0  0  0  0  0  0  0  0  0  0
    2.7630    0.8279    0.6392 H   0  0  0  0  0  0  0  0  0  0  0  0
  1  2  1  0
  2  3  1  0
  3  4  1  0
  3  5  1  0
  3  6  1  0
  6  7  1  0
  7  8  1  0
  8  9  1  0
  9 10  1  0
 10 11  1  0
 11 12  1  0
 12 13  2  0
 12 14  2  0
 12 15  1  0
 15 16  2  0
 16 17  1  0
 17 18  2  0
 18 19  1  0
 19 20  2  0
 18 21  1  0
 21 22  3  0
  8 23  1  0
 23 24  2  0
 24 25  1  0
 25 26  2  0
 26 27  1  0
 26 28  1  0
 28 29  2  0
 11  6  1  0
 20 15  1  0
 29 23  1  0
  1 30  1  0
  1 31  1  0
  1 32  1  0
  2 33  1  0
  2 34  1  0
  4 35  1  0
  4 36  1  0
  4 37  1  0
  5 38  1  0
  5 39  1  0
  5 40  1  0
  6 41  1  0
  7 42  1  0
  7 43  1  0
  9 44  1  0
  9 45  1  0
 10 46  1  0
 10 47  1  0
 16 48  1  0
 17 49  1  0
 19 50  1  0
 20 51  1  0
 24 52  1  0
 25 53  1  0
 27 54  1  0
 28 55  1  0
 29 56  1  0
M  END
$$$$
[H]Oc1c([H])c(C([H])([H])C([H])([H])C([H])([H])[H])c([H])c2oc(-c3nc(C4(C([H])([H])[H])C([H])([H])C5([H])C([H])([H])C([H])(C5([H])[H])C4([H])[H])sc3[H])c([H])c(=O)c12
     RDKit          3D

 53 57  0  0  0  0  0  0  0  0999 V2000
   -7.0492    1.5817   -0.6036 C   0  0  0  0  0  0  0  0  0  0  0  0
   -6.8989    1.2668    0.8390 C   0  0  0  0  0  0  0  0  0  0  0  0
   -6.5284   -0.1255    1.1551 C   0  0  0  0  0  0  0  0  0  0  0  0
   -5.2785   -0.6437    0.6054 C   0  0  0  0  0  0  0  0  0  0  0  0
   -5.2172   -2.0148    0.3186 C   0  0  0  0  0  0  0  0  0  0  0  0
   -4.0673   -2.5583   -0.1589 C   0  0  0  0  0  0  0  0  0  0  0  0
   -3.9228   -3.9182   -0.4628 O   0  0  0  0  0  0  0  0  0  0  0  0
   -2.9839   -1.7397   -0.3551 C   0  0  0  0  0  0  0  0  0  0  0  0
   -2.9883   -0.3887   -0.0972 C   0  0  0  0  0  0  0  0  0  0  0  0
   -4.1669    0.1513    0.3913 C   0  0  0  0  0  0  0  0  0  0  0  0
   -1.9230    0.3929   -0.2864 O   0  0  0  0  0  0  0  0  0  0  0  0
   -0.8042   -0.0852   -0.7213 C   0  0  0  0  0  0  0  0  0  0  0  0
   -0.7462   -1.4542   -0.9922 C   0  0  0  0  0  0  0  0  0  0  0  0
   -1.8011   -2.3075   -0.8255 C   0  0  0  0  0  0  0  0  0  0  0  0
   -1.7392   -3.5441   -1.0749 O   0  0  0  0  0  0  0  0  0  0  0  0
    0.4317    0.7305   -0.9512 C   0  0  0  0  0  0  0  0  0  0  0  0
    0.4917    2.0606   -1.2494 C   0  0  0  0  0  0  0  0  0  0  0  0
    2.1779    2.3684   -1.1310 S   0  0  0  0  0  0  0  0  0  0  0  0
    2.7145    0.8078   -0.7116 C   0  0  0  0  0  0  0  0  0  0  0  0
    1.5757    0.1471   -0.6908 N   0  0  0  0  0  0  0  0  0  0  0  0
    4.0673    0.2517   -0.3553 C   0  0  0  0  0  0  0  0  0  0  0  0
    3.7620   -1.1264    0.2617 C   0  0  0  0  0  0  0  0  0  0  0  0
    4.6034    1.1447    0.7407 C   0  0  0  0  0  0  0  0  0  0  0  0
    6.0978    1.2197    0.7038 C   0  0  0  0  0  0  0  0  0  0  0  0
    6.7486   -0.0894    0.2802 C   0  0  0  0  0  0  0  0  0  0  0  0
    6.4163    0.2846   -1.1323 C   0  0  0  0  0  0  0  0  0  0  0  0
    4.9632    0.0399   -1.5019 C   0  0  0  0  0  0  0  0  0  0  0  0
    6.4687    1.7502   -0.6837 C   0  0  0  0  0  0  0  0  0  0  0  0
   -7.0453    0.6971   -1.2496 H   0  0  0  0  0  0  0  0  0  0  0  0
   -8.0182    2.1532   -0.7531 H   0  0  0  0  0  0  0  0  0  0  0  0
   -6.2773    2.3293   -0.9327 H   0  0  0  0  0  0  0  0  0  0  0  0
   -7.8756    1.4679    1.3958 H   0  0  0  0  0  0  0  0  0  0  0  0
   -6.1718    1.9482    1.3596 H   0  0  0  0  0  0  0  0  0  0  0  0
   -7.3540   -0.8578    0.8526 H   0  0  0  0  0  0  0  0  0  0  0  0
   -6.4778   -0.3047    2.2737 H   0  0  0  0  0  0  0  0  0  0  0  0
   -6.0784   -2.6291    0.4811 H   0  0  0  0  0  0  0  0  0  0  0  0
   -4.7328   -4.4771   -0.2804 H   0  0  0  0  0  0  0  0  0  0  0  0
   -4.1815    1.2094    0.5923 H   0  0  0  0  0  0  0  0  0  0  0  0
    0.2073   -1.8632   -1.3536 H   0  0  0  0  0  0  0  0  0  0  0  0
   -0.3370    2.7423   -1.5075 H   0  0  0  0  0  0  0  0  0  0  0  0
    3.9007   -1.0892    1.3435 H   0  0  0  0  0  0  0  0  0  0  0  0
    4.3545   -1.9309   -0.2106 H   0  0  0  0  0  0  0  0  0  0  0  0
    2.7001   -1.4258    0.1006 H   0  0  0  0  0  0  0  0  0  0  0  0
    4.1795    2.1660    0.6458 H   0  0  0  0  0  0  0  0  0  0  0  0
    4.2017    0.7451    1.7079 H   0  0  0  0  0  0  0  0  0  0  0  0
    6.5605    1.7370    1.5532 H   0  0  0  0  0  0  0  0  0  0  0  0
    7.8465   -0.0013    0.4378 H   0  0  0  0  0  0  0  0  0  0  0  0
    6.3453   -1.0047    0.7020 H   0  0  0  0  0  0  0  0  0  0  0  0
    7.1142   -0.0113   -1.9055 H   0  0  0  0  0  0  0  0  0  0  0  0
    4.8639   -1.0191   -1.8834 H   0  0  0  0  0  0  0  0  0  0  0  0
    4.7116    0.7051   -2.3448 H   0  0  0  0  0  0  0  0  0  0  0  0
    5.6699    2.3686   -1.1453 H   0  0  0  0  0  0  0  0  0  0  0  0
    7.4903    2.1428   -0.7196 H   0  0  0  0  0  0  0  0  0  0  0  0
  1  2  1  0
  2  3  1  0
  3  4  1  0
  4  5  2  0
  5  6  1  0
  6  7  1  0
  6  8  2  0
  8  9  1  0
  9 10  2  0
  9 11  1  0
 11 12  1  0
 12 13  2  0
 13 14  1  0
 14 15  2  0
 12 16  1  0
 16 17  2  0
 17 18  1  0
 18 19  1  0
 19 20  2  0
 19 21  1  0
 21 22  1  0
 21 23  1  0
 23 24  1  0
 24 25  1  0
 25 26  1  0
 26 27  1  0
 26 28  1  0
 10  4  1  0
 20 16  1  0
 27 21  1  0
 14  8  1  0
 28 24  1  0
  1 29  1  0
  1 30  1  0
  1 31  1  0
  2 32  1  0
  2 33  1  0
  3 34  1  0
  3 35  1  0
  5 36  1  0
  7 37  1  0
 10 38  1  0
 13 39  1  0
 17 40  1  0
 22 41  1  0
 22 42  1  0
 22 43  1  0
 23 44  1  0
 23 45  1  0
 24 46  1  0
 25 47  1  0
 25 48  1  0
 26 49  1  0
 27 50  1  0
 27 51  1  0
 28 52  1  0
 28 53  1  0
M  END
$$$$
[H]Oc1c([H])c([H])c2c(c1[H])C([H])([H])C([H])([H])[C@@]1([H])[C@]2([H])C([H])([H])[C@@]1([H])C([H])([H])[C@@]([H])(C([H])([H])[H])C([H])([H])C([H])([H])C([H])=C([H])[H]
     RDKit          3D

 46 48  0  0  0  0  0  0  0  0999 V2000
    2.4388    0.1097    1.3124 C   0  0  0  0  0  0  0  0  0  0  0  0
    2.5916    0.2745   -0.1452 C   0  0  2  0  0  0  0  0  0  0  0  0
    1.2953    0.5389   -0.8467 C   0  0  0  0  0  0  0  0  0  0  0  0
    0.2526   -0.4970   -0.7218 C   0  0  2  0  0  0  0  0  0  0  0  0
   -1.0241   -0.2221   -1.5402 C   0  0  0  0  0  0  0  0  0  0  0  0
   -1.7089   -1.0690   -0.4545 C   0  0  1  0  0  0  0  0  0  0  0  0
   -0.6669   -0.4504    0.4736 C   0  0  2  0  0  0  0  0  0  0  0  0
   -1.0503    0.9159    0.8820 C   0  0  0  0  0  0  0  0  0  0  0  0
   -2.4117    0.9904    1.5318 C   0  0  0  0  0  0  0  0  0  0  0  0
   -3.4135    0.2819    0.7298 C   0  0  0  0  0  0  0  0  0  0  0  0
   -4.7746    0.6097    0.9268 C   0  0  0  0  0  0  0  0  0  0  0  0
   -5.7325   -0.0400    0.2009 C   0  0  0  0  0  0  0  0  0  0  0  0
   -7.0712    0.2750    0.3874 O   0  0  0  0  0  0  0  0  0  0  0  0
   -5.4086   -1.0106   -0.7225 C   0  0  0  0  0  0  0  0  0  0  0  0
   -4.0888   -1.3308   -0.9161 C   0  0  0  0  0  0  0  0  0  0  0  0
   -3.0839   -0.6726   -0.1778 C   0  0  0  0  0  0  0  0  0  0  0  0
    3.2682   -0.9146   -0.8098 C   0  0  0  0  0  0  0  0  0  0  0  0
    4.6413   -1.1126   -0.2602 C   0  0  0  0  0  0  0  0  0  0  0  0
    5.4999    0.0731   -0.5097 C   0  0  0  0  0  0  0  0  0  0  0  0
    6.0931    0.7904    0.4243 C   0  0  0  0  0  0  0  0  0  0  0  0
    1.9265   -0.8397    1.5857 H   0  0  0  0  0  0  0  0  0  0  0  0
    1.9874    1.0098    1.7765 H   0  0  0  0  0  0  0  0  0  0  0  0
    3.4366    0.0195    1.8425 H   0  0  0  0  0  0  0  0  0  0  0  0
    3.2867    1.1418   -0.3622 H   0  0  0  0  0  0  0  0  0  0  0  0
    0.8887    1.4814   -0.3615 H   0  0  0  0  0  0  0  0  0  0  0  0
    1.4661    0.8694   -1.9080 H   0  0  0  0  0  0  0  0  0  0  0  0
    0.5610   -1.5390   -1.0036 H   0  0  0  0  0  0  0  0  0  0  0  0
   -1.3843    0.8023   -1.5512 H   0  0  0  0  0  0  0  0  0  0  0  0
   -1.0153   -0.7212   -2.5313 H   0  0  0  0  0  0  0  0  0  0  0  0
   -1.5007   -2.1307   -0.6031 H   0  0  0  0  0  0  0  0  0  0  0  0
   -0.3725   -1.1356    1.3014 H   0  0  0  0  0  0  0  0  0  0  0  0
   -1.0235    1.7042    0.1246 H   0  0  0  0  0  0  0  0  0  0  0  0
   -0.3471    1.2503    1.7086 H   0  0  0  0  0  0  0  0  0  0  0  0
   -2.3596    0.5599    2.5708 H   0  0  0  0  0  0  0  0  0  0  0  0
   -2.6646    2.0776    1.6215 H   0  0  0  0  0  0  0  0  0  0  0  0
   -4.9884    1.3771    1.6609 H   0  0  0  0  0  0  0  0  0  0  0  0
   -7.5567    0.9891   -0.1351 H   0  0  0  0  0  0  0  0  0  0  0  0
   -6.2147   -1.5059   -1.2827 H   0  0  0  0  0  0  0  0  0  0  0  0
   -3.8070   -2.0930   -1.6388 H   0  0  0  0  0  0  0  0  0  0  0  0
    2.6743   -1.8367   -0.7420 H   0  0  0  0  0  0  0  0  0  0  0  0
    3.3428   -0.6608   -1.8973 H   0  0  0  0  0  0  0  0  0  0  0  0
    4.5731   -1.3781    0.7977 H   0  0  0  0  0  0  0  0  0  0  0  0
    5.0966   -1.9777   -0.8141 H   0  0  0  0  0  0  0  0  0  0  0  0
    5.6503    0.3727   -1.5524 H   0  0  0  0  0  0  0  0  0  0  0  0
    5.9984    0.5651    1.4798 H   0  0  0  0  0  0  0  0  0  0  0  0
    6.7000    1.6376    0.1489 H   0  0  0  0  0  0  0  0  0  0  0  0
  1  2  1  0
  2  3  1  0
  3  4  1  0
  4  5  1  0
  5  6  1  0
  6  7  1  0
  7  8  1  0
  8  9  1  0
  9 10  1  0
 10 11  2  0
 11 12  1  0
 12 13  1  0
 12 14  2  0
 14 15  1  0
 15 16  2  0
  2 17  1  0
 17 18  1  0
 18 19  1  0
 19 20  2  3
  7  4  1  0
 16 10  1  0
 16  6  1  0
  1 21  1  0
  1 22  1  0
  1 23  1  0
  2 24  1  1
  3 25  1  0
  3 26  1  0
  4 27  1  6
  5 28  1  0
  5 29  1  0
  6 30  1  6
  7 31  1  1
  8 32  1  0
  8 33  1  0
  9 34  1  0
  9 35  1  0
 11 36  1  0
 13 37  1  0
 14 38  1  0
 15 39  1  0
 17 40  1  0
 17 41  1  0
 18 42  1  0
 18 43  1  0
 19 44  1  0
 20 45  1  0
 20 46  1  0
M  END
$$$$
[H]Oc1c([H])c([H])c(N([H])C(=Nc2c([H])c([H])c(C([H])([H])[H])c([H])c2[H])N([H])c2c([H])c([H])c([H])c(C(=O)C([H])([H])[H])c2[H])c([H])c1C([H])([H])[H]
     RDKit          3D

 51 53  0  0  0  0  0  0  0  0999 V2000
    6.7295   -0.8284   -0.0082 C   0  0  0  0  0  0  0  0  0  0  0  0
    5.5887   -0.0658    0.5242 C   0  0  0  0  0  0  0  0  0  0  0  0
    5.7837    0.9360    1.2412 O   0  0  0  0  0  0  0  0  0  0  0  0
    4.2323   -0.4743    0.2182 C   0  0  0  0  0  0  0  0  0  0  0  0
    4.0426   -1.5991   -0.5863 C   0  0  0  0  0  0  0  0  0  0  0  0
    2.7800   -2.0226   -0.9015 C   0  0  0  0  0  0  0  0  0  0  0  0
    1.6866   -1.3378   -0.4242 C   0  0  0  0  0  0  0  0  0  0  0  0
    1.8297   -0.2282    0.3693 C   0  0  0  0  0  0  0  0  0  0  0  0
    0.7667    0.5163    0.9019 N   0  0  0  0  0  0  0  0  0  0  0  0
   -0.6011    0.1751    0.8278 C   0  0  0  0  0  0  0  0  0  0  0  0
   -1.1461   -1.0663    1.2048 N   0  0  0  0  0  0  0  0  0  0  0  0
   -2.1567   -1.8034    0.5293 C   0  0  0  0  0  0  0  0  0  0  0  0
   -2.6274   -1.4737   -0.7159 C   0  0  0  0  0  0  0  0  0  0  0  0
   -3.6250   -2.2327   -1.3095 C   0  0  0  0  0  0  0  0  0  0  0  0
   -4.1915   -3.3341   -0.7070 C   0  0  0  0  0  0  0  0  0  0  0  0
   -5.1931   -4.0827   -1.3217 O   0  0  0  0  0  0  0  0  0  0  0  0
   -3.7163   -3.6646    0.5456 C   0  0  0  0  0  0  0  0  0  0  0  0
   -4.2943   -4.8571    1.2554 C   0  0  0  0  0  0  0  0  0  0  0  0
   -2.7318   -2.9239    1.1437 C   0  0  0  0  0  0  0  0  0  0  0  0
   -1.4082    1.0842    0.4120 N   0  0  0  0  0  0  0  0  0  0  0  0
   -1.1137    2.3886    0.0150 C   0  0  0  0  0  0  0  0  0  0  0  0
   -0.1303    2.7107   -0.8943 C   0  0  0  0  0  0  0  0  0  0  0  0
    0.0771    4.0412   -1.2012 C   0  0  0  0  0  0  0  0  0  0  0  0
   -0.6765    5.0184   -0.6165 C   0  0  0  0  0  0  0  0  0  0  0  0
   -0.4176    6.4396   -0.9773 C   0  0  0  0  0  0  0  0  0  0  0  0
   -1.6631    4.7160    0.2934 C   0  0  0  0  0  0  0  0  0  0  0  0
   -1.8789    3.4010    0.6067 C   0  0  0  0  0  0  0  0  0  0  0  0
    3.1265    0.1903    0.6812 C   0  0  0  0  0  0  0  0  0  0  0  0
    7.6906   -0.3202    0.2607 H   0  0  0  0  0  0  0  0  0  0  0  0
    6.6276   -0.9045   -1.1056 H   0  0  0  0  0  0  0  0  0  0  0  0
    6.7984   -1.8387    0.4586 H   0  0  0  0  0  0  0  0  0  0  0  0
    4.8864   -2.1595   -0.9775 H   0  0  0  0  0  0  0  0  0  0  0  0
    2.6305   -2.9060   -1.5332 H   0  0  0  0  0  0  0  0  0  0  0  0
    0.6697   -1.6408   -0.6585 H   0  0  0  0  0  0  0  0  0  0  0  0
    0.9628    1.4293    1.4164 H   0  0  0  0  0  0  0  0  0  0  0  0
   -0.7611   -1.5067    2.0929 H   0  0  0  0  0  0  0  0  0  0  0  0
   -2.2081   -0.6071   -1.2533 H   0  0  0  0  0  0  0  0  0  0  0  0
   -3.9784   -1.9454   -2.2996 H   0  0  0  0  0  0  0  0  0  0  0  0
   -5.5646   -4.8794   -0.8225 H   0  0  0  0  0  0  0  0  0  0  0  0
   -5.3815   -4.8022    1.3329 H   0  0  0  0  0  0  0  0  0  0  0  0
   -3.7775   -4.9511    2.2281 H   0  0  0  0  0  0  0  0  0  0  0  0
   -3.9575   -5.7388    0.6355 H   0  0  0  0  0  0  0  0  0  0  0  0
   -2.3604   -3.1947    2.1402 H   0  0  0  0  0  0  0  0  0  0  0  0
    0.4609    1.9489   -1.3623 H   0  0  0  0  0  0  0  0  0  0  0  0
    0.8642    4.2697   -1.9259 H   0  0  0  0  0  0  0  0  0  0  0  0
    0.6401    6.6512   -0.7091 H   0  0  0  0  0  0  0  0  0  0  0  0
   -0.6123    6.6295   -2.0406 H   0  0  0  0  0  0  0  0  0  0  0  0
   -1.0783    7.1154   -0.3765 H   0  0  0  0  0  0  0  0  0  0  0  0
   -2.2667    5.4903    0.7625 H   0  0  0  0  0  0  0  0  0  0  0  0
   -2.6519    3.1680    1.3194 H   0  0  0  0  0  0  0  0  0  0  0  0
    3.2956    1.0705    1.3111 H   0  0  0  0  0  0  0  0  0  0  0  0
  1  2  1  0
  2  3  2  0
  2  4  1  0
  4  5  2  0
  5  6  1  0
  6  7  2  0
  7  8  1  0
  8  9  1  0
  9 10  1  0
 10 11  1  0
 11 12  1  0
 12 13  2  0
 13 14  1  0
 14 15  2  0
 15 16  1  0
 15 17  1  0
 17 18  1  0
 17 19  2  0
 10 20  2  3
 20 21  1  0
 21 22  2  0
 22 23  1  0
 23 24  2  0
 24 25  1  0
 24 26  1  0
 26 27  2  0
  8 28  2  0
 28  4  1  0
 19 12  1  0
 27 21  1  0
  1 29  1  0
  1 30  1  0
  1 31  1  0
  5 32  1  0
  6 33  1  0
  7 34  1  0
  9 35  1  0
 11 36  1  0
 13 37  1  0
 14 38  1  0
 16 39  1  0
 18 40  1  0
 18 41  1  0
 18 42  1  0
 19 43  1  0
 22 44  1  0
 23 45  1  0
 25 46  1  0
 25 47  1  0
 25 48  1  0
 26 49  1  0
 27 50  1  0
 28 51  1  0
M  END
$$$$
[H]OC(=O)c1c([H])c([H])c(/C(=C(\c2c([H])c([H])c(F)c([H])c2[H])N([H])c2c([H])c([H])c(F)c([H])c2[H])c2c([H])c([H])c(O[H])c([H])c2[H])c([H])c1[H]
     RDKit          3D

 52 55  0  0  0  0  0  0  0  0999 V2000
    1.1939    5.1946   -3.1660 O   0  0  0  0  0  0  0  0  0  0  0  0
    0.9921    4.0204   -2.4345 C   0  0  0  0  0  0  0  0  0  0  0  0
    0.1051    3.0620   -2.8991 C   0  0  0  0  0  0  0  0  0  0  0  0
   -0.0681    1.9042   -2.1417 C   0  0  0  0  0  0  0  0  0  0  0  0
    0.5959    1.7175   -1.0008 C   0  0  0  0  0  0  0  0  0  0  0  0
    1.4853    2.7044   -0.5601 C   0  0  0  0  0  0  0  0  0  0  0  0
    1.6953    3.8586   -1.2610 C   0  0  0  0  0  0  0  0  0  0  0  0
    0.4596    0.5689   -0.0669 C   0  0  0  0  0  0  0  0  0  0  0  0
   -0.6781    0.1836    0.4337 C   0  0  0  0  0  0  0  0  0  0  0  0
   -1.8718    0.8848    0.0885 N   0  0  0  0  0  0  0  0  0  0  0  0
   -2.9539    0.3711   -0.6402 C   0  0  0  0  0  0  0  0  0  0  0  0
   -4.1654    1.0720   -0.7012 C   0  0  0  0  0  0  0  0  0  0  0  0
   -5.2434    0.6334   -1.4185 C   0  0  0  0  0  0  0  0  0  0  0  0
   -5.1432   -0.5474   -2.1147 C   0  0  0  0  0  0  0  0  0  0  0  0
   -6.2193   -0.9779   -2.8276 F   0  0  0  0  0  0  0  0  0  0  0  0
   -3.9676   -1.2724   -2.0834 C   0  0  0  0  0  0  0  0  0  0  0  0
   -2.8839   -0.8053   -1.3451 C   0  0  0  0  0  0  0  0  0  0  0  0
   -0.8778   -0.9368    1.3360 C   0  0  0  0  0  0  0  0  0  0  0  0
   -0.3738   -2.2015    1.1886 C   0  0  0  0  0  0  0  0  0  0  0  0
   -0.5833   -3.2112    2.1128 C   0  0  0  0  0  0  0  0  0  0  0  0
   -1.3503   -2.8919    3.2364 C   0  0  0  0  0  0  0  0  0  0  0  0
   -1.6083   -3.8221    4.2072 F   0  0  0  0  0  0  0  0  0  0  0  0
   -1.8601   -1.6338    3.3936 C   0  0  0  0  0  0  0  0  0  0  0  0
   -1.6273   -0.6766    2.4608 C   0  0  0  0  0  0  0  0  0  0  0  0
    1.6775   -0.1200    0.3403 C   0  0  0  0  0  0  0  0  0  0  0  0
    2.5126   -0.6041   -0.6403 C   0  0  0  0  0  0  0  0  0  0  0  0
    3.7057   -1.2587   -0.3144 C   0  0  0  0  0  0  0  0  0  0  0  0
    4.0656   -1.4295    1.0056 C   0  0  0  0  0  0  0  0  0  0  0  0
    3.2355   -0.9473    1.9866 C   0  0  0  0  0  0  0  0  0  0  0  0
    2.0551   -0.3002    1.6449 C   0  0  0  0  0  0  0  0  0  0  0  0
    5.2863   -2.1261    1.3922 C   0  0  0  0  0  0  0  0  0  0  0  0
    6.1699   -2.6806    0.4703 O   0  0  0  0  0  0  0  0  0  0  0  0
    5.5640   -2.2369    2.6001 O   0  0  0  0  0  0  0  0  0  0  0  0
    1.8349    5.9046   -2.8414 H   0  0  0  0  0  0  0  0  0  0  0  0
   -0.4299    3.2222   -3.8222 H   0  0  0  0  0  0  0  0  0  0  0  0
   -0.7357    1.1579   -2.5087 H   0  0  0  0  0  0  0  0  0  0  0  0
    2.0327    2.5692    0.3622 H   0  0  0  0  0  0  0  0  0  0  0  0
    2.3975    4.5930   -0.8691 H   0  0  0  0  0  0  0  0  0  0  0  0
   -1.9212    1.8735    0.4239 H   0  0  0  0  0  0  0  0  0  0  0  0
   -4.2120    2.0028   -0.1349 H   0  0  0  0  0  0  0  0  0  0  0  0
   -6.1746    1.2147   -1.4349 H   0  0  0  0  0  0  0  0  0  0  0  0
   -3.8893   -2.1957   -2.6326 H   0  0  0  0  0  0  0  0  0  0  0  0
   -1.9695   -1.3852   -1.3433 H   0  0  0  0  0  0  0  0  0  0  0  0
    0.2142   -2.4613    0.3200 H   0  0  0  0  0  0  0  0  0  0  0  0
   -0.1891   -4.2021    2.0043 H   0  0  0  0  0  0  0  0  0  0  0  0
   -2.4680   -1.3618    4.2751 H   0  0  0  0  0  0  0  0  0  0  0  0
   -2.0530    0.3160    2.6213 H   0  0  0  0  0  0  0  0  0  0  0  0
    2.3214   -0.5228   -1.7010 H   0  0  0  0  0  0  0  0  0  0  0  0
    4.3774   -1.6448   -1.0627 H   0  0  0  0  0  0  0  0  0  0  0  0
    3.5059   -1.0701    3.0287 H   0  0  0  0  0  0  0  0  0  0  0  0
    1.4148    0.0778    2.4014 H   0  0  0  0  0  0  0  0  0  0  0  0
    6.6196   -3.5835    0.6320 H   0  0  0  0  0  0  0  0  0  0  0  0
  1  2  1  0
  2  3  2  0
  3  4  1  0
  4  5  2  0
  5  6  1  0
  6  7  2  0
  5  8  1  0
  8  9  2  0
  9 10  1  0
 10 11  1  0
 11 12  2  0
 12 13  1  0
 13 14  2  0
 14 15  1  0
 14 16  1  0
 16 17  2  0
  9 18  1  0
 18 19  2  0
 19 20  1  0
 20 21  2  0
 21 22  1  0
 21 23  1  0
 23 24  2  0
  8 25  1  0
 25 26  2  0
 26 27  1  0
 27 28  2  0
 28 29  1  0
 29 30  2  0
 28 31  1  0
 31 32  1  0
 31 33  2  0
  7  2  1  0
 17 11  1  0
 24 18  1  0
 30 25  1  0
  1 34  1  0
  3 35  1  0
  4 36  1  0
  6 37  1  0
  7 38  1  0
 10 39  1  0
 12 40  1  0
 13 41  1  0
 16 42  1  0
 17 43  1  0
 19 44  1  0
 20 45  1  0
 23 46  1  0
 24 47  1  0
 26 48  1  0
 27 49  1  0
 29 50  1  0
 30 51  1  0
 32 52  1  0
M  END
$$$$
[H]OC(=O)c1c([H])c([H])c2c(c1[H])[C@]([H])(C([H])([H])C([H])([H])[H])[C@]([H])(c1c([H])c([H])c([H])c([H])c1[H])O2
     RDKit          3D

 36 38  0  0  0  0  0  0  0  0999 V2000
   -1.6248    3.2427   -1.5399 C   0  0  0  0  0  0  0  0  0  0  0  0
   -0.7003    2.5619   -0.5073 C   0  0  0  0  0  0  0  0  0  0  0  0
   -0.1425    1.3588   -1.0743 C   0  0  2  0  0  0  0  0  0  0  0  0
   -0.9744    0.2349   -1.5438 C   0  0  1  0  0  0  0  0  0  0  0  0
    0.1372   -0.5116   -2.1871 O   0  0  0  0  0  0  0  0  0  0  0  0
    1.0755   -0.5321   -1.1213 C   0  0  0  0  0  0  0  0  0  0  0  0
    2.0397   -1.4202   -0.6988 C   0  0  0  0  0  0  0  0  0  0  0  0
    2.8235   -1.1443    0.4203 C   0  0  0  0  0  0  0  0  0  0  0  0
    2.6719    0.0135    1.1453 C   0  0  0  0  0  0  0  0  0  0  0  0
    1.6986    0.9130    0.7209 C   0  0  0  0  0  0  0  0  0  0  0  0
    0.9328    0.6463   -0.3706 C   0  0  0  0  0  0  0  0  0  0  0  0
    3.4919    0.2999    2.3147 C   0  0  0  0  0  0  0  0  0  0  0  0
    4.4498   -0.5845    2.7332 O   0  0  0  0  0  0  0  0  0  0  0  0
    3.3211    1.3708    2.9500 O   0  0  0  0  0  0  0  0  0  0  0  0
   -1.5024   -0.7247   -0.5658 C   0  0  0  0  0  0  0  0  0  0  0  0
   -1.7917   -2.0194   -1.0263 C   0  0  0  0  0  0  0  0  0  0  0  0
   -2.2784   -3.0059   -0.2104 C   0  0  0  0  0  0  0  0  0  0  0  0
   -2.4969   -2.7215    1.1259 C   0  0  0  0  0  0  0  0  0  0  0  0
   -2.2153   -1.4642    1.5703 C   0  0  0  0  0  0  0  0  0  0  0  0
   -1.7287   -0.4818    0.7504 C   0  0  0  0  0  0  0  0  0  0  0  0
   -2.3240    3.9399   -1.0318 H   0  0  0  0  0  0  0  0  0  0  0  0
   -2.2091    2.4705   -2.0944 H   0  0  0  0  0  0  0  0  0  0  0  0
   -1.0340    3.8529   -2.2498 H   0  0  0  0  0  0  0  0  0  0  0  0
   -1.2231    2.6046    0.4225 H   0  0  0  0  0  0  0  0  0  0  0  0
    0.1483    3.3212   -0.4047 H   0  0  0  0  0  0  0  0  0  0  0  0
    0.3969    1.7091   -2.0557 H   0  0  0  0  0  0  0  0  0  0  0  0
   -1.6498    0.4663   -2.3693 H   0  0  0  0  0  0  0  0  0  0  0  0
    2.1928   -2.3444   -1.2404 H   0  0  0  0  0  0  0  0  0  0  0  0
    3.5825   -1.8513    0.7468 H   0  0  0  0  0  0  0  0  0  0  0  0
    1.5581    1.8411    1.2802 H   0  0  0  0  0  0  0  0  0  0  0  0
    4.3133   -1.4629    3.1753 H   0  0  0  0  0  0  0  0  0  0  0  0
   -1.6323   -2.2840   -2.0774 H   0  0  0  0  0  0  0  0  0  0  0  0
   -2.4984   -4.0037   -0.5781 H   0  0  0  0  0  0  0  0  0  0  0  0
   -2.8874   -3.5233    1.7658 H   0  0  0  0  0  0  0  0  0  0  0  0
   -2.4032   -1.2837    2.6339 H   0  0  0  0  0  0  0  0  0  0  0  0
   -1.5175    0.5160    1.1918 H   0  0  0  0  0  0  0  0  0  0  0  0
  1  2  1  0
  2  3  1  0
  3  4  1  0
  4  5  1  0
  5  6  1  0
  6  7  2  0
  7  8  1  0
  8  9  2  0
  9 10  1  0
 10 11  2  0
  9 12  1  0
 12 13  1  0
 12 14  2  0
  4 15  1  0
 15 16  2  0
 16 17  1  0
 17 18  2  0
 18 19  1  0
 19 20  2  0
 11  3  1  0
 20 15  1  0
 11  6  1  0
  1 21  1  0
  1 22  1  0
  1 23  1  0
  2 24  1  0
  2 25  1  0
  3 26  1  6
  4 27  1  6
  7 28  1  0
  8 29  1  0
 10 30  1  0
 13 31  1  0
 16 32  1  0
 17 33  1  0
 18 34  1  0
 19 35  1  0
 20 36  1  0
M  END
$$$$
[H]c1nc(N([H])C(=O)C([H])([H])[H])c(-c2c([H])c([H])c(OC([H])([H])[H])c([H])c2[H])c(C([H])([H])C([H])([H])C([H])([H])[H])c1[H]
     RDKit          3D

 41 42  0  0  0  0  0  0  0  0999 V2000
    3.7240   -2.6823   -0.3086 C   0  0  0  0  0  0  0  0  0  0  0  0
    3.2447   -1.2634   -0.3144 C   0  0  0  0  0  0  0  0  0  0  0  0
    2.4833   -0.9270    0.9537 C   0  0  0  0  0  0  0  0  0  0  0  0
    1.9998    0.4640    0.7971 C   0  0  0  0  0  0  0  0  0  0  0  0
    2.9438    1.4551    1.0881 C   0  0  0  0  0  0  0  0  0  0  0  0
    2.6631    2.7812    0.8473 C   0  0  0  0  0  0  0  0  0  0  0  0
    1.4646    3.0677    0.3315 N   0  0  0  0  0  0  0  0  0  0  0  0
    0.5461    2.1353    0.0475 C   0  0  0  0  0  0  0  0  0  0  0  0
   -0.6995    2.5293   -0.5201 N   0  0  0  0  0  0  0  0  0  0  0  0
   -1.0029    3.8967   -0.7839 C   0  0  0  0  0  0  0  0  0  0  0  0
   -2.2841    4.3097   -1.3764 C   0  0  0  0  0  0  0  0  0  0  0  0
   -0.1368    4.7528   -0.4934 O   0  0  0  0  0  0  0  0  0  0  0  0
    0.7790    0.7653    0.2756 C   0  0  0  0  0  0  0  0  0  0  0  0
   -0.3024   -0.1863    0.0700 C   0  0  0  0  0  0  0  0  0  0  0  0
   -0.3656   -1.0366   -0.9831 C   0  0  0  0  0  0  0  0  0  0  0  0
   -1.4334   -1.8846   -1.1224 C   0  0  0  0  0  0  0  0  0  0  0  0
   -2.5041   -1.9369   -0.2209 C   0  0  0  0  0  0  0  0  0  0  0  0
   -3.5288   -2.7301   -0.3305 O   0  0  0  0  0  0  0  0  0  0  0  0
   -4.5894   -3.4487   -0.3114 C   0  0  0  0  0  0  0  0  0  0  0  0
   -2.4069   -1.0425    0.8588 C   0  0  0  0  0  0  0  0  0  0  0  0
   -1.3559   -0.1963    1.0111 C   0  0  0  0  0  0  0  0  0  0  0  0
    4.5982   -2.7796    0.3665 H   0  0  0  0  0  0  0  0  0  0  0  0
    2.8647   -3.3218   -0.0281 H   0  0  0  0  0  0  0  0  0  0  0  0
    4.0383   -3.0039   -1.3311 H   0  0  0  0  0  0  0  0  0  0  0  0
    4.1856   -0.5998   -0.2933 H   0  0  0  0  0  0  0  0  0  0  0  0
    2.6716   -1.0484   -1.2013 H   0  0  0  0  0  0  0  0  0  0  0  0
    1.6979   -1.6643    1.1864 H   0  0  0  0  0  0  0  0  0  0  0  0
    3.2302   -0.9578    1.7654 H   0  0  0  0  0  0  0  0  0  0  0  0
    3.9088    1.2073    1.5030 H   0  0  0  0  0  0  0  0  0  0  0  0
    3.4151    3.5131    1.0916 H   0  0  0  0  0  0  0  0  0  0  0  0
   -1.4113    1.7936   -0.7550 H   0  0  0  0  0  0  0  0  0  0  0  0
   -2.8097    5.0301   -0.7273 H   0  0  0  0  0  0  0  0  0  0  0  0
   -2.9118    3.4090   -1.4892 H   0  0  0  0  0  0  0  0  0  0  0  0
   -2.1570    4.8391   -2.3610 H   0  0  0  0  0  0  0  0  0  0  0  0
    0.4355   -1.0622   -1.7582 H   0  0  0  0  0  0  0  0  0  0  0  0
   -1.4866   -2.5785   -1.9660 H   0  0  0  0  0  0  0  0  0  0  0  0
   -5.3035   -3.1745   -1.1590 H   0  0  0  0  0  0  0  0  0  0  0  0
   -4.4426   -4.5667   -0.4561 H   0  0  0  0  0  0  0  0  0  0  0  0
   -5.2622   -3.3015    0.5901 H   0  0  0  0  0  0  0  0  0  0  0  0
   -3.2243   -1.0498    1.5901 H   0  0  0  0  0  0  0  0  0  0  0  0
   -1.2753    0.4943    1.8417 H   0  0  0  0  0  0  0  0  0  0  0  0
  1  2  1  0
  2  3  1  0
  3  4  1  0
  4  5  2  0
  5  6  1  0
  6  7  2  0
  7  8  1  0
  8  9  1  0
  9 10  1  0
 10 11  1  0
 10 12  2  0
  8 13  2  0
 13 14  1  0
 14 15  2  0
 15 16  1  0
 16 17  2  0
 17 18  1  0
 18 19  1  0
 17 20  1  0
 20 21  2  0
 13  4  1  0
 21 14  1  0
  1 22  1  0
  1 23  1  0
  1 24  1  0
  2 25  1  0
  2 26  1  0
  3 27  1  0
  3 28  1  0
  5 29  1  0
  6 30  1  0
  9 31  1  0
 11 32  1  0
 11 33  1  0
 11 34  1  0
 15 35  1  0
 16 36  1  0
 19 37  1  0
 19 38  1  0
 19 39  1  0
 20 40  1  0
 21 41  1  0
M  END
$$$$
[H]Oc1c([H])c([H])c(N([H])[C@]([H])(C(=O)N([H])c2nnc(-c3c([H])c([H])c(C(F)(F)F)c([H])c3[H])s2)C([H])([H])C([H])(C([H])([H])[H])C([H])([H])[H])c([H])c1[H]
     RDKit          3D

 52 54  0  0  0  0  0  0  0  0999 V2000
   -2.6917   -4.4683   -0.8187 C   0  0  0  0  0  0  0  0  0  0  0  0
   -2.8061   -3.2146    0.0469 C   0  0  0  0  0  0  0  0  0  0  0  0
   -4.2047   -3.2869    0.7153 C   0  0  0  0  0  0  0  0  0  0  0  0
   -2.9570   -1.9811   -0.9020 C   0  0  0  0  0  0  0  0  0  0  0  0
   -2.9484   -0.7710   -0.0483 C   0  0  2  0  0  0  0  0  0  0  0  0
   -3.2593    0.4686   -0.7334 N   0  0  0  0  0  0  0  0  0  0  0  0
   -3.6335    1.6905   -0.1210 C   0  0  0  0  0  0  0  0  0  0  0  0
   -3.8424    2.7627   -0.9831 C   0  0  0  0  0  0  0  0  0  0  0  0
   -4.2469    3.9661   -0.5122 C   0  0  0  0  0  0  0  0  0  0  0  0
   -4.4653    4.1617    0.8439 C   0  0  0  0  0  0  0  0  0  0  0  0
   -4.8899    5.4524    1.2479 O   0  0  0  0  0  0  0  0  0  0  0  0
   -4.2524    3.1079    1.6699 C   0  0  0  0  0  0  0  0  0  0  0  0
   -3.8429    1.8688    1.2239 C   0  0  0  0  0  0  0  0  0  0  0  0
   -1.4206   -0.5820    0.2941 C   0  0  0  0  0  0  0  0  0  0  0  0
   -1.0833   -0.5250    1.4558 O   0  0  0  0  0  0  0  0  0  0  0  0
   -0.6000   -0.4814   -0.8376 N   0  0  0  0  0  0  0  0  0  0  0  0
    0.8289   -0.2595   -0.7979 C   0  0  0  0  0  0  0  0  0  0  0  0
    1.5524    0.2165   -1.8458 N   0  0  0  0  0  0  0  0  0  0  0  0
    2.7817    0.3794   -1.7009 N   0  0  0  0  0  0  0  0  0  0  0  0
    3.3785    0.0931   -0.5471 C   0  0  0  0  0  0  0  0  0  0  0  0
    2.0425   -0.4524    0.3611 S   0  0  0  0  0  0  0  0  0  0  0  0
    4.8213    0.1483   -0.2776 C   0  0  0  0  0  0  0  0  0  0  0  0
    5.5341   -0.8562    0.3056 C   0  0  0  0  0  0  0  0  0  0  0  0
    6.8875   -0.6801    0.6443 C   0  0  0  0  0  0  0  0  0  0  0  0
    7.5273    0.5286    0.3867 C   0  0  0  0  0  0  0  0  0  0  0  0
    6.8127    1.5389   -0.2059 C   0  0  0  0  0  0  0  0  0  0  0  0
    5.5017    1.3484   -0.5263 C   0  0  0  0  0  0  0  0  0  0  0  0
    8.9592    0.7866    0.7415 C   0  0  0  0  0  0  0  0  0  0  0  0
    9.0126    1.8161    1.6939 F   0  0  0  0  0  0  0  0  0  0  0  0
    9.5782    1.2708   -0.4052 F   0  0  0  0  0  0  0  0  0  0  0  0
    9.5831   -0.3242    1.2169 F   0  0  0  0  0  0  0  0  0  0  0  0
   -2.8816   -5.3365   -0.1184 H   0  0  0  0  0  0  0  0  0  0  0  0
   -1.6328   -4.5383   -1.1117 H   0  0  0  0  0  0  0  0  0  0  0  0
   -3.4204   -4.4314   -1.6248 H   0  0  0  0  0  0  0  0  0  0  0  0
   -2.0004   -3.0882    0.7245 H   0  0  0  0  0  0  0  0  0  0  0  0
   -4.8657   -3.7213   -0.0749 H   0  0  0  0  0  0  0  0  0  0  0  0
   -4.5656   -2.2636    0.8693 H   0  0  0  0  0  0  0  0  0  0  0  0
   -4.1816   -3.8564    1.6415 H   0  0  0  0  0  0  0  0  0  0  0  0
   -2.0768   -2.0904   -1.5702 H   0  0  0  0  0  0  0  0  0  0  0  0
   -3.8953   -2.0763   -1.5014 H   0  0  0  0  0  0  0  0  0  0  0  0
   -3.4431   -0.8486    0.9203 H   0  0  0  0  0  0  0  0  0  0  0  0
   -3.1827    0.4042   -1.7873 H   0  0  0  0  0  0  0  0  0  0  0  0
   -3.6990    2.6607   -2.0529 H   0  0  0  0  0  0  0  0  0  0  0  0
   -4.4204    4.8077   -1.1809 H   0  0  0  0  0  0  0  0  0  0  0  0
   -5.0526    5.6146    2.2229 H   0  0  0  0  0  0  0  0  0  0  0  0
   -4.4134    3.2217    2.7434 H   0  0  0  0  0  0  0  0  0  0  0  0
   -3.6795    1.0513    1.8916 H   0  0  0  0  0  0  0  0  0  0  0  0
   -1.0195   -0.5459   -1.8081 H   0  0  0  0  0  0  0  0  0  0  0  0
    5.0545   -1.8236    0.5064 H   0  0  0  0  0  0  0  0  0  0  0  0
    7.4444   -1.5041    1.0951 H   0  0  0  0  0  0  0  0  0  0  0  0
    7.3222    2.5008   -0.3977 H   0  0  0  0  0  0  0  0  0  0  0  0
    4.9519    2.1406   -0.9714 H   0  0  0  0  0  0  0  0  0  0  0  0
  1  2  1  0
  2  3  1  0
  2  4  1  0
  4  5  1  0
  5  6  1  0
  6  7  1  0
  7  8  2  0
  8  9  1  0
  9 10  2  0
 10 11  1  0
 10 12  1  0
 12 13  2  0
  5 14  1  0
 14 15  2  0
 14 16  1  0
 16 17  1  0
 17 18  2  0
 18 19  1  0
 19 20  2  0
 20 21  1  0
 20 22  1  0
 22 23  2  0
 23 24  1  0
 24 25  2  0
 25 26  1  0
 26 27  2  0
 25 28  1  0
 28 29  1  0
 28 30  1  0
 28 31  1  0
 13  7  1  0
 21 17  1  0
 27 22  1  0
  1 32  1  0
  1 33  1  0
  1 34  1  0
  2 35  1  0
  3 36  1  0
  3 37  1  0
  3 38  1  0
  4 39  1  0
  4 40  1  0
  5 41  1  1
  6 42  1  0
  8 43  1  0
  9 44  1  0
 11 45  1  0
 12 46  1  0
 13 47  1  0
 16 48  1  0
 23 49  1  0
 24 50  1  0
 26 51  1  0
 27 52  1  0
M  END
$$$$
[H]c1c([H])c([H])c(C(F)(F)C(=O)N([H])c2c([H])c([H])c([N+](=O)[O-])c([H])c2[H])c(N([H])c2c([H])c([H])c(Cl)c(Cl)c2[H])c1[H]
     RDKit          3D

 43 45  0  0  0  0  0  0  0  0999 V2000
   -8.5653   -0.6660   -1.6567 O   0  0  0  0  0  0  0  0  0  0  0  0
   -7.9313   -0.6221   -0.4421 N   0  0  0  0  0  0  0  0  0  0  0  0
   -8.6413   -0.5602    0.5802 O   0  0  0  0  0  0  0  0  0  0  0  0
   -6.5022   -0.6458   -0.3383 C   0  0  0  0  0  0  0  0  0  0  0  0
   -5.7273   -0.7132   -1.4533 C   0  0  0  0  0  0  0  0  0  0  0  0
   -4.3531   -0.7359   -1.3512 C   0  0  0  0  0  0  0  0  0  0  0  0
   -3.6796   -0.6922   -0.1235 C   0  0  0  0  0  0  0  0  0  0  0  0
   -2.2904   -0.7197   -0.1192 N   0  0  0  0  0  0  0  0  0  0  0  0
   -1.3904   -0.6889    0.9597 C   0  0  0  0  0  0  0  0  0  0  0  0
   -1.7850   -0.6278    2.1320 O   0  0  0  0  0  0  0  0  0  0  0  0
    0.1009   -0.7327    0.7564 C   0  0  0  0  0  0  0  0  0  0  0  0
    0.2517   -1.7438   -0.2189 F   0  0  0  0  0  0  0  0  0  0  0  0
    0.6715   -1.1631    1.9153 F   0  0  0  0  0  0  0  0  0  0  0  0
    0.6578    0.4815    0.1719 C   0  0  0  0  0  0  0  0  0  0  0  0
   -0.1878    1.5261   -0.1145 C   0  0  0  0  0  0  0  0  0  0  0  0
    0.2820    2.7149   -0.6634 C   0  0  0  0  0  0  0  0  0  0  0  0
    1.6196    2.8735   -0.9351 C   0  0  0  0  0  0  0  0  0  0  0  0
    2.4795    1.8325   -0.6522 C   0  0  0  0  0  0  0  0  0  0  0  0
    2.0276    0.6280   -0.0985 C   0  0  0  0  0  0  0  0  0  0  0  0
    2.8933   -0.4372    0.1589 N   0  0  0  0  0  0  0  0  0  0  0  0
    4.2907   -0.3316    0.1546 C   0  0  0  0  0  0  0  0  0  0  0  0
    5.0515    0.6926    0.6579 C   0  0  0  0  0  0  0  0  0  0  0  0
    6.4256    0.7208    0.5914 C   0  0  0  0  0  0  0  0  0  0  0  0
    7.1181   -0.3074    0.0006 C   0  0  0  0  0  0  0  0  0  0  0  0
    8.8775   -0.3018   -0.1008 Cl  0  0  0  0  0  0  0  0  0  0  0  0
    6.3868   -1.3518   -0.5144 C   0  0  0  0  0  0  0  0  0  0  0  0
    7.2758   -2.6672   -1.2698 Cl  0  0  0  0  0  0  0  0  0  0  0  0
    5.0291   -1.3682   -0.4430 C   0  0  0  0  0  0  0  0  0  0  0  0
   -4.4884   -0.6244    0.9842 C   0  0  0  0  0  0  0  0  0  0  0  0
   -5.8844   -0.6012    0.8815 C   0  0  0  0  0  0  0  0  0  0  0  0
   -6.2299   -0.7480   -2.4153 H   0  0  0  0  0  0  0  0  0  0  0  0
   -3.7454   -0.7899   -2.2490 H   0  0  0  0  0  0  0  0  0  0  0  0
   -1.7969   -0.7730   -1.0782 H   0  0  0  0  0  0  0  0  0  0  0  0
   -1.2687    1.5155    0.0712 H   0  0  0  0  0  0  0  0  0  0  0  0
   -0.4330    3.5120   -0.8711 H   0  0  0  0  0  0  0  0  0  0  0  0
    1.9824    3.8065   -1.3651 H   0  0  0  0  0  0  0  0  0  0  0  0
    3.5190    1.9696   -0.8989 H   0  0  0  0  0  0  0  0  0  0  0  0
    2.5180   -1.3797    0.3677 H   0  0  0  0  0  0  0  0  0  0  0  0
    4.5183    1.5118    1.1451 H   0  0  0  0  0  0  0  0  0  0  0  0
    6.9872    1.5448    0.9987 H   0  0  0  0  0  0  0  0  0  0  0  0
    4.4891   -2.2020   -0.8567 H   0  0  0  0  0  0  0  0  0  0  0  0
   -4.0684   -0.5873    1.9596 H   0  0  0  0  0  0  0  0  0  0  0  0
   -6.4840   -0.5479    1.7699 H   0  0  0  0  0  0  0  0  0  0  0  0
  1  2  1  0
  2  3  2  0
  2  4  1  0
  4  5  2  0
  5  6  1  0
  6  7  2  0
  7  8  1  0
  8  9  1  0
  9 10  2  0
  9 11  1  0
 11 12  1  0
 11 13  1  0
 11 14  1  0
 14 15  2  0
 15 16  1  0
 16 17  2  0
 17 18  1  0
 18 19  2  0
 19 20  1  0
 20 21  1  0
 21 22  2  0
 22 23  1  0
 23 24  2  0
 24 25  1  0
 24 26  1  0
 26 27  1  0
 26 28  2  0
  7 29  1  0
 29 30  2  0
 30  4  1  0
 19 14  1  0
 28 21  1  0
  5 31  1  0
  6 32  1  0
  8 33  1  0
 15 34  1  0
 16 35  1  0
 17 36  1  0
 18 37  1  0
 20 38  1  0
 22 39  1  0
 23 40  1  0
 28 41  1  0
 29 42  1  0
 30 43  1  0
M  CHG  2   1  -1   2   1
M  END
$$$$
[H]OC(=O)C([H])(Sc1c([H])c([H])c(O[H])c(C(=O)c2c([H])c([H])c([H])c([H])c2Cl)c1[H])C([H])(C([H])([H])[H])C([H])([H])[H]
     RDKit          3D

 41 42  0  0  0  0  0  0  0  0999 V2000
   -1.5721    1.0834    1.1419 C   0  0  0  0  0  0  0  0  0  0  0  0
   -2.6995    1.2091    0.1538 C   0  0  0  0  0  0  0  0  0  0  0  0
   -3.8832    1.8524    0.8860 C   0  0  0  0  0  0  0  0  0  0  0  0
   -3.1866   -0.0841   -0.3896 C   0  0  0  0  0  0  0  0  0  0  0  0
   -2.0009   -0.9969   -1.3042 S   0  0  0  0  0  0  0  0  0  0  0  0
   -0.6605   -1.6330   -0.3849 C   0  0  0  0  0  0  0  0  0  0  0  0
   -0.8407   -2.7946    0.3639 C   0  0  0  0  0  0  0  0  0  0  0  0
    0.2436   -3.3094    1.0186 C   0  0  0  0  0  0  0  0  0  0  0  0
    1.4956   -2.7454    0.9787 C   0  0  0  0  0  0  0  0  0  0  0  0
    2.5938   -3.2572    1.6357 O   0  0  0  0  0  0  0  0  0  0  0  0
    1.6646   -1.5830    0.2266 C   0  0  0  0  0  0  0  0  0  0  0  0
    0.6025   -1.0253   -0.4517 C   0  0  0  0  0  0  0  0  0  0  0  0
    2.9772   -0.9965    0.1462 C   0  0  0  0  0  0  0  0  0  0  0  0
    3.9625   -1.6539    0.6658 O   0  0  0  0  0  0  0  0  0  0  0  0
    3.3616    0.2539   -0.4479 C   0  0  0  0  0  0  0  0  0  0  0  0
    2.6246    1.3889   -0.2476 C   0  0  0  0  0  0  0  0  0  0  0  0
    3.0127    2.6203   -0.7886 C   0  0  0  0  0  0  0  0  0  0  0  0
    4.1600    2.7046   -1.5406 C   0  0  0  0  0  0  0  0  0  0  0  0
    4.8885    1.5443   -1.7293 C   0  0  0  0  0  0  0  0  0  0  0  0
    4.5112    0.3286   -1.1991 C   0  0  0  0  0  0  0  0  0  0  0  0
    5.5125   -1.0949   -1.4964 Cl  0  0  0  0  0  0  0  0  0  0  0  0
   -4.4013    0.1038   -1.2601 C   0  0  0  0  0  0  0  0  0  0  0  0
   -5.0143   -0.9965   -1.8299 O   0  0  0  0  0  0  0  0  0  0  0  0
   -4.8607    1.2402   -1.4734 O   0  0  0  0  0  0  0  0  0  0  0  0
   -1.8168    1.7012    2.0812 H   0  0  0  0  0  0  0  0  0  0  0  0
   -0.6229    1.4835    0.7654 H   0  0  0  0  0  0  0  0  0  0  0  0
   -1.4239    0.0770    1.5396 H   0  0  0  0  0  0  0  0  0  0  0  0
   -2.4146    1.9300   -0.6789 H   0  0  0  0  0  0  0  0  0  0  0  0
   -3.5226    2.1243    1.8957 H   0  0  0  0  0  0  0  0  0  0  0  0
   -4.2235    2.7534    0.3293 H   0  0  0  0  0  0  0  0  0  0  0  0
   -4.7413    1.1751    0.9764 H   0  0  0  0  0  0  0  0  0  0  0  0
   -3.5928   -0.6618    0.5031 H   0  0  0  0  0  0  0  0  0  0  0  0
   -1.8323   -3.2466    0.3987 H   0  0  0  0  0  0  0  0  0  0  0  0
    0.1330   -4.2138    1.6088 H   0  0  0  0  0  0  0  0  0  0  0  0
    2.4300   -4.1172    2.1816 H   0  0  0  0  0  0  0  0  0  0  0  0
    0.6642   -0.1366   -1.0608 H   0  0  0  0  0  0  0  0  0  0  0  0
    1.7191    1.4323    0.3322 H   0  0  0  0  0  0  0  0  0  0  0  0
    2.4382    3.5167   -0.6337 H   0  0  0  0  0  0  0  0  0  0  0  0
    4.4863    3.6598   -1.9748 H   0  0  0  0  0  0  0  0  0  0  0  0
    5.8032    1.6232   -2.3320 H   0  0  0  0  0  0  0  0  0  0  0  0
   -5.9746   -1.2593   -1.6238 H   0  0  0  0  0  0  0  0  0  0  0  0
  1  2  1  0
  2  3  1  0
  2  4  1  0
  4  5  1  0
  5  6  1  0
  6  7  2  0
  7  8  1  0
  8  9  2  0
  9 10  1  0
  9 11  1  0
 11 12  2  0
 11 13  1  0
 13 14  2  0
 13 15  1  0
 15 16  2  0
 16 17  1  0
 17 18  2  0
 18 19  1  0
 19 20  2  0
 20 21  1  0
  4 22  1  0
 22 23  1  0
 22 24  2  0
 12  6  1  0
 20 15  1  0
  1 25  1  0
  1 26  1  0
  1 27  1  0
  2 28  1  0
  3 29  1  0
  3 30  1  0
  3 31  1  0
  4 32  1  0
  7 33  1  0
  8 34  1  0
 10 35  1  0
 12 36  1  0
 16 37  1  0
 17 38  1  0
 18 39  1  0
 19 40  1  0
 23 41  1  0
M  END
$$$$
[H]c1c([H])c(C(C([H])([H])[H])(C([H])([H])[H])C([H])([H])[H])c([H])c([H])c1C([H])([H])C([H])([H])C([H])([H])C(=O)C(C([H])([H])[H])(C([H])([H])[H])C([H])([H])[H]
     RDKit          3D

 47 47  0  0  0  0  0  0  0  0999 V2000
    5.4731   -0.6197    1.0780 C   0  0  0  0  0  0  0  0  0  0  0  0
    4.9500    0.2379   -0.0360 C   0  0  0  0  0  0  0  0  0  0  0  0
    5.3939   -0.2814   -1.4155 C   0  0  0  0  0  0  0  0  0  0  0  0
    5.4227    1.6733    0.1092 C   0  0  0  0  0  0  0  0  0  0  0  0
    3.4599    0.1580   -0.0919 C   0  0  0  0  0  0  0  0  0  0  0  0
    2.9114   -1.0554   -0.4798 C   0  0  0  0  0  0  0  0  0  0  0  0
    1.5422   -1.1364   -0.5669 C   0  0  0  0  0  0  0  0  0  0  0  0
    0.7088   -0.0702   -0.2791 C   0  0  0  0  0  0  0  0  0  0  0  0
   -0.7660   -0.1951   -0.5012 C   0  0  0  0  0  0  0  0  0  0  0  0
   -1.3503   -1.1517    0.5088 C   0  0  0  0  0  0  0  0  0  0  0  0
   -2.8494   -1.2403    0.2744 C   0  0  0  0  0  0  0  0  0  0  0  0
   -3.4831    0.0594    0.5945 C   0  0  0  0  0  0  0  0  0  0  0  0
   -2.8844    0.9548    1.1522 O   0  0  0  0  0  0  0  0  0  0  0  0
   -4.9157    0.2744    0.2176 C   0  0  0  0  0  0  0  0  0  0  0  0
   -5.7365   -0.8076    0.8675 C   0  0  0  0  0  0  0  0  0  0  0  0
   -5.4168    1.5934    0.7830 C   0  0  0  0  0  0  0  0  0  0  0  0
   -4.9652    0.2258   -1.2835 C   0  0  0  0  0  0  0  0  0  0  0  0
    1.2850    1.1189    0.1066 C   0  0  0  0  0  0  0  0  0  0  0  0
    2.6547    1.2444    0.2022 C   0  0  0  0  0  0  0  0  0  0  0  0
    6.4316   -1.0940    0.7621 H   0  0  0  0  0  0  0  0  0  0  0  0
    4.7964   -1.4478    1.3053 H   0  0  0  0  0  0  0  0  0  0  0  0
    5.5951   -0.0059    1.9861 H   0  0  0  0  0  0  0  0  0  0  0  0
    5.4510   -1.3694   -1.4129 H   0  0  0  0  0  0  0  0  0  0  0  0
    6.3966    0.1331   -1.6973 H   0  0  0  0  0  0  0  0  0  0  0  0
    4.6618    0.1389   -2.1522 H   0  0  0  0  0  0  0  0  0  0  0  0
    6.5413    1.6163    0.1307 H   0  0  0  0  0  0  0  0  0  0  0  0
    5.1084    2.2446   -0.7732 H   0  0  0  0  0  0  0  0  0  0  0  0
    5.0811    2.0978    1.0649 H   0  0  0  0  0  0  0  0  0  0  0  0
    3.5462   -1.8996   -0.7018 H   0  0  0  0  0  0  0  0  0  0  0  0
    1.0907   -2.1076   -0.8769 H   0  0  0  0  0  0  0  0  0  0  0  0
   -1.2316    0.8042   -0.4816 H   0  0  0  0  0  0  0  0  0  0  0  0
   -0.9583   -0.6378   -1.5262 H   0  0  0  0  0  0  0  0  0  0  0  0
   -0.9747   -2.1926    0.3166 H   0  0  0  0  0  0  0  0  0  0  0  0
   -1.1305   -0.8533    1.5286 H   0  0  0  0  0  0  0  0  0  0  0  0
   -2.9169   -1.4551   -0.8601 H   0  0  0  0  0  0  0  0  0  0  0  0
   -3.2346   -2.0812    0.8259 H   0  0  0  0  0  0  0  0  0  0  0  0
   -6.8252   -0.6159    0.6488 H   0  0  0  0  0  0  0  0  0  0  0  0
   -5.6208   -0.7509    1.9654 H   0  0  0  0  0  0  0  0  0  0  0  0
   -5.4462   -1.8301    0.5621 H   0  0  0  0  0  0  0  0  0  0  0  0
   -6.4435    1.7173    0.4227 H   0  0  0  0  0  0  0  0  0  0  0  0
   -5.4896    1.4513    1.8792 H   0  0  0  0  0  0  0  0  0  0  0  0
   -4.7436    2.4402    0.5312 H   0  0  0  0  0  0  0  0  0  0  0  0
   -5.9046    0.6332   -1.6963 H   0  0  0  0  0  0  0  0  0  0  0  0
   -4.8869   -0.8337   -1.5920 H   0  0  0  0  0  0  0  0  0  0  0  0
   -4.0545    0.7426   -1.6537 H   0  0  0  0  0  0  0  0  0  0  0  0
    0.6186    1.9693    0.3305 H   0  0  0  0  0  0  0  0  0  0  0  0
    3.1086    2.2040    0.5152 H   0  0  0  0  0  0  0  0  0  0  0  0
  1  2  1  0
  2  3  1  0
  2  4  1  0
  2  5  1  0
  5  6  2  0
  6  7  1  0
  7  8  2  0
  8  9  1  0
  9 10  1  0
 10 11  1  0
 11 12  1  0
 12 13  2  0
 12 14  1  0
 14 15  1  0
 14 16  1  0
 14 17  1  0
  8 18  1  0
 18 19  2  0
 19  5  1  0
  1 20  1  0
  1 21  1  0
  1 22  1  0
  3 23  1  0
  3 24  1  0
  3 25  1  0
  4 26  1  0
  4 27  1  0
  4 28  1  0
  6 29  1  0
  7 30  1  0
  9 31  1  0
  9 32  1  0
 10 33  1  0
 10 34  1  0
 11 35  1  0
 11 36  1  0
 15 37  1  0
 15 38  1  0
 15 39  1  0
 16 40  1  0
 16 41  1  0
 16 42  1  0
 17 43  1  0
 17 44  1  0
 17 45  1  0
 18 46  1  0
 19 47  1  0
M  END
$$$$
[H]OC(=O)c1c([H])c([H])c([H])c(N([H])[C@]2([H])C([H])([H])C([H])([H])N(c3c([H])c([H])c([H])c([H])c3[H])C([H])([H])[C@]2([H])C(C([H])([H])[H])(C([H])([H])[H])C([H])([H])[H])c1[H]
     RDKit          3D

 54 56  0  0  0  0  0  0  0  0999 V2000
    0.0901   -3.1690    0.7139 C   0  0  0  0  0  0  0  0  0  0  0  0
   -0.5245   -2.6077   -0.5155 C   0  0  0  0  0  0  0  0  0  0  0  0
    0.2960   -3.0939   -1.7002 C   0  0  0  0  0  0  0  0  0  0  0  0
   -1.8955   -3.2767   -0.6741 C   0  0  0  0  0  0  0  0  0  0  0  0
   -0.6660   -1.1201   -0.5533 C   0  0  1  0  0  0  0  0  0  0  0  0
   -1.5355   -0.5966    0.5880 C   0  0  0  0  0  0  0  0  0  0  0  0
   -1.9773    0.7029    0.1364 N   0  0  0  0  0  0  0  0  0  0  0  0
   -1.2278    1.4279   -0.8208 C   0  0  0  0  0  0  0  0  0  0  0  0
    0.1972    1.0905   -0.9873 C   0  0  0  0  0  0  0  0  0  0  0  0
    0.5860   -0.3460   -0.6869 C   0  0  1  0  0  0  0  0  0  0  0  0
    1.4182   -0.3198    0.4761 N   0  0  0  0  0  0  0  0  0  0  0  0
    2.6975    0.2877    0.5260 C   0  0  0  0  0  0  0  0  0  0  0  0
    3.4381    0.3578    1.7001 C   0  0  0  0  0  0  0  0  0  0  0  0
    4.6831    0.9323    1.7789 C   0  0  0  0  0  0  0  0  0  0  0  0
    5.2421    1.4705    0.6520 C   0  0  0  0  0  0  0  0  0  0  0  0
    4.5244    1.4161   -0.5422 C   0  0  0  0  0  0  0  0  0  0  0  0
    3.2759    0.8344   -0.5983 C   0  0  0  0  0  0  0  0  0  0  0  0
    5.1216    1.9894   -1.7399 C   0  0  0  0  0  0  0  0  0  0  0  0
    6.3832    2.5774   -1.6859 O   0  0  0  0  0  0  0  0  0  0  0  0
    4.4803    1.9468   -2.8298 O   0  0  0  0  0  0  0  0  0  0  0  0
   -3.1676    1.2580    0.6557 C   0  0  0  0  0  0  0  0  0  0  0  0
   -3.8561    0.6419    1.7092 C   0  0  0  0  0  0  0  0  0  0  0  0
   -5.0166    1.1776    2.2102 C   0  0  0  0  0  0  0  0  0  0  0  0
   -5.5640    2.3355    1.7138 C   0  0  0  0  0  0  0  0  0  0  0  0
   -4.9068    2.9514    0.6856 C   0  0  0  0  0  0  0  0  0  0  0  0
   -3.7469    2.4281    0.1747 C   0  0  0  0  0  0  0  0  0  0  0  0
   -0.1733   -4.2600    0.7592 H   0  0  0  0  0  0  0  0  0  0  0  0
    1.1969   -3.1313    0.7295 H   0  0  0  0  0  0  0  0  0  0  0  0
   -0.3228   -2.7372    1.6531 H   0  0  0  0  0  0  0  0  0  0  0  0
    0.0967   -2.4549   -2.6012 H   0  0  0  0  0  0  0  0  0  0  0  0
    1.3655   -3.0037   -1.4574 H   0  0  0  0  0  0  0  0  0  0  0  0
    0.0614   -4.1584   -1.8936 H   0  0  0  0  0  0  0  0  0  0  0  0
   -1.6520   -4.3445   -0.9487 H   0  0  0  0  0  0  0  0  0  0  0  0
   -2.4561   -3.3093    0.2588 H   0  0  0  0  0  0  0  0  0  0  0  0
   -2.4469   -2.8660   -1.5396 H   0  0  0  0  0  0  0  0  0  0  0  0
   -1.2787   -0.8989   -1.4810 H   0  0  0  0  0  0  0  0  0  0  0  0
   -2.3851   -1.3204    0.7054 H   0  0  0  0  0  0  0  0  0  0  0  0
   -1.0087   -0.5785    1.5419 H   0  0  0  0  0  0  0  0  0  0  0  0
   -1.8139    1.4049   -1.7839 H   0  0  0  0  0  0  0  0  0  0  0  0
   -1.2850    2.5185   -0.5214 H   0  0  0  0  0  0  0  0  0  0  0  0
    0.4678    1.2776   -2.0692 H   0  0  0  0  0  0  0  0  0  0  0  0
    0.8183    1.8115   -0.4203 H   0  0  0  0  0  0  0  0  0  0  0  0
    1.1958   -0.7784   -1.5168 H   0  0  0  0  0  0  0  0  0  0  0  0
    1.0722   -0.7715    1.3479 H   0  0  0  0  0  0  0  0  0  0  0  0
    3.0218   -0.0610    2.6144 H   0  0  0  0  0  0  0  0  0  0  0  0
    5.2163    0.9549    2.7399 H   0  0  0  0  0  0  0  0  0  0  0  0
    6.2210    1.9237    0.7080 H   0  0  0  0  0  0  0  0  0  0  0  0
    2.7862    0.8340   -1.5714 H   0  0  0  0  0  0  0  0  0  0  0  0
    6.9126    2.7445   -2.5266 H   0  0  0  0  0  0  0  0  0  0  0  0
   -3.4231   -0.2710    2.1009 H   0  0  0  0  0  0  0  0  0  0  0  0
   -5.5081    0.6606    3.0248 H   0  0  0  0  0  0  0  0  0  0  0  0
   -6.4875    2.7208    2.1458 H   0  0  0  0  0  0  0  0  0  0  0  0
   -5.3015    3.8557    0.2713 H   0  0  0  0  0  0  0  0  0  0  0  0
   -3.2387    2.9419   -0.6564 H   0  0  0  0  0  0  0  0  0  0  0  0
  1  2  1  0
  2  3  1  0
  2  4  1  0
  2  5  1  0
  5  6  1  0
  6  7  1  0
  7  8  1  0
  8  9  1  0
  9 10  1  0
 10 11  1  0
 11 12  1  0
 12 13  2  0
 13 14  1  0
 14 15  2  0
 15 16  1  0
 16 17  2  0
 16 18  1  0
 18 19  1  0
 18 20  2  0
  7 21  1  0
 21 22  2  0
 22 23  1  0
 23 24  2  0
 24 25  1  0
 25 26  2  0
 10  5  1  0
 17 12  1  0
 26 21  1  0
  1 27  1  0
  1 28  1  0
  1 29  1  0
  3 30  1  0
  3 31  1  0
  3 32  1  0
  4 33  1  0
  4 34  1  0
  4 35  1  0
  5 36  1  6
  6 37  1  0
  6 38  1  0
  8 39  1  0
  8 40  1  0
  9 41  1  0
  9 42  1  0
 10 43  1  6
 11 44  1  0
 13 45  1  0
 14 46  1  0
 15 47  1  0
 17 48  1  0
 19 49  1  0
 22 50  1  0
 23 51  1  0
 24 52  1  0
 25 53  1  0
 26 54  1  0
M  END
$$$$
[H]Oc1c([H])c([H])c2c([H])c(C#N)c(C(O[H])(C([H])([H])[H])C([H])([H])C([H])([H])C([H])([H])C([H])([H])[H])c([H])c2c1[H]
     RDKit          3D

 39 40  0  0  0  0  0  0  0  0999 V2000
   -4.7168    1.1512   -0.1468 C   0  0  0  0  0  0  0  0  0  0  0  0
   -4.3103    0.3571    1.0495 C   0  0  0  0  0  0  0  0  0  0  0  0
   -3.2321   -0.6565    0.7327 C   0  0  0  0  0  0  0  0  0  0  0  0
   -2.0039    0.1110    0.2044 C   0  0  0  0  0  0  0  0  0  0  0  0
   -0.9213   -0.9026   -0.1144 C   0  0  0  0  0  0  0  0  0  0  0  0
   -1.3847   -1.8726   -1.1611 C   0  0  0  0  0  0  0  0  0  0  0  0
   -0.8446   -1.6601    1.1035 O   0  0  0  0  0  0  0  0  0  0  0  0
    0.4140   -0.3570   -0.2983 C   0  0  0  0  0  0  0  0  0  0  0  0
    1.4495   -0.5528    0.6250 C   0  0  0  0  0  0  0  0  0  0  0  0
    2.7065   -0.0225    0.4772 C   0  0  0  0  0  0  0  0  0  0  0  0
    3.6852   -0.2677    1.4495 C   0  0  0  0  0  0  0  0  0  0  0  0
    4.9528    0.2564    1.3186 C   0  0  0  0  0  0  0  0  0  0  0  0
    5.9242    0.0059    2.2955 O   0  0  0  0  0  0  0  0  0  0  0  0
    5.2123    1.0246    0.2001 C   0  0  0  0  0  0  0  0  0  0  0  0
    4.2726    1.2757   -0.7595 C   0  0  0  0  0  0  0  0  0  0  0  0
    2.9986    0.7472   -0.6250 C   0  0  0  0  0  0  0  0  0  0  0  0
    2.0098    0.9601   -1.5505 C   0  0  0  0  0  0  0  0  0  0  0  0
    0.7409    0.4108   -1.3792 C   0  0  0  0  0  0  0  0  0  0  0  0
   -0.1923    0.6735   -2.4164 C   0  0  0  0  0  0  0  0  0  0  0  0
   -0.9339    0.8800   -3.2814 N   0  0  0  0  0  0  0  0  0  0  0  0
   -5.7876    1.4489   -0.0778 H   0  0  0  0  0  0  0  0  0  0  0  0
   -4.5752    0.6390   -1.1024 H   0  0  0  0  0  0  0  0  0  0  0  0
   -4.1536    2.1268   -0.2265 H   0  0  0  0  0  0  0  0  0  0  0  0
   -5.1757   -0.1436    1.5091 H   0  0  0  0  0  0  0  0  0  0  0  0
   -3.9017    1.0644    1.8028 H   0  0  0  0  0  0  0  0  0  0  0  0
   -3.5947   -1.2526   -0.1300 H   0  0  0  0  0  0  0  0  0  0  0  0
   -2.9839   -1.2974    1.5754 H   0  0  0  0  0  0  0  0  0  0  0  0
   -2.3820    0.5464   -0.7328 H   0  0  0  0  0  0  0  0  0  0  0  0
   -1.7169    0.8124    0.9823 H   0  0  0  0  0  0  0  0  0  0  0  0
   -1.7424   -2.8091   -0.7275 H   0  0  0  0  0  0  0  0  0  0  0  0
   -0.5994   -2.1027   -1.9047 H   0  0  0  0  0  0  0  0  0  0  0  0
   -2.2318   -1.4058   -1.7407 H   0  0  0  0  0  0  0  0  0  0  0  0
   -1.3911   -2.4593    1.0512 H   0  0  0  0  0  0  0  0  0  0  0  0
    1.2370   -1.1537    1.4944 H   0  0  0  0  0  0  0  0  0  0  0  0
    3.4291   -0.8786    2.3103 H   0  0  0  0  0  0  0  0  0  0  0  0
    6.8363    0.4174    2.1444 H   0  0  0  0  0  0  0  0  0  0  0  0
    6.1944    1.4439    0.0768 H   0  0  0  0  0  0  0  0  0  0  0  0
    4.4592    1.8699   -1.6329 H   0  0  0  0  0  0  0  0  0  0  0  0
    2.2533    1.5720   -2.4201 H   0  0  0  0  0  0  0  0  0  0  0  0
  1  2  1  0
  2  3  1  0
  3  4  1  0
  4  5  1  0
  5  6  1  0
  5  7  1  0
  5  8  1  0
  8  9  2  0
  9 10  1  0
 10 11  2  0
 11 12  1  0
 12 13  1  0
 12 14  2  0
 14 15  1  0
 15 16  2  0
 16 17  1  0
 17 18  2  0
 18 19  1  0
 19 20  3  0
 18  8  1  0
 16 10  1  0
  1 21  1  0
  1 22  1  0
  1 23  1  0
  2 24  1  0
  2 25  1  0
  3 26  1  0
  3 27  1  0
  4 28  1  0
  4 29  1  0
  6 30  1  0
  6 31  1  0
  6 32  1  0
  7 33  1  0
  9 34  1  0
 11 35  1  0
 13 36  1  0
 14 37  1  0
 15 38  1  0
 17 39  1  0
M  END
$$$$
[H]c1c([H])c(C(C([H])([H])[H])(C([H])([H])[H])C([H])([H])[H])c([H])c([H])c1C(=O)N([H])C([H])([H])[C@]1([H])C([H])([H])[C@]2([H])N(C(=O)OC(C([H])([H])[H])(C([H])([H])[H])C([H])([H])[H])[C@@]1([H])C([H])([H])C2([H])[H]
     RDKit          3D

 62 64  0  0  0  0  0  0  0  0999 V2000
    7.5671   -0.1870    0.8035 C   0  0  0  0  0  0  0  0  0  0  0  0
    6.8089    0.8840    0.0324 C   0  0  0  0  0  0  0  0  0  0  0  0
    7.4712    0.9738   -1.3211 C   0  0  0  0  0  0  0  0  0  0  0  0
    6.9481    2.2270    0.7041 C   0  0  0  0  0  0  0  0  0  0  0  0
    5.3732    0.5487   -0.0878 C   0  0  0  0  0  0  0  0  0  0  0  0
    4.7241    0.3903   -1.2930 C   0  0  0  0  0  0  0  0  0  0  0  0
    3.3903    0.0756   -1.3100 C   0  0  0  0  0  0  0  0  0  0  0  0
    2.6383   -0.0969   -0.1720 C   0  0  0  0  0  0  0  0  0  0  0  0
    3.2750    0.0586    1.0250 C   0  0  0  0  0  0  0  0  0  0  0  0
    4.6357    0.3799    1.0701 C   0  0  0  0  0  0  0  0  0  0  0  0
    1.2034   -0.4504   -0.2877 C   0  0  0  0  0  0  0  0  0  0  0  0
    0.8399   -0.8463   -1.4059 O   0  0  0  0  0  0  0  0  0  0  0  0
    0.3260   -0.3428    0.7938 N   0  0  0  0  0  0  0  0  0  0  0  0
   -1.0317   -0.6085    1.0051 C   0  0  0  0  0  0  0  0  0  0  0  0
   -1.6031   -1.9692    0.9463 C   0  0  1  0  0  0  0  0  0  0  0  0
   -3.1077   -1.7584    1.3267 C   0  0  2  0  0  0  0  0  0  0  0  0
   -3.7407   -3.1188    1.5276 C   0  0  0  0  0  0  0  0  0  0  0  0
   -4.0090   -3.6302    0.1023 C   0  0  0  0  0  0  0  0  0  0  0  0
   -3.2806   -2.5767   -0.7080 C   0  0  2  0  0  0  0  0  0  0  0  0
   -1.7947   -2.6589   -0.3560 C   0  0  0  0  0  0  0  0  0  0  0  0
   -3.6301   -1.4001    0.0500 N   0  0  0  0  0  0  0  0  0  0  0  0
   -4.3072   -0.2722   -0.4259 C   0  0  0  0  0  0  0  0  0  0  0  0
   -4.6889   -0.1654   -1.6425 O   0  0  0  0  0  0  0  0  0  0  0  0
   -4.6277    0.8295    0.3716 O   0  0  0  0  0  0  0  0  0  0  0  0
   -5.3198    1.9491   -0.1576 C   0  0  0  0  0  0  0  0  0  0  0  0
   -6.6905    1.5441   -0.7092 C   0  0  0  0  0  0  0  0  0  0  0  0
   -5.6070    2.8772    1.0132 C   0  0  0  0  0  0  0  0  0  0  0  0
   -4.5469    2.6618   -1.2324 C   0  0  0  0  0  0  0  0  0  0  0  0
    7.3056   -1.1522    0.3272 H   0  0  0  0  0  0  0  0  0  0  0  0
    8.6415   -0.0290    0.6228 H   0  0  0  0  0  0  0  0  0  0  0  0
    7.3687   -0.1556    1.8754 H   0  0  0  0  0  0  0  0  0  0  0  0
    7.5433   -0.0344   -1.7675 H   0  0  0  0  0  0  0  0  0  0  0  0
    7.0162    1.7322   -1.9801 H   0  0  0  0  0  0  0  0  0  0  0  0
    8.5213    1.3317   -1.1192 H   0  0  0  0  0  0  0  0  0  0  0  0
    8.0324    2.5050    0.6476 H   0  0  0  0  0  0  0  0  0  0  0  0
    6.6313    2.1266    1.7543 H   0  0  0  0  0  0  0  0  0  0  0  0
    6.3310    2.9479    0.1484 H   0  0  0  0  0  0  0  0  0  0  0  0
    5.3057    0.5233   -2.1932 H   0  0  0  0  0  0  0  0  0  0  0  0
    2.9161   -0.0408   -2.2753 H   0  0  0  0  0  0  0  0  0  0  0  0
    2.7697   -0.0604    1.9561 H   0  0  0  0  0  0  0  0  0  0  0  0
    5.1119    0.4967    2.0337 H   0  0  0  0  0  0  0  0  0  0  0  0
    0.8192    0.0509    1.7151 H   0  0  0  0  0  0  0  0  0  0  0  0
   -1.6749    0.0159    0.2830 H   0  0  0  0  0  0  0  0  0  0  0  0
   -1.3544   -0.1676    2.0171 H   0  0  0  0  0  0  0  0  0  0  0  0
   -1.1626   -2.6563    1.7264 H   0  0  0  0  0  0  0  0  0  0  0  0
   -3.2212   -1.0593    2.1292 H   0  0  0  0  0  0  0  0  0  0  0  0
   -4.6755   -2.9854    2.0811 H   0  0  0  0  0  0  0  0  0  0  0  0
   -3.0470   -3.8535    1.9845 H   0  0  0  0  0  0  0  0  0  0  0  0
   -3.6108   -4.6356   -0.0527 H   0  0  0  0  0  0  0  0  0  0  0  0
   -5.0876   -3.5135   -0.1019 H   0  0  0  0  0  0  0  0  0  0  0  0
   -3.4973   -2.5529   -1.7557 H   0  0  0  0  0  0  0  0  0  0  0  0
   -1.1754   -2.4029   -1.1933 H   0  0  0  0  0  0  0  0  0  0  0  0
   -1.6472   -3.7891   -0.1848 H   0  0  0  0  0  0  0  0  0  0  0  0
   -6.8429    0.4801   -0.4046 H   0  0  0  0  0  0  0  0  0  0  0  0
   -7.5094    2.1305   -0.2760 H   0  0  0  0  0  0  0  0  0  0  0  0
   -6.6640    1.6005   -1.8150 H   0  0  0  0  0  0  0  0  0  0  0  0
   -6.5183    3.4847    0.7985 H   0  0  0  0  0  0  0  0  0  0  0  0
   -5.8786    2.2185    1.8696 H   0  0  0  0  0  0  0  0  0  0  0  0
   -4.7371    3.4957    1.2840 H   0  0  0  0  0  0  0  0  0  0  0  0
   -4.7243    3.7674   -1.0861 H   0  0  0  0  0  0  0  0  0  0  0  0
   -5.0244    2.4394   -2.2283 H   0  0  0  0  0  0  0  0  0  0  0  0
   -3.4765    2.4234   -1.2360 H   0  0  0  0  0  0  0  0  0  0  0  0
  1  2  1  0
  2  3  1  0
  2  4  1  0
  2  5  1  0
  5  6  2  0
  6  7  1  0
  7  8  2  0
  8  9  1  0
  9 10  2  0
  8 11  1  0
 11 12  2  0
 11 13  1  0
 13 14  1  0
 14 15  1  0
 15 16  1  0
 16 17  1  0
 17 18  1  0
 18 19  1  0
 19 20  1  0
 19 21  1  0
 21 22  1  0
 22 23  2  0
 22 24  1  0
 24 25  1  0
 25 26  1  0
 25 27  1  0
 25 28  1  0
 10  5  1  0
 20 15  1  0
 21 16  1  0
  1 29  1  0
  1 30  1  0
  1 31  1  0
  3 32  1  0
  3 33  1  0
  3 34  1  0
  4 35  1  0
  4 36  1  0
  4 37  1  0
  6 38  1  0
  7 39  1  0
  9 40  1  0
 10 41  1  0
 13 42  1  0
 14 43  1  0
 14 44  1  0
 15 45  1  1
 16 46  1  1
 17 47  1  0
 17 48  1  0
 18 49  1  0
 18 50  1  0
 19 51  1  6
 20 52  1  0
 20 53  1  0
 26 54  1  0
 26 55  1  0
 26 56  1  0
 27 57  1  0
 27 58  1  0
 27 59  1  0
 28 60  1  0
 28 61  1  0
 28 62  1  0
M  END
$$$$
[H]c1c([H])c2c(c([H])c1OC(=O)C(C([H])([H])[H])(C([H])([H])[H])C([H])([H])[H])C1(C(=O)N2[H])C([H])([H])C([H])([H])C([H])([H])C([H])([H])C1([H])[H]
     RDKit          3D

 45 47  0  0  0  0  0  0  0  0999 V2000
    5.0451    1.4505    0.1787 C   0  0  0  0  0  0  0  0  0  0  0  0
    4.3224    0.3984   -0.6319 C   0  0  0  0  0  0  0  0  0  0  0  0
    5.2489   -0.7872   -0.7960 C   0  0  0  0  0  0  0  0  0  0  0  0
    4.0891    0.9796   -2.0101 C   0  0  0  0  0  0  0  0  0  0  0  0
    3.0656    0.0426    0.0453 C   0  0  0  0  0  0  0  0  0  0  0  0
    2.7350    0.5895    1.1306 O   0  0  0  0  0  0  0  0  0  0  0  0
    2.1916   -0.9023   -0.4713 O   0  0  0  0  0  0  0  0  0  0  0  0
    1.0141   -1.2094    0.2004 C   0  0  0  0  0  0  0  0  0  0  0  0
    1.0666   -2.2285    1.1259 C   0  0  0  0  0  0  0  0  0  0  0  0
   -0.0893   -2.5385    1.7930 C   0  0  0  0  0  0  0  0  0  0  0  0
   -1.2740   -1.8233    1.5211 C   0  0  0  0  0  0  0  0  0  0  0  0
   -2.5815   -1.9685    2.0796 N   0  0  0  0  0  0  0  0  0  0  0  0
   -3.4445   -1.0255    1.4868 C   0  0  0  0  0  0  0  0  0  0  0  0
   -4.6829   -0.9347    1.7939 O   0  0  0  0  0  0  0  0  0  0  0  0
   -2.6636   -0.2535    0.5322 C   0  0  0  0  0  0  0  0  0  0  0  0
   -3.1580   -0.4956   -0.8800 C   0  0  0  0  0  0  0  0  0  0  0  0
   -3.7753    0.6974   -1.5260 C   0  0  0  0  0  0  0  0  0  0  0  0
   -4.7533    1.3601   -0.5821 C   0  0  0  0  0  0  0  0  0  0  0  0
   -4.0640    1.7491    0.7100 C   0  0  0  0  0  0  0  0  0  0  0  0
   -2.6709    1.2314    0.7982 C   0  0  0  0  0  0  0  0  0  0  0  0
   -1.3026   -0.8188    0.6014 C   0  0  0  0  0  0  0  0  0  0  0  0
   -0.1207   -0.4942   -0.0879 C   0  0  0  0  0  0  0  0  0  0  0  0
    5.4137    0.9675    1.1223 H   0  0  0  0  0  0  0  0  0  0  0  0
    5.8348    1.9121   -0.4117 H   0  0  0  0  0  0  0  0  0  0  0  0
    4.3393    2.2611    0.4849 H   0  0  0  0  0  0  0  0  0  0  0  0
    4.8110   -1.5000   -1.5235 H   0  0  0  0  0  0  0  0  0  0  0  0
    5.4433   -1.2978    0.1655 H   0  0  0  0  0  0  0  0  0  0  0  0
    6.2179   -0.4149   -1.1716 H   0  0  0  0  0  0  0  0  0  0  0  0
    3.4336    1.8811   -1.9539 H   0  0  0  0  0  0  0  0  0  0  0  0
    3.7141    0.2209   -2.7113 H   0  0  0  0  0  0  0  0  0  0  0  0
    5.0772    1.3282   -2.3913 H   0  0  0  0  0  0  0  0  0  0  0  0
    1.9749   -2.7767    1.3342 H   0  0  0  0  0  0  0  0  0  0  0  0
   -0.1004   -3.3267    2.5258 H   0  0  0  0  0  0  0  0  0  0  0  0
   -2.8148   -2.6821    2.8157 H   0  0  0  0  0  0  0  0  0  0  0  0
   -3.9476   -1.3013   -0.8509 H   0  0  0  0  0  0  0  0  0  0  0  0
   -2.3589   -0.8706   -1.5484 H   0  0  0  0  0  0  0  0  0  0  0  0
   -2.9848    1.4251   -1.8076 H   0  0  0  0  0  0  0  0  0  0  0  0
   -4.3298    0.3622   -2.4151 H   0  0  0  0  0  0  0  0  0  0  0  0
   -5.1451    2.2544   -1.1008 H   0  0  0  0  0  0  0  0  0  0  0  0
   -5.6144    0.6860   -0.4195 H   0  0  0  0  0  0  0  0  0  0  0  0
   -4.6987    1.5046    1.5666 H   0  0  0  0  0  0  0  0  0  0  0  0
   -3.9726    2.8785    0.7253 H   0  0  0  0  0  0  0  0  0  0  0  0
   -2.0673    1.7016   -0.0070 H   0  0  0  0  0  0  0  0  0  0  0  0
   -2.2528    1.4619    1.7798 H   0  0  0  0  0  0  0  0  0  0  0  0
   -0.1706    0.3063   -0.8121 H   0  0  0  0  0  0  0  0  0  0  0  0
  1  2  1  0
  2  3  1  0
  2  4  1  0
  2  5  1  0
  5  6  2  0
  5  7  1  0
  7  8  1  0
  8  9  2  0
  9 10  1  0
 10 11  2  0
 11 12  1  0
 12 13  1  0
 13 14  2  0
 13 15  1  0
 15 16  1  0
 16 17  1  0
 17 18  1  0
 18 19  1  0
 19 20  1  0
 15 21  1  0
 21 22  2  0
 22  8  1  0
 21 11  1  0
 20 15  1  0
  1 23  1  0
  1 24  1  0
  1 25  1  0
  3 26  1  0
  3 27  1  0
  3 28  1  0
  4 29  1  0
  4 30  1  0
  4 31  1  0
  9 32  1  0
 10 33  1  0
 12 34  1  0
 16 35  1  0
 16 36  1  0
 17 37  1  0
 17 38  1  0
 18 39  1  0
 18 40  1  0
 19 41  1  0
 19 42  1  0
 20 43  1  0
 20 44  1  0
 22 45  1  0
M  END
$$$$
[H]Oc1c([H])c([H])c2c([H])c(N([H])C(=O)c3c([H])c([H])c(C(=O)C(F)(F)F)c([H])c3[H])c(C([H])([H])N(C([H])([H])[H])C([H])([H])C([H])([H])C([H])([H])C([H])([H])[H])c([H])c2c1[H]
     RDKit          3D

 58 60  0  0  0  0  0  0  0  0999 V2000
   -4.0261   -3.7148   -2.3373 C   0  0  0  0  0  0  0  0  0  0  0  0
   -4.7691   -3.3311   -1.0936 C   0  0  0  0  0  0  0  0  0  0  0  0
   -4.4948   -1.8766   -0.7885 C   0  0  0  0  0  0  0  0  0  0  0  0
   -3.0229   -1.6894   -0.5840 C   0  0  0  0  0  0  0  0  0  0  0  0
   -2.7491   -0.2615   -0.2833 N   0  0  0  0  0  0  0  0  0  0  0  0
   -3.3462   -0.0231    1.0527 C   0  0  0  0  0  0  0  0  0  0  0  0
   -1.3142   -0.0709   -0.1998 C   0  0  0  0  0  0  0  0  0  0  0  0
   -0.9860    1.3557   -0.1176 C   0  0  0  0  0  0  0  0  0  0  0  0
   -1.9788    2.2945   -0.2111 C   0  0  0  0  0  0  0  0  0  0  0  0
   -1.6571    3.6566   -0.1637 C   0  0  0  0  0  0  0  0  0  0  0  0
   -2.6629    4.5984   -0.2582 C   0  0  0  0  0  0  0  0  0  0  0  0
   -2.3622    5.9190   -0.2140 C   0  0  0  0  0  0  0  0  0  0  0  0
   -3.3622    6.8877   -0.3078 O   0  0  0  0  0  0  0  0  0  0  0  0
   -1.0392    6.2955   -0.0735 C   0  0  0  0  0  0  0  0  0  0  0  0
   -0.0115    5.3535    0.0233 C   0  0  0  0  0  0  0  0  0  0  0  0
   -0.3431    4.0161   -0.0243 C   0  0  0  0  0  0  0  0  0  0  0  0
    0.6634    3.0466    0.0695 C   0  0  0  0  0  0  0  0  0  0  0  0
    0.3781    1.7042    0.0265 C   0  0  0  0  0  0  0  0  0  0  0  0
    1.3033    0.6517    0.1089 N   0  0  0  0  0  0  0  0  0  0  0  0
    2.6845    0.7353    0.2601 C   0  0  0  0  0  0  0  0  0  0  0  0
    3.2791    1.8335    0.3474 O   0  0  0  0  0  0  0  0  0  0  0  0
    3.5361   -0.4848    0.3277 C   0  0  0  0  0  0  0  0  0  0  0  0
    3.0897   -1.6670   -0.1472 C   0  0  0  0  0  0  0  0  0  0  0  0
    3.9123   -2.8013   -0.0630 C   0  0  0  0  0  0  0  0  0  0  0  0
    5.1697   -2.7543    0.4908 C   0  0  0  0  0  0  0  0  0  0  0  0
    5.5948   -1.5365    0.9648 C   0  0  0  0  0  0  0  0  0  0  0  0
    4.7989   -0.4077    0.8908 C   0  0  0  0  0  0  0  0  0  0  0  0
    6.0278   -3.9177    0.5837 C   0  0  0  0  0  0  0  0  0  0  0  0
    5.6136   -5.0487    0.1443 O   0  0  0  0  0  0  0  0  0  0  0  0
    7.3820   -3.8785    1.1666 C   0  0  0  0  0  0  0  0  0  0  0  0
    8.1633   -3.0194    0.4095 F   0  0  0  0  0  0  0  0  0  0  0  0
    7.9415   -5.1245    1.0913 F   0  0  0  0  0  0  0  0  0  0  0  0
    7.3655   -3.5123    2.5018 F   0  0  0  0  0  0  0  0  0  0  0  0
   -3.8714   -2.8846   -3.0519 H   0  0  0  0  0  0  0  0  0  0  0  0
   -3.0388   -4.1587   -2.0784 H   0  0  0  0  0  0  0  0  0  0  0  0
   -4.6159   -4.5060   -2.8660 H   0  0  0  0  0  0  0  0  0  0  0  0
   -5.8622   -3.5454   -1.1515 H   0  0  0  0  0  0  0  0  0  0  0  0
   -4.3375   -3.9052   -0.2232 H   0  0  0  0  0  0  0  0  0  0  0  0
   -5.0460   -1.5232    0.1054 H   0  0  0  0  0  0  0  0  0  0  0  0
   -4.8600   -1.2794   -1.6635 H   0  0  0  0  0  0  0  0  0  0  0  0
   -2.4557   -1.9262   -1.4951 H   0  0  0  0  0  0  0  0  0  0  0  0
   -2.7003   -2.2522    0.2946 H   0  0  0  0  0  0  0  0  0  0  0  0
   -3.5442   -0.9855    1.5573 H   0  0  0  0  0  0  0  0  0  0  0  0
   -4.3044    0.4808    0.9160 H   0  0  0  0  0  0  0  0  0  0  0  0
   -2.5939    0.4999    1.6536 H   0  0  0  0  0  0  0  0  0  0  0  0
   -0.9969   -0.6382    0.7125 H   0  0  0  0  0  0  0  0  0  0  0  0
   -0.7880   -0.5348   -1.0659 H   0  0  0  0  0  0  0  0  0  0  0  0
   -3.0354    2.0705   -0.3405 H   0  0  0  0  0  0  0  0  0  0  0  0
   -3.6894    4.2909   -0.3671 H   0  0  0  0  0  0  0  0  0  0  0  0
   -3.1866    7.8766   -0.2800 H   0  0  0  0  0  0  0  0  0  0  0  0
   -0.8167    7.3443   -0.0399 H   0  0  0  0  0  0  0  0  0  0  0  0
    1.0064    5.6931    0.1316 H   0  0  0  0  0  0  0  0  0  0  0  0
    1.6891    3.3666    0.1775 H   0  0  0  0  0  0  0  0  0  0  0  0
    0.9025   -0.3458    0.0539 H   0  0  0  0  0  0  0  0  0  0  0  0
    2.1129   -1.7591   -0.5968 H   0  0  0  0  0  0  0  0  0  0  0  0
    3.5609   -3.7504   -0.4411 H   0  0  0  0  0  0  0  0  0  0  0  0
    6.5804   -1.4208    1.4201 H   0  0  0  0  0  0  0  0  0  0  0  0
    5.1128    0.5646    1.2585 H   0  0  0  0  0  0  0  0  0  0  0  0
  1  2  1  0
  2  3  1  0
  3  4  1  0
  4  5  1  0
  5  6  1  0
  5  7  1  0
  7  8  1  0
  8  9  2  0
  9 10  1  0
 10 11  2  0
 11 12  1  0
 12 13  1  0
 12 14  2  0
 14 15  1  0
 15 16  2  0
 16 17  1  0
 17 18  2  0
 18 19  1  0
 19 20  1  0
 20 21  2  0
 20 22  1  0
 22 23  2  0
 23 24  1  0
 24 25  2  0
 25 26  1  0
 26 27  2  0
 25 28  1  0
 28 29  2  0
 28 30  1  0
 30 31  1  0
 30 32  1  0
 30 33  1  0
 18  8  1  0
 27 22  1  0
 16 10  1  0
  1 34  1  0
  1 35  1  0
  1 36  1  0
  2 37  1  0
  2 38  1  0
  3 39  1  0
  3 40  1  0
  4 41  1  0
  4 42  1  0
  6 43  1  0
  6 44  1  0
  6 45  1  0
  7 46  1  0
  7 47  1  0
  9 48  1  0
 11 49  1  0
 13 50  1  0
 14 51  1  0
 15 52  1  0
 17 53  1  0
 19 54  1  0
 23 55  1  0
 24 56  1  0
 26 57  1  0
 27 58  1  0
M  END
$$$$
