[H]/C(=C1/C(=O)N([H])c2c([H])c([H])c(F)c([H])c21)c1c(C([H])([H])[H])c(C(=O)N([H])C([H])([H])C([H])([H])N(C([H])([H])C([H])([H])[H])C([H])([H])C([H])([H])[H])c(C([H])([H])[H])n1[H]
     RDKit          3D

 56 58  0  0  0  0  0  0  0  0999 V2000
   -5.0714    1.8670   -1.0108 C   0  0  0  0  0  0  0  0  0  0  0  0
   -5.3461    0.3881   -0.8275 C   0  0  0  0  0  0  0  0  0  0  0  0
   -4.6170   -0.1646    0.3206 N   0  0  0  0  0  0  0  0  0  0  0  0
   -5.1790    0.4151    1.5016 C   0  0  0  0  0  0  0  0  0  0  0  0
   -4.5345   -0.0334    2.7742 C   0  0  0  0  0  0  0  0  0  0  0  0
   -4.6501   -1.5699    0.2637 C   0  0  0  0  0  0  0  0  0  0  0  0
   -3.7757   -2.2111   -0.7540 C   0  0  0  0  0  0  0  0  0  0  0  0
   -2.3731   -2.1323   -0.6218 N   0  0  0  0  0  0  0  0  0  0  0  0
   -1.4740   -1.0577   -0.5954 C   0  0  0  0  0  0  0  0  0  0  0  0
   -1.9007    0.1569   -0.6986 O   0  0  0  0  0  0  0  0  0  0  0  0
   -0.0260   -1.1673   -0.4518 C   0  0  0  0  0  0  0  0  0  0  0  0
    0.8308   -2.2047   -0.6599 C   0  0  0  0  0  0  0  0  0  0  0  0
    0.5183   -3.5624   -1.1880 C   0  0  0  0  0  0  0  0  0  0  0  0
    2.1148   -1.8439   -0.3380 N   0  0  0  0  0  0  0  0  0  0  0  0
    2.0987   -0.5939    0.0716 C   0  0  0  0  0  0  0  0  0  0  0  0
    3.1774    0.2565    0.5004 C   0  0  0  0  0  0  0  0  0  0  0  0
    4.2152    0.5258   -0.2368 C   0  0  0  0  0  0  0  0  0  0  0  0
    4.5400    0.0878   -1.5770 C   0  0  0  0  0  0  0  0  0  0  0  0
    3.8503   -0.6552   -2.3249 O   0  0  0  0  0  0  0  0  0  0  0  0
    5.8118    0.6670   -1.9034 N   0  0  0  0  0  0  0  0  0  0  0  0
    6.2838    1.4437   -0.8228 C   0  0  0  0  0  0  0  0  0  0  0  0
    7.4169    2.1967   -0.6129 C   0  0  0  0  0  0  0  0  0  0  0  0
    7.6451    2.8791    0.5618 C   0  0  0  0  0  0  0  0  0  0  0  0
    6.7134    2.8201    1.5851 C   0  0  0  0  0  0  0  0  0  0  0  0
    6.8926    3.4732    2.7576 F   0  0  0  0  0  0  0  0  0  0  0  0
    5.5872    2.0654    1.3625 C   0  0  0  0  0  0  0  0  0  0  0  0
    5.3509    1.3770    0.1845 C   0  0  0  0  0  0  0  0  0  0  0  0
    0.7763   -0.1375    0.0139 C   0  0  0  0  0  0  0  0  0  0  0  0
    0.3086    1.2202    0.3933 C   0  0  0  0  0  0  0  0  0  0  0  0
   -5.8586    2.4508   -0.5357 H   0  0  0  0  0  0  0  0  0  0  0  0
   -4.0666    2.1489   -0.6432 H   0  0  0  0  0  0  0  0  0  0  0  0
   -5.0551    2.0620   -2.1045 H   0  0  0  0  0  0  0  0  0  0  0  0
   -5.1075   -0.2012   -1.6994 H   0  0  0  0  0  0  0  0  0  0  0  0
   -6.4302    0.2709   -0.5364 H   0  0  0  0  0  0  0  0  0  0  0  0
   -6.2797    0.2912    1.5323 H   0  0  0  0  0  0  0  0  0  0  0  0
   -5.0076    1.5283    1.4040 H   0  0  0  0  0  0  0  0  0  0  0  0
   -5.0445   -0.8560    3.2889 H   0  0  0  0  0  0  0  0  0  0  0  0
   -3.4622   -0.2647    2.6232 H   0  0  0  0  0  0  0  0  0  0  0  0
   -4.5485    0.8322    3.4886 H   0  0  0  0  0  0  0  0  0  0  0  0
   -4.4903   -2.0463    1.2893 H   0  0  0  0  0  0  0  0  0  0  0  0
   -5.7090   -1.9542    0.0302 H   0  0  0  0  0  0  0  0  0  0  0  0
   -4.1207   -3.3053   -0.7880 H   0  0  0  0  0  0  0  0  0  0  0  0
   -4.0214   -1.8378   -1.7910 H   0  0  0  0  0  0  0  0  0  0  0  0
   -1.9069   -3.1170   -0.4939 H   0  0  0  0  0  0  0  0  0  0  0  0
    1.4454   -4.0202   -1.6271 H   0  0  0  0  0  0  0  0  0  0  0  0
   -0.1980   -3.5119   -2.0293 H   0  0  0  0  0  0  0  0  0  0  0  0
    0.1816   -4.2087   -0.3617 H   0  0  0  0  0  0  0  0  0  0  0  0
    2.9340   -2.4990   -0.4118 H   0  0  0  0  0  0  0  0  0  0  0  0
    3.1447    0.7200    1.5125 H   0  0  0  0  0  0  0  0  0  0  0  0
    6.3151    0.5384   -2.8011 H   0  0  0  0  0  0  0  0  0  0  0  0
    8.1416    2.2410   -1.4148 H   0  0  0  0  0  0  0  0  0  0  0  0
    8.5539    3.4777    0.7183 H   0  0  0  0  0  0  0  0  0  0  0  0
    4.8413    2.0008    2.1446 H   0  0  0  0  0  0  0  0  0  0  0  0
    1.1157    1.7992    0.8832 H   0  0  0  0  0  0  0  0  0  0  0  0
   -0.5276    1.1531    1.1483 H   0  0  0  0  0  0  0  0  0  0  0  0
   -0.0237    1.8018   -0.4924 H   0  0  0  0  0  0  0  0  0  0  0  0
  1  2  1  0
  2  3  1  0
  3  4  1  0
  4  5  1  0
  3  6  1  0
  6  7  1  0
  7  8  1  0
  8  9  1  0
  9 10  2  0
  9 11  1  0
 11 12  2  0
 12 13  1  0
 12 14  1  0
 14 15  1  0
 15 16  1  0
 16 17  2  0
 17 18  1  0
 18 19  2  0
 18 20  1  0
 20 21  1  0
 21 22  2  0
 22 23  1  0
 23 24  2  0
 24 25  1  0
 24 26  1  0
 26 27  2  0
 15 28  2  0
 28 29  1  0
 28 11  1  0
 27 17  1  0
 27 21  1  0
  1 30  1  0
  1 31  1  0
  1 32  1  0
  2 33  1  0
  2 34  1  0
  4 35  1  0
  4 36  1  0
  5 37  1  0
  5 38  1  0
  5 39  1  0
  6 40  1  0
  6 41  1  0
  7 42  1  0
  7 43  1  0
  8 44  1  0
 13 45  1  0
 13 46  1  0
 13 47  1  0
 14 48  1  0
 16 49  1  0
 20 50  1  0
 22 51  1  0
 23 52  1  0
 26 53  1  0
 29 54  1  0
 29 55  1  0
 29 56  1  0
M  END
$$$$
[H]C1=C(C([H])([H])N([H])C(=O)c2nc([H])c([H])c([H])c2N([H])[H])C([H])([H])C([H])([H])N(C([H])([H])C([H])([H])N2C(=O)c3c([H])c([H])c([H])c([H])c32)C1([H])[H]
     RDKit          3D

 51 54  0  0  0  0  0  0  0  0999 V2000
    5.8595    0.8972    1.3579 N   0  0  0  0  0  0  0  0  0  0  0  0
    5.7657   -0.4284    1.8579 C   0  0  0  0  0  0  0  0  0  0  0  0
    6.6196   -0.8260    2.8957 C   0  0  0  0  0  0  0  0  0  0  0  0
    6.5108   -2.1130    3.3705 C   0  0  0  0  0  0  0  0  0  0  0  0
    5.5820   -2.9775    2.8297 C   0  0  0  0  0  0  0  0  0  0  0  0
    4.7850   -2.5409    1.8312 N   0  0  0  0  0  0  0  0  0  0  0  0
    4.8472   -1.3064    1.3335 C   0  0  0  0  0  0  0  0  0  0  0  0
    3.9532   -0.8753    0.2234 C   0  0  0  0  0  0  0  0  0  0  0  0
    4.1195    0.2826   -0.1644 O   0  0  0  0  0  0  0  0  0  0  0  0
    3.0421   -1.7658   -0.2693 N   0  0  0  0  0  0  0  0  0  0  0  0
    2.0843   -1.6428   -1.2937 C   0  0  0  0  0  0  0  0  0  0  0  0
    1.0482   -0.6268   -1.0689 C   0  0  0  0  0  0  0  0  0  0  0  0
   -0.2153   -1.0876   -0.8962 C   0  0  0  0  0  0  0  0  0  0  0  0
   -1.2679   -0.0418   -0.6628 C   0  0  0  0  0  0  0  0  0  0  0  0
   -1.1496    0.9095   -1.6791 N   0  0  0  0  0  0  0  0  0  0  0  0
   -2.2461    1.3805   -2.3854 C   0  0  0  0  0  0  0  0  0  0  0  0
   -3.2347    2.2886   -1.7270 C   0  0  0  0  0  0  0  0  0  0  0  0
   -3.9108    1.7621   -0.5805 N   0  0  0  0  0  0  0  0  0  0  0  0
   -5.1180    0.9806   -0.4329 C   0  0  0  0  0  0  0  0  0  0  0  0
   -6.1998    0.3512   -1.0364 C   0  0  0  0  0  0  0  0  0  0  0  0
   -7.1457   -0.3196   -0.2984 C   0  0  0  0  0  0  0  0  0  0  0  0
   -7.0292   -0.3757    1.0672 C   0  0  0  0  0  0  0  0  0  0  0  0
   -5.9681    0.2379    1.7017 C   0  0  0  0  0  0  0  0  0  0  0  0
   -5.0332    0.9046    0.9354 C   0  0  0  0  0  0  0  0  0  0  0  0
   -3.8099    1.6912    0.8503 C   0  0  0  0  0  0  0  0  0  0  0  0
   -2.9637    2.1546    1.6552 O   0  0  0  0  0  0  0  0  0  0  0  0
    0.1016    1.5526   -1.8085 C   0  0  0  0  0  0  0  0  0  0  0  0
    1.2320    0.8381   -1.0910 C   0  0  0  0  0  0  0  0  0  0  0  0
    5.3888    1.6770    1.8515 H   0  0  0  0  0  0  0  0  0  0  0  0
    6.3964    1.1041    0.4977 H   0  0  0  0  0  0  0  0  0  0  0  0
    7.3401   -0.1607    3.3170 H   0  0  0  0  0  0  0  0  0  0  0  0
    7.1635   -2.4641    4.1864 H   0  0  0  0  0  0  0  0  0  0  0  0
    5.5440   -3.9776    3.2428 H   0  0  0  0  0  0  0  0  0  0  0  0
    3.0480   -2.7504    0.2090 H   0  0  0  0  0  0  0  0  0  0  0  0
    2.5581   -1.3428   -2.2884 H   0  0  0  0  0  0  0  0  0  0  0  0
    1.6052   -2.6229   -1.5477 H   0  0  0  0  0  0  0  0  0  0  0  0
   -0.4356   -2.1494   -0.9271 H   0  0  0  0  0  0  0  0  0  0  0  0
   -1.0542    0.4319    0.3324 H   0  0  0  0  0  0  0  0  0  0  0  0
   -2.2784   -0.5113   -0.6941 H   0  0  0  0  0  0  0  0  0  0  0  0
   -2.8339    0.4536   -2.7386 H   0  0  0  0  0  0  0  0  0  0  0  0
   -1.9161    1.8260   -3.3736 H   0  0  0  0  0  0  0  0  0  0  0  0
   -4.0532    2.5584   -2.4721 H   0  0  0  0  0  0  0  0  0  0  0  0
   -2.7421    3.2700   -1.4441 H   0  0  0  0  0  0  0  0  0  0  0  0
   -6.3302    0.3707   -2.1084 H   0  0  0  0  0  0  0  0  0  0  0  0
   -7.9617   -0.7903   -0.7996 H   0  0  0  0  0  0  0  0  0  0  0  0
   -7.7962   -0.9144    1.6080 H   0  0  0  0  0  0  0  0  0  0  0  0
   -5.8730    0.1927    2.7873 H   0  0  0  0  0  0  0  0  0  0  0  0
    0.3527    1.6498   -2.8762 H   0  0  0  0  0  0  0  0  0  0  0  0
    0.0757    2.5821   -1.3865 H   0  0  0  0  0  0  0  0  0  0  0  0
    1.4255    1.2567   -0.1022 H   0  0  0  0  0  0  0  0  0  0  0  0
    2.1179    1.0070   -1.7888 H   0  0  0  0  0  0  0  0  0  0  0  0
  1  2  1  0
  2  3  2  0
  3  4  1  0
  4  5  2  0
  5  6  1  0
  6  7  2  0
  7  8  1  0
  8  9  2  0
  8 10  1  0
 10 11  1  0
 11 12  1  0
 12 13  2  0
 13 14  1  0
 14 15  1  0
 15 16  1  0
 16 17  1  0
 17 18  1  0
 18 19  1  0
 19 20  2  0
 20 21  1  0
 21 22  2  0
 22 23  1  0
 23 24  2  0
 24 25  1  0
 25 26  2  0
 15 27  1  0
 27 28  1  0
  7  2  1  0
 28 12  1  0
 25 18  1  0
 24 19  1  0
  1 29  1  0
  1 30  1  0
  3 31  1  0
  4 32  1  0
  5 33  1  0
 10 34  1  0
 11 35  1  0
 11 36  1  0
 13 37  1  0
 14 38  1  0
 14 39  1  0
 16 40  1  0
 16 41  1  0
 17 42  1  0
 17 43  1  0
 20 44  1  0
 21 45  1  0
 22 46  1  0
 23 47  1  0
 27 48  1  0
 27 49  1  0
 28 50  1  0
 28 51  1  0
M  END
$$$$
[H]c1c([H])c([H])c(C([H])([H])OC(=O)N([H])[C@]([H])(C(=O)N([H])[C@]([H])(C(=O)N([H])[C@]([H])(C(=O)N2C([H])([H])C([H])([H])C([H])([H])[C@@]2([H])C(=O)N([H])[C@@]([H])(C(=O)N2C([H])([H])C([H])([H])C([H])([H])[C@@]2([H])C(=O)N([H])[C@@]([H])(C(=O)N([H])[H])C([H])([H])[H])C([H])([H])c2c([H])c([H])c(Cl)c([H])c2[H])C([H])([H])c2c([H])c([H])c([H])c([H])c2[H])C([H])([H])c2c([H])c([H])c([H])c([H])c2[H])C([H])([H])c2c([H])c([H])c([H])c([H])c2[H])c([H])c1[H]
     RDKit          3D

138144  0  0  0  0  0  0  0  0999 V2000
    9.9044    5.3643   -4.2813 C   0  0  0  0  0  0  0  0  0  0  0  0
    9.6443    4.6066   -3.0161 C   0  0  1  0  0  0  0  0  0  0  0  0
    9.3944    3.1927   -3.2092 N   0  0  0  0  0  0  0  0  0  0  0  0
    8.2316    2.5577   -2.6687 C   0  0  0  0  0  0  0  0  0  0  0  0
    7.4655    3.2943   -2.0368 O   0  0  0  0  0  0  0  0  0  0  0  0
    8.0302    1.1622   -2.8773 C   0  0  2  0  0  0  0  0  0  0  0  0
    7.6481    0.7908   -4.3101 C   0  0  0  0  0  0  0  0  0  0  0  0
    7.6037   -0.7366   -4.1488 C   0  0  0  0  0  0  0  0  0  0  0  0
    7.4075   -0.9792   -2.6438 C   0  0  0  0  0  0  0  0  0  0  0  0
    7.0800    0.4015   -2.1604 N   0  0  0  0  0  0  0  0  0  0  0  0
    6.0223    0.5815   -1.2648 C   0  0  0  0  0  0  0  0  0  0  0  0
    5.5928    1.7449   -0.9161 O   0  0  0  0  0  0  0  0  0  0  0  0
    5.2817   -0.5249   -0.6151 C   0  0  1  0  0  0  0  0  0  0  0  0
    6.1654   -1.3592    0.3090 C   0  0  0  0  0  0  0  0  0  0  0  0
    6.7779   -0.6316    1.4170 C   0  0  0  0  0  0  0  0  0  0  0  0
    6.1282   -0.5561    2.6255 C   0  0  0  0  0  0  0  0  0  0  0  0
    6.6460    0.0989    3.7090 C   0  0  0  0  0  0  0  0  0  0  0  0
    7.8732    0.7017    3.5644 C   0  0  0  0  0  0  0  0  0  0  0  0
    8.5404    1.5375    4.9400 Cl  0  0  0  0  0  0  0  0  0  0  0  0
    8.5457    0.6397    2.3644 C   0  0  0  0  0  0  0  0  0  0  0  0
    8.0023   -0.0253    1.2873 C   0  0  0  0  0  0  0  0  0  0  0  0
    4.1881    0.0039    0.1847 N   0  0  0  0  0  0  0  0  0  0  0  0
    3.0365   -0.6829    0.5784 C   0  0  0  0  0  0  0  0  0  0  0  0
    2.8370   -1.8771    0.2740 O   0  0  0  0  0  0  0  0  0  0  0  0
    2.0095    0.0283    1.3896 C   0  0  2  0  0  0  0  0  0  0  0  0
    2.5367    1.0398    2.3405 C   0  0  0  0  0  0  0  0  0  0  0  0
    2.4127    0.3893    3.6948 C   0  0  0  0  0  0  0  0  0  0  0  0
    1.3483   -0.6798    3.5247 C   0  0  0  0  0  0  0  0  0  0  0  0
    1.1336   -0.8204    2.1213 N   0  0  0  0  0  0  0  0  0  0  0  0
    0.1377   -1.6730    1.5524 C   0  0  0  0  0  0  0  0  0  0  0  0
   -0.0418   -1.7038    0.2894 O   0  0  0  0  0  0  0  0  0  0  0  0
   -0.7377   -2.5533    2.3728 C   0  0  2  0  0  0  0  0  0  0  0  0
   -0.0132   -3.7673    2.9238 C   0  0  0  0  0  0  0  0  0  0  0  0
   -0.9115   -4.5974    3.7588 C   0  0  0  0  0  0  0  0  0  0  0  0
   -1.0434   -4.3976    5.1273 C   0  0  0  0  0  0  0  0  0  0  0  0
   -1.8972   -5.1999    5.8397 C   0  0  0  0  0  0  0  0  0  0  0  0
   -2.6387   -6.2085    5.2467 C   0  0  0  0  0  0  0  0  0  0  0  0
   -2.5061   -6.4052    3.8890 C   0  0  0  0  0  0  0  0  0  0  0  0
   -1.6485   -5.5995    3.1692 C   0  0  0  0  0  0  0  0  0  0  0  0
   -1.8635   -3.0501    1.5690 N   0  0  0  0  0  0  0  0  0  0  0  0
   -3.1722   -2.5751    1.7163 C   0  0  0  0  0  0  0  0  0  0  0  0
   -3.3763   -1.6492    2.5693 O   0  0  0  0  0  0  0  0  0  0  0  0
   -4.3490   -3.0789    0.9465 C   0  0  2  0  0  0  0  0  0  0  0  0
   -3.9023   -4.0303   -0.0890 C   0  0  0  0  0  0  0  0  0  0  0  0
   -4.9834   -4.6212   -0.9209 C   0  0  0  0  0  0  0  0  0  0  0  0
   -5.3339   -3.9746   -2.0997 C   0  0  0  0  0  0  0  0  0  0  0  0
   -6.3320   -4.5007   -2.9012 C   0  0  0  0  0  0  0  0  0  0  0  0
   -6.9410   -5.6648   -2.4796 C   0  0  0  0  0  0  0  0  0  0  0  0
   -6.5985   -6.3087   -1.3121 C   0  0  0  0  0  0  0  0  0  0  0  0
   -5.6016   -5.7885   -0.5062 C   0  0  0  0  0  0  0  0  0  0  0  0
   -5.2292   -2.0519    0.4763 N   0  0  0  0  0  0  0  0  0  0  0  0
   -4.8915   -0.7346    0.1197 C   0  0  0  0  0  0  0  0  0  0  0  0
   -3.7201   -0.2949    0.1642 O   0  0  0  0  0  0  0  0  0  0  0  0
   -5.9514    0.2455   -0.3493 C   0  0  2  0  0  0  0  0  0  0  0  0
   -6.6662   -0.3364   -1.5362 C   0  0  0  0  0  0  0  0  0  0  0  0
   -7.7357    0.5056   -2.0818 C   0  0  0  0  0  0  0  0  0  0  0  0
   -7.4983    1.4186   -3.0816 C   0  0  0  0  0  0  0  0  0  0  0  0
   -8.5228    2.2134   -3.5978 C   0  0  0  0  0  0  0  0  0  0  0  0
   -9.8019    2.0816   -3.0953 C   0  0  0  0  0  0  0  0  0  0  0  0
  -10.0723    1.1752   -2.0940 C   0  0  0  0  0  0  0  0  0  0  0  0
   -9.0438    0.4144   -1.6137 C   0  0  0  0  0  0  0  0  0  0  0  0
   -5.3332    1.5022   -0.6922 N   0  0  0  0  0  0  0  0  0  0  0  0
   -5.6095    2.6684    0.0404 C   0  0  0  0  0  0  0  0  0  0  0  0
   -6.4091    2.6302    1.0009 O   0  0  0  0  0  0  0  0  0  0  0  0
   -4.9872    3.8555   -0.3092 O   0  0  0  0  0  0  0  0  0  0  0  0
   -5.2548    5.0220    0.4124 C   0  0  0  0  0  0  0  0  0  0  0  0
   -6.6813    5.3731    0.2900 C   0  0  0  0  0  0  0  0  0  0  0  0
   -7.3386    6.1348    1.2421 C   0  0  0  0  0  0  0  0  0  0  0  0
   -8.6882    6.4399    1.0482 C   0  0  0  0  0  0  0  0  0  0  0  0
   -9.3879    6.0148   -0.0479 C   0  0  0  0  0  0  0  0  0  0  0  0
   -8.7080    5.2603   -0.9740 C   0  0  0  0  0  0  0  0  0  0  0  0
   -7.3696    4.9348   -0.8219 C   0  0  0  0  0  0  0  0  0  0  0  0
   10.8207    4.8137   -2.1094 C   0  0  0  0  0  0  0  0  0  0  0  0
   11.2034    6.1427   -1.8141 N   0  0  0  0  0  0  0  0  0  0  0  0
   11.4831    3.8783   -1.6001 O   0  0  0  0  0  0  0  0  0  0  0  0
   11.0220    5.4494   -4.4168 H   0  0  0  0  0  0  0  0  0  0  0  0
    9.5351    6.3957   -4.1997 H   0  0  0  0  0  0  0  0  0  0  0  0
    9.4441    4.9046   -5.1845 H   0  0  0  0  0  0  0  0  0  0  0  0
    8.7205    5.0252   -2.5425 H   0  0  0  0  0  0  0  0  0  0  0  0
   10.0710    2.6088   -3.7525 H   0  0  0  0  0  0  0  0  0  0  0  0
    9.0643    0.6662   -2.7636 H   0  0  0  0  0  0  0  0  0  0  0  0
    6.6711    1.2049   -4.5936 H   0  0  0  0  0  0  0  0  0  0  0  0
    8.4241    1.0098   -5.0382 H   0  0  0  0  0  0  0  0  0  0  0  0
    6.7827   -1.1263   -4.7496 H   0  0  0  0  0  0  0  0  0  0  0  0
    8.5906   -1.1677   -4.4027 H   0  0  0  0  0  0  0  0  0  0  0  0
    8.3266   -1.2504   -2.1358 H   0  0  0  0  0  0  0  0  0  0  0  0
    6.5602   -1.6493   -2.5632 H   0  0  0  0  0  0  0  0  0  0  0  0
    4.8623   -1.2311   -1.3365 H   0  0  0  0  0  0  0  0  0  0  0  0
    6.9462   -1.9235   -0.2245 H   0  0  0  0  0  0  0  0  0  0  0  0
    5.4573   -2.1637    0.6829 H   0  0  0  0  0  0  0  0  0  0  0  0
    5.1457   -1.0384    2.7721 H   0  0  0  0  0  0  0  0  0  0  0  0
    6.0901    0.1254    4.6333 H   0  0  0  0  0  0  0  0  0  0  0  0
    9.5294    1.1318    2.2729 H   0  0  0  0  0  0  0  0  0  0  0  0
    8.5793   -0.0479    0.3686 H   0  0  0  0  0  0  0  0  0  0  0  0
    4.3053    1.0066    0.4563 H   0  0  0  0  0  0  0  0  0  0  0  0
    1.3911    0.6521    0.6340 H   0  0  0  0  0  0  0  0  0  0  0  0
    1.9248    1.9845    2.2993 H   0  0  0  0  0  0  0  0  0  0  0  0
    3.6178    1.3070    2.1824 H   0  0  0  0  0  0  0  0  0  0  0  0
    3.3675   -0.0580    4.0522 H   0  0  0  0  0  0  0  0  0  0  0  0
    2.0385    1.1762    4.4063 H   0  0  0  0  0  0  0  0  0  0  0  0
    1.6498   -1.5791    4.0755 H   0  0  0  0  0  0  0  0  0  0  0  0
    0.3910   -0.3223    4.0272 H   0  0  0  0  0  0  0  0  0  0  0  0
   -1.1609   -1.9819    3.2068 H   0  0  0  0  0  0  0  0  0  0  0  0
    0.8744   -3.5411    3.4982 H   0  0  0  0  0  0  0  0  0  0  0  0
    0.3270   -4.4270    2.0818 H   0  0  0  0  0  0  0  0  0  0  0  0
   -0.4843   -3.6247    5.6173 H   0  0  0  0  0  0  0  0  0  0  0  0
   -2.0380   -5.0853    6.9171 H   0  0  0  0  0  0  0  0  0  0  0  0
   -3.3171   -6.8420    5.8226 H   0  0  0  0  0  0  0  0  0  0  0  0
   -3.0907   -7.1919    3.4413 H   0  0  0  0  0  0  0  0  0  0  0  0
   -1.5794   -5.7968    2.1080 H   0  0  0  0  0  0  0  0  0  0  0  0
   -1.6461   -3.7701    0.8780 H   0  0  0  0  0  0  0  0  0  0  0  0
   -4.9698   -3.6062    1.7668 H   0  0  0  0  0  0  0  0  0  0  0  0
   -3.3638   -4.9166    0.3578 H   0  0  0  0  0  0  0  0  0  0  0  0
   -3.1722   -3.5679   -0.8012 H   0  0  0  0  0  0  0  0  0  0  0  0
   -4.8403   -3.0637   -2.4039 H   0  0  0  0  0  0  0  0  0  0  0  0
   -6.6461   -4.0445   -3.8228 H   0  0  0  0  0  0  0  0  0  0  0  0
   -7.7383   -6.1242   -3.0756 H   0  0  0  0  0  0  0  0  0  0  0  0
   -7.0767   -7.2356   -0.9685 H   0  0  0  0  0  0  0  0  0  0  0  0
   -5.2850   -6.2346    0.4113 H   0  0  0  0  0  0  0  0  0  0  0  0
   -6.2780   -2.2856    0.3776 H   0  0  0  0  0  0  0  0  0  0  0  0
   -6.6182    0.4094    0.5121 H   0  0  0  0  0  0  0  0  0  0  0  0
   -5.8917   -0.5211   -2.3389 H   0  0  0  0  0  0  0  0  0  0  0  0
   -7.0256   -1.3592   -1.2724 H   0  0  0  0  0  0  0  0  0  0  0  0
   -6.5114    1.5496   -3.5009 H   0  0  0  0  0  0  0  0  0  0  0  0
   -8.3026    2.9240   -4.3812 H   0  0  0  0  0  0  0  0  0  0  0  0
  -10.5934    2.7013   -3.5017 H   0  0  0  0  0  0  0  0  0  0  0  0
  -11.0876    1.1046   -1.7255 H   0  0  0  0  0  0  0  0  0  0  0  0
   -9.2414   -0.2893   -0.8413 H   0  0  0  0  0  0  0  0  0  0  0  0
   -4.6812    1.5356   -1.4922 H   0  0  0  0  0  0  0  0  0  0  0  0
   -4.6141    5.8400    0.0031 H   0  0  0  0  0  0  0  0  0  0  0  0
   -4.9754    4.8127    1.4734 H   0  0  0  0  0  0  0  0  0  0  0  0
   -6.8267    6.4851    2.1055 H   0  0  0  0  0  0  0  0  0  0  0  0
   -9.2168    7.0491    1.7991 H   0  0  0  0  0  0  0  0  0  0  0  0
  -10.4196    6.2475   -0.2031 H   0  0  0  0  0  0  0  0  0  0  0  0
   -9.2213    4.9068   -1.8485 H   0  0  0  0  0  0  0  0  0  0  0  0
   -6.8593    4.3394   -1.5768 H   0  0  0  0  0  0  0  0  0  0  0  0
   12.1874    6.3550   -1.4831 H   0  0  0  0  0  0  0  0  0  0  0  0
   10.5353    6.9369   -1.9125 H   0  0  0  0  0  0  0  0  0  0  0  0
  1  2  1  0
  2  3  1  0
  3  4  1  0
  4  5  2  0
  4  6  1  0
  6  7  1  0
  7  8  1  0
  8  9  1  0
  9 10  1  0
 10 11  1  0
 11 12  2  0
 11 13  1  0
 13 14  1  0
 14 15  1  0
 15 16  2  0
 16 17  1  0
 17 18  2  0
 18 19  1  0
 18 20  1  0
 20 21  2  0
 13 22  1  0
 22 23  1  0
 23 24  2  0
 23 25  1  0
 25 26  1  0
 26 27  1  0
 27 28  1  0
 28 29  1  0
 29 30  1  0
 30 31  2  0
 30 32  1  0
 32 33  1  0
 33 34  1  0
 34 35  2  0
 35 36  1  0
 36 37  2  0
 37 38  1  0
 38 39  2  0
 32 40  1  0
 40 41  1  0
 41 42  2  0
 41 43  1  0
 43 44  1  0
 44 45  1  0
 45 46  2  0
 46 47  1  0
 47 48  2  0
 48 49  1  0
 49 50  2  0
 43 51  1  0
 51 52  1  0
 52 53  2  0
 52 54  1  0
 54 55  1  0
 55 56  1  0
 56 57  2  0
 57 58  1  0
 58 59  2  0
 59 60  1  0
 60 61  2  0
 54 62  1  0
 62 63  1  0
 63 64  2  0
 63 65  1  0
 65 66  1  0
 66 67  1  0
 67 68  2  0
 68 69  1  0
 69 70  2  0
 70 71  1  0
 71 72  2  0
  2 73  1  0
 73 74  1  0
 73 75  2  0
 10  6  1  0
 21 15  1  0
 29 25  1  0
 39 34  1  0
 50 45  1  0
 61 56  1  0
 72 67  1  0
  1 76  1  0
  1 77  1  0
  1 78  1  0
  2 79  1  1
  3 80  1  0
  6 81  1  1
  7 82  1  0
  7 83  1  0
  8 84  1  0
  8 85  1  0
  9 86  1  0
  9 87  1  0
 13 88  1  6
 14 89  1  0
 14 90  1  0
 16 91  1  0
 17 92  1  0
 20 93  1  0
 21 94  1  0
 22 95  1  0
 25 96  1  6
 26 97  1  0
 26 98  1  0
 27 99  1  0
 27100  1  0
 28101  1  0
 28102  1  0
 32103  1  1
 33104  1  0
 33105  1  0
 35106  1  0
 36107  1  0
 37108  1  0
 38109  1  0
 39110  1  0
 40111  1  0
 43112  1  1
 44113  1  0
 44114  1  0
 46115  1  0
 47116  1  0
 48117  1  0
 49118  1  0
 50119  1  0
 51120  1  0
 54121  1  1
 55122  1  0
 55123  1  0
 57124  1  0
 58125  1  0
 59126  1  0
 60127  1  0
 61128  1  0
 62129  1  0
 66130  1  0
 66131  1  0
 68132  1  0
 69133  1  0
 70134  1  0
 71135  1  0
 72136  1  0
 74137  1  0
 74138  1  0
M  END
$$$$
[H]c1c([H])c(N([H])C(=O)c2c([H])c([H])c(OC([H])([H])C([H])([H])C([H])([H])[H])c([H])c2[H])c([H])c(C([H])([H])[H])c1[H]
     RDKit          3D

 39 40  0  0  0  0  0  0  0  0999 V2000
    6.9931    0.6087    0.1623 C   0  0  0  0  0  0  0  0  0  0  0  0
    6.5704   -0.8326    0.0158 C   0  0  0  0  0  0  0  0  0  0  0  0
    5.1040   -0.9525    0.3384 C   0  0  0  0  0  0  0  0  0  0  0  0
    4.2966   -0.1780   -0.5051 O   0  0  0  0  0  0  0  0  0  0  0  0
    2.9341   -0.1782   -0.3403 C   0  0  0  0  0  0  0  0  0  0  0  0
    2.3551   -0.9328    0.6464 C   0  0  0  0  0  0  0  0  0  0  0  0
    0.9830   -0.9569    0.8414 C   0  0  0  0  0  0  0  0  0  0  0  0
    0.1812   -0.2033    0.0228 C   0  0  0  0  0  0  0  0  0  0  0  0
    0.7385    0.5553   -0.9664 C   0  0  0  0  0  0  0  0  0  0  0  0
    2.1315    0.5726   -1.1556 C   0  0  0  0  0  0  0  0  0  0  0  0
   -1.2650   -0.2373    0.2282 C   0  0  0  0  0  0  0  0  0  0  0  0
   -1.7685   -1.1319    0.9736 O   0  0  0  0  0  0  0  0  0  0  0  0
   -2.0935    0.7140   -0.3942 N   0  0  0  0  0  0  0  0  0  0  0  0
   -3.5055    0.7595   -0.2678 C   0  0  0  0  0  0  0  0  0  0  0  0
   -4.0985    2.0133   -0.4876 C   0  0  0  0  0  0  0  0  0  0  0  0
   -5.4601    2.1166   -0.4027 C   0  0  0  0  0  0  0  0  0  0  0  0
   -6.2616    1.0366   -0.1105 C   0  0  0  0  0  0  0  0  0  0  0  0
   -5.6682   -0.1914    0.1034 C   0  0  0  0  0  0  0  0  0  0  0  0
   -6.5485   -1.3752    0.4239 C   0  0  0  0  0  0  0  0  0  0  0  0
   -4.3060   -0.3158    0.0226 C   0  0  0  0  0  0  0  0  0  0  0  0
    6.3709    1.0358    0.9879 H   0  0  0  0  0  0  0  0  0  0  0  0
    8.0304    0.6480    0.4932 H   0  0  0  0  0  0  0  0  0  0  0  0
    6.7678    1.2122   -0.7316 H   0  0  0  0  0  0  0  0  0  0  0  0
    7.1186   -1.4002    0.8217 H   0  0  0  0  0  0  0  0  0  0  0  0
    6.8353   -1.2700   -0.9620 H   0  0  0  0  0  0  0  0  0  0  0  0
    4.9682   -0.5713    1.3717 H   0  0  0  0  0  0  0  0  0  0  0  0
    4.7729   -2.0138    0.2428 H   0  0  0  0  0  0  0  0  0  0  0  0
    2.9946   -1.5202    1.2827 H   0  0  0  0  0  0  0  0  0  0  0  0
    0.5280   -1.5465    1.6127 H   0  0  0  0  0  0  0  0  0  0  0  0
    0.1762    1.1689   -1.6501 H   0  0  0  0  0  0  0  0  0  0  0  0
    2.5721    1.1686   -1.9328 H   0  0  0  0  0  0  0  0  0  0  0  0
   -1.6575    1.4648   -1.0146 H   0  0  0  0  0  0  0  0  0  0  0  0
   -3.4647    2.8675   -0.7172 H   0  0  0  0  0  0  0  0  0  0  0  0
   -5.8931    3.1003   -0.5776 H   0  0  0  0  0  0  0  0  0  0  0  0
   -7.3398    1.1189   -0.0431 H   0  0  0  0  0  0  0  0  0  0  0  0
   -5.9026   -2.2639    0.5781 H   0  0  0  0  0  0  0  0  0  0  0  0
   -7.1088   -1.2089    1.3459 H   0  0  0  0  0  0  0  0  0  0  0  0
   -7.1818   -1.5938   -0.4620 H   0  0  0  0  0  0  0  0  0  0  0  0
   -3.8988   -1.2874    0.1800 H   0  0  0  0  0  0  0  0  0  0  0  0
  1  2  1  0
  2  3  1  0
  3  4  1  0
  4  5  1  0
  5  6  2  0
  6  7  1  0
  7  8  2  0
  8  9  1  0
  9 10  2  0
  8 11  1  0
 11 12  2  0
 11 13  1  0
 13 14  1  0
 14 15  2  0
 15 16  1  0
 16 17  2  0
 17 18  1  0
 18 19  1  0
 18 20  2  0
 10  5  1  0
 20 14  1  0
  1 21  1  0
  1 22  1  0
  1 23  1  0
  2 24  1  0
  2 25  1  0
  3 26  1  0
  3 27  1  0
  6 28  1  0
  7 29  1  0
  9 30  1  0
 10 31  1  0
 13 32  1  0
 15 33  1  0
 16 34  1  0
 17 35  1  0
 19 36  1  0
 19 37  1  0
 19 38  1  0
 20 39  1  0
M  END
$$$$
[H]OC([H])([H])C(=O)[C@]1(O[H])C([H])([H])C([H])([H])[C@]2([H])[C@]1(C([H])([H])[H])C([H])([H])[C@]1([H])[C@]3(C([H])([H])[H])C(=C([H])C(=O)C([H])([H])C3([H])[H])C([H])([H])C([H])([H])[C@@]21[H]
     RDKit          3D

 52 55  0  0  0  0  0  0  0  0999 V2000
   -1.5285   -0.3476   -2.0819 C   0  0  0  0  0  0  0  0  0  0  0  0
   -1.5077   -0.1577   -0.5978 C   0  0  2  0  0  0  0  0  0  0  0  0
   -0.5090    0.8300   -0.1743 C   0  0  0  0  0  0  0  0  0  0  0  0
    0.6853   -0.0003    0.1907 C   0  0  1  0  0  0  0  0  0  0  0  0
    0.3780   -1.4334   -0.2957 C   0  0  1  0  0  0  0  0  0  0  0  0
    1.3100   -2.3262    0.4853 C   0  0  0  0  0  0  0  0  0  0  0  0
    2.7137   -1.9805    0.1186 C   0  0  0  0  0  0  0  0  0  0  0  0
    3.0151   -0.5255    0.1277 C   0  0  0  0  0  0  0  0  0  0  0  0
    4.2580   -0.1931    0.4897 C   0  0  0  0  0  0  0  0  0  0  0  0
    4.6642    1.1901    0.5349 C   0  0  0  0  0  0  0  0  0  0  0  0
    5.8458    1.5510    0.7782 O   0  0  0  0  0  0  0  0  0  0  0  0
    3.6730    2.2662    0.2887 C   0  0  0  0  0  0  0  0  0  0  0  0
    2.2620    1.7850    0.5300 C   0  0  0  0  0  0  0  0  0  0  0  0
    1.9925    0.4890   -0.2467 C   0  0  2  0  0  0  0  0  0  0  0  0
    2.1178    0.7162   -1.7294 C   0  0  0  0  0  0  0  0  0  0  0  0
   -1.0092   -1.4326    0.1130 C   0  0  2  0  0  0  0  0  0  0  0  0
   -2.0113   -2.3731   -0.3113 C   0  0  0  0  0  0  0  0  0  0  0  0
   -3.2870   -1.5746    0.0252 C   0  0  0  0  0  0  0  0  0  0  0  0
   -2.8816   -0.0937   -0.0772 C   0  0  2  0  0  0  0  0  0  0  0  0
   -3.7017    0.4293   -1.0874 O   0  0  0  0  0  0  0  0  0  0  0  0
   -3.1182    0.6338    1.1613 C   0  0  0  0  0  0  0  0  0  0  0  0
   -2.5077    0.3866    2.2193 O   0  0  0  0  0  0  0  0  0  0  0  0
   -4.1036    1.7354    1.2882 C   0  0  0  0  0  0  0  0  0  0  0  0
   -4.8105    2.0393    0.1632 O   0  0  0  0  0  0  0  0  0  0  0  0
   -1.0517    0.5162   -2.5901 H   0  0  0  0  0  0  0  0  0  0  0  0
   -1.0141   -1.2592   -2.4450 H   0  0  0  0  0  0  0  0  0  0  0  0
   -2.5614   -0.4170   -2.5201 H   0  0  0  0  0  0  0  0  0  0  0  0
   -0.8253    1.5181    0.6326 H   0  0  0  0  0  0  0  0  0  0  0  0
   -0.2646    1.4930   -1.0480 H   0  0  0  0  0  0  0  0  0  0  0  0
    0.6893   -0.0880    1.3046 H   0  0  0  0  0  0  0  0  0  0  0  0
    0.6589   -1.4609   -1.3390 H   0  0  0  0  0  0  0  0  0  0  0  0
    1.1097   -2.2903    1.5654 H   0  0  0  0  0  0  0  0  0  0  0  0
    1.1171   -3.3650    0.1455 H   0  0  0  0  0  0  0  0  0  0  0  0
    3.3861   -2.5185    0.8306 H   0  0  0  0  0  0  0  0  0  0  0  0
    2.9081   -2.3366   -0.9281 H   0  0  0  0  0  0  0  0  0  0  0  0
    4.9840   -0.9511    0.7558 H   0  0  0  0  0  0  0  0  0  0  0  0
    3.8617    3.0746    1.0333 H   0  0  0  0  0  0  0  0  0  0  0  0
    3.7656    2.6963   -0.7267 H   0  0  0  0  0  0  0  0  0  0  0  0
    1.5765    2.5545    0.1123 H   0  0  0  0  0  0  0  0  0  0  0  0
    2.0503    1.6131    1.5852 H   0  0  0  0  0  0  0  0  0  0  0  0
    3.1723    1.0673   -1.9040 H   0  0  0  0  0  0  0  0  0  0  0  0
    1.4671    1.4943   -2.1261 H   0  0  0  0  0  0  0  0  0  0  0  0
    2.0289   -0.2448   -2.2363 H   0  0  0  0  0  0  0  0  0  0  0  0
   -1.0647   -1.2830    1.2064 H   0  0  0  0  0  0  0  0  0  0  0  0
   -2.0080   -3.2820    0.3525 H   0  0  0  0  0  0  0  0  0  0  0  0
   -2.0181   -2.7294   -1.3331 H   0  0  0  0  0  0  0  0  0  0  0  0
   -3.4822   -1.7510    1.1136 H   0  0  0  0  0  0  0  0  0  0  0  0
   -4.1189   -1.8398   -0.6195 H   0  0  0  0  0  0  0  0  0  0  0  0
   -3.2309    1.2111   -1.5174 H   0  0  0  0  0  0  0  0  0  0  0  0
   -4.8317    1.3901    2.0743 H   0  0  0  0  0  0  0  0  0  0  0  0
   -3.6454    2.6757    1.6588 H   0  0  0  0  0  0  0  0  0  0  0  0
   -4.5976    2.8984   -0.2449 H   0  0  0  0  0  0  0  0  0  0  0  0
  2  1  1  6
  2  3  1  0
  3  4  1  0
  4  5  1  0
  5  6  1  0
  6  7  1  0
  7  8  1  0
  8  9  2  0
  9 10  1  0
 10 11  2  0
 10 12  1  0
 12 13  1  0
 13 14  1  0
 14 15  1  6
  5 16  1  0
 16 17  1  0
 17 18  1  0
 18 19  1  0
 19 20  1  6
 19 21  1  0
 21 22  2  0
 21 23  1  0
 23 24  1  0
 16  2  1  0
 19  2  1  0
 14  4  1  0
 14  8  1  0
  1 25  1  0
  1 26  1  0
  1 27  1  0
  3 28  1  0
  3 29  1  0
  4 30  1  1
  5 31  1  6
  6 32  1  0
  6 33  1  0
  7 34  1  0
  7 35  1  0
  9 36  1  0
 12 37  1  0
 12 38  1  0
 13 39  1  0
 13 40  1  0
 15 41  1  0
 15 42  1  0
 15 43  1  0
 16 44  1  1
 17 45  1  0
 17 46  1  0
 18 47  1  0
 18 48  1  0
 20 49  1  0
 23 50  1  0
 23 51  1  0
 24 52  1  0
M  END
$$$$
[H]O[C@]1([H])C([H])([H])C([H])([H])C([H])([H])C([H])([H])[C@@]1([H])N1C([H])([H])C([H])([H])C([H])(c2noc3c([H])c(F)c([H])c([H])c23)C([H])([H])C1([H])[H]
     RDKit          3D

 46 49  0  0  0  0  0  0  0  0999 V2000
   -3.2933   -0.2407   -2.4205 O   0  0  0  0  0  0  0  0  0  0  0  0
   -3.2730   -0.7114   -1.1342 C   0  0  2  0  0  0  0  0  0  0  0  0
   -4.6622   -0.8668   -0.5275 C   0  0  0  0  0  0  0  0  0  0  0  0
   -5.2159    0.4415    0.0080 C   0  0  0  0  0  0  0  0  0  0  0  0
   -4.2572    1.1850    0.9020 C   0  0  0  0  0  0  0  0  0  0  0  0
   -2.9900    0.3065    1.0655 C   0  0  0  0  0  0  0  0  0  0  0  0
   -2.4005    0.1870   -0.2797 C   0  0  1  0  0  0  0  0  0  0  0  0
   -1.0415   -0.0296   -0.4702 N   0  0  0  0  0  0  0  0  0  0  0  0
   -0.5225   -1.3621   -0.2638 C   0  0  0  0  0  0  0  0  0  0  0  0
    1.0032   -1.1804   -0.4763 C   0  0  0  0  0  0  0  0  0  0  0  0
    1.6484   -0.6494    0.7613 C   0  0  0  0  0  0  0  0  0  0  0  0
    0.4748    0.1959    1.4021 C   0  0  0  0  0  0  0  0  0  0  0  0
   -0.1799    0.9079    0.2418 C   0  0  0  0  0  0  0  0  0  0  0  0
    2.6730    0.4215    0.4884 C   0  0  0  0  0  0  0  0  0  0  0  0
    2.6225    1.7392    0.6921 N   0  0  0  0  0  0  0  0  0  0  0  0
    3.7692    2.2868    0.4988 O   0  0  0  0  0  0  0  0  0  0  0  0
    4.6585    1.3820    0.1536 C   0  0  0  0  0  0  0  0  0  0  0  0
    5.9691    1.3724   -0.1801 C   0  0  0  0  0  0  0  0  0  0  0  0
    6.6674    0.2023   -0.5364 C   0  0  0  0  0  0  0  0  0  0  0  0
    7.9647    0.3115   -0.8666 F   0  0  0  0  0  0  0  0  0  0  0  0
    5.9979   -0.9990   -0.5526 C   0  0  0  0  0  0  0  0  0  0  0  0
    4.6640   -1.0294   -0.2212 C   0  0  0  0  0  0  0  0  0  0  0  0
    3.9860    0.1540    0.1305 C   0  0  0  0  0  0  0  0  0  0  0  0
   -3.8803    0.5505   -2.5129 H   0  0  0  0  0  0  0  0  0  0  0  0
   -2.8443   -1.7666   -1.1152 H   0  0  0  0  0  0  0  0  0  0  0  0
   -5.3163   -1.1805   -1.3626 H   0  0  0  0  0  0  0  0  0  0  0  0
   -4.6875   -1.6203    0.2586 H   0  0  0  0  0  0  0  0  0  0  0  0
   -6.0934    0.1607    0.6180 H   0  0  0  0  0  0  0  0  0  0  0  0
   -5.6108    1.0864   -0.8029 H   0  0  0  0  0  0  0  0  0  0  0  0
   -3.8936    2.0584    0.3176 H   0  0  0  0  0  0  0  0  0  0  0  0
   -4.6664    1.5125    1.8587 H   0  0  0  0  0  0  0  0  0  0  0  0
   -2.3208    0.7296    1.8420 H   0  0  0  0  0  0  0  0  0  0  0  0
   -3.3485   -0.6686    1.4357 H   0  0  0  0  0  0  0  0  0  0  0  0
   -2.5942    1.2388   -0.7829 H   0  0  0  0  0  0  0  0  0  0  0  0
   -0.7550   -1.8362    0.6691 H   0  0  0  0  0  0  0  0  0  0  0  0
   -0.8294   -1.9651   -1.1741 H   0  0  0  0  0  0  0  0  0  0  0  0
    1.3631   -2.2218   -0.5959 H   0  0  0  0  0  0  0  0  0  0  0  0
    1.1631   -0.6177   -1.3887 H   0  0  0  0  0  0  0  0  0  0  0  0
    2.0418   -1.3611    1.4600 H   0  0  0  0  0  0  0  0  0  0  0  0
    0.9850    0.9037    2.0987 H   0  0  0  0  0  0  0  0  0  0  0  0
   -0.1534   -0.4902    1.9390 H   0  0  0  0  0  0  0  0  0  0  0  0
    0.6276    1.1316   -0.5154 H   0  0  0  0  0  0  0  0  0  0  0  0
   -0.6662    1.8546    0.4863 H   0  0  0  0  0  0  0  0  0  0  0  0
    6.5437    2.3061   -0.1779 H   0  0  0  0  0  0  0  0  0  0  0  0
    6.5382   -1.8570   -0.8554 H   0  0  0  0  0  0  0  0  0  0  0  0
    4.1346   -1.9728   -0.2393 H   0  0  0  0  0  0  0  0  0  0  0  0
  1  2  1  0
  2  3  1  0
  3  4  1  0
  4  5  1  0
  5  6  1  0
  6  7  1  0
  7  8  1  0
  8  9  1  0
  9 10  1  0
 10 11  1  0
 11 12  1  0
 12 13  1  0
 11 14  1  0
 14 15  2  0
 15 16  1  0
 16 17  1  0
 17 18  2  0
 18 19  1  0
 19 20  1  0
 19 21  2  0
 21 22  1  0
 22 23  2  0
  7  2  1  0
 13  8  1  0
 23 14  1  0
 23 17  1  0
  1 24  1  0
  2 25  1  6
  3 26  1  0
  3 27  1  0
  4 28  1  0
  4 29  1  0
  5 30  1  0
  5 31  1  0
  6 32  1  0
  6 33  1  0
  7 34  1  6
  9 35  1  0
  9 36  1  0
 10 37  1  0
 10 38  1  0
 11 39  1  0
 12 40  1  0
 12 41  1  0
 13 42  1  0
 13 43  1  0
 18 44  1  0
 21 45  1  0
 22 46  1  0
M  END
$$$$
[H]OC(=O)c1c([H])c([H])c(-c2c([H])c(C#N)c([H])c3c([H])c([H])c([H])c([H])c23)c([H])c1O[H]
     RDKit          3D

 33 35  0  0  0  0  0  0  0  0999 V2000
    5.3936    0.9621   -1.0391 O   0  0  0  0  0  0  0  0  0  0  0  0
    4.8524    0.0323   -0.1147 C   0  0  0  0  0  0  0  0  0  0  0  0
    5.6988   -0.5312    0.5915 O   0  0  0  0  0  0  0  0  0  0  0  0
    3.4160   -0.1525   -0.0961 C   0  0  0  0  0  0  0  0  0  0  0  0
    2.6261    0.5966   -0.9933 C   0  0  0  0  0  0  0  0  0  0  0  0
    1.2707    0.4669   -1.0235 C   0  0  0  0  0  0  0  0  0  0  0  0
    0.6116   -0.3929   -0.1883 C   0  0  0  0  0  0  0  0  0  0  0  0
    1.3518   -1.1273    0.6870 C   0  0  0  0  0  0  0  0  0  0  0  0
    2.7586   -1.0141    0.7411 C   0  0  0  0  0  0  0  0  0  0  0  0
    3.4366   -1.7792    1.6414 O   0  0  0  0  0  0  0  0  0  0  0  0
   -0.8403   -0.5451   -0.2065 C   0  0  0  0  0  0  0  0  0  0  0  0
   -1.3973   -1.7888   -0.5247 C   0  0  0  0  0  0  0  0  0  0  0  0
   -2.7485   -1.9883   -0.6080 C   0  0  0  0  0  0  0  0  0  0  0  0
   -3.5475   -0.8953   -0.3611 C   0  0  0  0  0  0  0  0  0  0  0  0
   -3.0430    0.3453   -0.0440 C   0  0  0  0  0  0  0  0  0  0  0  0
   -3.8878    1.3986    0.2051 C   0  0  0  0  0  0  0  0  0  0  0  0
   -3.3839    2.6157    0.5305 C   0  0  0  0  0  0  0  0  0  0  0  0
   -2.0259    2.8245    0.6192 C   0  0  0  0  0  0  0  0  0  0  0  0
   -1.1506    1.7871    0.3746 C   0  0  0  0  0  0  0  0  0  0  0  0
   -1.6567    0.5326    0.0378 C   0  0  0  0  0  0  0  0  0  0  0  0
   -3.3183   -3.2823   -0.9389 C   0  0  0  0  0  0  0  0  0  0  0  0
   -3.7655   -4.3166   -1.2022 N   0  0  0  0  0  0  0  0  0  0  0  0
    6.2975    0.8576   -1.4394 H   0  0  0  0  0  0  0  0  0  0  0  0
    3.1581    1.2775   -1.6534 H   0  0  0  0  0  0  0  0  0  0  0  0
    0.7179    1.0831   -1.7494 H   0  0  0  0  0  0  0  0  0  0  0  0
    0.9062   -1.8321    1.3833 H   0  0  0  0  0  0  0  0  0  0  0  0
    4.3814   -1.8176    1.7999 H   0  0  0  0  0  0  0  0  0  0  0  0
   -0.7368   -2.6046   -0.7071 H   0  0  0  0  0  0  0  0  0  0  0  0
   -4.6339   -1.0511   -0.4278 H   0  0  0  0  0  0  0  0  0  0  0  0
   -4.9621    1.2056    0.1282 H   0  0  0  0  0  0  0  0  0  0  0  0
   -4.0935    3.4250    0.7200 H   0  0  0  0  0  0  0  0  0  0  0  0
   -1.6035    3.7843    0.8771 H   0  0  0  0  0  0  0  0  0  0  0  0
   -0.0821    1.9242    0.4558 H   0  0  0  0  0  0  0  0  0  0  0  0
  1  2  1  0
  2  3  2  0
  2  4  1  0
  4  5  2  0
  5  6  1  0
  6  7  2  0
  7  8  1  0
  8  9  2  0
  9 10  1  0
  7 11  1  0
 11 12  2  0
 12 13  1  0
 13 14  2  0
 14 15  1  0
 15 16  2  0
 16 17  1  0
 17 18  2  0
 18 19  1  0
 19 20  2  0
 13 21  1  0
 21 22  3  0
  9  4  1  0
 20 11  1  0
 20 15  1  0
  1 23  1  0
  5 24  1  0
  6 25  1  0
  8 26  1  0
 10 27  1  0
 12 28  1  0
 14 29  1  0
 16 30  1  0
 17 31  1  0
 18 32  1  0
 19 33  1  0
M  END
$$$$
[H]c1nc(-c2c(C([H])([H])[H])c([H])nc3c([H])c(OC([H])([H])[H])c(OC([H])([H])C([H])([H])OC([H])([H])[H])c([H])c23)nc(N([H])c2c([H])c(OC([H])([H])[H])c([H])c(OC([H])([H])[H])c2[H])n1
     RDKit          3D

 62 65  0  0  0  0  0  0  0  0999 V2000
   -0.0404   -1.7179   -2.3313 N   0  0  0  0  0  0  0  0  0  0  0  0
   -1.0955   -0.9073   -2.6005 C   0  0  0  0  0  0  0  0  0  0  0  0
   -1.8992   -0.5427   -1.5968 N   0  0  0  0  0  0  0  0  0  0  0  0
   -1.7544   -0.9125   -0.3239 C   0  0  0  0  0  0  0  0  0  0  0  0
   -2.5835   -0.5441    0.7492 N   0  0  0  0  0  0  0  0  0  0  0  0
   -3.7077    0.2961    0.6711 C   0  0  0  0  0  0  0  0  0  0  0  0
   -4.6786    0.2037    1.6978 C   0  0  0  0  0  0  0  0  0  0  0  0
   -5.7914    0.9938    1.7237 C   0  0  0  0  0  0  0  0  0  0  0  0
   -6.7451    0.8829    2.7580 O   0  0  0  0  0  0  0  0  0  0  0  0
   -7.8976    1.7312    2.7469 C   0  0  0  0  0  0  0  0  0  0  0  0
   -5.9567    1.9053    0.7073 C   0  0  0  0  0  0  0  0  0  0  0  0
   -5.0657    2.0558   -0.3186 C   0  0  0  0  0  0  0  0  0  0  0  0
   -5.2239    2.9669   -1.3410 O   0  0  0  0  0  0  0  0  0  0  0  0
   -4.2520    3.0504   -2.3564 C   0  0  0  0  0  0  0  0  0  0  0  0
   -3.9326    1.2259   -0.3114 C   0  0  0  0  0  0  0  0  0  0  0  0
   -0.6728   -1.7326   -0.1005 N   0  0  0  0  0  0  0  0  0  0  0  0
    0.1599   -2.1259   -1.0658 C   0  0  0  0  0  0  0  0  0  0  0  0
    1.3026   -3.0013   -0.7863 C   0  0  0  0  0  0  0  0  0  0  0  0
    1.1878   -4.3744   -0.8473 C   0  0  0  0  0  0  0  0  0  0  0  0
   -0.0968   -5.0229   -1.1981 C   0  0  0  0  0  0  0  0  0  0  0  0
    2.3407   -5.0978   -0.5618 C   0  0  0  0  0  0  0  0  0  0  0  0
    3.5056   -4.4981   -0.2435 N   0  0  0  0  0  0  0  0  0  0  0  0
    3.6100   -3.1542   -0.1859 C   0  0  0  0  0  0  0  0  0  0  0  0
    2.4934   -2.3861   -0.4608 C   0  0  0  0  0  0  0  0  0  0  0  0
    2.6271   -1.0036   -0.3946 C   0  0  0  0  0  0  0  0  0  0  0  0
    3.8201   -0.4018   -0.0688 C   0  0  0  0  0  0  0  0  0  0  0  0
    3.9289    0.9761   -0.0092 O   0  0  0  0  0  0  0  0  0  0  0  0
    2.8315    1.8287   -0.2772 C   0  0  0  0  0  0  0  0  0  0  0  0
    3.2169    3.2858   -0.1433 C   0  0  0  0  0  0  0  0  0  0  0  0
    3.6664    3.5748    1.1412 O   0  0  0  0  0  0  0  0  0  0  0  0
    4.0156    4.9130    1.2480 C   0  0  0  0  0  0  0  0  0  0  0  0
    4.9251   -1.1800    0.2029 C   0  0  0  0  0  0  0  0  0  0  0  0
    6.1309   -0.5751    0.5321 O   0  0  0  0  0  0  0  0  0  0  0  0
    7.2411   -1.3944    0.8042 C   0  0  0  0  0  0  0  0  0  0  0  0
    4.8188   -2.5753    0.1436 C   0  0  0  0  0  0  0  0  0  0  0  0
   -1.2189   -0.6036   -3.6300 H   0  0  0  0  0  0  0  0  0  0  0  0
   -2.3194   -0.9497    1.7143 H   0  0  0  0  0  0  0  0  0  0  0  0
   -4.5094   -0.5271    2.4784 H   0  0  0  0  0  0  0  0  0  0  0  0
   -7.5425    2.7897    2.5998 H   0  0  0  0  0  0  0  0  0  0  0  0
   -8.5872    1.4927    1.9294 H   0  0  0  0  0  0  0  0  0  0  0  0
   -8.4071    1.7184    3.7218 H   0  0  0  0  0  0  0  0  0  0  0  0
   -6.8309    2.5411    0.7072 H   0  0  0  0  0  0  0  0  0  0  0  0
   -3.2390    3.2561   -1.9547 H   0  0  0  0  0  0  0  0  0  0  0  0
   -4.4797    3.9149   -3.0392 H   0  0  0  0  0  0  0  0  0  0  0  0
   -4.1670    2.1163   -2.9448 H   0  0  0  0  0  0  0  0  0  0  0  0
   -3.2270    1.3685   -1.1200 H   0  0  0  0  0  0  0  0  0  0  0  0
   -0.7207   -5.2368   -0.3084 H   0  0  0  0  0  0  0  0  0  0  0  0
   -0.6744   -4.4446   -1.9586 H   0  0  0  0  0  0  0  0  0  0  0  0
    0.1350   -5.9996   -1.6777 H   0  0  0  0  0  0  0  0  0  0  0  0
    2.2532   -6.1910   -0.6093 H   0  0  0  0  0  0  0  0  0  0  0  0
    1.7567   -0.4126   -0.6091 H   0  0  0  0  0  0  0  0  0  0  0  0
    2.0694    1.6243    0.5098 H   0  0  0  0  0  0  0  0  0  0  0  0
    2.4564    1.5907   -1.2827 H   0  0  0  0  0  0  0  0  0  0  0  0
    2.3075    3.8959   -0.3177 H   0  0  0  0  0  0  0  0  0  0  0  0
    3.9506    3.5521   -0.9184 H   0  0  0  0  0  0  0  0  0  0  0  0
    4.8126    5.1280    0.5313 H   0  0  0  0  0  0  0  0  0  0  0  0
    4.2619    5.1573    2.2990 H   0  0  0  0  0  0  0  0  0  0  0  0
    3.1312    5.5702    0.9988 H   0  0  0  0  0  0  0  0  0  0  0  0
    7.0863   -2.0137    1.7038 H   0  0  0  0  0  0  0  0  0  0  0  0
    8.1630   -0.8066    0.9634 H   0  0  0  0  0  0  0  0  0  0  0  0
    7.4259   -2.0690   -0.0776 H   0  0  0  0  0  0  0  0  0  0  0  0
    5.6848   -3.2043    0.3560 H   0  0  0  0  0  0  0  0  0  0  0  0
  1  2  2  0
  2  3  1  0
  3  4  2  0
  4  5  1  0
  5  6  1  0
  6  7  2  0
  7  8  1  0
  8  9  1  0
  9 10  1  0
  8 11  2  0
 11 12  1  0
 12 13  1  0
 13 14  1  0
 12 15  2  0
  4 16  1  0
 16 17  2  0
 17 18  1  0
 18 19  2  0
 19 20  1  0
 19 21  1  0
 21 22  2  0
 22 23  1  0
 23 24  2  0
 24 25  1  0
 25 26  2  0
 26 27  1  0
 27 28  1  0
 28 29  1  0
 29 30  1  0
 30 31  1  0
 26 32  1  0
 32 33  1  0
 33 34  1  0
 32 35  2  0
 17  1  1  0
 24 18  1  0
 15  6  1  0
 35 23  1  0
  2 36  1  0
  5 37  1  0
  7 38  1  0
 10 39  1  0
 10 40  1  0
 10 41  1  0
 11 42  1  0
 14 43  1  0
 14 44  1  0
 14 45  1  0
 15 46  1  0
 20 47  1  0
 20 48  1  0
 20 49  1  0
 21 50  1  0
 25 51  1  0
 28 52  1  0
 28 53  1  0
 29 54  1  0
 29 55  1  0
 31 56  1  0
 31 57  1  0
 31 58  1  0
 34 59  1  0
 34 60  1  0
 34 61  1  0
 35 62  1  0
M  END
$$$$
[H]c1nc(N([H])c2c([H])c([H])c(N3C([H])([H])C([H])([H])C([H])(C(=O)N([H])C([H])([H])c4onc(C([H])([H])[H])c4[H])C([H])([H])C3([H])[H])c([H])c2[H])nc(C([H])([H])N([H])C([H])([H])[H])c1F
     RDKit          3D

 61 64  0  0  0  0  0  0  0  0999 V2000
  -10.1741    1.7096   -1.3203 C   0  0  0  0  0  0  0  0  0  0  0  0
   -8.8260    1.3027   -0.9830 N   0  0  0  0  0  0  0  0  0  0  0  0
   -8.8221    0.6723    0.2996 C   0  0  0  0  0  0  0  0  0  0  0  0
   -7.4719    0.2249    0.7177 C   0  0  0  0  0  0  0  0  0  0  0  0
   -6.4247    0.4323   -0.0875 N   0  0  0  0  0  0  0  0  0  0  0  0
   -5.1563    0.0480    0.2326 C   0  0  0  0  0  0  0  0  0  0  0  0
   -4.1027    0.2646   -0.6724 N   0  0  0  0  0  0  0  0  0  0  0  0
   -2.7762   -0.0786   -0.4057 C   0  0  0  0  0  0  0  0  0  0  0  0
   -2.2178   -0.0592    0.8265 C   0  0  0  0  0  0  0  0  0  0  0  0
   -0.8780   -0.4558    1.0050 C   0  0  0  0  0  0  0  0  0  0  0  0
   -0.1052   -0.8684   -0.0519 C   0  0  0  0  0  0  0  0  0  0  0  0
   -0.6777   -0.8843   -1.2984 C   0  0  0  0  0  0  0  0  0  0  0  0
   -1.9882   -0.4992   -1.4871 C   0  0  0  0  0  0  0  0  0  0  0  0
    1.2880   -1.2728    0.1721 N   0  0  0  0  0  0  0  0  0  0  0  0
    1.8198   -1.1836    1.4937 C   0  0  0  0  0  0  0  0  0  0  0  0
    3.2033   -1.6699    1.6474 C   0  0  0  0  0  0  0  0  0  0  0  0
    4.0174   -1.6562    0.3949 C   0  0  0  0  0  0  0  0  0  0  0  0
    3.3118   -2.2765   -0.7621 C   0  0  0  0  0  0  0  0  0  0  0  0
    1.9605   -1.7191   -1.0065 C   0  0  0  0  0  0  0  0  0  0  0  0
    4.4266   -0.2580    0.0696 C   0  0  0  0  0  0  0  0  0  0  0  0
    4.0788    0.2335   -1.0514 O   0  0  0  0  0  0  0  0  0  0  0  0
    5.1844    0.4985    0.9909 N   0  0  0  0  0  0  0  0  0  0  0  0
    5.5834    1.8436    0.6811 C   0  0  0  0  0  0  0  0  0  0  0  0
    6.4462    1.8092   -0.5289 C   0  0  0  0  0  0  0  0  0  0  0  0
    7.8123    1.5007   -0.4930 C   0  0  0  0  0  0  0  0  0  0  0  0
    8.2913    1.5627   -1.7825 C   0  0  0  0  0  0  0  0  0  0  0  0
    9.6862    1.3102   -2.2251 C   0  0  0  0  0  0  0  0  0  0  0  0
    7.2249    1.8989   -2.5407 N   0  0  0  0  0  0  0  0  0  0  0  0
    6.1756    2.0333   -1.7831 O   0  0  0  0  0  0  0  0  0  0  0  0
   -4.9713   -0.5566    1.3973 N   0  0  0  0  0  0  0  0  0  0  0  0
   -5.9513   -0.8127    2.2772 C   0  0  0  0  0  0  0  0  0  0  0  0
   -7.2218   -0.4108    1.9222 C   0  0  0  0  0  0  0  0  0  0  0  0
   -8.2547   -0.6419    2.7700 F   0  0  0  0  0  0  0  0  0  0  0  0
  -10.4403    1.4657   -2.3783 H   0  0  0  0  0  0  0  0  0  0  0  0
  -10.3813    2.7698   -1.1413 H   0  0  0  0  0  0  0  0  0  0  0  0
  -10.8792    1.1265   -0.6900 H   0  0  0  0  0  0  0  0  0  0  0  0
   -8.3741    0.7537   -1.7218 H   0  0  0  0  0  0  0  0  0  0  0  0
   -9.2181    1.3732    1.0578 H   0  0  0  0  0  0  0  0  0  0  0  0
   -9.5442   -0.1958    0.3082 H   0  0  0  0  0  0  0  0  0  0  0  0
   -4.3139    0.7203   -1.6284 H   0  0  0  0  0  0  0  0  0  0  0  0
   -2.7463    0.2707    1.6938 H   0  0  0  0  0  0  0  0  0  0  0  0
   -0.4846   -0.4191    2.0169 H   0  0  0  0  0  0  0  0  0  0  0  0
   -0.0727   -1.2085   -2.1451 H   0  0  0  0  0  0  0  0  0  0  0  0
   -2.4333   -0.5140   -2.4711 H   0  0  0  0  0  0  0  0  0  0  0  0
    1.8248   -0.0866    1.7937 H   0  0  0  0  0  0  0  0  0  0  0  0
    1.1042   -1.6597    2.2187 H   0  0  0  0  0  0  0  0  0  0  0  0
    3.1922   -2.7333    2.0368 H   0  0  0  0  0  0  0  0  0  0  0  0
    3.7290   -1.0541    2.4354 H   0  0  0  0  0  0  0  0  0  0  0  0
    4.9646   -2.2205    0.5477 H   0  0  0  0  0  0  0  0  0  0  0  0
    3.9754   -2.0936   -1.6624 H   0  0  0  0  0  0  0  0  0  0  0  0
    3.2200   -3.3791   -0.6471 H   0  0  0  0  0  0  0  0  0  0  0  0
    1.3332   -2.5131   -1.5021 H   0  0  0  0  0  0  0  0  0  0  0  0
    1.9967   -0.8629   -1.7264 H   0  0  0  0  0  0  0  0  0  0  0  0
    5.4493    0.0695    1.8949 H   0  0  0  0  0  0  0  0  0  0  0  0
    6.1617    2.2745    1.5258 H   0  0  0  0  0  0  0  0  0  0  0  0
    4.6844    2.4617    0.4492 H   0  0  0  0  0  0  0  0  0  0  0  0
    8.4076    1.2561    0.3650 H   0  0  0  0  0  0  0  0  0  0  0  0
   10.1671    0.5742   -1.5473 H   0  0  0  0  0  0  0  0  0  0  0  0
    9.6843    0.8568   -3.2364 H   0  0  0  0  0  0  0  0  0  0  0  0
   10.3131    2.2277   -2.1743 H   0  0  0  0  0  0  0  0  0  0  0  0
   -5.8103   -1.3017    3.2221 H   0  0  0  0  0  0  0  0  0  0  0  0
  1  2  1  0
  2  3  1  0
  3  4  1  0
  4  5  2  0
  5  6  1  0
  6  7  1  0
  7  8  1  0
  8  9  2  0
  9 10  1  0
 10 11  2  0
 11 12  1  0
 12 13  2  0
 11 14  1  0
 14 15  1  0
 15 16  1  0
 16 17  1  0
 17 18  1  0
 18 19  1  0
 17 20  1  0
 20 21  2  0
 20 22  1  0
 22 23  1  0
 23 24  1  0
 24 25  2  0
 25 26  1  0
 26 27  1  0
 26 28  2  0
 28 29  1  0
  6 30  2  0
 30 31  1  0
 31 32  2  0
 32 33  1  0
 32  4  1  0
 13  8  1  0
 19 14  1  0
 29 24  1  0
  1 34  1  0
  1 35  1  0
  1 36  1  0
  2 37  1  0
  3 38  1  0
  3 39  1  0
  7 40  1  0
  9 41  1  0
 10 42  1  0
 12 43  1  0
 13 44  1  0
 15 45  1  0
 15 46  1  0
 16 47  1  0
 16 48  1  0
 17 49  1  0
 18 50  1  0
 18 51  1  0
 19 52  1  0
 19 53  1  0
 22 54  1  0
 23 55  1  0
 23 56  1  0
 25 57  1  0
 27 58  1  0
 27 59  1  0
 27 60  1  0
 31 61  1  0
M  END
$$$$
[H]N=C(OC([H])([H])C([H])([H])C(=O)N([H])C(=O)C([H])([H])n1c([H])nc2nc([H])c([H])c([H])c21)N([H])[H]
     RDKit          3D

 35 36  0  0  0  0  0  0  0  0999 V2000
    4.9540   -0.4075    0.5087 O   0  0  0  0  0  0  0  0  0  0  0  0
    6.0472   -0.8859    1.1918 C   0  0  0  0  0  0  0  0  0  0  0  0
    5.8832   -1.3432    2.3781 N   0  0  0  0  0  0  0  0  0  0  0  0
    7.3190   -0.8667    0.5836 N   0  0  0  0  0  0  0  0  0  0  0  0
    3.6734   -0.2670    1.1419 C   0  0  0  0  0  0  0  0  0  0  0  0
    2.7584    0.2814    0.0697 C   0  0  0  0  0  0  0  0  0  0  0  0
    1.3858    0.4925    0.5556 C   0  0  0  0  0  0  0  0  0  0  0  0
    0.3416    0.9875   -0.2641 N   0  0  0  0  0  0  0  0  0  0  0  0
   -0.9809    1.2044    0.1866 C   0  0  0  0  0  0  0  0  0  0  0  0
   -1.2598    0.9472    1.3804 O   0  0  0  0  0  0  0  0  0  0  0  0
   -2.0371    1.7189   -0.6940 C   0  0  0  0  0  0  0  0  0  0  0  0
   -2.8231    0.6890   -1.3413 N   0  0  0  0  0  0  0  0  0  0  0  0
   -3.9541    0.1148   -0.8918 C   0  0  0  0  0  0  0  0  0  0  0  0
   -4.7113    0.2967    0.2634 C   0  0  0  0  0  0  0  0  0  0  0  0
   -5.8435   -0.4338    0.4757 C   0  0  0  0  0  0  0  0  0  0  0  0
   -6.2487   -1.3563   -0.4473 C   0  0  0  0  0  0  0  0  0  0  0  0
   -5.5346   -1.5473   -1.5659 N   0  0  0  0  0  0  0  0  0  0  0  0
   -4.4214   -0.8292   -1.7752 C   0  0  0  0  0  0  0  0  0  0  0  0
   -3.5102   -0.8002   -2.7931 N   0  0  0  0  0  0  0  0  0  0  0  0
   -2.5562    0.1008   -2.5417 C   0  0  0  0  0  0  0  0  0  0  0  0
    1.1236    0.2222    1.7543 O   0  0  0  0  0  0  0  0  0  0  0  0
    4.9572   -1.3726    2.8590 H   0  0  0  0  0  0  0  0  0  0  0  0
    8.0228   -0.1408    0.8714 H   0  0  0  0  0  0  0  0  0  0  0  0
    7.6352   -1.5260   -0.1468 H   0  0  0  0  0  0  0  0  0  0  0  0
    3.8317    0.4700    1.9666 H   0  0  0  0  0  0  0  0  0  0  0  0
    3.2954   -1.2288    1.5052 H   0  0  0  0  0  0  0  0  0  0  0  0
    2.7041   -0.5049   -0.7242 H   0  0  0  0  0  0  0  0  0  0  0  0
    3.2064    1.1898   -0.3861 H   0  0  0  0  0  0  0  0  0  0  0  0
    0.5993    1.1997   -1.2682 H   0  0  0  0  0  0  0  0  0  0  0  0
   -2.6837    2.4807   -0.2006 H   0  0  0  0  0  0  0  0  0  0  0  0
   -1.5160    2.3002   -1.5130 H   0  0  0  0  0  0  0  0  0  0  0  0
   -4.3345    1.0422    0.9532 H   0  0  0  0  0  0  0  0  0  0  0  0
   -6.4243   -0.2738    1.3919 H   0  0  0  0  0  0  0  0  0  0  0  0
   -7.1690   -1.9484   -0.2702 H   0  0  0  0  0  0  0  0  0  0  0  0
   -1.7303    0.2934   -3.2137 H   0  0  0  0  0  0  0  0  0  0  0  0
  1  2  1  0
  2  3  2  3
  2  4  1  0
  1  5  1  0
  5  6  1  0
  6  7  1  0
  7  8  1  0
  8  9  1  0
  9 10  2  0
  9 11  1  0
 11 12  1  0
 12 13  1  0
 13 14  2  0
 14 15  1  0
 15 16  2  0
 16 17  1  0
 17 18  2  0
 18 19  1  0
 19 20  2  0
  7 21  2  0
 20 12  1  0
 18 13  1  0
  3 22  1  0
  4 23  1  0
  4 24  1  0
  5 25  1  0
  5 26  1  0
  6 27  1  0
  6 28  1  0
  8 29  1  0
 11 30  1  0
 11 31  1  0
 14 32  1  0
 15 33  1  0
 16 34  1  0
 20 35  1  0
M  END
$$$$
[H]OC(C([H])([H])[H])(C([H])([H])[H])C([H])([H])N([H])C([H])([H])c1c(-c2sc3c(OC([H])([H])[H])c([H])c(C([H])([H])[H])c([H])c3c2[H])c2c(N([H])[H])nc([H])nn2c1[H]
     RDKit          3D

 54 57  0  0  0  0  0  0  0  0999 V2000
    3.3986    4.3956    0.9335 C   0  0  0  0  0  0  0  0  0  0  0  0
    2.6840    3.1883    0.8570 O   0  0  0  0  0  0  0  0  0  0  0  0
    3.2745    2.0959    0.2586 C   0  0  0  0  0  0  0  0  0  0  0  0
    4.5418    2.1429   -0.2690 C   0  0  0  0  0  0  0  0  0  0  0  0
    5.0300    0.9929   -0.8423 C   0  0  0  0  0  0  0  0  0  0  0  0
    6.4218    1.0237   -1.4276 C   0  0  0  0  0  0  0  0  0  0  0  0
    4.2821   -0.1552   -0.8860 C   0  0  0  0  0  0  0  0  0  0  0  0
    2.9781   -0.2284   -0.3507 C   0  0  0  0  0  0  0  0  0  0  0  0
    2.1612   -1.3003   -0.3382 C   0  0  0  0  0  0  0  0  0  0  0  0
    0.9344   -1.1856    0.2291 C   0  0  0  0  0  0  0  0  0  0  0  0
    0.9522    0.4767    0.7441 S   0  0  0  0  0  0  0  0  0  0  0  0
    2.5056    0.9201    0.2156 C   0  0  0  0  0  0  0  0  0  0  0  0
   -0.2234   -2.0974    0.3023 C   0  0  0  0  0  0  0  0  0  0  0  0
   -1.5320   -1.6864    0.0704 C   0  0  0  0  0  0  0  0  0  0  0  0
   -1.9965   -0.3291   -0.3220 C   0  0  0  0  0  0  0  0  0  0  0  0
   -3.4063   -0.3817   -0.4687 N   0  0  0  0  0  0  0  0  0  0  0  0
   -4.1400    0.7279   -0.8311 C   0  0  0  0  0  0  0  0  0  0  0  0
   -4.2545    1.8725    0.1221 C   0  0  0  0  0  0  0  0  0  0  0  0
   -5.0282    2.9589   -0.6063 C   0  0  0  0  0  0  0  0  0  0  0  0
   -5.0722    1.5350    1.3505 C   0  0  0  0  0  0  0  0  0  0  0  0
   -3.0288    2.4430    0.4587 O   0  0  0  0  0  0  0  0  0  0  0  0
   -2.3070   -2.7920    0.2818 C   0  0  0  0  0  0  0  0  0  0  0  0
   -1.5628   -3.8368    0.6269 N   0  0  0  0  0  0  0  0  0  0  0  0
   -1.9157   -5.0836    0.9412 N   0  0  0  0  0  0  0  0  0  0  0  0
   -0.9944   -5.9855    1.2976 C   0  0  0  0  0  0  0  0  0  0  0  0
    0.2909   -5.6231    1.3377 N   0  0  0  0  0  0  0  0  0  0  0  0
    0.6789   -4.3546    1.0205 C   0  0  0  0  0  0  0  0  0  0  0  0
    2.0439   -4.0054    1.1594 N   0  0  0  0  0  0  0  0  0  0  0  0
   -0.2604   -3.4159    0.6460 C   0  0  0  0  0  0  0  0  0  0  0  0
    3.5309    4.8668   -0.0746 H   0  0  0  0  0  0  0  0  0  0  0  0
    4.4247    4.2012    1.3135 H   0  0  0  0  0  0  0  0  0  0  0  0
    2.8644    5.1605    1.5384 H   0  0  0  0  0  0  0  0  0  0  0  0
    5.1468    3.0303   -0.2475 H   0  0  0  0  0  0  0  0  0  0  0  0
    7.1367    1.2968   -0.6044 H   0  0  0  0  0  0  0  0  0  0  0  0
    6.5061    1.8563   -2.1551 H   0  0  0  0  0  0  0  0  0  0  0  0
    6.6925    0.0441   -1.8585 H   0  0  0  0  0  0  0  0  0  0  0  0
    4.7603   -1.0087   -1.3607 H   0  0  0  0  0  0  0  0  0  0  0  0
    2.4526   -2.2630   -0.8398 H   0  0  0  0  0  0  0  0  0  0  0  0
   -1.5009   -0.0452   -1.2675 H   0  0  0  0  0  0  0  0  0  0  0  0
   -1.6497    0.3719    0.4600 H   0  0  0  0  0  0  0  0  0  0  0  0
   -3.6308   -1.1864   -1.1132 H   0  0  0  0  0  0  0  0  0  0  0  0
   -5.1749    0.4159   -1.0908 H   0  0  0  0  0  0  0  0  0  0  0  0
   -3.7316    1.1547   -1.7921 H   0  0  0  0  0  0  0  0  0  0  0  0
   -4.3101    3.5851   -1.1390 H   0  0  0  0  0  0  0  0  0  0  0  0
   -5.5918    3.5712    0.1325 H   0  0  0  0  0  0  0  0  0  0  0  0
   -5.7524    2.4697   -1.2998 H   0  0  0  0  0  0  0  0  0  0  0  0
   -6.1436    1.4417    1.1442 H   0  0  0  0  0  0  0  0  0  0  0  0
   -4.7372    0.5650    1.7980 H   0  0  0  0  0  0  0  0  0  0  0  0
   -4.9631    2.3869    2.0692 H   0  0  0  0  0  0  0  0  0  0  0  0
   -3.2061    3.3678    0.7340 H   0  0  0  0  0  0  0  0  0  0  0  0
   -3.3888   -2.8265    0.1849 H   0  0  0  0  0  0  0  0  0  0  0  0
   -1.2772   -7.0099    1.5559 H   0  0  0  0  0  0  0  0  0  0  0  0
    2.3633   -3.4532    1.9820 H   0  0  0  0  0  0  0  0  0  0  0  0
    2.7242   -4.3053    0.4346 H   0  0  0  0  0  0  0  0  0  0  0  0
  1  2  1  0
  2  3  1  0
  3  4  2  0
  4  5  1  0
  5  6  1  0
  5  7  2  0
  7  8  1  0
  8  9  1  0
  9 10  2  0
 10 11  1  0
 11 12  1  0
 10 13  1  0
 13 14  1  0
 14 15  1  0
 15 16  1  0
 16 17  1  0
 17 18  1  0
 18 19  1  0
 18 20  1  0
 18 21  1  0
 14 22  2  0
 22 23  1  0
 23 24  1  0
 24 25  2  0
 25 26  1  0
 26 27  2  0
 27 28  1  0
 27 29  1  0
 12  3  1  0
 29 13  2  0
 12  8  2  0
 29 23  1  0
  1 30  1  0
  1 31  1  0
  1 32  1  0
  4 33  1  0
  6 34  1  0
  6 35  1  0
  6 36  1  0
  7 37  1  0
  9 38  1  0
 15 39  1  0
 15 40  1  0
 16 41  1  0
 17 42  1  0
 17 43  1  0
 19 44  1  0
 19 45  1  0
 19 46  1  0
 20 47  1  0
 20 48  1  0
 20 49  1  0
 21 50  1  0
 22 51  1  0
 25 52  1  0
 28 53  1  0
 28 54  1  0
M  END
$$$$
[H]c1c(C([H])([H])[H])nc(C([H])([H])[H])c([H])c1-c1nc(-c2c([H])c([H])c(C([H])([H])[H])c(F)c2[H])n2c1C([H])([H])C([H])([H])O[C@]([H])(C([H])([H])[H])C2([H])[H]
     RDKit          3D

 51 54  0  0  0  0  0  0  0  0999 V2000
   -2.9328   -3.0283   -0.9669 C   0  0  0  0  0  0  0  0  0  0  0  0
   -1.7015   -2.9780   -0.1336 C   0  0  2  0  0  0  0  0  0  0  0  0
   -1.7951   -1.9221    0.9339 C   0  0  0  0  0  0  0  0  0  0  0  0
   -0.8735   -0.8605    0.6056 N   0  0  0  0  0  0  0  0  0  0  0  0
    0.4829   -1.1210    0.5291 C   0  0  0  0  0  0  0  0  0  0  0  0
    1.1455   -2.4463    0.6804 C   0  0  0  0  0  0  0  0  0  0  0  0
    0.5529   -3.3750   -0.3901 C   0  0  0  0  0  0  0  0  0  0  0  0
   -0.5891   -2.7614   -0.9591 O   0  0  0  0  0  0  0  0  0  0  0  0
    1.1446    0.0483    0.2638 C   0  0  0  0  0  0  0  0  0  0  0  0
    0.1808    0.9684    0.1864 N   0  0  0  0  0  0  0  0  0  0  0  0
   -1.0554    0.4236    0.3922 C   0  0  0  0  0  0  0  0  0  0  0  0
   -2.2825    1.1964    0.4112 C   0  0  0  0  0  0  0  0  0  0  0  0
   -3.5489    0.7332    0.2971 C   0  0  0  0  0  0  0  0  0  0  0  0
   -4.6657    1.5818    0.4024 C   0  0  0  0  0  0  0  0  0  0  0  0
   -4.5072    2.9127    0.6236 C   0  0  0  0  0  0  0  0  0  0  0  0
   -5.7023    3.8151    0.7355 C   0  0  0  0  0  0  0  0  0  0  0  0
   -3.2344    3.4098    0.7417 C   0  0  0  0  0  0  0  0  0  0  0  0
   -3.1072    4.7409    0.9632 F   0  0  0  0  0  0  0  0  0  0  0  0
   -2.1473    2.5719    0.6379 C   0  0  0  0  0  0  0  0  0  0  0  0
    2.5883    0.2708    0.0873 C   0  0  0  0  0  0  0  0  0  0  0  0
    3.0419    0.9818   -1.0040 C   0  0  0  0  0  0  0  0  0  0  0  0
    4.4011    1.2342   -1.1952 C   0  0  0  0  0  0  0  0  0  0  0  0
    4.9038    1.9989   -2.3666 C   0  0  0  0  0  0  0  0  0  0  0  0
    5.2796    0.7649   -0.2818 N   0  0  0  0  0  0  0  0  0  0  0  0
    4.8902    0.0640    0.8037 C   0  0  0  0  0  0  0  0  0  0  0  0
    5.9058   -0.4281    1.7767 C   0  0  0  0  0  0  0  0  0  0  0  0
    3.5342   -0.1769    0.9767 C   0  0  0  0  0  0  0  0  0  0  0  0
   -3.8073   -3.2964   -0.3381 H   0  0  0  0  0  0  0  0  0  0  0  0
   -3.1217   -2.0440   -1.4255 H   0  0  0  0  0  0  0  0  0  0  0  0
   -2.7844   -3.8011   -1.7627 H   0  0  0  0  0  0  0  0  0  0  0  0
   -1.5145   -4.0075    0.3119 H   0  0  0  0  0  0  0  0  0  0  0  0
   -2.7606   -1.6639    1.3033 H   0  0  0  0  0  0  0  0  0  0  0  0
   -1.3177   -2.4593    1.8597 H   0  0  0  0  0  0  0  0  0  0  0  0
    2.2144   -2.3821    0.4979 H   0  0  0  0  0  0  0  0  0  0  0  0
    0.9255   -2.8932    1.6827 H   0  0  0  0  0  0  0  0  0  0  0  0
    1.2872   -3.4018   -1.2168 H   0  0  0  0  0  0  0  0  0  0  0  0
    0.3082   -4.3602    0.0149 H   0  0  0  0  0  0  0  0  0  0  0  0
   -3.7899   -0.2924    0.0844 H   0  0  0  0  0  0  0  0  0  0  0  0
   -5.6584    1.1707    0.3064 H   0  0  0  0  0  0  0  0  0  0  0  0
   -6.5957    3.2127    0.9590 H   0  0  0  0  0  0  0  0  0  0  0  0
   -5.5458    4.5951    1.4998 H   0  0  0  0  0  0  0  0  0  0  0  0
   -5.8652    4.3343   -0.2414 H   0  0  0  0  0  0  0  0  0  0  0  0
   -1.1642    2.9992    0.7367 H   0  0  0  0  0  0  0  0  0  0  0  0
    2.3407    1.3562   -1.7328 H   0  0  0  0  0  0  0  0  0  0  0  0
    5.3572    2.9413   -1.9439 H   0  0  0  0  0  0  0  0  0  0  0  0
    5.6999    1.3656   -2.8301 H   0  0  0  0  0  0  0  0  0  0  0  0
    4.0932    2.2381   -3.0569 H   0  0  0  0  0  0  0  0  0  0  0  0
    6.2372    0.4624    2.3743 H   0  0  0  0  0  0  0  0  0  0  0  0
    6.7875   -0.7400    1.1757 H   0  0  0  0  0  0  0  0  0  0  0  0
    5.5206   -1.2175    2.4198 H   0  0  0  0  0  0  0  0  0  0  0  0
    3.2450   -0.7354    1.8557 H   0  0  0  0  0  0  0  0  0  0  0  0
  1  2  1  0
  2  3  1  0
  3  4  1  0
  4  5  1  0
  5  6  1  0
  6  7  1  0
  7  8  1  0
  5  9  2  0
  9 10  1  0
 10 11  2  0
 11 12  1  0
 12 13  2  0
 13 14  1  0
 14 15  2  0
 15 16  1  0
 15 17  1  0
 17 18  1  0
 17 19  2  0
  9 20  1  0
 20 21  2  0
 21 22  1  0
 22 23  1  0
 22 24  2  0
 24 25  1  0
 25 26  1  0
 25 27  2  0
  8  2  1  0
 19 12  1  0
 27 20  1  0
 11  4  1  0
  1 28  1  0
  1 29  1  0
  1 30  1  0
  2 31  1  1
  3 32  1  0
  3 33  1  0
  6 34  1  0
  6 35  1  0
  7 36  1  0
  7 37  1  0
 13 38  1  0
 14 39  1  0
 16 40  1  0
 16 41  1  0
 16 42  1  0
 19 43  1  0
 21 44  1  0
 23 45  1  0
 23 46  1  0
 23 47  1  0
 26 48  1  0
 26 49  1  0
 26 50  1  0
 27 51  1  0
M  END
$$$$
[H]C1=C([H])C([H])(F)C([H])([H])C([H])=C1N([H])C(=O)C1(C(=O)N([H])c2c([H])c([H])c(Oc3c([H])c([H])nc4c([H])c(OC([H])([H])C([H])([H])C([H])([H])N5C([H])([H])C([H])([H])OC([H])([H])C5([H])[H])c(OC([H])([H])[H])c([H])c34)c(F)c2[H])C([H])([H])C1([H])[H]
     RDKit          3D

 82 87  0  0  0  0  0  0  0  0999 V2000
    3.9666    3.0495   -1.7322 C   0  0  0  0  0  0  0  0  0  0  0  0
    4.8184    1.9472   -1.5191 O   0  0  0  0  0  0  0  0  0  0  0  0
    4.2779    0.7150   -1.2054 C   0  0  0  0  0  0  0  0  0  0  0  0
    2.9355    0.4830   -1.0834 C   0  0  0  0  0  0  0  0  0  0  0  0
    2.5057   -0.7878   -0.7673 C   0  0  0  0  0  0  0  0  0  0  0  0
    1.1302   -1.0757   -0.6337 C   0  0  0  0  0  0  0  0  0  0  0  0
    0.2693   -0.0306   -0.8259 O   0  0  0  0  0  0  0  0  0  0  0  0
   -1.0898   -0.1642   -0.6451 C   0  0  0  0  0  0  0  0  0  0  0  0
   -1.9847   -0.0120   -1.6950 C   0  0  0  0  0  0  0  0  0  0  0  0
   -3.3381   -0.1282   -1.5809 C   0  0  0  0  0  0  0  0  0  0  0  0
   -3.8905   -0.4214   -0.3289 C   0  0  0  0  0  0  0  0  0  0  0  0
   -5.3238   -0.4986   -0.2135 N   0  0  0  0  0  0  0  0  0  0  0  0
   -5.9613   -1.3830    0.6262 C   0  0  0  0  0  0  0  0  0  0  0  0
   -5.1921   -2.1849    1.2964 O   0  0  0  0  0  0  0  0  0  0  0  0
   -7.4011   -1.5958    0.9101 C   0  0  0  0  0  0  0  0  0  0  0  0
   -7.6820   -2.4618    2.1265 C   0  0  0  0  0  0  0  0  0  0  0  0
   -7.8126   -3.1190    0.8294 C   0  0  0  0  0  0  0  0  0  0  0  0
   -8.4706   -0.6963    0.4763 C   0  0  0  0  0  0  0  0  0  0  0  0
   -9.6747   -1.1656    0.7176 O   0  0  0  0  0  0  0  0  0  0  0  0
   -8.4814    0.5528   -0.1324 N   0  0  0  0  0  0  0  0  0  0  0  0
   -9.7446    1.2195   -0.4499 C   0  0  0  0  0  0  0  0  0  0  0  0
   -9.9496    2.4040    0.0799 C   0  0  0  0  0  0  0  0  0  0  0  0
  -11.1350    3.2347   -0.1097 C   0  0  0  0  0  0  0  0  0  0  0  0
  -12.2008    2.6387   -0.9439 C   0  0  0  0  0  0  0  0  0  0  0  0
  -12.4721    3.4850   -2.0494 F   0  0  0  0  0  0  0  0  0  0  0  0
  -11.8730    1.3187   -1.4859 C   0  0  0  0  0  0  0  0  0  0  0  0
  -10.7586    0.6480   -1.2759 C   0  0  0  0  0  0  0  0  0  0  0  0
   -3.0432   -0.5784    0.7341 C   0  0  0  0  0  0  0  0  0  0  0  0
   -1.6522   -0.4525    0.5863 C   0  0  0  0  0  0  0  0  0  0  0  0
   -0.8827   -0.5957    1.6903 F   0  0  0  0  0  0  0  0  0  0  0  0
    0.7223   -2.3515   -0.3227 C   0  0  0  0  0  0  0  0  0  0  0  0
    1.6378   -3.3635   -0.1352 C   0  0  0  0  0  0  0  0  0  0  0  0
    2.9451   -3.0865   -0.2619 N   0  0  0  0  0  0  0  0  0  0  0  0
    3.3732   -1.8309   -0.5703 C   0  0  0  0  0  0  0  0  0  0  0  0
    4.7330   -1.5901   -0.6954 C   0  0  0  0  0  0  0  0  0  0  0  0
    5.1920   -0.3333   -1.0085 C   0  0  0  0  0  0  0  0  0  0  0  0
    6.5206   -0.0853   -1.1253 O   0  0  0  0  0  0  0  0  0  0  0  0
    7.5310   -0.9938   -0.8772 C   0  0  0  0  0  0  0  0  0  0  0  0
    7.6262   -1.3701    0.5948 C   0  0  0  0  0  0  0  0  0  0  0  0
    7.9359   -0.0985    1.3961 C   0  0  0  0  0  0  0  0  0  0  0  0
    9.1945    0.4265    0.9288 N   0  0  0  0  0  0  0  0  0  0  0  0
    9.4053    1.7864    1.4776 C   0  0  0  0  0  0  0  0  0  0  0  0
   10.8161    2.1639    1.0165 C   0  0  0  0  0  0  0  0  0  0  0  0
   11.2632    1.3549   -0.0281 O   0  0  0  0  0  0  0  0  0  0  0  0
   11.4615    0.0232    0.3872 C   0  0  0  0  0  0  0  0  0  0  0  0
   10.3466   -0.3576    1.3702 C   0  0  0  0  0  0  0  0  0  0  0  0
    4.5770    3.9509   -1.9692 H   0  0  0  0  0  0  0  0  0  0  0  0
    3.3066    3.2216   -0.8582 H   0  0  0  0  0  0  0  0  0  0  0  0
    3.3086    2.7911   -2.5987 H   0  0  0  0  0  0  0  0  0  0  0  0
    2.2243    1.2761   -1.2311 H   0  0  0  0  0  0  0  0  0  0  0  0
   -1.5528    0.2161   -2.6750 H   0  0  0  0  0  0  0  0  0  0  0  0
   -4.0246   -0.0039   -2.4200 H   0  0  0  0  0  0  0  0  0  0  0  0
   -5.8260    0.1518   -0.8369 H   0  0  0  0  0  0  0  0  0  0  0  0
   -6.8106   -2.7138    2.7607 H   0  0  0  0  0  0  0  0  0  0  0  0
   -8.5985   -2.2800    2.7131 H   0  0  0  0  0  0  0  0  0  0  0  0
   -7.0275   -3.7752    0.4011 H   0  0  0  0  0  0  0  0  0  0  0  0
   -8.7992   -3.3162    0.3639 H   0  0  0  0  0  0  0  0  0  0  0  0
   -7.6334    1.0911   -0.3743 H   0  0  0  0  0  0  0  0  0  0  0  0
   -9.1652    2.8388    0.7401 H   0  0  0  0  0  0  0  0  0  0  0  0
  -11.5358    3.5321    0.9159 H   0  0  0  0  0  0  0  0  0  0  0  0
  -10.8538    4.2484   -0.5572 H   0  0  0  0  0  0  0  0  0  0  0  0
  -13.1586    2.5647   -0.3407 H   0  0  0  0  0  0  0  0  0  0  0  0
  -12.6648    0.8691   -2.1323 H   0  0  0  0  0  0  0  0  0  0  0  0
  -10.6018   -0.3227   -1.7168 H   0  0  0  0  0  0  0  0  0  0  0  0
   -3.4037   -0.7893    1.7394 H   0  0  0  0  0  0  0  0  0  0  0  0
   -0.3200   -2.5956   -0.2356 H   0  0  0  0  0  0  0  0  0  0  0  0
    1.2680   -4.3480    0.1079 H   0  0  0  0  0  0  0  0  0  0  0  0
    5.3620   -2.4538   -0.5623 H   0  0  0  0  0  0  0  0  0  0  0  0
    7.4424   -1.9223   -1.5038 H   0  0  0  0  0  0  0  0  0  0  0  0
    8.4920   -0.5348   -1.2249 H   0  0  0  0  0  0  0  0  0  0  0  0
    6.7751   -1.8921    1.0071 H   0  0  0  0  0  0  0  0  0  0  0  0
    8.4922   -2.0400    0.6815 H   0  0  0  0  0  0  0  0  0  0  0  0
    7.1233    0.6400    1.3255 H   0  0  0  0  0  0  0  0  0  0  0  0
    8.0487   -0.4301    2.4644 H   0  0  0  0  0  0  0  0  0  0  0  0
    9.4079    1.7624    2.5778 H   0  0  0  0  0  0  0  0  0  0  0  0
    8.6320    2.4413    1.0296 H   0  0  0  0  0  0  0  0  0  0  0  0
   11.5508    2.0414    1.8480 H   0  0  0  0  0  0  0  0  0  0  0  0
   10.8264    3.2054    0.6080 H   0  0  0  0  0  0  0  0  0  0  0  0
   11.3001   -0.6008   -0.5146 H   0  0  0  0  0  0  0  0  0  0  0  0
   12.4569   -0.1361    0.8078 H   0  0  0  0  0  0  0  0  0  0  0  0
   10.1090   -1.3943    1.4038 H   0  0  0  0  0  0  0  0  0  0  0  0
   10.6797    0.0679    2.3647 H   0  0  0  0  0  0  0  0  0  0  0  0
  1  2  1  0
  2  3  1  0
  3  4  2  0
  4  5  1  0
  5  6  2  0
  6  7  1  0
  7  8  1  0
  8  9  2  0
  9 10  1  0
 10 11  2  0
 11 12  1  0
 12 13  1  0
 13 14  2  0
 13 15  1  0
 15 16  1  0
 16 17  1  0
 15 18  1  0
 18 19  2  0
 18 20  1  0
 20 21  1  0
 21 22  2  0
 22 23  1  0
 23 24  1  0
 24 25  1  0
 24 26  1  0
 26 27  2  0
 11 28  1  0
 28 29  2  0
 29 30  1  0
  6 31  1  0
 31 32  2  0
 32 33  1  0
 33 34  2  0
 34 35  1  0
 35 36  2  0
 36 37  1  0
 37 38  1  0
 38 39  1  0
 39 40  1  0
 40 41  1  0
 41 42  1  0
 42 43  1  0
 43 44  1  0
 44 45  1  0
 45 46  1  0
 36  3  1  0
 46 41  1  0
 34  5  1  0
 29  8  1  0
 17 15  1  0
 27 21  1  0
  1 47  1  0
  1 48  1  0
  1 49  1  0
  4 50  1  0
  9 51  1  0
 10 52  1  0
 12 53  1  0
 16 54  1  0
 16 55  1  0
 17 56  1  0
 17 57  1  0
 20 58  1  0
 22 59  1  0
 23 60  1  0
 23 61  1  0
 24 62  1  0
 26 63  1  0
 27 64  1  0
 28 65  1  0
 31 66  1  0
 32 67  1  0
 35 68  1  0
 38 69  1  0
 38 70  1  0
 39 71  1  0
 39 72  1  0
 40 73  1  0
 40 74  1  0
 42 75  1  0
 42 76  1  0
 43 77  1  0
 43 78  1  0
 45 79  1  0
 45 80  1  0
 46 81  1  0
 46 82  1  0
M  END
$$$$
[H]c1c([H])c([H])c2c(c1[H])c1c3c(c4c5c([H])c([H])c([H])c([H])c5n5c4c1n2[C@@]1(C([H])([H])[H])O[C@]5([H])C([H])([H])[C@@]1([H])N([H])C([H])([H])[H])C(=O)N([H])C3([H])[H]
     RDKit          3D

 54 61  0  0  0  0  0  0  0  0999 V2000
    3.8237   -1.4965   -1.9979 C   0  0  0  0  0  0  0  0  0  0  0  0
    3.1169   -0.3945   -1.3252 N   0  0  0  0  0  0  0  0  0  0  0  0
    2.7811   -0.8559   -0.0220 C   0  0  2  0  0  0  0  0  0  0  0  0
    1.8338   -2.0275   -0.1456 C   0  0  0  0  0  0  0  0  0  0  0  0
    1.0898   -1.9145    1.1657 C   0  0  1  0  0  0  0  0  0  0  0  0
    1.5141   -0.8133    1.8336 O   0  0  0  0  0  0  0  0  0  0  0  0
    2.1353    0.0817    0.9080 C   0  0  1  0  0  0  0  0  0  0  0  0
    3.1485    0.7895    1.8247 C   0  0  0  0  0  0  0  0  0  0  0  0
    1.1093    0.9405    0.3952 N   0  0  0  0  0  0  0  0  0  0  0  0
    1.2071    2.2355    0.0221 C   0  0  0  0  0  0  0  0  0  0  0  0
    2.2606    3.0875   -0.0448 C   0  0  0  0  0  0  0  0  0  0  0  0
    2.1097    4.4112   -0.4838 C   0  0  0  0  0  0  0  0  0  0  0  0
    0.8845    4.9018   -0.8670 C   0  0  0  0  0  0  0  0  0  0  0  0
   -0.2098    4.0411   -0.8065 C   0  0  0  0  0  0  0  0  0  0  0  0
   -0.0213    2.7462   -0.3689 C   0  0  0  0  0  0  0  0  0  0  0  0
   -0.9093    1.7302   -0.2377 C   0  0  0  0  0  0  0  0  0  0  0  0
   -2.2560    1.5768   -0.4606 C   0  0  0  0  0  0  0  0  0  0  0  0
   -3.2157    2.6085   -0.9513 C   0  0  0  0  0  0  0  0  0  0  0  0
   -4.4783    1.9397   -1.0165 N   0  0  0  0  0  0  0  0  0  0  0  0
   -4.3313    0.5711   -0.5823 C   0  0  0  0  0  0  0  0  0  0  0  0
   -5.2936   -0.1935   -0.5512 O   0  0  0  0  0  0  0  0  0  0  0  0
   -2.9423    0.3733   -0.2432 C   0  0  0  0  0  0  0  0  0  0  0  0
   -2.2269   -0.7095    0.2165 C   0  0  0  0  0  0  0  0  0  0  0  0
   -2.5254   -2.0026    0.5146 C   0  0  0  0  0  0  0  0  0  0  0  0
   -3.6836   -2.7287    0.4907 C   0  0  0  0  0  0  0  0  0  0  0  0
   -3.6462   -4.0704    0.8687 C   0  0  0  0  0  0  0  0  0  0  0  0
   -2.4676   -4.6727    1.2638 C   0  0  0  0  0  0  0  0  0  0  0  0
   -1.3040   -3.9355    1.2856 C   0  0  0  0  0  0  0  0  0  0  0  0
   -1.3232   -2.5881    0.9098 C   0  0  0  0  0  0  0  0  0  0  0  0
   -0.3369   -1.7120    0.8615 N   0  0  0  0  0  0  0  0  0  0  0  0
   -0.8620   -0.5480    0.4416 C   0  0  0  0  0  0  0  0  0  0  0  0
   -0.2212    0.6614    0.2164 C   0  0  0  0  0  0  0  0  0  0  0  0
    4.8320   -1.1196   -2.2993 H   0  0  0  0  0  0  0  0  0  0  0  0
    4.0008   -2.3495   -1.3023 H   0  0  0  0  0  0  0  0  0  0  0  0
    3.2849   -1.8930   -2.8569 H   0  0  0  0  0  0  0  0  0  0  0  0
    2.2826   -0.2050   -1.9175 H   0  0  0  0  0  0  0  0  0  0  0  0
    3.6908   -1.2720    0.5175 H   0  0  0  0  0  0  0  0  0  0  0  0
    2.3701   -2.9820   -0.2480 H   0  0  0  0  0  0  0  0  0  0  0  0
    1.1385   -1.8998   -1.0186 H   0  0  0  0  0  0  0  0  0  0  0  0
    1.1810   -2.8615    1.6855 H   0  0  0  0  0  0  0  0  0  0  0  0
    3.4219    0.1387    2.7081 H   0  0  0  0  0  0  0  0  0  0  0  0
    2.7307    1.7156    2.2539 H   0  0  0  0  0  0  0  0  0  0  0  0
    4.1290    0.9221    1.3135 H   0  0  0  0  0  0  0  0  0  0  0  0
    3.2300    2.7649    0.2170 H   0  0  0  0  0  0  0  0  0  0  0  0
    2.9719    5.0667   -0.5253 H   0  0  0  0  0  0  0  0  0  0  0  0
    0.6967    5.9001   -1.2111 H   0  0  0  0  0  0  0  0  0  0  0  0
   -1.1898    4.3574   -1.0889 H   0  0  0  0  0  0  0  0  0  0  0  0
   -3.2601    3.4716   -0.2547 H   0  0  0  0  0  0  0  0  0  0  0  0
   -2.9265    2.9644   -1.9658 H   0  0  0  0  0  0  0  0  0  0  0  0
   -5.3565    2.4020   -1.3362 H   0  0  0  0  0  0  0  0  0  0  0  0
   -4.6330   -2.3697    0.2062 H   0  0  0  0  0  0  0  0  0  0  0  0
   -4.5447   -4.6771    0.8607 H   0  0  0  0  0  0  0  0  0  0  0  0
   -2.4361   -5.7165    1.5573 H   0  0  0  0  0  0  0  0  0  0  0  0
   -0.3740   -4.3906    1.5911 H   0  0  0  0  0  0  0  0  0  0  0  0
  1  2  1  0
  2  3  1  0
  3  4  1  0
  4  5  1  0
  5  6  1  0
  6  7  1  0
  7  8  1  1
  7  9  1  0
  9 10  1  0
 10 11  2  0
 11 12  1  0
 12 13  2  0
 13 14  1  0
 14 15  2  0
 15 16  1  0
 16 17  2  0
 17 18  1  0
 18 19  1  0
 19 20  1  0
 20 21  2  0
 20 22  1  0
 22 23  2  0
 23 24  1  0
 24 25  2  0
 25 26  1  0
 26 27  2  0
 27 28  1  0
 28 29  2  0
 29 30  1  0
 30 31  1  0
 31 32  2  0
  7  3  1  0
 32  9  1  0
 30  5  1  0
 15 10  1  0
 32 16  1  0
 22 17  1  0
 31 23  1  0
 29 24  1  0
  1 33  1  0
  1 34  1  0
  1 35  1  0
  2 36  1  0
  3 37  1  1
  4 38  1  0
  4 39  1  0
  5 40  1  1
  8 41  1  0
  8 42  1  0
  8 43  1  0
 11 44  1  0
 12 45  1  0
 13 46  1  0
 14 47  1  0
 18 48  1  0
 18 49  1  0
 19 50  1  0
 25 51  1  0
 26 52  1  0
 27 53  1  0
 28 54  1  0
M  END
$$$$
[H]c1nc(-c2c([H])c([H])c([H])c(N3C([H])([H])C([H])([H])N(C([H])([H])[H])C([H])([H])C3([H])[H])c2[H])c2nc([H])c(N([H])C(=O)c3c([H])c([H])c(F)c(C(F)(F)F)c3[H])c([H])c2n1
     RDKit          3D

 59 63  0  0  0  0  0  0  0  0999 V2000
   -4.3760   -1.1862    0.5512 C   0  0  0  0  0  0  0  0  0  0  0  0
   -5.5801   -0.8017   -0.0624 N   0  0  0  0  0  0  0  0  0  0  0  0
   -6.8418   -0.6032    0.6116 C   0  0  0  0  0  0  0  0  0  0  0  0
   -7.2661    0.8518    0.5875 C   0  0  0  0  0  0  0  0  0  0  0  0
   -6.9682    1.3809   -0.7319 N   0  0  0  0  0  0  0  0  0  0  0  0
   -5.8392    2.2802   -0.7124 C   0  0  0  0  0  0  0  0  0  0  0  0
   -6.8566    0.3632   -1.7380 C   0  0  0  0  0  0  0  0  0  0  0  0
   -5.6472   -0.5539   -1.5152 C   0  0  0  0  0  0  0  0  0  0  0  0
   -3.2705   -1.4375   -0.2644 C   0  0  0  0  0  0  0  0  0  0  0  0
   -2.0423   -1.8181    0.2621 C   0  0  0  0  0  0  0  0  0  0  0  0
   -0.9012   -2.0905   -0.5954 C   0  0  0  0  0  0  0  0  0  0  0  0
    0.3251   -1.5286   -0.3181 C   0  0  0  0  0  0  0  0  0  0  0  0
    1.4274   -1.7698   -1.1367 C   0  0  0  0  0  0  0  0  0  0  0  0
    2.6354   -1.1646   -0.7993 C   0  0  0  0  0  0  0  0  0  0  0  0
    2.7723   -0.3635    0.2773 C   0  0  0  0  0  0  0  0  0  0  0  0
    3.9793    0.2683    0.6179 N   0  0  0  0  0  0  0  0  0  0  0  0
    5.1015    0.4650   -0.1913 C   0  0  0  0  0  0  0  0  0  0  0  0
    5.1296    0.0716   -1.3778 O   0  0  0  0  0  0  0  0  0  0  0  0
    6.3189    1.1453    0.3000 C   0  0  0  0  0  0  0  0  0  0  0  0
    7.4722    1.1272   -0.4613 C   0  0  0  0  0  0  0  0  0  0  0  0
    8.6249    1.7365   -0.0700 C   0  0  0  0  0  0  0  0  0  0  0  0
    9.8513    1.7019   -0.9073 C   0  0  0  0  0  0  0  0  0  0  0  0
   10.1966    2.9858   -1.2185 F   0  0  0  0  0  0  0  0  0  0  0  0
   10.8334    1.0564   -0.1868 F   0  0  0  0  0  0  0  0  0  0  0  0
    9.5931    0.9387   -2.0269 F   0  0  0  0  0  0  0  0  0  0  0  0
    8.6882    2.4077    1.1225 C   0  0  0  0  0  0  0  0  0  0  0  0
    9.8402    3.0194    1.5188 F   0  0  0  0  0  0  0  0  0  0  0  0
    7.5533    2.4364    1.8912 C   0  0  0  0  0  0  0  0  0  0  0  0
    6.3757    1.8134    1.4905 C   0  0  0  0  0  0  0  0  0  0  0  0
    1.6233   -0.1519    1.0740 C   0  0  0  0  0  0  0  0  0  0  0  0
    0.4647   -0.7313    0.7528 N   0  0  0  0  0  0  0  0  0  0  0  0
    1.2699   -2.5615   -2.2021 N   0  0  0  0  0  0  0  0  0  0  0  0
    0.0662   -3.1207   -2.4858 C   0  0  0  0  0  0  0  0  0  0  0  0
   -0.9862   -2.8772   -1.6853 N   0  0  0  0  0  0  0  0  0  0  0  0
   -1.9624   -1.9376    1.6298 C   0  0  0  0  0  0  0  0  0  0  0  0
   -3.0694   -1.6859    2.4487 C   0  0  0  0  0  0  0  0  0  0  0  0
   -4.2791   -1.3091    1.9065 C   0  0  0  0  0  0  0  0  0  0  0  0
   -7.5956   -1.2126    0.0248 H   0  0  0  0  0  0  0  0  0  0  0  0
   -6.9060   -0.9670    1.6287 H   0  0  0  0  0  0  0  0  0  0  0  0
   -6.8055    1.4082    1.4017 H   0  0  0  0  0  0  0  0  0  0  0  0
   -8.3737    0.8561    0.6903 H   0  0  0  0  0  0  0  0  0  0  0  0
   -5.0181    1.8768   -0.0870 H   0  0  0  0  0  0  0  0  0  0  0  0
   -6.1259    3.2624   -0.2880 H   0  0  0  0  0  0  0  0  0  0  0  0
   -5.4482    2.3911   -1.7363 H   0  0  0  0  0  0  0  0  0  0  0  0
   -7.7966   -0.2216   -1.7427 H   0  0  0  0  0  0  0  0  0  0  0  0
   -6.7789    0.8727   -2.7173 H   0  0  0  0  0  0  0  0  0  0  0  0
   -5.8895   -1.5109   -1.9821 H   0  0  0  0  0  0  0  0  0  0  0  0
   -4.7660   -0.0367   -1.8923 H   0  0  0  0  0  0  0  0  0  0  0  0
   -3.3198   -1.3485   -1.3395 H   0  0  0  0  0  0  0  0  0  0  0  0
    3.4476   -1.4207   -1.4860 H   0  0  0  0  0  0  0  0  0  0  0  0
    4.0740    0.6525    1.6280 H   0  0  0  0  0  0  0  0  0  0  0  0
    7.4687    0.6090   -1.4104 H   0  0  0  0  0  0  0  0  0  0  0  0
    7.5586    2.9517    2.8339 H   0  0  0  0  0  0  0  0  0  0  0  0
    5.5213    1.8811    2.1477 H   0  0  0  0  0  0  0  0  0  0  0  0
    1.7690    0.4929    1.9253 H   0  0  0  0  0  0  0  0  0  0  0  0
   -0.0860   -3.7637   -3.3411 H   0  0  0  0  0  0  0  0  0  0  0  0
   -1.0451   -2.2377    2.1225 H   0  0  0  0  0  0  0  0  0  0  0  0
   -3.0055   -1.7798    3.5227 H   0  0  0  0  0  0  0  0  0  0  0  0
   -5.1348   -1.1119    2.5299 H   0  0  0  0  0  0  0  0  0  0  0  0
  1  2  1  0
  2  3  1  0
  3  4  1  0
  4  5  1  0
  5  6  1  0
  5  7  1  0
  7  8  1  0
  1  9  2  0
  9 10  1  0
 10 11  1  0
 11 12  1  0
 12 13  1  0
 13 14  2  0
 14 15  1  0
 15 16  1  0
 16 17  1  0
 17 18  2  0
 17 19  1  0
 19 20  2  0
 20 21  1  0
 21 22  1  0
 22 23  1  0
 22 24  1  0
 22 25  1  0
 21 26  2  0
 26 27  1  0
 26 28  1  0
 28 29  2  0
 15 30  2  0
 30 31  1  0
 13 32  1  0
 32 33  2  0
 33 34  1  0
 10 35  2  0
 35 36  1  0
 36 37  2  0
 37  1  1  0
  8  2  1  0
 34 11  2  0
 31 12  2  0
 29 19  1  0
  3 38  1  0
  3 39  1  0
  4 40  1  0
  4 41  1  0
  6 42  1  0
  6 43  1  0
  6 44  1  0
  7 45  1  0
  7 46  1  0
  8 47  1  0
  8 48  1  0
  9 49  1  0
 14 50  1  0
 16 51  1  0
 20 52  1  0
 28 53  1  0
 29 54  1  0
 30 55  1  0
 33 56  1  0
 35 57  1  0
 36 58  1  0
 37 59  1  0
M  END
$$$$
[H]/C(C(=O)N1C([H])([H])C([H])([H])N(C(=O)c2c([H])c([H])c([H])c(C(F)(F)F)c2[H])C([H])([H])C1([H])[H])=C(/[H])c1c([H])c([H])c(OC([H])([H])[H])c([H])c1[H]
     RDKit          3D

 51 53  0  0  0  0  0  0  0  0999 V2000
    9.5327    0.3713    0.3389 C   0  0  0  0  0  0  0  0  0  0  0  0
    8.4973    1.2762    0.0591 O   0  0  0  0  0  0  0  0  0  0  0  0
    7.1851    0.8919    0.1191 C   0  0  0  0  0  0  0  0  0  0  0  0
    6.8169   -0.3702    0.4525 C   0  0  0  0  0  0  0  0  0  0  0  0
    5.4751   -0.7722    0.5137 C   0  0  0  0  0  0  0  0  0  0  0  0
    4.5071    0.1379    0.2220 C   0  0  0  0  0  0  0  0  0  0  0  0
    3.0476   -0.1696    0.1184 C   0  0  0  0  0  0  0  0  0  0  0  0
    2.6517   -1.3939    0.2336 C   0  0  0  0  0  0  0  0  0  0  0  0
    1.3091   -1.8725    0.1592 C   0  0  0  0  0  0  0  0  0  0  0  0
    1.2093   -3.2050    0.2561 O   0  0  0  0  0  0  0  0  0  0  0  0
    0.1212   -1.1829   -0.0071 N   0  0  0  0  0  0  0  0  0  0  0  0
   -0.1896    0.1747    0.1294 C   0  0  0  0  0  0  0  0  0  0  0  0
   -1.6990    0.4401    0.3729 C   0  0  0  0  0  0  0  0  0  0  0  0
   -2.4750   -0.1884   -0.6438 N   0  0  0  0  0  0  0  0  0  0  0  0
   -1.6991   -1.0947   -1.5711 C   0  0  0  0  0  0  0  0  0  0  0  0
   -0.9837   -2.0346   -0.5937 C   0  0  0  0  0  0  0  0  0  0  0  0
   -3.8236   -0.1664   -0.8595 C   0  0  0  0  0  0  0  0  0  0  0  0
   -4.2199   -0.8148   -1.9139 O   0  0  0  0  0  0  0  0  0  0  0  0
   -4.8912    0.4444   -0.1142 C   0  0  0  0  0  0  0  0  0  0  0  0
   -4.7948    1.3043    0.9458 C   0  0  0  0  0  0  0  0  0  0  0  0
   -5.9179    1.7679    1.6385 C   0  0  0  0  0  0  0  0  0  0  0  0
   -7.2019    1.3687    1.2875 C   0  0  0  0  0  0  0  0  0  0  0  0
   -7.3440    0.4897    0.2136 C   0  0  0  0  0  0  0  0  0  0  0  0
   -6.2315    0.0669   -0.4393 C   0  0  0  0  0  0  0  0  0  0  0  0
   -8.6918   -0.0364   -0.1814 C   0  0  0  0  0  0  0  0  0  0  0  0
   -9.5875   -0.0177    0.8498 F   0  0  0  0  0  0  0  0  0  0  0  0
   -9.1135    0.7201   -1.2564 F   0  0  0  0  0  0  0  0  0  0  0  0
   -8.4544   -1.3527   -0.5882 F   0  0  0  0  0  0  0  0  0  0  0  0
    4.8859    1.4517   -0.1207 C   0  0  0  0  0  0  0  0  0  0  0  0
    6.2047    1.8371   -0.1761 C   0  0  0  0  0  0  0  0  0  0  0  0
   10.3908    1.0026    0.6891 H   0  0  0  0  0  0  0  0  0  0  0  0
    9.3257   -0.3519    1.1389 H   0  0  0  0  0  0  0  0  0  0  0  0
    9.8251   -0.1235   -0.6346 H   0  0  0  0  0  0  0  0  0  0  0  0
    7.5585   -1.1332    0.6946 H   0  0  0  0  0  0  0  0  0  0  0  0
    5.2181   -1.7595    0.8123 H   0  0  0  0  0  0  0  0  0  0  0  0
    2.3575    0.6419   -0.0808 H   0  0  0  0  0  0  0  0  0  0  0  0
    3.4859   -2.1503    0.3817 H   0  0  0  0  0  0  0  0  0  0  0  0
    0.0482    0.7206   -0.8164 H   0  0  0  0  0  0  0  0  0  0  0  0
    0.3626    0.6745    0.9784 H   0  0  0  0  0  0  0  0  0  0  0  0
   -1.8062    1.5600    0.4678 H   0  0  0  0  0  0  0  0  0  0  0  0
   -1.9556   -0.0886    1.3163 H   0  0  0  0  0  0  0  0  0  0  0  0
   -2.3951   -1.6427   -2.1698 H   0  0  0  0  0  0  0  0  0  0  0  0
   -1.0054   -0.4881   -2.1523 H   0  0  0  0  0  0  0  0  0  0  0  0
   -0.5015   -2.8121   -1.1844 H   0  0  0  0  0  0  0  0  0  0  0  0
   -1.6285   -2.3928    0.1802 H   0  0  0  0  0  0  0  0  0  0  0  0
   -3.8478    1.6400    1.3029 H   0  0  0  0  0  0  0  0  0  0  0  0
   -5.7774    2.4636    2.4790 H   0  0  0  0  0  0  0  0  0  0  0  0
   -8.0413    1.7288    1.8166 H   0  0  0  0  0  0  0  0  0  0  0  0
   -6.3631   -0.6207   -1.2740 H   0  0  0  0  0  0  0  0  0  0  0  0
    4.1516    2.1935   -0.3561 H   0  0  0  0  0  0  0  0  0  0  0  0
    6.4727    2.8668   -0.4497 H   0  0  0  0  0  0  0  0  0  0  0  0
  1  2  1  0
  2  3  1  0
  3  4  2  0
  4  5  1  0
  5  6  2  0
  6  7  1  0
  7  8  2  0
  8  9  1  0
  9 10  2  0
  9 11  1  0
 11 12  1  0
 12 13  1  0
 13 14  1  0
 14 15  1  0
 15 16  1  0
 14 17  1  0
 17 18  2  0
 17 19  1  0
 19 20  2  0
 20 21  1  0
 21 22  2  0
 22 23  1  0
 23 24  2  0
 23 25  1  0
 25 26  1  0
 25 27  1  0
 25 28  1  0
  6 29  1  0
 29 30  2  0
 30  3  1  0
 16 11  1  0
 24 19  1  0
  1 31  1  0
  1 32  1  0
  1 33  1  0
  4 34  1  0
  5 35  1  0
  7 36  1  0
  8 37  1  0
 12 38  1  0
 12 39  1  0
 13 40  1  0
 13 41  1  0
 15 42  1  0
 15 43  1  0
 16 44  1  0
 16 45  1  0
 20 46  1  0
 21 47  1  0
 22 48  1  0
 24 49  1  0
 29 50  1  0
 30 51  1  0
M  END
$$$$
[H]OC(=O)[C@@]([H])(N([H])C(=O)[C@@]([H])(N([H])C(=O)[C@@]([H])(N([H])C(=O)[C@@]([H])(N([H])C(=O)[C@@]([H])(N([H])C(=O)N([H])[H])C([H])([H])c1c([H])c([H])c([H])c([H])c1[H])C([H])([H])c1c([H])c([H])c([H])c([H])c1[H])C([H])([H])C([H])(C([H])([H])[H])C([H])([H])[H])C([H])([H])C([H])(C([H])([H])[H])C([H])([H])[H])C([H])([H])c1c([H])c([H])c(O[H])c([H])c1[H]
     RDKit          3D

106108  0  0  0  0  0  0  0  0999 V2000
    7.0167    2.2726    1.2060 O   0  0  0  0  0  0  0  0  0  0  0  0
    7.3583    1.8737    0.0051 C   0  0  0  0  0  0  0  0  0  0  0  0
    6.3810    1.5162   -0.8778 N   0  0  0  0  0  0  0  0  0  0  0  0
    4.9441    1.5161   -0.6261 C   0  0  1  0  0  0  0  0  0  0  0  0
    4.2676    2.4914   -1.5673 C   0  0  0  0  0  0  0  0  0  0  0  0
    4.7869    3.8662   -1.3533 C   0  0  0  0  0  0  0  0  0  0  0  0
    5.9179    4.2969   -2.0118 C   0  0  0  0  0  0  0  0  0  0  0  0
    6.3449    5.5726   -1.7882 C   0  0  0  0  0  0  0  0  0  0  0  0
    5.6646    6.4359   -0.9160 C   0  0  0  0  0  0  0  0  0  0  0  0
    4.5403    5.9759   -0.2735 C   0  0  0  0  0  0  0  0  0  0  0  0
    4.0932    4.6969   -0.4836 C   0  0  0  0  0  0  0  0  0  0  0  0
    4.3491    0.1710   -0.7413 C   0  0  0  0  0  0  0  0  0  0  0  0
    5.0200   -0.8163   -1.2165 O   0  0  0  0  0  0  0  0  0  0  0  0
    3.0386   -0.1062   -0.3352 N   0  0  0  0  0  0  0  0  0  0  0  0
    2.3746   -1.3726   -0.3887 C   0  0  1  0  0  0  0  0  0  0  0  0
    2.1616   -1.9272    1.0197 C   0  0  0  0  0  0  0  0  0  0  0  0
    3.5005   -2.1124    1.6712 C   0  0  0  0  0  0  0  0  0  0  0  0
    3.9942   -1.0573    2.3958 C   0  0  0  0  0  0  0  0  0  0  0  0
    5.2164   -1.1398    3.0093 C   0  0  0  0  0  0  0  0  0  0  0  0
    5.9648   -2.2917    2.9030 C   0  0  0  0  0  0  0  0  0  0  0  0
    5.4660   -3.3703    2.1654 C   0  0  0  0  0  0  0  0  0  0  0  0
    4.2384   -3.2583    1.5614 C   0  0  0  0  0  0  0  0  0  0  0  0
    1.1181   -1.4133   -1.1199 C   0  0  0  0  0  0  0  0  0  0  0  0
    0.8605   -0.3698   -1.8351 O   0  0  0  0  0  0  0  0  0  0  0  0
    0.1903   -2.4699   -1.1000 N   0  0  0  0  0  0  0  0  0  0  0  0
   -1.0848   -2.3981   -1.8995 C   0  0  1  0  0  0  0  0  0  0  0  0
   -1.4035   -3.7599   -2.3113 C   0  0  0  0  0  0  0  0  0  0  0  0
   -2.5823   -4.0260   -3.1791 C   0  0  0  0  0  0  0  0  0  0  0  0
   -2.6143   -5.5539   -3.4063 C   0  0  0  0  0  0  0  0  0  0  0  0
   -2.4313   -3.4005   -4.5537 C   0  0  0  0  0  0  0  0  0  0  0  0
   -2.0521   -1.7983   -0.9487 C   0  0  0  0  0  0  0  0  0  0  0  0
   -1.5620   -1.5479    0.2225 O   0  0  0  0  0  0  0  0  0  0  0  0
   -3.4078   -1.4693   -1.1895 N   0  0  0  0  0  0  0  0  0  0  0  0
   -4.1807   -0.8277   -0.1631 C   0  0  1  0  0  0  0  0  0  0  0  0
   -4.6280   -1.6633    0.9458 C   0  0  0  0  0  0  0  0  0  0  0  0
   -5.5328   -2.8097    0.7275 C   0  0  0  0  0  0  0  0  0  0  0  0
   -5.8024   -3.4032    2.1445 C   0  0  0  0  0  0  0  0  0  0  0  0
   -4.9750   -3.9808   -0.0370 C   0  0  0  0  0  0  0  0  0  0  0  0
   -3.3188    0.3137    0.3348 C   0  0  0  0  0  0  0  0  0  0  0  0
   -2.6376    0.9237   -0.5424 O   0  0  0  0  0  0  0  0  0  0  0  0
   -3.2345    0.7187    1.6746 N   0  0  0  0  0  0  0  0  0  0  0  0
   -2.3689    1.8462    2.0179 C   0  0  1  0  0  0  0  0  0  0  0  0
   -3.1859    2.9475    2.6824 C   0  0  0  0  0  0  0  0  0  0  0  0
   -4.2158    3.3474    1.6622 C   0  0  0  0  0  0  0  0  0  0  0  0
   -4.0058    4.3442    0.7422 C   0  0  0  0  0  0  0  0  0  0  0  0
   -4.9873    4.6751   -0.1867 C   0  0  0  0  0  0  0  0  0  0  0  0
   -6.1997    4.0320   -0.2327 C   0  0  0  0  0  0  0  0  0  0  0  0
   -7.1642    4.3800   -1.1722 O   0  0  0  0  0  0  0  0  0  0  0  0
   -6.4221    3.0233    0.6952 C   0  0  0  0  0  0  0  0  0  0  0  0
   -5.4388    2.6933    1.6240 C   0  0  0  0  0  0  0  0  0  0  0  0
   -1.3430    1.3360    2.9836 C   0  0  0  0  0  0  0  0  0  0  0  0
   -0.4287    2.2570    3.4733 O   0  0  0  0  0  0  0  0  0  0  0  0
   -1.3024    0.1241    3.3408 O   0  0  0  0  0  0  0  0  0  0  0  0
    8.7451    1.8665   -0.2043 N   0  0  0  0  0  0  0  0  0  0  0  0
    6.6617    1.2132   -1.8602 H   0  0  0  0  0  0  0  0  0  0  0  0
    4.7843    1.9264    0.4104 H   0  0  0  0  0  0  0  0  0  0  0  0
    4.4284    2.1971   -2.6323 H   0  0  0  0  0  0  0  0  0  0  0  0
    3.1904    2.4837   -1.3621 H   0  0  0  0  0  0  0  0  0  0  0  0
    6.4237    3.6130   -2.6655 H   0  0  0  0  0  0  0  0  0  0  0  0
    7.2266    5.9771   -2.2730 H   0  0  0  0  0  0  0  0  0  0  0  0
    6.0456    7.4486   -0.7740 H   0  0  0  0  0  0  0  0  0  0  0  0
    4.0161    6.6187    0.4011 H   0  0  0  0  0  0  0  0  0  0  0  0
    3.2006    4.3589    0.0380 H   0  0  0  0  0  0  0  0  0  0  0  0
    2.4750    0.7126    0.0745 H   0  0  0  0  0  0  0  0  0  0  0  0
    3.0631   -2.1063   -0.8938 H   0  0  0  0  0  0  0  0  0  0  0  0
    1.6555   -2.9082    0.9443 H   0  0  0  0  0  0  0  0  0  0  0  0
    1.5609   -1.2578    1.6485 H   0  0  0  0  0  0  0  0  0  0  0  0
    3.3936   -0.1467    2.4773 H   0  0  0  0  0  0  0  0  0  0  0  0
    5.5587   -0.2604    3.5740 H   0  0  0  0  0  0  0  0  0  0  0  0
    6.9343   -2.3469    3.3941 H   0  0  0  0  0  0  0  0  0  0  0  0
    6.0911   -4.2535    2.1144 H   0  0  0  0  0  0  0  0  0  0  0  0
    3.8697   -4.0923    0.9983 H   0  0  0  0  0  0  0  0  0  0  0  0
    0.3690   -3.3106   -0.5314 H   0  0  0  0  0  0  0  0  0  0  0  0
   -0.8742   -1.6539   -2.7037 H   0  0  0  0  0  0  0  0  0  0  0  0
   -0.4881   -4.2581   -2.7972 H   0  0  0  0  0  0  0  0  0  0  0  0
   -1.5233   -4.4000   -1.3903 H   0  0  0  0  0  0  0  0  0  0  0  0
   -3.5513   -3.7791   -2.7822 H   0  0  0  0  0  0  0  0  0  0  0  0
   -1.5797   -5.8300   -3.7265 H   0  0  0  0  0  0  0  0  0  0  0  0
   -3.2869   -5.7602   -4.2570 H   0  0  0  0  0  0  0  0  0  0  0  0
   -2.9156   -6.0782   -2.4708 H   0  0  0  0  0  0  0  0  0  0  0  0
   -3.4146   -3.0117   -4.8537 H   0  0  0  0  0  0  0  0  0  0  0  0
   -2.0877   -4.0744   -5.3293 H   0  0  0  0  0  0  0  0  0  0  0  0
   -1.7725   -2.4737   -4.4625 H   0  0  0  0  0  0  0  0  0  0  0  0
   -3.8412   -1.6795   -2.1362 H   0  0  0  0  0  0  0  0  0  0  0  0
   -5.0824   -0.2979   -0.6870 H   0  0  0  0  0  0  0  0  0  0  0  0
   -5.0908   -1.0015    1.7660 H   0  0  0  0  0  0  0  0  0  0  0  0
   -3.7367   -2.0935    1.5303 H   0  0  0  0  0  0  0  0  0  0  0  0
   -6.5040   -2.5510    0.2557 H   0  0  0  0  0  0  0  0  0  0  0  0
   -6.2463   -4.4033    2.0721 H   0  0  0  0  0  0  0  0  0  0  0  0
   -4.8056   -3.4758    2.6222 H   0  0  0  0  0  0  0  0  0  0  0  0
   -6.4269   -2.6634    2.6806 H   0  0  0  0  0  0  0  0  0  0  0  0
   -3.9287   -4.2492    0.2477 H   0  0  0  0  0  0  0  0  0  0  0  0
   -5.0935   -3.8821   -1.1181 H   0  0  0  0  0  0  0  0  0  0  0  0
   -5.5695   -4.9032    0.2870 H   0  0  0  0  0  0  0  0  0  0  0  0
   -3.7681    0.2414    2.4644 H   0  0  0  0  0  0  0  0  0  0  0  0
   -1.8992    2.1956    1.0773 H   0  0  0  0  0  0  0  0  0  0  0  0
   -2.4966    3.7767    2.9215 H   0  0  0  0  0  0  0  0  0  0  0  0
   -3.6554    2.5734    3.5919 H   0  0  0  0  0  0  0  0  0  0  0  0
   -3.0403    4.8588    0.7787 H   0  0  0  0  0  0  0  0  0  0  0  0
   -4.7782    5.4701   -0.8950 H   0  0  0  0  0  0  0  0  0  0  0  0
   -7.8228    5.1057   -0.9028 H   0  0  0  0  0  0  0  0  0  0  0  0
   -7.3655    2.5087    0.6760 H   0  0  0  0  0  0  0  0  0  0  0  0
   -5.5993    1.9014    2.3551 H   0  0  0  0  0  0  0  0  0  0  0  0
   -0.2625    3.1223    2.9525 H   0  0  0  0  0  0  0  0  0  0  0  0
    9.1152    2.0504   -1.1546 H   0  0  0  0  0  0  0  0  0  0  0  0
    9.4008    1.6783    0.5701 H   0  0  0  0  0  0  0  0  0  0  0  0
  1  2  2  0
  2  3  1  0
  3  4  1  0
  4  5  1  0
  5  6  1  0
  6  7  2  0
  7  8  1  0
  8  9  2  0
  9 10  1  0
 10 11  2  0
  4 12  1  0
 12 13  2  0
 12 14  1  0
 14 15  1  0
 15 16  1  0
 16 17  1  0
 17 18  2  0
 18 19  1  0
 19 20  2  0
 20 21  1  0
 21 22  2  0
 15 23  1  0
 23 24  2  0
 23 25  1  0
 25 26  1  0
 26 27  1  0
 27 28  1  0
 28 29  1  0
 28 30  1  0
 26 31  1  0
 31 32  2  0
 31 33  1  0
 33 34  1  0
 34 35  1  0
 35 36  1  0
 36 37  1  0
 36 38  1  0
 34 39  1  0
 39 40  2  0
 39 41  1  0
 41 42  1  0
 42 43  1  0
 43 44  1  0
 44 45  2  0
 45 46  1  0
 46 47  2  0
 47 48  1  0
 47 49  1  0
 49 50  2  0
 42 51  1  0
 51 52  1  0
 51 53  2  0
  2 54  1  0
 11  6  1  0
 22 17  1  0
 50 44  1  0
  3 55  1  0
  4 56  1  1
  5 57  1  0
  5 58  1  0
  7 59  1  0
  8 60  1  0
  9 61  1  0
 10 62  1  0
 11 63  1  0
 14 64  1  0
 15 65  1  6
 16 66  1  0
 16 67  1  0
 18 68  1  0
 19 69  1  0
 20 70  1  0
 21 71  1  0
 22 72  1  0
 25 73  1  0
 26 74  1  6
 27 75  1  0
 27 76  1  0
 28 77  1  0
 29 78  1  0
 29 79  1  0
 29 80  1  0
 30 81  1  0
 30 82  1  0
 30 83  1  0
 33 84  1  0
 34 85  1  6
 35 86  1  0
 35 87  1  0
 36 88  1  0
 37 89  1  0
 37 90  1  0
 37 91  1  0
 38 92  1  0
 38 93  1  0
 38 94  1  0
 41 95  1  0
 42 96  1  6
 43 97  1  0
 43 98  1  0
 45 99  1  0
 46100  1  0
 48101  1  0
 49102  1  0
 50103  1  0
 52104  1  0
 54105  1  0
 54106  1  0
M  END
$$$$
[H]OC(=O)c1c([H])c([H])c2c(=S)n([H])c(=O)n([H])c2c1[H]
     RDKit          3D

 21 22  0  0  0  0  0  0  0  0999 V2000
    3.8836   -1.1828   -0.0465 O   0  0  0  0  0  0  0  0  0  0  0  0
    3.2952    0.0458   -0.1125 C   0  0  0  0  0  0  0  0  0  0  0  0
    4.0387    1.0565   -0.1942 O   0  0  0  0  0  0  0  0  0  0  0  0
    1.8565    0.2733   -0.0949 C   0  0  0  0  0  0  0  0  0  0  0  0
    1.3134    1.5374   -0.1642 C   0  0  0  0  0  0  0  0  0  0  0  0
   -0.0358    1.7974   -0.1508 C   0  0  0  0  0  0  0  0  0  0  0  0
   -0.8990    0.7251   -0.0623 C   0  0  0  0  0  0  0  0  0  0  0  0
   -0.4153   -0.5657    0.0100 C   0  0  0  0  0  0  0  0  0  0  0  0
    0.9555   -0.7853   -0.0066 C   0  0  0  0  0  0  0  0  0  0  0  0
   -1.3067   -1.5596    0.0940 N   0  0  0  0  0  0  0  0  0  0  0  0
   -2.6375   -1.3684    0.1115 C   0  0  0  0  0  0  0  0  0  0  0  0
   -3.4608   -2.3209    0.1912 O   0  0  0  0  0  0  0  0  0  0  0  0
   -3.1421   -0.1205    0.0424 N   0  0  0  0  0  0  0  0  0  0  0  0
   -2.2797    0.9095   -0.0433 C   0  0  0  0  0  0  0  0  0  0  0  0
   -2.8224    2.4417   -0.1299 S   0  0  0  0  0  0  0  0  0  0  0  0
    3.9585   -1.7834    0.7416 H   0  0  0  0  0  0  0  0  0  0  0  0
    1.9713    2.4068   -0.2350 H   0  0  0  0  0  0  0  0  0  0  0  0
   -0.4450    2.8083   -0.2067 H   0  0  0  0  0  0  0  0  0  0  0  0
    1.3145   -1.8080    0.0513 H   0  0  0  0  0  0  0  0  0  0  0  0
   -0.9586   -2.5232    0.1483 H   0  0  0  0  0  0  0  0  0  0  0  0
   -4.1843    0.0161    0.0569 H   0  0  0  0  0  0  0  0  0  0  0  0
  1  2  1  0
  2  3  2  0
  2  4  1  0
  4  5  2  0
  5  6  1  0
  6  7  2  0
  7  8  1  0
  8  9  2  0
  8 10  1  0
 10 11  1  0
 11 12  2  0
 11 13  1  0
 13 14  1  0
 14 15  2  0
  9  4  1  0
 14  7  1  0
  1 16  1  0
  5 17  1  0
  6 18  1  0
  9 19  1  0
 10 20  1  0
 13 21  1  0
M  END
$$$$
[H]ON([H])C(=O)N1C([H])([H])[C@@]([H])(N([H])S(=O)(=O)c2c([H])c([H])c(OC([H])([H])c3c([H])c(C([H])([H])[H])nc4c([H])c([H])c([H])c([H])c34)c([H])c2[H])[C@@]([H])(C([H])([H])[H])C1([H])[H]
     RDKit          3D

 59 62  0  0  0  0  0  0  0  0999 V2000
   -6.8479   -0.3349   -3.0859 C   0  0  0  0  0  0  0  0  0  0  0  0
   -6.3320   -0.6257   -1.7268 C   0  0  0  0  0  0  0  0  0  0  0  0
   -5.0966   -0.1639   -1.3332 C   0  0  0  0  0  0  0  0  0  0  0  0
   -4.6019   -0.4285   -0.0625 C   0  0  0  0  0  0  0  0  0  0  0  0
   -3.2776    0.0612    0.3764 C   0  0  0  0  0  0  0  0  0  0  0  0
   -2.6749    0.7875   -0.6764 O   0  0  0  0  0  0  0  0  0  0  0  0
   -1.4180    1.3432   -0.4877 C   0  0  0  0  0  0  0  0  0  0  0  0
   -0.7580    1.1932    0.7112 C   0  0  0  0  0  0  0  0  0  0  0  0
    0.4995    1.7411    0.9198 C   0  0  0  0  0  0  0  0  0  0  0  0
    1.1505    2.4609   -0.0582 C   0  0  0  0  0  0  0  0  0  0  0  0
    0.4762    2.6116   -1.2762 C   0  0  0  0  0  0  0  0  0  0  0  0
   -0.7752    2.0611   -1.4710 C   0  0  0  0  0  0  0  0  0  0  0  0
    2.7151    3.1402    0.2184 S   0  0  0  0  0  0  0  0  0  0  0  0
    2.8884    3.5432    1.6778 O   0  0  0  0  0  0  0  0  0  0  0  0
    2.8183    4.3996   -0.5997 O   0  0  0  0  0  0  0  0  0  0  0  0
    3.9340    2.0126   -0.2414 N   0  0  0  0  0  0  0  0  0  0  0  0
    3.9184    0.7918    0.4926 C   0  0  2  0  0  0  0  0  0  0  0  0
    5.2474    0.6436    1.2385 C   0  0  0  0  0  0  0  0  0  0  0  0
    6.0006   -0.3529    0.5261 N   0  0  0  0  0  0  0  0  0  0  0  0
    5.4067   -0.4988   -0.7793 C   0  0  0  0  0  0  0  0  0  0  0  0
    3.9167   -0.3991   -0.4220 C   0  0  2  0  0  0  0  0  0  0  0  0
    3.0803   -0.2311   -1.6599 C   0  0  0  0  0  0  0  0  0  0  0  0
    7.1234   -1.0745    0.9916 C   0  0  0  0  0  0  0  0  0  0  0  0
    7.5342   -0.8320    2.1698 O   0  0  0  0  0  0  0  0  0  0  0  0
    7.8005   -2.0424    0.2130 N   0  0  0  0  0  0  0  0  0  0  0  0
    8.8627   -2.6792    0.7442 O   0  0  0  0  0  0  0  0  0  0  0  0
   -5.3530   -1.1642    0.8246 C   0  0  0  0  0  0  0  0  0  0  0  0
   -4.9105   -1.4555    2.0972 C   0  0  0  0  0  0  0  0  0  0  0  0
   -5.6665   -2.1947    2.9872 C   0  0  0  0  0  0  0  0  0  0  0  0
   -6.8974   -2.6367    2.5495 C   0  0  0  0  0  0  0  0  0  0  0  0
   -7.3500   -2.3527    1.2822 C   0  0  0  0  0  0  0  0  0  0  0  0
   -6.5786   -1.6100    0.4031 C   0  0  0  0  0  0  0  0  0  0  0  0
   -7.0446   -1.3375   -0.8516 N   0  0  0  0  0  0  0  0  0  0  0  0
   -6.0672    0.1536   -3.6930 H   0  0  0  0  0  0  0  0  0  0  0  0
   -7.7253    0.3719   -3.0318 H   0  0  0  0  0  0  0  0  0  0  0  0
   -7.1368   -1.2687   -3.6067 H   0  0  0  0  0  0  0  0  0  0  0  0
   -4.4626    0.4165   -1.9821 H   0  0  0  0  0  0  0  0  0  0  0  0
   -3.4628    0.7083    1.2685 H   0  0  0  0  0  0  0  0  0  0  0  0
   -2.6427   -0.7748    0.7370 H   0  0  0  0  0  0  0  0  0  0  0  0
   -1.2569    0.6272    1.4956 H   0  0  0  0  0  0  0  0  0  0  0  0
    0.9294    1.5682    1.8995 H   0  0  0  0  0  0  0  0  0  0  0  0
    0.9696    3.1719   -2.0536 H   0  0  0  0  0  0  0  0  0  0  0  0
   -1.3113    2.1718   -2.4166 H   0  0  0  0  0  0  0  0  0  0  0  0
    4.8784    2.4475   -0.3450 H   0  0  0  0  0  0  0  0  0  0  0  0
    3.0784    0.8232    1.2133 H   0  0  0  0  0  0  0  0  0  0  0  0
    5.7780    1.6365    1.2830 H   0  0  0  0  0  0  0  0  0  0  0  0
    5.0074    0.3607    2.2700 H   0  0  0  0  0  0  0  0  0  0  0  0
    5.6390   -1.4483   -1.2647 H   0  0  0  0  0  0  0  0  0  0  0  0
    5.7308    0.3905   -1.3754 H   0  0  0  0  0  0  0  0  0  0  0  0
    3.6773   -1.3152    0.1381 H   0  0  0  0  0  0  0  0  0  0  0  0
    3.0478    0.8144   -2.0142 H   0  0  0  0  0  0  0  0  0  0  0  0
    3.4005   -0.8773   -2.4875 H   0  0  0  0  0  0  0  0  0  0  0  0
    2.0391   -0.5219   -1.4091 H   0  0  0  0  0  0  0  0  0  0  0  0
    7.5040   -2.2743   -0.7502 H   0  0  0  0  0  0  0  0  0  0  0  0
    9.6660   -2.1099    0.7112 H   0  0  0  0  0  0  0  0  0  0  0  0
   -3.9432   -1.0931    2.4040 H   0  0  0  0  0  0  0  0  0  0  0  0
   -5.2880   -2.4068    3.9834 H   0  0  0  0  0  0  0  0  0  0  0  0
   -7.5195   -3.2272    3.2377 H   0  0  0  0  0  0  0  0  0  0  0  0
   -8.3197   -2.7209    0.9859 H   0  0  0  0  0  0  0  0  0  0  0  0
  1  2  1  0
  2  3  2  0
  3  4  1  0
  4  5  1  0
  5  6  1  0
  6  7  1  0
  7  8  2  0
  8  9  1  0
  9 10  2  0
 10 11  1  0
 11 12  2  0
 10 13  1  0
 13 14  2  0
 13 15  2  0
 13 16  1  0
 16 17  1  0
 17 18  1  0
 18 19  1  0
 19 20  1  0
 20 21  1  0
 21 22  1  0
 19 23  1  0
 23 24  2  0
 23 25  1  0
 25 26  1  0
  4 27  2  0
 27 28  1  0
 28 29  2  0
 29 30  1  0
 30 31  2  0
 31 32  1  0
 32 33  2  0
 33  2  1  0
 12  7  1  0
 21 17  1  0
 32 27  1  0
  1 34  1  0
  1 35  1  0
  1 36  1  0
  3 37  1  0
  5 38  1  0
  5 39  1  0
  8 40  1  0
  9 41  1  0
 11 42  1  0
 12 43  1  0
 16 44  1  0
 17 45  1  1
 18 46  1  0
 18 47  1  0
 20 48  1  0
 20 49  1  0
 21 50  1  1
 22 51  1  0
 22 52  1  0
 22 53  1  0
 25 54  1  0
 26 55  1  0
 28 56  1  0
 29 57  1  0
 30 58  1  0
 31 59  1  0
M  END
$$$$
[H]c1nc2c([H])c(N([H])c3nn([H])c(C([H])([H])[H])c3[H])nc(N([H])[C@@]3([H])C([H])([H])[C@@]4([H])N(S(=O)(=O)N5C([H])([H])C([H])([H])OC([H])([H])C5([H])[H])[C@]([H])(C([H])([H])C([H])([H])C4([H])[H])C3([H])[H])c2c([H])c1[H]
     RDKit          3D

 68 73  0  0  0  0  0  0  0  0999 V2000
    7.0993    3.5995   -1.9370 C   0  0  0  0  0  0  0  0  0  0  0  0
    5.7218    3.1093   -1.8166 C   0  0  0  0  0  0  0  0  0  0  0  0
    5.2894    2.0060   -1.0526 C   0  0  0  0  0  0  0  0  0  0  0  0
    3.9479    1.8302   -1.1665 C   0  0  0  0  0  0  0  0  0  0  0  0
    2.9772    0.9628   -0.6834 N   0  0  0  0  0  0  0  0  0  0  0  0
    3.0180   -0.1481    0.1698 C   0  0  0  0  0  0  0  0  0  0  0  0
    4.1695   -0.6113    0.7272 C   0  0  0  0  0  0  0  0  0  0  0  0
    4.1065   -1.7338    1.5713 C   0  0  0  0  0  0  0  0  0  0  0  0
    5.2709   -2.1710    2.1118 N   0  0  0  0  0  0  0  0  0  0  0  0
    5.3368   -3.2283    2.9298 C   0  0  0  0  0  0  0  0  0  0  0  0
    4.1489   -3.8590    3.1994 C   0  0  0  0  0  0  0  0  0  0  0  0
    2.9335   -3.4442    2.6669 C   0  0  0  0  0  0  0  0  0  0  0  0
    2.9080   -2.3552    1.8319 C   0  0  0  0  0  0  0  0  0  0  0  0
    1.7309   -1.8678    1.2514 C   0  0  0  0  0  0  0  0  0  0  0  0
    0.4958   -2.4955    1.5012 N   0  0  0  0  0  0  0  0  0  0  0  0
   -0.7937   -2.1077    0.9856 C   0  0  1  0  0  0  0  0  0  0  0  0
   -1.1512   -0.7401    1.4691 C   0  0  0  0  0  0  0  0  0  0  0  0
   -2.3628   -0.1874    0.7352 C   0  0  2  0  0  0  0  0  0  0  0  0
   -3.6021   -0.8607    1.3404 C   0  0  0  0  0  0  0  0  0  0  0  0
   -4.2434   -1.7749    0.3559 C   0  0  0  0  0  0  0  0  0  0  0  0
   -3.2821   -2.6015   -0.4683 C   0  0  0  0  0  0  0  0  0  0  0  0
   -2.1570   -1.7640   -1.0583 C   0  0  2  0  0  0  0  0  0  0  0  0
   -0.8426   -2.2694   -0.4882 C   0  0  0  0  0  0  0  0  0  0  0  0
   -2.3580   -0.4334   -0.6410 N   0  0  0  0  0  0  0  0  0  0  0  0
   -2.1585    0.8186   -1.7294 S   0  0  0  0  0  0  0  0  0  0  0  0
   -2.1613    0.3399   -3.1812 O   0  0  0  0  0  0  0  0  0  0  0  0
   -0.8478    1.5665   -1.5409 O   0  0  0  0  0  0  0  0  0  0  0  0
   -3.4028    1.9657   -1.6184 N   0  0  0  0  0  0  0  0  0  0  0  0
   -4.7147    1.5283   -1.8887 C   0  0  0  0  0  0  0  0  0  0  0  0
   -5.7112    1.8340   -0.7981 C   0  0  0  0  0  0  0  0  0  0  0  0
   -5.5740    3.1770   -0.4613 O   0  0  0  0  0  0  0  0  0  0  0  0
   -4.3416    3.2811    0.2259 C   0  0  0  0  0  0  0  0  0  0  0  0
   -3.2189    3.0565   -0.7557 C   0  0  0  0  0  0  0  0  0  0  0  0
    1.8477   -0.8113    0.4673 N   0  0  0  0  0  0  0  0  0  0  0  0
    3.5720    2.8586   -2.0229 N   0  0  0  0  0  0  0  0  0  0  0  0
    4.5948    3.5614   -2.3712 N   0  0  0  0  0  0  0  0  0  0  0  0
    7.8144    2.8038   -2.2540 H   0  0  0  0  0  0  0  0  0  0  0  0
    7.4912    3.9877   -0.9681 H   0  0  0  0  0  0  0  0  0  0  0  0
    7.1318    4.3987   -2.6906 H   0  0  0  0  0  0  0  0  0  0  0  0
    5.9612    1.4199   -0.4793 H   0  0  0  0  0  0  0  0  0  0  0  0
    1.9470    1.1612   -1.0237 H   0  0  0  0  0  0  0  0  0  0  0  0
    5.1350   -0.1733    0.5642 H   0  0  0  0  0  0  0  0  0  0  0  0
    6.2714   -3.5792    3.3636 H   0  0  0  0  0  0  0  0  0  0  0  0
    4.1426   -4.7200    3.8549 H   0  0  0  0  0  0  0  0  0  0  0  0
    2.0232   -3.9803    2.9144 H   0  0  0  0  0  0  0  0  0  0  0  0
    0.5165   -3.3570    2.1448 H   0  0  0  0  0  0  0  0  0  0  0  0
   -1.5860   -2.8360    1.3854 H   0  0  0  0  0  0  0  0  0  0  0  0
   -1.4585   -0.8281    2.5366 H   0  0  0  0  0  0  0  0  0  0  0  0
   -0.3368   -0.0082    1.4260 H   0  0  0  0  0  0  0  0  0  0  0  0
   -2.4394    0.8841    0.9672 H   0  0  0  0  0  0  0  0  0  0  0  0
   -3.3187   -1.3907    2.2857 H   0  0  0  0  0  0  0  0  0  0  0  0
   -4.3569   -0.0959    1.6356 H   0  0  0  0  0  0  0  0  0  0  0  0
   -4.8711   -2.4889    0.9339 H   0  0  0  0  0  0  0  0  0  0  0  0
   -4.9291   -1.1936   -0.3067 H   0  0  0  0  0  0  0  0  0  0  0  0
   -2.9469   -3.5014    0.0440 H   0  0  0  0  0  0  0  0  0  0  0  0
   -3.8918   -2.9346   -1.3623 H   0  0  0  0  0  0  0  0  0  0  0  0
   -2.1052   -1.8249   -2.1464 H   0  0  0  0  0  0  0  0  0  0  0  0
   -0.7792   -3.3619   -0.7283 H   0  0  0  0  0  0  0  0  0  0  0  0
   -0.0081   -1.7719   -0.9627 H   0  0  0  0  0  0  0  0  0  0  0  0
   -4.7194    0.4311   -2.0448 H   0  0  0  0  0  0  0  0  0  0  0  0
   -5.1430    1.9475   -2.8462 H   0  0  0  0  0  0  0  0  0  0  0  0
   -5.6464    1.1650    0.0618 H   0  0  0  0  0  0  0  0  0  0  0  0
   -6.7290    1.7287   -1.2618 H   0  0  0  0  0  0  0  0  0  0  0  0
   -4.2707    4.2740    0.6744 H   0  0  0  0  0  0  0  0  0  0  0  0
   -4.3509    2.4465    0.9575 H   0  0  0  0  0  0  0  0  0  0  0  0
   -2.2769    2.9589   -0.1863 H   0  0  0  0  0  0  0  0  0  0  0  0
   -3.0976    4.0155   -1.3402 H   0  0  0  0  0  0  0  0  0  0  0  0
    4.5817    4.3922   -3.0092 H   0  0  0  0  0  0  0  0  0  0  0  0
  1  2  1  0
  2  3  2  0
  3  4  1  0
  4  5  1  0
  5  6  1  0
  6  7  2  0
  7  8  1  0
  8  9  2  0
  9 10  1  0
 10 11  2  0
 11 12  1  0
 12 13  2  0
 13 14  1  0
 14 15  1  0
 15 16  1  0
 16 17  1  0
 17 18  1  0
 18 19  1  0
 19 20  1  0
 20 21  1  0
 21 22  1  0
 22 23  1  0
 22 24  1  0
 24 25  1  0
 25 26  2  0
 25 27  2  0
 25 28  1  0
 28 29  1  0
 29 30  1  0
 30 31  1  0
 31 32  1  0
 32 33  1  0
 14 34  2  0
  4 35  2  0
 35 36  1  0
 36  2  1  0
 34  6  1  0
 13  8  1  0
 23 16  1  0
 33 28  1  0
 24 18  1  0
  1 37  1  0
  1 38  1  0
  1 39  1  0
  3 40  1  0
  5 41  1  0
  7 42  1  0
 10 43  1  0
 11 44  1  0
 12 45  1  0
 15 46  1  0
 16 47  1  1
 17 48  1  0
 17 49  1  0
 18 50  1  6
 19 51  1  0
 19 52  1  0
 20 53  1  0
 20 54  1  0
 21 55  1  0
 21 56  1  0
 22 57  1  6
 23 58  1  0
 23 59  1  0
 29 60  1  0
 29 61  1  0
 30 62  1  0
 30 63  1  0
 32 64  1  0
 32 65  1  0
 33 66  1  0
 33 67  1  0
 36 68  1  0
M  END
$$$$
[H]N=C(N([H])[H])N([H])C([H])([H])C([H])([H])C([H])([H])[C@@]([H])(C(=O)N([H])[C@]([H])(C(=O)N([H])[H])C([H])([H])c1c([H])n([H])c2c([H])c([H])c([H])c([H])c12)N([H])C(=O)[C@@]([H])(N([H])C(=O)C([H])([H])[H])C([H])([H])c1c([H])c([H])c([H])c([H])c1[H]
     RDKit          3D

 76 78  0  0  0  0  0  0  0  0999 V2000
   -4.0335   -3.6112   -4.5265 C   0  0  0  0  0  0  0  0  0  0  0  0
   -3.5294   -2.7543   -3.4042 C   0  0  0  0  0  0  0  0  0  0  0  0
   -2.4489   -3.0661   -2.8325 O   0  0  0  0  0  0  0  0  0  0  0  0
   -4.2246   -1.6097   -2.9671 N   0  0  0  0  0  0  0  0  0  0  0  0
   -3.8564   -0.7071   -1.9324 C   0  0  1  0  0  0  0  0  0  0  0  0
   -4.3794   -0.9843   -0.5783 C   0  0  0  0  0  0  0  0  0  0  0  0
   -4.0428   -2.2500    0.0496 C   0  0  0  0  0  0  0  0  0  0  0  0
   -2.9323   -2.3569    0.8524 C   0  0  0  0  0  0  0  0  0  0  0  0
   -2.5834   -3.5562    1.4731 C   0  0  0  0  0  0  0  0  0  0  0  0
   -3.3614   -4.6805    1.2902 C   0  0  0  0  0  0  0  0  0  0  0  0
   -4.4877   -4.5796    0.4789 C   0  0  0  0  0  0  0  0  0  0  0  0
   -4.8157   -3.3934   -0.1235 C   0  0  0  0  0  0  0  0  0  0  0  0
   -2.4730   -0.1846   -2.0298 C   0  0  0  0  0  0  0  0  0  0  0  0
   -1.7735   -0.4445   -3.0426 O   0  0  0  0  0  0  0  0  0  0  0  0
   -1.8325    0.6192   -1.0486 N   0  0  0  0  0  0  0  0  0  0  0  0
   -0.4973    1.1224   -1.1846 C   0  0  1  0  0  0  0  0  0  0  0  0
   -0.5521    2.6357   -1.2119 C   0  0  0  0  0  0  0  0  0  0  0  0
   -1.1616    3.2043    0.0507 C   0  0  0  0  0  0  0  0  0  0  0  0
   -1.1537    4.7172   -0.1215 C   0  0  0  0  0  0  0  0  0  0  0  0
   -1.7305    5.3681    1.0500 N   0  0  0  0  0  0  0  0  0  0  0  0
   -1.8034    6.7777    1.0586 C   0  0  0  0  0  0  0  0  0  0  0  0
   -3.0426    7.4625    1.1971 N   0  0  0  0  0  0  0  0  0  0  0  0
   -0.7432    7.5166    0.9403 N   0  0  0  0  0  0  0  0  0  0  0  0
    0.4952    0.5984   -0.2559 C   0  0  0  0  0  0  0  0  0  0  0  0
    0.2238   -0.2363    0.6247 O   0  0  0  0  0  0  0  0  0  0  0  0
    1.8423    1.0610   -0.3604 N   0  0  0  0  0  0  0  0  0  0  0  0
    2.8772    0.5431    0.5585 C   0  0  1  0  0  0  0  0  0  0  0  0
    3.9707   -0.0345   -0.2743 C   0  0  0  0  0  0  0  0  0  0  0  0
    5.0901   -0.6078    0.4404 C   0  0  0  0  0  0  0  0  0  0  0  0
    6.3471   -0.0735    0.5805 C   0  0  0  0  0  0  0  0  0  0  0  0
    7.1148   -0.9202    1.3010 N   0  0  0  0  0  0  0  0  0  0  0  0
    6.3741   -1.9932    1.6291 C   0  0  0  0  0  0  0  0  0  0  0  0
    6.6692   -3.1333    2.3465 C   0  0  0  0  0  0  0  0  0  0  0  0
    5.6735   -4.0921    2.5254 C   0  0  0  0  0  0  0  0  0  0  0  0
    4.4283   -3.9130    2.0035 C   0  0  0  0  0  0  0  0  0  0  0  0
    4.1035   -2.7836    1.2817 C   0  0  0  0  0  0  0  0  0  0  0  0
    5.1023   -1.8301    1.1068 C   0  0  0  0  0  0  0  0  0  0  0  0
    3.3336    1.6391    1.4502 C   0  0  0  0  0  0  0  0  0  0  0  0
    4.2865    1.4348    2.4660 N   0  0  0  0  0  0  0  0  0  0  0  0
    2.8710    2.8099    1.3236 O   0  0  0  0  0  0  0  0  0  0  0  0
   -3.4091   -3.5083   -5.4367 H   0  0  0  0  0  0  0  0  0  0  0  0
   -3.9279   -4.6668   -4.1888 H   0  0  0  0  0  0  0  0  0  0  0  0
   -5.0863   -3.4341   -4.7427 H   0  0  0  0  0  0  0  0  0  0  0  0
   -5.1360   -1.4355   -3.4989 H   0  0  0  0  0  0  0  0  0  0  0  0
   -4.4616    0.2729   -2.2384 H   0  0  0  0  0  0  0  0  0  0  0  0
   -4.1153   -0.0956    0.0669 H   0  0  0  0  0  0  0  0  0  0  0  0
   -5.5145   -0.9290   -0.6026 H   0  0  0  0  0  0  0  0  0  0  0  0
   -2.2684   -1.5324    1.0599 H   0  0  0  0  0  0  0  0  0  0  0  0
   -1.7060   -3.6225    2.1013 H   0  0  0  0  0  0  0  0  0  0  0  0
   -3.0736   -5.6014    1.7812 H   0  0  0  0  0  0  0  0  0  0  0  0
   -5.0676   -5.5023    0.3696 H   0  0  0  0  0  0  0  0  0  0  0  0
   -5.7134   -3.3797   -0.7493 H   0  0  0  0  0  0  0  0  0  0  0  0
   -2.3609    0.8535   -0.1908 H   0  0  0  0  0  0  0  0  0  0  0  0
   -0.1527    0.8299   -2.2278 H   0  0  0  0  0  0  0  0  0  0  0  0
   -1.1967    2.9532   -2.0614 H   0  0  0  0  0  0  0  0  0  0  0  0
    0.4352    3.0961   -1.3647 H   0  0  0  0  0  0  0  0  0  0  0  0
   -0.5668    2.9809    0.9511 H   0  0  0  0  0  0  0  0  0  0  0  0
   -2.1839    2.8467    0.2113 H   0  0  0  0  0  0  0  0  0  0  0  0
   -1.7584    4.9645   -0.9936 H   0  0  0  0  0  0  0  0  0  0  0  0
   -0.1032    5.0733   -0.1841 H   0  0  0  0  0  0  0  0  0  0  0  0
   -2.0860    4.8405    1.8686 H   0  0  0  0  0  0  0  0  0  0  0  0
   -3.4766    7.6364    2.1336 H   0  0  0  0  0  0  0  0  0  0  0  0
   -3.5171    7.7929    0.3354 H   0  0  0  0  0  0  0  0  0  0  0  0
    0.2054    7.1431    0.8340 H   0  0  0  0  0  0  0  0  0  0  0  0
    2.1383    1.7637   -1.0714 H   0  0  0  0  0  0  0  0  0  0  0  0
    2.3753   -0.1969    1.1969 H   0  0  0  0  0  0  0  0  0  0  0  0
    3.4962   -0.8737   -0.8669 H   0  0  0  0  0  0  0  0  0  0  0  0
    4.2857    0.7146   -1.0327 H   0  0  0  0  0  0  0  0  0  0  0  0
    6.7507    0.8754    0.2050 H   0  0  0  0  0  0  0  0  0  0  0  0
    8.1159   -0.7883    1.5711 H   0  0  0  0  0  0  0  0  0  0  0  0
    7.6463   -3.3031    2.7723 H   0  0  0  0  0  0  0  0  0  0  0  0
    5.9527   -4.9696    3.0952 H   0  0  0  0  0  0  0  0  0  0  0  0
    3.6681   -4.6760    2.1564 H   0  0  0  0  0  0  0  0  0  0  0  0
    3.1222   -2.6155    0.8566 H   0  0  0  0  0  0  0  0  0  0  0  0
    5.0224    2.1646    2.5940 H   0  0  0  0  0  0  0  0  0  0  0  0
    4.3232    0.6141    3.1059 H   0  0  0  0  0  0  0  0  0  0  0  0
  1  2  1  0
  2  3  2  0
  2  4  1  0
  4  5  1  0
  5  6  1  0
  6  7  1  0
  7  8  2  0
  8  9  1  0
  9 10  2  0
 10 11  1  0
 11 12  2  0
  5 13  1  0
 13 14  2  0
 13 15  1  0
 15 16  1  0
 16 17  1  0
 17 18  1  0
 18 19  1  0
 19 20  1  0
 20 21  1  0
 21 22  1  0
 21 23  2  3
 16 24  1  0
 24 25  2  0
 24 26  1  0
 26 27  1  0
 27 28  1  0
 28 29  1  0
 29 30  2  0
 30 31  1  0
 31 32  1  0
 32 33  2  0
 33 34  1  0
 34 35  2  0
 35 36  1  0
 36 37  2  0
 27 38  1  0
 38 39  1  0
 38 40  2  0
 12  7  1  0
 37 29  1  0
 37 32  1  0
  1 41  1  0
  1 42  1  0
  1 43  1  0
  4 44  1  0
  5 45  1  6
  6 46  1  0
  6 47  1  0
  8 48  1  0
  9 49  1  0
 10 50  1  0
 11 51  1  0
 12 52  1  0
 15 53  1  0
 16 54  1  6
 17 55  1  0
 17 56  1  0
 18 57  1  0
 18 58  1  0
 19 59  1  0
 19 60  1  0
 20 61  1  0
 22 62  1  0
 22 63  1  0
 23 64  1  0
 26 65  1  0
 27 66  1  1
 28 67  1  0
 28 68  1  0
 30 69  1  0
 31 70  1  0
 33 71  1  0
 34 72  1  0
 35 73  1  0
 36 74  1  0
 39 75  1  0
 39 76  1  0
M  END
$$$$
[H]c1c([H])c([H])c(N2C(=O)C([H])([H])C([H])(C(=O)N([H])C([H])([H])C(=O)N3C([H])([H])C([H])([H])C([H])(OC(=O)C([H])([H])[H])C([H])([H])C3([H])[H])C2([H])[H])c([H])c1[H]
     RDKit          3D

 53 55  0  0  0  0  0  0  0  0999 V2000
    9.0326    1.3372    0.9417 C   0  0  0  0  0  0  0  0  0  0  0  0
    7.5462    1.2893    0.9402 C   0  0  0  0  0  0  0  0  0  0  0  0
    6.9183    2.1187    1.6277 O   0  0  0  0  0  0  0  0  0  0  0  0
    6.8155    0.3703    0.2149 O   0  0  0  0  0  0  0  0  0  0  0  0
    5.4188    0.2867    0.1827 C   0  0  0  0  0  0  0  0  0  0  0  0
    4.8943   -1.0117    0.7358 C   0  0  0  0  0  0  0  0  0  0  0  0
    3.8926   -1.6126   -0.2591 C   0  0  0  0  0  0  0  0  0  0  0  0
    2.8920   -0.5523   -0.4466 N   0  0  0  0  0  0  0  0  0  0  0  0
    3.3638    0.6100   -1.1770 C   0  0  0  0  0  0  0  0  0  0  0  0
    4.8640    0.6025   -1.1940 C   0  0  0  0  0  0  0  0  0  0  0  0
    1.5787   -0.6898    0.0616 C   0  0  0  0  0  0  0  0  0  0  0  0
    1.2811   -1.7284    0.6749 O   0  0  0  0  0  0  0  0  0  0  0  0
    0.5911    0.3814   -0.1367 C   0  0  0  0  0  0  0  0  0  0  0  0
   -0.7033    0.1269    0.4154 N   0  0  0  0  0  0  0  0  0  0  0  0
   -1.5451   -0.9470    0.0370 C   0  0  0  0  0  0  0  0  0  0  0  0
   -1.1342   -1.7363   -0.8497 O   0  0  0  0  0  0  0  0  0  0  0  0
   -2.8747   -1.1805    0.6322 C   0  0  0  0  0  0  0  0  0  0  0  0
   -3.8220   -0.0469    0.4372 C   0  0  0  0  0  0  0  0  0  0  0  0
   -4.8534   -0.5309   -0.4702 N   0  0  0  0  0  0  0  0  0  0  0  0
   -4.4332   -1.7790   -1.0113 C   0  0  0  0  0  0  0  0  0  0  0  0
   -4.7807   -2.2277   -2.1247 O   0  0  0  0  0  0  0  0  0  0  0  0
   -3.5381   -2.3662    0.0194 C   0  0  0  0  0  0  0  0  0  0  0  0
   -6.0707    0.1663   -0.7397 C   0  0  0  0  0  0  0  0  0  0  0  0
   -6.1683    1.5239   -0.4593 C   0  0  0  0  0  0  0  0  0  0  0  0
   -7.3222    2.2461   -0.6983 C   0  0  0  0  0  0  0  0  0  0  0  0
   -8.4323    1.6259   -1.2329 C   0  0  0  0  0  0  0  0  0  0  0  0
   -8.3486    0.2796   -1.5156 C   0  0  0  0  0  0  0  0  0  0  0  0
   -7.1880   -0.4385   -1.2734 C   0  0  0  0  0  0  0  0  0  0  0  0
    9.4274    0.7229    0.0896 H   0  0  0  0  0  0  0  0  0  0  0  0
    9.3983    0.8372    1.8596 H   0  0  0  0  0  0  0  0  0  0  0  0
    9.4421    2.3431    0.8327 H   0  0  0  0  0  0  0  0  0  0  0  0
    5.0355    1.1053    0.8522 H   0  0  0  0  0  0  0  0  0  0  0  0
    4.3115   -0.8661    1.6690 H   0  0  0  0  0  0  0  0  0  0  0  0
    5.6838   -1.7468    0.9610 H   0  0  0  0  0  0  0  0  0  0  0  0
    3.4434   -2.5314    0.1311 H   0  0  0  0  0  0  0  0  0  0  0  0
    4.4389   -1.7848   -1.1969 H   0  0  0  0  0  0  0  0  0  0  0  0
    3.0008    0.4690   -2.2364 H   0  0  0  0  0  0  0  0  0  0  0  0
    2.9176    1.5490   -0.8203 H   0  0  0  0  0  0  0  0  0  0  0  0
    5.1880    1.6636   -1.4046 H   0  0  0  0  0  0  0  0  0  0  0  0
    5.2480   -0.0843   -1.9756 H   0  0  0  0  0  0  0  0  0  0  0  0
    0.5002    0.5241   -1.2383 H   0  0  0  0  0  0  0  0  0  0  0  0
    0.9606    1.3522    0.2603 H   0  0  0  0  0  0  0  0  0  0  0  0
   -1.0959    0.7696    1.1683 H   0  0  0  0  0  0  0  0  0  0  0  0
   -2.7664   -1.3613    1.7369 H   0  0  0  0  0  0  0  0  0  0  0  0
   -4.3550    0.1890    1.3919 H   0  0  0  0  0  0  0  0  0  0  0  0
   -3.3620    0.8902    0.0996 H   0  0  0  0  0  0  0  0  0  0  0  0
   -2.7831   -3.0627   -0.4444 H   0  0  0  0  0  0  0  0  0  0  0  0
   -4.1648   -2.9361    0.7518 H   0  0  0  0  0  0  0  0  0  0  0  0
   -5.2849    2.0012   -0.0365 H   0  0  0  0  0  0  0  0  0  0  0  0
   -7.3831    3.3162   -0.4722 H   0  0  0  0  0  0  0  0  0  0  0  0
   -9.3279    2.2209   -1.4104 H   0  0  0  0  0  0  0  0  0  0  0  0
   -9.2302   -0.1993   -1.9364 H   0  0  0  0  0  0  0  0  0  0  0  0
   -7.1169   -1.4978   -1.4941 H   0  0  0  0  0  0  0  0  0  0  0  0
  1  2  1  0
  2  3  2  0
  2  4  1  0
  4  5  1  0
  5  6  1  0
  6  7  1  0
  7  8  1  0
  8  9  1  0
  9 10  1  0
  8 11  1  0
 11 12  2  0
 11 13  1  0
 13 14  1  0
 14 15  1  0
 15 16  2  0
 15 17  1  0
 17 18  1  0
 18 19  1  0
 19 20  1  0
 20 21  2  0
 20 22  1  0
 19 23  1  0
 23 24  2  0
 24 25  1  0
 25 26  2  0
 26 27  1  0
 27 28  2  0
 10  5  1  0
 22 17  1  0
 28 23  1  0
  1 29  1  0
  1 30  1  0
  1 31  1  0
  5 32  1  0
  6 33  1  0
  6 34  1  0
  7 35  1  0
  7 36  1  0
  9 37  1  0
  9 38  1  0
 10 39  1  0
 10 40  1  0
 13 41  1  0
 13 42  1  0
 14 43  1  0
 17 44  1  0
 18 45  1  0
 18 46  1  0
 22 47  1  0
 22 48  1  0
 24 49  1  0
 25 50  1  0
 26 51  1  0
 27 52  1  0
 28 53  1  0
M  END
$$$$
[H]OC(=O)[C@@]1([H])N(C(=O)[C@@]([H])(N2C([H])([H])C([H])([H])C([H])([H])C2([H])[H])C([H])([H])c2c([H])c([H])c(O[H])c([H])c2[H])C([H])([H])C([H])([H])C1([H])[H]
     RDKit          3D

 48 50  0  0  0  0  0  0  0  0999 V2000
   -3.5356    1.5294   -1.9356 O   0  0  0  0  0  0  0  0  0  0  0  0
   -2.6641    1.4488   -0.8677 C   0  0  0  0  0  0  0  0  0  0  0  0
   -2.0238    2.4314   -0.4815 O   0  0  0  0  0  0  0  0  0  0  0  0
   -2.4851    0.1331   -0.1514 C   0  0  2  0  0  0  0  0  0  0  0  0
   -3.8196   -0.1027    0.5760 C   0  0  0  0  0  0  0  0  0  0  0  0
   -3.6658    0.8564    1.7337 C   0  0  0  0  0  0  0  0  0  0  0  0
   -2.2301    0.8069    2.0709 C   0  0  0  0  0  0  0  0  0  0  0  0
   -1.5248    0.2575    0.8972 N   0  0  0  0  0  0  0  0  0  0  0  0
   -0.1588   -0.0659    0.9029 C   0  0  0  0  0  0  0  0  0  0  0  0
    0.4390    0.2459    2.0280 O   0  0  0  0  0  0  0  0  0  0  0  0
    0.6488   -0.6831   -0.1593 C   0  0  2  0  0  0  0  0  0  0  0  0
    1.3017    0.3502   -1.0508 C   0  0  0  0  0  0  0  0  0  0  0  0
    2.2160    1.2369   -0.2950 C   0  0  0  0  0  0  0  0  0  0  0  0
    1.7954    2.4110    0.2793 C   0  0  0  0  0  0  0  0  0  0  0  0
    2.6796    3.2326    0.9901 C   0  0  0  0  0  0  0  0  0  0  0  0
    4.0044    2.8807    1.1323 C   0  0  0  0  0  0  0  0  0  0  0  0
    4.9213    3.6604    1.8274 O   0  0  0  0  0  0  0  0  0  0  0  0
    4.4298    1.7021    0.5566 C   0  0  0  0  0  0  0  0  0  0  0  0
    3.5549    0.8830   -0.1504 C   0  0  0  0  0  0  0  0  0  0  0  0
   -0.0556   -1.6859   -0.8587 N   0  0  0  0  0  0  0  0  0  0  0  0
   -0.3913   -2.8354   -0.0269 C   0  0  0  0  0  0  0  0  0  0  0  0
    0.3125   -4.0267   -0.6913 C   0  0  0  0  0  0  0  0  0  0  0  0
    0.1372   -3.6043   -2.1576 C   0  0  0  0  0  0  0  0  0  0  0  0
    0.5384   -2.1480   -2.0631 C   0  0  0  0  0  0  0  0  0  0  0  0
   -3.8811    2.4405   -2.1980 H   0  0  0  0  0  0  0  0  0  0  0  0
   -2.3199   -0.6687   -0.8454 H   0  0  0  0  0  0  0  0  0  0  0  0
   -3.7999   -1.1294    0.9418 H   0  0  0  0  0  0  0  0  0  0  0  0
   -4.6743    0.1691   -0.0469 H   0  0  0  0  0  0  0  0  0  0  0  0
   -3.9203    1.8925    1.4231 H   0  0  0  0  0  0  0  0  0  0  0  0
   -4.2984    0.5272    2.6003 H   0  0  0  0  0  0  0  0  0  0  0  0
   -1.7792    1.7611    2.3993 H   0  0  0  0  0  0  0  0  0  0  0  0
   -2.0111    0.0576    2.8850 H   0  0  0  0  0  0  0  0  0  0  0  0
    1.5390   -1.1555    0.3904 H   0  0  0  0  0  0  0  0  0  0  0  0
    0.4736    0.9689   -1.5058 H   0  0  0  0  0  0  0  0  0  0  0  0
    1.8239   -0.1074   -1.9094 H   0  0  0  0  0  0  0  0  0  0  0  0
    0.7631    2.6903    0.1705 H   0  0  0  0  0  0  0  0  0  0  0  0
    2.3113    4.1475    1.4271 H   0  0  0  0  0  0  0  0  0  0  0  0
    4.6772    4.5274    2.2689 H   0  0  0  0  0  0  0  0  0  0  0  0
    5.4646    1.4269    0.6671 H   0  0  0  0  0  0  0  0  0  0  0  0
    3.9017   -0.0408   -0.5978 H   0  0  0  0  0  0  0  0  0  0  0  0
   -1.4751   -3.0783   -0.0811 H   0  0  0  0  0  0  0  0  0  0  0  0
   -0.1189   -2.7178    1.0192 H   0  0  0  0  0  0  0  0  0  0  0  0
    1.3935   -3.9912   -0.4503 H   0  0  0  0  0  0  0  0  0  0  0  0
   -0.1774   -4.9749   -0.4690 H   0  0  0  0  0  0  0  0  0  0  0  0
    0.7952   -4.1935   -2.8171 H   0  0  0  0  0  0  0  0  0  0  0  0
   -0.9428   -3.7324   -2.3799 H   0  0  0  0  0  0  0  0  0  0  0  0
    0.1666   -1.5958   -2.9627 H   0  0  0  0  0  0  0  0  0  0  0  0
    1.6641   -2.1379   -2.0345 H   0  0  0  0  0  0  0  0  0  0  0  0
  1  2  1  0
  2  3  2  0
  2  4  1  0
  4  5  1  0
  5  6  1  0
  6  7  1  0
  7  8  1  0
  8  9  1  0
  9 10  2  0
  9 11  1  0
 11 12  1  0
 12 13  1  0
 13 14  2  0
 14 15  1  0
 15 16  2  0
 16 17  1  0
 16 18  1  0
 18 19  2  0
 11 20  1  0
 20 21  1  0
 21 22  1  0
 22 23  1  0
 23 24  1  0
  8  4  1  0
 19 13  1  0
 24 20  1  0
  1 25  1  0
  4 26  1  6
  5 27  1  0
  5 28  1  0
  6 29  1  0
  6 30  1  0
  7 31  1  0
  7 32  1  0
 11 33  1  1
 12 34  1  0
 12 35  1  0
 14 36  1  0
 15 37  1  0
 17 38  1  0
 18 39  1  0
 19 40  1  0
 21 41  1  0
 21 42  1  0
 22 43  1  0
 22 44  1  0
 23 45  1  0
 23 46  1  0
 24 47  1  0
 24 48  1  0
M  END
$$$$
[H]OC(C([H])([H])[H])(C([H])([H])[H])[C@@]1([H])[C@]2([H])C([H])([H])C([H])([H])[C@]([H])(O[H])[C@@]12[H]
     RDKit          2D

 27 28  0  0  0  0  0  0  0  0999 V2000
    0.6811    2.1132    0.0000 C   0  0  0  0  0  0  0  0  0  0  0  0
    1.8302    1.1491    0.0000 C   0  0  0  0  0  0  0  0  0  0  0  0
    2.9793    0.1849    0.0000 C   0  0  0  0  0  0  0  0  0  0  0  0
    2.7944    2.2981    0.0000 O   0  0  0  0  0  0  0  0  0  0  0  0
    0.8660    0.0000    0.0000 C   0  0  0  0  0  0  0  0  0  0  0  0
   -0.4330    0.7500    0.0000 C   0  0  0  0  0  0  0  0  0  0  0  0
   -1.8596    1.2135    0.0000 C   0  0  0  0  0  0  0  0  0  0  0  0
   -1.2495    2.5838    0.0000 O   0  0  0  0  0  0  0  0  0  0  0  0
   -2.7413    0.0000    0.0000 C   0  0  0  0  0  0  0  0  0  0  0  0
   -1.8596   -1.2135    0.0000 C   0  0  0  0  0  0  0  0  0  0  0  0
   -0.4330   -0.7500    0.0000 C   0  0  0  0  0  0  0  0  0  0  0  0
   -0.3530    2.9810    0.0000 H   0  0  0  0  0  0  0  0  0  0  0  0
    0.0362    1.6447    0.0000 H   0  0  0  0  0  0  0  0  0  0  0  0
    1.6453    3.2623    0.0000 H   0  0  0  0  0  0  0  0  0  0  0  0
    4.1283   -0.7793    0.0000 H   0  0  0  0  0  0  0  0  0  0  0  0
    4.0763    1.2079    0.0000 H   0  0  0  0  0  0  0  0  0  0  0  0
    2.3837   -0.7322    0.0000 H   0  0  0  0  0  0  0  0  0  0  0  0
    4.2923    2.2197    0.0000 H   0  0  0  0  0  0  0  0  0  0  0  0
    1.4616   -0.9171    0.0000 H   0  0  0  0  0  0  0  0  0  0  0  0
   -0.2432    1.8269    0.0000 H   0  0  0  0  0  0  0  0  0  0  0  0
   -3.1586    1.9635    0.0000 H   0  0  0  0  0  0  0  0  0  0  0  0
   -2.1312    3.7974    0.0000 H   0  0  0  0  0  0  0  0  0  0  0  0
   -3.8560    1.0037    0.0000 H   0  0  0  0  0  0  0  0  0  0  0  0
   -3.8560   -1.0037    0.0000 H   0  0  0  0  0  0  0  0  0  0  0  0
   -3.1586   -1.9635    0.0000 H   0  0  0  0  0  0  0  0  0  0  0  0
   -1.2495   -2.5838    0.0000 H   0  0  0  0  0  0  0  0  0  0  0  0
    0.1771   -2.1203    0.0000 H   0  0  0  0  0  0  0  0  0  0  0  0
  1  2  1  0
  2  3  1  0
  2  4  1  0
  2  5  1  0
  5  6  1  0
  6  7  1  0
  7  8  1  0
  7  9  1  0
  9 10  1  0
 10 11  1  0
 11  5  1  0
 11  6  1  0
  1 12  1  0
  1 13  1  0
  1 14  1  0
  3 15  1  0
  3 16  1  0
  3 17  1  0
  4 18  1  0
  5 19  1  6
  6 20  1  6
  7 21  1  1
  8 22  1  0
  9 23  1  0
  9 24  1  0
 10 25  1  0
 10 26  1  0
 11 27  1  1
M  END
$$$$
[H]c1c(-c2c([H])c([H])c([H])c(S(=O)(=O)N([H])C(=O)[C@@]([H])(N([H])[H])C([H])([H])C([H])(C([H])([H])[H])C([H])([H])[H])c2[H])nc(C([H])([H])[H])nc1N([H])[H]
     RDKit          3D

 49 50  0  0  0  0  0  0  0  0999 V2000
   -6.7088   -0.5586   -0.0940 C   0  0  0  0  0  0  0  0  0  0  0  0
   -6.1258    0.6483   -0.7532 C   0  0  0  0  0  0  0  0  0  0  0  0
   -6.8527    1.9022   -0.2306 C   0  0  0  0  0  0  0  0  0  0  0  0
   -4.6958    0.8304   -0.4703 C   0  0  0  0  0  0  0  0  0  0  0  0
   -3.7348   -0.2394   -0.9179 C   0  0  2  0  0  0  0  0  0  0  0  0
   -4.0049   -1.5458   -0.3544 N   0  0  0  0  0  0  0  0  0  0  0  0
   -2.4033    0.2199   -0.3958 C   0  0  0  0  0  0  0  0  0  0  0  0
   -1.8348    1.1480   -0.9835 O   0  0  0  0  0  0  0  0  0  0  0  0
   -1.8560   -0.3996    0.7251 N   0  0  0  0  0  0  0  0  0  0  0  0
   -0.3537   -0.0220    1.4826 S   0  0  0  0  0  0  0  0  0  0  0  0
   -0.1314    1.4932    1.4649 O   0  0  0  0  0  0  0  0  0  0  0  0
   -0.3351   -0.4077    2.9312 O   0  0  0  0  0  0  0  0  0  0  0  0
    0.9677   -0.7190    0.5881 C   0  0  0  0  0  0  0  0  0  0  0  0
    0.8303   -1.9778    0.0545 C   0  0  0  0  0  0  0  0  0  0  0  0
    1.8793   -2.6302   -0.6097 C   0  0  0  0  0  0  0  0  0  0  0  0
    3.0665   -1.9343   -0.6988 C   0  0  0  0  0  0  0  0  0  0  0  0
    3.2318   -0.6666   -0.1705 C   0  0  0  0  0  0  0  0  0  0  0  0
    2.1754   -0.0387    0.4837 C   0  0  0  0  0  0  0  0  0  0  0  0
    4.5318   -0.0225   -0.2590 C   0  0  0  0  0  0  0  0  0  0  0  0
    4.8079    1.2259    0.2480 C   0  0  0  0  0  0  0  0  0  0  0  0
    6.0692    1.8113    0.1836 C   0  0  0  0  0  0  0  0  0  0  0  0
    6.2737    3.1022    0.7373 N   0  0  0  0  0  0  0  0  0  0  0  0
    7.0403    1.0811   -0.4161 N   0  0  0  0  0  0  0  0  0  0  0  0
    6.7734   -0.1383   -0.9120 C   0  0  0  0  0  0  0  0  0  0  0  0
    7.8240   -0.9801   -1.5722 C   0  0  0  0  0  0  0  0  0  0  0  0
    5.5404   -0.6909   -0.8399 N   0  0  0  0  0  0  0  0  0  0  0  0
   -6.1503   -0.9134    0.7860 H   0  0  0  0  0  0  0  0  0  0  0  0
   -6.8148   -1.3721   -0.8170 H   0  0  0  0  0  0  0  0  0  0  0  0
   -7.7468   -0.2961    0.2905 H   0  0  0  0  0  0  0  0  0  0  0  0
   -6.2796    0.6263   -1.8633 H   0  0  0  0  0  0  0  0  0  0  0  0
   -6.1595    2.7529   -0.0931 H   0  0  0  0  0  0  0  0  0  0  0  0
   -7.2741    1.6485    0.7567 H   0  0  0  0  0  0  0  0  0  0  0  0
   -7.6143    2.2069   -0.9670 H   0  0  0  0  0  0  0  0  0  0  0  0
   -4.3822    1.7912   -1.0011 H   0  0  0  0  0  0  0  0  0  0  0  0
   -4.4769    1.0065    0.6191 H   0  0  0  0  0  0  0  0  0  0  0  0
   -3.6314   -0.2850   -2.0369 H   0  0  0  0  0  0  0  0  0  0  0  0
   -4.6006   -2.0925   -1.0338 H   0  0  0  0  0  0  0  0  0  0  0  0
   -3.1014   -2.1194   -0.3194 H   0  0  0  0  0  0  0  0  0  0  0  0
   -2.3841   -1.1922    1.2202 H   0  0  0  0  0  0  0  0  0  0  0  0
   -0.1282   -2.4716    0.1597 H   0  0  0  0  0  0  0  0  0  0  0  0
    1.7153   -3.6218   -1.0107 H   0  0  0  0  0  0  0  0  0  0  0  0
    3.9096   -2.4016   -1.2091 H   0  0  0  0  0  0  0  0  0  0  0  0
    2.2484    0.9474    0.9132 H   0  0  0  0  0  0  0  0  0  0  0  0
    4.0212    1.7836    0.7163 H   0  0  0  0  0  0  0  0  0  0  0  0
    5.5959    3.8859    0.5299 H   0  0  0  0  0  0  0  0  0  0  0  0
    7.0899    3.3216    1.3597 H   0  0  0  0  0  0  0  0  0  0  0  0
    7.3658   -1.4688   -2.4559 H   0  0  0  0  0  0  0  0  0  0  0  0
    8.7466   -0.4154   -1.8025 H   0  0  0  0  0  0  0  0  0  0  0  0
    8.0767   -1.8119   -0.8577 H   0  0  0  0  0  0  0  0  0  0  0  0
  1  2  1  0
  2  3  1  0
  2  4  1  0
  4  5  1  0
  5  6  1  0
  5  7  1  0
  7  8  2  0
  7  9  1  0
  9 10  1  0
 10 11  2  0
 10 12  2  0
 10 13  1  0
 13 14  2  0
 14 15  1  0
 15 16  2  0
 16 17  1  0
 17 18  2  0
 17 19  1  0
 19 20  2  0
 20 21  1  0
 21 22  1  0
 21 23  2  0
 23 24  1  0
 24 25  1  0
 24 26  2  0
 18 13  1  0
 26 19  1  0
  1 27  1  0
  1 28  1  0
  1 29  1  0
  2 30  1  0
  3 31  1  0
  3 32  1  0
  3 33  1  0
  4 34  1  0
  4 35  1  0
  5 36  1  6
  6 37  1  0
  6 38  1  0
  9 39  1  0
 14 40  1  0
 15 41  1  0
 16 42  1  0
 18 43  1  0
 20 44  1  0
 22 45  1  0
 22 46  1  0
 25 47  1  0
 25 48  1  0
 25 49  1  0
M  END
$$$$
[H]c1nc([H])c(-c2c([H])c([H])c([H])c3c2nc(-c2nn([H])c4nc([H])c(-c5c([H])nc([H])c(N(C([H])([H])[H])C([H])([H])[H])c5[H])c([H])c24)n3[H])c([H])c1[H]
     RDKit          3D

 53 58  0  0  0  0  0  0  0  0999 V2000
   -7.4073   -2.1960    0.5719 C   0  0  0  0  0  0  0  0  0  0  0  0
   -7.1079   -0.9216   -0.0442 N   0  0  0  0  0  0  0  0  0  0  0  0
   -8.1780    0.0534   -0.1174 C   0  0  0  0  0  0  0  0  0  0  0  0
   -5.8297   -0.5918   -0.5720 C   0  0  0  0  0  0  0  0  0  0  0  0
   -5.5264   -0.8664   -1.9021 C   0  0  0  0  0  0  0  0  0  0  0  0
   -4.3217   -0.5619   -2.4189 N   0  0  0  0  0  0  0  0  0  0  0  0
   -3.3539    0.0201   -1.6808 C   0  0  0  0  0  0  0  0  0  0  0  0
   -3.5936    0.3229   -0.3365 C   0  0  0  0  0  0  0  0  0  0  0  0
   -4.8283    0.0032    0.1670 C   0  0  0  0  0  0  0  0  0  0  0  0
   -2.5413    0.9498    0.4482 C   0  0  0  0  0  0  0  0  0  0  0  0
   -2.8222    1.8152    1.4801 C   0  0  0  0  0  0  0  0  0  0  0  0
   -1.8329    2.3906    2.2014 N   0  0  0  0  0  0  0  0  0  0  0  0
   -0.5332    2.1684    1.9731 C   0  0  0  0  0  0  0  0  0  0  0  0
    0.6201    2.5803    2.5024 N   0  0  0  0  0  0  0  0  0  0  0  0
    1.6254    2.0290    1.8697 N   0  0  0  0  0  0  0  0  0  0  0  0
    1.1747    1.2053    0.8663 C   0  0  0  0  0  0  0  0  0  0  0  0
    2.0364    0.4427   -0.0246 C   0  0  0  0  0  0  0  0  0  0  0  0
    3.4101    0.4863    0.0679 N   0  0  0  0  0  0  0  0  0  0  0  0
    3.9763   -0.2954   -0.8547 C   0  0  0  0  0  0  0  0  0  0  0  0
    5.2731   -0.6253   -1.2130 C   0  0  0  0  0  0  0  0  0  0  0  0
    5.5795   -1.4895   -2.2423 C   0  0  0  0  0  0  0  0  0  0  0  0
    4.5229   -2.0413   -2.9363 C   0  0  0  0  0  0  0  0  0  0  0  0
    3.2156   -1.7429   -2.6161 C   0  0  0  0  0  0  0  0  0  0  0  0
    2.9629   -0.8710   -1.5760 C   0  0  0  0  0  0  0  0  0  0  0  0
    1.8027   -0.3886   -1.0303 N   0  0  0  0  0  0  0  0  0  0  0  0
    6.3619   -0.0303   -0.4675 C   0  0  0  0  0  0  0  0  0  0  0  0
    6.3446    0.0380    0.9216 C   0  0  0  0  0  0  0  0  0  0  0  0
    7.4162    0.6198    1.5898 C   0  0  0  0  0  0  0  0  0  0  0  0
    8.5055    1.1360    0.9165 C   0  0  0  0  0  0  0  0  0  0  0  0
    8.4904    1.0536   -0.4302 N   0  0  0  0  0  0  0  0  0  0  0  0
    7.4688    0.4975   -1.0921 C   0  0  0  0  0  0  0  0  0  0  0  0
   -0.1840    1.2944    0.9330 C   0  0  0  0  0  0  0  0  0  0  0  0
   -1.1904    0.7053    0.1948 C   0  0  0  0  0  0  0  0  0  0  0  0
   -6.5664   -2.9164    0.4932 H   0  0  0  0  0  0  0  0  0  0  0  0
   -7.7572   -2.0922    1.6228 H   0  0  0  0  0  0  0  0  0  0  0  0
   -8.2957   -2.6137    0.0142 H   0  0  0  0  0  0  0  0  0  0  0  0
   -8.5219    0.3496    0.8991 H   0  0  0  0  0  0  0  0  0  0  0  0
   -9.0786   -0.4116   -0.6127 H   0  0  0  0  0  0  0  0  0  0  0  0
   -7.9020    0.9392   -0.7210 H   0  0  0  0  0  0  0  0  0  0  0  0
   -6.3026   -1.3361   -2.5041 H   0  0  0  0  0  0  0  0  0  0  0  0
   -2.3750    0.2736   -2.0798 H   0  0  0  0  0  0  0  0  0  0  0  0
   -5.0259    0.2309    1.2006 H   0  0  0  0  0  0  0  0  0  0  0  0
   -3.8734    2.0234    1.6989 H   0  0  0  0  0  0  0  0  0  0  0  0
    0.6330    3.2541    3.3127 H   0  0  0  0  0  0  0  0  0  0  0  0
    6.6220   -1.7297   -2.5003 H   0  0  0  0  0  0  0  0  0  0  0  0
    4.7735   -2.7268   -3.7524 H   0  0  0  0  0  0  0  0  0  0  0  0
    2.3911   -2.1781   -3.1630 H   0  0  0  0  0  0  0  0  0  0  0  0
    0.9026   -0.6802   -1.4070 H   0  0  0  0  0  0  0  0  0  0  0  0
    5.5012   -0.3609    1.4597 H   0  0  0  0  0  0  0  0  0  0  0  0
    7.4319    0.6883    2.6782 H   0  0  0  0  0  0  0  0  0  0  0  0
    9.3470    1.5931    1.4462 H   0  0  0  0  0  0  0  0  0  0  0  0
    7.5160    0.4618   -2.1678 H   0  0  0  0  0  0  0  0  0  0  0  0
   -0.9563    0.0416   -0.5956 H   0  0  0  0  0  0  0  0  0  0  0  0
  1  2  1  0
  2  3  1  0
  2  4  1  0
  4  5  2  0
  5  6  1  0
  6  7  2  0
  7  8  1  0
  8  9  2  0
  8 10  1  0
 10 11  2  0
 11 12  1  0
 12 13  2  0
 13 14  1  0
 14 15  1  0
 15 16  2  0
 16 17  1  0
 17 18  2  0
 18 19  1  0
 19 20  2  0
 20 21  1  0
 21 22  2  0
 22 23  1  0
 23 24  2  0
 24 25  1  0
 20 26  1  0
 26 27  2  0
 27 28  1  0
 28 29  2  0
 29 30  1  0
 30 31  2  0
 16 32  1  0
 32 33  2  0
  9  4  1  0
 33 10  1  0
 32 13  1  0
 25 17  1  0
 31 26  1  0
 24 19  1  0
  1 34  1  0
  1 35  1  0
  1 36  1  0
  3 37  1  0
  3 38  1  0
  3 39  1  0
  5 40  1  0
  7 41  1  0
  9 42  1  0
 11 43  1  0
 14 44  1  0
 21 45  1  0
 22 46  1  0
 23 47  1  0
 25 48  1  0
 27 49  1  0
 28 50  1  0
 29 51  1  0
 31 52  1  0
 33 53  1  0
M  END
$$$$
[H]c1nc([H])n(C([H])([H])[C@@]2(c3c([H])c([H])c(Cl)c([H])c3Cl)OC([H])([H])[C@@]([H])(C([H])([H])Oc3c([H])c([H])c(N4C([H])([H])C([H])([H])N(S(=O)(=O)C([H])([H])[H])C([H])([H])C4([H])[H])c([H])c3[H])O2)c1[H]
     RDKit          3D

 65 69  0  0  0  0  0  0  0  0999 V2000
    7.4427    1.5504   -1.3268 C   0  0  0  0  0  0  0  0  0  0  0  0
    8.6192    0.4316   -0.6509 S   0  0  0  0  0  0  0  0  0  0  0  0
    9.3187   -0.2508   -1.7938 O   0  0  0  0  0  0  0  0  0  0  0  0
    9.6898    1.1712    0.1208 O   0  0  0  0  0  0  0  0  0  0  0  0
    7.9152   -0.7740    0.3374 N   0  0  0  0  0  0  0  0  0  0  0  0
    7.2353   -0.2766    1.4788 C   0  0  0  0  0  0  0  0  0  0  0  0
    6.0906   -1.2337    1.8338 C   0  0  0  0  0  0  0  0  0  0  0  0
    5.2011   -1.2227    0.6988 N   0  0  0  0  0  0  0  0  0  0  0  0
    5.7916   -1.6166   -0.5675 C   0  0  0  0  0  0  0  0  0  0  0  0
    7.2746   -1.8171   -0.3776 C   0  0  0  0  0  0  0  0  0  0  0  0
    3.8366   -0.8573    0.7740 C   0  0  0  0  0  0  0  0  0  0  0  0
    3.0718   -0.9006   -0.3954 C   0  0  0  0  0  0  0  0  0  0  0  0
    1.7370   -0.5614   -0.4146 C   0  0  0  0  0  0  0  0  0  0  0  0
    1.0862   -0.1588    0.7324 C   0  0  0  0  0  0  0  0  0  0  0  0
   -0.2560    0.1919    0.7593 O   0  0  0  0  0  0  0  0  0  0  0  0
   -1.0883    0.1760   -0.3619 C   0  0  0  0  0  0  0  0  0  0  0  0
   -2.4568    0.6118    0.0471 C   0  0  2  0  0  0  0  0  0  0  0  0
   -3.0907   -0.2679    1.0745 C   0  0  0  0  0  0  0  0  0  0  0  0
   -4.3099   -0.6162    0.5489 O   0  0  0  0  0  0  0  0  0  0  0  0
   -4.5302    0.1789   -0.5903 C   0  0  2  0  0  0  0  0  0  0  0  0
   -5.1615   -0.7442   -1.6144 C   0  0  0  0  0  0  0  0  0  0  0  0
   -6.4101   -1.3167   -1.1743 N   0  0  0  0  0  0  0  0  0  0  0  0
   -7.6183   -0.7814   -1.3795 C   0  0  0  0  0  0  0  0  0  0  0  0
   -8.5540   -1.6062   -0.8161 C   0  0  0  0  0  0  0  0  0  0  0  0
   -7.8901   -2.6379   -0.2735 N   0  0  0  0  0  0  0  0  0  0  0  0
   -6.5822   -2.4591   -0.4934 C   0  0  0  0  0  0  0  0  0  0  0  0
   -3.3149    0.6080   -1.0519 O   0  0  0  0  0  0  0  0  0  0  0  0
   -5.3639    1.3198   -0.2008 C   0  0  0  0  0  0  0  0  0  0  0  0
   -5.8230    1.4422    1.1027 C   0  0  0  0  0  0  0  0  0  0  0  0
   -6.6206    2.4788    1.5307 C   0  0  0  0  0  0  0  0  0  0  0  0
   -6.9946    3.4549    0.6393 C   0  0  0  0  0  0  0  0  0  0  0  0
   -8.0151    4.7842    1.1790 Cl  0  0  0  0  0  0  0  0  0  0  0  0
   -6.5556    3.3634   -0.6626 C   0  0  0  0  0  0  0  0  0  0  0  0
   -5.7483    2.3066   -1.0780 C   0  0  0  0  0  0  0  0  0  0  0  0
   -5.2249    2.2975   -2.7622 Cl  0  0  0  0  0  0  0  0  0  0  0  0
    1.8296   -0.1122    1.8908 C   0  0  0  0  0  0  0  0  0  0  0  0
    3.1873   -0.4558    1.9166 C   0  0  0  0  0  0  0  0  0  0  0  0
    6.5365    1.6647   -0.7262 H   0  0  0  0  0  0  0  0  0  0  0  0
    7.2192    1.2977   -2.4042 H   0  0  0  0  0  0  0  0  0  0  0  0
    7.9266    2.5601   -1.3678 H   0  0  0  0  0  0  0  0  0  0  0  0
    6.7562    0.7124    1.3386 H   0  0  0  0  0  0  0  0  0  0  0  0
    7.9427   -0.2390    2.3521 H   0  0  0  0  0  0  0  0  0  0  0  0
    6.4980   -2.2841    1.9225 H   0  0  0  0  0  0  0  0  0  0  0  0
    5.6464   -1.0030    2.7940 H   0  0  0  0  0  0  0  0  0  0  0  0
    5.3503   -2.5967   -0.8385 H   0  0  0  0  0  0  0  0  0  0  0  0
    5.5618   -0.9082   -1.3873 H   0  0  0  0  0  0  0  0  0  0  0  0
    7.4179   -2.7741    0.1511 H   0  0  0  0  0  0  0  0  0  0  0  0
    7.7502   -1.8944   -1.3921 H   0  0  0  0  0  0  0  0  0  0  0  0
    3.5481   -1.2108   -1.3094 H   0  0  0  0  0  0  0  0  0  0  0  0
    1.1423   -0.5970   -1.3324 H   0  0  0  0  0  0  0  0  0  0  0  0
   -1.0606   -0.8488   -0.7863 H   0  0  0  0  0  0  0  0  0  0  0  0
   -0.7010    0.8521   -1.1320 H   0  0  0  0  0  0  0  0  0  0  0  0
   -2.3895    1.6294    0.4578 H   0  0  0  0  0  0  0  0  0  0  0  0
   -2.4444   -1.1500    1.3026 H   0  0  0  0  0  0  0  0  0  0  0  0
   -3.2093    0.2524    2.0702 H   0  0  0  0  0  0  0  0  0  0  0  0
   -5.1883   -0.3152   -2.6264 H   0  0  0  0  0  0  0  0  0  0  0  0
   -4.4099   -1.5957   -1.7081 H   0  0  0  0  0  0  0  0  0  0  0  0
   -7.8560    0.1535   -1.9065 H   0  0  0  0  0  0  0  0  0  0  0  0
   -9.6381   -1.4158   -0.8311 H   0  0  0  0  0  0  0  0  0  0  0  0
   -5.8141   -3.1686   -0.1479 H   0  0  0  0  0  0  0  0  0  0  0  0
   -5.5570    0.6927    1.8600 H   0  0  0  0  0  0  0  0  0  0  0  0
   -6.9696    2.5563    2.5565 H   0  0  0  0  0  0  0  0  0  0  0  0
   -6.8417    4.1333   -1.3966 H   0  0  0  0  0  0  0  0  0  0  0  0
    1.3329    0.2037    2.8076 H   0  0  0  0  0  0  0  0  0  0  0  0
    3.7318   -0.4071    2.8346 H   0  0  0  0  0  0  0  0  0  0  0  0
  1  2  1  0
  2  3  2  0
  2  4  2  0
  2  5  1  0
  5  6  1  0
  6  7  1  0
  7  8  1  0
  8  9  1  0
  9 10  1  0
  8 11  1  0
 11 12  2  0
 12 13  1  0
 13 14  2  0
 14 15  1  0
 15 16  1  0
 16 17  1  0
 17 18  1  0
 18 19  1  0
 19 20  1  0
 20 21  1  6
 21 22  1  0
 22 23  1  0
 23 24  2  0
 24 25  1  0
 25 26  2  0
 20 27  1  0
 20 28  1  0
 28 29  2  0
 29 30  1  0
 30 31  2  0
 31 32  1  0
 31 33  1  0
 33 34  2  0
 34 35  1  0
 14 36  1  0
 36 37  2  0
 10  5  1  0
 37 11  1  0
 27 17  1  0
 34 28  1  0
 26 22  1  0
  1 38  1  0
  1 39  1  0
  1 40  1  0
  6 41  1  0
  6 42  1  0
  7 43  1  0
  7 44  1  0
  9 45  1  0
  9 46  1  0
 10 47  1  0
 10 48  1  0
 12 49  1  0
 13 50  1  0
 16 51  1  0
 16 52  1  0
 17 53  1  1
 18 54  1  0
 18 55  1  0
 21 56  1  0
 21 57  1  0
 23 58  1  0
 24 59  1  0
 26 60  1  0
 29 61  1  0
 30 62  1  0
 33 63  1  0
 36 64  1  0
 37 65  1  0
M  END
$$$$
[H]c1c([H])c([H])c(C([H])([H])OC(=O)N([H])[C@@]([H])(C(=O)N([H])[C@]([H])(C(=O)N([H])[C@]([H])(C(=O)N([H])[C@]([H])(C(=O)N([H])[H])C([H])([H])c2c([H])c([H])c([H])c([H])c2[H])C([H])([H])c2c([H])n([H])c3c([H])c([H])c([H])c([H])c23)C([H])(C([H])([H])[H])C([H])([H])[H])C([H])([H])c2c([H])c([H])c([H])c([H])c2[H])c([H])c1[H]
     RDKit          3D

100104  0  0  0  0  0  0  0  0999 V2000
    0.7900   -3.5839    2.4768 C   0  0  0  0  0  0  0  0  0  0  0  0
   -0.1610   -2.3999    2.1725 C   0  0  0  0  0  0  0  0  0  0  0  0
   -1.4451   -2.5835    2.8874 C   0  0  0  0  0  0  0  0  0  0  0  0
   -0.2303   -2.1885    0.6866 C   0  0  2  0  0  0  0  0  0  0  0  0
    1.1278   -1.8983    0.2528 N   0  0  0  0  0  0  0  0  0  0  0  0
    1.8377   -0.7136    0.4950 C   0  0  0  0  0  0  0  0  0  0  0  0
    1.3439    0.2307    1.1175 O   0  0  0  0  0  0  0  0  0  0  0  0
    3.2438   -0.5479    0.0006 C   0  0  1  0  0  0  0  0  0  0  0  0
    3.3252   -0.9301   -1.4531 C   0  0  0  0  0  0  0  0  0  0  0  0
    4.7329   -0.7684   -1.9370 C   0  0  0  0  0  0  0  0  0  0  0  0
    5.1322    0.4381   -2.4631 C   0  0  0  0  0  0  0  0  0  0  0  0
    6.4432    0.5954   -2.9183 C   0  0  0  0  0  0  0  0  0  0  0  0
    7.3116   -0.4714   -2.8285 C   0  0  0  0  0  0  0  0  0  0  0  0
    6.8899   -1.6799   -2.2952 C   0  0  0  0  0  0  0  0  0  0  0  0
    5.5918   -1.8372   -1.8437 C   0  0  0  0  0  0  0  0  0  0  0  0
    3.7350    0.7841    0.2329 N   0  0  0  0  0  0  0  0  0  0  0  0
    4.7351    1.0281    1.1988 C   0  0  0  0  0  0  0  0  0  0  0  0
    5.1759    0.0383    1.8591 O   0  0  0  0  0  0  0  0  0  0  0  0
    5.2021    2.2996    1.4030 O   0  0  0  0  0  0  0  0  0  0  0  0
    6.1798    2.5870    2.3455 C   0  0  0  0  0  0  0  0  0  0  0  0
    7.4547    1.8969    2.1169 C   0  0  0  0  0  0  0  0  0  0  0  0
    7.7709    1.3594    0.9091 C   0  0  0  0  0  0  0  0  0  0  0  0
    8.9792    0.7145    0.7335 C   0  0  0  0  0  0  0  0  0  0  0  0
    9.8534    0.6239    1.7903 C   0  0  0  0  0  0  0  0  0  0  0  0
    9.5307    1.1719    3.0198 C   0  0  0  0  0  0  0  0  0  0  0  0
    8.3385    1.8130    3.2086 C   0  0  0  0  0  0  0  0  0  0  0  0
   -1.2129   -1.2786    0.1655 C   0  0  0  0  0  0  0  0  0  0  0  0
   -0.8099   -0.2899   -0.5433 O   0  0  0  0  0  0  0  0  0  0  0  0
   -2.6241   -1.3143    0.3226 N   0  0  0  0  0  0  0  0  0  0  0  0
   -3.5492   -0.3614   -0.2241 C   0  0  1  0  0  0  0  0  0  0  0  0
   -4.4739   -0.9883   -1.2070 C   0  0  0  0  0  0  0  0  0  0  0  0
   -3.8736   -1.6097   -2.3907 C   0  0  0  0  0  0  0  0  0  0  0  0
   -3.6425   -1.0051   -3.6219 C   0  0  0  0  0  0  0  0  0  0  0  0
   -3.0386   -1.8951   -4.3916 N   0  0  0  0  0  0  0  0  0  0  0  0
   -2.8546   -3.0546   -3.7475 C   0  0  0  0  0  0  0  0  0  0  0  0
   -2.3054   -4.2538   -4.0990 C   0  0  0  0  0  0  0  0  0  0  0  0
   -2.2745   -5.2848   -3.2065 C   0  0  0  0  0  0  0  0  0  0  0  0
   -2.7845   -5.1720   -1.9346 C   0  0  0  0  0  0  0  0  0  0  0  0
   -3.3353   -3.9691   -1.5814 C   0  0  0  0  0  0  0  0  0  0  0  0
   -3.3811   -2.9002   -2.4629 C   0  0  0  0  0  0  0  0  0  0  0  0
   -4.4276    0.2230    0.8533 C   0  0  0  0  0  0  0  0  0  0  0  0
   -4.3064   -0.2129    2.0190 O   0  0  0  0  0  0  0  0  0  0  0  0
   -5.3538    1.2243    0.5650 N   0  0  0  0  0  0  0  0  0  0  0  0
   -6.2311    1.8205    1.5433 C   0  0  1  0  0  0  0  0  0  0  0  0
   -5.7434    3.1819    1.9891 C   0  0  0  0  0  0  0  0  0  0  0  0
   -5.6132    4.1678    0.8988 C   0  0  0  0  0  0  0  0  0  0  0  0
   -6.6569    4.9932    0.5131 C   0  0  0  0  0  0  0  0  0  0  0  0
   -6.5420    5.9277   -0.5030 C   0  0  0  0  0  0  0  0  0  0  0  0
   -5.3518    6.0708   -1.1831 C   0  0  0  0  0  0  0  0  0  0  0  0
   -4.2849    5.2580   -0.8214 C   0  0  0  0  0  0  0  0  0  0  0  0
   -4.4277    4.3328    0.1981 C   0  0  0  0  0  0  0  0  0  0  0  0
   -7.6382    1.7606    1.1743 C   0  0  0  0  0  0  0  0  0  0  0  0
   -8.7051    2.2429    1.9802 N   0  0  0  0  0  0  0  0  0  0  0  0
   -8.0204    1.2501    0.0628 O   0  0  0  0  0  0  0  0  0  0  0  0
    1.7996   -3.2526    2.2430 H   0  0  0  0  0  0  0  0  0  0  0  0
    0.6452   -3.9257    3.5198 H   0  0  0  0  0  0  0  0  0  0  0  0
    0.4147   -4.3976    1.7936 H   0  0  0  0  0  0  0  0  0  0  0  0
    0.3489   -1.5186    2.6102 H   0  0  0  0  0  0  0  0  0  0  0  0
   -1.2277   -2.8937    3.9607 H   0  0  0  0  0  0  0  0  0  0  0  0
   -2.0476   -3.4665    2.5178 H   0  0  0  0  0  0  0  0  0  0  0  0
   -2.0250   -1.6640    2.9930 H   0  0  0  0  0  0  0  0  0  0  0  0
   -0.4832   -3.2173    0.2659 H   0  0  0  0  0  0  0  0  0  0  0  0
    1.6342   -2.6511   -0.2977 H   0  0  0  0  0  0  0  0  0  0  0  0
    3.9130   -1.2451    0.5884 H   0  0  0  0  0  0  0  0  0  0  0  0
    3.0752   -2.0028   -1.5709 H   0  0  0  0  0  0  0  0  0  0  0  0
    2.6860   -0.2928   -2.0778 H   0  0  0  0  0  0  0  0  0  0  0  0
    4.4677    1.2819   -2.5400 H   0  0  0  0  0  0  0  0  0  0  0  0
    6.7864    1.5243   -3.3345 H   0  0  0  0  0  0  0  0  0  0  0  0
    8.3293   -0.3539   -3.1790 H   0  0  0  0  0  0  0  0  0  0  0  0
    7.5703   -2.5085   -2.2271 H   0  0  0  0  0  0  0  0  0  0  0  0
    5.2735   -2.7785   -1.4303 H   0  0  0  0  0  0  0  0  0  0  0  0
    3.3617    1.6056   -0.3100 H   0  0  0  0  0  0  0  0  0  0  0  0
    5.8063    2.3447    3.3773 H   0  0  0  0  0  0  0  0  0  0  0  0
    6.3636    3.6971    2.3642 H   0  0  0  0  0  0  0  0  0  0  0  0
    7.1051    1.4220    0.0728 H   0  0  0  0  0  0  0  0  0  0  0  0
    9.2789    0.2678   -0.2107 H   0  0  0  0  0  0  0  0  0  0  0  0
   10.8101    0.1269    1.6943 H   0  0  0  0  0  0  0  0  0  0  0  0
   10.2190    1.0989    3.8466 H   0  0  0  0  0  0  0  0  0  0  0  0
    8.0575    2.2504    4.1536 H   0  0  0  0  0  0  0  0  0  0  0  0
   -3.0377   -2.0917    0.8746 H   0  0  0  0  0  0  0  0  0  0  0  0
   -2.9317    0.4512   -0.6688 H   0  0  0  0  0  0  0  0  0  0  0  0
   -5.2733   -0.2573   -1.5306 H   0  0  0  0  0  0  0  0  0  0  0  0
   -5.0704   -1.8102   -0.7018 H   0  0  0  0  0  0  0  0  0  0  0  0
   -3.9388    0.0071   -3.8180 H   0  0  0  0  0  0  0  0  0  0  0  0
   -2.7388   -1.7084   -5.3937 H   0  0  0  0  0  0  0  0  0  0  0  0
   -1.8924   -4.3801   -5.0921 H   0  0  0  0  0  0  0  0  0  0  0  0
   -1.8380   -6.2500   -3.4686 H   0  0  0  0  0  0  0  0  0  0  0  0
   -2.7695   -5.9910   -1.2043 H   0  0  0  0  0  0  0  0  0  0  0  0
   -3.7477   -3.8864   -0.5868 H   0  0  0  0  0  0  0  0  0  0  0  0
   -5.4281    1.5766   -0.4203 H   0  0  0  0  0  0  0  0  0  0  0  0
   -6.0961    1.1777    2.4721 H   0  0  0  0  0  0  0  0  0  0  0  0
   -4.8449    3.0524    2.6081 H   0  0  0  0  0  0  0  0  0  0  0  0
   -6.5569    3.5658    2.6660 H   0  0  0  0  0  0  0  0  0  0  0  0
   -7.6095    4.9126    1.0222 H   0  0  0  0  0  0  0  0  0  0  0  0
   -7.3662    6.5706   -0.7996 H   0  0  0  0  0  0  0  0  0  0  0  0
   -5.2911    6.8089   -1.9716 H   0  0  0  0  0  0  0  0  0  0  0  0
   -3.3738    5.4039   -1.3796 H   0  0  0  0  0  0  0  0  0  0  0  0
   -3.5718    3.7225    0.4456 H   0  0  0  0  0  0  0  0  0  0  0  0
   -9.2713    3.0551    1.6961 H   0  0  0  0  0  0  0  0  0  0  0  0
   -8.9409    1.7775    2.8930 H   0  0  0  0  0  0  0  0  0  0  0  0
  1  2  1  0
  2  3  1  0
  2  4  1  0
  4  5  1  0
  5  6  1  0
  6  7  2  0
  6  8  1  0
  8  9  1  0
  9 10  1  0
 10 11  2  0
 11 12  1  0
 12 13  2  0
 13 14  1  0
 14 15  2  0
  8 16  1  0
 16 17  1  0
 17 18  2  0
 17 19  1  0
 19 20  1  0
 20 21  1  0
 21 22  2  0
 22 23  1  0
 23 24  2  0
 24 25  1  0
 25 26  2  0
  4 27  1  0
 27 28  2  0
 27 29  1  0
 29 30  1  0
 30 31  1  0
 31 32  1  0
 32 33  2  0
 33 34  1  0
 34 35  1  0
 35 36  2  0
 36 37  1  0
 37 38  2  0
 38 39  1  0
 39 40  2  0
 30 41  1  0
 41 42  2  0
 41 43  1  0
 43 44  1  0
 44 45  1  0
 45 46  1  0
 46 47  2  0
 47 48  1  0
 48 49  2  0
 49 50  1  0
 50 51  2  0
 44 52  1  0
 52 53  1  0
 52 54  2  0
 15 10  1  0
 26 21  1  0
 40 32  1  0
 51 46  1  0
 40 35  1  0
  1 55  1  0
  1 56  1  0
  1 57  1  0
  2 58  1  0
  3 59  1  0
  3 60  1  0
  3 61  1  0
  4 62  1  6
  5 63  1  0
  8 64  1  1
  9 65  1  0
  9 66  1  0
 11 67  1  0
 12 68  1  0
 13 69  1  0
 14 70  1  0
 15 71  1  0
 16 72  1  0
 20 73  1  0
 20 74  1  0
 22 75  1  0
 23 76  1  0
 24 77  1  0
 25 78  1  0
 26 79  1  0
 29 80  1  0
 30 81  1  6
 31 82  1  0
 31 83  1  0
 33 84  1  0
 34 85  1  0
 36 86  1  0
 37 87  1  0
 38 88  1  0
 39 89  1  0
 43 90  1  0
 44 91  1  1
 45 92  1  0
 45 93  1  0
 47 94  1  0
 48 95  1  0
 49 96  1  0
 50 97  1  0
 51 98  1  0
 53 99  1  0
 53100  1  0
M  END
$$$$
[H]c1c([H])c(C([H])([H])N2C(=O)C(C([H])([H])[H])(C([H])([H])[H])N([H])C2([H])[H])c([H])c([H])c1[N+](=O)[O-]
     RDKit          3D

 33 34  0  0  0  0  0  0  0  0999 V2000
   -4.1548    0.5570    0.4204 C   0  0  0  0  0  0  0  0  0  0  0  0
   -2.8280   -0.0037   -0.0427 C   0  0  0  0  0  0  0  0  0  0  0  0
   -2.7781    0.0520   -1.5457 C   0  0  0  0  0  0  0  0  0  0  0  0
   -2.7341   -1.3685    0.4072 N   0  0  0  0  0  0  0  0  0  0  0  0
   -1.2966   -1.5790    0.4794 C   0  0  0  0  0  0  0  0  0  0  0  0
   -0.7233   -0.3353    0.9424 N   0  0  0  0  0  0  0  0  0  0  0  0
    0.5574   -0.2104    1.5909 C   0  0  0  0  0  0  0  0  0  0  0  0
    1.6592    0.0140    0.6479 C   0  0  0  0  0  0  0  0  0  0  0  0
    1.4536    0.0913   -0.7056 C   0  0  0  0  0  0  0  0  0  0  0  0
    2.5306    0.3039   -1.5404 C   0  0  0  0  0  0  0  0  0  0  0  0
    3.8104    0.4400   -1.0370 C   0  0  0  0  0  0  0  0  0  0  0  0
    4.0355    0.3645    0.3275 C   0  0  0  0  0  0  0  0  0  0  0  0
    2.9395    0.1513    1.1368 C   0  0  0  0  0  0  0  0  0  0  0  0
    4.9120    0.6585   -1.9055 N   0  0  0  0  0  0  0  0  0  0  0  0
    4.7036    0.7347   -3.2507 O   0  0  0  0  0  0  0  0  0  0  0  0
    6.0558    0.7815   -1.4720 O   0  0  0  0  0  0  0  0  0  0  0  0
   -1.6888    0.6539    0.6110 C   0  0  0  0  0  0  0  0  0  0  0  0
   -1.6024    1.8863    0.8308 O   0  0  0  0  0  0  0  0  0  0  0  0
   -4.6137   -0.1151    1.2020 H   0  0  0  0  0  0  0  0  0  0  0  0
   -3.9332    1.5032    0.9532 H   0  0  0  0  0  0  0  0  0  0  0  0
   -4.8882    0.6568   -0.3849 H   0  0  0  0  0  0  0  0  0  0  0  0
   -1.7961   -0.2189   -1.9586 H   0  0  0  0  0  0  0  0  0  0  0  0
   -3.4984   -0.7332   -1.9203 H   0  0  0  0  0  0  0  0  0  0  0  0
   -3.1190    1.0228   -1.9474 H   0  0  0  0  0  0  0  0  0  0  0  0
   -3.1817   -1.4676    1.3468 H   0  0  0  0  0  0  0  0  0  0  0  0
   -1.1356   -2.4111    1.1989 H   0  0  0  0  0  0  0  0  0  0  0  0
   -0.9621   -1.8540   -0.5400 H   0  0  0  0  0  0  0  0  0  0  0  0
    0.5093    0.6262    2.3351 H   0  0  0  0  0  0  0  0  0  0  0  0
    0.7785   -1.1232    2.1655 H   0  0  0  0  0  0  0  0  0  0  0  0
    0.4548   -0.0107   -1.1522 H   0  0  0  0  0  0  0  0  0  0  0  0
    2.3479    0.3630   -2.6207 H   0  0  0  0  0  0  0  0  0  0  0  0
    5.0431    0.4737    0.6977 H   0  0  0  0  0  0  0  0  0  0  0  0
    3.1428    0.0959    2.2054 H   0  0  0  0  0  0  0  0  0  0  0  0
  1  2  1  0
  2  3  1  0
  2  4  1  0
  4  5  1  0
  5  6  1  0
  6  7  1  0
  7  8  1  0
  8  9  2  0
  9 10  1  0
 10 11  2  0
 11 12  1  0
 12 13  2  0
 11 14  1  0
 14 15  1  0
 14 16  2  0
  6 17  1  0
 17 18  2  0
 17  2  1  0
 13  8  1  0
  1 19  1  0
  1 20  1  0
  1 21  1  0
  3 22  1  0
  3 23  1  0
  3 24  1  0
  4 25  1  0
  5 26  1  0
  5 27  1  0
  7 28  1  0
  7 29  1  0
  9 30  1  0
 10 31  1  0
 12 32  1  0
 13 33  1  0
M  CHG  2  14   1  15  -1
M  END
$$$$
[H]OC([H])([H])[C@@]1(O[H])C([H])([H])[C@@]2([H])O[C@]1(C([H])([H])[H])n1c3c([H])c([H])c([H])c([H])c3c3c4c(c5c6c([H])c([H])c([H])c([H])c6n2c5c31)C(=O)N([H])C4([H])[H]
     RDKit          3D

 54 61  0  0  0  0  0  0  0  0999 V2000
    3.1800    0.8838    1.3878 C   0  0  0  0  0  0  0  0  0  0  0  0
    2.1176    0.2237    0.5774 C   0  0  2  0  0  0  0  0  0  0  0  0
    1.6968   -0.7870    1.4854 O   0  0  0  0  0  0  0  0  0  0  0  0
    1.2511   -1.8639    0.7986 C   0  0  2  0  0  0  0  0  0  0  0  0
    2.0328   -1.9517   -0.4419 C   0  0  0  0  0  0  0  0  0  0  0  0
    2.6347   -0.5714   -0.5849 C   0  0  1  0  0  0  0  0  0  0  0  0
    2.2138   -0.0799   -1.8115 O   0  0  0  0  0  0  0  0  0  0  0  0
    4.1191   -0.7109   -0.6110 C   0  0  0  0  0  0  0  0  0  0  0  0
    4.4589   -1.5975   -1.6334 O   0  0  0  0  0  0  0  0  0  0  0  0
   -0.2014   -1.7853    0.5955 N   0  0  0  0  0  0  0  0  0  0  0  0
   -1.1044   -2.7499    0.6347 C   0  0  0  0  0  0  0  0  0  0  0  0
   -0.9179   -4.0868    0.8734 C   0  0  0  0  0  0  0  0  0  0  0  0
   -2.0299   -4.9199    0.8648 C   0  0  0  0  0  0  0  0  0  0  0  0
   -3.2823   -4.4161    0.6235 C   0  0  0  0  0  0  0  0  0  0  0  0
   -3.4758   -3.0511    0.3794 C   0  0  0  0  0  0  0  0  0  0  0  0
   -2.3768   -2.2421    0.3902 C   0  0  0  0  0  0  0  0  0  0  0  0
   -2.2053   -0.8905    0.1945 C   0  0  0  0  0  0  0  0  0  0  0  0
   -3.0670    0.1511   -0.0975 C   0  0  0  0  0  0  0  0  0  0  0  0
   -4.5001    0.2660   -0.2996 C   0  0  0  0  0  0  0  0  0  0  0  0
   -5.3884   -0.5871   -0.2658 O   0  0  0  0  0  0  0  0  0  0  0  0
   -4.7851    1.6416   -0.5724 N   0  0  0  0  0  0  0  0  0  0  0  0
   -3.5735    2.4248   -0.5610 C   0  0  0  0  0  0  0  0  0  0  0  0
   -2.5314    1.4168   -0.2472 C   0  0  0  0  0  0  0  0  0  0  0  0
   -1.1701    1.6669   -0.1133 C   0  0  0  0  0  0  0  0  0  0  0  0
   -0.3770    2.7657   -0.2198 C   0  0  0  0  0  0  0  0  0  0  0  0
   -0.7006    4.0705   -0.5126 C   0  0  0  0  0  0  0  0  0  0  0  0
    0.3203    5.0230   -0.5829 C   0  0  0  0  0  0  0  0  0  0  0  0
    1.6233    4.6180   -0.3553 C   0  0  0  0  0  0  0  0  0  0  0  0
    1.9232    3.2989   -0.0625 C   0  0  0  0  0  0  0  0  0  0  0  0
    0.9354    2.3466    0.0129 C   0  0  0  0  0  0  0  0  0  0  0  0
    0.9590    1.0103    0.2643 N   0  0  0  0  0  0  0  0  0  0  0  0
   -0.3578    0.6223    0.1746 C   0  0  0  0  0  0  0  0  0  0  0  0
   -0.8544   -0.6533    0.3299 C   0  0  0  0  0  0  0  0  0  0  0  0
    4.0624    1.2462    0.8471 H   0  0  0  0  0  0  0  0  0  0  0  0
    3.5596    0.1949    2.1815 H   0  0  0  0  0  0  0  0  0  0  0  0
    2.7312    1.7230    1.9466 H   0  0  0  0  0  0  0  0  0  0  0  0
    1.4219   -2.7643    1.4120 H   0  0  0  0  0  0  0  0  0  0  0  0
    1.4720   -2.2700   -1.3403 H   0  0  0  0  0  0  0  0  0  0  0  0
    2.8377   -2.7359   -0.3258 H   0  0  0  0  0  0  0  0  0  0  0  0
    2.8799   -0.3390   -2.4928 H   0  0  0  0  0  0  0  0  0  0  0  0
    4.5238   -1.1579    0.3296 H   0  0  0  0  0  0  0  0  0  0  0  0
    4.6358    0.2581   -0.8438 H   0  0  0  0  0  0  0  0  0  0  0  0
    4.7979   -2.4633   -1.2908 H   0  0  0  0  0  0  0  0  0  0  0  0
    0.0592   -4.4684    1.0598 H   0  0  0  0  0  0  0  0  0  0  0  0
   -1.8569   -5.9719    1.0560 H   0  0  0  0  0  0  0  0  0  0  0  0
   -4.1224   -5.0759    0.6219 H   0  0  0  0  0  0  0  0  0  0  0  0
   -4.4721   -2.7398    0.2018 H   0  0  0  0  0  0  0  0  0  0  0  0
   -5.7336    2.0654   -0.7610 H   0  0  0  0  0  0  0  0  0  0  0  0
   -3.6366    3.2333    0.1993 H   0  0  0  0  0  0  0  0  0  0  0  0
   -3.3846    2.8954   -1.5673 H   0  0  0  0  0  0  0  0  0  0  0  0
   -1.7294    4.3700   -0.6881 H   0  0  0  0  0  0  0  0  0  0  0  0
    0.0587    6.0490   -0.8135 H   0  0  0  0  0  0  0  0  0  0  0  0
    2.3774    5.3965   -0.4223 H   0  0  0  0  0  0  0  0  0  0  0  0
    2.9510    3.0689    0.0761 H   0  0  0  0  0  0  0  0  0  0  0  0
  2  1  1  1
  2  3  1  0
  3  4  1  0
  4  5  1  0
  5  6  1  0
  6  7  1  6
  6  8  1  0
  8  9  1  0
  4 10  1  0
 10 11  1  0
 11 12  2  0
 12 13  1  0
 13 14  2  0
 14 15  1  0
 15 16  2  0
 16 17  1  0
 17 18  2  0
 18 19  1  0
 19 20  2  0
 19 21  1  0
 21 22  1  0
 22 23  1  0
 23 24  2  0
 24 25  1  0
 25 26  2  0
 26 27  1  0
 27 28  2  0
 28 29  1  0
 29 30  2  0
 30 31  1  0
 31 32  1  0
 32 33  2  0
  6  2  1  0
 33 10  1  0
 31  2  1  0
 16 11  1  0
 33 17  1  0
 23 18  1  0
 32 24  1  0
 30 25  1  0
  1 34  1  0
  1 35  1  0
  1 36  1  0
  4 37  1  1
  5 38  1  0
  5 39  1  0
  7 40  1  0
  8 41  1  0
  8 42  1  0
  9 43  1  0
 12 44  1  0
 13 45  1  0
 14 46  1  0
 15 47  1  0
 21 48  1  0
 22 49  1  0
 22 50  1  0
 26 51  1  0
 27 52  1  0
 28 53  1  0
 29 54  1  0
M  END
$$$$
[H]c1c([H])c2c3c(c1[H])[C@@](C([H])([H])[H])(C(=O)C2([H])C([H])([H])C([H])([H])C([H])([H])C([H])([H])Cl)C([H])([H])C3([H])[H]
     RDKit          3D

 37 39  0  0  0  0  0  0  0  0999 V2000
   -2.3579    0.2680   -1.5539 C   0  0  0  0  0  0  0  0  0  0  0  0
   -1.9825   -0.2263   -0.1089 C   0  0  2  0  0  0  0  0  0  0  0  0
   -2.4512   -1.6538    0.0893 C   0  0  0  0  0  0  0  0  0  0  0  0
   -3.2421   -0.7135    0.1557 C   0  0  0  0  0  0  0  0  0  0  0  0
   -2.1252    0.3864    0.5315 C   0  0  0  0  0  0  0  0  0  0  0  0
   -2.5764    0.6617    1.0122 C   0  0  0  0  0  0  0  0  0  0  0  0
   -2.4854    1.7654    1.9298 C   0  0  0  0  0  0  0  0  0  0  0  0
   -1.4444    2.5763    2.0840 C   0  0  0  0  0  0  0  0  0  0  0  0
   -0.4728    2.1207    1.1691 C   0  0  0  0  0  0  0  0  0  0  0  0
   -0.8365    1.0678    0.4442 C   0  0  0  0  0  0  0  0  0  0  0  0
    0.2453    0.5624   -0.4770 C   0  0  0  0  0  0  0  0  0  0  0  0
    1.5038    0.3534    0.2492 C   0  0  0  0  0  0  0  0  0  0  0  0
    2.5313   -0.1566   -0.7264 C   0  0  0  0  0  0  0  0  0  0  0  0
    3.8178   -0.3679    0.0270 C   0  0  0  0  0  0  0  0  0  0  0  0
    4.8531   -0.8818   -0.9571 C   0  0  0  0  0  0  0  0  0  0  0  0
    5.0754    0.3183   -2.2405 Cl  0  0  0  0  0  0  0  0  0  0  0  0
   -0.5799   -0.6113   -0.2620 C   0  0  0  0  0  0  0  0  0  0  0  0
   -0.1566   -1.6399   -0.2261 O   0  0  0  0  0  0  0  0  0  0  0  0
   -2.8328   -0.5901   -2.0358 H   0  0  0  0  0  0  0  0  0  0  0  0
   -1.4952    0.5506   -2.1028 H   0  0  0  0  0  0  0  0  0  0  0  0
   -2.9722    1.1438   -1.3372 H   0  0  0  0  0  0  0  0  0  0  0  0
   -2.2855   -2.1465   -0.8613 H   0  0  0  0  0  0  0  0  0  0  0  0
   -1.9256   -2.1173    0.9367 H   0  0  0  0  0  0  0  0  0  0  0  0
   -3.8084   -1.0172    1.0763 H   0  0  0  0  0  0  0  0  0  0  0  0
   -4.0132   -0.3383   -0.4384 H   0  0  0  0  0  0  0  0  0  0  0  0
   -3.3722    1.8332    2.4754 H   0  0  0  0  0  0  0  0  0  0  0  0
   -1.3443    3.3797    2.7325 H   0  0  0  0  0  0  0  0  0  0  0  0
    0.4643    2.6114    1.0891 H   0  0  0  0  0  0  0  0  0  0  0  0
    0.1892    1.1728   -1.3268 H   0  0  0  0  0  0  0  0  0  0  0  0
    1.8710    1.3075    0.6392 H   0  0  0  0  0  0  0  0  0  0  0  0
    1.3701   -0.3245    1.1045 H   0  0  0  0  0  0  0  0  0  0  0  0
    2.6994    0.6388   -1.4765 H   0  0  0  0  0  0  0  0  0  0  0  0
    2.1526   -1.1012   -1.1561 H   0  0  0  0  0  0  0  0  0  0  0  0
    3.6498   -1.0823    0.8535 H   0  0  0  0  0  0  0  0  0  0  0  0
    4.1319    0.6185    0.4411 H   0  0  0  0  0  0  0  0  0  0  0  0
    5.7807   -1.0733   -0.3789 H   0  0  0  0  0  0  0  0  0  0  0  0
    4.4246   -1.8320   -1.3746 H   0  0  0  0  0  0  0  0  0  0  0  0
  2  1  1  6
  2  3  1  0
  3  4  1  0
  4  5  1  0
  5  6  2  0
  6  7  1  0
  7  8  2  0
  8  9  1  0
  9 10  2  0
 10 11  1  0
 11 12  1  0
 12 13  1  0
 13 14  1  0
 14 15  1  0
 15 16  1  0
 11 17  1  0
 17 18  2  0
  6  2  1  0
 17  2  1  0
 10  5  1  0
  1 19  1  0
  1 20  1  0
  1 21  1  0
  3 22  1  0
  3 23  1  0
  4 24  1  0
  4 25  1  0
  7 26  1  0
  8 27  1  0
  9 28  1  0
 11 29  1  0
 12 30  1  0
 12 31  1  0
 13 32  1  0
 13 33  1  0
 14 34  1  0
 14 35  1  0
 15 36  1  0
 15 37  1  0
M  END
$$$$
[H]OC([H])(c1c([H])c([H])c(C#N)c([H])c1N([H])C(=Nc1c([H])c([H])c(OC([H])([H])C([H])([H])C([H])([H])N([H])C(=O)c2c([H])c([H])c([H])c([H])c2[H])c([H])c1[H])c1c([H])c([H])c([H])c([H])c1[H])C([H])([H])[H]
     RDKit          3D

 69 72  0  0  0  0  0  0  0  0999 V2000
   -7.3298    0.8339    1.6789 O   0  0  0  0  0  0  0  0  0  0  0  0
   -7.6754    0.4753    0.4214 C   0  0  0  0  0  0  0  0  0  0  0  0
   -7.9517    1.5386   -0.5742 C   0  0  0  0  0  0  0  0  0  0  0  0
   -7.1887   -0.7861   -0.1098 C   0  0  0  0  0  0  0  0  0  0  0  0
   -8.0173   -1.7235   -0.6758 C   0  0  0  0  0  0  0  0  0  0  0  0
   -7.5833   -2.9721   -1.0580 C   0  0  0  0  0  0  0  0  0  0  0  0
   -6.2767   -3.3342   -0.8822 C   0  0  0  0  0  0  0  0  0  0  0  0
   -5.7781   -4.6399   -1.2625 C   0  0  0  0  0  0  0  0  0  0  0  0
   -5.3962   -5.6809   -1.5836 N   0  0  0  0  0  0  0  0  0  0  0  0
   -5.4109   -2.3968   -0.3086 C   0  0  0  0  0  0  0  0  0  0  0  0
   -5.8411   -1.1426    0.0721 C   0  0  0  0  0  0  0  0  0  0  0  0
   -5.0183   -0.1585    0.5770 N   0  0  0  0  0  0  0  0  0  0  0  0
   -3.5865   -0.1090    0.4129 C   0  0  0  0  0  0  0  0  0  0  0  0
   -2.8025   -1.0721    0.4252 N   0  0  0  0  0  0  0  0  0  0  0  0
   -1.4046   -1.0987    0.2700 C   0  0  0  0  0  0  0  0  0  0  0  0
   -0.8212   -0.4125   -0.7472 C   0  0  0  0  0  0  0  0  0  0  0  0
    0.5587   -0.4051   -0.9200 C   0  0  0  0  0  0  0  0  0  0  0  0
    1.3377   -1.1066   -0.0383 C   0  0  0  0  0  0  0  0  0  0  0  0
    2.7254   -1.0612   -0.2344 O   0  0  0  0  0  0  0  0  0  0  0  0
    3.5147   -1.8228    0.6250 C   0  0  0  0  0  0  0  0  0  0  0  0
    5.0133   -1.5639    0.3856 C   0  0  0  0  0  0  0  0  0  0  0  0
    5.2305   -0.0827    0.7412 C   0  0  0  0  0  0  0  0  0  0  0  0
    6.5857    0.3271    0.5925 N   0  0  0  0  0  0  0  0  0  0  0  0
    7.3030    0.3119   -0.6132 C   0  0  0  0  0  0  0  0  0  0  0  0
    8.7055    0.7795   -0.5609 C   0  0  0  0  0  0  0  0  0  0  0  0
    9.1448    1.7428   -1.4320 C   0  0  0  0  0  0  0  0  0  0  0  0
   10.4594    2.1434   -1.3302 C   0  0  0  0  0  0  0  0  0  0  0  0
   11.2979    1.5914   -0.3823 C   0  0  0  0  0  0  0  0  0  0  0  0
   10.8345    0.6287    0.4776 C   0  0  0  0  0  0  0  0  0  0  0  0
    9.5414    0.2206    0.3921 C   0  0  0  0  0  0  0  0  0  0  0  0
    6.7964   -0.0784   -1.6883 O   0  0  0  0  0  0  0  0  0  0  0  0
    0.7444   -1.7884    0.9641 C   0  0  0  0  0  0  0  0  0  0  0  0
   -0.6135   -1.8277    1.1780 C   0  0  0  0  0  0  0  0  0  0  0  0
   -3.1157    1.2963    0.2310 C   0  0  0  0  0  0  0  0  0  0  0  0
   -3.7107    2.0611   -0.7940 C   0  0  0  0  0  0  0  0  0  0  0  0
   -3.3572    3.3749   -0.9494 C   0  0  0  0  0  0  0  0  0  0  0  0
   -2.4258    3.9631   -0.1155 C   0  0  0  0  0  0  0  0  0  0  0  0
   -1.8512    3.1941    0.8924 C   0  0  0  0  0  0  0  0  0  0  0  0
   -2.2063    1.8422    1.0612 C   0  0  0  0  0  0  0  0  0  0  0  0
   -7.4564    0.0745    2.3346 H   0  0  0  0  0  0  0  0  0  0  0  0
   -8.8397    0.1405    0.6654 H   0  0  0  0  0  0  0  0  0  0  0  0
   -7.5721    2.5555   -0.2435 H   0  0  0  0  0  0  0  0  0  0  0  0
   -7.4444    1.2888   -1.5633 H   0  0  0  0  0  0  0  0  0  0  0  0
   -9.0122    1.6641   -0.8027 H   0  0  0  0  0  0  0  0  0  0  0  0
   -9.0733   -1.4532   -0.8232 H   0  0  0  0  0  0  0  0  0  0  0  0
   -8.2356   -3.7097   -1.4960 H   0  0  0  0  0  0  0  0  0  0  0  0
   -4.4017   -2.7407   -0.1930 H   0  0  0  0  0  0  0  0  0  0  0  0
   -5.3859    0.6400    1.1360 H   0  0  0  0  0  0  0  0  0  0  0  0
   -1.4281    0.1427   -1.4703 H   0  0  0  0  0  0  0  0  0  0  0  0
    0.9624    0.1712   -1.7637 H   0  0  0  0  0  0  0  0  0  0  0  0
    3.3888   -2.9103    0.4006 H   0  0  0  0  0  0  0  0  0  0  0  0
    3.3095   -1.6852    1.6825 H   0  0  0  0  0  0  0  0  0  0  0  0
    5.5956   -2.1856    1.0471 H   0  0  0  0  0  0  0  0  0  0  0  0
    5.2936   -1.7276   -0.6511 H   0  0  0  0  0  0  0  0  0  0  0  0
    4.8916    0.0438    1.7924 H   0  0  0  0  0  0  0  0  0  0  0  0
    4.5866    0.5646    0.0903 H   0  0  0  0  0  0  0  0  0  0  0  0
    7.1060    0.6688    1.4784 H   0  0  0  0  0  0  0  0  0  0  0  0
    8.4934    2.1788   -2.1699 H   0  0  0  0  0  0  0  0  0  0  0  0
   10.7990    2.9260   -2.0291 H   0  0  0  0  0  0  0  0  0  0  0  0
   12.3374    1.9326   -0.3194 H   0  0  0  0  0  0  0  0  0  0  0  0
   11.4776    0.1729    1.2367 H   0  0  0  0  0  0  0  0  0  0  0  0
    9.1374   -0.5248    1.0422 H   0  0  0  0  0  0  0  0  0  0  0  0
    1.3977   -2.3529    1.6489 H   0  0  0  0  0  0  0  0  0  0  0  0
   -1.1072   -2.3626    1.9692 H   0  0  0  0  0  0  0  0  0  0  0  0
   -4.4328    1.5554   -1.4012 H   0  0  0  0  0  0  0  0  0  0  0  0
   -3.8148    3.9576   -1.7242 H   0  0  0  0  0  0  0  0  0  0  0  0
   -2.1330    4.9952   -0.2292 H   0  0  0  0  0  0  0  0  0  0  0  0
   -1.1324    3.6267    1.5478 H   0  0  0  0  0  0  0  0  0  0  0  0
   -1.7375    1.2918    1.8525 H   0  0  0  0  0  0  0  0  0  0  0  0
  1  2  1  0
  2  3  1  0
  2  4  1  0
  4  5  2  0
  5  6  1  0
  6  7  2  0
  7  8  1  0
  8  9  3  0
  7 10  1  0
 10 11  2  0
 11 12  1  0
 12 13  1  0
 13 14  2  3
 14 15  1  0
 15 16  2  0
 16 17  1  0
 17 18  2  0
 18 19  1  0
 19 20  1  0
 20 21  1  0
 21 22  1  0
 22 23  1  0
 23 24  1  0
 24 25  1  0
 25 26  2  0
 26 27  1  0
 27 28  2  0
 28 29  1  0
 29 30  2  0
 24 31  2  0
 18 32  1  0
 32 33  2  0
 13 34  1  0
 34 35  2  0
 35 36  1  0
 36 37  2  0
 37 38  1  0
 38 39  2  0
 11  4  1  0
 33 15  1  0
 39 34  1  0
 30 25  1  0
  1 40  1  0
  2 41  1  0
  3 42  1  0
  3 43  1  0
  3 44  1  0
  5 45  1  0
  6 46  1  0
 10 47  1  0
 12 48  1  0
 16 49  1  0
 17 50  1  0
 20 51  1  0
 20 52  1  0
 21 53  1  0
 21 54  1  0
 22 55  1  0
 22 56  1  0
 23 57  1  0
 26 58  1  0
 27 59  1  0
 28 60  1  0
 29 61  1  0
 30 62  1  0
 32 63  1  0
 33 64  1  0
 35 65  1  0
 36 66  1  0
 37 67  1  0
 38 68  1  0
 39 69  1  0
M  END
$$$$
[H]c1c([H])c([H])c(C(=O)N([H])[C@]([H])(C(=O)N([H])[C@@]([H])(c2c([H])c([H])c(Cl)c([H])c2[H])C([H])([H])[H])c2c([H])c([H])c(Cl)c([H])c2[H])c([H])c1[H]
     RDKit          3D

 49 51  0  0  0  0  0  0  0  0999 V2000
   -3.3905    0.7771    1.9636 C   0  0  0  0  0  0  0  0  0  0  0  0
   -2.8775    0.6540    0.5400 C   0  0  1  0  0  0  0  0  0  0  0  0
   -1.6879   -0.1577    0.6032 N   0  0  0  0  0  0  0  0  0  0  0  0
   -0.4517    0.4085    0.2193 C   0  0  0  0  0  0  0  0  0  0  0  0
   -0.3928    1.6034   -0.1713 O   0  0  0  0  0  0  0  0  0  0  0  0
    0.8313   -0.3372    0.2457 C   0  0  1  0  0  0  0  0  0  0  0  0
    1.9443    0.4583   -0.1924 N   0  0  0  0  0  0  0  0  0  0  0  0
    2.6841    0.1563   -1.3617 C   0  0  0  0  0  0  0  0  0  0  0  0
    2.3260   -0.8598   -2.0246 O   0  0  0  0  0  0  0  0  0  0  0  0
    3.8154    0.9144   -1.8596 C   0  0  0  0  0  0  0  0  0  0  0  0
    4.4758    0.5738   -3.0200 C   0  0  0  0  0  0  0  0  0  0  0  0
    5.5542    1.2976   -3.4922 C   0  0  0  0  0  0  0  0  0  0  0  0
    5.9994    2.4049   -2.7889 C   0  0  0  0  0  0  0  0  0  0  0  0
    5.3584    2.7653   -1.6296 C   0  0  0  0  0  0  0  0  0  0  0  0
    4.2708    2.0161   -1.1746 C   0  0  0  0  0  0  0  0  0  0  0  0
    1.0055   -0.9236    1.5837 C   0  0  0  0  0  0  0  0  0  0  0  0
    0.6821   -2.2425    1.8239 C   0  0  0  0  0  0  0  0  0  0  0  0
    0.8159   -2.8590    3.0411 C   0  0  0  0  0  0  0  0  0  0  0  0
    1.3050   -2.1234    4.1039 C   0  0  0  0  0  0  0  0  0  0  0  0
    1.4614   -2.9469    5.6430 Cl  0  0  0  0  0  0  0  0  0  0  0  0
    1.6384   -0.8124    3.9111 C   0  0  0  0  0  0  0  0  0  0  0  0
    1.4938   -0.2059    2.6638 C   0  0  0  0  0  0  0  0  0  0  0  0
   -3.9160    0.0775   -0.3405 C   0  0  0  0  0  0  0  0  0  0  0  0
   -4.6329    0.8075   -1.2606 C   0  0  0  0  0  0  0  0  0  0  0  0
   -5.6006    0.2307   -2.0715 C   0  0  0  0  0  0  0  0  0  0  0  0
   -5.8497   -1.1096   -1.9513 C   0  0  0  0  0  0  0  0  0  0  0  0
   -7.0878   -1.8163   -2.9978 Cl  0  0  0  0  0  0  0  0  0  0  0  0
   -5.1546   -1.8760   -1.0430 C   0  0  0  0  0  0  0  0  0  0  0  0
   -4.1855   -1.2672   -0.2396 C   0  0  0  0  0  0  0  0  0  0  0  0
   -4.4719    0.9497    1.9036 H   0  0  0  0  0  0  0  0  0  0  0  0
   -3.2258   -0.2028    2.4414 H   0  0  0  0  0  0  0  0  0  0  0  0
   -2.8981    1.6154    2.4693 H   0  0  0  0  0  0  0  0  0  0  0  0
   -2.6085    1.6610    0.1766 H   0  0  0  0  0  0  0  0  0  0  0  0
   -1.7594   -1.1662    0.9366 H   0  0  0  0  0  0  0  0  0  0  0  0
    0.7108   -1.1737   -0.4895 H   0  0  0  0  0  0  0  0  0  0  0  0
    2.2444    1.3054    0.3576 H   0  0  0  0  0  0  0  0  0  0  0  0
    4.1674   -0.2856   -3.6098 H   0  0  0  0  0  0  0  0  0  0  0  0
    6.0639    1.0299   -4.3932 H   0  0  0  0  0  0  0  0  0  0  0  0
    6.8460    2.9605   -3.1738 H   0  0  0  0  0  0  0  0  0  0  0  0
    5.7075    3.6316   -1.0799 H   0  0  0  0  0  0  0  0  0  0  0  0
    3.8334    2.3683   -0.2653 H   0  0  0  0  0  0  0  0  0  0  0  0
    0.2967   -2.8066    0.9685 H   0  0  0  0  0  0  0  0  0  0  0  0
    0.5419   -3.9003    3.1587 H   0  0  0  0  0  0  0  0  0  0  0  0
    2.0200   -0.2604    4.7646 H   0  0  0  0  0  0  0  0  0  0  0  0
    1.7564    0.8265    2.5119 H   0  0  0  0  0  0  0  0  0  0  0  0
   -4.4517    1.8565   -1.3684 H   0  0  0  0  0  0  0  0  0  0  0  0
   -6.1681    0.8170   -2.8024 H   0  0  0  0  0  0  0  0  0  0  0  0
   -5.3772   -2.9276   -0.9760 H   0  0  0  0  0  0  0  0  0  0  0  0
   -3.6616   -1.9064    0.4621 H   0  0  0  0  0  0  0  0  0  0  0  0
  1  2  1  0
  2  3  1  0
  3  4  1  0
  4  5  2  0
  4  6  1  0
  6  7  1  0
  7  8  1  0
  8  9  2  0
  8 10  1  0
 10 11  2  0
 11 12  1  0
 12 13  2  0
 13 14  1  0
 14 15  2  0
  6 16  1  0
 16 17  2  0
 17 18  1  0
 18 19  2  0
 19 20  1  0
 19 21  1  0
 21 22  2  0
  2 23  1  0
 23 24  2  0
 24 25  1  0
 25 26  2  0
 26 27  1  0
 26 28  1  0
 28 29  2  0
 15 10  1  0
 22 16  1  0
 29 23  1  0
  1 30  1  0
  1 31  1  0
  1 32  1  0
  2 33  1  6
  3 34  1  0
  6 35  1  6
  7 36  1  0
 11 37  1  0
 12 38  1  0
 13 39  1  0
 14 40  1  0
 15 41  1  0
 17 42  1  0
 18 43  1  0
 21 44  1  0
 22 45  1  0
 24 46  1  0
 25 47  1  0
 28 48  1  0
 29 49  1  0
M  END
$$$$
[H]c1c([H])c(N([H])C(=O)c2c([H])c([H])c(OC([H])([H])[H])c(OC3([H])C([H])([H])C([H])([H])C([H])([H])C3([H])[H])c2[H])c([H])c(S(=O)(=O)C(F)(F)F)c1Cl
     RDKit          3D

 50 52  0  0  0  0  0  0  0  0999 V2000
   -3.6508    1.0077   -3.2684 C   0  0  0  0  0  0  0  0  0  0  0  0
   -3.6938    0.5895   -1.9277 O   0  0  0  0  0  0  0  0  0  0  0  0
   -2.5180    0.4734   -1.2032 C   0  0  0  0  0  0  0  0  0  0  0  0
   -1.3076    0.7796   -1.8351 C   0  0  0  0  0  0  0  0  0  0  0  0
   -0.0838    0.6947   -1.1973 C   0  0  0  0  0  0  0  0  0  0  0  0
   -0.0246    0.2946    0.1140 C   0  0  0  0  0  0  0  0  0  0  0  0
   -1.2057   -0.0039    0.7302 C   0  0  0  0  0  0  0  0  0  0  0  0
   -2.4647    0.0740    0.1050 C   0  0  0  0  0  0  0  0  0  0  0  0
   -3.5605   -0.2469    0.8188 O   0  0  0  0  0  0  0  0  0  0  0  0
   -4.8828   -0.2947    0.5821 C   0  0  0  0  0  0  0  0  0  0  0  0
   -5.6667    0.5475    1.6010 C   0  0  0  0  0  0  0  0  0  0  0  0
   -7.0528   -0.0378    1.5129 C   0  0  0  0  0  0  0  0  0  0  0  0
   -6.8927   -1.4449    0.9581 C   0  0  0  0  0  0  0  0  0  0  0  0
   -5.3956   -1.6898    1.0091 C   0  0  0  0  0  0  0  0  0  0  0  0
    1.2668    0.1757    0.8455 C   0  0  0  0  0  0  0  0  0  0  0  0
    1.1659    0.1376    2.0918 O   0  0  0  0  0  0  0  0  0  0  0  0
    2.4860    0.1113    0.1910 N   0  0  0  0  0  0  0  0  0  0  0  0
    3.7951    0.0037    0.6939 C   0  0  0  0  0  0  0  0  0  0  0  0
    4.0805    0.1267    2.0313 C   0  0  0  0  0  0  0  0  0  0  0  0
    5.4033   -0.0077    2.4494 C   0  0  0  0  0  0  0  0  0  0  0  0
    6.4200   -0.2615    1.5328 C   0  0  0  0  0  0  0  0  0  0  0  0
    8.0694   -0.4776    2.1090 Cl  0  0  0  0  0  0  0  0  0  0  0  0
    6.1724   -0.3881    0.1938 C   0  0  0  0  0  0  0  0  0  0  0  0
    4.8508   -0.2517   -0.1990 C   0  0  0  0  0  0  0  0  0  0  0  0
    7.3936   -0.6546   -1.0227 S   0  0  0  0  0  0  0  0  0  0  0  0
    6.7636   -1.0101   -2.3516 O   0  0  0  0  0  0  0  0  0  0  0  0
    8.2535   -1.8595   -0.6603 O   0  0  0  0  0  0  0  0  0  0  0  0
    8.4769    0.6884   -1.2919 C   0  0  0  0  0  0  0  0  0  0  0  0
    7.7689    1.8270   -1.6851 F   0  0  0  0  0  0  0  0  0  0  0  0
    9.2968    0.8958   -0.2377 F   0  0  0  0  0  0  0  0  0  0  0  0
    9.3073    0.4325   -2.4114 F   0  0  0  0  0  0  0  0  0  0  0  0
   -4.6373    1.0948   -3.7301 H   0  0  0  0  0  0  0  0  0  0  0  0
   -3.0308    0.2962   -3.8803 H   0  0  0  0  0  0  0  0  0  0  0  0
   -3.1511    2.0006   -3.3980 H   0  0  0  0  0  0  0  0  0  0  0  0
   -1.3591    1.0986   -2.8824 H   0  0  0  0  0  0  0  0  0  0  0  0
    0.8320    0.9505   -1.7382 H   0  0  0  0  0  0  0  0  0  0  0  0
   -1.1563   -0.3219    1.7740 H   0  0  0  0  0  0  0  0  0  0  0  0
   -5.2923   -0.0309   -0.3909 H   0  0  0  0  0  0  0  0  0  0  0  0
   -5.6229    1.6203    1.3586 H   0  0  0  0  0  0  0  0  0  0  0  0
   -5.2086    0.3149    2.5870 H   0  0  0  0  0  0  0  0  0  0  0  0
   -7.5332   -0.1591    2.5112 H   0  0  0  0  0  0  0  0  0  0  0  0
   -7.6680    0.6012    0.8505 H   0  0  0  0  0  0  0  0  0  0  0  0
   -7.4732   -2.1921    1.5011 H   0  0  0  0  0  0  0  0  0  0  0  0
   -7.1723   -1.4288   -0.1317 H   0  0  0  0  0  0  0  0  0  0  0  0
   -5.0790   -1.8141    2.0596 H   0  0  0  0  0  0  0  0  0  0  0  0
   -5.0573   -2.4681    0.3276 H   0  0  0  0  0  0  0  0  0  0  0  0
    2.4204    0.1481   -0.8846 H   0  0  0  0  0  0  0  0  0  0  0  0
    3.3249    0.3292    2.7690 H   0  0  0  0  0  0  0  0  0  0  0  0
    5.6513    0.0833    3.4830 H   0  0  0  0  0  0  0  0  0  0  0  0
    4.6423   -0.3533   -1.2699 H   0  0  0  0  0  0  0  0  0  0  0  0
  1  2  1  0
  2  3  1  0
  3  4  2  0
  4  5  1  0
  5  6  2  0
  6  7  1  0
  7  8  2  0
  8  9  1  0
  9 10  1  0
 10 11  1  0
 11 12  1  0
 12 13  1  0
 13 14  1  0
  6 15  1  0
 15 16  2  0
 15 17  1  0
 17 18  1  0
 18 19  2  0
 19 20  1  0
 20 21  2  0
 21 22  1  0
 21 23  1  0
 23 24  2  0
 23 25  1  0
 25 26  2  0
 25 27  2  0
 25 28  1  0
 28 29  1  0
 28 30  1  0
 28 31  1  0
  8  3  1  0
 14 10  1  0
 24 18  1  0
  1 32  1  0
  1 33  1  0
  1 34  1  0
  4 35  1  0
  5 36  1  0
  7 37  1  0
 10 38  1  0
 11 39  1  0
 11 40  1  0
 12 41  1  0
 12 42  1  0
 13 43  1  0
 13 44  1  0
 14 45  1  0
 14 46  1  0
 17 47  1  0
 19 48  1  0
 20 49  1  0
 24 50  1  0
M  END
$$$$
[H]c1nc(N([H])c2c([H])c([H])c(N3C([H])([H])C([H])([H])C([H])(N4C([H])([H])C([H])([H])N(C([H])([H])[H])C([H])([H])C4([H])[H])C([H])([H])C3([H])[H])c([H])c2OC([H])([H])[H])nc(N([H])c2c([H])c([H])c([H])c([H])c2S(=O)(=O)C([H])(C([H])([H])[H])C([H])([H])[H])c1Cl
     RDKit          3D

 82 86  0  0  0  0  0  0  0  0999 V2000
   -0.1870    3.7228   -1.2569 C   0  0  0  0  0  0  0  0  0  0  0  0
    0.4390    2.5297   -0.8437 O   0  0  0  0  0  0  0  0  0  0  0  0
   -0.3483    1.4775   -0.4024 C   0  0  0  0  0  0  0  0  0  0  0  0
   -1.7220    1.6350   -0.3827 C   0  0  0  0  0  0  0  0  0  0  0  0
   -2.5624    0.6308    0.0436 C   0  0  0  0  0  0  0  0  0  0  0  0
   -1.9599   -0.5357    0.4478 C   0  0  0  0  0  0  0  0  0  0  0  0
   -0.5748   -0.7280    0.4408 C   0  0  0  0  0  0  0  0  0  0  0  0
    0.2576    0.2764    0.0150 C   0  0  0  0  0  0  0  0  0  0  0  0
    1.6540    0.2011   -0.0367 N   0  0  0  0  0  0  0  0  0  0  0  0
    2.4984   -0.8842    0.3177 C   0  0  0  0  0  0  0  0  0  0  0  0
    2.1033   -2.0726    0.7812 N   0  0  0  0  0  0  0  0  0  0  0  0
    2.9559   -3.0558    1.0957 C   0  0  0  0  0  0  0  0  0  0  0  0
    4.3092   -2.8632    0.9451 C   0  0  0  0  0  0  0  0  0  0  0  0
    5.4455   -4.1449    1.3534 Cl  0  0  0  0  0  0  0  0  0  0  0  0
    4.7527   -1.6166    0.4572 C   0  0  0  0  0  0  0  0  0  0  0  0
    6.1380   -1.4466    0.3110 N   0  0  0  0  0  0  0  0  0  0  0  0
    6.9009   -0.3576   -0.1368 C   0  0  0  0  0  0  0  0  0  0  0  0
    6.2766    0.8084   -0.5266 C   0  0  0  0  0  0  0  0  0  0  0  0
    7.0240    1.9039   -0.9778 C   0  0  0  0  0  0  0  0  0  0  0  0
    8.3820    1.8034   -1.0274 C   0  0  0  0  0  0  0  0  0  0  0  0
    9.0024    0.6381   -0.6374 C   0  0  0  0  0  0  0  0  0  0  0  0
    8.2961   -0.4485   -0.1920 C   0  0  0  0  0  0  0  0  0  0  0  0
    9.0842   -1.8926    0.2913 S   0  0  0  0  0  0  0  0  0  0  0  0
    8.6633   -3.0312   -0.6035 O   0  0  0  0  0  0  0  0  0  0  0  0
    8.8235   -2.3045    1.7132 O   0  0  0  0  0  0  0  0  0  0  0  0
   10.8572   -1.7881    0.1370 C   0  0  0  0  0  0  0  0  0  0  0  0
   11.2609   -1.6791   -1.2975 C   0  0  0  0  0  0  0  0  0  0  0  0
   11.4760   -0.7869    1.0544 C   0  0  0  0  0  0  0  0  0  0  0  0
    3.8248   -0.7008    0.1721 N   0  0  0  0  0  0  0  0  0  0  0  0
   -3.9818    0.8060    0.0512 N   0  0  0  0  0  0  0  0  0  0  0  0
   -4.5241    1.9609   -0.5784 C   0  0  0  0  0  0  0  0  0  0  0  0
   -6.0011    1.9283   -0.8544 C   0  0  0  0  0  0  0  0  0  0  0  0
   -6.8245    1.3726    0.2584 C   0  0  0  0  0  0  0  0  0  0  0  0
   -6.0036    0.6088    1.2781 C   0  0  0  0  0  0  0  0  0  0  0  0
   -4.8657   -0.1463    0.6796 C   0  0  0  0  0  0  0  0  0  0  0  0
   -7.9560    0.6086   -0.0875 N   0  0  0  0  0  0  0  0  0  0  0  0
   -7.7905   -0.5856   -0.8057 C   0  0  0  0  0  0  0  0  0  0  0  0
   -9.1362   -1.0235   -1.3907 C   0  0  0  0  0  0  0  0  0  0  0  0
  -10.1390   -0.8718   -0.3544 N   0  0  0  0  0  0  0  0  0  0  0  0
  -10.0361   -1.8235    0.7053 C   0  0  0  0  0  0  0  0  0  0  0  0
  -10.3349    0.4834    0.0484 C   0  0  0  0  0  0  0  0  0  0  0  0
   -9.1475    1.3193   -0.4248 C   0  0  0  0  0  0  0  0  0  0  0  0
    0.5375    4.4499   -1.6799 H   0  0  0  0  0  0  0  0  0  0  0  0
   -0.9481    3.5330   -2.0530 H   0  0  0  0  0  0  0  0  0  0  0  0
   -0.6880    4.2523   -0.4156 H   0  0  0  0  0  0  0  0  0  0  0  0
   -2.1476    2.5764   -0.7105 H   0  0  0  0  0  0  0  0  0  0  0  0
   -2.6020   -1.3517    0.7883 H   0  0  0  0  0  0  0  0  0  0  0  0
   -0.2121   -1.6859    0.7807 H   0  0  0  0  0  0  0  0  0  0  0  0
    2.1500    1.0935   -0.3956 H   0  0  0  0  0  0  0  0  0  0  0  0
    2.6174   -4.0222    1.4737 H   0  0  0  0  0  0  0  0  0  0  0  0
    6.7215   -2.3022    0.5911 H   0  0  0  0  0  0  0  0  0  0  0  0
    5.2202    0.9989   -0.5296 H   0  0  0  0  0  0  0  0  0  0  0  0
    6.5603    2.8305   -1.2896 H   0  0  0  0  0  0  0  0  0  0  0  0
    9.0220    2.6252   -1.3712 H   0  0  0  0  0  0  0  0  0  0  0  0
   10.0936    0.6299   -0.7052 H   0  0  0  0  0  0  0  0  0  0  0  0
   11.2252   -2.8031    0.4806 H   0  0  0  0  0  0  0  0  0  0  0  0
   11.9033   -0.7785   -1.4926 H   0  0  0  0  0  0  0  0  0  0  0  0
   10.3307   -1.5514   -1.9199 H   0  0  0  0  0  0  0  0  0  0  0  0
   11.7765   -2.5763   -1.6995 H   0  0  0  0  0  0  0  0  0  0  0  0
   12.0225   -1.2557    1.8769 H   0  0  0  0  0  0  0  0  0  0  0  0
   12.1781   -0.1622    0.4319 H   0  0  0  0  0  0  0  0  0  0  0  0
   10.7434   -0.0899    1.5079 H   0  0  0  0  0  0  0  0  0  0  0  0
   -4.2803    2.8410    0.0525 H   0  0  0  0  0  0  0  0  0  0  0  0
   -3.9354    2.1199   -1.5269 H   0  0  0  0  0  0  0  0  0  0  0  0
   -6.3084    2.9635   -1.1164 H   0  0  0  0  0  0  0  0  0  0  0  0
   -6.1470    1.3325   -1.7818 H   0  0  0  0  0  0  0  0  0  0  0  0
   -7.2139    2.2642    0.8421 H   0  0  0  0  0  0  0  0  0  0  0  0
   -6.6586   -0.1075    1.8153 H   0  0  0  0  0  0  0  0  0  0  0  0
   -5.5929    1.2907    2.0626 H   0  0  0  0  0  0  0  0  0  0  0  0
   -5.1731   -0.8869   -0.0780 H   0  0  0  0  0  0  0  0  0  0  0  0
   -4.3121   -0.6097    1.5260 H   0  0  0  0  0  0  0  0  0  0  0  0
   -7.5080   -1.4012   -0.0997 H   0  0  0  0  0  0  0  0  0  0  0  0
   -7.0082   -0.5774   -1.5870 H   0  0  0  0  0  0  0  0  0  0  0  0
   -9.4445   -0.3742   -2.2343 H   0  0  0  0  0  0  0  0  0  0  0  0
   -9.0261   -2.0597   -1.7202 H   0  0  0  0  0  0  0  0  0  0  0  0
   -9.1822   -2.5377    0.5321 H   0  0  0  0  0  0  0  0  0  0  0  0
   -9.9814   -1.3564    1.7041 H   0  0  0  0  0  0  0  0  0  0  0  0
  -10.9456   -2.4645    0.6802 H   0  0  0  0  0  0  0  0  0  0  0  0
  -11.2261    0.8855   -0.4545 H   0  0  0  0  0  0  0  0  0  0  0  0
  -10.4517    0.5517    1.1515 H   0  0  0  0  0  0  0  0  0  0  0  0
   -9.2778    1.5186   -1.4917 H   0  0  0  0  0  0  0  0  0  0  0  0
   -9.1611    2.2698    0.1783 H   0  0  0  0  0  0  0  0  0  0  0  0
  1  2  1  0
  2  3  1  0
  3  4  2  0
  4  5  1  0
  5  6  2  0
  6  7  1  0
  7  8  2  0
  8  9  1  0
  9 10  1  0
 10 11  2  0
 11 12  1  0
 12 13  2  0
 13 14  1  0
 13 15  1  0
 15 16  1  0
 16 17  1  0
 17 18  2  0
 18 19  1  0
 19 20  2  0
 20 21  1  0
 21 22  2  0
 22 23  1  0
 23 24  2  0
 23 25  2  0
 23 26  1  0
 26 27  1  0
 26 28  1  0
 15 29  2  0
  5 30  1  0
 30 31  1  0
 31 32  1  0
 32 33  1  0
 33 34  1  0
 34 35  1  0
 33 36  1  0
 36 37  1  0
 37 38  1  0
 38 39  1  0
 39 40  1  0
 39 41  1  0
 41 42  1  0
  8  3  1  0
 29 10  1  0
 35 30  1  0
 42 36  1  0
 22 17  1  0
  1 43  1  0
  1 44  1  0
  1 45  1  0
  4 46  1  0
  6 47  1  0
  7 48  1  0
  9 49  1  0
 12 50  1  0
 16 51  1  0
 18 52  1  0
 19 53  1  0
 20 54  1  0
 21 55  1  0
 26 56  1  0
 27 57  1  0
 27 58  1  0
 27 59  1  0
 28 60  1  0
 28 61  1  0
 28 62  1  0
 31 63  1  0
 31 64  1  0
 32 65  1  0
 32 66  1  0
 33 67  1  0
 34 68  1  0
 34 69  1  0
 35 70  1  0
 35 71  1  0
 37 72  1  0
 37 73  1  0
 38 74  1  0
 38 75  1  0
 40 76  1  0
 40 77  1  0
 40 78  1  0
 41 79  1  0
 41 80  1  0
 42 81  1  0
 42 82  1  0
M  END
$$$$
[H]C1=C2C([H])([H])C([H])([H])[C@@]3([H])[C@]4([H])C([H])([H])C([H])([H])C(=O)[C@@]4(C([H])([H])[H])C([H])([H])C([H])([H])[C@]3([H])[C@@]2(C([H])([H])[H])C([H])([H])C([H])([H])C1=O
     RDKit          3D

 47 50  0  0  0  0  0  0  0  0999 V2000
    2.6396    1.2197    0.9531 C   0  0  0  0  0  0  0  0  0  0  0  0
    2.3973    0.7670   -0.4636 C   0  0  2  0  0  0  0  0  0  0  0  0
    1.5004    1.7083   -1.1903 C   0  0  0  0  0  0  0  0  0  0  0  0
    0.0585    1.4268   -1.1366 C   0  0  0  0  0  0  0  0  0  0  0  0
   -0.4200    0.1692   -0.5425 C   0  0  1  0  0  0  0  0  0  0  0  0
    0.5806   -0.5825    0.3126 C   0  0  1  0  0  0  0  0  0  0  0  0
    0.1337   -1.9966    0.5570 C   0  0  0  0  0  0  0  0  0  0  0  0
   -1.2806   -2.1434    0.9939 C   0  0  0  0  0  0  0  0  0  0  0  0
   -2.1914   -1.0906    0.4737 C   0  0  0  0  0  0  0  0  0  0  0  0
   -3.4545   -1.4865    0.2593 C   0  0  0  0  0  0  0  0  0  0  0  0
   -4.4611   -0.5844   -0.2442 C   0  0  0  0  0  0  0  0  0  0  0  0
   -5.5573   -0.9581   -0.6885 O   0  0  0  0  0  0  0  0  0  0  0  0
   -4.1546    0.8633   -0.2228 C   0  0  0  0  0  0  0  0  0  0  0  0
   -2.7156    1.0067   -0.6775 C   0  0  0  0  0  0  0  0  0  0  0  0
   -1.7394    0.2983    0.2106 C   0  0  2  0  0  0  0  0  0  0  0  0
   -1.5800    1.0895    1.4819 C   0  0  0  0  0  0  0  0  0  0  0  0
    1.8180   -0.6297   -0.5366 C   0  0  2  0  0  0  0  0  0  0  0  0
    2.9282   -1.4611   -0.0121 C   0  0  0  0  0  0  0  0  0  0  0  0
    4.1567   -0.7973   -0.6492 C   0  0  0  0  0  0  0  0  0  0  0  0
    3.7018    0.5344   -1.1052 C   0  0  0  0  0  0  0  0  0  0  0  0
    4.2746    1.2859   -1.8507 O   0  0  0  0  0  0  0  0  0  0  0  0
    1.7712    1.8477    1.2604 H   0  0  0  0  0  0  0  0  0  0  0  0
    2.7266    0.4035    1.6756 H   0  0  0  0  0  0  0  0  0  0  0  0
    3.5214    1.8914    0.9729 H   0  0  0  0  0  0  0  0  0  0  0  0
    1.8789    1.7499   -2.2564 H   0  0  0  0  0  0  0  0  0  0  0  0
    1.7402    2.7420   -0.8001 H   0  0  0  0  0  0  0  0  0  0  0  0
   -0.4404    2.2735   -0.5752 H   0  0  0  0  0  0  0  0  0  0  0  0
   -0.3602    1.5492   -2.1819 H   0  0  0  0  0  0  0  0  0  0  0  0
   -0.6589   -0.5442   -1.3888 H   0  0  0  0  0  0  0  0  0  0  0  0
    0.7781   -0.0594    1.2582 H   0  0  0  0  0  0  0  0  0  0  0  0
    0.7903   -2.4104    1.3648 H   0  0  0  0  0  0  0  0  0  0  0  0
    0.3907   -2.5922   -0.3519 H   0  0  0  0  0  0  0  0  0  0  0  0
   -1.3979   -2.1615    2.1070 H   0  0  0  0  0  0  0  0  0  0  0  0
   -1.6216   -3.1660    0.6591 H   0  0  0  0  0  0  0  0  0  0  0  0
   -3.7681   -2.5167    0.4605 H   0  0  0  0  0  0  0  0  0  0  0  0
   -4.7752    1.4295   -0.9440 H   0  0  0  0  0  0  0  0  0  0  0  0
   -4.3247    1.3148    0.7715 H   0  0  0  0  0  0  0  0  0  0  0  0
   -2.6491    0.5341   -1.6834 H   0  0  0  0  0  0  0  0  0  0  0  0
   -2.5320    2.0823   -0.7620 H   0  0  0  0  0  0  0  0  0  0  0  0
   -0.5943    1.5687    1.5658 H   0  0  0  0  0  0  0  0  0  0  0  0
   -1.7887    0.4451    2.3660 H   0  0  0  0  0  0  0  0  0  0  0  0
   -2.3447    1.9188    1.5386 H   0  0  0  0  0  0  0  0  0  0  0  0
    1.6351   -0.8716   -1.5820 H   0  0  0  0  0  0  0  0  0  0  0  0
    2.8557   -2.4806   -0.4224 H   0  0  0  0  0  0  0  0  0  0  0  0
    3.0100   -1.5258    1.0686 H   0  0  0  0  0  0  0  0  0  0  0  0
    4.9358   -0.6443    0.1243 H   0  0  0  0  0  0  0  0  0  0  0  0
    4.5869   -1.4168   -1.4417 H   0  0  0  0  0  0  0  0  0  0  0  0
  2  1  1  1
  2  3  1  0
  3  4  1  0
  4  5  1  0
  5  6  1  0
  6  7  1  0
  7  8  1  0
  8  9  1  0
  9 10  2  0
 10 11  1  0
 11 12  2  0
 11 13  1  0
 13 14  1  0
 14 15  1  0
 15 16  1  1
  6 17  1  0
 17 18  1  0
 18 19  1  0
 19 20  1  0
 20 21  2  0
 17  2  1  0
 20  2  1  0
 15  5  1  0
 15  9  1  0
  1 22  1  0
  1 23  1  0
  1 24  1  0
  3 25  1  0
  3 26  1  0
  4 27  1  0
  4 28  1  0
  5 29  1  6
  6 30  1  1
  7 31  1  0
  7 32  1  0
  8 33  1  0
  8 34  1  0
 10 35  1  0
 13 36  1  0
 13 37  1  0
 14 38  1  0
 14 39  1  0
 16 40  1  0
 16 41  1  0
 16 42  1  0
 17 43  1  6
 18 44  1  0
 18 45  1  0
 19 46  1  0
 19 47  1  0
M  END
$$$$
[H]c1c([H])c(C(=O)N2C([H])([H])C([H])([H])N([C@@]3([H])C([H])([H])[C@@]([H])(N([H])C(=O)c4c([H])c([H])c([H])c(C(F)(F)F)c4[H])C([H])([H])[C@@]3([H])C([H])([H])[H])C([H])([H])C2([H])[H])c([H])c(C(F)(F)F)c1[H]
     RDKit          3D

 64 67  0  0  0  0  0  0  0  0999 V2000
    8.6156   -1.4966   -1.7278 F   0  0  0  0  0  0  0  0  0  0  0  0
    8.7828   -0.7848   -0.5776 C   0  0  0  0  0  0  0  0  0  0  0  0
   10.0680   -0.4437   -0.2524 F   0  0  0  0  0  0  0  0  0  0  0  0
    8.3519   -1.6415    0.4511 F   0  0  0  0  0  0  0  0  0  0  0  0
    7.9027    0.4146   -0.4645 C   0  0  0  0  0  0  0  0  0  0  0  0
    8.3951    1.7095   -0.4236 C   0  0  0  0  0  0  0  0  0  0  0  0
    7.4854    2.7094   -0.1841 C   0  0  0  0  0  0  0  0  0  0  0  0
    6.1389    2.4929    0.0192 C   0  0  0  0  0  0  0  0  0  0  0  0
    5.6376    1.2309   -0.0113 C   0  0  0  0  0  0  0  0  0  0  0  0
    6.5739    0.1898   -0.2683 C   0  0  0  0  0  0  0  0  0  0  0  0
    4.3870    0.7486    0.5553 C   0  0  0  0  0  0  0  0  0  0  0  0
    3.9664    1.4116    1.5716 O   0  0  0  0  0  0  0  0  0  0  0  0
    3.6242   -0.3548    0.1415 N   0  0  0  0  0  0  0  0  0  0  0  0
    2.7306   -0.9748    1.1627 C   0  0  0  0  0  0  0  0  0  0  0  0
    1.3038   -0.6942    0.8797 C   0  0  0  0  0  0  0  0  0  0  0  0
    1.0745   -0.9302   -0.4997 N   0  0  0  0  0  0  0  0  0  0  0  0
    2.0490   -1.4771   -1.3035 C   0  0  0  0  0  0  0  0  0  0  0  0
    3.4343   -0.8379   -1.1830 C   0  0  0  0  0  0  0  0  0  0  0  0
   -0.2435   -0.6700   -0.9025 C   0  0  1  0  0  0  0  0  0  0  0  0
   -1.2692   -1.4101    0.0172 C   0  0  0  0  0  0  0  0  0  0  0  0
   -2.5059   -0.8683   -0.4392 C   0  0  1  0  0  0  0  0  0  0  0  0
   -3.6972   -0.7380    0.4196 N   0  0  0  0  0  0  0  0  0  0  0  0
   -4.9224   -0.7985   -0.2961 C   0  0  0  0  0  0  0  0  0  0  0  0
   -4.9837   -1.0908   -1.5303 O   0  0  0  0  0  0  0  0  0  0  0  0
   -6.1799   -0.4784    0.3393 C   0  0  0  0  0  0  0  0  0  0  0  0
   -6.0915    0.6889    1.1514 C   0  0  0  0  0  0  0  0  0  0  0  0
   -7.1908    1.2930    1.6652 C   0  0  0  0  0  0  0  0  0  0  0  0
   -8.4256    0.7366    1.3782 C   0  0  0  0  0  0  0  0  0  0  0  0
   -8.5704   -0.4134    0.5928 C   0  0  0  0  0  0  0  0  0  0  0  0
   -7.4017   -0.9829    0.0957 C   0  0  0  0  0  0  0  0  0  0  0  0
   -9.9241   -0.9237    0.2925 C   0  0  0  0  0  0  0  0  0  0  0  0
  -10.2639   -2.0290    1.0489 F   0  0  0  0  0  0  0  0  0  0  0  0
  -10.0553   -1.1677   -1.0722 F   0  0  0  0  0  0  0  0  0  0  0  0
  -10.8248    0.0835    0.5818 F   0  0  0  0  0  0  0  0  0  0  0  0
   -2.1412    0.7039   -0.4931 C   0  0  0  0  0  0  0  0  0  0  0  0
   -0.7894    0.6616   -1.0892 C   0  0  1  0  0  0  0  0  0  0  0  0
    0.0554    1.8125   -0.5638 C   0  0  0  0  0  0  0  0  0  0  0  0
    9.4300    1.8883   -0.5758 H   0  0  0  0  0  0  0  0  0  0  0  0
    7.8719    3.7372   -0.1645 H   0  0  0  0  0  0  0  0  0  0  0  0
    5.4458    3.3126    0.2022 H   0  0  0  0  0  0  0  0  0  0  0  0
    6.1598   -0.8214   -0.3096 H   0  0  0  0  0  0  0  0  0  0  0  0
    2.9483   -2.0772    0.9920 H   0  0  0  0  0  0  0  0  0  0  0  0
    3.0874   -0.6629    2.1420 H   0  0  0  0  0  0  0  0  0  0  0  0
    0.7040   -1.4457    1.5145 H   0  0  0  0  0  0  0  0  0  0  0  0
    1.0414    0.2946    1.2535 H   0  0  0  0  0  0  0  0  0  0  0  0
    2.2456   -2.5713   -1.1274 H   0  0  0  0  0  0  0  0  0  0  0  0
    1.7732   -1.3441   -2.3974 H   0  0  0  0  0  0  0  0  0  0  0  0
    3.3921    0.0785   -1.8637 H   0  0  0  0  0  0  0  0  0  0  0  0
    4.1665   -1.5529   -1.5607 H   0  0  0  0  0  0  0  0  0  0  0  0
   -0.3974   -1.2462   -1.8865 H   0  0  0  0  0  0  0  0  0  0  0  0
   -1.0797   -1.0191    1.0674 H   0  0  0  0  0  0  0  0  0  0  0  0
   -1.0655   -2.4896   -0.0318 H   0  0  0  0  0  0  0  0  0  0  0  0
   -2.7439   -1.1338   -1.4645 H   0  0  0  0  0  0  0  0  0  0  0  0
   -3.6223   -0.6231    1.4095 H   0  0  0  0  0  0  0  0  0  0  0  0
   -5.1282    1.0805    1.3588 H   0  0  0  0  0  0  0  0  0  0  0  0
   -7.1659    2.1839    2.2669 H   0  0  0  0  0  0  0  0  0  0  0  0
   -9.3267    1.1936    1.7433 H   0  0  0  0  0  0  0  0  0  0  0  0
   -7.5039   -1.8873   -0.4975 H   0  0  0  0  0  0  0  0  0  0  0  0
   -2.0539    0.9383    0.5968 H   0  0  0  0  0  0  0  0  0  0  0  0
   -2.9449    1.1859   -1.0208 H   0  0  0  0  0  0  0  0  0  0  0  0
   -0.9335    0.9096   -2.1999 H   0  0  0  0  0  0  0  0  0  0  0  0
   -0.3471    2.7328   -1.0913 H   0  0  0  0  0  0  0  0  0  0  0  0
    1.1032    1.6137   -0.7875 H   0  0  0  0  0  0  0  0  0  0  0  0
   -0.1531    2.0439    0.5149 H   0  0  0  0  0  0  0  0  0  0  0  0
  1  2  1  0
  2  3  1  0
  2  4  1  0
  2  5  1  0
  5  6  2  0
  6  7  1  0
  7  8  2  0
  8  9  1  0
  9 10  2  0
  9 11  1  0
 11 12  2  0
 11 13  1  0
 13 14  1  0
 14 15  1  0
 15 16  1  0
 16 17  1  0
 17 18  1  0
 16 19  1  0
 19 20  1  0
 20 21  1  0
 21 22  1  0
 22 23  1  0
 23 24  2  0
 23 25  1  0
 25 26  2  0
 26 27  1  0
 27 28  2  0
 28 29  1  0
 29 30  2  0
 29 31  1  0
 31 32  1  0
 31 33  1  0
 31 34  1  0
 21 35  1  0
 35 36  1  0
 36 37  1  0
 10  5  1  0
 18 13  1  0
 36 19  1  0
 30 25  1  0
  6 38  1  0
  7 39  1  0
  8 40  1  0
 10 41  1  0
 14 42  1  0
 14 43  1  0
 15 44  1  0
 15 45  1  0
 17 46  1  0
 17 47  1  0
 18 48  1  0
 18 49  1  0
 19 50  1  6
 20 51  1  0
 20 52  1  0
 21 53  1  6
 22 54  1  0
 26 55  1  0
 27 56  1  0
 28 57  1  0
 30 58  1  0
 35 59  1  0
 35 60  1  0
 36 61  1  6
 37 62  1  0
 37 63  1  0
 37 64  1  0
M  END
$$$$
[H]OC([H])([H])[C@]1(C([H])([H])N([H])C(=O)c2c([H])c([H])c(N([H])C([H])([H])C([H])([H])OC([H])([H])[H])c([H])c2[H])OC([H])([H])C(=O)[C@]([H])(C([H])([H])c2c([H])c([H])c3c(c2[H])OC([H])([H])O3)N([H])C(=O)C([H])=C([H])C(C([H])([H])[H])=C([H])C1([H])[H]
     RDKit          3D

 79 82  0  0  0  0  0  0  0  0999 V2000
    8.5874   -2.6668    1.1086 C   0  0  0  0  0  0  0  0  0  0  0  0
    9.1438   -1.6797    1.8339 O   0  0  0  0  0  0  0  0  0  0  0  0
    8.8364   -0.3790    1.6089 C   0  0  0  0  0  0  0  0  0  0  0  0
    9.1317    0.1989    0.2662 C   0  0  0  0  0  0  0  0  0  0  0  0
    8.4883   -0.3765   -0.8563 N   0  0  0  0  0  0  0  0  0  0  0  0
    7.0960   -0.3109   -1.1200 C   0  0  0  0  0  0  0  0  0  0  0  0
    6.5331   -1.0772   -2.1254 C   0  0  0  0  0  0  0  0  0  0  0  0
    5.1890   -1.0300   -2.4186 C   0  0  0  0  0  0  0  0  0  0  0  0
    4.3163   -0.2076   -1.7198 C   0  0  0  0  0  0  0  0  0  0  0  0
    4.8613    0.5586   -0.7194 C   0  0  0  0  0  0  0  0  0  0  0  0
    6.2319    0.5037   -0.4285 C   0  0  0  0  0  0  0  0  0  0  0  0
    2.9028   -0.1903   -2.0656 C   0  0  0  0  0  0  0  0  0  0  0  0
    2.5075   -0.9094   -3.0485 O   0  0  0  0  0  0  0  0  0  0  0  0
    1.9478    0.5919   -1.3556 N   0  0  0  0  0  0  0  0  0  0  0  0
    0.5354    0.5720   -1.7469 C   0  0  0  0  0  0  0  0  0  0  0  0
   -0.3027    1.4478   -0.8996 C   0  0  2  0  0  0  0  0  0  0  0  0
    0.2258    2.8850   -1.1468 C   0  0  0  0  0  0  0  0  0  0  0  0
   -0.0245    3.2851   -2.4440 O   0  0  0  0  0  0  0  0  0  0  0  0
   -0.0008    1.1842    0.5895 C   0  0  0  0  0  0  0  0  0  0  0  0
   -1.1052    1.6551    1.4410 C   0  0  0  0  0  0  0  0  0  0  0  0
   -1.8845    1.0821    2.2896 C   0  0  0  0  0  0  0  0  0  0  0  0
   -2.8999    2.0590    2.9235 C   0  0  0  0  0  0  0  0  0  0  0  0
   -1.9767   -0.2841    2.7684 C   0  0  0  0  0  0  0  0  0  0  0  0
   -1.9316   -1.4518    2.2308 C   0  0  0  0  0  0  0  0  0  0  0  0
   -1.7684   -1.9669    0.8983 C   0  0  0  0  0  0  0  0  0  0  0  0
   -0.9150   -2.9680    0.8385 O   0  0  0  0  0  0  0  0  0  0  0  0
   -2.3026   -1.6513   -0.3349 N   0  0  0  0  0  0  0  0  0  0  0  0
   -3.6102   -1.1836   -0.7166 C   0  0  1  0  0  0  0  0  0  0  0  0
   -4.6876   -1.6180    0.1924 C   0  0  0  0  0  0  0  0  0  0  0  0
   -6.0509   -1.2054   -0.1023 C   0  0  0  0  0  0  0  0  0  0  0  0
   -6.8375   -1.9086   -0.9893 C   0  0  0  0  0  0  0  0  0  0  0  0
   -8.1386   -1.5783   -1.2783 C   0  0  0  0  0  0  0  0  0  0  0  0
   -8.7202   -0.4963   -0.6703 C   0  0  0  0  0  0  0  0  0  0  0  0
  -10.0012    0.0898   -0.7492 O   0  0  0  0  0  0  0  0  0  0  0  0
  -10.1443    0.9917    0.3412 C   0  0  0  0  0  0  0  0  0  0  0  0
   -8.7965    1.2532    0.6778 O   0  0  0  0  0  0  0  0  0  0  0  0
   -7.9679    0.2328    0.2229 C   0  0  0  0  0  0  0  0  0  0  0  0
   -6.6476   -0.1233    0.4997 C   0  0  0  0  0  0  0  0  0  0  0  0
   -3.5025    0.2198   -1.0865 C   0  0  0  0  0  0  0  0  0  0  0  0
   -4.2499    1.1392   -0.8411 O   0  0  0  0  0  0  0  0  0  0  0  0
   -2.2858    0.6425   -1.9041 C   0  0  0  0  0  0  0  0  0  0  0  0
   -1.6249    1.5244   -1.1380 O   0  0  0  0  0  0  0  0  0  0  0  0
    8.8159   -2.6552    0.0334 H   0  0  0  0  0  0  0  0  0  0  0  0
    8.9134   -3.6958    1.4641 H   0  0  0  0  0  0  0  0  0  0  0  0
    7.4670   -2.6062    1.2668 H   0  0  0  0  0  0  0  0  0  0  0  0
    9.4943    0.2171    2.3349 H   0  0  0  0  0  0  0  0  0  0  0  0
    7.7732   -0.1867    1.9299 H   0  0  0  0  0  0  0  0  0  0  0  0
    8.9704    1.3219    0.2650 H   0  0  0  0  0  0  0  0  0  0  0  0
   10.2488    0.1072    0.1307 H   0  0  0  0  0  0  0  0  0  0  0  0
    9.0736   -0.9038   -1.5749 H   0  0  0  0  0  0  0  0  0  0  0  0
    7.1916   -1.7412   -2.7014 H   0  0  0  0  0  0  0  0  0  0  0  0
    4.7473   -1.6322   -3.2083 H   0  0  0  0  0  0  0  0  0  0  0  0
    4.2400    1.2161   -0.1419 H   0  0  0  0  0  0  0  0  0  0  0  0
    6.6323    1.1305    0.3638 H   0  0  0  0  0  0  0  0  0  0  0  0
    2.2984    1.1582   -0.5659 H   0  0  0  0  0  0  0  0  0  0  0  0
    0.1815   -0.4670   -1.8908 H   0  0  0  0  0  0  0  0  0  0  0  0
    0.5525    0.9919   -2.8009 H   0  0  0  0  0  0  0  0  0  0  0  0
    1.3226    2.8692   -0.9989 H   0  0  0  0  0  0  0  0  0  0  0  0
   -0.1816    3.5744   -0.3825 H   0  0  0  0  0  0  0  0  0  0  0  0
   -0.5994    4.0967   -2.3917 H   0  0  0  0  0  0  0  0  0  0  0  0
    0.3722    0.1770    0.7794 H   0  0  0  0  0  0  0  0  0  0  0  0
    0.9158    1.8270    0.7694 H   0  0  0  0  0  0  0  0  0  0  0  0
   -1.2675    2.7648    1.2789 H   0  0  0  0  0  0  0  0  0  0  0  0
   -3.8093    1.5700    3.2394 H   0  0  0  0  0  0  0  0  0  0  0  0
   -3.2134    2.8121    2.1526 H   0  0  0  0  0  0  0  0  0  0  0  0
   -2.4272    2.5371    3.8062 H   0  0  0  0  0  0  0  0  0  0  0  0
   -2.1326   -0.3101    3.9061 H   0  0  0  0  0  0  0  0  0  0  0  0
   -2.0462   -2.3357    2.9503 H   0  0  0  0  0  0  0  0  0  0  0  0
   -1.6356   -1.7833   -1.1732 H   0  0  0  0  0  0  0  0  0  0  0  0
   -3.8587   -1.7044   -1.7188 H   0  0  0  0  0  0  0  0  0  0  0  0
   -4.7066   -2.7571    0.1678 H   0  0  0  0  0  0  0  0  0  0  0  0
   -4.4497   -1.4367    1.2859 H   0  0  0  0  0  0  0  0  0  0  0  0
   -6.3894   -2.7682   -1.4783 H   0  0  0  0  0  0  0  0  0  0  0  0
   -8.6889   -2.1695   -1.9771 H   0  0  0  0  0  0  0  0  0  0  0  0
  -10.6810    0.5129    1.1964 H   0  0  0  0  0  0  0  0  0  0  0  0
  -10.6875    1.9115    0.0450 H   0  0  0  0  0  0  0  0  0  0  0  0
   -6.1321    0.4997    1.2184 H   0  0  0  0  0  0  0  0  0  0  0  0
   -1.7799   -0.2106   -2.3233 H   0  0  0  0  0  0  0  0  0  0  0  0
   -2.6818    1.2147   -2.8108 H   0  0  0  0  0  0  0  0  0  0  0  0
  1  2  1  0
  2  3  1  0
  3  4  1  0
  4  5  1  0
  5  6  1  0
  6  7  2  0
  7  8  1  0
  8  9  2  0
  9 10  1  0
 10 11  2  0
  9 12  1  0
 12 13  2  0
 12 14  1  0
 14 15  1  0
 16 15  1  6
 16 17  1  0
 17 18  1  0
 16 19  1  0
 19 20  1  0
 20 21  2  0
 21 22  1  0
 21 23  1  0
 23 24  2  0
 24 25  1  0
 25 26  2  0
 25 27  1  0
 27 28  1  0
 28 29  1  0
 29 30  1  0
 30 31  2  0
 31 32  1  0
 32 33  2  0
 33 34  1  0
 34 35  1  0
 35 36  1  0
 36 37  1  0
 37 38  2  0
 28 39  1  0
 39 40  2  0
 39 41  1  0
 41 42  1  0
 11  6  1  0
 42 16  1  0
 38 30  1  0
 37 33  1  0
  1 43  1  0
  1 44  1  0
  1 45  1  0
  3 46  1  0
  3 47  1  0
  4 48  1  0
  4 49  1  0
  5 50  1  0
  7 51  1  0
  8 52  1  0
 10 53  1  0
 11 54  1  0
 14 55  1  0
 15 56  1  0
 15 57  1  0
 17 58  1  0
 17 59  1  0
 18 60  1  0
 19 61  1  0
 19 62  1  0
 20 63  1  0
 22 64  1  0
 22 65  1  0
 22 66  1  0
 23 67  1  0
 24 68  1  0
 27 69  1  0
 28 70  1  6
 29 71  1  0
 29 72  1  0
 31 73  1  0
 32 74  1  0
 35 75  1  0
 35 76  1  0
 38 77  1  0
 41 78  1  0
 41 79  1  0
M  END
$$$$
[H]O[C@@]1([H])C([H])([H])C([H])([H])[C@@]2([H])[C@]3([H])C([H])([H])C([H])([H])C4=C([H])C(=O)C([H])=C([H])[C@]4(C([H])([H])[H])[C@@]3([H])C([H])([H])C([H])([H])[C@@]12C([H])([H])[H]
     RDKit          3D

 47 50  0  0  0  0  0  0  0  0999 V2000
    2.5830    1.5691   -1.5381 C   0  0  0  0  0  0  0  0  0  0  0  0
    2.2110    0.6246   -0.4222 C   0  0  1  0  0  0  0  0  0  0  0  0
    1.6172    1.3471    0.7620 C   0  0  0  0  0  0  0  0  0  0  0  0
    0.1747    1.7118    0.5601 C   0  0  0  0  0  0  0  0  0  0  0  0
   -0.6644    0.6525   -0.0555 C   0  0  1  0  0  0  0  0  0  0  0  0
    0.0997   -0.6600    0.0112 C   0  0  1  0  0  0  0  0  0  0  0  0
   -0.6522   -1.8245   -0.5501 C   0  0  0  0  0  0  0  0  0  0  0  0
   -1.8847   -2.0515    0.3360 C   0  0  0  0  0  0  0  0  0  0  0  0
   -2.6546   -0.7616    0.1928 C   0  0  0  0  0  0  0  0  0  0  0  0
   -3.8742   -0.8295   -0.2728 C   0  0  0  0  0  0  0  0  0  0  0  0
   -4.7199    0.3403   -0.4649 C   0  0  0  0  0  0  0  0  0  0  0  0
   -5.8858    0.2999   -0.9057 O   0  0  0  0  0  0  0  0  0  0  0  0
   -4.1391    1.6185   -0.1115 C   0  0  0  0  0  0  0  0  0  0  0  0
   -2.8893    1.6541    0.3644 C   0  0  0  0  0  0  0  0  0  0  0  0
   -2.0347    0.5009    0.5712 C   0  0  2  0  0  0  0  0  0  0  0  0
   -1.8413    0.4234    2.1123 C   0  0  0  0  0  0  0  0  0  0  0  0
    1.3141   -0.4618   -0.9086 C   0  0  2  0  0  0  0  0  0  0  0  0
    2.0997   -1.7513   -0.8630 C   0  0  0  0  0  0  0  0  0  0  0  0
    3.5526   -1.3458   -0.8132 C   0  0  0  0  0  0  0  0  0  0  0  0
    3.4720   -0.0793    0.0345 C   0  0  2  0  0  0  0  0  0  0  0  0
    3.4704   -0.3758    1.3801 O   0  0  0  0  0  0  0  0  0  0  0  0
    3.0444    0.9492   -2.3403 H   0  0  0  0  0  0  0  0  0  0  0  0
    3.2903    2.3288   -1.1479 H   0  0  0  0  0  0  0  0  0  0  0  0
    1.6945    2.0615   -1.9864 H   0  0  0  0  0  0  0  0  0  0  0  0
    2.1791    2.2665    0.9673 H   0  0  0  0  0  0  0  0  0  0  0  0
    1.6853    0.6993    1.6474 H   0  0  0  0  0  0  0  0  0  0  0  0
   -0.2070    2.0735    1.5475 H   0  0  0  0  0  0  0  0  0  0  0  0
    0.1693    2.6302   -0.0917 H   0  0  0  0  0  0  0  0  0  0  0  0
   -0.8010    0.8785   -1.1273 H   0  0  0  0  0  0  0  0  0  0  0  0
    0.5117   -0.8475    1.0171 H   0  0  0  0  0  0  0  0  0  0  0  0
   -0.9679   -1.5549   -1.5803 H   0  0  0  0  0  0  0  0  0  0  0  0
    0.0101   -2.6896   -0.5718 H   0  0  0  0  0  0  0  0  0  0  0  0
   -1.5275   -2.2226    1.3494 H   0  0  0  0  0  0  0  0  0  0  0  0
   -2.4159   -2.9134   -0.0446 H   0  0  0  0  0  0  0  0  0  0  0  0
   -4.3279   -1.7999   -0.5474 H   0  0  0  0  0  0  0  0  0  0  0  0
   -4.6889    2.5656   -0.2200 H   0  0  0  0  0  0  0  0  0  0  0  0
   -2.4948    2.6711    0.6159 H   0  0  0  0  0  0  0  0  0  0  0  0
   -1.8767    1.4456    2.5368 H   0  0  0  0  0  0  0  0  0  0  0  0
   -2.7230   -0.1195    2.5152 H   0  0  0  0  0  0  0  0  0  0  0  0
   -0.9513   -0.1475    2.3668 H   0  0  0  0  0  0  0  0  0  0  0  0
    0.9476   -0.2167   -1.9047 H   0  0  0  0  0  0  0  0  0  0  0  0
    1.8906   -2.2869    0.1009 H   0  0  0  0  0  0  0  0  0  0  0  0
    1.8472   -2.3974   -1.7135 H   0  0  0  0  0  0  0  0  0  0  0  0
    4.1161   -2.1440   -0.2887 H   0  0  0  0  0  0  0  0  0  0  0  0
    3.9546   -1.1261   -1.8202 H   0  0  0  0  0  0  0  0  0  0  0  0
    4.3677    0.5433   -0.2344 H   0  0  0  0  0  0  0  0  0  0  0  0
    3.9192   -1.2479    1.5361 H   0  0  0  0  0  0  0  0  0  0  0  0
  2  1  1  6
  2  3  1  0
  3  4  1  0
  4  5  1  0
  5  6  1  0
  6  7  1  0
  7  8  1  0
  8  9  1  0
  9 10  2  0
 10 11  1  0
 11 12  2  0
 11 13  1  0
 13 14  2  0
 14 15  1  0
 15 16  1  1
  6 17  1  0
 17 18  1  0
 18 19  1  0
 19 20  1  0
 20 21  1  0
 17  2  1  0
 20  2  1  0
 15  5  1  0
 15  9  1  0
  1 22  1  0
  1 23  1  0
  1 24  1  0
  3 25  1  0
  3 26  1  0
  4 27  1  0
  4 28  1  0
  5 29  1  6
  6 30  1  1
  7 31  1  0
  7 32  1  0
  8 33  1  0
  8 34  1  0
 10 35  1  0
 13 36  1  0
 14 37  1  0
 16 38  1  0
 16 39  1  0
 16 40  1  0
 17 41  1  6
 18 42  1  0
 18 43  1  0
 19 44  1  0
 19 45  1  0
 20 46  1  1
 21 47  1  0
M  END
$$$$
[H]OC(=O)C([H])([H])[C@]1([H])C([H])([H])C([H])([H])[C@@]([H])(c2nc(-c3c([H])c([H])c(C(F)(F)F)c([H])c3[H])c([H])n2[H])C([H])([H])C1([H])[H]
     RDKit          3D

 44 46  0  0  0  0  0  0  0  0999 V2000
    7.4362   -0.6190   -0.1015 O   0  0  0  0  0  0  0  0  0  0  0  0
    6.3471    0.0494    0.3764 C   0  0  0  0  0  0  0  0  0  0  0  0
    6.4523    1.2868    0.6507 O   0  0  0  0  0  0  0  0  0  0  0  0
    5.0953   -0.7004    0.5455 C   0  0  0  0  0  0  0  0  0  0  0  0
    3.9116    0.1233    0.9670 C   0  0  1  0  0  0  0  0  0  0  0  0
    3.5354    1.1885   -0.0093 C   0  0  0  0  0  0  0  0  0  0  0  0
    1.9966    1.2518   -0.1483 C   0  0  0  0  0  0  0  0  0  0  0  0
    1.5892   -0.0166   -0.8826 C   0  0  1  0  0  0  0  0  0  0  0  0
    2.2007   -1.1997   -0.1842 C   0  0  0  0  0  0  0  0  0  0  0  0
    2.7655   -0.8425    1.1676 C   0  0  0  0  0  0  0  0  0  0  0  0
    0.1423   -0.1480   -1.1127 C   0  0  0  0  0  0  0  0  0  0  0  0
   -0.8691   -0.0140   -0.1968 N   0  0  0  0  0  0  0  0  0  0  0  0
   -2.0559   -0.1079   -0.8109 C   0  0  0  0  0  0  0  0  0  0  0  0
   -1.7646   -0.3172   -2.1847 C   0  0  0  0  0  0  0  0  0  0  0  0
   -0.4296   -0.3343   -2.3126 N   0  0  0  0  0  0  0  0  0  0  0  0
   -3.3950   -0.0260   -0.2802 C   0  0  0  0  0  0  0  0  0  0  0  0
   -4.3734    0.5800   -1.0804 C   0  0  0  0  0  0  0  0  0  0  0  0
   -5.6811    0.7091   -0.7120 C   0  0  0  0  0  0  0  0  0  0  0  0
   -6.0914    0.2161    0.5158 C   0  0  0  0  0  0  0  0  0  0  0  0
   -5.2053   -0.3753    1.3267 C   0  0  0  0  0  0  0  0  0  0  0  0
   -3.8588   -0.4914    0.9242 C   0  0  0  0  0  0  0  0  0  0  0  0
   -7.5437    0.3970    0.8721 C   0  0  0  0  0  0  0  0  0  0  0  0
   -8.2659   -0.7704    0.8782 F   0  0  0  0  0  0  0  0  0  0  0  0
   -8.1957    1.2311   -0.0182 F   0  0  0  0  0  0  0  0  0  0  0  0
   -7.6017    1.0239    2.1316 F   0  0  0  0  0  0  0  0  0  0  0  0
    8.3983   -0.3062   -0.0266 H   0  0  0  0  0  0  0  0  0  0  0  0
    5.2426   -1.4855    1.3140 H   0  0  0  0  0  0  0  0  0  0  0  0
    4.8951   -1.2621   -0.4200 H   0  0  0  0  0  0  0  0  0  0  0  0
    4.1793    0.6012    1.9224 H   0  0  0  0  0  0  0  0  0  0  0  0
    3.9399    2.1966    0.2082 H   0  0  0  0  0  0  0  0  0  0  0  0
    3.9317    0.8700   -1.0170 H   0  0  0  0  0  0  0  0  0  0  0  0
    1.5441    1.3426    0.8450 H   0  0  0  0  0  0  0  0  0  0  0  0
    1.7834    2.1683   -0.7368 H   0  0  0  0  0  0  0  0  0  0  0  0
    2.1216    0.0235   -1.8849 H   0  0  0  0  0  0  0  0  0  0  0  0
    2.9736   -1.7164   -0.7496 H   0  0  0  0  0  0  0  0  0  0  0  0
    1.3686   -1.9211    0.0197 H   0  0  0  0  0  0  0  0  0  0  0  0
    1.9799   -0.3731    1.8180 H   0  0  0  0  0  0  0  0  0  0  0  0
    3.1126   -1.7493    1.6281 H   0  0  0  0  0  0  0  0  0  0  0  0
   -2.4995   -0.4707   -2.9928 H   0  0  0  0  0  0  0  0  0  0  0  0
    0.0974   -0.4512   -3.2095 H   0  0  0  0  0  0  0  0  0  0  0  0
   -4.0645    1.0175   -2.0314 H   0  0  0  0  0  0  0  0  0  0  0  0
   -6.4420    1.1602   -1.3229 H   0  0  0  0  0  0  0  0  0  0  0  0
   -5.5303   -0.7634    2.2896 H   0  0  0  0  0  0  0  0  0  0  0  0
   -3.1725   -0.9750    1.6318 H   0  0  0  0  0  0  0  0  0  0  0  0
  1  2  1  0
  2  3  2  0
  2  4  1  0
  4  5  1  0
  5  6  1  0
  6  7  1  0
  7  8  1  0
  8  9  1  0
  9 10  1  0
  8 11  1  0
 11 12  2  0
 12 13  1  0
 13 14  2  0
 14 15  1  0
 13 16  1  0
 16 17  2  0
 17 18  1  0
 18 19  2  0
 19 20  1  0
 20 21  2  0
 19 22  1  0
 22 23  1  0
 22 24  1  0
 22 25  1  0
 10  5  1  0
 15 11  1  0
 21 16  1  0
  1 26  1  0
  4 27  1  0
  4 28  1  0
  5 29  1  1
  6 30  1  0
  6 31  1  0
  7 32  1  0
  7 33  1  0
  8 34  1  6
  9 35  1  0
  9 36  1  0
 10 37  1  0
 10 38  1  0
 14 39  1  0
 15 40  1  0
 17 41  1  0
 18 42  1  0
 20 43  1  0
 21 44  1  0
M  END
$$$$
[H]N=C(N([H])[H])N([H])C([H])([H])C([H])([H])C([H])([H])[C@@]([H])(C(=O)N([H])[C@]([H])(C(=O)N([H])[H])C([H])([H])c1c([H])c([H])c([H])c([H])c1[H])N([H])C(=O)[C@@]([H])(N([H])C(=O)[C@@]([H])(N([H])C(=O)[C@@]([H])(N([H])C(=O)[C@@]([H])(N([H])C(=O)[C@@]([H])(N([H])[H])C([H])([H])C([H])([H])C(=O)O[H])C([H])([H])C([H])([H])C(=O)N([H])[H])C([H])([H])C([H])([H])C(=O)O[H])C([H])([H])C([H])([H])C(=O)O[H])C([H])([H])C([H])([H])C(=O)O[H]
     RDKit          3D

128128  0  0  0  0  0  0  0  0999 V2000
   -8.6386   -4.0548   -1.7910 N   0  0  0  0  0  0  0  0  0  0  0  0
   -7.6180   -4.5956   -0.9634 C   0  0  0  0  0  0  0  0  0  0  0  0
   -7.9717   -5.0788    0.1488 N   0  0  0  0  0  0  0  0  0  0  0  0
   -6.2969   -4.5256   -1.4829 N   0  0  0  0  0  0  0  0  0  0  0  0
   -5.1197   -4.2202   -0.7228 C   0  0  0  0  0  0  0  0  0  0  0  0
   -5.1447   -2.7974   -0.2499 C   0  0  0  0  0  0  0  0  0  0  0  0
   -5.2242   -1.8394   -1.3980 C   0  0  0  0  0  0  0  0  0  0  0  0
   -5.1677   -0.3917   -0.9172 C   0  0  2  0  0  0  0  0  0  0  0  0
   -3.8933   -0.1893   -0.2079 N   0  0  0  0  0  0  0  0  0  0  0  0
   -2.8698    0.5597   -0.8220 C   0  0  0  0  0  0  0  0  0  0  0  0
   -3.1596    1.0363   -1.9924 O   0  0  0  0  0  0  0  0  0  0  0  0
   -1.5562    0.8405   -0.3094 C   0  0  2  0  0  0  0  0  0  0  0  0
   -1.2977    2.1501    0.3450 C   0  0  0  0  0  0  0  0  0  0  0  0
   -2.0391    2.5090    1.5676 C   0  0  0  0  0  0  0  0  0  0  0  0
   -3.4900    2.6171    1.4521 C   0  0  0  0  0  0  0  0  0  0  0  0
   -4.1259    3.2391    0.3723 O   0  0  0  0  0  0  0  0  0  0  0  0
   -4.1969    2.1217    2.3858 O   0  0  0  0  0  0  0  0  0  0  0  0
   -0.5846    0.7400   -1.4282 N   0  0  0  0  0  0  0  0  0  0  0  0
    0.6037   -0.0051   -1.3501 C   0  0  0  0  0  0  0  0  0  0  0  0
    0.9386   -0.6229   -0.2911 O   0  0  0  0  0  0  0  0  0  0  0  0
    1.5218   -0.1023   -2.4957 C   0  0  2  0  0  0  0  0  0  0  0  0
    1.3030   -1.4254   -3.2367 C   0  0  0  0  0  0  0  0  0  0  0  0
   -0.0544   -1.5736   -3.8461 C   0  0  0  0  0  0  0  0  0  0  0  0
   -0.3704   -0.6097   -4.9059 C   0  0  0  0  0  0  0  0  0  0  0  0
    0.2788   -0.7307   -6.1365 O   0  0  0  0  0  0  0  0  0  0  0  0
   -1.1782    0.3452   -4.8384 O   0  0  0  0  0  0  0  0  0  0  0  0
    2.8655    0.1134   -2.1521 N   0  0  0  0  0  0  0  0  0  0  0  0
    3.9011   -0.7222   -1.7207 C   0  0  0  0  0  0  0  0  0  0  0  0
    3.7363   -1.9375   -1.5520 O   0  0  0  0  0  0  0  0  0  0  0  0
    5.2387   -0.1055   -1.4644 C   0  0  2  0  0  0  0  0  0  0  0  0
    5.7990    0.1179   -2.8976 C   0  0  0  0  0  0  0  0  0  0  0  0
    7.1437    0.7685   -2.7671 C   0  0  0  0  0  0  0  0  0  0  0  0
    7.7726    0.9895   -4.0901 C   0  0  0  0  0  0  0  0  0  0  0  0
    7.1806    0.6762   -5.3071 O   0  0  0  0  0  0  0  0  0  0  0  0
    8.9256    1.4991   -4.0914 O   0  0  0  0  0  0  0  0  0  0  0  0
    6.1765   -0.8729   -0.7208 N   0  0  0  0  0  0  0  0  0  0  0  0
    6.8984   -0.3309    0.3819 C   0  0  0  0  0  0  0  0  0  0  0  0
    6.6759    0.8480    0.7133 O   0  0  0  0  0  0  0  0  0  0  0  0
    7.9299   -1.1156    1.1639 C   0  0  2  0  0  0  0  0  0  0  0  0
    7.3523   -2.0694    2.1501 C   0  0  0  0  0  0  0  0  0  0  0  0
    6.5337   -3.1966    1.6057 C   0  0  0  0  0  0  0  0  0  0  0  0
    7.3844   -4.1126    0.7732 C   0  0  0  0  0  0  0  0  0  0  0  0
    6.8270   -5.0588   -0.1228 N   0  0  0  0  0  0  0  0  0  0  0  0
    8.6498   -4.0493    0.8749 O   0  0  0  0  0  0  0  0  0  0  0  0
    8.8994   -0.2615    1.7653 N   0  0  0  0  0  0  0  0  0  0  0  0
    9.6024    0.8393    1.3358 C   0  0  0  0  0  0  0  0  0  0  0  0
    9.4282    1.3009    0.1619 O   0  0  0  0  0  0  0  0  0  0  0  0
   10.5940    1.5430    2.1873 C   0  0  1  0  0  0  0  0  0  0  0  0
   11.3954    2.5059    1.4602 N   0  0  0  0  0  0  0  0  0  0  0  0
    9.9660    2.3038    3.3235 C   0  0  0  0  0  0  0  0  0  0  0  0
    9.1635    1.5183    4.2881 C   0  0  0  0  0  0  0  0  0  0  0  0
    8.7090    2.4531    5.3765 C   0  0  0  0  0  0  0  0  0  0  0  0
    7.9232    1.8887    6.3818 O   0  0  0  0  0  0  0  0  0  0  0  0
    9.0082    3.6796    5.4054 O   0  0  0  0  0  0  0  0  0  0  0  0
   -6.2976   -0.0746   -0.0416 C   0  0  0  0  0  0  0  0  0  0  0  0
   -6.2802   -0.4287    1.1494 O   0  0  0  0  0  0  0  0  0  0  0  0
   -7.3976    0.6333   -0.5568 N   0  0  0  0  0  0  0  0  0  0  0  0
   -8.6015    1.0167    0.1516 C   0  0  1  0  0  0  0  0  0  0  0  0
   -8.3516    2.2887    0.9518 C   0  0  0  0  0  0  0  0  0  0  0  0
   -9.5374    2.7974    1.6517 C   0  0  0  0  0  0  0  0  0  0  0  0
  -10.2294    3.8995    1.1819 C   0  0  0  0  0  0  0  0  0  0  0  0
  -11.3461    4.3726    1.7840 C   0  0  0  0  0  0  0  0  0  0  0  0
  -11.8245    3.7557    2.8955 C   0  0  0  0  0  0  0  0  0  0  0  0
  -11.1372    2.6352    3.3907 C   0  0  0  0  0  0  0  0  0  0  0  0
  -10.0120    2.1667    2.7763 C   0  0  0  0  0  0  0  0  0  0  0  0
   -9.7177    1.1024   -0.7925 C   0  0  0  0  0  0  0  0  0  0  0  0
  -11.0524    1.3165   -0.4068 N   0  0  0  0  0  0  0  0  0  0  0  0
   -9.4659    0.9698   -2.0231 O   0  0  0  0  0  0  0  0  0  0  0  0
   -9.5989   -4.4234   -1.7266 H   0  0  0  0  0  0  0  0  0  0  0  0
   -8.4161   -3.2902   -2.4536 H   0  0  0  0  0  0  0  0  0  0  0  0
   -7.3341   -5.5142    0.8818 H   0  0  0  0  0  0  0  0  0  0  0  0
   -6.1724   -4.7211   -2.5229 H   0  0  0  0  0  0  0  0  0  0  0  0
   -4.2081   -4.4174   -1.3469 H   0  0  0  0  0  0  0  0  0  0  0  0
   -5.0659   -4.8651    0.1987 H   0  0  0  0  0  0  0  0  0  0  0  0
   -6.0725   -2.6978    0.3854 H   0  0  0  0  0  0  0  0  0  0  0  0
   -4.2445   -2.6099    0.3489 H   0  0  0  0  0  0  0  0  0  0  0  0
   -6.2247   -1.9511   -1.8973 H   0  0  0  0  0  0  0  0  0  0  0  0
   -4.4802   -2.0000   -2.1873 H   0  0  0  0  0  0  0  0  0  0  0  0
   -5.1339    0.2719   -1.8184 H   0  0  0  0  0  0  0  0  0  0  0  0
   -3.7924   -0.6067    0.7295 H   0  0  0  0  0  0  0  0  0  0  0  0
   -1.1931    0.0546    0.4309 H   0  0  0  0  0  0  0  0  0  0  0  0
   -0.1787    2.2832    0.5423 H   0  0  0  0  0  0  0  0  0  0  0  0
   -1.4963    2.9738   -0.4224 H   0  0  0  0  0  0  0  0  0  0  0  0
   -1.6850    3.5340    1.9095 H   0  0  0  0  0  0  0  0  0  0  0  0
   -1.7689    1.8421    2.4357 H   0  0  0  0  0  0  0  0  0  0  0  0
   -5.0302    2.9310    0.0536 H   0  0  0  0  0  0  0  0  0  0  0  0
   -0.8174    1.2676   -2.2758 H   0  0  0  0  0  0  0  0  0  0  0  0
    1.2162    0.6566   -3.2906 H   0  0  0  0  0  0  0  0  0  0  0  0
    1.4468   -2.2450   -2.4994 H   0  0  0  0  0  0  0  0  0  0  0  0
    2.0691   -1.5664   -4.0206 H   0  0  0  0  0  0  0  0  0  0  0  0
   -0.1296   -2.5915   -4.2973 H   0  0  0  0  0  0  0  0  0  0  0  0
   -0.8610   -1.5276   -3.0769 H   0  0  0  0  0  0  0  0  0  0  0  0
   -0.1859   -1.2139   -6.8704 H   0  0  0  0  0  0  0  0  0  0  0  0
    3.1658    1.1600   -2.2533 H   0  0  0  0  0  0  0  0  0  0  0  0
    5.1175    0.8859   -1.0025 H   0  0  0  0  0  0  0  0  0  0  0  0
    5.1378    0.7553   -3.4911 H   0  0  0  0  0  0  0  0  0  0  0  0
    5.8791   -0.8675   -3.4029 H   0  0  0  0  0  0  0  0  0  0  0  0
    7.0423    1.7171   -2.1871 H   0  0  0  0  0  0  0  0  0  0  0  0
    7.8067    0.0881   -2.1961 H   0  0  0  0  0  0  0  0  0  0  0  0
    6.6003   -0.1333   -5.4338 H   0  0  0  0  0  0  0  0  0  0  0  0
    6.3495   -1.8476   -0.9964 H   0  0  0  0  0  0  0  0  0  0  0  0
    8.3931   -1.7141    0.3015 H   0  0  0  0  0  0  0  0  0  0  0  0
    6.7415   -1.5234    2.9238 H   0  0  0  0  0  0  0  0  0  0  0  0
    8.2207   -2.5375    2.7081 H   0  0  0  0  0  0  0  0  0  0  0  0
    5.6816   -2.8821    0.9910 H   0  0  0  0  0  0  0  0  0  0  0  0
    6.0966   -3.8163    2.4282 H   0  0  0  0  0  0  0  0  0  0  0  0
    6.9908   -4.9203   -1.1399 H   0  0  0  0  0  0  0  0  0  0  0  0
    6.2701   -5.8483    0.2625 H   0  0  0  0  0  0  0  0  0  0  0  0
    9.1736   -0.6020    2.7795 H   0  0  0  0  0  0  0  0  0  0  0  0
   11.3106    0.7932    2.6135 H   0  0  0  0  0  0  0  0  0  0  0  0
   10.9106    2.7948    0.5941 H   0  0  0  0  0  0  0  0  0  0  0  0
   11.6659    3.2515    2.0998 H   0  0  0  0  0  0  0  0  0  0  0  0
   10.7635    2.8962    3.8595 H   0  0  0  0  0  0  0  0  0  0  0  0
    9.3089    3.0838    2.8754 H   0  0  0  0  0  0  0  0  0  0  0  0
    8.2390    1.1234    3.7774 H   0  0  0  0  0  0  0  0  0  0  0  0
    9.7937    0.7424    4.7520 H   0  0  0  0  0  0  0  0  0  0  0  0
    7.8580    2.4012    7.2621 H   0  0  0  0  0  0  0  0  0  0  0  0
   -7.3346    0.9197   -1.5826 H   0  0  0  0  0  0  0  0  0  0  0  0
   -8.7389    0.2348    0.9493 H   0  0  0  0  0  0  0  0  0  0  0  0
   -7.5290    2.1623    1.6571 H   0  0  0  0  0  0  0  0  0  0  0  0
   -8.0325    3.0439    0.1951 H   0  0  0  0  0  0  0  0  0  0  0  0
   -9.8594    4.4032    0.2955 H   0  0  0  0  0  0  0  0  0  0  0  0
  -11.8558    5.2588    1.3727 H   0  0  0  0  0  0  0  0  0  0  0  0
  -12.7095    4.1207    3.3778 H   0  0  0  0  0  0  0  0  0  0  0  0
  -11.5128    2.1562    4.2822 H   0  0  0  0  0  0  0  0  0  0  0  0
   -9.5199    1.2842    3.2151 H   0  0  0  0  0  0  0  0  0  0  0  0
  -11.6665    2.0125   -0.8759 H   0  0  0  0  0  0  0  0  0  0  0  0
  -11.4779    0.7696    0.3783 H   0  0  0  0  0  0  0  0  0  0  0  0
  1  2  1  0
  2  3  2  3
  2  4  1  0
  4  5  1  0
  5  6  1  0
  6  7  1  0
  7  8  1  0
  8  9  1  0
  9 10  1  0
 10 11  2  0
 10 12  1  0
 12 13  1  0
 13 14  1  0
 14 15  1  0
 15 16  1  0
 15 17  2  0
 12 18  1  0
 18 19  1  0
 19 20  2  0
 19 21  1  0
 21 22  1  0
 22 23  1  0
 23 24  1  0
 24 25  1  0
 24 26  2  0
 21 27  1  0
 27 28  1  0
 28 29  2  0
 28 30  1  0
 30 31  1  0
 31 32  1  0
 32 33  1  0
 33 34  1  0
 33 35  2  0
 30 36  1  0
 36 37  1  0
 37 38  2  0
 37 39  1  0
 39 40  1  0
 40 41  1  0
 41 42  1  0
 42 43  1  0
 42 44  2  0
 39 45  1  0
 45 46  1  0
 46 47  2  0
 46 48  1  0
 48 49  1  0
 48 50  1  0
 50 51  1  0
 51 52  1  0
 52 53  1  0
 52 54  2  0
  8 55  1  0
 55 56  2  0
 55 57  1  0
 57 58  1  0
 58 59  1  0
 59 60  1  0
 60 61  2  0
 61 62  1  0
 62 63  2  0
 63 64  1  0
 64 65  2  0
 58 66  1  0
 66 67  1  0
 66 68  2  0
 65 60  1  0
  1 69  1  0
  1 70  1  0
  3 71  1  0
  4 72  1  0
  5 73  1  0
  5 74  1  0
  6 75  1  0
  6 76  1  0
  7 77  1  0
  7 78  1  0
  8 79  1  6
  9 80  1  0
 12 81  1  1
 13 82  1  0
 13 83  1  0
 14 84  1  0
 14 85  1  0
 16 86  1  0
 18 87  1  0
 21 88  1  6
 22 89  1  0
 22 90  1  0
 23 91  1  0
 23 92  1  0
 25 93  1  0
 27 94  1  0
 30 95  1  1
 31 96  1  0
 31 97  1  0
 32 98  1  0
 32 99  1  0
 34100  1  0
 36101  1  0
 39102  1  6
 40103  1  0
 40104  1  0
 41105  1  0
 41106  1  0
 43107  1  0
 43108  1  0
 45109  1  0
 48110  1  1
 49111  1  0
 49112  1  0
 50113  1  0
 50114  1  0
 51115  1  0
 51116  1  0
 53117  1  0
 57118  1  0
 58119  1  1
 59120  1  0
 59121  1  0
 61122  1  0
 62123  1  0
 63124  1  0
 64125  1  0
 65126  1  0
 67127  1  0
 67128  1  0
M  END
$$$$
[H]c1c([H])c([H])c(C([H])([H])[C@@]([H])(C(=O)N([H])[C@]([H])(C(=O)N([H])[C@]([H])(C(=O)N([H])[C@]([H])(C(=O)N([H])[C@]([H])(C(=O)N([H])[C@]([H])(C(=O)N([H])[H])C([H])([H])c2c([H])c([H])c([H])c([H])c2[H])C([H])([H])C([H])(C([H])([H])[H])C([H])([H])[H])C([H])([H])C(=O)N([H])[H])C([H])([H])c2c([H])c([H])c([H])c([H])c2[H])C([H])([H])c2c([H])c([H])c([H])c([H])c2[H])N([H])[H])c([H])c1[H]
     RDKit          3D

117120  0  0  0  0  0  0  0  0999 V2000
    6.5021   -1.2375    3.9116 C   0  0  0  0  0  0  0  0  0  0  0  0
    5.7307   -1.5941    2.6089 C   0  0  0  0  0  0  0  0  0  0  0  0
    4.6331   -2.5165    3.0907 C   0  0  0  0  0  0  0  0  0  0  0  0
    5.1746   -0.3452    2.0492 C   0  0  0  0  0  0  0  0  0  0  0  0
    4.4208   -0.3423    0.8051 C   0  0  2  0  0  0  0  0  0  0  0  0
    3.2191   -1.0698    0.6515 N   0  0  0  0  0  0  0  0  0  0  0  0
    2.0454   -0.5861   -0.0135 C   0  0  0  0  0  0  0  0  0  0  0  0
    2.1549    0.5648   -0.4991 O   0  0  0  0  0  0  0  0  0  0  0  0
    0.8338   -1.4276   -0.0864 C   0  0  2  0  0  0  0  0  0  0  0  0
    1.0336   -2.8868   -0.1085 C   0  0  0  0  0  0  0  0  0  0  0  0
    1.7952   -3.4821   -1.1851 C   0  0  0  0  0  0  0  0  0  0  0  0
    1.8090   -2.9401   -2.4814 N   0  0  0  0  0  0  0  0  0  0  0  0
    2.4689   -4.5164   -0.9767 O   0  0  0  0  0  0  0  0  0  0  0  0
   -0.1729   -0.9112   -0.9869 N   0  0  0  0  0  0  0  0  0  0  0  0
   -1.2215   -0.0496   -0.6437 C   0  0  0  0  0  0  0  0  0  0  0  0
   -1.2453    0.2910    0.5785 O   0  0  0  0  0  0  0  0  0  0  0  0
   -2.2728    0.4828   -1.5124 C   0  0  2  0  0  0  0  0  0  0  0  0
   -1.8153    1.3534   -2.6197 C   0  0  0  0  0  0  0  0  0  0  0  0
   -0.8999    0.8397   -3.6133 C   0  0  0  0  0  0  0  0  0  0  0  0
   -1.3024    0.0277   -4.6679 C   0  0  0  0  0  0  0  0  0  0  0  0
   -0.3933   -0.3852   -5.6123 C   0  0  0  0  0  0  0  0  0  0  0  0
    0.9412   -0.0313   -5.5784 C   0  0  0  0  0  0  0  0  0  0  0  0
    1.3559    0.7748   -4.5381 C   0  0  0  0  0  0  0  0  0  0  0  0
    0.4478    1.1884   -3.5923 C   0  0  0  0  0  0  0  0  0  0  0  0
   -3.2572    1.2742   -0.6992 N   0  0  0  0  0  0  0  0  0  0  0  0
   -4.4880    0.7173   -0.2864 C   0  0  0  0  0  0  0  0  0  0  0  0
   -4.6435   -0.5112   -0.6727 O   0  0  0  0  0  0  0  0  0  0  0  0
   -5.5534    1.3554    0.4844 C   0  0  2  0  0  0  0  0  0  0  0  0
   -5.2842    1.8893    1.8311 C   0  0  0  0  0  0  0  0  0  0  0  0
   -4.2818    2.9504    1.9968 C   0  0  0  0  0  0  0  0  0  0  0  0
   -3.0031    2.7247    2.4700 C   0  0  0  0  0  0  0  0  0  0  0  0
   -2.1007    3.7524    2.5970 C   0  0  0  0  0  0  0  0  0  0  0  0
   -2.4221    5.0601    2.2582 C   0  0  0  0  0  0  0  0  0  0  0  0
   -3.6921    5.2834    1.7890 C   0  0  0  0  0  0  0  0  0  0  0  0
   -4.6050    4.2675    1.6569 C   0  0  0  0  0  0  0  0  0  0  0  0
   -6.7105    0.4376    0.5380 N   0  0  0  0  0  0  0  0  0  0  0  0
   -6.7517   -0.7407    1.2796 C   0  0  0  0  0  0  0  0  0  0  0  0
   -5.8306   -1.1979    2.0022 O   0  0  0  0  0  0  0  0  0  0  0  0
   -7.9992   -1.5716    1.2399 C   0  0  1  0  0  0  0  0  0  0  0  0
   -7.8801   -2.7671    2.0525 N   0  0  0  0  0  0  0  0  0  0  0  0
   -9.1556   -0.7356    1.7381 C   0  0  0  0  0  0  0  0  0  0  0  0
  -10.4144   -1.4987    1.7212 C   0  0  0  0  0  0  0  0  0  0  0  0
  -11.2085   -1.4818    0.6109 C   0  0  0  0  0  0  0  0  0  0  0  0
  -12.3936   -2.1777    0.5461 C   0  0  0  0  0  0  0  0  0  0  0  0
  -12.7834   -2.9176    1.6528 C   0  0  0  0  0  0  0  0  0  0  0  0
  -11.9776   -2.9379    2.7867 C   0  0  0  0  0  0  0  0  0  0  0  0
  -10.7960   -2.2270    2.8133 C   0  0  0  0  0  0  0  0  0  0  0  0
    5.2628   -0.5801   -0.4183 C   0  0  0  0  0  0  0  0  0  0  0  0
    4.7949   -1.3071   -1.3176 O   0  0  0  0  0  0  0  0  0  0  0  0
    6.5327   -0.0251   -0.5934 N   0  0  0  0  0  0  0  0  0  0  0  0
    7.2893   -0.2745   -1.8024 C   0  0  1  0  0  0  0  0  0  0  0  0
    7.6613    0.9903   -2.5119 C   0  0  0  0  0  0  0  0  0  0  0  0
    8.4835    1.8920   -1.6820 C   0  0  0  0  0  0  0  0  0  0  0  0
    9.8596    1.8891   -1.6785 C   0  0  0  0  0  0  0  0  0  0  0  0
   10.6376    2.7306   -0.9064 C   0  0  0  0  0  0  0  0  0  0  0  0
   10.0295    3.6448   -0.0757 C   0  0  0  0  0  0  0  0  0  0  0  0
    8.6522    3.6806   -0.0503 C   0  0  0  0  0  0  0  0  0  0  0  0
    7.9002    2.8324   -0.8270 C   0  0  0  0  0  0  0  0  0  0  0  0
    8.4397   -1.1652   -1.5272 C   0  0  0  0  0  0  0  0  0  0  0  0
    9.3088   -1.6165   -2.5451 N   0  0  0  0  0  0  0  0  0  0  0  0
    8.6446   -1.5311   -0.3457 O   0  0  0  0  0  0  0  0  0  0  0  0
    6.9171   -0.2210    3.8630 H   0  0  0  0  0  0  0  0  0  0  0  0
    7.2614   -2.0309    4.0954 H   0  0  0  0  0  0  0  0  0  0  0  0
    5.8171   -1.2753    4.7817 H   0  0  0  0  0  0  0  0  0  0  0  0
    6.3626   -2.1719    1.9294 H   0  0  0  0  0  0  0  0  0  0  0  0
    3.6856   -2.0003    3.3282 H   0  0  0  0  0  0  0  0  0  0  0  0
    4.9202   -3.0121    4.0671 H   0  0  0  0  0  0  0  0  0  0  0  0
    4.5083   -3.3930    2.4029 H   0  0  0  0  0  0  0  0  0  0  0  0
    6.0451    0.3736    1.9028 H   0  0  0  0  0  0  0  0  0  0  0  0
    4.5751    0.1952    2.8351 H   0  0  0  0  0  0  0  0  0  0  0  0
    4.1088    0.7577    0.6312 H   0  0  0  0  0  0  0  0  0  0  0  0
    3.1650   -2.0305    1.0255 H   0  0  0  0  0  0  0  0  0  0  0  0
    0.3291   -1.2363    0.9454 H   0  0  0  0  0  0  0  0  0  0  0  0
    1.5184   -3.1723    0.8754 H   0  0  0  0  0  0  0  0  0  0  0  0
    0.0063   -3.3760    0.0054 H   0  0  0  0  0  0  0  0  0  0  0  0
    2.6369   -2.4279   -2.8259 H   0  0  0  0  0  0  0  0  0  0  0  0
    0.9392   -3.0923   -3.0650 H   0  0  0  0  0  0  0  0  0  0  0  0
   -0.0988   -1.2535   -1.9678 H   0  0  0  0  0  0  0  0  0  0  0  0
   -2.8955   -0.4057   -1.8441 H   0  0  0  0  0  0  0  0  0  0  0  0
   -2.7462    1.8161   -3.1010 H   0  0  0  0  0  0  0  0  0  0  0  0
   -1.3280    2.2799   -2.1727 H   0  0  0  0  0  0  0  0  0  0  0  0
   -2.3570   -0.2412   -4.6791 H   0  0  0  0  0  0  0  0  0  0  0  0
   -0.7249   -1.0235   -6.4302 H   0  0  0  0  0  0  0  0  0  0  0  0
    1.6265   -0.3790   -6.3433 H   0  0  0  0  0  0  0  0  0  0  0  0
    2.4042    1.0606   -4.4982 H   0  0  0  0  0  0  0  0  0  0  0  0
    0.7610    1.8275   -2.7626 H   0  0  0  0  0  0  0  0  0  0  0  0
   -3.0036    2.2514   -0.4767 H   0  0  0  0  0  0  0  0  0  0  0  0
   -5.9392    2.2415   -0.1247 H   0  0  0  0  0  0  0  0  0  0  0  0
   -6.2105    2.2794    2.3351 H   0  0  0  0  0  0  0  0  0  0  0  0
   -4.9294    1.0027    2.4597 H   0  0  0  0  0  0  0  0  0  0  0  0
   -2.7420    1.6951    2.7396 H   0  0  0  0  0  0  0  0  0  0  0  0
   -1.0967    3.5486    2.9755 H   0  0  0  0  0  0  0  0  0  0  0  0
   -1.7019    5.8723    2.3608 H   0  0  0  0  0  0  0  0  0  0  0  0
   -3.9792    6.3086    1.5105 H   0  0  0  0  0  0  0  0  0  0  0  0
   -5.6069    4.4398    1.2849 H   0  0  0  0  0  0  0  0  0  0  0  0
   -7.5320    0.7148   -0.0276 H   0  0  0  0  0  0  0  0  0  0  0  0
   -8.2345   -1.9001    0.2069 H   0  0  0  0  0  0  0  0  0  0  0  0
   -8.3549   -3.5996    1.5888 H   0  0  0  0  0  0  0  0  0  0  0  0
   -6.8610   -3.0082    2.0979 H   0  0  0  0  0  0  0  0  0  0  0  0
   -9.2177    0.2111    1.1396 H   0  0  0  0  0  0  0  0  0  0  0  0
   -8.8710   -0.4185    2.7772 H   0  0  0  0  0  0  0  0  0  0  0  0
  -10.9442   -0.9130   -0.2863 H   0  0  0  0  0  0  0  0  0  0  0  0
  -13.0189   -2.1548   -0.3510 H   0  0  0  0  0  0  0  0  0  0  0  0
  -13.7106   -3.4701    1.6203 H   0  0  0  0  0  0  0  0  0  0  0  0
  -12.3103   -3.5292    3.6468 H   0  0  0  0  0  0  0  0  0  0  0  0
  -10.2061   -2.2798    3.7264 H   0  0  0  0  0  0  0  0  0  0  0  0
    6.9577    0.5666    0.1370 H   0  0  0  0  0  0  0  0  0  0  0  0
    6.5995   -0.8770   -2.4833 H   0  0  0  0  0  0  0  0  0  0  0  0
    6.7751    1.5764   -2.8390 H   0  0  0  0  0  0  0  0  0  0  0  0
    8.2327    0.7127   -3.4328 H   0  0  0  0  0  0  0  0  0  0  0  0
   10.3441    1.1649   -2.3508 H   0  0  0  0  0  0  0  0  0  0  0  0
   11.7165    2.6893   -0.9396 H   0  0  0  0  0  0  0  0  0  0  0  0
   10.6274    4.3295    0.5482 H   0  0  0  0  0  0  0  0  0  0  0  0
    8.1781    4.3960    0.6001 H   0  0  0  0  0  0  0  0  0  0  0  0
    6.8026    2.8500   -0.8136 H   0  0  0  0  0  0  0  0  0  0  0  0
    9.0211   -1.6701   -3.5681 H   0  0  0  0  0  0  0  0  0  0  0  0
   10.2714   -1.9068   -2.2816 H   0  0  0  0  0  0  0  0  0  0  0  0
  1  2  1  0
  2  3  1  0
  2  4  1  0
  4  5  1  0
  5  6  1  0
  6  7  1  0
  7  8  2  0
  7  9  1  0
  9 10  1  0
 10 11  1  0
 11 12  1  0
 11 13  2  0
  9 14  1  0
 14 15  1  0
 15 16  2  0
 15 17  1  0
 17 18  1  0
 18 19  1  0
 19 20  2  0
 20 21  1  0
 21 22  2  0
 22 23  1  0
 23 24  2  0
 17 25  1  0
 25 26  1  0
 26 27  2  0
 26 28  1  0
 28 29  1  0
 29 30  1  0
 30 31  2  0
 31 32  1  0
 32 33  2  0
 33 34  1  0
 34 35  2  0
 28 36  1  0
 36 37  1  0
 37 38  2  0
 37 39  1  0
 39 40  1  0
 39 41  1  0
 41 42  1  0
 42 43  2  0
 43 44  1  0
 44 45  2  0
 45 46  1  0
 46 47  2  0
  5 48  1  0
 48 49  2  0
 48 50  1  0
 50 51  1  0
 51 52  1  0
 52 53  1  0
 53 54  2  0
 54 55  1  0
 55 56  2  0
 56 57  1  0
 57 58  2  0
 51 59  1  0
 59 60  1  0
 59 61  2  0
 24 19  1  0
 35 30  1  0
 47 42  1  0
 58 53  1  0
  1 62  1  0
  1 63  1  0
  1 64  1  0
  2 65  1  0
  3 66  1  0
  3 67  1  0
  3 68  1  0
  4 69  1  0
  4 70  1  0
  5 71  1  6
  6 72  1  0
  9 73  1  1
 10 74  1  0
 10 75  1  0
 12 76  1  0
 12 77  1  0
 14 78  1  0
 17 79  1  6
 18 80  1  0
 18 81  1  0
 20 82  1  0
 21 83  1  0
 22 84  1  0
 23 85  1  0
 24 86  1  0
 25 87  1  0
 28 88  1  6
 29 89  1  0
 29 90  1  0
 31 91  1  0
 32 92  1  0
 33 93  1  0
 34 94  1  0
 35 95  1  0
 36 96  1  0
 39 97  1  6
 40 98  1  0
 40 99  1  0
 41100  1  0
 41101  1  0
 43102  1  0
 44103  1  0
 45104  1  0
 46105  1  0
 47106  1  0
 50107  1  0
 51108  1  6
 52109  1  0
 52110  1  0
 54111  1  0
 55112  1  0
 56113  1  0
 57114  1  0
 58115  1  0
 60116  1  0
 60117  1  0
M  END
$$$$
[H]c1c([H])c([H])c(C([H])([H])OC(=O)N([H])[C@]([H])(C(=O)N([H])[C@]([H])(C(=O)N([H])[H])C([H])([H])c2c([H])n([H])c3c([H])c([H])c([H])c([H])c23)C([H])([H])C([H])(C([H])([H])[H])C([H])([H])[H])c([H])c1[H]
     RDKit          3D

 63 65  0  0  0  0  0  0  0  0999 V2000
    1.2109   -3.1494    2.5516 C   0  0  0  0  0  0  0  0  0  0  0  0
    1.6376   -3.6829    1.2426 C   0  0  0  0  0  0  0  0  0  0  0  0
    1.7055   -5.2066    1.3421 C   0  0  0  0  0  0  0  0  0  0  0  0
    0.8786   -3.3667    0.0288 C   0  0  0  0  0  0  0  0  0  0  0  0
    0.7946   -1.8640   -0.3886 C   0  0  2  0  0  0  0  0  0  0  0  0
    2.0939   -1.4244   -0.5951 N   0  0  0  0  0  0  0  0  0  0  0  0
    2.6315   -0.2204   -1.1325 C   0  0  0  0  0  0  0  0  0  0  0  0
    2.0974    0.8257   -1.3620 O   0  0  0  0  0  0  0  0  0  0  0  0
    3.9982   -0.2829   -1.4903 O   0  0  0  0  0  0  0  0  0  0  0  0
    4.7654    0.7317   -2.0289 C   0  0  0  0  0  0  0  0  0  0  0  0
    5.4285    1.6671   -1.1081 C   0  0  0  0  0  0  0  0  0  0  0  0
    6.3936    1.0278   -0.3091 C   0  0  0  0  0  0  0  0  0  0  0  0
    7.1974    1.7249    0.5507 C   0  0  0  0  0  0  0  0  0  0  0  0
    7.0591    3.0723    0.6365 C   0  0  0  0  0  0  0  0  0  0  0  0
    6.0985    3.7098   -0.1409 C   0  0  0  0  0  0  0  0  0  0  0  0
    5.2974    2.9887   -1.0072 C   0  0  0  0  0  0  0  0  0  0  0  0
   -0.3881   -1.2728    0.2098 C   0  0  0  0  0  0  0  0  0  0  0  0
   -1.0962   -2.0795    0.9300 O   0  0  0  0  0  0  0  0  0  0  0  0
   -0.7556    0.0288   -0.0022 N   0  0  0  0  0  0  0  0  0  0  0  0
   -1.9822    0.8251    0.2705 C   0  0  1  0  0  0  0  0  0  0  0  0
   -2.9798    0.0923   -0.4839 C   0  0  0  0  0  0  0  0  0  0  0  0
   -4.3082    0.3270   -0.8226 C   0  0  0  0  0  0  0  0  0  0  0  0
   -4.9991   -0.6448   -1.6229 C   0  0  0  0  0  0  0  0  0  0  0  0
   -6.2235   -0.1858   -1.8988 N   0  0  0  0  0  0  0  0  0  0  0  0
   -6.4066    1.0267   -1.3341 C   0  0  0  0  0  0  0  0  0  0  0  0
   -7.4529    1.9182   -1.3243 C   0  0  0  0  0  0  0  0  0  0  0  0
   -7.3987    3.1113   -0.6937 C   0  0  0  0  0  0  0  0  0  0  0  0
   -6.2000    3.4044   -0.0295 C   0  0  0  0  0  0  0  0  0  0  0  0
   -5.1331    2.5333   -0.0169 C   0  0  0  0  0  0  0  0  0  0  0  0
   -5.2356    1.3319   -0.6849 C   0  0  0  0  0  0  0  0  0  0  0  0
   -2.0607    0.8732    1.7100 C   0  0  0  0  0  0  0  0  0  0  0  0
   -2.3391    2.0688    2.4889 N   0  0  0  0  0  0  0  0  0  0  0  0
   -1.8668   -0.1654    2.4459 O   0  0  0  0  0  0  0  0  0  0  0  0
    1.1440   -2.0694    2.6478 H   0  0  0  0  0  0  0  0  0  0  0  0
    2.0124   -3.4806    3.2939 H   0  0  0  0  0  0  0  0  0  0  0  0
    0.3253   -3.7231    2.9109 H   0  0  0  0  0  0  0  0  0  0  0  0
    2.7636   -3.4222    1.1066 H   0  0  0  0  0  0  0  0  0  0  0  0
    0.7922   -5.6006    1.7877 H   0  0  0  0  0  0  0  0  0  0  0  0
    1.7891   -5.6884    0.3291 H   0  0  0  0  0  0  0  0  0  0  0  0
    2.6053   -5.5019    1.9628 H   0  0  0  0  0  0  0  0  0  0  0  0
    1.2866   -3.9298   -0.8266 H   0  0  0  0  0  0  0  0  0  0  0  0
   -0.1848   -3.6543    0.2046 H   0  0  0  0  0  0  0  0  0  0  0  0
    0.4143   -2.0002   -1.5060 H   0  0  0  0  0  0  0  0  0  0  0  0
    2.9050   -2.1025   -0.3065 H   0  0  0  0  0  0  0  0  0  0  0  0
    5.3942    0.4045   -2.9104 H   0  0  0  0  0  0  0  0  0  0  0  0
    3.9645    1.3884   -2.6102 H   0  0  0  0  0  0  0  0  0  0  0  0
    6.5037   -0.0606   -0.3505 H   0  0  0  0  0  0  0  0  0  0  0  0
    7.9204    1.1389    1.1303 H   0  0  0  0  0  0  0  0  0  0  0  0
    7.6848    3.6507    1.3002 H   0  0  0  0  0  0  0  0  0  0  0  0
    6.0129    4.8020   -0.0345 H   0  0  0  0  0  0  0  0  0  0  0  0
    4.5775    3.5376   -1.5899 H   0  0  0  0  0  0  0  0  0  0  0  0
    0.0326    0.7221   -0.2942 H   0  0  0  0  0  0  0  0  0  0  0  0
   -1.7278    1.8150   -0.2179 H   0  0  0  0  0  0  0  0  0  0  0  0
   -3.0084   -0.9548    0.0918 H   0  0  0  0  0  0  0  0  0  0  0  0
   -2.4539   -0.3037   -1.4302 H   0  0  0  0  0  0  0  0  0  0  0  0
   -4.5815   -1.5794   -1.9662 H   0  0  0  0  0  0  0  0  0  0  0  0
   -6.9387   -0.6601   -2.4834 H   0  0  0  0  0  0  0  0  0  0  0  0
   -8.3483    1.6222   -1.8745 H   0  0  0  0  0  0  0  0  0  0  0  0
   -8.2505    3.8202   -0.6613 H   0  0  0  0  0  0  0  0  0  0  0  0
   -6.1164    4.3444    0.4700 H   0  0  0  0  0  0  0  0  0  0  0  0
   -4.2189    2.7364    0.4559 H   0  0  0  0  0  0  0  0  0  0  0  0
   -2.9137    2.0824    3.3124 H   0  0  0  0  0  0  0  0  0  0  0  0
   -1.8474    2.9237    2.1273 H   0  0  0  0  0  0  0  0  0  0  0  0
  1  2  1  0
  2  3  1  0
  2  4  1  0
  4  5  1  0
  5  6  1  0
  6  7  1  0
  7  8  2  0
  7  9  1  0
  9 10  1  0
 10 11  1  0
 11 12  2  0
 12 13  1  0
 13 14  2  0
 14 15  1  0
 15 16  2  0
  5 17  1  0
 17 18  2  0
 17 19  1  0
 19 20  1  0
 20 21  1  0
 21 22  1  0
 22 23  2  0
 23 24  1  0
 24 25  1  0
 25 26  2  0
 26 27  1  0
 27 28  2  0
 28 29  1  0
 29 30  2  0
 20 31  1  0
 31 32  1  0
 31 33  2  0
 16 11  1  0
 30 22  1  0
 30 25  1  0
  1 34  1  0
  1 35  1  0
  1 36  1  0
  2 37  1  0
  3 38  1  0
  3 39  1  0
  3 40  1  0
  4 41  1  0
  4 42  1  0
  5 43  1  6
  6 44  1  0
 10 45  1  0
 10 46  1  0
 12 47  1  0
 13 48  1  0
 14 49  1  0
 15 50  1  0
 16 51  1  0
 19 52  1  0
 20 53  1  6
 21 54  1  0
 21 55  1  0
 23 56  1  0
 24 57  1  0
 26 58  1  0
 27 59  1  0
 28 60  1  0
 29 61  1  0
 32 62  1  0
 32 63  1  0
M  END
$$$$
[H]OC(=O)C([H])([H])[C@]([H])(C(=O)N1C([H])([H])C([H])([H])C([H])([H])[C@@]1([H])C(=O)N([H])[C@]([H])(C(=O)O[H])C([H])([H])[H])N([H])C(=O)[C@@]([H])(N([H])C(=O)[C@@]1([H])N(C(=O)[C@@]([H])(N([H])C(=O)C([H])([H])[H])C([H])([H])c2c([H])c([H])c([H])c([H])c2[H])C([H])([H])C([H])([H])C1([H])[H])C([H])([H])c1c([H])c([H])c([H])c([H])c1[H]
     RDKit          3D

 99102  0  0  0  0  0  0  0  0999 V2000
    8.7164    4.2779   -0.0649 C   0  0  0  0  0  0  0  0  0  0  0  0
    9.0278    2.8418    0.2996 C   0  0  2  0  0  0  0  0  0  0  0  0
    7.9102    2.2123    0.9745 N   0  0  0  0  0  0  0  0  0  0  0  0
    7.2632    1.0269    0.5590 C   0  0  0  0  0  0  0  0  0  0  0  0
    7.6896    0.4519   -0.4907 O   0  0  0  0  0  0  0  0  0  0  0  0
    6.1289    0.5247    1.3712 C   0  0  2  0  0  0  0  0  0  0  0  0
    6.6977    0.3195    2.7774 C   0  0  0  0  0  0  0  0  0  0  0  0
    7.5342   -0.9229    2.5418 C   0  0  0  0  0  0  0  0  0  0  0  0
    6.8166   -1.6507    1.4575 C   0  0  0  0  0  0  0  0  0  0  0  0
    5.6788   -0.7859    1.0344 N   0  0  0  0  0  0  0  0  0  0  0  0
    4.5124   -1.3004    0.4400 C   0  0  0  0  0  0  0  0  0  0  0  0
    4.4345   -2.5827    0.3436 O   0  0  0  0  0  0  0  0  0  0  0  0
    3.3827   -0.5493   -0.0785 C   0  0  1  0  0  0  0  0  0  0  0  0
    3.7893    0.3765   -1.2135 C   0  0  0  0  0  0  0  0  0  0  0  0
    4.3828   -0.3061   -2.3689 C   0  0  0  0  0  0  0  0  0  0  0  0
    4.5446   -1.6695   -2.3679 O   0  0  0  0  0  0  0  0  0  0  0  0
    4.7343    0.3804   -3.3494 O   0  0  0  0  0  0  0  0  0  0  0  0
    2.3053   -1.4311   -0.5297 N   0  0  0  0  0  0  0  0  0  0  0  0
    0.9524   -1.1312   -0.3874 C   0  0  0  0  0  0  0  0  0  0  0  0
    0.7340    0.0326    0.1741 O   0  0  0  0  0  0  0  0  0  0  0  0
   -0.2422   -1.8420   -0.7410 C   0  0  2  0  0  0  0  0  0  0  0  0
   -0.2757   -3.1792   -1.3188 C   0  0  0  0  0  0  0  0  0  0  0  0
    0.2280   -4.3183   -0.5649 C   0  0  0  0  0  0  0  0  0  0  0  0
   -0.6870   -4.8532    0.3687 C   0  0  0  0  0  0  0  0  0  0  0  0
   -0.3777   -5.9445    1.1293 C   0  0  0  0  0  0  0  0  0  0  0  0
    0.8190   -6.5584    1.0189 C   0  0  0  0  0  0  0  0  0  0  0  0
    1.7558   -6.0703    0.1129 C   0  0  0  0  0  0  0  0  0  0  0  0
    1.4143   -4.9641   -0.6435 C   0  0  0  0  0  0  0  0  0  0  0  0
   -1.1690   -0.9569   -1.4311 N   0  0  0  0  0  0  0  0  0  0  0  0
   -2.3548   -0.4238   -0.9240 C   0  0  0  0  0  0  0  0  0  0  0  0
   -2.7214   -0.6848    0.2411 O   0  0  0  0  0  0  0  0  0  0  0  0
   -3.2000    0.4604   -1.7632 C   0  0  2  0  0  0  0  0  0  0  0  0
   -2.3929    1.6282   -2.2541 C   0  0  0  0  0  0  0  0  0  0  0  0
   -3.1469    2.8545   -1.8136 C   0  0  0  0  0  0  0  0  0  0  0  0
   -3.9270    2.3482   -0.5843 C   0  0  0  0  0  0  0  0  0  0  0  0
   -4.3054    1.0315   -1.0386 N   0  0  0  0  0  0  0  0  0  0  0  0
   -5.5592    0.3824   -0.8247 C   0  0  0  0  0  0  0  0  0  0  0  0
   -5.7075   -0.7845   -1.3219 O   0  0  0  0  0  0  0  0  0  0  0  0
   -6.6923    0.9420   -0.0837 C   0  0  2  0  0  0  0  0  0  0  0  0
   -6.4084    1.1750    1.3885 C   0  0  0  0  0  0  0  0  0  0  0  0
   -7.6434    1.7469    2.0242 C   0  0  0  0  0  0  0  0  0  0  0  0
   -7.8386    3.1106    2.0637 C   0  0  0  0  0  0  0  0  0  0  0  0
   -8.9847    3.6482    2.6541 C   0  0  0  0  0  0  0  0  0  0  0  0
   -9.9185    2.7860    3.1971 C   0  0  0  0  0  0  0  0  0  0  0  0
   -9.7471    1.4176    3.1703 C   0  0  0  0  0  0  0  0  0  0  0  0
   -8.5972    0.9269    2.5759 C   0  0  0  0  0  0  0  0  0  0  0  0
   -7.8394    0.0147   -0.1133 N   0  0  0  0  0  0  0  0  0  0  0  0
   -9.0934    0.4000   -0.6435 C   0  0  0  0  0  0  0  0  0  0  0  0
  -10.2152   -0.5635   -0.6529 C   0  0  0  0  0  0  0  0  0  0  0  0
   -9.2314    1.5670   -1.1009 O   0  0  0  0  0  0  0  0  0  0  0  0
   10.2733    2.7291    1.0773 C   0  0  0  0  0  0  0  0  0  0  0  0
   11.4392    3.2916    0.6162 O   0  0  0  0  0  0  0  0  0  0  0  0
   10.2724    2.1170    2.1692 O   0  0  0  0  0  0  0  0  0  0  0  0
    9.3319    4.5662   -0.9278 H   0  0  0  0  0  0  0  0  0  0  0  0
    7.6391    4.3346   -0.3334 H   0  0  0  0  0  0  0  0  0  0  0  0
    8.8707    4.9467    0.8103 H   0  0  0  0  0  0  0  0  0  0  0  0
    9.2253    2.2996   -0.6711 H   0  0  0  0  0  0  0  0  0  0  0  0
    7.5934    2.7296    1.8525 H   0  0  0  0  0  0  0  0  0  0  0  0
    5.3477    1.3123    1.3804 H   0  0  0  0  0  0  0  0  0  0  0  0
    5.8450    0.0971    3.4254 H   0  0  0  0  0  0  0  0  0  0  0  0
    7.2843    1.1665    3.1323 H   0  0  0  0  0  0  0  0  0  0  0  0
    8.5662   -0.5984    2.2802 H   0  0  0  0  0  0  0  0  0  0  0  0
    7.5726   -1.4784    3.5043 H   0  0  0  0  0  0  0  0  0  0  0  0
    6.4699   -2.6194    1.8091 H   0  0  0  0  0  0  0  0  0  0  0  0
    7.4758   -1.8177    0.5714 H   0  0  0  0  0  0  0  0  0  0  0  0
    2.9537    0.1148    0.6841 H   0  0  0  0  0  0  0  0  0  0  0  0
    4.5148    1.0968   -0.8118 H   0  0  0  0  0  0  0  0  0  0  0  0
    2.9099    1.0178   -1.5158 H   0  0  0  0  0  0  0  0  0  0  0  0
    4.4307   -2.1806   -3.2384 H   0  0  0  0  0  0  0  0  0  0  0  0
    2.6221   -2.2925   -0.9843 H   0  0  0  0  0  0  0  0  0  0  0  0
   -0.8589   -1.9753    0.2922 H   0  0  0  0  0  0  0  0  0  0  0  0
    0.2383   -3.2178   -2.3265 H   0  0  0  0  0  0  0  0  0  0  0  0
   -1.3517   -3.4106   -1.6035 H   0  0  0  0  0  0  0  0  0  0  0  0
   -1.6600   -4.4083    0.5039 H   0  0  0  0  0  0  0  0  0  0  0  0
   -1.1087   -6.3425    1.8503 H   0  0  0  0  0  0  0  0  0  0  0  0
    1.0746   -7.4312    1.6259 H   0  0  0  0  0  0  0  0  0  0  0  0
    2.7146   -6.5612    0.0231 H   0  0  0  0  0  0  0  0  0  0  0  0
    2.1358   -4.5852   -1.3515 H   0  0  0  0  0  0  0  0  0  0  0  0
   -0.8771   -0.7105   -2.4300 H   0  0  0  0  0  0  0  0  0  0  0  0
   -3.5892   -0.1309   -2.6567 H   0  0  0  0  0  0  0  0  0  0  0  0
   -1.3692    1.6083   -1.8131 H   0  0  0  0  0  0  0  0  0  0  0  0
   -2.2510    1.6338   -3.3609 H   0  0  0  0  0  0  0  0  0  0  0  0
   -3.8942    3.1219   -2.5897 H   0  0  0  0  0  0  0  0  0  0  0  0
   -2.4843    3.6883   -1.5209 H   0  0  0  0  0  0  0  0  0  0  0  0
   -4.7927    3.0300   -0.4271 H   0  0  0  0  0  0  0  0  0  0  0  0
   -3.2707    2.2833    0.2878 H   0  0  0  0  0  0  0  0  0  0  0  0
   -7.0553    1.9012   -0.4996 H   0  0  0  0  0  0  0  0  0  0  0  0
   -6.1311    0.2428    1.9256 H   0  0  0  0  0  0  0  0  0  0  0  0
   -5.6300    1.9467    1.4855 H   0  0  0  0  0  0  0  0  0  0  0  0
   -7.0873    3.7804    1.6263 H   0  0  0  0  0  0  0  0  0  0  0  0
   -9.1166    4.7210    2.6727 H   0  0  0  0  0  0  0  0  0  0  0  0
  -10.7972    3.2512    3.6446 H   0  0  0  0  0  0  0  0  0  0  0  0
  -10.4746    0.7500    3.5929 H   0  0  0  0  0  0  0  0  0  0  0  0
   -8.4514   -0.1623    2.5471 H   0  0  0  0  0  0  0  0  0  0  0  0
   -7.7236   -0.9419    0.2656 H   0  0  0  0  0  0  0  0  0  0  0  0
  -10.3161   -1.0430   -1.6435 H   0  0  0  0  0  0  0  0  0  0  0  0
   -9.9944   -1.3491    0.0977 H   0  0  0  0  0  0  0  0  0  0  0  0
  -11.1919   -0.0697   -0.3792 H   0  0  0  0  0  0  0  0  0  0  0  0
   11.4996    4.1365    0.0607 H   0  0  0  0  0  0  0  0  0  0  0  0
  1  2  1  0
  2  3  1  0
  3  4  1  0
  4  5  2  0
  4  6  1  0
  6  7  1  0
  7  8  1  0
  8  9  1  0
  9 10  1  0
 10 11  1  0
 11 12  2  0
 11 13  1  0
 13 14  1  0
 14 15  1  0
 15 16  1  0
 15 17  2  0
 13 18  1  0
 18 19  1  0
 19 20  2  0
 19 21  1  0
 21 22  1  0
 22 23  1  0
 23 24  2  0
 24 25  1  0
 25 26  2  0
 26 27  1  0
 27 28  2  0
 21 29  1  0
 29 30  1  0
 30 31  2  0
 30 32  1  0
 32 33  1  0
 33 34  1  0
 34 35  1  0
 35 36  1  0
 36 37  1  0
 37 38  2  0
 37 39  1  0
 39 40  1  0
 40 41  1  0
 41 42  2  0
 42 43  1  0
 43 44  2  0
 44 45  1  0
 45 46  2  0
 39 47  1  0
 47 48  1  0
 48 49  1  0
 48 50  2  0
  2 51  1  0
 51 52  1  0
 51 53  2  0
 10  6  1  0
 28 23  1  0
 36 32  1  0
 46 41  1  0
  1 54  1  0
  1 55  1  0
  1 56  1  0
  2 57  1  6
  3 58  1  0
  6 59  1  1
  7 60  1  0
  7 61  1  0
  8 62  1  0
  8 63  1  0
  9 64  1  0
  9 65  1  0
 13 66  1  1
 14 67  1  0
 14 68  1  0
 16 69  1  0
 18 70  1  0
 21 71  1  1
 22 72  1  0
 22 73  1  0
 24 74  1  0
 25 75  1  0
 26 76  1  0
 27 77  1  0
 28 78  1  0
 29 79  1  0
 32 80  1  6
 33 81  1  0
 33 82  1  0
 34 83  1  0
 34 84  1  0
 35 85  1  0
 35 86  1  0
 39 87  1  6
 40 88  1  0
 40 89  1  0
 42 90  1  0
 43 91  1  0
 44 92  1  0
 45 93  1  0
 46 94  1  0
 47 95  1  0
 49 96  1  0
 49 97  1  0
 49 98  1  0
 52 99  1  0
M  END
$$$$
[H]N=C(N([H])[H])N([H])C([H])([H])C([H])([H])C([H])([H])[C@@]([H])(C(=O)N([H])[C@]([H])(C(=O)O[H])C([H])([H])C([H])(C([H])([H])[H])C([H])([H])[H])N([H])C(=O)[C@@]([H])(N([H])C(=O)[C@@]1([H])N(C(=O)OC([H])([H])c2c([H])c([H])c([H])c([H])c2[H])C([H])([H])C([H])([H])C1([H])[H])C([H])([H])C([H])(C([H])([H])[H])C([H])([H])[H]
     RDKit          3D

 94 95  0  0  0  0  0  0  0  0999 V2000
    2.5473   -2.6348    2.8997 C   0  0  0  0  0  0  0  0  0  0  0  0
    1.1560   -2.2460    3.2147 C   0  0  0  0  0  0  0  0  0  0  0  0
    1.2345   -1.2504    4.3842 C   0  0  0  0  0  0  0  0  0  0  0  0
    0.3660   -1.5821    2.1491 C   0  0  0  0  0  0  0  0  0  0  0  0
    0.1462   -2.3333    0.8903 C   0  0  2  0  0  0  0  0  0  0  0  0
    1.2940   -2.7045    0.1401 N   0  0  0  0  0  0  0  0  0  0  0  0
    2.2599   -1.7935   -0.4257 C   0  0  0  0  0  0  0  0  0  0  0  0
    2.0351   -0.5929   -0.1976 O   0  0  0  0  0  0  0  0  0  0  0  0
    3.3847   -2.2468   -1.1921 C   0  0  2  0  0  0  0  0  0  0  0  0
    4.2728   -3.2702   -0.4793 C   0  0  0  0  0  0  0  0  0  0  0  0
    5.3823   -3.4280   -1.5117 C   0  0  0  0  0  0  0  0  0  0  0  0
    5.1923   -2.3104   -2.5271 C   0  0  0  0  0  0  0  0  0  0  0  0
    4.3518   -1.3726   -1.7148 N   0  0  0  0  0  0  0  0  0  0  0  0
    4.6690   -0.0155   -1.6512 C   0  0  0  0  0  0  0  0  0  0  0  0
    5.7019    0.3974   -2.3327 O   0  0  0  0  0  0  0  0  0  0  0  0
    4.0526    0.9870   -0.9670 O   0  0  0  0  0  0  0  0  0  0  0  0
    4.3567    2.3355   -0.8957 C   0  0  0  0  0  0  0  0  0  0  0  0
    5.6696    2.6915   -0.3669 C   0  0  0  0  0  0  0  0  0  0  0  0
    5.9093    2.6424    0.9828 C   0  0  0  0  0  0  0  0  0  0  0  0
    7.1518    2.9865    1.5161 C   0  0  0  0  0  0  0  0  0  0  0  0
    8.1601    3.3846    0.6630 C   0  0  0  0  0  0  0  0  0  0  0  0
    7.9074    3.4287   -0.6776 C   0  0  0  0  0  0  0  0  0  0  0  0
    6.6783    3.0884   -1.2051 C   0  0  0  0  0  0  0  0  0  0  0  0
   -0.7964   -1.5445    0.0221 C   0  0  0  0  0  0  0  0  0  0  0  0
   -0.4991   -1.2728   -1.1906 O   0  0  0  0  0  0  0  0  0  0  0  0
   -2.0144   -1.1064    0.5531 N   0  0  0  0  0  0  0  0  0  0  0  0
   -2.9980   -0.3392   -0.1814 C   0  0  1  0  0  0  0  0  0  0  0  0
   -4.2431   -1.1583   -0.5056 C   0  0  0  0  0  0  0  0  0  0  0  0
   -3.8274   -2.3325   -1.3462 C   0  0  0  0  0  0  0  0  0  0  0  0
   -4.9979   -3.2084   -1.7213 C   0  0  0  0  0  0  0  0  0  0  0  0
   -4.5676   -4.3212   -2.5346 N   0  0  0  0  0  0  0  0  0  0  0  0
   -3.7657   -5.3836   -2.0753 C   0  0  0  0  0  0  0  0  0  0  0  0
   -3.9724   -5.9337   -0.7846 N   0  0  0  0  0  0  0  0  0  0  0  0
   -2.8477   -5.8476   -2.8369 N   0  0  0  0  0  0  0  0  0  0  0  0
   -3.3579    0.9249    0.4545 C   0  0  0  0  0  0  0  0  0  0  0  0
   -2.8002    1.2320    1.5505 O   0  0  0  0  0  0  0  0  0  0  0  0
   -4.2968    1.8401   -0.0747 N   0  0  0  0  0  0  0  0  0  0  0  0
   -4.6254    3.1049    0.6086 C   0  0  1  0  0  0  0  0  0  0  0  0
   -4.3536    4.2630   -0.3051 C   0  0  0  0  0  0  0  0  0  0  0  0
   -4.6345    5.6112    0.2538 C   0  0  0  0  0  0  0  0  0  0  0  0
   -3.7918    5.8630    1.5060 C   0  0  0  0  0  0  0  0  0  0  0  0
   -4.1505    6.6873   -0.7433 C   0  0  0  0  0  0  0  0  0  0  0  0
   -6.0702    3.0480    0.9199 C   0  0  0  0  0  0  0  0  0  0  0  0
   -6.7672    4.0400    1.6063 O   0  0  0  0  0  0  0  0  0  0  0  0
   -6.7507    2.0408    0.5527 O   0  0  0  0  0  0  0  0  0  0  0  0
    3.0441   -2.9529    3.8534 H   0  0  0  0  0  0  0  0  0  0  0  0
    2.6564   -3.4738    2.2032 H   0  0  0  0  0  0  0  0  0  0  0  0
    3.1213   -1.7250    2.5876 H   0  0  0  0  0  0  0  0  0  0  0  0
    0.6075   -3.1285    3.6494 H   0  0  0  0  0  0  0  0  0  0  0  0
    1.3947   -1.8357    5.3174 H   0  0  0  0  0  0  0  0  0  0  0  0
    0.3141   -0.6679    4.3850 H   0  0  0  0  0  0  0  0  0  0  0  0
    2.1078   -0.5962    4.2127 H   0  0  0  0  0  0  0  0  0  0  0  0
    0.7901   -0.5687    1.8903 H   0  0  0  0  0  0  0  0  0  0  0  0
   -0.6247   -1.3082    2.6223 H   0  0  0  0  0  0  0  0  0  0  0  0
   -0.4205   -3.3010    1.0771 H   0  0  0  0  0  0  0  0  0  0  0  0
    1.5129   -3.7314   -0.0534 H   0  0  0  0  0  0  0  0  0  0  0  0
    2.9528   -2.7842   -2.1271 H   0  0  0  0  0  0  0  0  0  0  0  0
    3.6927   -4.1892   -0.3358 H   0  0  0  0  0  0  0  0  0  0  0  0
    4.6119   -2.8265    0.4558 H   0  0  0  0  0  0  0  0  0  0  0  0
    5.2299   -4.4357   -1.9765 H   0  0  0  0  0  0  0  0  0  0  0  0
    6.3817   -3.3102   -1.0848 H   0  0  0  0  0  0  0  0  0  0  0  0
    6.1280   -1.8542   -2.8343 H   0  0  0  0  0  0  0  0  0  0  0  0
    4.5379   -2.6551   -3.3533 H   0  0  0  0  0  0  0  0  0  0  0  0
    4.1684    2.7664   -1.9149 H   0  0  0  0  0  0  0  0  0  0  0  0
    3.5375    2.8078   -0.2714 H   0  0  0  0  0  0  0  0  0  0  0  0
    5.1283    2.3296    1.6905 H   0  0  0  0  0  0  0  0  0  0  0  0
    7.3611    2.9554    2.5695 H   0  0  0  0  0  0  0  0  0  0  0  0
    9.1236    3.6503    1.0895 H   0  0  0  0  0  0  0  0  0  0  0  0
    8.6951    3.7384   -1.3308 H   0  0  0  0  0  0  0  0  0  0  0  0
    6.5757    3.1575   -2.2922 H   0  0  0  0  0  0  0  0  0  0  0  0
   -2.2683   -1.3328    1.5325 H   0  0  0  0  0  0  0  0  0  0  0  0
   -2.5345   -0.1409   -1.1886 H   0  0  0  0  0  0  0  0  0  0  0  0
   -4.9224   -0.5255   -1.0768 H   0  0  0  0  0  0  0  0  0  0  0  0
   -4.7076   -1.5001    0.4433 H   0  0  0  0  0  0  0  0  0  0  0  0
   -3.1512   -2.9577   -0.7170 H   0  0  0  0  0  0  0  0  0  0  0  0
   -3.3455   -1.9898   -2.2719 H   0  0  0  0  0  0  0  0  0  0  0  0
   -5.4821   -3.6579   -0.8158 H   0  0  0  0  0  0  0  0  0  0  0  0
   -5.7958   -2.6341   -2.2229 H   0  0  0  0  0  0  0  0  0  0  0  0
   -4.8710   -4.3397   -3.5330 H   0  0  0  0  0  0  0  0  0  0  0  0
   -3.6795   -6.9014   -0.5731 H   0  0  0  0  0  0  0  0  0  0  0  0
   -4.4224   -5.3610   -0.0428 H   0  0  0  0  0  0  0  0  0  0  0  0
   -2.2580   -6.6240   -2.5075 H   0  0  0  0  0  0  0  0  0  0  0  0
   -4.7779    1.6447   -0.9570 H   0  0  0  0  0  0  0  0  0  0  0  0
   -4.0280    3.1893    1.5367 H   0  0  0  0  0  0  0  0  0  0  0  0
   -4.9244    4.1770   -1.2673 H   0  0  0  0  0  0  0  0  0  0  0  0
   -3.2697    4.2663   -0.6271 H   0  0  0  0  0  0  0  0  0  0  0  0
   -5.6942    5.8375    0.4363 H   0  0  0  0  0  0  0  0  0  0  0  0
   -2.9279    5.1830    1.4428 H   0  0  0  0  0  0  0  0  0  0  0  0
   -3.4218    6.9072    1.5502 H   0  0  0  0  0  0  0  0  0  0  0  0
   -4.4293    5.6733    2.3875 H   0  0  0  0  0  0  0  0  0  0  0  0
   -4.2598    6.3367   -1.7863 H   0  0  0  0  0  0  0  0  0  0  0  0
   -4.7459    7.6064   -0.6110 H   0  0  0  0  0  0  0  0  0  0  0  0
   -3.0922    6.9419   -0.5702 H   0  0  0  0  0  0  0  0  0  0  0  0
   -7.3702    3.7728    2.3635 H   0  0  0  0  0  0  0  0  0  0  0  0
  1  2  1  0
  2  3  1  0
  2  4  1  0
  4  5  1  0
  5  6  1  0
  6  7  1  0
  7  8  2  0
  7  9  1  0
  9 10  1  0
 10 11  1  0
 11 12  1  0
 12 13  1  0
 13 14  1  0
 14 15  2  0
 14 16  1  0
 16 17  1  0
 17 18  1  0
 18 19  2  0
 19 20  1  0
 20 21  2  0
 21 22  1  0
 22 23  2  0
  5 24  1  0
 24 25  2  0
 24 26  1  0
 26 27  1  0
 27 28  1  0
 28 29  1  0
 29 30  1  0
 30 31  1  0
 31 32  1  0
 32 33  1  0
 32 34  2  3
 27 35  1  0
 35 36  2  0
 35 37  1  0
 37 38  1  0
 38 39  1  0
 39 40  1  0
 40 41  1  0
 40 42  1  0
 38 43  1  0
 43 44  1  0
 43 45  2  0
 13  9  1  0
 23 18  1  0
  1 46  1  0
  1 47  1  0
  1 48  1  0
  2 49  1  0
  3 50  1  0
  3 51  1  0
  3 52  1  0
  4 53  1  0
  4 54  1  0
  5 55  1  1
  6 56  1  0
  9 57  1  6
 10 58  1  0
 10 59  1  0
 11 60  1  0
 11 61  1  0
 12 62  1  0
 12 63  1  0
 17 64  1  0
 17 65  1  0
 19 66  1  0
 20 67  1  0
 21 68  1  0
 22 69  1  0
 23 70  1  0
 26 71  1  0
 27 72  1  6
 28 73  1  0
 28 74  1  0
 29 75  1  0
 29 76  1  0
 30 77  1  0
 30 78  1  0
 31 79  1  0
 33 80  1  0
 33 81  1  0
 34 82  1  0
 37 83  1  0
 38 84  1  1
 39 85  1  0
 39 86  1  0
 40 87  1  0
 41 88  1  0
 41 89  1  0
 41 90  1  0
 42 91  1  0
 42 92  1  0
 42 93  1  0
 44 94  1  0
M  END
$$$$
[H]OC(=O)C([H])([H])[C@@]([H])(C(=O)O[H])N([H])C(=O)[C@@]([H])(N([H])C(=O)[C@@]([H])(N([H])C(=O)[C@@]1([H])N(C(=O)[C@@]([H])(N([H])C(=O)[C@@]([H])(N([H])C(=O)[C@@]([H])(N([H])[H])C([H])([H])C([H])([H])C([H])([H])N=C(N([H])[H])N([H])[H])C([H])([H])C([H])([H])C([H])([H])N=C(N([H])[H])N([H])[H])C([H])([H])C(=O)O[H])C([H])([H])C([H])([H])C1([H])[H])[C@@]([H])(C([H])([H])[H])C([H])([H])C([H])([H])[H])C([H])([H])C([H])(C([H])([H])[H])C([H])([H])[H]
     RDKit          3D

127127  0  0  0  0  0  0  0  0999 V2000
   -5.9726    3.1602    0.3535 C   0  0  0  0  0  0  0  0  0  0  0  0
   -4.9999    2.8274    1.4045 C   0  0  0  0  0  0  0  0  0  0  0  0
   -4.8949    1.4438    1.9070 C   0  0  2  0  0  0  0  0  0  0  0  0
   -3.8174    1.3224    2.9710 C   0  0  0  0  0  0  0  0  0  0  0  0
   -4.8608    0.3250    0.9437 C   0  0  2  0  0  0  0  0  0  0  0  0
   -3.8714    0.3741   -0.0747 N   0  0  0  0  0  0  0  0  0  0  0  0
   -2.5498   -0.1618   -0.0188 C   0  0  0  0  0  0  0  0  0  0  0  0
   -2.2330   -0.7091    1.0486 O   0  0  0  0  0  0  0  0  0  0  0  0
   -1.6117   -0.0817   -1.1454 C   0  0  2  0  0  0  0  0  0  0  0  0
   -1.8356   -1.2466   -2.1244 C   0  0  0  0  0  0  0  0  0  0  0  0
   -1.2176   -2.4119   -1.3776 C   0  0  0  0  0  0  0  0  0  0  0  0
   -0.1881   -1.8026   -0.4595 C   0  0  0  0  0  0  0  0  0  0  0  0
   -0.2673   -0.3909   -0.7373 N   0  0  0  0  0  0  0  0  0  0  0  0
    0.8452    0.5358   -0.6859 C   0  0  0  0  0  0  0  0  0  0  0  0
    0.6474    1.6972   -1.0843 O   0  0  0  0  0  0  0  0  0  0  0  0
    2.1363    0.1029   -0.1865 C   0  0  2  0  0  0  0  0  0  0  0  0
    2.1001    0.0512    1.3789 C   0  0  0  0  0  0  0  0  0  0  0  0
    1.7974    1.3861    1.9065 C   0  0  0  0  0  0  0  0  0  0  0  0
    2.7476    2.2400    2.4387 O   0  0  0  0  0  0  0  0  0  0  0  0
    0.6058    1.8177    1.8903 O   0  0  0  0  0  0  0  0  0  0  0  0
    3.2058    1.0440   -0.4461 N   0  0  0  0  0  0  0  0  0  0  0  0
    4.5570    0.6709   -0.5648 C   0  0  0  0  0  0  0  0  0  0  0  0
    4.8549   -0.5409   -0.4099 O   0  0  0  0  0  0  0  0  0  0  0  0
    5.6650    1.6679   -0.8733 C   0  0  2  0  0  0  0  0  0  0  0  0
    5.3521    2.1901   -2.2104 C   0  0  0  0  0  0  0  0  0  0  0  0
    6.1773    3.1914   -2.9027 C   0  0  0  0  0  0  0  0  0  0  0  0
    7.5543    2.7425   -3.1988 C   0  0  0  0  0  0  0  0  0  0  0  0
    8.3126    3.7385   -3.9763 N   0  0  0  0  0  0  0  0  0  0  0  0
    8.7732    4.7519   -3.3758 C   0  0  0  0  0  0  0  0  0  0  0  0
    8.5778    4.9468   -1.9959 N   0  0  0  0  0  0  0  0  0  0  0  0
    9.5171    5.7175   -4.1066 N   0  0  0  0  0  0  0  0  0  0  0  0
    6.9321    1.0019   -0.7801 N   0  0  0  0  0  0  0  0  0  0  0  0
    7.8407    1.1892    0.2855 C   0  0  0  0  0  0  0  0  0  0  0  0
    7.5583    1.9664    1.2071 O   0  0  0  0  0  0  0  0  0  0  0  0
    9.1159    0.4681    0.2960 C   0  0  1  0  0  0  0  0  0  0  0  0
   10.0229    0.9899    1.3196 N   0  0  0  0  0  0  0  0  0  0  0  0
    8.8520   -1.0069    0.5511 C   0  0  0  0  0  0  0  0  0  0  0  0
   10.1787   -1.7372    0.5489 C   0  0  0  0  0  0  0  0  0  0  0  0
    9.8576   -3.2087    0.8467 C   0  0  0  0  0  0  0  0  0  0  0  0
    9.2350   -3.2155    2.1425 N   0  0  0  0  0  0  0  0  0  0  0  0
    9.9150   -3.3147    3.2288 C   0  0  0  0  0  0  0  0  0  0  0  0
   11.3353   -3.4233    3.2141 N   0  0  0  0  0  0  0  0  0  0  0  0
    9.2256   -3.3142    4.4645 N   0  0  0  0  0  0  0  0  0  0  0  0
   -6.1639   -0.2089    0.5489 C   0  0  0  0  0  0  0  0  0  0  0  0
   -6.3394   -0.3916   -0.6950 O   0  0  0  0  0  0  0  0  0  0  0  0
   -7.2256   -0.5475    1.4327 N   0  0  0  0  0  0  0  0  0  0  0  0
   -8.4815   -1.1066    1.1147 C   0  0  1  0  0  0  0  0  0  0  0  0
   -9.5964   -0.2831    0.6396 C   0  0  0  0  0  0  0  0  0  0  0  0
  -10.1217    0.7617    1.5777 C   0  0  0  0  0  0  0  0  0  0  0  0
   -9.1808    1.8192    1.9959 C   0  0  0  0  0  0  0  0  0  0  0  0
  -11.3365    1.4263    0.9300 C   0  0  0  0  0  0  0  0  0  0  0  0
   -8.3256   -2.3612    0.2793 C   0  0  0  0  0  0  0  0  0  0  0  0
   -7.1716   -2.8009    0.0930 O   0  0  0  0  0  0  0  0  0  0  0  0
   -9.4019   -3.0588   -0.2976 N   0  0  0  0  0  0  0  0  0  0  0  0
   -9.2044   -4.2335   -1.0826 C   0  0  1  0  0  0  0  0  0  0  0  0
   -8.3828   -3.9340   -2.2976 C   0  0  0  0  0  0  0  0  0  0  0  0
   -9.0718   -2.9056   -3.1254 C   0  0  0  0  0  0  0  0  0  0  0  0
   -8.4827   -2.5292   -4.3213 O   0  0  0  0  0  0  0  0  0  0  0  0
  -10.1548   -2.4028   -2.7399 O   0  0  0  0  0  0  0  0  0  0  0  0
   -8.6417   -5.3616   -0.2905 C   0  0  0  0  0  0  0  0  0  0  0  0
   -8.3520   -6.5587   -0.9051 O   0  0  0  0  0  0  0  0  0  0  0  0
   -8.4327   -5.2161    0.9417 O   0  0  0  0  0  0  0  0  0  0  0  0
   -5.4960    3.8844   -0.3856 H   0  0  0  0  0  0  0  0  0  0  0  0
   -6.8320    3.7947    0.7528 H   0  0  0  0  0  0  0  0  0  0  0  0
   -6.4585    2.3494   -0.1802 H   0  0  0  0  0  0  0  0  0  0  0  0
   -3.9951    3.2643    1.1287 H   0  0  0  0  0  0  0  0  0  0  0  0
   -5.2739    3.4663    2.3120 H   0  0  0  0  0  0  0  0  0  0  0  0
   -5.8681    1.3101    2.5424 H   0  0  0  0  0  0  0  0  0  0  0  0
   -2.8272    1.6289    2.6358 H   0  0  0  0  0  0  0  0  0  0  0  0
   -4.1509    1.8763    3.8906 H   0  0  0  0  0  0  0  0  0  0  0  0
   -3.7975    0.2414    3.2500 H   0  0  0  0  0  0  0  0  0  0  0  0
   -4.4489   -0.5579    1.6506 H   0  0  0  0  0  0  0  0  0  0  0  0
   -4.1476    0.8583   -0.9811 H   0  0  0  0  0  0  0  0  0  0  0  0
   -1.6705    0.8958   -1.6804 H   0  0  0  0  0  0  0  0  0  0  0  0
   -2.8756   -1.3809   -2.3980 H   0  0  0  0  0  0  0  0  0  0  0  0
   -1.2304   -1.0460   -3.0240 H   0  0  0  0  0  0  0  0  0  0  0  0
   -0.6911   -3.0997   -2.0778 H   0  0  0  0  0  0  0  0  0  0  0  0
   -1.9737   -3.0218   -0.8407 H   0  0  0  0  0  0  0  0  0  0  0  0
    0.8492   -2.1902   -0.7300 H   0  0  0  0  0  0  0  0  0  0  0  0
   -0.4175   -2.0491    0.5784 H   0  0  0  0  0  0  0  0  0  0  0  0
    2.4466   -0.9146   -0.4520 H   0  0  0  0  0  0  0  0  0  0  0  0
    1.3866   -0.7103    1.7002 H   0  0  0  0  0  0  0  0  0  0  0  0
    3.1086   -0.2315    1.6821 H   0  0  0  0  0  0  0  0  0  0  0  0
    3.5020    2.5256    1.8152 H   0  0  0  0  0  0  0  0  0  0  0  0
    2.9526    2.0441   -0.5473 H   0  0  0  0  0  0  0  0  0  0  0  0
    5.5962    2.4394   -0.1013 H   0  0  0  0  0  0  0  0  0  0  0  0
    4.2551    2.5624   -2.2373 H   0  0  0  0  0  0  0  0  0  0  0  0
    5.2474    1.3201   -2.9703 H   0  0  0  0  0  0  0  0  0  0  0  0
    6.1462    4.1510   -2.3179 H   0  0  0  0  0  0  0  0  0  0  0  0
    5.6609    3.3925   -3.9013 H   0  0  0  0  0  0  0  0  0  0  0  0
    8.1539    2.6495   -2.2726 H   0  0  0  0  0  0  0  0  0  0  0  0
    7.5302    1.8354   -3.8061 H   0  0  0  0  0  0  0  0  0  0  0  0
    8.8708    4.2659   -1.2525 H   0  0  0  0  0  0  0  0  0  0  0  0
    8.1073    5.8233   -1.6176 H   0  0  0  0  0  0  0  0  0  0  0  0
    9.1604    6.7003   -4.1732 H   0  0  0  0  0  0  0  0  0  0  0  0
   10.4314    5.4901   -4.5997 H   0  0  0  0  0  0  0  0  0  0  0  0
    7.1904    0.3449   -1.5404 H   0  0  0  0  0  0  0  0  0  0  0  0
    9.6191    0.5586   -0.6764 H   0  0  0  0  0  0  0  0  0  0  0  0
   10.9984    0.7106    1.0201 H   0  0  0  0  0  0  0  0  0  0  0  0
    9.7351    0.6210    2.2291 H   0  0  0  0  0  0  0  0  0  0  0  0
    8.2823   -1.3901   -0.3168 H   0  0  0  0  0  0  0  0  0  0  0  0
    8.3191   -1.1131    1.4990 H   0  0  0  0  0  0  0  0  0  0  0  0
   10.6253   -1.7515   -0.4629 H   0  0  0  0  0  0  0  0  0  0  0  0
   10.8920   -1.3082    1.2509 H   0  0  0  0  0  0  0  0  0  0  0  0
   10.7314   -3.8589    0.7554 H   0  0  0  0  0  0  0  0  0  0  0  0
    9.0647   -3.4910    0.1015 H   0  0  0  0  0  0  0  0  0  0  0  0
   11.8478   -3.6715    4.0943 H   0  0  0  0  0  0  0  0  0  0  0  0
   11.8524   -3.2572    2.3414 H   0  0  0  0  0  0  0  0  0  0  0  0
    9.6059   -3.7409    5.3358 H   0  0  0  0  0  0  0  0  0  0  0  0
    8.2700   -2.8672    4.5519 H   0  0  0  0  0  0  0  0  0  0  0  0
   -7.0077   -0.3656    2.4609 H   0  0  0  0  0  0  0  0  0  0  0  0
   -8.8715   -1.6049    2.1104 H   0  0  0  0  0  0  0  0  0  0  0  0
   -9.3314    0.2286   -0.3593 H   0  0  0  0  0  0  0  0  0  0  0  0
  -10.4957   -0.8909    0.3249 H   0  0  0  0  0  0  0  0  0  0  0  0
  -10.5035    0.2213    2.4907 H   0  0  0  0  0  0  0  0  0  0  0  0
   -8.8359    2.3563    1.0727 H   0  0  0  0  0  0  0  0  0  0  0  0
   -8.3818    1.4511    2.6202 H   0  0  0  0  0  0  0  0  0  0  0  0
   -9.7743    2.5574    2.6216 H   0  0  0  0  0  0  0  0  0  0  0  0
  -11.9626    1.8186    1.7500 H   0  0  0  0  0  0  0  0  0  0  0  0
  -10.9715    2.3111    0.3502 H   0  0  0  0  0  0  0  0  0  0  0  0
  -11.8790    0.6952    0.3025 H   0  0  0  0  0  0  0  0  0  0  0  0
  -10.3745   -2.7270   -0.1515 H   0  0  0  0  0  0  0  0  0  0  0  0
  -10.2146   -4.6143   -1.4130 H   0  0  0  0  0  0  0  0  0  0  0  0
   -7.3542   -3.6237   -2.1159 H   0  0  0  0  0  0  0  0  0  0  0  0
   -8.3187   -4.8786   -2.9202 H   0  0  0  0  0  0  0  0  0  0  0  0
   -7.5433   -2.7866   -4.5849 H   0  0  0  0  0  0  0  0  0  0  0  0
   -7.5731   -6.6028   -1.5448 H   0  0  0  0  0  0  0  0  0  0  0  0
  1  2  1  0
  2  3  1  0
  3  4  1  0
  3  5  1  0
  5  6  1  0
  6  7  1  0
  7  8  2  0
  7  9  1  0
  9 10  1  0
 10 11  1  0
 11 12  1  0
 12 13  1  0
 13 14  1  0
 14 15  2  0
 14 16  1  0
 16 17  1  0
 17 18  1  0
 18 19  1  0
 18 20  2  0
 16 21  1  0
 21 22  1  0
 22 23  2  0
 22 24  1  0
 24 25  1  0
 25 26  1  0
 26 27  1  0
 27 28  1  0
 28 29  2  3
 29 30  1  0
 29 31  1  0
 24 32  1  0
 32 33  1  0
 33 34  2  0
 33 35  1  0
 35 36  1  0
 35 37  1  0
 37 38  1  0
 38 39  1  0
 39 40  1  0
 40 41  2  3
 41 42  1  0
 41 43  1  0
  5 44  1  0
 44 45  2  0
 44 46  1  0
 46 47  1  0
 47 48  1  0
 48 49  1  0
 49 50  1  0
 49 51  1  0
 47 52  1  0
 52 53  2  0
 52 54  1  0
 54 55  1  0
 55 56  1  0
 56 57  1  0
 57 58  1  0
 57 59  2  0
 55 60  1  0
 60 61  1  0
 60 62  2  0
 13  9  1  0
  1 63  1  0
  1 64  1  0
  1 65  1  0
  2 66  1  0
  2 67  1  0
  3 68  1  1
  4 69  1  0
  4 70  1  0
  4 71  1  0
  5 72  1  1
  6 73  1  0
  9 74  1  6
 10 75  1  0
 10 76  1  0
 11 77  1  0
 11 78  1  0
 12 79  1  0
 12 80  1  0
 16 81  1  6
 17 82  1  0
 17 83  1  0
 19 84  1  0
 21 85  1  0
 24 86  1  1
 25 87  1  0
 25 88  1  0
 26 89  1  0
 26 90  1  0
 27 91  1  0
 27 92  1  0
 30 93  1  0
 30 94  1  0
 31 95  1  0
 31 96  1  0
 32 97  1  0
 35 98  1  6
 36 99  1  0
 36100  1  0
 37101  1  0
 37102  1  0
 38103  1  0
 38104  1  0
 39105  1  0
 39106  1  0
 42107  1  0
 42108  1  0
 43109  1  0
 43110  1  0
 46111  1  0
 47112  1  1
 48113  1  0
 48114  1  0
 49115  1  0
 50116  1  0
 50117  1  0
 50118  1  0
 51119  1  0
 51120  1  0
 51121  1  0
 54122  1  0
 55123  1  6
 56124  1  0
 56125  1  0
 58126  1  0
 61127  1  0
M  END
$$$$
[H]Oc1c([H])c([H])c(C([H])([H])[C@@]2([H])C(=O)N3C([H])([H])C([H])([H])C([H])([H])[C@@]3([H])C(=O)N([H])[C@@]([H])(C([H])([H])c3c([H])c([H])c(O[H])c([H])c3[H])C(=O)N([H])[C@@]([H])([C@@]([H])(C([H])([H])[H])C([H])([H])C([H])([H])[H])C(=O)N([H])[C@@]([H])(C([H])([H])c3c([H])c([H])c([H])c([H])c3[H])C(=O)N3C([H])([H])C([H])([H])C([H])([H])[C@@]3([H])C(=O)N2[H])c([H])c1[H]
     RDKit          3D

109114  0  0  0  0  0  0  0  0999 V2000
   -5.6396    2.7243   -1.2059 C   0  0  0  0  0  0  0  0  0  0  0  0
   -4.2530    2.4456   -0.7245 C   0  0  0  0  0  0  0  0  0  0  0  0
   -4.1858    1.2478    0.1826 C   0  0  2  0  0  0  0  0  0  0  0  0
   -5.0415    1.4760    1.3765 C   0  0  0  0  0  0  0  0  0  0  0  0
   -2.7992    0.7485    0.4461 C   0  0  2  0  0  0  0  0  0  0  0  0
   -2.9381   -0.4062    1.3485 N   0  0  0  0  0  0  0  0  0  0  0  0
   -2.5393   -1.7109    1.0664 C   0  0  0  0  0  0  0  0  0  0  0  0
   -2.6031   -2.5529    2.0120 O   0  0  0  0  0  0  0  0  0  0  0  0
   -2.0486   -2.1850   -0.2495 C   0  0  2  0  0  0  0  0  0  0  0  0
   -3.2738   -2.4398   -1.1511 C   0  0  0  0  0  0  0  0  0  0  0  0
   -4.1777   -3.4521   -0.5970 C   0  0  0  0  0  0  0  0  0  0  0  0
   -4.0387   -4.7918   -0.8819 C   0  0  0  0  0  0  0  0  0  0  0  0
   -4.9057   -5.7151   -0.3374 C   0  0  0  0  0  0  0  0  0  0  0  0
   -5.9202   -5.3186    0.4959 C   0  0  0  0  0  0  0  0  0  0  0  0
   -6.7828   -6.2454    1.0374 O   0  0  0  0  0  0  0  0  0  0  0  0
   -6.0836   -3.9902    0.7974 C   0  0  0  0  0  0  0  0  0  0  0  0
   -5.2024   -3.0811    0.2399 C   0  0  0  0  0  0  0  0  0  0  0  0
   -1.4072   -3.4699   -0.0983 N   0  0  0  0  0  0  0  0  0  0  0  0
   -0.2762   -3.9534   -0.7895 C   0  0  0  0  0  0  0  0  0  0  0  0
   -0.3618   -5.0489   -1.4658 O   0  0  0  0  0  0  0  0  0  0  0  0
    1.0663   -3.2979   -0.8172 C   0  0  2  0  0  0  0  0  0  0  0  0
    2.0060   -4.1596   -1.6565 C   0  0  0  0  0  0  0  0  0  0  0  0
    2.2287   -5.3393   -0.7254 C   0  0  0  0  0  0  0  0  0  0  0  0
    1.7322   -4.8990    0.6554 C   0  0  0  0  0  0  0  0  0  0  0  0
    1.7188   -3.4411    0.4917 N   0  0  0  0  0  0  0  0  0  0  0  0
    2.1666   -2.3548    1.2583 C   0  0  0  0  0  0  0  0  0  0  0  0
    1.7483   -2.2578    2.4656 O   0  0  0  0  0  0  0  0  0  0  0  0
    3.1001   -1.2825    0.8027 C   0  0  2  0  0  0  0  0  0  0  0  0
    4.4674   -1.7287    1.3430 C   0  0  0  0  0  0  0  0  0  0  0  0
    5.5625   -0.8248    1.0204 C   0  0  0  0  0  0  0  0  0  0  0  0
    5.8921    0.1988    1.8841 C   0  0  0  0  0  0  0  0  0  0  0  0
    6.9185    1.0978    1.6492 C   0  0  0  0  0  0  0  0  0  0  0  0
    7.6642    0.9807    0.4948 C   0  0  0  0  0  0  0  0  0  0  0  0
    8.6979    1.8777    0.2460 O   0  0  0  0  0  0  0  0  0  0  0  0
    7.3422   -0.0420   -0.3775 C   0  0  0  0  0  0  0  0  0  0  0  0
    6.3089   -0.9354   -0.1263 C   0  0  0  0  0  0  0  0  0  0  0  0
    2.6977   -0.0111    1.3157 N   0  0  0  0  0  0  0  0  0  0  0  0
    2.9337    1.2464    0.6872 C   0  0  0  0  0  0  0  0  0  0  0  0
    2.9686    2.2698    1.4588 O   0  0  0  0  0  0  0  0  0  0  0  0
    3.1310    1.4410   -0.7149 C   0  0  2  0  0  0  0  0  0  0  0  0
    3.9865    2.6718   -1.0514 C   0  0  0  0  0  0  0  0  0  0  0  0
    3.7906    2.7552   -2.5494 C   0  0  0  0  0  0  0  0  0  0  0  0
    2.7783    1.6729   -2.8833 C   0  0  0  0  0  0  0  0  0  0  0  0
    2.0200    1.6133   -1.6052 N   0  0  0  0  0  0  0  0  0  0  0  0
    0.6426    1.6772   -1.4013 C   0  0  0  0  0  0  0  0  0  0  0  0
   -0.0426    0.7339   -1.9964 O   0  0  0  0  0  0  0  0  0  0  0  0
   -0.2314    2.5952   -0.6494 C   0  0  2  0  0  0  0  0  0  0  0  0
    0.3455    4.0263   -0.6220 C   0  0  0  0  0  0  0  0  0  0  0  0
   -0.5333    4.9560    0.1205 C   0  0  0  0  0  0  0  0  0  0  0  0
   -0.3770    5.1531    1.4743 C   0  0  0  0  0  0  0  0  0  0  0  0
   -1.2101    6.0371    2.1701 C   0  0  0  0  0  0  0  0  0  0  0  0
   -2.1963    6.7237    1.5196 C   0  0  0  0  0  0  0  0  0  0  0  0
   -2.3558    6.5272    0.1566 C   0  0  0  0  0  0  0  0  0  0  0  0
   -1.5258    5.6456   -0.5388 C   0  0  0  0  0  0  0  0  0  0  0  0
   -0.6474    2.1787    0.6466 N   0  0  0  0  0  0  0  0  0  0  0  0
   -1.9014    1.7207    1.0919 C   0  0  0  0  0  0  0  0  0  0  0  0
   -2.3397    2.1956    2.2012 O   0  0  0  0  0  0  0  0  0  0  0  0
   -5.6704    3.1370   -2.2344 H   0  0  0  0  0  0  0  0  0  0  0  0
   -6.2966    1.8372   -1.1785 H   0  0  0  0  0  0  0  0  0  0  0  0
   -6.0921    3.5261   -0.5516 H   0  0  0  0  0  0  0  0  0  0  0  0
   -3.8676    3.3693   -0.2288 H   0  0  0  0  0  0  0  0  0  0  0  0
   -3.5964    2.2644   -1.5997 H   0  0  0  0  0  0  0  0  0  0  0  0
   -4.6856    0.4141   -0.4025 H   0  0  0  0  0  0  0  0  0  0  0  0
   -6.0607    1.7683    0.9688 H   0  0  0  0  0  0  0  0  0  0  0  0
   -4.7660    2.2962    2.0355 H   0  0  0  0  0  0  0  0  0  0  0  0
   -5.2571    0.5161    1.9091 H   0  0  0  0  0  0  0  0  0  0  0  0
   -2.3997    0.3098   -0.4910 H   0  0  0  0  0  0  0  0  0  0  0  0
   -3.3871   -0.1636    2.2832 H   0  0  0  0  0  0  0  0  0  0  0  0
   -1.4382   -1.4540   -0.7743 H   0  0  0  0  0  0  0  0  0  0  0  0
   -2.8352   -2.8932   -2.0893 H   0  0  0  0  0  0  0  0  0  0  0  0
   -3.7427   -1.5091   -1.4646 H   0  0  0  0  0  0  0  0  0  0  0  0
   -3.2402   -5.1574   -1.5484 H   0  0  0  0  0  0  0  0  0  0  0  0
   -4.7527   -6.7611   -0.5938 H   0  0  0  0  0  0  0  0  0  0  0  0
   -6.6048   -6.7037    1.9306 H   0  0  0  0  0  0  0  0  0  0  0  0
   -6.8896   -3.6486    1.4623 H   0  0  0  0  0  0  0  0  0  0  0  0
   -5.3300   -2.0309    0.4724 H   0  0  0  0  0  0  0  0  0  0  0  0
   -1.8493   -4.1279    0.6118 H   0  0  0  0  0  0  0  0  0  0  0  0
    0.9974   -2.2656   -1.1446 H   0  0  0  0  0  0  0  0  0  0  0  0
    1.5119   -4.4760   -2.5837 H   0  0  0  0  0  0  0  0  0  0  0  0
    2.9090   -3.6013   -1.8890 H   0  0  0  0  0  0  0  0  0  0  0  0
    1.7367   -6.2592   -1.0512 H   0  0  0  0  0  0  0  0  0  0  0  0
    3.3210   -5.5340   -0.7117 H   0  0  0  0  0  0  0  0  0  0  0  0
    2.4342   -5.2810    1.3832 H   0  0  0  0  0  0  0  0  0  0  0  0
    0.7307   -5.3015    0.8831 H   0  0  0  0  0  0  0  0  0  0  0  0
    3.2131   -1.2959   -0.3021 H   0  0  0  0  0  0  0  0  0  0  0  0
    4.7149   -2.7404    1.0091 H   0  0  0  0  0  0  0  0  0  0  0  0
    4.3212   -1.7980    2.4502 H   0  0  0  0  0  0  0  0  0  0  0  0
    5.3377    0.3452    2.8190 H   0  0  0  0  0  0  0  0  0  0  0  0
    7.1559    1.8952    2.3472 H   0  0  0  0  0  0  0  0  0  0  0  0
    9.6317    1.6722    0.5720 H   0  0  0  0  0  0  0  0  0  0  0  0
    7.9172   -0.1330   -1.2689 H   0  0  0  0  0  0  0  0  0  0  0  0
    6.0636   -1.7323   -0.8130 H   0  0  0  0  0  0  0  0  0  0  0  0
    2.1813    0.0068    2.2383 H   0  0  0  0  0  0  0  0  0  0  0  0
    3.7732    0.5908   -1.1512 H   0  0  0  0  0  0  0  0  0  0  0  0
    3.6539    3.5716   -0.5264 H   0  0  0  0  0  0  0  0  0  0  0  0
    5.0342    2.3866   -0.7899 H   0  0  0  0  0  0  0  0  0  0  0  0
    3.4070    3.7645   -2.7803 H   0  0  0  0  0  0  0  0  0  0  0  0
    4.7408    2.5841   -3.0967 H   0  0  0  0  0  0  0  0  0  0  0  0
    2.2322    1.9632   -3.7511 H   0  0  0  0  0  0  0  0  0  0  0  0
    3.2843    0.6962   -3.0493 H   0  0  0  0  0  0  0  0  0  0  0  0
   -1.1878    2.7972   -1.2532 H   0  0  0  0  0  0  0  0  0  0  0  0
    1.3325    3.9965   -0.1561 H   0  0  0  0  0  0  0  0  0  0  0  0
    0.4957    4.3601   -1.6852 H   0  0  0  0  0  0  0  0  0  0  0  0
    0.3745    4.6530    2.0621 H   0  0  0  0  0  0  0  0  0  0  0  0
   -1.0600    6.1704    3.2445 H   0  0  0  0  0  0  0  0  0  0  0  0
   -2.8522    7.4203    2.0665 H   0  0  0  0  0  0  0  0  0  0  0  0
   -3.1452    7.0864   -0.3257 H   0  0  0  0  0  0  0  0  0  0  0  0
   -1.6912    5.5293   -1.5993 H   0  0  0  0  0  0  0  0  0  0  0  0
    0.1164    2.2370    1.3964 H   0  0  0  0  0  0  0  0  0  0  0  0
  1  2  1  0
  2  3  1  0
  3  4  1  0
  3  5  1  0
  5  6  1  0
  6  7  1  0
  7  8  2  0
  7  9  1  0
  9 10  1  0
 10 11  1  0
 11 12  2  0
 12 13  1  0
 13 14  2  0
 14 15  1  0
 14 16  1  0
 16 17  2  0
  9 18  1  0
 18 19  1  0
 19 20  2  0
 19 21  1  0
 21 22  1  0
 22 23  1  0
 23 24  1  0
 24 25  1  0
 25 26  1  0
 26 27  2  0
 26 28  1  0
 28 29  1  0
 29 30  1  0
 30 31  2  0
 31 32  1  0
 32 33  2  0
 33 34  1  0
 33 35  1  0
 35 36  2  0
 28 37  1  0
 37 38  1  0
 38 39  2  0
 38 40  1  0
 40 41  1  0
 41 42  1  0
 42 43  1  0
 43 44  1  0
 44 45  1  0
 45 46  2  0
 45 47  1  0
 47 48  1  0
 48 49  1  0
 49 50  2  0
 50 51  1  0
 51 52  2  0
 52 53  1  0
 53 54  2  0
 47 55  1  0
 55 56  1  0
 56 57  2  0
 56  5  1  0
 17 11  1  0
 25 21  1  0
 36 30  1  0
 44 40  1  0
 54 49  1  0
  1 58  1  0
  1 59  1  0
  1 60  1  0
  2 61  1  0
  2 62  1  0
  3 63  1  6
  4 64  1  0
  4 65  1  0
  4 66  1  0
  5 67  1  6
  6 68  1  0
  9 69  1  6
 10 70  1  0
 10 71  1  0
 12 72  1  0
 13 73  1  0
 15 74  1  0
 16 75  1  0
 17 76  1  0
 18 77  1  0
 21 78  1  6
 22 79  1  0
 22 80  1  0
 23 81  1  0
 23 82  1  0
 24 83  1  0
 24 84  1  0
 28 85  1  6
 29 86  1  0
 29 87  1  0
 31 88  1  0
 32 89  1  0
 34 90  1  0
 35 91  1  0
 36 92  1  0
 37 93  1  0
 40 94  1  6
 41 95  1  0
 41 96  1  0
 42 97  1  0
 42 98  1  0
 43 99  1  0
 43100  1  0
 47101  1  6
 48102  1  0
 48103  1  0
 50104  1  0
 51105  1  0
 52106  1  0
 53107  1  0
 54108  1  0
 55109  1  0
M  END
$$$$
[H]c1c(C([H])([H])[H])nc(C([H])([H])Sc2c([H])c([H])c(F)c([H])c2[H])c(S(=O)(=O)N([H])c2c([H])c(C(=O)N([H])C3([H])C([H])([H])C([H])([H])N(C(=O)C([H])([H])[H])C([H])([H])C3([H])[H])c([H])c([H])c2OC([H])([H])[H])c1[H]
     RDKit          3D

 71 74  0  0  0  0  0  0  0  0999 V2000
   -3.4584    0.7299   -4.2560 C   0  0  0  0  0  0  0  0  0  0  0  0
   -2.8537   -0.2531   -3.4715 O   0  0  0  0  0  0  0  0  0  0  0  0
   -1.5477   -0.1626   -2.9999 C   0  0  0  0  0  0  0  0  0  0  0  0
   -0.8099    0.9716   -3.3332 C   0  0  0  0  0  0  0  0  0  0  0  0
    0.4919    1.1267   -2.8997 C   0  0  0  0  0  0  0  0  0  0  0  0
    1.0762    0.1483   -2.1260 C   0  0  0  0  0  0  0  0  0  0  0  0
    0.3044   -0.9686   -1.8147 C   0  0  0  0  0  0  0  0  0  0  0  0
   -0.9826   -1.1603   -2.2224 C   0  0  0  0  0  0  0  0  0  0  0  0
   -1.7498   -2.3090   -1.9473 N   0  0  0  0  0  0  0  0  0  0  0  0
   -1.6418   -3.1238   -0.4451 S   0  0  0  0  0  0  0  0  0  0  0  0
   -2.4579   -4.4151   -0.4791 O   0  0  0  0  0  0  0  0  0  0  0  0
   -0.2318   -3.6019   -0.1400 O   0  0  0  0  0  0  0  0  0  0  0  0
   -2.1305   -2.1144    0.8954 C   0  0  0  0  0  0  0  0  0  0  0  0
   -1.2392   -1.7454    1.8905 C   0  0  0  0  0  0  0  0  0  0  0  0
   -1.5630   -0.9522    2.9434 C   0  0  0  0  0  0  0  0  0  0  0  0
   -2.8527   -0.4913    3.0206 C   0  0  0  0  0  0  0  0  0  0  0  0
   -3.2236    0.3814    4.1581 C   0  0  0  0  0  0  0  0  0  0  0  0
   -3.7386   -0.8321    2.0719 N   0  0  0  0  0  0  0  0  0  0  0  0
   -3.4368   -1.6152    1.0247 C   0  0  0  0  0  0  0  0  0  0  0  0
   -4.3858   -2.0322   -0.0160 C   0  0  0  0  0  0  0  0  0  0  0  0
   -6.0465   -1.4030    0.1290 S   0  0  0  0  0  0  0  0  0  0  0  0
   -6.1561    0.3286   -0.1592 C   0  0  0  0  0  0  0  0  0  0  0  0
   -6.1618    1.2200    0.8730 C   0  0  0  0  0  0  0  0  0  0  0  0
   -6.2350    2.5868    0.6170 C   0  0  0  0  0  0  0  0  0  0  0  0
   -6.3045    3.0906   -0.6509 C   0  0  0  0  0  0  0  0  0  0  0  0
   -6.3761    4.4259   -0.8985 F   0  0  0  0  0  0  0  0  0  0  0  0
   -6.2976    2.1705   -1.6834 C   0  0  0  0  0  0  0  0  0  0  0  0
   -6.2262    0.8190   -1.4618 C   0  0  0  0  0  0  0  0  0  0  0  0
    2.4497    0.2632   -1.7021 C   0  0  0  0  0  0  0  0  0  0  0  0
    3.3238    0.3155   -2.6393 O   0  0  0  0  0  0  0  0  0  0  0  0
    2.9321    0.3230   -0.3801 N   0  0  0  0  0  0  0  0  0  0  0  0
    4.3301    0.4170   -0.0631 C   0  0  0  0  0  0  0  0  0  0  0  0
    4.6301    1.6530    0.7177 C   0  0  0  0  0  0  0  0  0  0  0  0
    6.1151    1.7757    1.0134 C   0  0  0  0  0  0  0  0  0  0  0  0
    6.7307    0.5306    1.3481 N   0  0  0  0  0  0  0  0  0  0  0  0
    6.1574   -0.7838    1.1286 C   0  0  0  0  0  0  0  0  0  0  0  0
    4.6964   -0.7760    0.8073 C   0  0  0  0  0  0  0  0  0  0  0  0
    8.0195    0.5528    1.9446 C   0  0  0  0  0  0  0  0  0  0  0  0
    8.7238   -0.7071    2.3126 C   0  0  0  0  0  0  0  0  0  0  0  0
    8.5991    1.6639    2.1740 O   0  0  0  0  0  0  0  0  0  0  0  0
   -4.5697    0.5460   -4.2473 H   0  0  0  0  0  0  0  0  0  0  0  0
   -3.3236    1.7440   -3.7733 H   0  0  0  0  0  0  0  0  0  0  0  0
   -3.0892    0.7334   -5.2963 H   0  0  0  0  0  0  0  0  0  0  0  0
   -1.2820    1.7324   -3.9413 H   0  0  0  0  0  0  0  0  0  0  0  0
    1.0896    2.0058   -3.1493 H   0  0  0  0  0  0  0  0  0  0  0  0
    0.7871   -1.7046   -1.2143 H   0  0  0  0  0  0  0  0  0  0  0  0
   -2.4007   -2.6717   -2.6717 H   0  0  0  0  0  0  0  0  0  0  0  0
   -0.2237   -2.1322    1.7914 H   0  0  0  0  0  0  0  0  0  0  0  0
   -0.8234   -0.7097    3.6752 H   0  0  0  0  0  0  0  0  0  0  0  0
   -2.6679    0.1109    5.0821 H   0  0  0  0  0  0  0  0  0  0  0  0
   -2.9721    1.4363    3.8830 H   0  0  0  0  0  0  0  0  0  0  0  0
   -4.3020    0.2819    4.4038 H   0  0  0  0  0  0  0  0  0  0  0  0
   -4.0017   -1.6946   -1.0221 H   0  0  0  0  0  0  0  0  0  0  0  0
   -4.4379   -3.1565    0.0068 H   0  0  0  0  0  0  0  0  0  0  0  0
   -6.1254    0.9042    1.9182 H   0  0  0  0  0  0  0  0  0  0  0  0
   -6.2367    3.2757    1.4675 H   0  0  0  0  0  0  0  0  0  0  0  0
   -6.3542    2.5885   -2.6856 H   0  0  0  0  0  0  0  0  0  0  0  0
   -6.2217    0.1133   -2.2882 H   0  0  0  0  0  0  0  0  0  0  0  0
    2.2411    0.2998    0.3976 H   0  0  0  0  0  0  0  0  0  0  0  0
    4.9805    0.4059   -0.9667 H   0  0  0  0  0  0  0  0  0  0  0  0
    4.0148    1.6338    1.6456 H   0  0  0  0  0  0  0  0  0  0  0  0
    4.3332    2.5569    0.1591 H   0  0  0  0  0  0  0  0  0  0  0  0
    6.2848    2.5006    1.8263 H   0  0  0  0  0  0  0  0  0  0  0  0
    6.6149    2.1927    0.1003 H   0  0  0  0  0  0  0  0  0  0  0  0
    6.6846   -1.3328    0.3208 H   0  0  0  0  0  0  0  0  0  0  0  0
    6.3054   -1.3937    2.0466 H   0  0  0  0  0  0  0  0  0  0  0  0
    4.1141   -0.6759    1.7518 H   0  0  0  0  0  0  0  0  0  0  0  0
    4.4650   -1.7180    0.2600 H   0  0  0  0  0  0  0  0  0  0  0  0
    8.4994   -1.5234    1.6047 H   0  0  0  0  0  0  0  0  0  0  0  0
    8.3295   -0.9821    3.3290 H   0  0  0  0  0  0  0  0  0  0  0  0
    9.8156   -0.5479    2.3060 H   0  0  0  0  0  0  0  0  0  0  0  0
  1  2  1  0
  2  3  1  0
  3  4  2  0
  4  5  1  0
  5  6  2  0
  6  7  1  0
  7  8  2  0
  8  9  1  0
  9 10  1  0
 10 11  2  0
 10 12  2  0
 10 13  1  0
 13 14  2  0
 14 15  1  0
 15 16  2  0
 16 17  1  0
 16 18  1  0
 18 19  2  0
 19 20  1  0
 20 21  1  0
 21 22  1  0
 22 23  2  0
 23 24  1  0
 24 25  2  0
 25 26  1  0
 25 27  1  0
 27 28  2  0
  6 29  1  0
 29 30  2  0
 29 31  1  0
 31 32  1  0
 32 33  1  0
 33 34  1  0
 34 35  1  0
 35 36  1  0
 36 37  1  0
 35 38  1  0
 38 39  1  0
 38 40  2  0
  8  3  1  0
 19 13  1  0
 28 22  1  0
 37 32  1  0
  1 41  1  0
  1 42  1  0
  1 43  1  0
  4 44  1  0
  5 45  1  0
  7 46  1  0
  9 47  1  0
 14 48  1  0
 15 49  1  0
 17 50  1  0
 17 51  1  0
 17 52  1  0
 20 53  1  0
 20 54  1  0
 23 55  1  0
 24 56  1  0
 27 57  1  0
 28 58  1  0
 31 59  1  0
 32 60  1  0
 33 61  1  0
 33 62  1  0
 34 63  1  0
 34 64  1  0
 36 65  1  0
 36 66  1  0
 37 67  1  0
 37 68  1  0
 39 69  1  0
 39 70  1  0
 39 71  1  0
M  END
$$$$
[H]c1nc2c([H])c(OC([H])([H])[H])c(OC([H])([H])C([H])([H])C([H])([H])N3C([H])([H])C([H])([H])OC([H])([H])C3([H])[H])c([H])c2c(Oc2c([H])c([H])c(N([H])C(=O)N([H])c3c([H])c([H])c([H])c(C(F)(F)F)c3[H])c([H])c2F)c1[H]
     RDKit          3D

 74 78  0  0  0  0  0  0  0  0999 V2000
   -5.6335    4.3975   -0.1194 C   0  0  0  0  0  0  0  0  0  0  0  0
   -5.3101    3.0206    0.0694 O   0  0  0  0  0  0  0  0  0  0  0  0
   -3.9421    2.7623    0.1967 C   0  0  0  0  0  0  0  0  0  0  0  0
   -2.9859    3.7247    0.1350 C   0  0  0  0  0  0  0  0  0  0  0  0
   -1.6649    3.4036    0.2768 C   0  0  0  0  0  0  0  0  0  0  0  0
   -0.7570    4.3617    0.1477 N   0  0  0  0  0  0  0  0  0  0  0  0
    0.5309    4.0669    0.2202 C   0  0  0  0  0  0  0  0  0  0  0  0
    0.9560    2.7497    0.4332 C   0  0  0  0  0  0  0  0  0  0  0  0
    0.0398    1.7193    0.5780 C   0  0  0  0  0  0  0  0  0  0  0  0
    0.4300    0.3807    0.8137 O   0  0  0  0  0  0  0  0  0  0  0  0
    1.8441    0.2733    0.9724 C   0  0  0  0  0  0  0  0  0  0  0  0
    2.6397   -0.3505    0.0638 C   0  0  0  0  0  0  0  0  0  0  0  0
    4.0415   -0.4439    0.2011 C   0  0  0  0  0  0  0  0  0  0  0  0
    4.6799    0.1058    1.2837 C   0  0  0  0  0  0  0  0  0  0  0  0
    6.0575    0.2232    1.4435 N   0  0  0  0  0  0  0  0  0  0  0  0
    7.0813   -0.5090    0.7836 C   0  0  0  0  0  0  0  0  0  0  0  0
    6.7499   -1.3760   -0.0036 O   0  0  0  0  0  0  0  0  0  0  0  0
    8.4122   -0.1508    1.0704 N   0  0  0  0  0  0  0  0  0  0  0  0
    9.5600   -0.7220    0.4524 C   0  0  0  0  0  0  0  0  0  0  0  0
   10.6044    0.1173    0.0775 C   0  0  0  0  0  0  0  0  0  0  0  0
   11.6613   -0.4087   -0.5727 C   0  0  0  0  0  0  0  0  0  0  0  0
   11.7847   -1.7671   -0.9036 C   0  0  0  0  0  0  0  0  0  0  0  0
   10.7165   -2.6033   -0.5104 C   0  0  0  0  0  0  0  0  0  0  0  0
    9.6653   -2.0498    0.1427 C   0  0  0  0  0  0  0  0  0  0  0  0
   10.7876   -4.0661   -0.8295 C   0  0  0  0  0  0  0  0  0  0  0  0
   12.1182   -4.4425   -0.6870 F   0  0  0  0  0  0  0  0  0  0  0  0
    9.9427   -4.7962   -0.0127 F   0  0  0  0  0  0  0  0  0  0  0  0
   10.3508   -4.2974   -2.1193 F   0  0  0  0  0  0  0  0  0  0  0  0
    3.8342    0.7465    2.2257 C   0  0  0  0  0  0  0  0  0  0  0  0
    2.4826    0.8223    2.0740 C   0  0  0  0  0  0  0  0  0  0  0  0
    1.7123    1.4074    3.0449 F   0  0  0  0  0  0  0  0  0  0  0  0
   -1.2806    2.0504    0.4927 C   0  0  0  0  0  0  0  0  0  0  0  0
   -2.2936    1.0840    0.5508 C   0  0  0  0  0  0  0  0  0  0  0  0
   -3.6206    1.4076    0.4058 C   0  0  0  0  0  0  0  0  0  0  0  0
   -4.6120    0.4846    0.4472 O   0  0  0  0  0  0  0  0  0  0  0  0
   -4.5092   -0.8700    0.6563 C   0  0  0  0  0  0  0  0  0  0  0  0
   -5.9138   -1.5336    0.5489 C   0  0  0  0  0  0  0  0  0  0  0  0
   -6.4815   -1.3334   -0.8251 C   0  0  0  0  0  0  0  0  0  0  0  0
   -7.7830   -1.9845   -0.8949 N   0  0  0  0  0  0  0  0  0  0  0  0
   -8.2000   -1.8984   -2.2792 C   0  0  0  0  0  0  0  0  0  0  0  0
   -9.4784   -2.6219   -2.4992 C   0  0  0  0  0  0  0  0  0  0  0  0
  -10.1914   -2.7491   -1.3371 O   0  0  0  0  0  0  0  0  0  0  0  0
  -10.1596   -1.5712   -0.5764 C   0  0  0  0  0  0  0  0  0  0  0  0
   -8.7634   -1.2985   -0.0714 C   0  0  0  0  0  0  0  0  0  0  0  0
   -5.0726    4.8532   -0.9570 H   0  0  0  0  0  0  0  0  0  0  0  0
   -6.7132    4.4645   -0.4522 H   0  0  0  0  0  0  0  0  0  0  0  0
   -5.5527    4.9634    0.8219 H   0  0  0  0  0  0  0  0  0  0  0  0
   -3.2907    4.7806   -0.0358 H   0  0  0  0  0  0  0  0  0  0  0  0
    1.3360    4.8119    0.1162 H   0  0  0  0  0  0  0  0  0  0  0  0
    1.9866    2.5393    0.4616 H   0  0  0  0  0  0  0  0  0  0  0  0
    2.1352   -0.8133   -0.8058 H   0  0  0  0  0  0  0  0  0  0  0  0
    4.5877   -0.9583   -0.5587 H   0  0  0  0  0  0  0  0  0  0  0  0
    6.4441    0.9452    2.1548 H   0  0  0  0  0  0  0  0  0  0  0  0
    8.6472    0.6053    1.7897 H   0  0  0  0  0  0  0  0  0  0  0  0
   10.5333    1.1771    0.3249 H   0  0  0  0  0  0  0  0  0  0  0  0
   12.4932    0.2320   -0.8882 H   0  0  0  0  0  0  0  0  0  0  0  0
   12.6114   -2.1956   -1.4161 H   0  0  0  0  0  0  0  0  0  0  0  0
    8.8643   -2.7412    0.4248 H   0  0  0  0  0  0  0  0  0  0  0  0
    4.3733    1.1545    3.1022 H   0  0  0  0  0  0  0  0  0  0  0  0
   -1.9891    0.0863    0.7098 H   0  0  0  0  0  0  0  0  0  0  0  0
   -3.7898   -1.4036    0.0329 H   0  0  0  0  0  0  0  0  0  0  0  0
   -4.2037   -1.0427    1.7239 H   0  0  0  0  0  0  0  0  0  0  0  0
   -5.7472   -2.6172    0.7697 H   0  0  0  0  0  0  0  0  0  0  0  0
   -6.6019   -1.1479    1.2966 H   0  0  0  0  0  0  0  0  0  0  0  0
   -6.6893   -0.2371   -0.9567 H   0  0  0  0  0  0  0  0  0  0  0  0
   -5.7935   -1.6098   -1.6244 H   0  0  0  0  0  0  0  0  0  0  0  0
   -8.2357   -0.8458   -2.5544 H   0  0  0  0  0  0  0  0  0  0  0  0
   -7.4261   -2.4336   -2.8877 H   0  0  0  0  0  0  0  0  0  0  0  0
   -9.2940   -3.6499   -2.8884 H   0  0  0  0  0  0  0  0  0  0  0  0
  -10.0640   -2.0292   -3.2507 H   0  0  0  0  0  0  0  0  0  0  0  0
  -10.8138   -1.6918    0.2870 H   0  0  0  0  0  0  0  0  0  0  0  0
  -10.5059   -0.7170   -1.1858 H   0  0  0  0  0  0  0  0  0  0  0  0
   -8.6199   -0.2010   -0.0855 H   0  0  0  0  0  0  0  0  0  0  0  0
   -8.7120   -1.6807    0.9646 H   0  0  0  0  0  0  0  0  0  0  0  0
  1  2  1  0
  2  3  1  0
  3  4  2  0
  4  5  1  0
  5  6  2  0
  6  7  1  0
  7  8  2  0
  8  9  1  0
  9 10  1  0
 10 11  1  0
 11 12  2  0
 12 13  1  0
 13 14  2  0
 14 15  1  0
 15 16  1  0
 16 17  2  0
 16 18  1  0
 18 19  1  0
 19 20  2  0
 20 21  1  0
 21 22  2  0
 22 23  1  0
 23 24  2  0
 23 25  1  0
 25 26  1  0
 25 27  1  0
 25 28  1  0
 14 29  1  0
 29 30  2  0
 30 31  1  0
  9 32  2  0
 32 33  1  0
 33 34  2  0
 34 35  1  0
 35 36  1  0
 36 37  1  0
 37 38  1  0
 38 39  1  0
 39 40  1  0
 40 41  1  0
 41 42  1  0
 42 43  1  0
 43 44  1  0
 34  3  1  0
 44 39  1  0
 32  5  1  0
 30 11  1  0
 24 19  1  0
  1 45  1  0
  1 46  1  0
  1 47  1  0
  4 48  1  0
  7 49  1  0
  8 50  1  0
 12 51  1  0
 13 52  1  0
 15 53  1  0
 18 54  1  0
 20 55  1  0
 21 56  1  0
 22 57  1  0
 24 58  1  0
 29 59  1  0
 33 60  1  0
 36 61  1  0
 36 62  1  0
 37 63  1  0
 37 64  1  0
 38 65  1  0
 38 66  1  0
 40 67  1  0
 40 68  1  0
 41 69  1  0
 41 70  1  0
 43 71  1  0
 43 72  1  0
 44 73  1  0
 44 74  1  0
M  END
$$$$
[H]OC(=O)[C@]([H])(C(=O)N([H])[C@]([H])(C(=O)N([H])[C@]([H])(C(=O)N([H])[C@]([H])(C(=O)O[H])C([H])([H])C([H])([H])C([H])([H])C([H])([H])N([H])[H])C([H])([H])C([H])(C([H])([H])[H])C([H])([H])[H])C([H])([H])c1c([H])c([H])c([H])c([H])c1[H])N([H])C(=O)[C@]([H])(N(C([H])([H])[H])C([H])([H])C([H])([H])[H])C([H])([H])c1c([H])c([H])c(O[H])c([H])c1[H]
     RDKit          3D

103104  0  0  0  0  0  0  0  0999 V2000
   -1.2231    3.0468    1.3521 C   0  0  0  0  0  0  0  0  0  0  0  0
   -2.6971    3.1460    1.4167 C   0  0  0  0  0  0  0  0  0  0  0  0
   -3.0756    4.6388    1.3642 C   0  0  0  0  0  0  0  0  0  0  0  0
   -3.5214    2.3554    0.4934 C   0  0  0  0  0  0  0  0  0  0  0  0
   -3.4616    0.8752    0.5048 C   0  0  2  0  0  0  0  0  0  0  0  0
   -2.1656    0.3524    0.2027 N   0  0  0  0  0  0  0  0  0  0  0  0
   -1.2953   -0.3079    1.1254 C   0  0  0  0  0  0  0  0  0  0  0  0
   -1.6740   -0.4229    2.3434 O   0  0  0  0  0  0  0  0  0  0  0  0
   -0.0017   -0.8593    0.7713 C   0  0  2  0  0  0  0  0  0  0  0  0
   -0.1634   -2.4117    0.8612 C   0  0  0  0  0  0  0  0  0  0  0  0
   -1.1897   -2.9304   -0.0463 C   0  0  0  0  0  0  0  0  0  0  0  0
   -0.8362   -3.2176   -1.3529 C   0  0  0  0  0  0  0  0  0  0  0  0
   -1.7746   -3.7499   -2.2241 C   0  0  0  0  0  0  0  0  0  0  0  0
   -3.0681   -4.0141   -1.8494 C   0  0  0  0  0  0  0  0  0  0  0  0
   -3.4274   -3.7307   -0.5486 C   0  0  0  0  0  0  0  0  0  0  0  0
   -2.4962   -3.2001    0.3205 C   0  0  0  0  0  0  0  0  0  0  0  0
    1.0923   -0.5283    1.6938 N   0  0  0  0  0  0  0  0  0  0  0  0
    2.4361   -0.5929    1.2772 C   0  0  0  0  0  0  0  0  0  0  0  0
    2.6415   -0.9643    0.0695 O   0  0  0  0  0  0  0  0  0  0  0  0
    3.6329   -0.2866    2.0732 C   0  0  2  0  0  0  0  0  0  0  0  0
    4.8480   -0.6456    1.3558 N   0  0  0  0  0  0  0  0  0  0  0  0
    5.8458    0.2419    0.9205 C   0  0  0  0  0  0  0  0  0  0  0  0
    5.6157    1.4726    1.2109 O   0  0  0  0  0  0  0  0  0  0  0  0
    7.0559   -0.1236    0.1960 C   0  0  1  0  0  0  0  0  0  0  0  0
    8.3364    0.4932    0.6426 C   0  0  0  0  0  0  0  0  0  0  0  0
    8.4036    1.9562    0.5735 C   0  0  0  0  0  0  0  0  0  0  0  0
    8.2099    2.8135    1.6332 C   0  0  0  0  0  0  0  0  0  0  0  0
    8.2865    4.1857    1.5383 C   0  0  0  0  0  0  0  0  0  0  0  0
    8.5715    4.8072    0.3351 C   0  0  0  0  0  0  0  0  0  0  0  0
    8.6516    6.1848    0.2262 O   0  0  0  0  0  0  0  0  0  0  0  0
    8.7701    3.9591   -0.7460 C   0  0  0  0  0  0  0  0  0  0  0  0
    8.6922    2.5967   -0.6437 C   0  0  0  0  0  0  0  0  0  0  0  0
    7.1725   -1.5527    0.0919 N   0  0  0  0  0  0  0  0  0  0  0  0
    7.3543   -2.3049    1.2562 C   0  0  0  0  0  0  0  0  0  0  0  0
    6.5722   -2.1111   -1.0450 C   0  0  0  0  0  0  0  0  0  0  0  0
    7.2739   -1.7650   -2.3461 C   0  0  0  0  0  0  0  0  0  0  0  0
    3.5922   -1.0413    3.3352 C   0  0  0  0  0  0  0  0  0  0  0  0
    2.5853   -0.8745    4.2700 O   0  0  0  0  0  0  0  0  0  0  0  0
    4.4930   -1.8731    3.5990 O   0  0  0  0  0  0  0  0  0  0  0  0
   -4.3804    0.3341   -0.5610 C   0  0  0  0  0  0  0  0  0  0  0  0
   -3.8178   -0.3202   -1.5069 O   0  0  0  0  0  0  0  0  0  0  0  0
   -5.7554    0.4793   -0.6106 N   0  0  0  0  0  0  0  0  0  0  0  0
   -6.4942   -0.1261   -1.7698 C   0  0  1  0  0  0  0  0  0  0  0  0
   -7.4522   -1.0953   -1.1753 C   0  0  0  0  0  0  0  0  0  0  0  0
   -8.3188   -1.9069   -2.0320 C   0  0  0  0  0  0  0  0  0  0  0  0
   -9.3430   -1.3149   -2.9060 C   0  0  0  0  0  0  0  0  0  0  0  0
  -10.4220   -0.5213   -2.2413 C   0  0  0  0  0  0  0  0  0  0  0  0
  -11.1749   -1.3307   -1.3019 N   0  0  0  0  0  0  0  0  0  0  0  0
   -7.1430    1.0075   -2.4482 C   0  0  0  0  0  0  0  0  0  0  0  0
   -7.1609    1.1357   -3.8094 O   0  0  0  0  0  0  0  0  0  0  0  0
   -7.6915    1.8860   -1.7278 O   0  0  0  0  0  0  0  0  0  0  0  0
   -0.7557    2.4549    2.1823 H   0  0  0  0  0  0  0  0  0  0  0  0
   -0.8493    2.8228    0.3556 H   0  0  0  0  0  0  0  0  0  0  0  0
   -0.8220    4.0930    1.5765 H   0  0  0  0  0  0  0  0  0  0  0  0
   -2.9618    2.8703    2.5048 H   0  0  0  0  0  0  0  0  0  0  0  0
   -3.0313    5.0322    2.3958 H   0  0  0  0  0  0  0  0  0  0  0  0
   -2.3383    5.2103    0.7575 H   0  0  0  0  0  0  0  0  0  0  0  0
   -4.1221    4.7421    0.9957 H   0  0  0  0  0  0  0  0  0  0  0  0
   -4.6112    2.6162    0.7357 H   0  0  0  0  0  0  0  0  0  0  0  0
   -3.3952    2.7861   -0.5416 H   0  0  0  0  0  0  0  0  0  0  0  0
   -3.8099    0.4370    1.4663 H   0  0  0  0  0  0  0  0  0  0  0  0
   -1.7957    0.4485   -0.7887 H   0  0  0  0  0  0  0  0  0  0  0  0
    0.2494   -0.7057   -0.2815 H   0  0  0  0  0  0  0  0  0  0  0  0
    0.7835   -2.9042    0.6530 H   0  0  0  0  0  0  0  0  0  0  0  0
   -0.4461   -2.6657    1.9255 H   0  0  0  0  0  0  0  0  0  0  0  0
    0.1556   -3.0343   -1.7109 H   0  0  0  0  0  0  0  0  0  0  0  0
   -1.4782   -3.9689   -3.2403 H   0  0  0  0  0  0  0  0  0  0  0  0
   -3.7754   -4.4272   -2.5533 H   0  0  0  0  0  0  0  0  0  0  0  0
   -4.4396   -3.9255   -0.2196 H   0  0  0  0  0  0  0  0  0  0  0  0
   -2.8060   -2.9837    1.3389 H   0  0  0  0  0  0  0  0  0  0  0  0
    0.8507   -0.2480    2.6493 H   0  0  0  0  0  0  0  0  0  0  0  0
    3.6881    0.8100    2.2375 H   0  0  0  0  0  0  0  0  0  0  0  0
    4.9510   -1.6677    1.1457 H   0  0  0  0  0  0  0  0  0  0  0  0
    6.9591    0.2097   -0.9098 H   0  0  0  0  0  0  0  0  0  0  0  0
    8.6075    0.2177    1.6943 H   0  0  0  0  0  0  0  0  0  0  0  0
    9.2026    0.1193    0.0351 H   0  0  0  0  0  0  0  0  0  0  0  0
    7.9861    2.3240    2.5987 H   0  0  0  0  0  0  0  0  0  0  0  0
    8.1255    4.8125    2.4160 H   0  0  0  0  0  0  0  0  0  0  0  0
    7.8076    6.7134   -0.0013 H   0  0  0  0  0  0  0  0  0  0  0  0
    9.0010    4.4216   -1.7181 H   0  0  0  0  0  0  0  0  0  0  0  0
    8.8429    1.9268   -1.4914 H   0  0  0  0  0  0  0  0  0  0  0  0
    6.7717   -3.2617    1.2448 H   0  0  0  0  0  0  0  0  0  0  0  0
    7.2163   -1.7460    2.2118 H   0  0  0  0  0  0  0  0  0  0  0  0
    8.4350   -2.6429    1.2868 H   0  0  0  0  0  0  0  0  0  0  0  0
    6.4891   -3.2008   -1.0173 H   0  0  0  0  0  0  0  0  0  0  0  0
    5.5381   -1.7136   -1.1453 H   0  0  0  0  0  0  0  0  0  0  0  0
    8.3724   -1.9730   -2.2636 H   0  0  0  0  0  0  0  0  0  0  0  0
    6.8694   -2.4563   -3.1204 H   0  0  0  0  0  0  0  0  0  0  0  0
    7.0760   -0.7374   -2.6959 H   0  0  0  0  0  0  0  0  0  0  0  0
    2.5796   -1.3338    5.1579 H   0  0  0  0  0  0  0  0  0  0  0  0
   -6.3112    0.9676    0.0846 H   0  0  0  0  0  0  0  0  0  0  0  0
   -5.7546   -0.6431   -2.4073 H   0  0  0  0  0  0  0  0  0  0  0  0
   -8.0074   -0.6088   -0.3173 H   0  0  0  0  0  0  0  0  0  0  0  0
   -6.7930   -1.8449   -0.5988 H   0  0  0  0  0  0  0  0  0  0  0  0
   -7.6100   -2.4754   -2.7413 H   0  0  0  0  0  0  0  0  0  0  0  0
   -8.7898   -2.7743   -1.4706 H   0  0  0  0  0  0  0  0  0  0  0  0
   -9.0075   -0.8338   -3.8234 H   0  0  0  0  0  0  0  0  0  0  0  0
   -9.9311   -2.2464   -3.3119 H   0  0  0  0  0  0  0  0  0  0  0  0
  -10.1331    0.4478   -1.8232 H   0  0  0  0  0  0  0  0  0  0  0  0
  -11.1710   -0.2730   -3.0549 H   0  0  0  0  0  0  0  0  0  0  0  0
  -12.0484   -0.8879   -1.0029 H   0  0  0  0  0  0  0  0  0  0  0  0
  -10.6151   -1.8091   -0.5951 H   0  0  0  0  0  0  0  0  0  0  0  0
   -7.8565    1.6654   -4.3178 H   0  0  0  0  0  0  0  0  0  0  0  0
  1  2  1  0
  2  3  1  0
  2  4  1  0
  4  5  1  0
  5  6  1  0
  6  7  1  0
  7  8  2  0
  7  9  1  0
  9 10  1  0
 10 11  1  0
 11 12  2  0
 12 13  1  0
 13 14  2  0
 14 15  1  0
 15 16  2  0
  9 17  1  0
 17 18  1  0
 18 19  2  0
 18 20  1  0
 20 21  1  0
 21 22  1  0
 22 23  2  0
 22 24  1  0
 24 25  1  0
 25 26  1  0
 26 27  2  0
 27 28  1  0
 28 29  2  0
 29 30  1  0
 29 31  1  0
 31 32  2  0
 24 33  1  0
 33 34  1  0
 33 35  1  0
 35 36  1  0
 20 37  1  0
 37 38  1  0
 37 39  2  0
  5 40  1  0
 40 41  2  0
 40 42  1  0
 42 43  1  0
 43 44  1  0
 44 45  1  0
 45 46  1  0
 46 47  1  0
 47 48  1  0
 43 49  1  0
 49 50  1  0
 49 51  2  0
 16 11  1  0
 32 26  1  0
  1 52  1  0
  1 53  1  0
  1 54  1  0
  2 55  1  0
  3 56  1  0
  3 57  1  0
  3 58  1  0
  4 59  1  0
  4 60  1  0
  5 61  1  1
  6 62  1  0
  9 63  1  6
 10 64  1  0
 10 65  1  0
 12 66  1  0
 13 67  1  0
 14 68  1  0
 15 69  1  0
 16 70  1  0
 17 71  1  0
 20 72  1  1
 21 73  1  0
 24 74  1  6
 25 75  1  0
 25 76  1  0
 27 77  1  0
 28 78  1  0
 30 79  1  0
 31 80  1  0
 32 81  1  0
 34 82  1  0
 34 83  1  0
 34 84  1  0
 35 85  1  0
 35 86  1  0
 36 87  1  0
 36 88  1  0
 36 89  1  0
 38 90  1  0
 42 91  1  0
 43 92  1  6
 44 93  1  0
 44 94  1  0
 45 95  1  0
 45 96  1  0
 46 97  1  0
 46 98  1  0
 47 99  1  0
 47100  1  0
 48101  1  0
 48102  1  0
 50103  1  0
M  END
$$$$
[H]c1c([H])c(-n2c(=O)c3c([H])nc4c([H])c([H])c([H])c([H])c4c3n2[H])c([H])c([H])c1Cl
     RDKit          3D

 31 34  0  0  0  0  0  0  0  0999 V2000
   -6.9100    0.9569   -0.3428 Cl  0  0  0  0  0  0  0  0  0  0  0  0
   -5.2030    0.5619   -0.2120 C   0  0  0  0  0  0  0  0  0  0  0  0
   -4.3040    1.4479    0.3400 C   0  0  0  0  0  0  0  0  0  0  0  0
   -2.9584    1.1016    0.4276 C   0  0  0  0  0  0  0  0  0  0  0  0
   -2.4982   -0.1207   -0.0298 C   0  0  0  0  0  0  0  0  0  0  0  0
   -3.4091   -0.9836   -0.5738 C   0  0  0  0  0  0  0  0  0  0  0  0
   -4.7371   -0.6506   -0.6642 C   0  0  0  0  0  0  0  0  0  0  0  0
   -1.1007   -0.4508    0.0743 N   0  0  0  0  0  0  0  0  0  0  0  0
   -0.1015    0.4243   -0.0264 N   0  0  0  0  0  0  0  0  0  0  0  0
    1.0742   -0.2127    0.1177 C   0  0  0  0  0  0  0  0  0  0  0  0
    0.8062   -1.5526    0.3189 C   0  0  0  0  0  0  0  0  0  0  0  0
    1.8632   -2.4350    0.4973 C   0  0  0  0  0  0  0  0  0  0  0  0
    3.1526   -2.0275    0.4811 N   0  0  0  0  0  0  0  0  0  0  0  0
    3.4187   -0.7043    0.2825 C   0  0  0  0  0  0  0  0  0  0  0  0
    4.7414   -0.2997    0.2680 C   0  0  0  0  0  0  0  0  0  0  0  0
    5.0294    1.0243    0.0701 C   0  0  0  0  0  0  0  0  0  0  0  0
    4.0214    1.9618   -0.1151 C   0  0  0  0  0  0  0  0  0  0  0  0
    2.7157    1.5314   -0.0960 C   0  0  0  0  0  0  0  0  0  0  0  0
    2.3961    0.2090    0.1005 C   0  0  0  0  0  0  0  0  0  0  0  0
   -0.5636   -1.6595    0.2847 C   0  0  0  0  0  0  0  0  0  0  0  0
   -1.1722   -2.7407    0.4324 O   0  0  0  0  0  0  0  0  0  0  0  0
   -4.6187    2.4133    0.7101 H   0  0  0  0  0  0  0  0  0  0  0  0
   -2.2904    1.8286    0.8681 H   0  0  0  0  0  0  0  0  0  0  0  0
   -3.0623   -1.9483   -0.9378 H   0  0  0  0  0  0  0  0  0  0  0  0
   -5.4711   -1.3334   -1.0969 H   0  0  0  0  0  0  0  0  0  0  0  0
   -0.2052    1.4499   -0.1919 H   0  0  0  0  0  0  0  0  0  0  0  0
    1.6588   -3.4841    0.6550 H   0  0  0  0  0  0  0  0  0  0  0  0
    5.5360   -0.9984    0.4077 H   0  0  0  0  0  0  0  0  0  0  0  0
    6.0549    1.4049    0.0483 H   0  0  0  0  0  0  0  0  0  0  0  0
    4.2120    3.0097   -0.2732 H   0  0  0  0  0  0  0  0  0  0  0  0
    1.9249    2.2765   -0.2428 H   0  0  0  0  0  0  0  0  0  0  0  0
  1  2  1  0
  2  3  2  0
  3  4  1  0
  4  5  2  0
  5  6  1  0
  6  7  2  0
  5  8  1  0
  8  9  1  0
  9 10  1  0
 10 11  2  0
 11 12  1  0
 12 13  2  0
 13 14  1  0
 14 15  2  0
 15 16  1  0
 16 17  2  0
 17 18  1  0
 18 19  2  0
 11 20  1  0
 20 21  2  0
  7  2  1  0
 20  8  1  0
 19 10  1  0
 19 14  1  0
  3 22  1  0
  4 23  1  0
  6 24  1  0
  7 25  1  0
  9 26  1  0
 12 27  1  0
 15 28  1  0
 16 29  1  0
 17 30  1  0
 18 31  1  0
M  END
$$$$
[H]c1nc([H])n(C([H])(c2nnn(C3([H])C([H])([H])C([H])([H])N(c4nc([H])c(C#N)c([H])c4[H])C([H])([H])C3([H])[H])c2[H])C([H])(C([H])([H])[H])C([H])([H])[H])n1
     RDKit          3D

 51 54  0  0  0  0  0  0  0  0999 V2000
   -4.4734   -0.6430   -2.4280 C   0  0  0  0  0  0  0  0  0  0  0  0
   -5.0719   -0.3063   -1.0667 C   0  0  0  0  0  0  0  0  0  0  0  0
   -5.4970    1.1422   -0.9960 C   0  0  0  0  0  0  0  0  0  0  0  0
   -4.1395   -0.6962    0.0535 C   0  0  0  0  0  0  0  0  0  0  0  0
   -2.8359   -0.0027   -0.0265 C   0  0  0  0  0  0  0  0  0  0  0  0
   -1.5984   -0.4558    0.3830 C   0  0  0  0  0  0  0  0  0  0  0  0
   -0.6814    0.4960    0.1240 N   0  0  0  0  0  0  0  0  0  0  0  0
   -1.3191    1.5232   -0.4338 N   0  0  0  0  0  0  0  0  0  0  0  0
   -2.6092    1.2245   -0.5239 N   0  0  0  0  0  0  0  0  0  0  0  0
    0.7450    0.5050    0.3648 C   0  0  0  0  0  0  0  0  0  0  0  0
    1.4525    1.2645   -0.7035 C   0  0  0  0  0  0  0  0  0  0  0  0
    2.8401    0.8168   -1.0178 C   0  0  0  0  0  0  0  0  0  0  0  0
    3.4831    0.0150   -0.0311 N   0  0  0  0  0  0  0  0  0  0  0  0
    2.7460   -0.7107    1.0000 C   0  0  0  0  0  0  0  0  0  0  0  0
    1.3106   -0.8710    0.4783 C   0  0  0  0  0  0  0  0  0  0  0  0
    4.9099   -0.1175   -0.0146 C   0  0  0  0  0  0  0  0  0  0  0  0
    5.7088    0.4622   -0.9757 C   0  0  0  0  0  0  0  0  0  0  0  0
    7.0975    0.3483   -0.9773 C   0  0  0  0  0  0  0  0  0  0  0  0
    7.6821   -0.3812    0.0360 C   0  0  0  0  0  0  0  0  0  0  0  0
    6.8633   -0.9515    0.9854 C   0  0  0  0  0  0  0  0  0  0  0  0
    5.5414   -0.8182    0.9499 N   0  0  0  0  0  0  0  0  0  0  0  0
    9.1157   -0.5375    0.0923 C   0  0  0  0  0  0  0  0  0  0  0  0
   10.2677   -0.6819    0.1322 N   0  0  0  0  0  0  0  0  0  0  0  0
   -4.8205   -0.4224    1.3043 N   0  0  0  0  0  0  0  0  0  0  0  0
   -5.8748   -1.0144    1.8535 C   0  0  0  0  0  0  0  0  0  0  0  0
   -6.1354   -0.3927    3.0387 N   0  0  0  0  0  0  0  0  0  0  0  0
   -5.2392    0.5722    3.2024 C   0  0  0  0  0  0  0  0  0  0  0  0
   -4.4333    0.5459    2.1283 N   0  0  0  0  0  0  0  0  0  0  0  0
   -5.2639   -0.9316   -3.1547 H   0  0  0  0  0  0  0  0  0  0  0  0
   -4.0344    0.3148   -2.8286 H   0  0  0  0  0  0  0  0  0  0  0  0
   -3.7277   -1.4463   -2.3717 H   0  0  0  0  0  0  0  0  0  0  0  0
   -5.9939   -0.9187   -0.9859 H   0  0  0  0  0  0  0  0  0  0  0  0
   -5.1282    1.6644   -0.1040 H   0  0  0  0  0  0  0  0  0  0  0  0
   -6.6212    1.2457   -0.9607 H   0  0  0  0  0  0  0  0  0  0  0  0
   -5.2130    1.6821   -1.9421 H   0  0  0  0  0  0  0  0  0  0  0  0
   -4.0259   -1.8035    0.0002 H   0  0  0  0  0  0  0  0  0  0  0  0
   -1.3555   -1.4023    0.8380 H   0  0  0  0  0  0  0  0  0  0  0  0
    0.8867    0.9974    1.3726 H   0  0  0  0  0  0  0  0  0  0  0  0
    1.4014    2.3590   -0.4400 H   0  0  0  0  0  0  0  0  0  0  0  0
    0.8294    1.1530   -1.6367 H   0  0  0  0  0  0  0  0  0  0  0  0
    2.9139    0.3036   -2.0034 H   0  0  0  0  0  0  0  0  0  0  0  0
    3.4498    1.7621   -1.1383 H   0  0  0  0  0  0  0  0  0  0  0  0
    3.2115   -1.7017    1.1813 H   0  0  0  0  0  0  0  0  0  0  0  0
    2.7377   -0.0715    1.9065 H   0  0  0  0  0  0  0  0  0  0  0  0
    1.3910   -1.3756   -0.4899 H   0  0  0  0  0  0  0  0  0  0  0  0
    0.7476   -1.5233    1.1649 H   0  0  0  0  0  0  0  0  0  0  0  0
    5.2225    1.0339   -1.7700 H   0  0  0  0  0  0  0  0  0  0  0  0
    7.6774    0.8236   -1.7559 H   0  0  0  0  0  0  0  0  0  0  0  0
    7.3761   -1.5229    1.7722 H   0  0  0  0  0  0  0  0  0  0  0  0
   -6.4144   -1.8459    1.4124 H   0  0  0  0  0  0  0  0  0  0  0  0
   -5.1013    1.2913    4.0077 H   0  0  0  0  0  0  0  0  0  0  0  0
  1  2  1  0
  2  3  1  0
  2  4  1  0
  4  5  1  0
  5  6  2  0
  6  7  1  0
  7  8  1  0
  8  9  2  0
  7 10  1  0
 10 11  1  0
 11 12  1  0
 12 13  1  0
 13 14  1  0
 14 15  1  0
 13 16  1  0
 16 17  2  0
 17 18  1  0
 18 19  2  0
 19 20  1  0
 20 21  2  0
 19 22  1  0
 22 23  3  0
  4 24  1  0
 24 25  1  0
 25 26  2  0
 26 27  1  0
 27 28  2  0
  9  5  1  0
 15 10  1  0
 21 16  1  0
 28 24  1  0
  1 29  1  0
  1 30  1  0
  1 31  1  0
  2 32  1  0
  3 33  1  0
  3 34  1  0
  3 35  1  0
  4 36  1  0
  6 37  1  0
 10 38  1  0
 11 39  1  0
 11 40  1  0
 12 41  1  0
 12 42  1  0
 14 43  1  0
 14 44  1  0
 15 45  1  0
 15 46  1  0
 17 47  1  0
 18 48  1  0
 20 49  1  0
 25 50  1  0
 27 51  1  0
M  END
$$$$
[H]c1nc(N([H])c2c([H])c([H])c(N3C([H])([H])C(C([H])([H])[H])(C([H])([H])[H])C3([H])[H])c([H])c2OC([H])([H])[H])nc(N([H])c2c([H])c([H])c([H])c([H])c2S(=O)(=O)C([H])(C([H])([H])[H])C([H])([H])[H])c1Cl
     RDKit          3D

 65 68  0  0  0  0  0  0  0  0999 V2000
    2.4609    0.9921    3.3217 C   0  0  0  0  0  0  0  0  0  0  0  0
    1.7750    0.5765    2.1670 O   0  0  0  0  0  0  0  0  0  0  0  0
    2.4172    0.5619    0.9294 C   0  0  0  0  0  0  0  0  0  0  0  0
    3.7278    0.9572    0.8439 C   0  0  0  0  0  0  0  0  0  0  0  0
    4.3160    0.9242   -0.4024 C   0  0  0  0  0  0  0  0  0  0  0  0
    3.6283    0.5147   -1.5193 C   0  0  0  0  0  0  0  0  0  0  0  0
    2.3039    0.1165   -1.4262 C   0  0  0  0  0  0  0  0  0  0  0  0
    1.6914    0.1379   -0.2016 C   0  0  0  0  0  0  0  0  0  0  0  0
    0.3605   -0.2557   -0.0386 N   0  0  0  0  0  0  0  0  0  0  0  0
   -0.5735   -0.6907   -0.9938 C   0  0  0  0  0  0  0  0  0  0  0  0
   -0.4110   -0.8301   -2.2981 N   0  0  0  0  0  0  0  0  0  0  0  0
   -1.3487   -1.2516   -3.1503 C   0  0  0  0  0  0  0  0  0  0  0  0
   -2.5863   -1.5738   -2.6724 C   0  0  0  0  0  0  0  0  0  0  0  0
   -3.8965   -2.1341   -3.6518 Cl  0  0  0  0  0  0  0  0  0  0  0  0
   -2.8113   -1.4435   -1.2944 C   0  0  0  0  0  0  0  0  0  0  0  0
   -4.0717   -1.7107   -0.7340 N   0  0  0  0  0  0  0  0  0  0  0  0
   -4.4059   -1.6719    0.6245 C   0  0  0  0  0  0  0  0  0  0  0  0
   -3.4851   -1.8075    1.6529 C   0  0  0  0  0  0  0  0  0  0  0  0
   -3.8258   -1.8900    3.0054 C   0  0  0  0  0  0  0  0  0  0  0  0
   -5.1542   -1.8329    3.3123 C   0  0  0  0  0  0  0  0  0  0  0  0
   -6.1265   -1.6996    2.3593 C   0  0  0  0  0  0  0  0  0  0  0  0
   -5.7431   -1.6173    1.0045 C   0  0  0  0  0  0  0  0  0  0  0  0
   -7.0146   -1.3352   -0.1047 S   0  0  0  0  0  0  0  0  0  0  0  0
   -7.0160   -2.2352   -1.3203 O   0  0  0  0  0  0  0  0  0  0  0  0
   -8.3541   -1.6249    0.6336 O   0  0  0  0  0  0  0  0  0  0  0  0
   -7.2035    0.3097   -0.6962 C   0  0  0  0  0  0  0  0  0  0  0  0
   -5.9749    0.8555   -1.3275 C   0  0  0  0  0  0  0  0  0  0  0  0
   -7.5966    1.2649    0.4299 C   0  0  0  0  0  0  0  0  0  0  0  0
   -1.8107   -1.0150   -0.5316 N   0  0  0  0  0  0  0  0  0  0  0  0
    5.6606    1.3203   -0.5445 N   0  0  0  0  0  0  0  0  0  0  0  0
    6.6208    1.4004   -1.6261 C   0  0  0  0  0  0  0  0  0  0  0  0
    7.6845    1.0496   -0.5784 C   0  0  0  0  0  0  0  0  0  0  0  0
    9.0185    1.6790   -0.7986 C   0  0  0  0  0  0  0  0  0  0  0  0
    7.6710   -0.4075   -0.2256 C   0  0  0  0  0  0  0  0  0  0  0  0
    6.7311    1.8397    0.3203 C   0  0  0  0  0  0  0  0  0  0  0  0
    1.7729    0.8060    4.1868 H   0  0  0  0  0  0  0  0  0  0  0  0
    3.3813    0.3951    3.5202 H   0  0  0  0  0  0  0  0  0  0  0  0
    2.6870    2.0605    3.2191 H   0  0  0  0  0  0  0  0  0  0  0  0
    4.2569    1.2779    1.7339 H   0  0  0  0  0  0  0  0  0  0  0  0
    4.0866    0.4887   -2.4955 H   0  0  0  0  0  0  0  0  0  0  0  0
    1.8243   -0.1955   -2.3465 H   0  0  0  0  0  0  0  0  0  0  0  0
   -0.0022   -0.2184    0.9851 H   0  0  0  0  0  0  0  0  0  0  0  0
   -1.1624   -1.3495   -4.2225 H   0  0  0  0  0  0  0  0  0  0  0  0
   -4.7920   -1.9809   -1.4727 H   0  0  0  0  0  0  0  0  0  0  0  0
   -2.4198   -1.8835    1.4230 H   0  0  0  0  0  0  0  0  0  0  0  0
   -3.0480   -1.9926    3.7323 H   0  0  0  0  0  0  0  0  0  0  0  0
   -5.4794   -1.8942    4.3552 H   0  0  0  0  0  0  0  0  0  0  0  0
   -7.1671   -1.6582    2.6608 H   0  0  0  0  0  0  0  0  0  0  0  0
   -8.0708    0.3586   -1.4143 H   0  0  0  0  0  0  0  0  0  0  0  0
   -6.2789    1.8487   -1.7991 H   0  0  0  0  0  0  0  0  0  0  0  0
   -5.6722    0.2558   -2.2073 H   0  0  0  0  0  0  0  0  0  0  0  0
   -5.1397    1.0122   -0.6410 H   0  0  0  0  0  0  0  0  0  0  0  0
   -7.9618    2.1837   -0.0732 H   0  0  0  0  0  0  0  0  0  0  0  0
   -8.4265    0.8274    0.9821 H   0  0  0  0  0  0  0  0  0  0  0  0
   -6.7218    1.5427    1.0286 H   0  0  0  0  0  0  0  0  0  0  0  0
    6.5052    0.6109   -2.4006 H   0  0  0  0  0  0  0  0  0  0  0  0
    6.7641    2.4276   -1.9965 H   0  0  0  0  0  0  0  0  0  0  0  0
    9.0066    2.6946   -0.3397 H   0  0  0  0  0  0  0  0  0  0  0  0
    9.7878    1.0260   -0.3368 H   0  0  0  0  0  0  0  0  0  0  0  0
    9.2272    1.8349   -1.8883 H   0  0  0  0  0  0  0  0  0  0  0  0
    7.1847   -0.5524    0.7837 H   0  0  0  0  0  0  0  0  0  0  0  0
    6.9988   -0.9568   -0.9310 H   0  0  0  0  0  0  0  0  0  0  0  0
    8.6802   -0.8480   -0.1765 H   0  0  0  0  0  0  0  0  0  0  0  0
    6.6610    1.4909    1.3515 H   0  0  0  0  0  0  0  0  0  0  0  0
    6.8605    2.9156    0.1454 H   0  0  0  0  0  0  0  0  0  0  0  0
  1  2  1  0
  2  3  1  0
  3  4  2  0
  4  5  1  0
  5  6  2  0
  6  7  1  0
  7  8  2  0
  8  9  1  0
  9 10  1  0
 10 11  2  0
 11 12  1  0
 12 13  2  0
 13 14  1  0
 13 15  1  0
 15 16  1  0
 16 17  1  0
 17 18  2  0
 18 19  1  0
 19 20  2  0
 20 21  1  0
 21 22  2  0
 22 23  1  0
 23 24  2  0
 23 25  2  0
 23 26  1  0
 26 27  1  0
 26 28  1  0
 15 29  2  0
  5 30  1  0
 30 31  1  0
 31 32  1  0
 32 33  1  0
 32 34  1  0
 32 35  1  0
  8  3  1  0
 29 10  1  0
 35 30  1  0
 22 17  1  0
  1 36  1  0
  1 37  1  0
  1 38  1  0
  4 39  1  0
  6 40  1  0
  7 41  1  0
  9 42  1  0
 12 43  1  0
 16 44  1  0
 18 45  1  0
 19 46  1  0
 20 47  1  0
 21 48  1  0
 26 49  1  0
 27 50  1  0
 27 51  1  0
 27 52  1  0
 28 53  1  0
 28 54  1  0
 28 55  1  0
 31 56  1  0
 31 57  1  0
 33 58  1  0
 33 59  1  0
 33 60  1  0
 34 61  1  0
 34 62  1  0
 34 63  1  0
 35 64  1  0
 35 65  1  0
M  END
$$$$
[H]OC(=O)[C@@]([H])(N([H])C(=O)[C@@]([H])(N([H])[H])C([H])([H])c1c([H])c([H])c([H])c([H])c1[H])C([H])([H])c1c([H])c([H])c(-c2c([H])c([H])c([H])c([H])c2[H])c([H])c1[H]
     RDKit          3D

 53 55  0  0  0  0  0  0  0  0999 V2000
    4.1330   -1.4344    1.1959 N   0  0  0  0  0  0  0  0  0  0  0  0
    3.8157   -0.1196    0.7307 C   0  0  1  0  0  0  0  0  0  0  0  0
    4.6405    0.2349   -0.4674 C   0  0  0  0  0  0  0  0  0  0  0  0
    6.0985    0.2110   -0.1823 C   0  0  0  0  0  0  0  0  0  0  0  0
    6.8460   -0.9330   -0.3537 C   0  0  0  0  0  0  0  0  0  0  0  0
    8.2131   -0.9612   -0.0878 C   0  0  0  0  0  0  0  0  0  0  0  0
    8.8491    0.1813    0.3603 C   0  0  0  0  0  0  0  0  0  0  0  0
    8.0959    1.3259    0.5308 C   0  0  0  0  0  0  0  0  0  0  0  0
    6.7434    1.3382    0.2633 C   0  0  0  0  0  0  0  0  0  0  0  0
    2.3776    0.0365    0.3460 C   0  0  0  0  0  0  0  0  0  0  0  0
    2.0002    1.1488   -0.0839 O   0  0  0  0  0  0  0  0  0  0  0  0
    1.4595   -1.0225    0.4563 N   0  0  0  0  0  0  0  0  0  0  0  0
    0.0447   -0.9403    0.1032 C   0  0  1  0  0  0  0  0  0  0  0  0
   -0.6538    0.0813    0.9156 C   0  0  0  0  0  0  0  0  0  0  0  0
   -2.0828    0.1891    0.5934 C   0  0  0  0  0  0  0  0  0  0  0  0
   -2.6282    1.1396   -0.2563 C   0  0  0  0  0  0  0  0  0  0  0  0
   -3.9789    1.2061   -0.5266 C   0  0  0  0  0  0  0  0  0  0  0  0
   -4.8657    0.3196    0.0416 C   0  0  0  0  0  0  0  0  0  0  0  0
   -4.3550   -0.6310    0.8856 C   0  0  0  0  0  0  0  0  0  0  0  0
   -3.0098   -0.6929    1.1514 C   0  0  0  0  0  0  0  0  0  0  0  0
   -6.2860    0.4001   -0.2516 C   0  0  0  0  0  0  0  0  0  0  0  0
   -7.0681   -0.7271   -0.2595 C   0  0  0  0  0  0  0  0  0  0  0  0
   -8.4235   -0.6580   -0.5388 C   0  0  0  0  0  0  0  0  0  0  0  0
   -9.0194    0.5538   -0.8170 C   0  0  0  0  0  0  0  0  0  0  0  0
   -8.2348    1.6865   -0.8096 C   0  0  0  0  0  0  0  0  0  0  0  0
   -6.8944    1.6128   -0.5325 C   0  0  0  0  0  0  0  0  0  0  0  0
   -0.1496   -0.8023   -1.3278 C   0  0  0  0  0  0  0  0  0  0  0  0
   -1.3542   -0.8237   -1.9987 O   0  0  0  0  0  0  0  0  0  0  0  0
    0.9021   -0.6505   -2.0378 O   0  0  0  0  0  0  0  0  0  0  0  0
    3.5222   -1.7742    1.9496 H   0  0  0  0  0  0  0  0  0  0  0  0
    4.2656   -2.1266    0.4204 H   0  0  0  0  0  0  0  0  0  0  0  0
    3.9884    0.5812    1.5754 H   0  0  0  0  0  0  0  0  0  0  0  0
    4.3449    1.2593   -0.7974 H   0  0  0  0  0  0  0  0  0  0  0  0
    4.4227   -0.4399   -1.3035 H   0  0  0  0  0  0  0  0  0  0  0  0
    6.3709   -1.8331   -0.7018 H   0  0  0  0  0  0  0  0  0  0  0  0
    8.8132   -1.8504   -0.2171 H   0  0  0  0  0  0  0  0  0  0  0  0
    9.9113    0.1505    0.5642 H   0  0  0  0  0  0  0  0  0  0  0  0
    8.6060    2.2076    0.8803 H   0  0  0  0  0  0  0  0  0  0  0  0
    6.1791    2.2650    0.4102 H   0  0  0  0  0  0  0  0  0  0  0  0
    1.8107   -1.9234    0.8116 H   0  0  0  0  0  0  0  0  0  0  0  0
   -0.4053   -1.9375    0.4145 H   0  0  0  0  0  0  0  0  0  0  0  0
   -0.2145    1.1076    0.8335 H   0  0  0  0  0  0  0  0  0  0  0  0
   -0.5953   -0.1708    2.0282 H   0  0  0  0  0  0  0  0  0  0  0  0
   -1.9640    1.8604   -0.7273 H   0  0  0  0  0  0  0  0  0  0  0  0
   -4.3234    1.9642   -1.1897 H   0  0  0  0  0  0  0  0  0  0  0  0
   -5.0178   -1.3436    1.3506 H   0  0  0  0  0  0  0  0  0  0  0  0
   -2.6293   -1.4467    1.8163 H   0  0  0  0  0  0  0  0  0  0  0  0
   -6.6663   -1.6989   -0.0514 H   0  0  0  0  0  0  0  0  0  0  0  0
   -9.0352   -1.5410   -0.5448 H   0  0  0  0  0  0  0  0  0  0  0  0
  -10.0790    0.6442   -1.0402 H   0  0  0  0  0  0  0  0  0  0  0  0
   -8.7099    2.6445   -1.0303 H   0  0  0  0  0  0  0  0  0  0  0  0
   -6.2684    2.5034   -0.5248 H   0  0  0  0  0  0  0  0  0  0  0  0
   -1.5417   -0.3711   -2.8656 H   0  0  0  0  0  0  0  0  0  0  0  0
  1  2  1  0
  2  3  1  0
  3  4  1  0
  4  5  2  0
  5  6  1  0
  6  7  2  0
  7  8  1  0
  8  9  2  0
  2 10  1  0
 10 11  2  0
 10 12  1  0
 12 13  1  0
 13 14  1  0
 14 15  1  0
 15 16  2  0
 16 17  1  0
 17 18  2  0
 18 19  1  0
 19 20  2  0
 18 21  1  0
 21 22  2  0
 22 23  1  0
 23 24  2  0
 24 25  1  0
 25 26  2  0
 13 27  1  0
 27 28  1  0
 27 29  2  0
  9  4  1  0
 20 15  1  0
 26 21  1  0
  1 30  1  0
  1 31  1  0
  2 32  1  1
  3 33  1  0
  3 34  1  0
  5 35  1  0
  6 36  1  0
  7 37  1  0
  8 38  1  0
  9 39  1  0
 12 40  1  0
 13 41  1  1
 14 42  1  0
 14 43  1  0
 16 44  1  0
 17 45  1  0
 19 46  1  0
 20 47  1  0
 22 48  1  0
 23 49  1  0
 24 50  1  0
 25 51  1  0
 26 52  1  0
 28 53  1  0
M  END
$$$$
[H]OC(=O)[C@@]1([H])N(C(=O)c2nn(-c3c([H])c([H])c(N4C([H])([H])C([H])([H])N(C([H])([H])[H])C([H])([H])C4([H])[H])c([H])c3[H])c(C3([H])c4c(O[H])c(O[H])c([H])c([H])c4C([H])([H])C3([H])[H])c2[H])C([H])([H])C([H])([H])C1([H])[H]
     RDKit          3D

 72 77  0  0  0  0  0  0  0  0999 V2000
   -1.2443    4.4012   -0.9223 C   0  0  0  0  0  0  0  0  0  0  0  0
   -1.1721    5.6030   -0.2713 C   0  0  0  0  0  0  0  0  0  0  0  0
   -1.0812    5.6877    1.1021 C   0  0  0  0  0  0  0  0  0  0  0  0
   -1.0633    4.5081    1.8267 C   0  0  0  0  0  0  0  0  0  0  0  0
   -0.9712    4.5638    3.2194 O   0  0  0  0  0  0  0  0  0  0  0  0
   -1.1365    3.2996    1.1609 C   0  0  0  0  0  0  0  0  0  0  0  0
   -1.1167    2.1218    1.9238 O   0  0  0  0  0  0  0  0  0  0  0  0
   -1.2281    3.1985   -0.2100 C   0  0  0  0  0  0  0  0  0  0  0  0
   -1.3119    2.1223   -1.2047 C   0  0  0  0  0  0  0  0  0  0  0  0
   -1.8669    0.8543   -0.7398 C   0  0  0  0  0  0  0  0  0  0  0  0
   -1.1170   -0.2220   -0.4073 N   0  0  0  0  0  0  0  0  0  0  0  0
    0.3249   -0.3446   -0.4459 C   0  0  0  0  0  0  0  0  0  0  0  0
    0.9798   -0.3065   -1.6553 C   0  0  0  0  0  0  0  0  0  0  0  0
    2.3665   -0.4198   -1.7061 C   0  0  0  0  0  0  0  0  0  0  0  0
    3.1356   -0.5717   -0.5744 C   0  0  0  0  0  0  0  0  0  0  0  0
    4.5395   -0.6596   -0.7055 N   0  0  0  0  0  0  0  0  0  0  0  0
    5.3472   -1.1770    0.4090 C   0  0  0  0  0  0  0  0  0  0  0  0
    6.1576    0.0188    0.8843 C   0  0  0  0  0  0  0  0  0  0  0  0
    6.9855    0.4917   -0.2100 N   0  0  0  0  0  0  0  0  0  0  0  0
    8.0557   -0.4355   -0.4490 C   0  0  0  0  0  0  0  0  0  0  0  0
    6.2628    0.8203   -1.3932 C   0  0  0  0  0  0  0  0  0  0  0  0
    5.3028   -0.2572   -1.8620 C   0  0  0  0  0  0  0  0  0  0  0  0
    2.4608   -0.6072    0.6251 C   0  0  0  0  0  0  0  0  0  0  0  0
    1.0650   -0.4945    0.6849 C   0  0  0  0  0  0  0  0  0  0  0  0
   -1.9679   -1.1558   -0.0387 N   0  0  0  0  0  0  0  0  0  0  0  0
   -3.2389   -0.7797   -0.1015 C   0  0  0  0  0  0  0  0  0  0  0  0
   -4.4334   -1.5475    0.2254 C   0  0  0  0  0  0  0  0  0  0  0  0
   -4.4638   -2.8657    0.6757 N   0  0  0  0  0  0  0  0  0  0  0  0
   -5.6804   -3.5855    1.0076 C   0  0  2  0  0  0  0  0  0  0  0  0
   -5.8673   -3.7086    2.4701 C   0  0  0  0  0  0  0  0  0  0  0  0
   -6.9913   -4.3933    2.9218 O   0  0  0  0  0  0  0  0  0  0  0  0
   -5.0823   -3.2380    3.3290 O   0  0  0  0  0  0  0  0  0  0  0  0
   -5.4275   -4.9587    0.4438 C   0  0  0  0  0  0  0  0  0  0  0  0
   -3.9441   -5.1173    0.5080 C   0  0  0  0  0  0  0  0  0  0  0  0
   -3.3737   -3.7647    0.9042 C   0  0  0  0  0  0  0  0  0  0  0  0
   -5.5609   -0.9359    0.0812 O   0  0  0  0  0  0  0  0  0  0  0  0
   -3.1938    0.5315   -0.5578 C   0  0  0  0  0  0  0  0  0  0  0  0
   -2.1431    2.7866   -2.3091 C   0  0  0  0  0  0  0  0  0  0  0  0
   -1.3594    4.1111   -2.3863 C   0  0  0  0  0  0  0  0  0  0  0  0
   -1.1853    6.5334   -0.8443 H   0  0  0  0  0  0  0  0  0  0  0  0
   -1.0241    6.6656    1.5969 H   0  0  0  0  0  0  0  0  0  0  0  0
   -0.9201    5.4656    3.6605 H   0  0  0  0  0  0  0  0  0  0  0  0
   -1.0499    2.1560    2.9327 H   0  0  0  0  0  0  0  0  0  0  0  0
   -0.2973    2.0180   -1.6569 H   0  0  0  0  0  0  0  0  0  0  0  0
    0.4152   -0.1886   -2.5768 H   0  0  0  0  0  0  0  0  0  0  0  0
    2.7899   -0.3849   -2.7094 H   0  0  0  0  0  0  0  0  0  0  0  0
    4.7516   -1.6148    1.1929 H   0  0  0  0  0  0  0  0  0  0  0  0
    6.0317   -1.9522   -0.0327 H   0  0  0  0  0  0  0  0  0  0  0  0
    6.8249   -0.3033    1.6961 H   0  0  0  0  0  0  0  0  0  0  0  0
    5.4302    0.7882    1.1760 H   0  0  0  0  0  0  0  0  0  0  0  0
    8.2731   -0.9477    0.5040 H   0  0  0  0  0  0  0  0  0  0  0  0
    7.7556   -1.2049   -1.1718 H   0  0  0  0  0  0  0  0  0  0  0  0
    8.9518    0.1315   -0.8040 H   0  0  0  0  0  0  0  0  0  0  0  0
    5.6757    1.7469   -1.2972 H   0  0  0  0  0  0  0  0  0  0  0  0
    6.9982    0.9910   -2.2002 H   0  0  0  0  0  0  0  0  0  0  0  0
    4.6748    0.1975   -2.6357 H   0  0  0  0  0  0  0  0  0  0  0  0
    5.8495   -1.1070   -2.3075 H   0  0  0  0  0  0  0  0  0  0  0  0
    3.0099   -0.7187    1.5348 H   0  0  0  0  0  0  0  0  0  0  0  0
    0.5623   -0.5271    1.6382 H   0  0  0  0  0  0  0  0  0  0  0  0
   -6.5634   -3.1030    0.5346 H   0  0  0  0  0  0  0  0  0  0  0  0
   -7.6163   -3.9596    3.6018 H   0  0  0  0  0  0  0  0  0  0  0  0
   -5.8693   -5.0843   -0.5684 H   0  0  0  0  0  0  0  0  0  0  0  0
   -5.9670   -5.6887    1.0931 H   0  0  0  0  0  0  0  0  0  0  0  0
   -3.5976   -5.4279   -0.4996 H   0  0  0  0  0  0  0  0  0  0  0  0
   -3.6795   -5.8674    1.2636 H   0  0  0  0  0  0  0  0  0  0  0  0
   -3.0751   -3.8194    1.9759 H   0  0  0  0  0  0  0  0  0  0  0  0
   -2.5259   -3.5292    0.2414 H   0  0  0  0  0  0  0  0  0  0  0  0
   -4.0684    1.1475   -0.7244 H   0  0  0  0  0  0  0  0  0  0  0  0
   -3.1351    3.0659   -1.9494 H   0  0  0  0  0  0  0  0  0  0  0  0
   -2.1082    2.2223   -3.2389 H   0  0  0  0  0  0  0  0  0  0  0  0
   -1.8962    4.8794   -2.9381 H   0  0  0  0  0  0  0  0  0  0  0  0
   -0.3627    3.8459   -2.7398 H   0  0  0  0  0  0  0  0  0  0  0  0
  1  2  2  0
  2  3  1  0
  3  4  2  0
  4  5  1  0
  4  6  1  0
  6  7  1  0
  6  8  2  0
  8  9  1  0
  9 10  1  0
 10 11  1  0
 11 12  1  0
 12 13  2  0
 13 14  1  0
 14 15  2  0
 15 16  1  0
 16 17  1  0
 17 18  1  0
 18 19  1  0
 19 20  1  0
 19 21  1  0
 21 22  1  0
 15 23  1  0
 23 24  2  0
 11 25  1  0
 25 26  2  0
 26 27  1  0
 27 28  1  0
 28 29  1  0
 29 30  1  0
 30 31  1  0
 30 32  2  0
 29 33  1  0
 33 34  1  0
 34 35  1  0
 27 36  2  0
 26 37  1  0
  9 38  1  0
 38 39  1  0
  8  1  1  0
 37 10  2  0
 39  1  1  0
 24 12  1  0
 22 16  1  0
 35 28  1  0
  2 40  1  0
  3 41  1  0
  5 42  1  0
  7 43  1  0
  9 44  1  0
 13 45  1  0
 14 46  1  0
 17 47  1  0
 17 48  1  0
 18 49  1  0
 18 50  1  0
 20 51  1  0
 20 52  1  0
 20 53  1  0
 21 54  1  0
 21 55  1  0
 22 56  1  0
 22 57  1  0
 23 58  1  0
 24 59  1  0
 29 60  1  6
 31 61  1  0
 33 62  1  0
 33 63  1  0
 34 64  1  0
 34 65  1  0
 35 66  1  0
 35 67  1  0
 37 68  1  0
 38 69  1  0
 38 70  1  0
 39 71  1  0
 39 72  1  0
M  END
$$$$
[H]O[C@@]1(C([H])([H])[H])C([H])([H])C([H])([H])[C@@]2([H])[C@]3([H])C([H])([H])C([H])([H])C4=C([H])C(=O)C([H])([H])C([H])([H])[C@]4(C([H])([H])[H])[C@@]3([H])C([H])([H])C([H])([H])[C@@]12C([H])([H])[H]
     RDKit          3D

 52 55  0  0  0  0  0  0  0  0999 V2000
   -4.5738    0.5944   -0.6602 C   0  0  0  0  0  0  0  0  0  0  0  0
   -3.4507   -0.2318   -0.1207 C   0  0  2  0  0  0  0  0  0  0  0  0
   -3.5907   -1.5179   -0.6150 O   0  0  0  0  0  0  0  0  0  0  0  0
   -3.5970   -0.2913    1.3806 C   0  0  0  0  0  0  0  0  0  0  0  0
   -2.1761   -0.5744    1.8151 C   0  0  0  0  0  0  0  0  0  0  0  0
   -1.3378    0.3039    0.9097 C   0  0  1  0  0  0  0  0  0  0  0  0
   -0.0001   -0.4111    0.7467 C   0  0  2  0  0  0  0  0  0  0  0  0
    0.7121   -0.5445    2.0450 C   0  0  0  0  0  0  0  0  0  0  0  0
    1.9013   -1.4717    1.7452 C   0  0  0  0  0  0  0  0  0  0  0  0
    2.7633   -0.7081    0.8013 C   0  0  0  0  0  0  0  0  0  0  0  0
    4.0544   -0.6258    1.0590 C   0  0  0  0  0  0  0  0  0  0  0  0
    4.9970    0.0937    0.2095 C   0  0  0  0  0  0  0  0  0  0  0  0
    6.1940   -0.2268    0.1899 O   0  0  0  0  0  0  0  0  0  0  0  0
    4.4312    1.1981   -0.5989 C   0  0  0  0  0  0  0  0  0  0  0  0
    2.9491    1.3067   -0.5089 C   0  0  0  0  0  0  0  0  0  0  0  0
    2.2379   -0.0375   -0.4059 C   0  0  1  0  0  0  0  0  0  0  0  0
    2.6303   -0.7962   -1.6836 C   0  0  0  0  0  0  0  0  0  0  0  0
    0.7618    0.1882   -0.3742 C   0  0  1  0  0  0  0  0  0  0  0  0
    0.0477   -0.2696   -1.6407 C   0  0  0  0  0  0  0  0  0  0  0  0
   -1.4204   -0.4782   -1.4234 C   0  0  0  0  0  0  0  0  0  0  0  0
   -2.0750    0.3679   -0.3971 C   0  0  1  0  0  0  0  0  0  0  0  0
   -2.3191    1.7858   -0.8668 C   0  0  0  0  0  0  0  0  0  0  0  0
   -5.4619   -0.0895   -0.8046 H   0  0  0  0  0  0  0  0  0  0  0  0
   -4.9513    1.3455    0.0953 H   0  0  0  0  0  0  0  0  0  0  0  0
   -4.3940    1.0520   -1.6342 H   0  0  0  0  0  0  0  0  0  0  0  0
   -3.4141   -2.1813    0.1114 H   0  0  0  0  0  0  0  0  0  0  0  0
   -4.2458   -1.1528    1.6436 H   0  0  0  0  0  0  0  0  0  0  0  0
   -4.0100    0.6196    1.8215 H   0  0  0  0  0  0  0  0  0  0  0  0
   -1.9644   -1.6310    1.5236 H   0  0  0  0  0  0  0  0  0  0  0  0
   -2.0079   -0.3829    2.8817 H   0  0  0  0  0  0  0  0  0  0  0  0
   -1.2225    1.2853    1.3960 H   0  0  0  0  0  0  0  0  0  0  0  0
   -0.2847   -1.4607    0.4332 H   0  0  0  0  0  0  0  0  0  0  0  0
    1.0448    0.3993    2.4900 H   0  0  0  0  0  0  0  0  0  0  0  0
    0.0229   -1.0249    2.7653 H   0  0  0  0  0  0  0  0  0  0  0  0
    1.4912   -2.4003    1.3142 H   0  0  0  0  0  0  0  0  0  0  0  0
    2.3766   -1.6923    2.6915 H   0  0  0  0  0  0  0  0  0  0  0  0
    4.4327   -1.1329    1.9703 H   0  0  0  0  0  0  0  0  0  0  0  0
    4.8672    2.1420   -0.1962 H   0  0  0  0  0  0  0  0  0  0  0  0
    4.7995    1.1112   -1.6428 H   0  0  0  0  0  0  0  0  0  0  0  0
    2.5746    1.7760   -1.4499 H   0  0  0  0  0  0  0  0  0  0  0  0
    2.6247    1.9949    0.3105 H   0  0  0  0  0  0  0  0  0  0  0  0
    3.6939   -0.6481   -1.9577 H   0  0  0  0  0  0  0  0  0  0  0  0
    2.3823   -1.8583   -1.5232 H   0  0  0  0  0  0  0  0  0  0  0  0
    2.0913   -0.3455   -2.5651 H   0  0  0  0  0  0  0  0  0  0  0  0
    0.5698    1.2963   -0.3316 H   0  0  0  0  0  0  0  0  0  0  0  0
    0.4583   -1.2992   -1.8670 H   0  0  0  0  0  0  0  0  0  0  0  0
    0.1706    0.4287   -2.4776 H   0  0  0  0  0  0  0  0  0  0  0  0
   -1.6526   -1.5544   -1.1682 H   0  0  0  0  0  0  0  0  0  0  0  0
   -1.9582   -0.3154   -2.3975 H   0  0  0  0  0  0  0  0  0  0  0  0
   -1.4773    2.4623   -0.7322 H   0  0  0  0  0  0  0  0  0  0  0  0
   -2.5130    1.7545   -1.9792 H   0  0  0  0  0  0  0  0  0  0  0  0
   -3.1823    2.2648   -0.3278 H   0  0  0  0  0  0  0  0  0  0  0  0
  1  2  1  0
  2  3  1  6
  2  4  1  0
  4  5  1  0
  5  6  1  0
  6  7  1  0
  7  8  1  0
  8  9  1  0
  9 10  1  0
 10 11  2  0
 11 12  1  0
 12 13  2  0
 12 14  1  0
 14 15  1  0
 15 16  1  0
 16 17  1  6
 16 18  1  0
 18 19  1  0
 19 20  1  0
 20 21  1  0
 21 22  1  6
 21  2  1  0
 21  6  1  0
 18  7  1  0
 16 10  1  0
  1 23  1  0
  1 24  1  0
  1 25  1  0
  3 26  1  0
  4 27  1  0
  4 28  1  0
  5 29  1  0
  5 30  1  0
  6 31  1  1
  7 32  1  6
  8 33  1  0
  8 34  1  0
  9 35  1  0
  9 36  1  0
 11 37  1  0
 14 38  1  0
 14 39  1  0
 15 40  1  0
 15 41  1  0
 17 42  1  0
 17 43  1  0
 17 44  1  0
 18 45  1  1
 19 46  1  0
 19 47  1  0
 20 48  1  0
 20 49  1  0
 22 50  1  0
 22 51  1  0
 22 52  1  0
M  END
$$$$
[H]/C(=C1\C(=O)N([H])c2c([H])c([H])c(F)c([H])c21)c1c(C([H])([H])[H])c(C(=O)N([H])C([H])([H])C([H])([H])N(C([H])([H])C([H])([H])[H])C([H])([H])C([H])([H])[H])c(C([H])([H])[H])n1[H]
     RDKit          3D

 56 58  0  0  0  0  0  0  0  0999 V2000
   -4.8451   -1.9935   -1.5277 C   0  0  0  0  0  0  0  0  0  0  0  0
   -4.9356   -2.4113   -0.0789 C   0  0  0  0  0  0  0  0  0  0  0  0
   -4.2722   -1.6343    0.8495 N   0  0  0  0  0  0  0  0  0  0  0  0
   -4.7342   -0.3533    1.1312 C   0  0  0  0  0  0  0  0  0  0  0  0
   -4.5368    0.6077   -0.0045 C   0  0  0  0  0  0  0  0  0  0  0  0
   -3.4471   -2.2952    1.7818 C   0  0  0  0  0  0  0  0  0  0  0  0
   -2.2319   -2.8997    1.1412 C   0  0  0  0  0  0  0  0  0  0  0  0
   -1.3974   -1.9487    0.4456 N   0  0  0  0  0  0  0  0  0  0  0  0
   -0.8094   -0.8724    1.1250 C   0  0  0  0  0  0  0  0  0  0  0  0
   -1.0252   -0.7490    2.3648 O   0  0  0  0  0  0  0  0  0  0  0  0
    0.0493    0.1508    0.5175 C   0  0  0  0  0  0  0  0  0  0  0  0
    0.3327    1.3743    1.1321 C   0  0  0  0  0  0  0  0  0  0  0  0
   -0.1956    1.8460    2.4580 C   0  0  0  0  0  0  0  0  0  0  0  0
    1.1623    2.0393    0.3246 N   0  0  0  0  0  0  0  0  0  0  0  0
    1.4438    1.3463   -0.7685 C   0  0  0  0  0  0  0  0  0  0  0  0
    2.2830    1.7502   -1.8575 C   0  0  0  0  0  0  0  0  0  0  0  0
    3.5798    1.8362   -1.8638 C   0  0  0  0  0  0  0  0  0  0  0  0
    4.3985    2.2766   -3.0260 C   0  0  0  0  0  0  0  0  0  0  0  0
    3.9882    2.6446   -4.1474 O   0  0  0  0  0  0  0  0  0  0  0  0
    5.7487    2.1951   -2.6025 N   0  0  0  0  0  0  0  0  0  0  0  0
    5.7750    1.7313   -1.2621 C   0  0  0  0  0  0  0  0  0  0  0  0
    6.8633    1.4921   -0.4599 C   0  0  0  0  0  0  0  0  0  0  0  0
    6.6745    1.0251    0.8079 C   0  0  0  0  0  0  0  0  0  0  0  0
    5.3960    0.7991    1.2630 C   0  0  0  0  0  0  0  0  0  0  0  0
    5.2898    0.3313    2.5431 F   0  0  0  0  0  0  0  0  0  0  0  0
    4.2815    1.0323    0.4763 C   0  0  0  0  0  0  0  0  0  0  0  0
    4.4769    1.5055   -0.7949 C   0  0  0  0  0  0  0  0  0  0  0  0
    0.7528    0.1614   -0.6609 C   0  0  0  0  0  0  0  0  0  0  0  0
    0.7794   -0.9523   -1.6722 C   0  0  0  0  0  0  0  0  0  0  0  0
   -5.5058   -1.1419   -1.7384 H   0  0  0  0  0  0  0  0  0  0  0  0
   -3.7807   -1.8329   -1.7880 H   0  0  0  0  0  0  0  0  0  0  0  0
   -5.2525   -2.8650   -2.1156 H   0  0  0  0  0  0  0  0  0  0  0  0
   -4.5758   -3.4911   -0.0345 H   0  0  0  0  0  0  0  0  0  0  0  0
   -6.0377   -2.5142    0.1818 H   0  0  0  0  0  0  0  0  0  0  0  0
   -5.8265   -0.3359    1.4459 H   0  0  0  0  0  0  0  0  0  0  0  0
   -4.2320    0.0881    2.0571 H   0  0  0  0  0  0  0  0  0  0  0  0
   -4.1380    1.5850    0.4215 H   0  0  0  0  0  0  0  0  0  0  0  0
   -3.8071    0.3156   -0.7568 H   0  0  0  0  0  0  0  0  0  0  0  0
   -5.5043    0.8806   -0.4884 H   0  0  0  0  0  0  0  0  0  0  0  0
   -3.1724   -1.5787    2.5805 H   0  0  0  0  0  0  0  0  0  0  0  0
   -4.0154   -3.1036    2.3354 H   0  0  0  0  0  0  0  0  0  0  0  0
   -1.5930   -3.4291    1.8886 H   0  0  0  0  0  0  0  0  0  0  0  0
   -2.5974   -3.6437    0.3726 H   0  0  0  0  0  0  0  0  0  0  0  0
   -1.2508   -2.0837   -0.5755 H   0  0  0  0  0  0  0  0  0  0  0  0
    0.2853    2.8206    2.7065 H   0  0  0  0  0  0  0  0  0  0  0  0
    0.1365    1.1459    3.2304 H   0  0  0  0  0  0  0  0  0  0  0  0
   -1.2791    1.9938    2.4350 H   0  0  0  0  0  0  0  0  0  0  0  0
    1.5489    3.0117    0.5355 H   0  0  0  0  0  0  0  0  0  0  0  0
    1.8026    2.0326   -2.8354 H   0  0  0  0  0  0  0  0  0  0  0  0
    6.6039    2.4359   -3.1841 H   0  0  0  0  0  0  0  0  0  0  0  0
    7.8782    1.6680   -0.8120 H   0  0  0  0  0  0  0  0  0  0  0  0
    7.5504    0.8482    1.4144 H   0  0  0  0  0  0  0  0  0  0  0  0
    3.3610    0.7816    0.9341 H   0  0  0  0  0  0  0  0  0  0  0  0
    1.6344   -0.7683   -2.3797 H   0  0  0  0  0  0  0  0  0  0  0  0
    1.0339   -1.8917   -1.1679 H   0  0  0  0  0  0  0  0  0  0  0  0
   -0.1116   -0.9627   -2.2978 H   0  0  0  0  0  0  0  0  0  0  0  0
  1  2  1  0
  2  3  1  0
  3  4  1  0
  4  5  1  0
  3  6  1  0
  6  7  1  0
  7  8  1  0
  8  9  1  0
  9 10  2  0
  9 11  1  0
 11 12  2  0
 12 13  1  0
 12 14  1  0
 14 15  1  0
 15 16  1  0
 16 17  2  0
 17 18  1  0
 18 19  2  0
 18 20  1  0
 20 21  1  0
 21 22  2  0
 22 23  1  0
 23 24  2  0
 24 25  1  0
 24 26  1  0
 26 27  2  0
 15 28  2  0
 28 29  1  0
 28 11  1  0
 27 17  1  0
 27 21  1  0
  1 30  1  0
  1 31  1  0
  1 32  1  0
  2 33  1  0
  2 34  1  0
  4 35  1  0
  4 36  1  0
  5 37  1  0
  5 38  1  0
  5 39  1  0
  6 40  1  0
  6 41  1  0
  7 42  1  0
  7 43  1  0
  8 44  1  0
 13 45  1  0
 13 46  1  0
 13 47  1  0
 14 48  1  0
 16 49  1  0
 20 50  1  0
 22 51  1  0
 23 52  1  0
 26 53  1  0
 29 54  1  0
 29 55  1  0
 29 56  1  0
M  END
$$$$
[H]c1nc(N([H])[H])nc(-c2c([H])c([H])c(-c3c([H])c([H])c(C#N)c(C(F)(F)F)c3[H])c(C([H])(F)F)c2[H])c1Cl
     RDKit          3D

 39 41  0  0  0  0  0  0  0  0999 V2000
    6.0467   -2.2112    1.7457 N   0  0  0  0  0  0  0  0  0  0  0  0
    5.4431   -0.9694    1.4518 C   0  0  0  0  0  0  0  0  0  0  0  0
    4.1390   -0.9288    1.1793 N   0  0  0  0  0  0  0  0  0  0  0  0
    3.4943    0.2281    0.8886 C   0  0  0  0  0  0  0  0  0  0  0  0
    4.2399    1.3845    0.8831 C   0  0  0  0  0  0  0  0  0  0  0  0
    3.5409    2.9571    0.5395 Cl  0  0  0  0  0  0  0  0  0  0  0  0
    5.6063    1.3604    1.1659 C   0  0  0  0  0  0  0  0  0  0  0  0
    6.1600    0.1686    1.4426 N   0  0  0  0  0  0  0  0  0  0  0  0
    2.0716    0.2662    0.6020 C   0  0  0  0  0  0  0  0  0  0  0  0
    1.2307   -0.4102    1.4540 C   0  0  0  0  0  0  0  0  0  0  0  0
   -0.1144   -0.4096    1.2166 C   0  0  0  0  0  0  0  0  0  0  0  0
   -0.6822    0.2531    0.1368 C   0  0  0  0  0  0  0  0  0  0  0  0
   -2.1091    0.2142   -0.0561 C   0  0  0  0  0  0  0  0  0  0  0  0
   -2.9936    1.1568    0.4151 C   0  0  0  0  0  0  0  0  0  0  0  0
   -4.3444    1.0309    0.1839 C   0  0  0  0  0  0  0  0  0  0  0  0
   -4.8943   -0.0135   -0.5134 C   0  0  0  0  0  0  0  0  0  0  0  0
   -6.2935   -0.1808   -0.7753 C   0  0  0  0  0  0  0  0  0  0  0  0
   -7.4274   -0.3013   -0.9740 N   0  0  0  0  0  0  0  0  0  0  0  0
   -3.9909   -0.9658   -0.9882 C   0  0  0  0  0  0  0  0  0  0  0  0
   -2.6391   -0.8536   -0.7652 C   0  0  0  0  0  0  0  0  0  0  0  0
   -4.4866   -2.1300   -1.7514 C   0  0  0  0  0  0  0  0  0  0  0  0
   -5.1472   -1.6761   -2.8949 F   0  0  0  0  0  0  0  0  0  0  0  0
   -3.4239   -2.8859   -2.1956 F   0  0  0  0  0  0  0  0  0  0  0  0
   -5.3223   -2.9407   -1.0362 F   0  0  0  0  0  0  0  0  0  0  0  0
    0.1433    0.9256   -0.7125 C   0  0  0  0  0  0  0  0  0  0  0  0
    1.5378    0.9343   -0.4802 C   0  0  0  0  0  0  0  0  0  0  0  0
   -0.3836    1.6516   -1.8782 C   0  0  0  0  0  0  0  0  0  0  0  0
   -1.0639    0.8929   -2.7806 F   0  0  0  0  0  0  0  0  0  0  0  0
   -1.1041    2.7441   -1.4130 F   0  0  0  0  0  0  0  0  0  0  0  0
    7.0467   -2.4069    1.5397 H   0  0  0  0  0  0  0  0  0  0  0  0
    5.4728   -2.9597    2.1844 H   0  0  0  0  0  0  0  0  0  0  0  0
    6.2394    2.2283    1.1765 H   0  0  0  0  0  0  0  0  0  0  0  0
    1.6544   -0.9289    2.2955 H   0  0  0  0  0  0  0  0  0  0  0  0
   -0.7498   -0.9517    1.9063 H   0  0  0  0  0  0  0  0  0  0  0  0
   -2.5966    1.9927    0.9720 H   0  0  0  0  0  0  0  0  0  0  0  0
   -5.0269    1.7952    0.5697 H   0  0  0  0  0  0  0  0  0  0  0  0
   -1.9498   -1.6229   -1.1534 H   0  0  0  0  0  0  0  0  0  0  0  0
    2.1710    1.4692   -1.1725 H   0  0  0  0  0  0  0  0  0  0  0  0
    0.5060    2.0932   -2.4341 H   0  0  0  0  0  0  0  0  0  0  0  0
  1  2  1  0
  2  3  2  0
  3  4  1  0
  4  5  2  0
  5  6  1  0
  5  7  1  0
  7  8  2  0
  4  9  1  0
  9 10  2  0
 10 11  1  0
 11 12  2  0
 12 13  1  0
 13 14  2  0
 14 15  1  0
 15 16  2  0
 16 17  1  0
 17 18  3  0
 16 19  1  0
 19 20  2  0
 19 21  1  0
 21 22  1  0
 21 23  1  0
 21 24  1  0
 12 25  1  0
 25 26  2  0
 25 27  1  0
 27 28  1  0
 27 29  1  0
  8  2  1  0
 26  9  1  0
 20 13  1  0
  1 30  1  0
  1 31  1  0
  7 32  1  0
 10 33  1  0
 11 34  1  0
 14 35  1  0
 15 36  1  0
 20 37  1  0
 26 38  1  0
 27 39  1  0
M  END
$$$$
[H]c1nc(C([H])([H])C([H])([H])C([H])([H])OC(=O)N([H])c2nnc(C([H])([H])[H])s2)c([H])c([H])c1[H]
     RDKit          3D

 33 34  0  0  0  0  0  0  0  0999 V2000
    5.9128    2.7553    1.7013 C   0  0  0  0  0  0  0  0  0  0  0  0
    5.3455    1.6730    0.8170 C   0  0  0  0  0  0  0  0  0  0  0  0
    5.9483    1.0483   -0.1896 N   0  0  0  0  0  0  0  0  0  0  0  0
    5.3370    0.1590   -0.8387 N   0  0  0  0  0  0  0  0  0  0  0  0
    4.0878   -0.1554   -0.5171 C   0  0  0  0  0  0  0  0  0  0  0  0
    3.2144   -1.1232   -1.1125 N   0  0  0  0  0  0  0  0  0  0  0  0
    1.8915   -1.2838   -0.5831 C   0  0  0  0  0  0  0  0  0  0  0  0
    1.5422   -0.5690    0.3871 O   0  0  0  0  0  0  0  0  0  0  0  0
    1.0027   -2.1924   -1.1053 O   0  0  0  0  0  0  0  0  0  0  0  0
   -0.2751   -2.3325   -0.5835 C   0  0  0  0  0  0  0  0  0  0  0  0
   -1.1599   -1.1338   -0.6446 C   0  0  0  0  0  0  0  0  0  0  0  0
   -2.4967   -1.5470   -0.0152 C   0  0  0  0  0  0  0  0  0  0  0  0
   -3.4508   -0.4100   -0.0306 C   0  0  0  0  0  0  0  0  0  0  0  0
   -4.7111   -0.5711    0.4887 C   0  0  0  0  0  0  0  0  0  0  0  0
   -5.6430    0.4606    0.4993 C   0  0  0  0  0  0  0  0  0  0  0  0
   -5.2837    1.6840   -0.0308 C   0  0  0  0  0  0  0  0  0  0  0  0
   -4.0007    1.8126   -0.5479 C   0  0  0  0  0  0  0  0  0  0  0  0
   -3.1286    0.7869   -0.5383 N   0  0  0  0  0  0  0  0  0  0  0  0
    3.8140    0.9140    0.8016 S   0  0  0  0  0  0  0  0  0  0  0  0
    5.3882    2.7203    2.6735 H   0  0  0  0  0  0  0  0  0  0  0  0
    7.0048    2.5224    1.8536 H   0  0  0  0  0  0  0  0  0  0  0  0
    5.8148    3.6990    1.1627 H   0  0  0  0  0  0  0  0  0  0  0  0
    3.5962   -1.6651   -1.9104 H   0  0  0  0  0  0  0  0  0  0  0  0
   -0.2932   -2.7237    0.4569 H   0  0  0  0  0  0  0  0  0  0  0  0
   -0.7883   -3.1330   -1.1938 H   0  0  0  0  0  0  0  0  0  0  0  0
   -0.7946   -0.2340   -0.1629 H   0  0  0  0  0  0  0  0  0  0  0  0
   -1.3840   -0.9310   -1.7329 H   0  0  0  0  0  0  0  0  0  0  0  0
   -2.8575   -2.4184   -0.5996 H   0  0  0  0  0  0  0  0  0  0  0  0
   -2.3000   -1.9021    1.0134 H   0  0  0  0  0  0  0  0  0  0  0  0
   -5.0105   -1.5339    0.9120 H   0  0  0  0  0  0  0  0  0  0  0  0
   -6.6366    0.3188    0.9135 H   0  0  0  0  0  0  0  0  0  0  0  0
   -5.9782    2.5224   -0.0454 H   0  0  0  0  0  0  0  0  0  0  0  0
   -3.7078    2.7827   -0.9711 H   0  0  0  0  0  0  0  0  0  0  0  0
  1  2  1  0
  2  3  2  0
  3  4  1  0
  4  5  2  0
  5  6  1  0
  6  7  1  0
  7  8  2  0
  7  9  1  0
  9 10  1  0
 10 11  1  0
 11 12  1  0
 12 13  1  0
 13 14  2  0
 14 15  1  0
 15 16  2  0
 16 17  1  0
 17 18  2  0
  5 19  1  0
 19  2  1  0
 18 13  1  0
  1 20  1  0
  1 21  1  0
  1 22  1  0
  6 23  1  0
 10 24  1  0
 10 25  1  0
 11 26  1  0
 11 27  1  0
 12 28  1  0
 12 29  1  0
 14 30  1  0
 15 31  1  0
 16 32  1  0
 17 33  1  0
M  END
$$$$
[H]OC1(c2c([H])c([H])c(OC([H])([H])[H])c([H])c2[H])C(=O)OC(c2c([H])c([H])c([H])c([H])c2[H])=C2c3c([H])c([H])c([H])c([H])c3OC1(C([H])([H])[H])O[C@@]2([H])O[H]
     RDKit          3D

 55 59  0  0  0  0  0  0  0  0999 V2000
   -7.3411    0.2603    1.1030 C   0  0  0  0  0  0  0  0  0  0  0  0
   -6.6858    0.3313   -0.1412 O   0  0  0  0  0  0  0  0  0  0  0  0
   -5.3121    0.2414   -0.2760 C   0  0  0  0  0  0  0  0  0  0  0  0
   -4.4544    0.0726    0.8045 C   0  0  0  0  0  0  0  0  0  0  0  0
   -3.0912   -0.0150    0.6291 C   0  0  0  0  0  0  0  0  0  0  0  0
   -2.5282    0.0616   -0.6210 C   0  0  0  0  0  0  0  0  0  0  0  0
   -3.3661    0.2297   -1.6972 C   0  0  0  0  0  0  0  0  0  0  0  0
   -4.7245    0.3159   -1.5154 C   0  0  0  0  0  0  0  0  0  0  0  0
   -1.0430   -0.0352   -0.7485 C   0  0  0  0  0  0  0  0  0  0  0  0
   -0.7916    0.5517   -1.9474 O   0  0  0  0  0  0  0  0  0  0  0  0
   -0.4408    0.9377    0.2606 C   0  0  0  0  0  0  0  0  0  0  0  0
   -1.2449    1.7590    0.6728 O   0  0  0  0  0  0  0  0  0  0  0  0
    0.9143    1.0096    0.7737 O   0  0  0  0  0  0  0  0  0  0  0  0
    1.9864    0.7530   -0.2337 C   0  0  0  0  0  0  0  0  0  0  0  0
    1.8401   -0.2584   -0.9212 C   0  0  0  0  0  0  0  0  0  0  0  0
    1.6622   -1.5056   -1.7709 C   0  0  2  0  0  0  0  0  0  0  0  0
    2.0349   -1.2998   -3.0795 O   0  0  0  0  0  0  0  0  0  0  0  0
    0.3141   -1.8561   -1.6487 O   0  0  0  0  0  0  0  0  0  0  0  0
   -0.4759   -1.3873   -0.6641 C   0  0  0  0  0  0  0  0  0  0  0  0
   -1.6608   -2.3966   -0.7006 C   0  0  0  0  0  0  0  0  0  0  0  0
   -0.0215   -1.7291    0.6931 O   0  0  0  0  0  0  0  0  0  0  0  0
    1.3328   -1.4622    1.1118 C   0  0  0  0  0  0  0  0  0  0  0  0
    1.5151   -1.9941    2.4014 C   0  0  0  0  0  0  0  0  0  0  0  0
    2.7589   -1.8586    2.9707 C   0  0  0  0  0  0  0  0  0  0  0  0
    3.7345   -1.2269    2.2651 C   0  0  0  0  0  0  0  0  0  0  0  0
    3.5100   -0.7039    0.9653 C   0  0  0  0  0  0  0  0  0  0  0  0
    2.3491   -0.8499    0.4953 C   0  0  0  0  0  0  0  0  0  0  0  0
    3.0242    1.4603   -0.4601 C   0  0  0  0  0  0  0  0  0  0  0  0
    3.8186    1.5373   -1.5742 C   0  0  0  0  0  0  0  0  0  0  0  0
    4.8731    2.3477   -1.7202 C   0  0  0  0  0  0  0  0  0  0  0  0
    5.2484    3.2002   -0.7121 C   0  0  0  0  0  0  0  0  0  0  0  0
    4.5148    3.1988    0.4398 C   0  0  0  0  0  0  0  0  0  0  0  0
    3.4573    2.3623    0.5413 C   0  0  0  0  0  0  0  0  0  0  0  0
   -8.3724    0.6705    1.0584 H   0  0  0  0  0  0  0  0  0  0  0  0
   -6.7995    0.7330    1.9202 H   0  0  0  0  0  0  0  0  0  0  0  0
   -7.4398   -0.8182    1.3625 H   0  0  0  0  0  0  0  0  0  0  0  0
   -4.9048    0.0127    1.7830 H   0  0  0  0  0  0  0  0  0  0  0  0
   -2.5162   -0.1478    1.5432 H   0  0  0  0  0  0  0  0  0  0  0  0
   -2.9395    0.3006   -2.7281 H   0  0  0  0  0  0  0  0  0  0  0  0
   -5.3540    0.4471   -2.3942 H   0  0  0  0  0  0  0  0  0  0  0  0
   -0.9600    1.5212   -1.9469 H   0  0  0  0  0  0  0  0  0  0  0  0
    2.2498   -2.3006   -1.3801 H   0  0  0  0  0  0  0  0  0  0  0  0
    1.4492   -1.6805   -3.7508 H   0  0  0  0  0  0  0  0  0  0  0  0
   -2.3175   -2.1791   -1.5545 H   0  0  0  0  0  0  0  0  0  0  0  0
   -1.2944   -3.4179   -0.9582 H   0  0  0  0  0  0  0  0  0  0  0  0
   -2.1547   -2.4939    0.2581 H   0  0  0  0  0  0  0  0  0  0  0  0
    0.6787   -2.4563    2.8427 H   0  0  0  0  0  0  0  0  0  0  0  0
    2.9524   -2.2442    3.9540 H   0  0  0  0  0  0  0  0  0  0  0  0
    4.7422   -1.0816    2.6588 H   0  0  0  0  0  0  0  0  0  0  0  0
    4.3919   -0.3236    0.5017 H   0  0  0  0  0  0  0  0  0  0  0  0
    3.5932    0.8929   -2.4418 H   0  0  0  0  0  0  0  0  0  0  0  0
    5.4912    2.3879   -2.6247 H   0  0  0  0  0  0  0  0  0  0  0  0
    6.1127    3.8570   -0.8183 H   0  0  0  0  0  0  0  0  0  0  0  0
    4.7819    3.8641    1.2549 H   0  0  0  0  0  0  0  0  0  0  0  0
    2.9029    2.4049    1.4971 H   0  0  0  0  0  0  0  0  0  0  0  0
  1  2  1  0
  2  3  1  0
  3  4  2  0
  4  5  1  0
  5  6  2  0
  6  7  1  0
  7  8  2  0
  6  9  1  0
  9 10  1  0
  9 11  1  0
 11 12  2  0
 11 13  1  0
 13 14  1  0
 14 15  2  0
 15 16  1  0
 16 17  1  0
 16 18  1  0
 18 19  1  0
 19 20  1  0
 19 21  1  0
 21 22  1  0
 22 23  2  0
 23 24  1  0
 24 25  2  0
 25 26  1  0
 26 27  2  0
 14 28  1  0
 28 29  2  0
 29 30  1  0
 30 31  2  0
 31 32  1  0
 32 33  2  0
  8  3  1  0
 19  9  1  0
 27 22  1  0
 33 28  1  0
 27 15  1  0
  1 34  1  0
  1 35  1  0
  1 36  1  0
  4 37  1  0
  5 38  1  0
  7 39  1  0
  8 40  1  0
 10 41  1  0
 16 42  1  1
 17 43  1  0
 20 44  1  0
 20 45  1  0
 20 46  1  0
 23 47  1  0
 24 48  1  0
 25 49  1  0
 26 50  1  0
 29 51  1  0
 30 52  1  0
 31 53  1  0
 32 54  1  0
 33 55  1  0
M  END
$$$$
[H]/C(=C1\C(=O)N([H])c2c([H])c([H])c(-c3c([H])c(OC([H])([H])[H])c(OC([H])([H])[H])c([H])c3OC([H])([H])[H])c([H])c21)c1c([H])c(OC([H])([H])[H])c(OC([H])([H])[H])c(OC([H])([H])[H])c1[H]
     RDKit          3D

 62 65  0  0  0  0  0  0  0  0999 V2000
    2.2743    0.4932    0.1866 C   0  0  0  0  0  0  0  0  0  0  0  0
    1.9519    0.4398   -1.2330 C   0  0  0  0  0  0  0  0  0  0  0  0
    0.6427    0.3369   -1.7143 C   0  0  0  0  0  0  0  0  0  0  0  0
    0.3685    0.2965   -3.0691 C   0  0  0  0  0  0  0  0  0  0  0  0
    1.3918    0.3616   -4.0082 C   0  0  0  0  0  0  0  0  0  0  0  0
    2.6913    0.4639   -3.5232 C   0  0  0  0  0  0  0  0  0  0  0  0
    2.9534    0.5010   -2.1718 C   0  0  0  0  0  0  0  0  0  0  0  0
    0.8698    0.3306   -5.3319 N   0  0  0  0  0  0  0  0  0  0  0  0
   -0.5323    0.2405   -5.2394 C   0  0  0  0  0  0  0  0  0  0  0  0
   -1.3802    0.1892   -6.1725 O   0  0  0  0  0  0  0  0  0  0  0  0
   -0.8875    0.2130   -3.8023 C   0  0  0  0  0  0  0  0  0  0  0  0
   -2.0799    0.0408   -3.3162 C   0  0  0  0  0  0  0  0  0  0  0  0
   -2.4360   -0.1197   -1.9572 C   0  0  0  0  0  0  0  0  0  0  0  0
   -3.0976    0.8305   -1.2199 C   0  0  0  0  0  0  0  0  0  0  0  0
   -3.5479    0.6017    0.0722 C   0  0  0  0  0  0  0  0  0  0  0  0
   -4.2175    1.5693    0.8141 O   0  0  0  0  0  0  0  0  0  0  0  0
   -4.4746    2.8645    0.2656 C   0  0  0  0  0  0  0  0  0  0  0  0
   -3.3260   -0.6228    0.6409 C   0  0  0  0  0  0  0  0  0  0  0  0
   -3.7638   -0.8823    1.9294 O   0  0  0  0  0  0  0  0  0  0  0  0
   -5.0264   -1.4280    2.1823 C   0  0  0  0  0  0  0  0  0  0  0  0
   -2.6619   -1.6164   -0.0625 C   0  0  0  0  0  0  0  0  0  0  0  0
   -2.4599   -2.8556    0.5698 O   0  0  0  0  0  0  0  0  0  0  0  0
   -1.7880   -3.9135   -0.0503 C   0  0  0  0  0  0  0  0  0  0  0  0
   -2.2255   -1.3630   -1.3418 C   0  0  0  0  0  0  0  0  0  0  0  0
    1.5977    1.3541    1.0307 C   0  0  0  0  0  0  0  0  0  0  0  0
    1.8982    1.4205    2.3757 C   0  0  0  0  0  0  0  0  0  0  0  0
    1.1812    2.3107    3.1843 O   0  0  0  0  0  0  0  0  0  0  0  0
    0.1753    3.1103    2.6004 C   0  0  0  0  0  0  0  0  0  0  0  0
    2.8703    0.6428    2.9224 C   0  0  0  0  0  0  0  0  0  0  0  0
    3.1590    0.7273    4.2911 O   0  0  0  0  0  0  0  0  0  0  0  0
    4.1413   -0.0372    4.9254 C   0  0  0  0  0  0  0  0  0  0  0  0
    3.5662   -0.2313    2.0986 C   0  0  0  0  0  0  0  0  0  0  0  0
    3.2556   -0.2885    0.7524 C   0  0  0  0  0  0  0  0  0  0  0  0
    3.9461   -1.1585   -0.0776 O   0  0  0  0  0  0  0  0  0  0  0  0
    4.9684   -2.0032    0.3946 C   0  0  0  0  0  0  0  0  0  0  0  0
   -0.0831    0.3372   -0.9270 H   0  0  0  0  0  0  0  0  0  0  0  0
    3.4886    0.5151   -4.2575 H   0  0  0  0  0  0  0  0  0  0  0  0
    3.9767    0.5808   -1.8255 H   0  0  0  0  0  0  0  0  0  0  0  0
    1.4550    0.3691   -6.2128 H   0  0  0  0  0  0  0  0  0  0  0  0
   -2.9064    0.0220   -4.0765 H   0  0  0  0  0  0  0  0  0  0  0  0
   -3.2826    1.8056   -1.6558 H   0  0  0  0  0  0  0  0  0  0  0  0
   -3.6104    3.5206    0.3635 H   0  0  0  0  0  0  0  0  0  0  0  0
   -4.8307    2.8049   -0.7841 H   0  0  0  0  0  0  0  0  0  0  0  0
   -5.3210    3.3478    0.8244 H   0  0  0  0  0  0  0  0  0  0  0  0
   -5.3466   -1.2694    3.2281 H   0  0  0  0  0  0  0  0  0  0  0  0
   -4.9128   -2.5423    2.0387 H   0  0  0  0  0  0  0  0  0  0  0  0
   -5.8250   -1.1224    1.5075 H   0  0  0  0  0  0  0  0  0  0  0  0
   -2.5516   -4.5113   -0.6143 H   0  0  0  0  0  0  0  0  0  0  0  0
   -0.9536   -3.6057   -0.7109 H   0  0  0  0  0  0  0  0  0  0  0  0
   -1.3506   -4.6080    0.7174 H   0  0  0  0  0  0  0  0  0  0  0  0
   -1.7100   -2.1343   -1.8891 H   0  0  0  0  0  0  0  0  0  0  0  0
    0.8263    1.9628    0.5642 H   0  0  0  0  0  0  0  0  0  0  0  0
    0.5580    3.6263    1.7024 H   0  0  0  0  0  0  0  0  0  0  0  0
   -0.1564    3.9132    3.2956 H   0  0  0  0  0  0  0  0  0  0  0  0
   -0.7244    2.5308    2.3267 H   0  0  0  0  0  0  0  0  0  0  0  0
    3.8012   -1.0966    5.1021 H   0  0  0  0  0  0  0  0  0  0  0  0
    4.3753    0.4070    5.9256 H   0  0  0  0  0  0  0  0  0  0  0  0
    5.0928   -0.1126    4.3699 H   0  0  0  0  0  0  0  0  0  0  0  0
    4.3310   -0.8321    2.5677 H   0  0  0  0  0  0  0  0  0  0  0  0
    4.5862   -2.5317    1.2977 H   0  0  0  0  0  0  0  0  0  0  0  0
    5.9092   -1.4404    0.5996 H   0  0  0  0  0  0  0  0  0  0  0  0
    5.1666   -2.7550   -0.4227 H   0  0  0  0  0  0  0  0  0  0  0  0
  1  2  1  0
  2  3  2  0
  3  4  1  0
  4  5  2  0
  5  6  1  0
  6  7  2  0
  5  8  1  0
  8  9  1  0
  9 10  2  0
  9 11  1  0
 11 12  2  0
 12 13  1  0
 13 14  2  0
 14 15  1  0
 15 16  1  0
 16 17  1  0
 15 18  2  0
 18 19  1  0
 19 20  1  0
 18 21  1  0
 21 22  1  0
 22 23  1  0
 21 24  2  0
  1 25  2  0
 25 26  1  0
 26 27  1  0
 27 28  1  0
 26 29  2  0
 29 30  1  0
 30 31  1  0
 29 32  1  0
 32 33  2  0
 33 34  1  0
 34 35  1  0
 33  1  1  0
  7  2  1  0
 24 13  1  0
 11  4  1  0
  3 36  1  0
  6 37  1  0
  7 38  1  0
  8 39  1  0
 12 40  1  0
 14 41  1  0
 17 42  1  0
 17 43  1  0
 17 44  1  0
 20 45  1  0
 20 46  1  0
 20 47  1  0
 23 48  1  0
 23 49  1  0
 23 50  1  0
 24 51  1  0
 25 52  1  0
 28 53  1  0
 28 54  1  0
 28 55  1  0
 31 56  1  0
 31 57  1  0
 31 58  1  0
 32 59  1  0
 35 60  1  0
 35 61  1  0
 35 62  1  0
M  END
$$$$
[H]c1c([H])c([H])c2c(c([H])c(C(=O)N3C([H])([H])C([H])([H])C([H])([H])C3([H])[H])n2[H])c1[C@]1([H])N(C2([H])C([H])([H])C([H])([H])OC([H])([H])C2([H])[H])C([H])([H])C([H])([H])C1([H])[H]
     RDKit          3D

 56 60  0  0  0  0  0  0  0  0999 V2000
   -4.7326    2.2717   -1.2785 C   0  0  0  0  0  0  0  0  0  0  0  0
   -3.2571    1.8322   -1.2718 C   0  0  0  0  0  0  0  0  0  0  0  0
   -3.1564    0.7214   -0.2622 C   0  0  0  0  0  0  0  0  0  0  0  0
   -1.7674    0.5684    0.1879 N   0  0  0  0  0  0  0  0  0  0  0  0
   -1.5917   -0.5015    1.0624 C   0  0  1  0  0  0  0  0  0  0  0  0
   -0.8946   -1.7424    0.7783 C   0  0  0  0  0  0  0  0  0  0  0  0
    0.3851   -1.8033    0.2383 C   0  0  0  0  0  0  0  0  0  0  0  0
    1.3710   -0.8618   -0.0190 C   0  0  0  0  0  0  0  0  0  0  0  0
    2.5131   -1.4411   -0.5126 C   0  0  0  0  0  0  0  0  0  0  0  0
    3.7719   -0.9021   -0.9137 C   0  0  0  0  0  0  0  0  0  0  0  0
    4.6417   -1.8534   -1.3623 O   0  0  0  0  0  0  0  0  0  0  0  0
    4.3630    0.3251   -0.9823 N   0  0  0  0  0  0  0  0  0  0  0  0
    3.9675    1.6731   -0.6606 C   0  0  0  0  0  0  0  0  0  0  0  0
    5.2565    2.2944   -0.0730 C   0  0  0  0  0  0  0  0  0  0  0  0
    6.3722    1.3407   -0.4243 C   0  0  0  0  0  0  0  0  0  0  0  0
    5.7406    0.5249   -1.5272 C   0  0  0  0  0  0  0  0  0  0  0  0
    2.2063   -2.7874   -0.5607 N   0  0  0  0  0  0  0  0  0  0  0  0
    0.9532   -2.9987   -0.1181 C   0  0  0  0  0  0  0  0  0  0  0  0
    0.2967   -4.2103    0.0263 C   0  0  0  0  0  0  0  0  0  0  0  0
   -0.9521   -4.1858    0.5486 C   0  0  0  0  0  0  0  0  0  0  0  0
   -1.4968   -2.9991    0.8999 C   0  0  0  0  0  0  0  0  0  0  0  0
   -1.6089   -0.0788    2.5190 C   0  0  0  0  0  0  0  0  0  0  0  0
   -1.4314    1.4036    2.4155 C   0  0  0  0  0  0  0  0  0  0  0  0
   -1.5690    1.7938    0.9814 C   0  0  0  0  0  0  0  0  0  0  0  0
   -3.8105   -0.4760   -0.8281 C   0  0  0  0  0  0  0  0  0  0  0  0
   -5.1205    0.0102   -1.4962 C   0  0  0  0  0  0  0  0  0  0  0  0
   -5.5449    1.2081   -0.9282 O   0  0  0  0  0  0  0  0  0  0  0  0
   -4.8237    3.0300   -0.4766 H   0  0  0  0  0  0  0  0  0  0  0  0
   -5.0152    2.7277   -2.2483 H   0  0  0  0  0  0  0  0  0  0  0  0
   -3.1208    1.3625   -2.2815 H   0  0  0  0  0  0  0  0  0  0  0  0
   -2.5954    2.6808   -1.1076 H   0  0  0  0  0  0  0  0  0  0  0  0
   -3.7540    1.0542    0.6354 H   0  0  0  0  0  0  0  0  0  0  0  0
   -2.7411   -0.9305    1.0521 H   0  0  0  0  0  0  0  0  0  0  0  0
    1.2349    0.1695    0.1600 H   0  0  0  0  0  0  0  0  0  0  0  0
    3.1492    1.7816    0.0435 H   0  0  0  0  0  0  0  0  0  0  0  0
    3.7812    2.2384   -1.6267 H   0  0  0  0  0  0  0  0  0  0  0  0
    5.1887    2.4140    1.0138 H   0  0  0  0  0  0  0  0  0  0  0  0
    5.4901    3.2668   -0.5890 H   0  0  0  0  0  0  0  0  0  0  0  0
    6.6268    0.6380    0.4225 H   0  0  0  0  0  0  0  0  0  0  0  0
    7.3095    1.8391   -0.7350 H   0  0  0  0  0  0  0  0  0  0  0  0
    6.2359   -0.4532   -1.7075 H   0  0  0  0  0  0  0  0  0  0  0  0
    5.7120    1.1287   -2.4357 H   0  0  0  0  0  0  0  0  0  0  0  0
    2.8717   -3.5099   -0.8890 H   0  0  0  0  0  0  0  0  0  0  0  0
    0.7750   -5.1403   -0.2657 H   0  0  0  0  0  0  0  0  0  0  0  0
   -1.5170   -5.1292    0.6651 H   0  0  0  0  0  0  0  0  0  0  0  0
   -2.5111   -3.0353    1.3078 H   0  0  0  0  0  0  0  0  0  0  0  0
   -0.7476   -0.5540    3.0703 H   0  0  0  0  0  0  0  0  0  0  0  0
   -2.5086   -0.3168    3.0756 H   0  0  0  0  0  0  0  0  0  0  0  0
   -2.1502    1.9589    3.0651 H   0  0  0  0  0  0  0  0  0  0  0  0
   -0.3926    1.6550    2.7671 H   0  0  0  0  0  0  0  0  0  0  0  0
   -2.4003    2.5152    0.8779 H   0  0  0  0  0  0  0  0  0  0  0  0
   -0.6480    2.2670    0.6006 H   0  0  0  0  0  0  0  0  0  0  0  0
   -4.1320   -1.2625   -0.1090 H   0  0  0  0  0  0  0  0  0  0  0  0
   -3.2549   -0.9569   -1.6464 H   0  0  0  0  0  0  0  0  0  0  0  0
   -5.0150    0.1481   -2.5678 H   0  0  0  0  0  0  0  0  0  0  0  0
   -5.9522   -0.7125   -1.2911 H   0  0  0  0  0  0  0  0  0  0  0  0
  1  2  1  0
  2  3  1  0
  3  4  1  0
  4  5  1  0
  5  6  1  0
  6  7  2  0
  7  8  1  0
  8  9  2  0
  9 10  1  0
 10 11  2  0
 10 12  1  0
 12 13  1  0
 13 14  1  0
 14 15  1  0
 15 16  1  0
  9 17  1  0
 17 18  1  0
 18 19  2  0
 19 20  1  0
 20 21  2  0
  5 22  1  0
 22 23  1  0
 23 24  1  0
  3 25  1  0
 25 26  1  0
 26 27  1  0
 27  1  1  0
 24  4  1  0
 21  6  1  0
 18  7  1  0
 16 12  1  0
  1 28  1  0
  1 29  1  0
  2 30  1  0
  2 31  1  0
  3 32  1  0
  5 33  1  1
  8 34  1  0
 13 35  1  0
 13 36  1  0
 14 37  1  0
 14 38  1  0
 15 39  1  0
 15 40  1  0
 16 41  1  0
 16 42  1  0
 17 43  1  0
 19 44  1  0
 20 45  1  0
 21 46  1  0
 22 47  1  0
 22 48  1  0
 23 49  1  0
 23 50  1  0
 24 51  1  0
 24 52  1  0
 25 53  1  0
 25 54  1  0
 26 55  1  0
 26 56  1  0
M  END
$$$$
[H]c1c([H])c(C(=O)N2C([H])([H])C([H])([H])N([C@@]3([H])C([H])([H])[C@@]([H])(N([H])C(=O)c4c([H])c([H])c([H])c(C(F)(F)F)c4[H])C([H])([H])[C@]3([H])N(C([H])([H])[H])C([H])([H])[H])C([H])([H])C2([H])[H])c([H])c(C(F)(F)F)c1[H]
     RDKit          3D

 69 72  0  0  0  0  0  0  0  0999 V2000
    8.7074    3.0884    1.9811 F   0  0  0  0  0  0  0  0  0  0  0  0
    8.5328    3.0788    0.5957 C   0  0  0  0  0  0  0  0  0  0  0  0
    9.7384    3.1009   -0.0259 F   0  0  0  0  0  0  0  0  0  0  0  0
    7.7078    4.1202    0.2490 F   0  0  0  0  0  0  0  0  0  0  0  0
    7.7782    1.8044    0.3107 C   0  0  0  0  0  0  0  0  0  0  0  0
    8.3627    0.6025    0.6634 C   0  0  0  0  0  0  0  0  0  0  0  0
    7.6624   -0.5721    0.4388 C   0  0  0  0  0  0  0  0  0  0  0  0
    6.4057   -0.5051   -0.1281 C   0  0  0  0  0  0  0  0  0  0  0  0
    5.7929    0.6465   -0.4872 C   0  0  0  0  0  0  0  0  0  0  0  0
    6.5345    1.8149   -0.2466 C   0  0  0  0  0  0  0  0  0  0  0  0
    4.4475    0.8348   -0.9793 C   0  0  0  0  0  0  0  0  0  0  0  0
    4.2087    1.9119   -1.6690 O   0  0  0  0  0  0  0  0  0  0  0  0
    3.3476    0.0185   -0.8136 N   0  0  0  0  0  0  0  0  0  0  0  0
    3.3576   -1.1669   -0.0126 C   0  0  0  0  0  0  0  0  0  0  0  0
    2.0192   -1.0759    0.7766 C   0  0  0  0  0  0  0  0  0  0  0  0
    0.9680   -1.3608   -0.1206 N   0  0  0  0  0  0  0  0  0  0  0  0
    1.1084   -0.8166   -1.4198 C   0  0  0  0  0  0  0  0  0  0  0  0
    2.0611    0.3443   -1.4734 C   0  0  0  0  0  0  0  0  0  0  0  0
   -0.3235   -1.4129    0.4364 C   0  0  1  0  0  0  0  0  0  0  0  0
   -0.9126   -0.1867    1.0030 C   0  0  0  0  0  0  0  0  0  0  0  0
   -2.3636   -0.5190    1.1783 C   0  0  1  0  0  0  0  0  0  0  0  0
   -3.2182    0.5726    0.6867 N   0  0  0  0  0  0  0  0  0  0  0  0
   -4.5852    0.5604    0.9893 C   0  0  0  0  0  0  0  0  0  0  0  0
   -5.1525   -0.3740    1.6600 O   0  0  0  0  0  0  0  0  0  0  0  0
   -5.4614    1.6614    0.5408 C   0  0  0  0  0  0  0  0  0  0  0  0
   -4.9856    2.9510    0.4248 C   0  0  0  0  0  0  0  0  0  0  0  0
   -5.8105    3.9673    0.0301 C   0  0  0  0  0  0  0  0  0  0  0  0
   -7.1099    3.6868   -0.2522 C   0  0  0  0  0  0  0  0  0  0  0  0
   -7.6501    2.4068   -0.1545 C   0  0  0  0  0  0  0  0  0  0  0  0
   -6.7929    1.3983    0.2502 C   0  0  0  0  0  0  0  0  0  0  0  0
   -9.0937    2.1793   -0.4958 C   0  0  0  0  0  0  0  0  0  0  0  0
   -9.2744    2.7525   -1.7604 F   0  0  0  0  0  0  0  0  0  0  0  0
   -9.2891    0.8102   -0.6511 F   0  0  0  0  0  0  0  0  0  0  0  0
   -9.9155    2.7498    0.4287 F   0  0  0  0  0  0  0  0  0  0  0  0
   -2.6577   -1.7414    0.3573 C   0  0  0  0  0  0  0  0  0  0  0  0
   -1.4148   -2.0130   -0.4040 C   0  0  2  0  0  0  0  0  0  0  0  0
   -1.1756   -3.3487   -0.7379 N   0  0  0  0  0  0  0  0  0  0  0  0
   -1.0765   -4.3935    0.1390 C   0  0  0  0  0  0  0  0  0  0  0  0
   -1.1833   -3.6607   -2.1028 C   0  0  0  0  0  0  0  0  0  0  0  0
    9.3569    0.5370    1.1129 H   0  0  0  0  0  0  0  0  0  0  0  0
    8.1490   -1.5110    0.7106 H   0  0  0  0  0  0  0  0  0  0  0  0
    5.9158   -1.4573   -0.3569 H   0  0  0  0  0  0  0  0  0  0  0  0
    6.0989    2.7822   -0.5206 H   0  0  0  0  0  0  0  0  0  0  0  0
    3.3751   -2.1160   -0.5372 H   0  0  0  0  0  0  0  0  0  0  0  0
    4.1088   -1.1783    0.8204 H   0  0  0  0  0  0  0  0  0  0  0  0
    2.0904   -1.8433    1.5532 H   0  0  0  0  0  0  0  0  0  0  0  0
    2.0098   -0.0873    1.2566 H   0  0  0  0  0  0  0  0  0  0  0  0
    1.4875   -1.6076   -2.0991 H   0  0  0  0  0  0  0  0  0  0  0  0
    0.1327   -0.5096   -1.8551 H   0  0  0  0  0  0  0  0  0  0  0  0
    2.2888    0.6289   -2.5420 H   0  0  0  0  0  0  0  0  0  0  0  0
    1.5932    1.2205   -0.9413 H   0  0  0  0  0  0  0  0  0  0  0  0
   -0.2299   -2.1497    1.3135 H   0  0  0  0  0  0  0  0  0  0  0  0
   -0.4661    0.1399    1.9826 H   0  0  0  0  0  0  0  0  0  0  0  0
   -0.8404    0.7024    0.3361 H   0  0  0  0  0  0  0  0  0  0  0  0
   -2.6563   -0.7433    2.2484 H   0  0  0  0  0  0  0  0  0  0  0  0
   -2.7953    1.3377    0.1405 H   0  0  0  0  0  0  0  0  0  0  0  0
   -3.9304    3.0801    0.6664 H   0  0  0  0  0  0  0  0  0  0  0  0
   -5.3999    4.9930   -0.0642 H   0  0  0  0  0  0  0  0  0  0  0  0
   -7.7814    4.4901   -0.5613 H   0  0  0  0  0  0  0  0  0  0  0  0
   -7.1959    0.4011    0.3388 H   0  0  0  0  0  0  0  0  0  0  0  0
   -3.5606   -1.6115   -0.2833 H   0  0  0  0  0  0  0  0  0  0  0  0
   -2.8591   -2.5680    1.1188 H   0  0  0  0  0  0  0  0  0  0  0  0
   -1.5006   -1.3659   -1.3335 H   0  0  0  0  0  0  0  0  0  0  0  0
   -1.4391   -4.2397    1.1820 H   0  0  0  0  0  0  0  0  0  0  0  0
   -1.5965   -5.3350   -0.2142 H   0  0  0  0  0  0  0  0  0  0  0  0
    0.0069   -4.6705    0.2926 H   0  0  0  0  0  0  0  0  0  0  0  0
   -1.2429   -4.7729   -2.2959 H   0  0  0  0  0  0  0  0  0  0  0  0
   -0.3279   -3.2301   -2.6864 H   0  0  0  0  0  0  0  0  0  0  0  0
   -2.0858   -3.2311   -2.5644 H   0  0  0  0  0  0  0  0  0  0  0  0
  1  2  1  0
  2  3  1  0
  2  4  1  0
  2  5  1  0
  5  6  2  0
  6  7  1  0
  7  8  2  0
  8  9  1  0
  9 10  2  0
  9 11  1  0
 11 12  2  0
 11 13  1  0
 13 14  1  0
 14 15  1  0
 15 16  1  0
 16 17  1  0
 17 18  1  0
 16 19  1  0
 19 20  1  0
 20 21  1  0
 21 22  1  0
 22 23  1  0
 23 24  2  0
 23 25  1  0
 25 26  2  0
 26 27  1  0
 27 28  2  0
 28 29  1  0
 29 30  2  0
 29 31  1  0
 31 32  1  0
 31 33  1  0
 31 34  1  0
 21 35  1  0
 35 36  1  0
 36 37  1  0
 37 38  1  0
 37 39  1  0
 10  5  1  0
 18 13  1  0
 36 19  1  0
 30 25  1  0
  6 40  1  0
  7 41  1  0
  8 42  1  0
 10 43  1  0
 14 44  1  0
 14 45  1  0
 15 46  1  0
 15 47  1  0
 17 48  1  0
 17 49  1  0
 18 50  1  0
 18 51  1  0
 19 52  1  1
 20 53  1  0
 20 54  1  0
 21 55  1  1
 22 56  1  0
 26 57  1  0
 27 58  1  0
 28 59  1  0
 30 60  1  0
 35 61  1  0
 35 62  1  0
 36 63  1  6
 38 64  1  0
 38 65  1  0
 38 66  1  0
 39 67  1  0
 39 68  1  0
 39 69  1  0
M  END
$$$$
[H]c1sc(-c2c([H])c([H])c(C([H])([H])n3c(C([H])([H])[H])nc4c([H])c([H])c(C(=O)N([H])[C@@]5([H])N(C(=O)c6c([H])c([H])c([H])c([H])c6[H])C([H])([H])C([H])([H])C5([H])[H])c([H])c43)c(F)c2[H])c([H])c1[H]
     RDKit          3D

 66 71  0  0  0  0  0  0  0  0999 V2000
    3.1467   -3.5339   -2.7976 C   0  0  0  0  0  0  0  0  0  0  0  0
    2.0971   -2.4865   -2.6766 C   0  0  0  0  0  0  0  0  0  0  0  0
    1.3933   -2.0137   -3.7112 N   0  0  0  0  0  0  0  0  0  0  0  0
    0.5298   -1.0868   -3.2569 C   0  0  0  0  0  0  0  0  0  0  0  0
   -0.4266   -0.3077   -3.9010 C   0  0  0  0  0  0  0  0  0  0  0  0
   -1.1900    0.5558   -3.1735 C   0  0  0  0  0  0  0  0  0  0  0  0
   -1.0340    0.6714   -1.8149 C   0  0  0  0  0  0  0  0  0  0  0  0
   -0.0769   -0.1176   -1.2160 C   0  0  0  0  0  0  0  0  0  0  0  0
    0.7367   -1.0140   -1.8900 C   0  0  0  0  0  0  0  0  0  0  0  0
    1.7088   -1.8790   -1.5290 N   0  0  0  0  0  0  0  0  0  0  0  0
    2.1716   -2.1347   -0.1938 C   0  0  0  0  0  0  0  0  0  0  0  0
    3.4409   -1.5552    0.2148 C   0  0  0  0  0  0  0  0  0  0  0  0
    4.5488   -2.4312    0.2447 C   0  0  0  0  0  0  0  0  0  0  0  0
    5.8151   -2.0077    0.6021 C   0  0  0  0  0  0  0  0  0  0  0  0
    6.0395   -0.7019    0.9439 C   0  0  0  0  0  0  0  0  0  0  0  0
    4.9770    0.1572    0.9207 C   0  0  0  0  0  0  0  0  0  0  0  0
    3.6791   -0.2724    0.5567 C   0  0  0  0  0  0  0  0  0  0  0  0
    2.7161    0.6487    0.5968 F   0  0  0  0  0  0  0  0  0  0  0  0
    7.3918   -0.2517    1.3217 C   0  0  0  0  0  0  0  0  0  0  0  0
    7.7585    1.0268    1.6448 C   0  0  0  0  0  0  0  0  0  0  0  0
    9.0461    1.2369    1.9526 C   0  0  0  0  0  0  0  0  0  0  0  0
    9.8855    0.1575    1.9179 C   0  0  0  0  0  0  0  0  0  0  0  0
    8.8484   -1.1172    1.4567 S   0  0  0  0  0  0  0  0  0  0  0  0
   -1.8125    1.6192   -1.0166 C   0  0  0  0  0  0  0  0  0  0  0  0
   -1.9920    2.7736   -1.4676 O   0  0  0  0  0  0  0  0  0  0  0  0
   -2.3824    1.3016    0.2572 N   0  0  0  0  0  0  0  0  0  0  0  0
   -3.0964    2.2529    0.9797 C   0  0  2  0  0  0  0  0  0  0  0  0
   -2.7614    2.3585    2.4674 C   0  0  0  0  0  0  0  0  0  0  0  0
   -3.7830    3.4281    2.8954 C   0  0  0  0  0  0  0  0  0  0  0  0
   -4.6123    3.7241    1.6825 C   0  0  0  0  0  0  0  0  0  0  0  0
   -4.5250    2.3095    1.0224 N   0  0  0  0  0  0  0  0  0  0  0  0
   -5.6964    1.6366    0.7638 C   0  0  0  0  0  0  0  0  0  0  0  0
   -6.7728    2.4034    1.0208 O   0  0  0  0  0  0  0  0  0  0  0  0
   -6.0948    0.3449    0.2938 C   0  0  0  0  0  0  0  0  0  0  0  0
   -7.4518    0.1178   -0.0460 C   0  0  0  0  0  0  0  0  0  0  0  0
   -7.9193   -1.1012   -0.4616 C   0  0  0  0  0  0  0  0  0  0  0  0
   -7.0573   -2.1647   -0.5614 C   0  0  0  0  0  0  0  0  0  0  0  0
   -5.7427   -2.0209   -0.2507 C   0  0  0  0  0  0  0  0  0  0  0  0
   -5.2961   -0.7661    0.1704 C   0  0  0  0  0  0  0  0  0  0  0  0
    2.9031   -4.2174   -3.6619 H   0  0  0  0  0  0  0  0  0  0  0  0
    4.1469   -3.1344   -3.0324 H   0  0  0  0  0  0  0  0  0  0  0  0
    3.1431   -4.2334   -1.9169 H   0  0  0  0  0  0  0  0  0  0  0  0
   -0.5429   -0.4049   -4.9813 H   0  0  0  0  0  0  0  0  0  0  0  0
   -1.9499    1.1841   -3.6483 H   0  0  0  0  0  0  0  0  0  0  0  0
    0.0430   -0.0434   -0.1242 H   0  0  0  0  0  0  0  0  0  0  0  0
    1.3407   -1.7810    0.5006 H   0  0  0  0  0  0  0  0  0  0  0  0
    2.1529   -3.2587    0.0007 H   0  0  0  0  0  0  0  0  0  0  0  0
    4.4000   -3.4602   -0.0045 H   0  0  0  0  0  0  0  0  0  0  0  0
    6.6562   -2.7196    0.6125 H   0  0  0  0  0  0  0  0  0  0  0  0
    5.1442    1.1880    1.1887 H   0  0  0  0  0  0  0  0  0  0  0  0
    7.0018    1.8505    1.6445 H   0  0  0  0  0  0  0  0  0  0  0  0
    9.4489    2.2386    2.2283 H   0  0  0  0  0  0  0  0  0  0  0  0
   10.9691    0.1536    2.1428 H   0  0  0  0  0  0  0  0  0  0  0  0
   -2.2378    0.3306    0.6523 H   0  0  0  0  0  0  0  0  0  0  0  0
   -2.7369    3.3157    0.5897 H   0  0  0  0  0  0  0  0  0  0  0  0
   -1.7384    2.6909    2.6544 H   0  0  0  0  0  0  0  0  0  0  0  0
   -2.9768    1.4383    3.0179 H   0  0  0  0  0  0  0  0  0  0  0  0
   -3.2544    4.3568    3.2040 H   0  0  0  0  0  0  0  0  0  0  0  0
   -4.4490    3.0482    3.6953 H   0  0  0  0  0  0  0  0  0  0  0  0
   -4.1081    4.3510    0.9284 H   0  0  0  0  0  0  0  0  0  0  0  0
   -5.6418    3.9734    1.8368 H   0  0  0  0  0  0  0  0  0  0  0  0
   -8.1724    0.9115    0.0098 H   0  0  0  0  0  0  0  0  0  0  0  0
   -8.9584   -1.2597   -0.7156 H   0  0  0  0  0  0  0  0  0  0  0  0
   -7.4428   -3.1085   -0.8850 H   0  0  0  0  0  0  0  0  0  0  0  0
   -5.0741   -2.8475   -0.3278 H   0  0  0  0  0  0  0  0  0  0  0  0
   -4.2731   -0.7043    0.4289 H   0  0  0  0  0  0  0  0  0  0  0  0
  1  2  1  0
  2  3  2  0
  3  4  1  0
  4  5  2  0
  5  6  1  0
  6  7  2  0
  7  8  1  0
  8  9  2  0
  9 10  1  0
 10 11  1  0
 11 12  1  0
 12 13  2  0
 13 14  1  0
 14 15  2  0
 15 16  1  0
 16 17  2  0
 17 18  1  0
 15 19  1  0
 19 20  2  0
 20 21  1  0
 21 22  2  0
 22 23  1  0
  7 24  1  0
 24 25  2  0
 24 26  1  0
 26 27  1  0
 27 28  1  0
 28 29  1  0
 29 30  1  0
 30 31  1  0
 31 32  1  0
 32 33  2  0
 32 34  1  0
 34 35  2  0
 35 36  1  0
 36 37  2  0
 37 38  1  0
 38 39  2  0
 10  2  1  0
 17 12  1  0
 23 19  1  0
 31 27  1  0
 39 34  1  0
  9  4  1  0
  1 40  1  0
  1 41  1  0
  1 42  1  0
  5 43  1  0
  6 44  1  0
  8 45  1  0
 11 46  1  0
 11 47  1  0
 13 48  1  0
 14 49  1  0
 16 50  1  0
 20 51  1  0
 21 52  1  0
 22 53  1  0
 26 54  1  0
 27 55  1  6
 28 56  1  0
 28 57  1  0
 29 58  1  0
 29 59  1  0
 30 60  1  0
 30 61  1  0
 35 62  1  0
 36 63  1  0
 37 64  1  0
 38 65  1  0
 39 66  1  0
M  END
$$$$
[H]c1nc([H])c2c(c1[H])c1c3c(c4c5c([H])c([H])c([H])c([H])c5n5c4c1n2[C@]1([H])O[C@@]5(C([H])([H])[H])[C@]([H])(OC([H])([H])[H])[C@]([H])(N([H])C([H])([H])[H])C1([H])[H])C([H])([H])N([H])C3=O
     RDKit          3D

 60 67  0  0  0  0  0  0  0  0999 V2000
   -3.1203   -2.0476    1.8754 C   0  0  0  0  0  0  0  0  0  0  0  0
   -2.6551   -0.7988    1.2969 N   0  0  0  0  0  0  0  0  0  0  0  0
   -2.7568   -0.8726   -0.1790 C   0  0  2  0  0  0  0  0  0  0  0  0
   -1.8934   -1.9233   -0.7191 C   0  0  0  0  0  0  0  0  0  0  0  0
   -0.8687   -1.5006   -1.7321 C   0  0  1  0  0  0  0  0  0  0  0  0
   -0.9085   -0.2844   -2.1974 O   0  0  0  0  0  0  0  0  0  0  0  0
   -1.3146    0.8168   -1.4415 C   0  0  1  0  0  0  0  0  0  0  0  0
   -1.5582    1.8498   -2.5607 C   0  0  0  0  0  0  0  0  0  0  0  0
   -2.5682    0.4898   -0.7941 C   0  0  2  0  0  0  0  0  0  0  0  0
   -3.0228    1.3518    0.1994 O   0  0  0  0  0  0  0  0  0  0  0  0
   -4.2633    1.9046   -0.0233 C   0  0  0  0  0  0  0  0  0  0  0  0
   -0.2109    1.2493   -0.5960 N   0  0  0  0  0  0  0  0  0  0  0  0
    0.0085    2.4661   -0.1002 C   0  0  0  0  0  0  0  0  0  0  0  0
   -0.6801    3.6445   -0.1619 C   0  0  0  0  0  0  0  0  0  0  0  0
   -0.2261    4.7868    0.4539 C   0  0  0  0  0  0  0  0  0  0  0  0
    0.9677    4.8002    1.1773 C   0  0  0  0  0  0  0  0  0  0  0  0
    1.6646    3.6241    1.2452 C   0  0  0  0  0  0  0  0  0  0  0  0
    1.1999    2.4922    0.6260 C   0  0  0  0  0  0  0  0  0  0  0  0
    1.7134    1.2258    0.5592 C   0  0  0  0  0  0  0  0  0  0  0  0
    2.8695    0.6458    1.0743 C   0  0  0  0  0  0  0  0  0  0  0  0
    3.9503    1.2377    1.8969 C   0  0  0  0  0  0  0  0  0  0  0  0
    4.8967    0.2021    2.1515 N   0  0  0  0  0  0  0  0  0  0  0  0
    4.4398   -0.9921    1.5172 C   0  0  0  0  0  0  0  0  0  0  0  0
    5.0821   -2.0380    1.5843 O   0  0  0  0  0  0  0  0  0  0  0  0
    3.1845   -0.6953    0.8571 C   0  0  0  0  0  0  0  0  0  0  0  0
    2.2793   -1.4185    0.0995 C   0  0  0  0  0  0  0  0  0  0  0  0
    2.2276   -2.7321   -0.3146 C   0  0  0  0  0  0  0  0  0  0  0  0
    3.0547   -3.8105   -0.1421 C   0  0  0  0  0  0  0  0  0  0  0  0
    2.6828   -5.0177   -0.7131 C   0  0  0  0  0  0  0  0  0  0  0  0
    1.5471   -5.1474   -1.4199 N   0  0  0  0  0  0  0  0  0  0  0  0
    0.7145   -4.0933   -1.6029 C   0  0  0  0  0  0  0  0  0  0  0  0
    1.0585   -2.8983   -1.0518 C   0  0  0  0  0  0  0  0  0  0  0  0
    0.4190   -1.7420   -1.0911 N   0  0  0  0  0  0  0  0  0  0  0  0
    1.1167   -0.8276   -0.4157 C   0  0  0  0  0  0  0  0  0  0  0  0
    0.8335    0.5151   -0.1820 C   0  0  0  0  0  0  0  0  0  0  0  0
   -3.7672   -2.5695    1.1103 H   0  0  0  0  0  0  0  0  0  0  0  0
   -2.3048   -2.7402    2.1332 H   0  0  0  0  0  0  0  0  0  0  0  0
   -3.7900   -1.8630    2.7490 H   0  0  0  0  0  0  0  0  0  0  0  0
   -1.6693   -0.6569    1.5557 H   0  0  0  0  0  0  0  0  0  0  0  0
   -3.8361   -1.2133   -0.3067 H   0  0  0  0  0  0  0  0  0  0  0  0
   -1.4355   -2.4805    0.1575 H   0  0  0  0  0  0  0  0  0  0  0  0
   -2.5064   -2.7451   -1.2032 H   0  0  0  0  0  0  0  0  0  0  0  0
   -0.9371   -2.2208   -2.6186 H   0  0  0  0  0  0  0  0  0  0  0  0
   -2.5223    2.3706   -2.4481 H   0  0  0  0  0  0  0  0  0  0  0  0
   -0.6798    2.5594   -2.6066 H   0  0  0  0  0  0  0  0  0  0  0  0
   -1.5981    1.4092   -3.5707 H   0  0  0  0  0  0  0  0  0  0  0  0
   -3.3775    0.5295   -1.5876 H   0  0  0  0  0  0  0  0  0  0  0  0
   -5.0653    1.1412   -0.1275 H   0  0  0  0  0  0  0  0  0  0  0  0
   -4.5046    2.5990    0.8404 H   0  0  0  0  0  0  0  0  0  0  0  0
   -4.2727    2.5236   -0.9315 H   0  0  0  0  0  0  0  0  0  0  0  0
   -1.5836    3.6747   -0.6928 H   0  0  0  0  0  0  0  0  0  0  0  0
   -0.7489    5.7328    0.4221 H   0  0  0  0  0  0  0  0  0  0  0  0
    1.3295    5.6913    1.6620 H   0  0  0  0  0  0  0  0  0  0  0  0
    2.6016    3.6146    1.8069 H   0  0  0  0  0  0  0  0  0  0  0  0
    4.4454    2.0590    1.3001 H   0  0  0  0  0  0  0  0  0  0  0  0
    3.5438    1.6453    2.8468 H   0  0  0  0  0  0  0  0  0  0  0  0
    5.7693    0.3406    2.7163 H   0  0  0  0  0  0  0  0  0  0  0  0
    3.9450   -3.7720    0.3930 H   0  0  0  0  0  0  0  0  0  0  0  0
    3.2971   -5.8998   -0.6081 H   0  0  0  0  0  0  0  0  0  0  0  0
   -0.1961   -4.1919   -2.1676 H   0  0  0  0  0  0  0  0  0  0  0  0
  1  2  1  0
  2  3  1  0
  3  4  1  0
  4  5  1  0
  5  6  1  0
  6  7  1  0
  7  8  1  6
  7  9  1  0
  9 10  1  0
 10 11  1  0
  7 12  1  0
 12 13  1  0
 13 14  2  0
 14 15  1  0
 15 16  2  0
 16 17  1  0
 17 18  2  0
 18 19  1  0
 19 20  2  0
 20 21  1  0
 21 22  1  0
 22 23  1  0
 23 24  2  0
 23 25  1  0
 25 26  2  0
 26 27  1  0
 27 28  2  0
 28 29  1  0
 29 30  2  0
 30 31  1  0
 31 32  2  0
 32 33  1  0
 33 34  1  0
 34 35  2  0
  9  3  1  0
 35 12  1  0
 33  5  1  0
 18 13  1  0
 35 19  1  0
 25 20  1  0
 34 26  1  0
 32 27  1  0
  1 36  1  0
  1 37  1  0
  1 38  1  0
  2 39  1  0
  3 40  1  1
  4 41  1  0
  4 42  1  0
  5 43  1  6
  8 44  1  0
  8 45  1  0
  8 46  1  0
  9 47  1  6
 11 48  1  0
 11 49  1  0
 11 50  1  0
 14 51  1  0
 15 52  1  0
 16 53  1  0
 17 54  1  0
 21 55  1  0
 21 56  1  0
 22 57  1  0
 28 58  1  0
 29 59  1  0
 31 60  1  0
M  END
$$$$
[H]c1c([H])c(-c2nc3c(N([H])C([H])([H])C([H])([H])N4C([H])([H])C([H])([H])OC([H])([H])C4([H])[H])nc(-c4c([H])c([H])c(N5C([H])([H])C([H])([H])N(C([H])([H])[H])C([H])([H])C5([H])[H])c([H])c4[H])nc3n2[H])c([H])c([H])c1F
     RDKit          3D

 71 76  0  0  0  0  0  0  0  0999 V2000
    8.9226    2.2406   -1.1102 C   0  0  0  0  0  0  0  0  0  0  0  0
    8.0672    2.5872   -0.0202 N   0  0  0  0  0  0  0  0  0  0  0  0
    6.9655    3.4222   -0.3189 C   0  0  0  0  0  0  0  0  0  0  0  0
    5.6215    2.8175   -0.1951 C   0  0  0  0  0  0  0  0  0  0  0  0
    5.5935    1.3807   -0.0749 N   0  0  0  0  0  0  0  0  0  0  0  0
    6.7907    0.5827    0.0500 C   0  0  0  0  0  0  0  0  0  0  0  0
    7.7920    1.4654    0.8103 C   0  0  0  0  0  0  0  0  0  0  0  0
    4.3317    0.7383   -0.0791 C   0  0  0  0  0  0  0  0  0  0  0  0
    3.1538    1.4630   -0.1035 C   0  0  0  0  0  0  0  0  0  0  0  0
    1.9130    0.8653   -0.1098 C   0  0  0  0  0  0  0  0  0  0  0  0
    1.8024   -0.5171   -0.0909 C   0  0  0  0  0  0  0  0  0  0  0  0
    2.9639   -1.2549   -0.0664 C   0  0  0  0  0  0  0  0  0  0  0  0
    4.2131   -0.6314   -0.0608 C   0  0  0  0  0  0  0  0  0  0  0  0
    0.5066   -1.1484   -0.0996 C   0  0  0  0  0  0  0  0  0  0  0  0
   -0.6112   -0.3988   -0.1334 N   0  0  0  0  0  0  0  0  0  0  0  0
   -1.8389   -0.9559   -0.1425 C   0  0  0  0  0  0  0  0  0  0  0  0
   -3.0414   -0.1769   -0.1808 N   0  0  0  0  0  0  0  0  0  0  0  0
   -3.0503    1.2488   -0.2086 C   0  0  0  0  0  0  0  0  0  0  0  0
   -4.4815    1.7314   -0.2696 C   0  0  0  0  0  0  0  0  0  0  0  0
   -4.5645    3.1748   -0.3000 N   0  0  0  0  0  0  0  0  0  0  0  0
   -5.9609    3.5402   -0.3767 C   0  0  0  0  0  0  0  0  0  0  0  0
   -6.5269    3.8422    0.9761 C   0  0  0  0  0  0  0  0  0  0  0  0
   -5.9321    4.9784    1.5084 O   0  0  0  0  0  0  0  0  0  0  0  0
   -4.6079    5.1261    1.1898 C   0  0  0  0  0  0  0  0  0  0  0  0
   -3.9364    3.8063    0.8285 C   0  0  0  0  0  0  0  0  0  0  0  0
   -1.8958   -2.3341   -0.1154 C   0  0  0  0  0  0  0  0  0  0  0  0
   -2.9547   -3.1547   -0.1165 N   0  0  0  0  0  0  0  0  0  0  0  0
   -2.5393   -4.4328   -0.0834 C   0  0  0  0  0  0  0  0  0  0  0  0
   -1.1809   -4.3769   -0.0617 N   0  0  0  0  0  0  0  0  0  0  0  0
   -0.7460   -3.1128   -0.0803 C   0  0  0  0  0  0  0  0  0  0  0  0
    0.4399   -2.4893   -0.0734 N   0  0  0  0  0  0  0  0  0  0  0  0
   -3.3452   -5.6482   -0.0732 C   0  0  0  0  0  0  0  0  0  0  0  0
   -2.8158   -6.9165   -0.0417 C   0  0  0  0  0  0  0  0  0  0  0  0
   -3.6375   -8.0471   -0.0335 C   0  0  0  0  0  0  0  0  0  0  0  0
   -5.0062   -7.9289   -0.0562 C   0  0  0  0  0  0  0  0  0  0  0  0
   -5.8249   -9.0204   -0.0492 F   0  0  0  0  0  0  0  0  0  0  0  0
   -5.5445   -6.6574   -0.0878 C   0  0  0  0  0  0  0  0  0  0  0  0
   -4.7121   -5.5362   -0.0959 C   0  0  0  0  0  0  0  0  0  0  0  0
    8.5414    2.6673   -2.0593 H   0  0  0  0  0  0  0  0  0  0  0  0
    9.9297    2.7274   -0.9519 H   0  0  0  0  0  0  0  0  0  0  0  0
    9.0289    1.1429   -1.1612 H   0  0  0  0  0  0  0  0  0  0  0  0
    7.0625    4.3425    0.3336 H   0  0  0  0  0  0  0  0  0  0  0  0
    7.1044    3.8186   -1.3640 H   0  0  0  0  0  0  0  0  0  0  0  0
    4.9941    3.0592   -1.1038 H   0  0  0  0  0  0  0  0  0  0  0  0
    5.0859    3.2826    0.6596 H   0  0  0  0  0  0  0  0  0  0  0  0
    6.6709   -0.3339    0.6522 H   0  0  0  0  0  0  0  0  0  0  0  0
    7.1940    0.2879   -0.9450 H   0  0  0  0  0  0  0  0  0  0  0  0
    8.7180    0.8683    0.9229 H   0  0  0  0  0  0  0  0  0  0  0  0
    7.3128    1.7238    1.7707 H   0  0  0  0  0  0  0  0  0  0  0  0
    3.2675    2.5545   -0.1180 H   0  0  0  0  0  0  0  0  0  0  0  0
    1.0170    1.4931   -0.1295 H   0  0  0  0  0  0  0  0  0  0  0  0
    2.8804   -2.3516   -0.0518 H   0  0  0  0  0  0  0  0  0  0  0  0
    5.0551   -1.2856   -0.0445 H   0  0  0  0  0  0  0  0  0  0  0  0
   -3.9444   -0.6950   -0.1878 H   0  0  0  0  0  0  0  0  0  0  0  0
   -2.5423    1.6360    0.7220 H   0  0  0  0  0  0  0  0  0  0  0  0
   -2.4473    1.6282   -1.0491 H   0  0  0  0  0  0  0  0  0  0  0  0
   -4.9066    1.3557   -1.2214 H   0  0  0  0  0  0  0  0  0  0  0  0
   -5.0930    1.3274    0.5612 H   0  0  0  0  0  0  0  0  0  0  0  0
   -6.1020    4.4388   -1.0208 H   0  0  0  0  0  0  0  0  0  0  0  0
   -6.5809    2.7177   -0.8217 H   0  0  0  0  0  0  0  0  0  0  0  0
   -6.3617    2.9904    1.6439 H   0  0  0  0  0  0  0  0  0  0  0  0
   -7.6115    4.0908    0.8719 H   0  0  0  0  0  0  0  0  0  0  0  0
   -4.4473    5.8917    0.4183 H   0  0  0  0  0  0  0  0  0  0  0  0
   -4.0870    5.4785    2.1143 H   0  0  0  0  0  0  0  0  0  0  0  0
   -2.8911    4.0771    0.5366 H   0  0  0  0  0  0  0  0  0  0  0  0
   -3.8832    3.1845    1.7282 H   0  0  0  0  0  0  0  0  0  0  0  0
   -0.5817   -5.2178   -0.0339 H   0  0  0  0  0  0  0  0  0  0  0  0
   -1.7430   -7.0335   -0.0232 H   0  0  0  0  0  0  0  0  0  0  0  0
   -3.2188   -9.0423   -0.0089 H   0  0  0  0  0  0  0  0  0  0  0  0
   -6.6044   -6.5668   -0.1052 H   0  0  0  0  0  0  0  0  0  0  0  0
   -5.1390   -4.5311   -0.1224 H   0  0  0  0  0  0  0  0  0  0  0  0
  1  2  1  0
  2  3  1  0
  3  4  1  0
  4  5  1  0
  5  6  1  0
  6  7  1  0
  5  8  1  0
  8  9  2  0
  9 10  1  0
 10 11  2  0
 11 12  1  0
 12 13  2  0
 11 14  1  0
 14 15  2  0
 15 16  1  0
 16 17  1  0
 17 18  1  0
 18 19  1  0
 19 20  1  0
 20 21  1  0
 21 22  1  0
 22 23  1  0
 23 24  1  0
 24 25  1  0
 16 26  2  0
 26 27  1  0
 27 28  2  0
 28 29  1  0
 29 30  1  0
 30 31  2  0
 28 32  1  0
 32 33  2  0
 33 34  1  0
 34 35  2  0
 35 36  1  0
 35 37  1  0
 37 38  2  0
  7  2  1  0
 13  8  1  0
 31 14  1  0
 38 32  1  0
 25 20  1  0
 30 26  1  0
  1 39  1  0
  1 40  1  0
  1 41  1  0
  3 42  1  0
  3 43  1  0
  4 44  1  0
  4 45  1  0
  6 46  1  0
  6 47  1  0
  7 48  1  0
  7 49  1  0
  9 50  1  0
 10 51  1  0
 12 52  1  0
 13 53  1  0
 17 54  1  0
 18 55  1  0
 18 56  1  0
 19 57  1  0
 19 58  1  0
 21 59  1  0
 21 60  1  0
 22 61  1  0
 22 62  1  0
 24 63  1  0
 24 64  1  0
 25 65  1  0
 25 66  1  0
 29 67  1  0
 33 68  1  0
 34 69  1  0
 37 70  1  0
 38 71  1  0
M  END
$$$$
[H]/C(=C(/[H])c1c([H])c([H])c(SC([H])(C([H])([H])[H])C([H])([H])[H])c([H])c1[H])c1c([H])c([H])c([H])c([H])c1[H]
     RDKit          3D

 36 37  0  0  0  0  0  0  0  0999 V2000
    5.0754    0.9428   -0.7540 C   0  0  0  0  0  0  0  0  0  0  0  0
    5.0451   -0.5532   -0.5265 C   0  0  0  0  0  0  0  0  0  0  0  0
    6.4846   -1.0163   -0.2783 C   0  0  0  0  0  0  0  0  0  0  0  0
    4.1047   -0.9799    0.9633 S   0  0  0  0  0  0  0  0  0  0  0  0
    2.3797   -0.6023    0.8113 C   0  0  0  0  0  0  0  0  0  0  0  0
    1.4545   -1.4955    0.3163 C   0  0  0  0  0  0  0  0  0  0  0  0
    0.1039   -1.1716    0.2102 C   0  0  0  0  0  0  0  0  0  0  0  0
   -0.3743    0.0556    0.5939 C   0  0  0  0  0  0  0  0  0  0  0  0
   -1.7695    0.4665    0.5136 C   0  0  0  0  0  0  0  0  0  0  0  0
   -2.6854   -0.3352    0.0573 C   0  0  0  0  0  0  0  0  0  0  0  0
   -4.0959    0.0491   -0.0358 C   0  0  0  0  0  0  0  0  0  0  0  0
   -4.5444    1.2849    0.3502 C   0  0  0  0  0  0  0  0  0  0  0  0
   -5.8886    1.6000    0.2438 C   0  0  0  0  0  0  0  0  0  0  0  0
   -6.7582    0.6590   -0.2520 C   0  0  0  0  0  0  0  0  0  0  0  0
   -6.3348   -0.5962   -0.6495 C   0  0  0  0  0  0  0  0  0  0  0  0
   -4.9991   -0.8891   -0.5362 C   0  0  0  0  0  0  0  0  0  0  0  0
    0.5649    0.9645    1.0972 C   0  0  0  0  0  0  0  0  0  0  0  0
    1.8947    0.6326    1.1968 C   0  0  0  0  0  0  0  0  0  0  0  0
    4.6202    1.4812    0.1049 H   0  0  0  0  0  0  0  0  0  0  0  0
    4.5457    1.2515   -1.6787 H   0  0  0  0  0  0  0  0  0  0  0  0
    6.1314    1.3231   -0.8659 H   0  0  0  0  0  0  0  0  0  0  0  0
    4.6330   -1.0169   -1.4422 H   0  0  0  0  0  0  0  0  0  0  0  0
    7.1844   -0.5277   -0.9573 H   0  0  0  0  0  0  0  0  0  0  0  0
    6.4536   -2.1206   -0.3808 H   0  0  0  0  0  0  0  0  0  0  0  0
    6.6736   -0.7998    0.8021 H   0  0  0  0  0  0  0  0  0  0  0  0
    1.8254   -2.4757    0.0076 H   0  0  0  0  0  0  0  0  0  0  0  0
   -0.5379   -1.9185   -0.1815 H   0  0  0  0  0  0  0  0  0  0  0  0
   -2.0060    1.4711    0.8527 H   0  0  0  0  0  0  0  0  0  0  0  0
   -2.3921   -1.3438   -0.2731 H   0  0  0  0  0  0  0  0  0  0  0  0
   -3.8676    2.0402    0.7449 H   0  0  0  0  0  0  0  0  0  0  0  0
   -6.2691    2.5708    0.5433 H   0  0  0  0  0  0  0  0  0  0  0  0
   -7.8061    0.9149   -0.3311 H   0  0  0  0  0  0  0  0  0  0  0  0
   -7.0756   -1.2975   -1.0346 H   0  0  0  0  0  0  0  0  0  0  0  0
   -4.6528   -1.8740   -0.8451 H   0  0  0  0  0  0  0  0  0  0  0  0
    0.2465    1.9638    1.4224 H   0  0  0  0  0  0  0  0  0  0  0  0
    2.6362    1.3423    1.5909 H   0  0  0  0  0  0  0  0  0  0  0  0
  1  2  1  0
  2  3  1  0
  2  4  1  0
  4  5  1  0
  5  6  2  0
  6  7  1  0
  7  8  2  0
  8  9  1  0
  9 10  2  0
 10 11  1  0
 11 12  2  0
 12 13  1  0
 13 14  2  0
 14 15  1  0
 15 16  2  0
  8 17  1  0
 17 18  2  0
 18  5  1  0
 16 11  1  0
  1 19  1  0
  1 20  1  0
  1 21  1  0
  2 22  1  0
  3 23  1  0
  3 24  1  0
  3 25  1  0
  6 26  1  0
  7 27  1  0
  9 28  1  0
 10 29  1  0
 12 30  1  0
 13 31  1  0
 14 32  1  0
 15 33  1  0
 16 34  1  0
 17 35  1  0
 18 36  1  0
M  END
$$$$
[H]OC(=O)c1c([H])c([H])c(-c2c([H])c([H])c(C#N)c([H])c2O[H])c([H])c1O[H]
     RDKit          3D

 28 29  0  0  0  0  0  0  0  0999 V2000
   -5.1224    1.3918   -0.0663 O   0  0  0  0  0  0  0  0  0  0  0  0
   -4.4828    0.1747   -0.1698 C   0  0  0  0  0  0  0  0  0  0  0  0
   -5.1552   -0.8602   -0.3142 O   0  0  0  0  0  0  0  0  0  0  0  0
   -3.0280    0.1121   -0.1092 C   0  0  0  0  0  0  0  0  0  0  0  0
   -2.2915    1.2512    0.0496 C   0  0  0  0  0  0  0  0  0  0  0  0
   -0.9317    1.1810    0.1050 C   0  0  0  0  0  0  0  0  0  0  0  0
   -0.2097   -0.0188    0.0073 C   0  0  0  0  0  0  0  0  0  0  0  0
   -0.9732   -1.1395   -0.1508 C   0  0  0  0  0  0  0  0  0  0  0  0
   -2.3555   -1.1043   -0.2110 C   0  0  0  0  0  0  0  0  0  0  0  0
   -3.1169   -2.2339   -0.3699 O   0  0  0  0  0  0  0  0  0  0  0  0
    1.2376    0.0447    0.0480 C   0  0  0  0  0  0  0  0  0  0  0  0
    1.9304    0.8716   -0.8555 C   0  0  0  0  0  0  0  0  0  0  0  0
    3.3026    0.9546   -0.8876 C   0  0  0  0  0  0  0  0  0  0  0  0
    4.0644    0.2102   -0.0118 C   0  0  0  0  0  0  0  0  0  0  0  0
    3.4146   -0.6027    0.8788 C   0  0  0  0  0  0  0  0  0  0  0  0
    2.0077   -0.6829    0.9070 C   0  0  0  0  0  0  0  0  0  0  0  0
    1.4350   -1.5154    1.8305 O   0  0  0  0  0  0  0  0  0  0  0  0
    5.5077    0.2712   -0.0166 C   0  0  0  0  0  0  0  0  0  0  0  0
    6.6555    0.3358   -0.0146 N   0  0  0  0  0  0  0  0  0  0  0  0
   -5.1789    2.0215   -0.8439 H   0  0  0  0  0  0  0  0  0  0  0  0
   -2.7748    2.2199    0.1331 H   0  0  0  0  0  0  0  0  0  0  0  0
   -0.3480    2.0904    0.2316 H   0  0  0  0  0  0  0  0  0  0  0  0
   -0.4624   -2.0829   -0.2325 H   0  0  0  0  0  0  0  0  0  0  0  0
   -2.6530   -3.1271   -0.4461 H   0  0  0  0  0  0  0  0  0  0  0  0
    1.2879    1.4397   -1.5266 H   0  0  0  0  0  0  0  0  0  0  0  0
    3.7977    1.6037   -1.5990 H   0  0  0  0  0  0  0  0  0  0  0  0
    3.9912   -1.2041    1.5847 H   0  0  0  0  0  0  0  0  0  0  0  0
    0.4519   -1.6023    1.9204 H   0  0  0  0  0  0  0  0  0  0  0  0
  1  2  1  0
  2  3  2  0
  2  4  1  0
  4  5  2  0
  5  6  1  0
  6  7  2  0
  7  8  1  0
  8  9  2  0
  9 10  1  0
  7 11  1  0
 11 12  2  0
 12 13  1  0
 13 14  2  0
 14 15  1  0
 15 16  2  0
 16 17  1  0
 14 18  1  0
 18 19  3  0
  9  4  1  0
 16 11  1  0
  1 20  1  0
  5 21  1  0
  6 22  1  0
  8 23  1  0
 10 24  1  0
 12 25  1  0
 13 26  1  0
 15 27  1  0
 17 28  1  0
M  END
$$$$
[H]c1nc(C(F)(F)F)c([H])c(C(=O)N([H])c2c([H])c([H])c(C([H])([H])[H])c(-c3c([H])c(N4C([H])([H])C([H])([H])OC([H])([H])C4([H])[H])c(=O)n(C([H])([H])[H])c3[H])c2[H])c1[H]
     RDKit          3D

 57 60  0  0  0  0  0  0  0  0999 V2000
   -0.7995   -4.1028   -0.3076 C   0  0  0  0  0  0  0  0  0  0  0  0
    0.1308   -2.9131   -0.2340 C   0  0  0  0  0  0  0  0  0  0  0  0
    1.4634   -3.2691   -0.4144 C   0  0  0  0  0  0  0  0  0  0  0  0
    2.4150   -2.3164   -0.4004 C   0  0  0  0  0  0  0  0  0  0  0  0
    2.1699   -0.9390   -0.2155 C   0  0  0  0  0  0  0  0  0  0  0  0
    3.2151   -0.0670   -0.2365 N   0  0  0  0  0  0  0  0  0  0  0  0
    3.8500    1.1409   -0.2468 C   0  0  0  0  0  0  0  0  0  0  0  0
    3.2975    2.2655   -0.2862 O   0  0  0  0  0  0  0  0  0  0  0  0
    5.3540    1.1770   -0.2049 C   0  0  0  0  0  0  0  0  0  0  0  0
    5.9615    0.2122   -1.0362 C   0  0  0  0  0  0  0  0  0  0  0  0
    7.3069    0.0956   -0.9642 C   0  0  0  0  0  0  0  0  0  0  0  0
    8.0518    0.8805   -0.1427 N   0  0  0  0  0  0  0  0  0  0  0  0
    7.4933    1.8204    0.6576 C   0  0  0  0  0  0  0  0  0  0  0  0
    6.0797    1.9436    0.5973 C   0  0  0  0  0  0  0  0  0  0  0  0
    8.3544    2.5730    1.5714 C   0  0  0  0  0  0  0  0  0  0  0  0
    9.4198    3.0057    0.7234 F   0  0  0  0  0  0  0  0  0  0  0  0
    8.9419    1.8370    2.5648 F   0  0  0  0  0  0  0  0  0  0  0  0
    7.7950    3.7281    2.0268 F   0  0  0  0  0  0  0  0  0  0  0  0
    0.8098   -0.6377   -0.0461 C   0  0  0  0  0  0  0  0  0  0  0  0
   -0.2148   -1.5989   -0.0471 C   0  0  0  0  0  0  0  0  0  0  0  0
   -1.6298   -1.2707    0.1384 C   0  0  0  0  0  0  0  0  0  0  0  0
   -2.2077   -0.1083   -0.4077 C   0  0  0  0  0  0  0  0  0  0  0  0
   -3.5430    0.1153   -0.2375 C   0  0  0  0  0  0  0  0  0  0  0  0
   -4.1720    1.3237   -0.6321 N   0  0  0  0  0  0  0  0  0  0  0  0
   -5.2022    1.4706   -1.6255 C   0  0  0  0  0  0  0  0  0  0  0  0
   -6.0864    2.6545   -1.2007 C   0  0  0  0  0  0  0  0  0  0  0  0
   -6.1447    2.6638    0.1785 O   0  0  0  0  0  0  0  0  0  0  0  0
   -4.9711    3.2216    0.6599 C   0  0  0  0  0  0  0  0  0  0  0  0
   -3.7581    2.5584    0.0647 C   0  0  0  0  0  0  0  0  0  0  0  0
   -4.3907   -0.7844    0.4580 C   0  0  0  0  0  0  0  0  0  0  0  0
   -5.6122   -0.5337    0.5655 O   0  0  0  0  0  0  0  0  0  0  0  0
   -3.8299   -1.8663    0.9522 N   0  0  0  0  0  0  0  0  0  0  0  0
   -4.7048   -2.8318    1.6167 C   0  0  0  0  0  0  0  0  0  0  0  0
   -2.4889   -2.0888    0.7941 C   0  0  0  0  0  0  0  0  0  0  0  0
   -0.8346   -4.6205    0.6669 H   0  0  0  0  0  0  0  0  0  0  0  0
   -0.3267   -4.9451   -0.9448 H   0  0  0  0  0  0  0  0  0  0  0  0
   -1.7354   -3.9164   -0.8259 H   0  0  0  0  0  0  0  0  0  0  0  0
    1.7222   -4.3357   -0.5451 H   0  0  0  0  0  0  0  0  0  0  0  0
    3.4593   -2.6174   -0.5711 H   0  0  0  0  0  0  0  0  0  0  0  0
    4.2226   -0.7829   -0.1251 H   0  0  0  0  0  0  0  0  0  0  0  0
    5.3377   -0.3714   -1.7117 H   0  0  0  0  0  0  0  0  0  0  0  0
    7.8411   -0.6658   -1.5739 H   0  0  0  0  0  0  0  0  0  0  0  0
    5.6371    2.7323    1.2372 H   0  0  0  0  0  0  0  0  0  0  0  0
    0.5458    0.3799    0.0602 H   0  0  0  0  0  0  0  0  0  0  0  0
   -1.6309    0.5872   -0.9715 H   0  0  0  0  0  0  0  0  0  0  0  0
   -4.7841    1.7299   -2.6447 H   0  0  0  0  0  0  0  0  0  0  0  0
   -5.8157    0.5524   -1.6764 H   0  0  0  0  0  0  0  0  0  0  0  0
   -5.5652    3.5805   -1.5562 H   0  0  0  0  0  0  0  0  0  0  0  0
   -7.0981    2.5353   -1.6549 H   0  0  0  0  0  0  0  0  0  0  0  0
   -5.0022    4.3275    0.4947 H   0  0  0  0  0  0  0  0  0  0  0  0
   -4.9542    3.1152    1.7753 H   0  0  0  0  0  0  0  0  0  0  0  0
   -3.3234    3.2568   -0.6550 H   0  0  0  0  0  0  0  0  0  0  0  0
   -3.0578    2.3184    0.8942 H   0  0  0  0  0  0  0  0  0  0  0  0
   -5.4977   -2.3079    2.1686 H   0  0  0  0  0  0  0  0  0  0  0  0
   -4.1241   -3.5304    2.2602 H   0  0  0  0  0  0  0  0  0  0  0  0
   -5.1989   -3.3910    0.7541 H   0  0  0  0  0  0  0  0  0  0  0  0
   -2.1712   -2.9905    1.3284 H   0  0  0  0  0  0  0  0  0  0  0  0
  1  2  1  0
  2  3  2  0
  3  4  1  0
  4  5  2  0
  5  6  1  0
  6  7  1  0
  7  8  2  0
  7  9  1  0
  9 10  2  0
 10 11  1  0
 11 12  2  0
 12 13  1  0
 13 14  2  0
 13 15  1  0
 15 16  1  0
 15 17  1  0
 15 18  1  0
  5 19  1  0
 19 20  2  0
 20 21  1  0
 21 22  1  0
 22 23  2  0
 23 24  1  0
 24 25  1  0
 25 26  1  0
 26 27  1  0
 27 28  1  0
 28 29  1  0
 23 30  1  0
 30 31  2  0
 30 32  1  0
 32 33  1  0
 32 34  1  0
 20  2  1  0
 34 21  2  0
 14  9  1  0
 29 24  1  0
  1 35  1  0
  1 36  1  0
  1 37  1  0
  3 38  1  0
  4 39  1  0
  6 40  1  0
 10 41  1  0
 11 42  1  0
 14 43  1  0
 19 44  1  0
 22 45  1  0
 25 46  1  0
 25 47  1  0
 26 48  1  0
 26 49  1  0
 28 50  1  0
 28 51  1  0
 29 52  1  0
 29 53  1  0
 33 54  1  0
 33 55  1  0
 33 56  1  0
 34 57  1  0
M  END
$$$$
[H]Oc1c([H])c([H])nc(N([H])N(C([H])([H])[H])C([H])([H])C([H])([H])C([H])([H])N([H])C(=O)C([H])([H])C([H])(C([H])([H])[H])C([H])([H])[H])c1C#N
     RDKit          3D

 45 45  0  0  0  0  0  0  0  0999 V2000
    6.1253   -1.2282   -0.7185 C   0  0  0  0  0  0  0  0  0  0  0  0
    5.0923   -0.2924   -0.0915 C   0  0  0  0  0  0  0  0  0  0  0  0
    4.6033   -0.8222    1.2294 C   0  0  0  0  0  0  0  0  0  0  0  0
    3.9811   -0.1442   -1.0917 C   0  0  0  0  0  0  0  0  0  0  0  0
    2.9361    0.7564   -0.5455 C   0  0  0  0  0  0  0  0  0  0  0  0
    3.0759    1.1903    0.6186 O   0  0  0  0  0  0  0  0  0  0  0  0
    1.8483    1.0547   -1.4025 N   0  0  0  0  0  0  0  0  0  0  0  0
    0.7624    1.8961   -1.0016 C   0  0  0  0  0  0  0  0  0  0  0  0
    0.0260    1.2497    0.1587 C   0  0  0  0  0  0  0  0  0  0  0  0
   -0.4903   -0.0947   -0.3107 C   0  0  0  0  0  0  0  0  0  0  0  0
   -1.2259   -0.6989    0.7807 N   0  0  0  0  0  0  0  0  0  0  0  0
   -1.6928   -2.0238    0.4358 C   0  0  0  0  0  0  0  0  0  0  0  0
   -2.2201    0.1473    1.2635 N   0  0  0  0  0  0  0  0  0  0  0  0
   -3.4665    0.4054    0.6220 C   0  0  0  0  0  0  0  0  0  0  0  0
   -3.5013    1.1107   -0.5283 N   0  0  0  0  0  0  0  0  0  0  0  0
   -4.6446    1.3836   -1.1260 C   0  0  0  0  0  0  0  0  0  0  0  0
   -5.8805    0.9925   -0.6570 C   0  0  0  0  0  0  0  0  0  0  0  0
   -5.8752    0.2712    0.5155 C   0  0  0  0  0  0  0  0  0  0  0  0
   -7.0884   -0.1489    1.0366 O   0  0  0  0  0  0  0  0  0  0  0  0
   -4.6777   -0.0060    1.1271 C   0  0  0  0  0  0  0  0  0  0  0  0
   -4.7026   -0.7616    2.3617 C   0  0  0  0  0  0  0  0  0  0  0  0
   -4.7330   -1.3605    3.3513 N   0  0  0  0  0  0  0  0  0  0  0  0
    7.0005   -0.6902   -1.0843 H   0  0  0  0  0  0  0  0  0  0  0  0
    6.4226   -2.0148    0.0208 H   0  0  0  0  0  0  0  0  0  0  0  0
    5.6855   -1.7648   -1.5661 H   0  0  0  0  0  0  0  0  0  0  0  0
    5.6146    0.6766    0.1015 H   0  0  0  0  0  0  0  0  0  0  0  0
    4.6862   -0.0401    2.0162 H   0  0  0  0  0  0  0  0  0  0  0  0
    5.2551   -1.6806    1.5336 H   0  0  0  0  0  0  0  0  0  0  0  0
    3.5529   -1.1409    1.1758 H   0  0  0  0  0  0  0  0  0  0  0  0
    3.5318   -1.1578   -1.2641 H   0  0  0  0  0  0  0  0  0  0  0  0
    4.3392    0.2361   -2.0732 H   0  0  0  0  0  0  0  0  0  0  0  0
    1.8098    0.6549   -2.3732 H   0  0  0  0  0  0  0  0  0  0  0  0
    0.1064    2.1560   -1.8319 H   0  0  0  0  0  0  0  0  0  0  0  0
    1.2029    2.8392   -0.5705 H   0  0  0  0  0  0  0  0  0  0  0  0
   -0.8141    1.8750    0.5103 H   0  0  0  0  0  0  0  0  0  0  0  0
    0.7112    1.1465    1.0192 H   0  0  0  0  0  0  0  0  0  0  0  0
    0.3785   -0.7362   -0.5919 H   0  0  0  0  0  0  0  0  0  0  0  0
   -1.1052    0.0509   -1.2136 H   0  0  0  0  0  0  0  0  0  0  0  0
   -2.3470   -2.4237    1.2038 H   0  0  0  0  0  0  0  0  0  0  0  0
   -2.0980   -2.0952   -0.5999 H   0  0  0  0  0  0  0  0  0  0  0  0
   -0.7616   -2.6696    0.4656 H   0  0  0  0  0  0  0  0  0  0  0  0
   -2.0470    0.6337    2.1703 H   0  0  0  0  0  0  0  0  0  0  0  0
   -4.6302    1.9584   -2.0550 H   0  0  0  0  0  0  0  0  0  0  0  0
   -6.7949    1.2519   -1.2007 H   0  0  0  0  0  0  0  0  0  0  0  0
   -7.9510    0.0578    0.5870 H   0  0  0  0  0  0  0  0  0  0  0  0
  1  2  1  0
  2  3  1  0
  2  4  1  0
  4  5  1  0
  5  6  2  0
  5  7  1  0
  7  8  1  0
  8  9  1  0
  9 10  1  0
 10 11  1  0
 11 12  1  0
 11 13  1  0
 13 14  1  0
 14 15  2  0
 15 16  1  0
 16 17  2  0
 17 18  1  0
 18 19  1  0
 18 20  2  0
 20 21  1  0
 21 22  3  0
 20 14  1  0
  1 23  1  0
  1 24  1  0
  1 25  1  0
  2 26  1  0
  3 27  1  0
  3 28  1  0
  3 29  1  0
  4 30  1  0
  4 31  1  0
  7 32  1  0
  8 33  1  0
  8 34  1  0
  9 35  1  0
  9 36  1  0
 10 37  1  0
 10 38  1  0
 12 39  1  0
 12 40  1  0
 12 41  1  0
 13 42  1  0
 16 43  1  0
 17 44  1  0
 19 45  1  0
M  END
$$$$
[H]O[C@]1([H])C([H])(n2nc(-c3c([H])nc([H])c([H])c3Sc3c([H])c([H])c(N([H])C4([H])C([H])([H])C([H])([H])C4([H])[H])c([H])c3[H])c3c([H])c([H])c([H])c([H])c32)O[C@@]([H])(N([H])c2c([H])c([H])c3c([H])n(C4([H])C([H])([H])C([H])([H])N(C([H])([H])[H])C([H])([H])C4([H])[H])nc3c2[H])[C@]1([H])OC([H])([H])[H]
     RDKit          3D

 96104  0  0  0  0  0  0  0  0999 V2000
    3.3736   -2.5888    0.4334 C   0  0  0  0  0  0  0  0  0  0  0  0
    2.0042   -2.9133    0.2740 N   0  0  0  0  0  0  0  0  0  0  0  0
    1.0296   -2.0063   -0.3641 C   0  0  1  0  0  0  0  0  0  0  0  0
    1.3385   -1.7598   -1.7954 C   0  0  2  0  0  0  0  0  0  0  0  0
    1.1440   -0.4562   -2.2270 O   0  0  0  0  0  0  0  0  0  0  0  0
    2.1489    0.0014   -3.0713 C   0  0  0  0  0  0  0  0  0  0  0  0
    0.2476   -2.6385   -2.4563 C   0  0  2  0  0  0  0  0  0  0  0  0
    0.0205   -2.2391   -3.7430 O   0  0  0  0  0  0  0  0  0  0  0  0
   -0.8726   -2.4857   -1.4935 C   0  0  0  0  0  0  0  0  0  0  0  0
   -1.5852   -1.2366   -1.5469 N   0  0  0  0  0  0  0  0  0  0  0  0
   -1.4371   -0.1806   -0.7725 N   0  0  0  0  0  0  0  0  0  0  0  0
   -2.2698    0.8179   -1.1018 C   0  0  0  0  0  0  0  0  0  0  0  0
   -2.3644    2.1031   -0.4429 C   0  0  0  0  0  0  0  0  0  0  0  0
   -2.5972    2.1408    0.8997 C   0  0  0  0  0  0  0  0  0  0  0  0
   -2.7950    0.6235    1.7898 S   0  0  0  0  0  0  0  0  0  0  0  0
   -4.5218    0.1552    1.7066 C   0  0  0  0  0  0  0  0  0  0  0  0
   -5.4400    0.9149    0.9978 C   0  0  0  0  0  0  0  0  0  0  0  0
   -6.7689    0.5567    0.9297 C   0  0  0  0  0  0  0  0  0  0  0  0
   -7.2791   -0.5561    1.5444 C   0  0  0  0  0  0  0  0  0  0  0  0
   -8.5950   -1.0144    1.5141 N   0  0  0  0  0  0  0  0  0  0  0  0
   -9.7123   -0.6299    0.7362 C   0  0  0  0  0  0  0  0  0  0  0  0
  -10.1743    0.7741    1.0083 C   0  0  0  0  0  0  0  0  0  0  0  0
  -10.3520    0.9682   -0.4824 C   0  0  0  0  0  0  0  0  0  0  0  0
   -9.5641   -0.3303   -0.7112 C   0  0  0  0  0  0  0  0  0  0  0  0
   -6.3317   -1.3090    2.2559 C   0  0  0  0  0  0  0  0  0  0  0  0
   -5.0027   -0.9689    2.3359 C   0  0  0  0  0  0  0  0  0  0  0  0
   -2.6882    3.3667    1.5453 C   0  0  0  0  0  0  0  0  0  0  0  0
   -2.5442    4.5353    0.8359 C   0  0  0  0  0  0  0  0  0  0  0  0
   -2.3161    4.4885   -0.4809 N   0  0  0  0  0  0  0  0  0  0  0  0
   -2.2245    3.2850   -1.1281 C   0  0  0  0  0  0  0  0  0  0  0  0
   -2.9956    0.3345   -2.1743 C   0  0  0  0  0  0  0  0  0  0  0  0
   -3.9938    0.9683   -2.8913 C   0  0  0  0  0  0  0  0  0  0  0  0
   -4.5700    0.2503   -3.9298 C   0  0  0  0  0  0  0  0  0  0  0  0
   -4.1354   -1.0309   -4.1970 C   0  0  0  0  0  0  0  0  0  0  0  0
   -3.1421   -1.6511   -3.4777 C   0  0  0  0  0  0  0  0  0  0  0  0
   -2.5586   -0.9369   -2.4344 C   0  0  0  0  0  0  0  0  0  0  0  0
   -0.2455   -2.5374   -0.2559 O   0  0  0  0  0  0  0  0  0  0  0  0
    4.2104   -3.5685    0.8984 C   0  0  0  0  0  0  0  0  0  0  0  0
    5.5461   -3.3018    1.0714 C   0  0  0  0  0  0  0  0  0  0  0  0
    6.0641   -2.0567    0.7832 C   0  0  0  0  0  0  0  0  0  0  0  0
    5.2068   -1.0748    0.3141 C   0  0  0  0  0  0  0  0  0  0  0  0
    6.0014    0.0038    0.1259 N   0  0  0  0  0  0  0  0  0  0  0  0
    7.2509   -0.2716    0.4474 N   0  0  0  0  0  0  0  0  0  0  0  0
    8.4068    0.6206    0.3759 C   0  0  0  0  0  0  0  0  0  0  0  0
    8.0223    2.0623    0.3581 C   0  0  0  0  0  0  0  0  0  0  0  0
    7.6049    2.6197    1.6911 C   0  0  0  0  0  0  0  0  0  0  0  0
    8.5477    2.2790    2.7421 N   0  0  0  0  0  0  0  0  0  0  0  0
    9.7838    3.0267    2.6014 C   0  0  0  0  0  0  0  0  0  0  0  0
    8.7934    0.8489    2.7886 C   0  0  0  0  0  0  0  0  0  0  0  0
    9.3667    0.3438    1.4885 C   0  0  0  0  0  0  0  0  0  0  0  0
    7.3499   -1.5455    0.8654 C   0  0  0  0  0  0  0  0  0  0  0  0
    3.8830   -1.3511    0.1467 C   0  0  0  0  0  0  0  0  0  0  0  0
    1.6726   -3.8442    0.6299 H   0  0  0  0  0  0  0  0  0  0  0  0
    1.1290   -1.0416    0.1909 H   0  0  0  0  0  0  0  0  0  0  0  0
    2.2830   -2.1962   -2.1746 H   0  0  0  0  0  0  0  0  0  0  0  0
    3.1434   -0.0084   -2.5854 H   0  0  0  0  0  0  0  0  0  0  0  0
    2.1517   -0.6446   -3.9849 H   0  0  0  0  0  0  0  0  0  0  0  0
    1.8561    1.0581   -3.3450 H   0  0  0  0  0  0  0  0  0  0  0  0
    0.6157   -3.6870   -2.3684 H   0  0  0  0  0  0  0  0  0  0  0  0
    0.1261   -3.0465   -4.3378 H   0  0  0  0  0  0  0  0  0  0  0  0
   -1.5931   -3.3430   -1.5455 H   0  0  0  0  0  0  0  0  0  0  0  0
   -5.0387    1.7990    0.5088 H   0  0  0  0  0  0  0  0  0  0  0  0
   -7.4064    1.1970    0.3643 H   0  0  0  0  0  0  0  0  0  0  0  0
   -8.8261   -1.8072    2.2208 H   0  0  0  0  0  0  0  0  0  0  0  0
  -10.6086   -1.3217    0.8533 H   0  0  0  0  0  0  0  0  0  0  0  0
  -11.1322    0.8403    1.5846 H   0  0  0  0  0  0  0  0  0  0  0  0
   -9.4321    1.4680    1.4309 H   0  0  0  0  0  0  0  0  0  0  0  0
  -11.4254    0.8898   -0.7463 H   0  0  0  0  0  0  0  0  0  0  0  0
   -9.8248    1.8798   -0.8625 H   0  0  0  0  0  0  0  0  0  0  0  0
   -8.5935   -0.1338   -1.1437 H   0  0  0  0  0  0  0  0  0  0  0  0
  -10.1354   -1.0147   -1.3967 H   0  0  0  0  0  0  0  0  0  0  0  0
   -6.6568   -2.2169    2.7767 H   0  0  0  0  0  0  0  0  0  0  0  0
   -4.2822   -1.5685    2.8938 H   0  0  0  0  0  0  0  0  0  0  0  0
   -2.8760    3.3574    2.6224 H   0  0  0  0  0  0  0  0  0  0  0  0
   -2.6120    5.4805    1.3263 H   0  0  0  0  0  0  0  0  0  0  0  0
   -2.0415    3.3219   -2.1775 H   0  0  0  0  0  0  0  0  0  0  0  0
   -4.2884    1.9718   -2.6324 H   0  0  0  0  0  0  0  0  0  0  0  0
   -5.3650    0.7268   -4.5168 H   0  0  0  0  0  0  0  0  0  0  0  0
   -4.5857   -1.6063   -5.0161 H   0  0  0  0  0  0  0  0  0  0  0  0
   -2.8048   -2.6575   -3.6811 H   0  0  0  0  0  0  0  0  0  0  0  0
    3.8756   -4.5713    1.1463 H   0  0  0  0  0  0  0  0  0  0  0  0
    6.2099   -4.0885    1.4426 H   0  0  0  0  0  0  0  0  0  0  0  0
    8.9637    0.4358   -0.5885 H   0  0  0  0  0  0  0  0  0  0  0  0
    7.1454    2.1805   -0.3254 H   0  0  0  0  0  0  0  0  0  0  0  0
    8.8667    2.6366   -0.0934 H   0  0  0  0  0  0  0  0  0  0  0  0
    6.5950    2.2679    1.9467 H   0  0  0  0  0  0  0  0  0  0  0  0
    7.5705    3.7178    1.6180 H   0  0  0  0  0  0  0  0  0  0  0  0
   10.0410    3.2066    1.5416 H   0  0  0  0  0  0  0  0  0  0  0  0
   10.5713    2.4305    3.1000 H   0  0  0  0  0  0  0  0  0  0  0  0
    9.6980    3.9797    3.1576 H   0  0  0  0  0  0  0  0  0  0  0  0
    9.5563    0.6767    3.5821 H   0  0  0  0  0  0  0  0  0  0  0  0
    7.8747    0.3250    3.0647 H   0  0  0  0  0  0  0  0  0  0  0  0
   10.2962    0.9143    1.2683 H   0  0  0  0  0  0  0  0  0  0  0  0
    9.6112   -0.7211    1.6255 H   0  0  0  0  0  0  0  0  0  0  0  0
    8.1882   -2.1111    1.2008 H   0  0  0  0  0  0  0  0  0  0  0  0
    3.2191   -0.5813   -0.2116 H   0  0  0  0  0  0  0  0  0  0  0  0
  1  2  1  0
  2  3  1  0
  3  4  1  0
  4  5  1  0
  5  6  1  0
  4  7  1  0
  7  8  1  0
  7  9  1  0
  9 10  1  0
 10 11  1  0
 11 12  2  0
 12 13  1  0
 13 14  1  0
 14 15  1  0
 15 16  1  0
 16 17  2  0
 17 18  1  0
 18 19  2  0
 19 20  1  0
 20 21  1  0
 21 22  1  0
 22 23  1  0
 23 24  1  0
 19 25  1  0
 25 26  2  0
 14 27  2  0
 27 28  1  0
 28 29  2  0
 29 30  1  0
 12 31  1  0
 31 32  2  0
 32 33  1  0
 33 34  2  0
 34 35  1  0
 35 36  2  0
  9 37  1  0
  1 38  1  0
 38 39  2  0
 39 40  1  0
 40 41  1  0
 41 42  2  0
 42 43  1  0
 43 44  1  0
 44 45  1  0
 45 46  1  0
 46 47  1  0
 47 48  1  0
 47 49  1  0
 49 50  1  0
 43 51  1  0
 41 52  1  0
 52  1  2  0
 37  3  1  0
 51 40  2  0
 36 10  1  0
 50 44  1  0
 30 13  2  0
 36 31  1  0
 26 16  1  0
 24 21  1  0
  2 53  1  0
  3 54  1  1
  4 55  1  1
  6 56  1  0
  6 57  1  0
  6 58  1  0
  7 59  1  6
  8 60  1  0
  9 61  1  0
 17 62  1  0
 18 63  1  0
 20 64  1  0
 21 65  1  0
 22 66  1  0
 22 67  1  0
 23 68  1  0
 23 69  1  0
 24 70  1  0
 24 71  1  0
 25 72  1  0
 26 73  1  0
 27 74  1  0
 28 75  1  0
 30 76  1  0
 32 77  1  0
 33 78  1  0
 34 79  1  0
 35 80  1  0
 38 81  1  0
 39 82  1  0
 44 83  1  0
 45 84  1  0
 45 85  1  0
 46 86  1  0
 46 87  1  0
 48 88  1  0
 48 89  1  0
 48 90  1  0
 49 91  1  0
 49 92  1  0
 50 93  1  0
 50 94  1  0
 51 95  1  0
 52 96  1  0
M  END
$$$$
[H]OC(=O)C([H])([H])C([H])([H])[C@@]([H])(C(=O)N([H])[C@]([H])(C(=O)N([H])[C@]([H])(C(=O)N([H])[C@]([H])(C(=O)O[H])C([H])([H])C(=O)O[H])C([H])([H])C([H])(C([H])([H])[H])C([H])([H])[H])C([H])([H])C([H])([H])C(=O)O[H])N([H])C(=O)[C@@]([H])(N([H])[H])C([H])(C([H])([H])[H])C([H])([H])[H]
     RDKit          3D

 83 82  0  0  0  0  0  0  0  0999 V2000
   -2.8203    2.1562    2.0107 C   0  0  0  0  0  0  0  0  0  0  0  0
   -2.3687    0.7632    2.2429 C   0  0  0  0  0  0  0  0  0  0  0  0
   -2.5519    0.4950    3.7522 C   0  0  0  0  0  0  0  0  0  0  0  0
   -3.0673   -0.3270    1.5616 C   0  0  0  0  0  0  0  0  0  0  0  0
   -3.1140   -0.3811    0.0683 C   0  0  2  0  0  0  0  0  0  0  0  0
   -1.8567   -0.4295   -0.5790 N   0  0  0  0  0  0  0  0  0  0  0  0
   -0.8752   -1.4261   -0.6129 C   0  0  0  0  0  0  0  0  0  0  0  0
   -1.0980   -2.4602    0.0433 O   0  0  0  0  0  0  0  0  0  0  0  0
    0.3891   -1.3221   -1.3664 C   0  0  2  0  0  0  0  0  0  0  0  0
    0.4634   -2.2202   -2.5774 C   0  0  0  0  0  0  0  0  0  0  0  0
    0.3490   -3.6751   -2.2636 C   0  0  0  0  0  0  0  0  0  0  0  0
    0.4222   -4.4591   -3.5477 C   0  0  0  0  0  0  0  0  0  0  0  0
    0.4550   -5.8365   -3.4362 O   0  0  0  0  0  0  0  0  0  0  0  0
    0.4553   -3.9207   -4.6686 O   0  0  0  0  0  0  0  0  0  0  0  0
    1.5055   -1.7802   -0.5062 N   0  0  0  0  0  0  0  0  0  0  0  0
    2.6316   -0.9742   -0.3742 C   0  0  0  0  0  0  0  0  0  0  0  0
    2.6250    0.1489   -1.0395 O   0  0  0  0  0  0  0  0  0  0  0  0
    3.8093   -1.2565    0.4385 C   0  0  2  0  0  0  0  0  0  0  0  0
    3.8213   -2.4885    1.2359 C   0  0  0  0  0  0  0  0  0  0  0  0
    3.8229   -3.7556    0.4191 C   0  0  0  0  0  0  0  0  0  0  0  0
    3.7441   -4.9573    1.2973 C   0  0  0  0  0  0  0  0  0  0  0  0
    3.8015   -6.2161    0.6900 O   0  0  0  0  0  0  0  0  0  0  0  0
    3.6326   -4.7867    2.5285 O   0  0  0  0  0  0  0  0  0  0  0  0
    4.2791   -0.0455    1.1208 N   0  0  0  0  0  0  0  0  0  0  0  0
    5.3362    0.7340    0.6175 C   0  0  0  0  0  0  0  0  0  0  0  0
    5.8758    0.3290   -0.4671 O   0  0  0  0  0  0  0  0  0  0  0  0
    5.8913    1.9630    1.1891 C   0  0  1  0  0  0  0  0  0  0  0  0
    6.9462    2.5455    0.4093 N   0  0  0  0  0  0  0  0  0  0  0  0
    4.7914    3.0072    1.3753 C   0  0  0  0  0  0  0  0  0  0  0  0
    4.1159    3.3478    0.0878 C   0  0  0  0  0  0  0  0  0  0  0  0
    5.4549    4.2521    1.9223 C   0  0  0  0  0  0  0  0  0  0  0  0
   -4.0103    0.5824   -0.5718 C   0  0  0  0  0  0  0  0  0  0  0  0
   -3.4920    1.2447   -1.5575 O   0  0  0  0  0  0  0  0  0  0  0  0
   -5.3220    0.8805   -0.2690 N   0  0  0  0  0  0  0  0  0  0  0  0
   -6.0388    1.9151   -1.0376 C   0  0  1  0  0  0  0  0  0  0  0  0
   -7.1988    1.3332   -1.7650 C   0  0  0  0  0  0  0  0  0  0  0  0
   -7.8968    2.3166   -2.5754 C   0  0  0  0  0  0  0  0  0  0  0  0
   -9.0561    1.9528   -3.2669 O   0  0  0  0  0  0  0  0  0  0  0  0
   -7.5157    3.4864   -2.6949 O   0  0  0  0  0  0  0  0  0  0  0  0
   -6.5402    2.9154   -0.0312 C   0  0  0  0  0  0  0  0  0  0  0  0
   -6.4701    4.2482   -0.3135 O   0  0  0  0  0  0  0  0  0  0  0  0
   -7.0137    2.5233    1.0614 O   0  0  0  0  0  0  0  0  0  0  0  0
   -2.5152    2.5555    1.0244 H   0  0  0  0  0  0  0  0  0  0  0  0
   -2.3238    2.7961    2.7749 H   0  0  0  0  0  0  0  0  0  0  0  0
   -3.9138    2.2353    2.1499 H   0  0  0  0  0  0  0  0  0  0  0  0
   -1.2338    0.6928    2.1588 H   0  0  0  0  0  0  0  0  0  0  0  0
   -1.7037    0.9391    4.3376 H   0  0  0  0  0  0  0  0  0  0  0  0
   -3.4722    0.9371    4.1398 H   0  0  0  0  0  0  0  0  0  0  0  0
   -2.5445   -0.6266    3.8847 H   0  0  0  0  0  0  0  0  0  0  0  0
   -2.6933   -1.2951    1.9589 H   0  0  0  0  0  0  0  0  0  0  0  0
   -4.1460   -0.3114    1.9093 H   0  0  0  0  0  0  0  0  0  0  0  0
   -3.5670   -1.4072   -0.1193 H   0  0  0  0  0  0  0  0  0  0  0  0
   -1.6043    0.4451   -1.1484 H   0  0  0  0  0  0  0  0  0  0  0  0
    0.6287   -0.2774   -1.6948 H   0  0  0  0  0  0  0  0  0  0  0  0
    1.4707   -2.0516   -3.0117 H   0  0  0  0  0  0  0  0  0  0  0  0
   -0.2619   -1.9674   -3.3700 H   0  0  0  0  0  0  0  0  0  0  0  0
   -0.6265   -3.9702   -1.8159 H   0  0  0  0  0  0  0  0  0  0  0  0
    1.2009   -4.0140   -1.6442 H   0  0  0  0  0  0  0  0  0  0  0  0
   -0.1373   -6.2748   -2.7279 H   0  0  0  0  0  0  0  0  0  0  0  0
    1.3759   -2.6662   -0.0305 H   0  0  0  0  0  0  0  0  0  0  0  0
    4.6252   -1.4349   -0.4197 H   0  0  0  0  0  0  0  0  0  0  0  0
    4.6561   -2.5014    1.9892 H   0  0  0  0  0  0  0  0  0  0  0  0
    2.9015   -2.5873    1.9043 H   0  0  0  0  0  0  0  0  0  0  0  0
    4.9094   -3.8013   -0.0021 H   0  0  0  0  0  0  0  0  0  0  0  0
    3.2247   -3.7809   -0.4723 H   0  0  0  0  0  0  0  0  0  0  0  0
    4.6836   -6.5554    0.3022 H   0  0  0  0  0  0  0  0  0  0  0  0
    3.8063    0.2195    1.9953 H   0  0  0  0  0  0  0  0  0  0  0  0
    6.2957    1.8047    2.2359 H   0  0  0  0  0  0  0  0  0  0  0  0
    6.7189    2.5317   -0.6115 H   0  0  0  0  0  0  0  0  0  0  0  0
    7.8542    2.1017    0.6520 H   0  0  0  0  0  0  0  0  0  0  0  0
    4.1214    2.6000    2.1446 H   0  0  0  0  0  0  0  0  0  0  0  0
    4.0425    4.4362   -0.0827 H   0  0  0  0  0  0  0  0  0  0  0  0
    4.6461    2.9040   -0.7811 H   0  0  0  0  0  0  0  0  0  0  0  0
    3.0542    2.9597    0.1289 H   0  0  0  0  0  0  0  0  0  0  0  0
    4.7922    4.7855    2.6247 H   0  0  0  0  0  0  0  0  0  0  0  0
    6.4564    4.0308    2.2930 H   0  0  0  0  0  0  0  0  0  0  0  0
    5.6041    4.9708    1.0600 H   0  0  0  0  0  0  0  0  0  0  0  0
   -5.8412    0.4057    0.4849 H   0  0  0  0  0  0  0  0  0  0  0  0
   -5.3306    2.3587   -1.7346 H   0  0  0  0  0  0  0  0  0  0  0  0
   -6.9255    0.4869   -2.4358 H   0  0  0  0  0  0  0  0  0  0  0  0
   -7.9078    0.8385   -1.0193 H   0  0  0  0  0  0  0  0  0  0  0  0
   -9.9564    2.1257   -2.8578 H   0  0  0  0  0  0  0  0  0  0  0  0
   -6.6760    4.9397    0.3750 H   0  0  0  0  0  0  0  0  0  0  0  0
  1  2  1  0
  2  3  1  0
  2  4  1  0
  4  5  1  0
  5  6  1  0
  6  7  1  0
  7  8  2  0
  7  9  1  0
  9 10  1  0
 10 11  1  0
 11 12  1  0
 12 13  1  0
 12 14  2  0
  9 15  1  0
 15 16  1  0
 16 17  2  0
 16 18  1  0
 18 19  1  0
 19 20  1  0
 20 21  1  0
 21 22  1  0
 21 23  2  0
 18 24  1  0
 24 25  1  0
 25 26  2  0
 25 27  1  0
 27 28  1  0
 27 29  1  0
 29 30  1  0
 29 31  1  0
  5 32  1  0
 32 33  2  0
 32 34  1  0
 34 35  1  0
 35 36  1  0
 36 37  1  0
 37 38  1  0
 37 39  2  0
 35 40  1  0
 40 41  1  0
 40 42  2  0
  1 43  1  0
  1 44  1  0
  1 45  1  0
  2 46  1  0
  3 47  1  0
  3 48  1  0
  3 49  1  0
  4 50  1  0
  4 51  1  0
  5 52  1  1
  6 53  1  0
  9 54  1  6
 10 55  1  0
 10 56  1  0
 11 57  1  0
 11 58  1  0
 13 59  1  0
 15 60  1  0
 18 61  1  6
 19 62  1  0
 19 63  1  0
 20 64  1  0
 20 65  1  0
 22 66  1  0
 24 67  1  0
 27 68  1  1
 28 69  1  0
 28 70  1  0
 29 71  1  0
 30 72  1  0
 30 73  1  0
 30 74  1  0
 31 75  1  0
 31 76  1  0
 31 77  1  0
 34 78  1  0
 35 79  1  6
 36 80  1  0
 36 81  1  0
 38 82  1  0
 41 83  1  0
M  END
$$$$
[H]O[C@@]1([H])C([H])([H])C([H])([H])[C@]2([H])[C@]([H])(C([H])([H])[C@]([H])(O[H])[C@]3([H])[C@@]2([H])C([H])([H])C([H])([H])C2=C([H])C(=O)C([H])=C([H])[C@@]23C([H])([H])[H])[C@]1([H])C([H])([H])[H]
     RDKit          3D

 51 54  0  0  0  0  0  0  0  0999 V2000
    3.2530    1.2060    1.6652 C   0  0  0  0  0  0  0  0  0  0  0  0
    3.0626   -0.2143    1.1943 C   0  0  2  0  0  0  0  0  0  0  0  0
    3.9805   -0.4833    0.0431 C   0  0  1  0  0  0  0  0  0  0  0  0
    4.2527   -1.8717    0.0572 O   0  0  0  0  0  0  0  0  0  0  0  0
    3.5157   -0.0270   -1.2801 C   0  0  0  0  0  0  0  0  0  0  0  0
    2.0611    0.0493   -1.5067 C   0  0  0  0  0  0  0  0  0  0  0  0
    1.3094    0.5079   -0.2794 C   0  0  1  0  0  0  0  0  0  0  0  0
   -0.1672    0.5887   -0.5241 C   0  0  2  0  0  0  0  0  0  0  0  0
   -0.6844    1.8967    0.0023 C   0  0  0  0  0  0  0  0  0  0  0  0
   -2.0596    2.0997   -0.6073 C   0  0  0  0  0  0  0  0  0  0  0  0
   -2.8456    0.8958   -0.1400 C   0  0  0  0  0  0  0  0  0  0  0  0
   -3.9631    1.1644    0.4717 C   0  0  0  0  0  0  0  0  0  0  0  0
   -4.8382    0.1233    0.9886 C   0  0  0  0  0  0  0  0  0  0  0  0
   -5.9063    0.4259    1.5708 O   0  0  0  0  0  0  0  0  0  0  0  0
   -4.3738   -1.2392    0.7734 C   0  0  0  0  0  0  0  0  0  0  0  0
   -3.2461   -1.4880    0.1537 C   0  0  0  0  0  0  0  0  0  0  0  0
   -2.3756   -0.4537   -0.3670 C   0  0  1  0  0  0  0  0  0  0  0  0
   -2.4349   -0.6438   -1.9158 C   0  0  0  0  0  0  0  0  0  0  0  0
   -0.9049   -0.6247   -0.0007 C   0  0  2  0  0  0  0  0  0  0  0  0
   -0.6645   -0.9266    1.4339 C   0  0  1  0  0  0  0  0  0  0  0  0
   -0.7314   -2.2987    1.6804 O   0  0  0  0  0  0  0  0  0  0  0  0
    0.6760   -0.4605    1.9411 C   0  0  0  0  0  0  0  0  0  0  0  0
    1.6495   -0.5012    0.7980 C   0  0  2  0  0  0  0  0  0  0  0  0
    2.3326    1.6956    1.9926 H   0  0  0  0  0  0  0  0  0  0  0  0
    3.7310    1.8092    0.8627 H   0  0  0  0  0  0  0  0  0  0  0  0
    3.9730    1.2338    2.5264 H   0  0  0  0  0  0  0  0  0  0  0  0
    3.3429   -0.8806    2.0442 H   0  0  0  0  0  0  0  0  0  0  0  0
    4.9544    0.0012    0.2705 H   0  0  0  0  0  0  0  0  0  0  0  0
    4.4930   -2.0623    1.0173 H   0  0  0  0  0  0  0  0  0  0  0  0
    3.9663    0.9736   -1.5464 H   0  0  0  0  0  0  0  0  0  0  0  0
    3.9518   -0.7239   -2.0563 H   0  0  0  0  0  0  0  0  0  0  0  0
    1.8553    0.7410   -2.3655 H   0  0  0  0  0  0  0  0  0  0  0  0
    1.6469   -0.9429   -1.7827 H   0  0  0  0  0  0  0  0  0  0  0  0
    1.7023    1.5096   -0.0116 H   0  0  0  0  0  0  0  0  0  0  0  0
   -0.3101    0.5961   -1.6260 H   0  0  0  0  0  0  0  0  0  0  0  0
   -0.0195    2.6890   -0.3550 H   0  0  0  0  0  0  0  0  0  0  0  0
   -0.8260    1.9153    1.0979 H   0  0  0  0  0  0  0  0  0  0  0  0
   -2.4962    3.0051   -0.1939 H   0  0  0  0  0  0  0  0  0  0  0  0
   -2.0521    2.1438   -1.6986 H   0  0  0  0  0  0  0  0  0  0  0  0
   -4.3166    2.1985    0.6365 H   0  0  0  0  0  0  0  0  0  0  0  0
   -5.0249   -2.0266    1.1608 H   0  0  0  0  0  0  0  0  0  0  0  0
   -3.0118   -2.5649    0.0603 H   0  0  0  0  0  0  0  0  0  0  0  0
   -3.4483   -0.9882   -2.2050 H   0  0  0  0  0  0  0  0  0  0  0  0
   -2.1478    0.2671   -2.4318 H   0  0  0  0  0  0  0  0  0  0  0  0
   -1.6970   -1.4517   -2.1326 H   0  0  0  0  0  0  0  0  0  0  0  0
   -0.5355   -1.4831   -0.5962 H   0  0  0  0  0  0  0  0  0  0  0  0
   -1.4328   -0.4378    2.1009 H   0  0  0  0  0  0  0  0  0  0  0  0
   -0.4714   -2.7705    0.8378 H   0  0  0  0  0  0  0  0  0  0  0  0
    0.5966    0.5201    2.4311 H   0  0  0  0  0  0  0  0  0  0  0  0
    1.0596   -1.1632    2.7168 H   0  0  0  0  0  0  0  0  0  0  0  0
    1.6196   -1.5284    0.3783 H   0  0  0  0  0  0  0  0  0  0  0  0
  1  2  1  0
  2  3  1  0
  3  4  1  0
  3  5  1  0
  5  6  1  0
  6  7  1  0
  7  8  1  0
  8  9  1  0
  9 10  1  0
 10 11  1  0
 11 12  2  0
 12 13  1  0
 13 14  2  0
 13 15  1  0
 15 16  2  0
 16 17  1  0
 17 18  1  6
 17 19  1  0
 19 20  1  0
 20 21  1  0
 20 22  1  0
 22 23  1  0
 23  2  1  0
 23  7  1  0
 19  8  1  0
 17 11  1  0
  1 24  1  0
  1 25  1  0
  1 26  1  0
  2 27  1  1
  3 28  1  1
  4 29  1  0
  5 30  1  0
  5 31  1  0
  6 32  1  0
  6 33  1  0
  7 34  1  1
  8 35  1  6
  9 36  1  0
  9 37  1  0
 10 38  1  0
 10 39  1  0
 12 40  1  0
 15 41  1  0
 16 42  1  0
 18 43  1  0
 18 44  1  0
 18 45  1  0
 19 46  1  6
 20 47  1  1
 21 48  1  0
 22 49  1  0
 22 50  1  0
 23 51  1  6
M  END
$$$$
[H]c1nnc2c(c1-c1c([H])c([H])c(C#N)c(C([H])([H])[H])c1[H])n(Br)c(=O)n2[H]
     RDKit          3D

 28 30  0  0  0  0  0  0  0  0999 V2000
   -3.7529   -0.7522   -0.4186 C   0  0  0  0  0  0  0  0  0  0  0  0
   -2.5295    0.0298   -0.1135 C   0  0  0  0  0  0  0  0  0  0  0  0
   -1.2984   -0.3991   -0.5593 C   0  0  0  0  0  0  0  0  0  0  0  0
   -0.1609    0.3303   -0.2741 C   0  0  0  0  0  0  0  0  0  0  0  0
   -0.2887    1.4849    0.4605 C   0  0  0  0  0  0  0  0  0  0  0  0
   -1.5375    1.8980    0.8988 C   0  0  0  0  0  0  0  0  0  0  0  0
   -2.6836    1.1839    0.6240 C   0  0  0  0  0  0  0  0  0  0  0  0
   -3.9844    1.6301    1.0904 C   0  0  0  0  0  0  0  0  0  0  0  0
   -5.0200    2.0022    1.4526 N   0  0  0  0  0  0  0  0  0  0  0  0
    1.1468   -0.0522   -0.8011 C   0  0  0  0  0  0  0  0  0  0  0  0
    1.3814    0.0701   -2.1817 C   0  0  0  0  0  0  0  0  0  0  0  0
    2.5687   -0.2137   -2.6929 N   0  0  0  0  0  0  0  0  0  0  0  0
    3.5952   -0.6227   -1.9633 N   0  0  0  0  0  0  0  0  0  0  0  0
    3.4346   -0.7616   -0.6333 C   0  0  0  0  0  0  0  0  0  0  0  0
    4.3075   -1.1707    0.3038 N   0  0  0  0  0  0  0  0  0  0  0  0
    3.6421   -1.1472    1.4646 C   0  0  0  0  0  0  0  0  0  0  0  0
    4.1068   -1.4611    2.5871 O   0  0  0  0  0  0  0  0  0  0  0  0
    2.3671   -0.7267    1.2487 N   0  0  0  0  0  0  0  0  0  0  0  0
    1.0567   -0.5843    2.6313 Br  0  0  0  0  0  0  0  0  0  0  0  0
    2.2100   -0.4779   -0.0449 C   0  0  0  0  0  0  0  0  0  0  0  0
   -4.2741   -1.0274    0.5326 H   0  0  0  0  0  0  0  0  0  0  0  0
   -3.5324   -1.6773   -0.9722 H   0  0  0  0  0  0  0  0  0  0  0  0
   -4.4343   -0.1011   -1.0118 H   0  0  0  0  0  0  0  0  0  0  0  0
   -1.1645   -1.3066   -1.1410 H   0  0  0  0  0  0  0  0  0  0  0  0
    0.5852    2.1022    0.7157 H   0  0  0  0  0  0  0  0  0  0  0  0
   -1.6506    2.8070    1.4784 H   0  0  0  0  0  0  0  0  0  0  0  0
    0.5870    0.3970   -2.8226 H   0  0  0  0  0  0  0  0  0  0  0  0
    5.3225   -1.4538    0.1416 H   0  0  0  0  0  0  0  0  0  0  0  0
  1  2  1  0
  2  3  2  0
  3  4  1  0
  4  5  2  0
  5  6  1  0
  6  7  2  0
  7  8  1  0
  8  9  3  0
  4 10  1  0
 10 11  2  0
 11 12  1  0
 12 13  2  0
 13 14  1  0
 14 15  1  0
 15 16  1  0
 16 17  2  0
 16 18  1  0
 18 19  1  0
 18 20  1  0
  7  2  1  0
 20 10  1  0
 20 14  2  0
  1 21  1  0
  1 22  1  0
  1 23  1  0
  3 24  1  0
  5 25  1  0
  6 26  1  0
 11 27  1  0
 15 28  1  0
M  END
$$$$
[H]c1nc(-c2c([H])c([H])c(N3C([H])([H])C([H])([H])O[C@@]([H])(N(C([H])([H])[H])C([H])([H])[H])C3([H])[H])c([H])c2[H])c([H])c([H])c1N([H])C1([H])C([H])([H])OC([H])([H])C1([H])[H]
     RDKit          3D

 55 58  0  0  0  0  0  0  0  0999 V2000
   -8.9803    0.3763   -0.7379 C   0  0  0  0  0  0  0  0  0  0  0  0
   -8.2440    0.4794    0.5667 C   0  0  0  0  0  0  0  0  0  0  0  0
   -6.8989   -0.1368    0.2679 C   0  0  0  0  0  0  0  0  0  0  0  0
   -7.0898   -0.7320   -1.0925 C   0  0  0  0  0  0  0  0  0  0  0  0
   -8.4697   -0.7552   -1.3176 O   0  0  0  0  0  0  0  0  0  0  0  0
   -5.9330    0.9675    0.2875 N   0  0  0  0  0  0  0  0  0  0  0  0
   -4.5331    0.7436    0.2690 C   0  0  0  0  0  0  0  0  0  0  0  0
   -3.6737    1.7867    0.5363 C   0  0  0  0  0  0  0  0  0  0  0  0
   -2.2977    1.6679    0.5903 C   0  0  0  0  0  0  0  0  0  0  0  0
   -1.8074    0.3923    0.3465 C   0  0  0  0  0  0  0  0  0  0  0  0
   -2.6304   -0.6129    0.0877 N   0  0  0  0  0  0  0  0  0  0  0  0
   -3.9948   -0.4987    0.0333 C   0  0  0  0  0  0  0  0  0  0  0  0
   -0.3753    0.1414    0.4285 C   0  0  0  0  0  0  0  0  0  0  0  0
    0.5629    1.1105    0.6833 C   0  0  0  0  0  0  0  0  0  0  0  0
    1.9285    0.8323    0.8001 C   0  0  0  0  0  0  0  0  0  0  0  0
    2.3695   -0.4604    0.6563 C   0  0  0  0  0  0  0  0  0  0  0  0
    1.4525   -1.4547    0.3970 C   0  0  0  0  0  0  0  0  0  0  0  0
    0.1243   -1.1465    0.2887 C   0  0  0  0  0  0  0  0  0  0  0  0
    3.7639   -0.7677    0.7849 N   0  0  0  0  0  0  0  0  0  0  0  0
    4.2385   -2.1231    1.0030 C   0  0  0  0  0  0  0  0  0  0  0  0
    5.2146   -2.4770   -0.0699 C   0  0  0  0  0  0  0  0  0  0  0  0
    5.6247   -1.4252   -0.8333 O   0  0  0  0  0  0  0  0  0  0  0  0
    5.9285   -0.2718   -0.1254 C   0  0  2  0  0  0  0  0  0  0  0  0
    4.7716    0.2510    0.7076 C   0  0  0  0  0  0  0  0  0  0  0  0
    6.2174    0.7567   -1.0957 N   0  0  0  0  0  0  0  0  0  0  0  0
    6.5751    0.1596   -2.3426 C   0  0  0  0  0  0  0  0  0  0  0  0
    7.1668    1.7326   -0.6826 C   0  0  0  0  0  0  0  0  0  0  0  0
  -10.0768    0.2498   -0.5809 H   0  0  0  0  0  0  0  0  0  0  0  0
   -8.7606    1.2420   -1.4202 H   0  0  0  0  0  0  0  0  0  0  0  0
   -8.1528    1.5357    0.9191 H   0  0  0  0  0  0  0  0  0  0  0  0
   -8.8095   -0.1292    1.3142 H   0  0  0  0  0  0  0  0  0  0  0  0
   -6.6159   -0.8990    1.0402 H   0  0  0  0  0  0  0  0  0  0  0  0
   -6.6628   -0.1328   -1.9265 H   0  0  0  0  0  0  0  0  0  0  0  0
   -6.7583   -1.7892   -1.1188 H   0  0  0  0  0  0  0  0  0  0  0  0
   -6.2640    1.9721    0.3114 H   0  0  0  0  0  0  0  0  0  0  0  0
   -4.1143    2.7668    0.7172 H   0  0  0  0  0  0  0  0  0  0  0  0
   -1.6698    2.5077    0.8048 H   0  0  0  0  0  0  0  0  0  0  0  0
   -4.6363   -1.3203   -0.1772 H   0  0  0  0  0  0  0  0  0  0  0  0
    0.2557    2.1441    0.8027 H   0  0  0  0  0  0  0  0  0  0  0  0
    2.6076    1.6614    1.0131 H   0  0  0  0  0  0  0  0  0  0  0  0
    1.7118   -2.4881    0.2681 H   0  0  0  0  0  0  0  0  0  0  0  0
   -0.6133   -1.9202    0.0836 H   0  0  0  0  0  0  0  0  0  0  0  0
    3.4335   -2.8406    1.1322 H   0  0  0  0  0  0  0  0  0  0  0  0
    4.8129   -2.1502    1.9791 H   0  0  0  0  0  0  0  0  0  0  0  0
    4.6880   -3.1969   -0.7598 H   0  0  0  0  0  0  0  0  0  0  0  0
    6.0670   -3.0992    0.3340 H   0  0  0  0  0  0  0  0  0  0  0  0
    6.8110   -0.3804    0.5113 H   0  0  0  0  0  0  0  0  0  0  0  0
    5.1268    0.4554    1.7642 H   0  0  0  0  0  0  0  0  0  0  0  0
    4.3613    1.1772    0.3180 H   0  0  0  0  0  0  0  0  0  0  0  0
    7.4852   -0.4586   -2.2053 H   0  0  0  0  0  0  0  0  0  0  0  0
    6.7156    0.9310   -3.1381 H   0  0  0  0  0  0  0  0  0  0  0  0
    5.7761   -0.5487   -2.6761 H   0  0  0  0  0  0  0  0  0  0  0  0
    7.2858    2.4608   -1.5265 H   0  0  0  0  0  0  0  0  0  0  0  0
    6.8063    2.3647    0.1648 H   0  0  0  0  0  0  0  0  0  0  0  0
    8.1793    1.3485   -0.4911 H   0  0  0  0  0  0  0  0  0  0  0  0
  1  2  1  0
  2  3  1  0
  3  4  1  0
  4  5  1  0
  3  6  1  0
  6  7  1  0
  7  8  2  0
  8  9  1  0
  9 10  2  0
 10 11  1  0
 11 12  2  0
 10 13  1  0
 13 14  2  0
 14 15  1  0
 15 16  2  0
 16 17  1  0
 17 18  2  0
 16 19  1  0
 19 20  1  0
 20 21  1  0
 21 22  1  0
 22 23  1  0
 23 24  1  0
 23 25  1  0
 25 26  1  0
 25 27  1  0
  5  1  1  0
 12  7  1  0
 18 13  1  0
 24 19  1  0
  1 28  1  0
  1 29  1  0
  2 30  1  0
  2 31  1  0
  3 32  1  0
  4 33  1  0
  4 34  1  0
  6 35  1  0
  8 36  1  0
  9 37  1  0
 12 38  1  0
 14 39  1  0
 15 40  1  0
 17 41  1  0
 18 42  1  0
 20 43  1  0
 20 44  1  0
 21 45  1  0
 21 46  1  0
 23 47  1  1
 24 48  1  0
 24 49  1  0
 26 50  1  0
 26 51  1  0
 26 52  1  0
 27 53  1  0
 27 54  1  0
 27 55  1  0
M  END
$$$$
[H]N=C(N([H])[H])N([H])C([H])([H])C([H])([H])C([H])([H])[C@@]([H])(C(=O)N([H])[C@]([H])(C(=O)N([H])[H])C([H])([H])c1c([H])n([H])c2c([H])c([H])c([H])c([H])c12)N([H])C(=O)[C@@]([H])(N([H])C(=O)[C@@]([H])(N([H])C(=O)[C@]([H])(N([H])C(=O)[C@@]([H])(N([H])[H])C([H])([H])c1c(C([H])([H])[H])c([H])c(O[H])c([H])c1C([H])([H])[H])C([H])([H])c1c([H])c([H])c([H])c([H])c1[H])C([H])([H])c1c([H])c([H])c([H])c([H])c1[H])C([H])([H])C([H])([H])C([H])([H])N([H])C(=N[H])N([H])[H]
     RDKit          3D

141145  0  0  0  0  0  0  0  0999 V2000
    7.4741   -4.6729    3.4993 C   0  0  0  0  0  0  0  0  0  0  0  0
    8.7270   -4.6467    2.6947 C   0  0  0  0  0  0  0  0  0  0  0  0
    9.7714   -5.5105    3.0781 C   0  0  0  0  0  0  0  0  0  0  0  0
   10.9451   -5.5947    2.3568 C   0  0  0  0  0  0  0  0  0  0  0  0
   11.9817   -6.4399    2.7249 O   0  0  0  0  0  0  0  0  0  0  0  0
   11.0361   -4.7874    1.2427 C   0  0  0  0  0  0  0  0  0  0  0  0
   10.0603   -3.9348    0.8249 C   0  0  0  0  0  0  0  0  0  0  0  0
   10.2092   -3.0985   -0.3976 C   0  0  0  0  0  0  0  0  0  0  0  0
    8.8609   -3.8669    1.5887 C   0  0  0  0  0  0  0  0  0  0  0  0
    7.8561   -2.9198    1.1242 C   0  0  0  0  0  0  0  0  0  0  0  0
    7.8110   -1.5650    1.7694 C   0  0  2  0  0  0  0  0  0  0  0  0
    7.5250   -1.5244    3.1474 N   0  0  0  0  0  0  0  0  0  0  0  0
    7.0730   -0.6596    0.8970 C   0  0  0  0  0  0  0  0  0  0  0  0
    7.3329   -0.7539   -0.3469 O   0  0  0  0  0  0  0  0  0  0  0  0
    6.1050    0.3207    1.2544 N   0  0  0  0  0  0  0  0  0  0  0  0
    5.4989    1.1271    0.2403 C   0  0  2  0  0  0  0  0  0  0  0  0
    6.0752    2.5390    0.4662 C   0  0  0  0  0  0  0  0  0  0  0  0
    7.5398    2.5651    0.3670 C   0  0  0  0  0  0  0  0  0  0  0  0
    8.2558    2.7900   -0.7853 C   0  0  0  0  0  0  0  0  0  0  0  0
    9.6442    2.7905   -0.8209 C   0  0  0  0  0  0  0  0  0  0  0  0
   10.3459    2.5576    0.3441 C   0  0  0  0  0  0  0  0  0  0  0  0
    9.6747    2.3282    1.5194 C   0  0  0  0  0  0  0  0  0  0  0  0
    8.2897    2.3347    1.5176 C   0  0  0  0  0  0  0  0  0  0  0  0
    3.9962    1.2749    0.3671 C   0  0  0  0  0  0  0  0  0  0  0  0
    3.5920    1.4675    1.5266 O   0  0  0  0  0  0  0  0  0  0  0  0
    3.1815    1.2014   -0.7412 N   0  0  0  0  0  0  0  0  0  0  0  0
    1.8284    1.3160   -1.0913 C   0  0  1  0  0  0  0  0  0  0  0  0
    1.2645    0.0345   -1.6173 C   0  0  0  0  0  0  0  0  0  0  0  0
    1.9329   -0.4930   -2.8279 C   0  0  0  0  0  0  0  0  0  0  0  0
    1.4914   -0.1524   -4.0840 C   0  0  0  0  0  0  0  0  0  0  0  0
    2.1141   -0.6505   -5.2225 C   0  0  0  0  0  0  0  0  0  0  0  0
    3.1959   -1.5025   -5.0625 C   0  0  0  0  0  0  0  0  0  0  0  0
    3.6583   -1.8609   -3.8031 C   0  0  0  0  0  0  0  0  0  0  0  0
    3.0225   -1.3529   -2.6964 C   0  0  0  0  0  0  0  0  0  0  0  0
    0.8714    1.9818   -0.1872 C   0  0  0  0  0  0  0  0  0  0  0  0
    1.1657    2.3675    0.9470 O   0  0  0  0  0  0  0  0  0  0  0  0
   -0.4484    2.2223   -0.6181 N   0  0  0  0  0  0  0  0  0  0  0  0
   -1.5336    2.8650   -0.0166 C   0  0  1  0  0  0  0  0  0  0  0  0
   -1.8636    4.2068   -0.6245 C   0  0  0  0  0  0  0  0  0  0  0  0
   -2.1542    4.1803   -2.0688 C   0  0  0  0  0  0  0  0  0  0  0  0
   -2.4434    5.5435   -2.6102 C   0  0  0  0  0  0  0  0  0  0  0  0
   -3.5557    6.2648   -2.1419 N   0  0  0  0  0  0  0  0  0  0  0  0
   -3.8212    6.8590   -0.8977 C   0  0  0  0  0  0  0  0  0  0  0  0
   -2.9493    7.6640   -0.1432 N   0  0  0  0  0  0  0  0  0  0  0  0
   -5.0126    6.6526   -0.3945 N   0  0  0  0  0  0  0  0  0  0  0  0
   -2.6289    2.1380    0.6308 C   0  0  0  0  0  0  0  0  0  0  0  0
   -2.3249    1.2387    1.4397 O   0  0  0  0  0  0  0  0  0  0  0  0
   -3.9825    2.4106    0.3837 N   0  0  0  0  0  0  0  0  0  0  0  0
   -5.1911    1.8628    0.9486 C   0  0  1  0  0  0  0  0  0  0  0  0
   -6.3293    2.7975    0.8567 C   0  0  0  0  0  0  0  0  0  0  0  0
   -7.6349    2.4444    1.4622 C   0  0  0  0  0  0  0  0  0  0  0  0
   -8.5708    3.6281    1.1667 C   0  0  0  0  0  0  0  0  0  0  0  0
   -9.8853    3.4309    1.6809 N   0  0  0  0  0  0  0  0  0  0  0  0
  -10.7052    2.4279    1.0897 C   0  0  0  0  0  0  0  0  0  0  0  0
  -10.3605    1.8612   -0.1764 N   0  0  0  0  0  0  0  0  0  0  0  0
  -11.7588    2.0258    1.6892 N   0  0  0  0  0  0  0  0  0  0  0  0
   -5.4206    0.4321    0.7890 C   0  0  0  0  0  0  0  0  0  0  0  0
   -4.4517   -0.3513    1.1820 O   0  0  0  0  0  0  0  0  0  0  0  0
   -6.5112   -0.2760    0.2825 N   0  0  0  0  0  0  0  0  0  0  0  0
   -6.5344   -1.7648    0.3161 C   0  0  1  0  0  0  0  0  0  0  0  0
   -7.9264   -2.1925    0.5253 C   0  0  0  0  0  0  0  0  0  0  0  0
   -8.2179   -3.6126    0.6410 C   0  0  0  0  0  0  0  0  0  0  0  0
   -8.2706   -4.3448    1.8478 C   0  0  0  0  0  0  0  0  0  0  0  0
   -8.5379   -5.6226    1.5894 N   0  0  0  0  0  0  0  0  0  0  0  0
   -8.6633   -5.7627    0.2819 C   0  0  0  0  0  0  0  0  0  0  0  0
   -8.9520   -6.8737   -0.4795 C   0  0  0  0  0  0  0  0  0  0  0  0
   -9.0597   -6.8076   -1.8470 C   0  0  0  0  0  0  0  0  0  0  0  0
   -8.8765   -5.5930   -2.5136 C   0  0  0  0  0  0  0  0  0  0  0  0
   -8.5902   -4.5091   -1.7328 C   0  0  0  0  0  0  0  0  0  0  0  0
   -8.4732   -4.5392   -0.3496 C   0  0  0  0  0  0  0  0  0  0  0  0
   -5.7984   -2.3649   -0.7781 C   0  0  0  0  0  0  0  0  0  0  0  0
   -5.2580   -3.6715   -0.7143 N   0  0  0  0  0  0  0  0  0  0  0  0
   -5.5886   -1.7275   -1.8757 O   0  0  0  0  0  0  0  0  0  0  0  0
    7.3285   -5.7787    3.7544 H   0  0  0  0  0  0  0  0  0  0  0  0
    6.5788   -4.3470    2.9734 H   0  0  0  0  0  0  0  0  0  0  0  0
    7.5438   -4.1865    4.4685 H   0  0  0  0  0  0  0  0  0  0  0  0
    9.6160   -6.0981    3.9539 H   0  0  0  0  0  0  0  0  0  0  0  0
   12.8239   -6.4536    2.1502 H   0  0  0  0  0  0  0  0  0  0  0  0
   11.9674   -4.8497    0.6556 H   0  0  0  0  0  0  0  0  0  0  0  0
   10.1528   -2.0410   -0.1238 H   0  0  0  0  0  0  0  0  0  0  0  0
    9.4939   -3.3772   -1.1952 H   0  0  0  0  0  0  0  0  0  0  0  0
   11.2248   -3.3175   -0.8087 H   0  0  0  0  0  0  0  0  0  0  0  0
    6.8091   -3.3651    1.1751 H   0  0  0  0  0  0  0  0  0  0  0  0
    7.9897   -2.7666    0.0110 H   0  0  0  0  0  0  0  0  0  0  0  0
    8.9253   -1.1988    1.6509 H   0  0  0  0  0  0  0  0  0  0  0  0
    6.8705   -0.8036    3.4778 H   0  0  0  0  0  0  0  0  0  0  0  0
    8.4048   -1.5545    3.7115 H   0  0  0  0  0  0  0  0  0  0  0  0
    5.8517    0.4374    2.2413 H   0  0  0  0  0  0  0  0  0  0  0  0
    5.7694    0.7850   -0.7666 H   0  0  0  0  0  0  0  0  0  0  0  0
    5.5736    3.1963   -0.2867 H   0  0  0  0  0  0  0  0  0  0  0  0
    5.7219    2.8769    1.4629 H   0  0  0  0  0  0  0  0  0  0  0  0
    7.7130    2.9814   -1.7064 H   0  0  0  0  0  0  0  0  0  0  0  0
   10.2044    2.9656   -1.7229 H   0  0  0  0  0  0  0  0  0  0  0  0
   11.4189    2.5548    0.3059 H   0  0  0  0  0  0  0  0  0  0  0  0
   10.2515    2.1433    2.4098 H   0  0  0  0  0  0  0  0  0  0  0  0
    7.7454    2.1511    2.4402 H   0  0  0  0  0  0  0  0  0  0  0  0
    3.7923    0.9669   -1.6551 H   0  0  0  0  0  0  0  0  0  0  0  0
    1.8699    2.1000   -1.9810 H   0  0  0  0  0  0  0  0  0  0  0  0
    1.3528   -0.7283   -0.7923 H   0  0  0  0  0  0  0  0  0  0  0  0
    0.1857    0.0739   -1.8541 H   0  0  0  0  0  0  0  0  0  0  0  0
    0.6464    0.5138   -4.1438 H   0  0  0  0  0  0  0  0  0  0  0  0
    1.7422   -0.3631   -6.1875 H   0  0  0  0  0  0  0  0  0  0  0  0
    3.6644   -1.8795   -5.9507 H   0  0  0  0  0  0  0  0  0  0  0  0
    4.5047   -2.5348   -3.7166 H   0  0  0  0  0  0  0  0  0  0  0  0
    3.3594   -1.6157   -1.6765 H   0  0  0  0  0  0  0  0  0  0  0  0
   -0.6589    1.8403   -1.6167 H   0  0  0  0  0  0  0  0  0  0  0  0
   -0.9818    3.2730    0.9930 H   0  0  0  0  0  0  0  0  0  0  0  0
   -2.7541    4.6513   -0.0877 H   0  0  0  0  0  0  0  0  0  0  0  0
   -1.0280    4.9018   -0.3998 H   0  0  0  0  0  0  0  0  0  0  0  0
   -3.0092    3.5200   -2.3829 H   0  0  0  0  0  0  0  0  0  0  0  0
   -1.2525    3.8399   -2.6752 H   0  0  0  0  0  0  0  0  0  0  0  0
   -2.3719    5.5144   -3.7348 H   0  0  0  0  0  0  0  0  0  0  0  0
   -1.5031    6.1512   -2.3504 H   0  0  0  0  0  0  0  0  0  0  0  0
   -4.3534    6.3960   -2.8631 H   0  0  0  0  0  0  0  0  0  0  0  0
   -3.0339    7.6561    0.9118 H   0  0  0  0  0  0  0  0  0  0  0  0
   -2.2028    8.2899   -0.5006 H   0  0  0  0  0  0  0  0  0  0  0  0
   -5.7167    6.0859   -0.8807 H   0  0  0  0  0  0  0  0  0  0  0  0
   -4.1185    3.1894   -0.3693 H   0  0  0  0  0  0  0  0  0  0  0  0
   -4.9112    1.8906    2.1080 H   0  0  0  0  0  0  0  0  0  0  0  0
   -6.0049    3.7536    1.3626 H   0  0  0  0  0  0  0  0  0  0  0  0
   -6.4811    3.0137   -0.2445 H   0  0  0  0  0  0  0  0  0  0  0  0
   -8.0978    1.5048    1.2776 H   0  0  0  0  0  0  0  0  0  0  0  0
   -7.5251    2.4926    2.6130 H   0  0  0  0  0  0  0  0  0  0  0  0
   -8.6345    3.7003    0.0573 H   0  0  0  0  0  0  0  0  0  0  0  0
   -8.0486    4.5258    1.5152 H   0  0  0  0  0  0  0  0  0  0  0  0
  -10.2151    4.0088    2.4642 H   0  0  0  0  0  0  0  0  0  0  0  0
   -9.9252    2.4262   -0.9162 H   0  0  0  0  0  0  0  0  0  0  0  0
  -10.5728    0.8433   -0.3207 H   0  0  0  0  0  0  0  0  0  0  0  0
  -12.0134    2.4375    2.6090 H   0  0  0  0  0  0  0  0  0  0  0  0
   -7.3225    0.1461   -0.1578 H   0  0  0  0  0  0  0  0  0  0  0  0
   -5.9301   -1.9880    1.2599 H   0  0  0  0  0  0  0  0  0  0  0  0
   -8.3700   -1.6487    1.4088 H   0  0  0  0  0  0  0  0  0  0  0  0
   -8.5347   -1.8254   -0.3903 H   0  0  0  0  0  0  0  0  0  0  0  0
   -8.1146   -3.8808    2.8194 H   0  0  0  0  0  0  0  0  0  0  0  0
   -8.6317   -6.3827    2.3304 H   0  0  0  0  0  0  0  0  0  0  0  0
   -9.1033   -7.8456   -0.0150 H   0  0  0  0  0  0  0  0  0  0  0  0
   -9.2834   -7.6891   -2.4167 H   0  0  0  0  0  0  0  0  0  0  0  0
   -8.9619   -5.5850   -3.5857 H   0  0  0  0  0  0  0  0  0  0  0  0
   -8.4398   -3.5401   -2.1957 H   0  0  0  0  0  0  0  0  0  0  0  0
   -5.0411   -4.1877   -1.5674 H   0  0  0  0  0  0  0  0  0  0  0  0
   -5.0719   -4.1189    0.2168 H   0  0  0  0  0  0  0  0  0  0  0  0
  1  2  1  0
  2  3  2  0
  3  4  1  0
  4  5  1  0
  4  6  2  0
  6  7  1  0
  7  8  1  0
  7  9  2  0
  9 10  1  0
 10 11  1  0
 11 12  1  0
 11 13  1  0
 13 14  2  0
 13 15  1  0
 15 16  1  0
 16 17  1  0
 17 18  1  0
 18 19  2  0
 19 20  1  0
 20 21  2  0
 21 22  1  0
 22 23  2  0
 16 24  1  0
 24 25  2  0
 24 26  1  0
 26 27  1  0
 27 28  1  0
 28 29  1  0
 29 30  2  0
 30 31  1  0
 31 32  2  0
 32 33  1  0
 33 34  2  0
 27 35  1  0
 35 36  2  0
 35 37  1  0
 37 38  1  0
 38 39  1  0
 39 40  1  0
 40 41  1  0
 41 42  1  0
 42 43  1  0
 43 44  1  0
 43 45  2  3
 38 46  1  0
 46 47  2  0
 46 48  1  0
 48 49  1  0
 49 50  1  0
 50 51  1  0
 51 52  1  0
 52 53  1  0
 53 54  1  0
 54 55  1  0
 54 56  2  3
 49 57  1  0
 57 58  2  0
 57 59  1  0
 59 60  1  0
 60 61  1  0
 61 62  1  0
 62 63  2  0
 63 64  1  0
 64 65  1  0
 65 66  2  0
 66 67  1  0
 67 68  2  0
 68 69  1  0
 69 70  2  0
 60 71  1  0
 71 72  1  0
 71 73  2  0
  9  2  1  0
 23 18  1  0
 34 29  1  0
 70 62  1  0
 70 65  1  0
  1 74  1  0
  1 75  1  0
  1 76  1  0
  3 77  1  0
  5 78  1  0
  6 79  1  0
  8 80  1  0
  8 81  1  0
  8 82  1  0
 10 83  1  0
 10 84  1  0
 11 85  1  1
 12 86  1  0
 12 87  1  0
 15 88  1  0
 16 89  1  6
 17 90  1  0
 17 91  1  0
 19 92  1  0
 20 93  1  0
 21 94  1  0
 22 95  1  0
 23 96  1  0
 26 97  1  0
 27 98  1  6
 28 99  1  0
 28100  1  0
 30101  1  0
 31102  1  0
 32103  1  0
 33104  1  0
 34105  1  0
 37106  1  0
 38107  1  1
 39108  1  0
 39109  1  0
 40110  1  0
 40111  1  0
 41112  1  0
 41113  1  0
 42114  1  0
 44115  1  0
 44116  1  0
 45117  1  0
 48118  1  0
 49119  1  1
 50120  1  0
 50121  1  0
 51122  1  0
 51123  1  0
 52124  1  0
 52125  1  0
 53126  1  0
 55127  1  0
 55128  1  0
 56129  1  0
 59130  1  0
 60131  1  1
 61132  1  0
 61133  1  0
 63134  1  0
 64135  1  0
 66136  1  0
 67137  1  0
 68138  1  0
 69139  1  0
 72140  1  0
 72141  1  0
M  END
$$$$
