[H]c1c([H])c(S(=O)(=O)N2C([H])([H])C([H])([H])C([H])(c3c([H])n([H])c4c([H])c([H])c(Cl)c([H])c34)C([H])([H])C2([H])[H])c([H])c([H])c1C(F)(F)F
     RDKit          3D

 47 50  0  0  0  0  0  0  0  0999 V2000
   -8.2441    0.0285    1.0382 F   0  0  0  0  0  0  0  0  0  0  0  0
   -7.5674    0.5994   -0.0256 C   0  0  0  0  0  0  0  0  0  0  0  0
   -8.1347    0.2736   -1.2305 F   0  0  0  0  0  0  0  0  0  0  0  0
   -7.5067    1.9416    0.1716 F   0  0  0  0  0  0  0  0  0  0  0  0
   -6.1494    0.1003   -0.0274 C   0  0  0  0  0  0  0  0  0  0  0  0
   -5.6832   -0.7694    0.9185 C   0  0  0  0  0  0  0  0  0  0  0  0
   -4.3356   -1.1771    0.8892 C   0  0  0  0  0  0  0  0  0  0  0  0
   -3.5018   -0.7183   -0.0685 C   0  0  0  0  0  0  0  0  0  0  0  0
   -3.9844    0.1648   -1.0355 C   0  0  0  0  0  0  0  0  0  0  0  0
   -5.2917    0.5749   -1.0216 C   0  0  0  0  0  0  0  0  0  0  0  0
   -1.8140   -1.1151   -0.1583 S   0  0  0  0  0  0  0  0  0  0  0  0
   -1.5132   -2.4336    0.5196 O   0  0  0  0  0  0  0  0  0  0  0  0
   -1.4234   -1.2812   -1.6394 O   0  0  0  0  0  0  0  0  0  0  0  0
   -0.9489    0.1868    0.4984 N   0  0  0  0  0  0  0  0  0  0  0  0
   -0.2184    0.0162    1.6777 C   0  0  0  0  0  0  0  0  0  0  0  0
    1.2659   -0.1836    1.5835 C   0  0  0  0  0  0  0  0  0  0  0  0
    1.8723    0.5665    0.4766 C   0  0  0  0  0  0  0  0  0  0  0  0
    1.0845    0.5198   -0.8062 C   0  0  0  0  0  0  0  0  0  0  0  0
   -0.3381    1.0109   -0.5013 C   0  0  0  0  0  0  0  0  0  0  0  0
    3.2828    0.7800    0.3961 C   0  0  0  0  0  0  0  0  0  0  0  0
    4.0353    1.8856    0.7646 C   0  0  0  0  0  0  0  0  0  0  0  0
    5.3036    1.7381    0.3394 N   0  0  0  0  0  0  0  0  0  0  0  0
    5.4456    0.5526   -0.3059 C   0  0  0  0  0  0  0  0  0  0  0  0
    6.5308   -0.0949   -0.8579 C   0  0  0  0  0  0  0  0  0  0  0  0
    6.3863   -1.3672   -1.3945 C   0  0  0  0  0  0  0  0  0  0  0  0
    5.1331   -1.9538   -1.3582 C   0  0  0  0  0  0  0  0  0  0  0  0
    4.9060   -3.5824   -2.0022 Cl  0  0  0  0  0  0  0  0  0  0  0  0
    4.0491   -1.2994   -0.8071 C   0  0  0  0  0  0  0  0  0  0  0  0
    4.2161   -0.0354   -0.2756 C   0  0  0  0  0  0  0  0  0  0  0  0
   -6.3217   -1.1456    1.6788 H   0  0  0  0  0  0  0  0  0  0  0  0
   -4.0090   -1.8881    1.6574 H   0  0  0  0  0  0  0  0  0  0  0  0
   -3.3756    0.5577   -1.8438 H   0  0  0  0  0  0  0  0  0  0  0  0
   -5.6766    1.2701   -1.7843 H   0  0  0  0  0  0  0  0  0  0  0  0
   -0.4472    0.8137    2.4527 H   0  0  0  0  0  0  0  0  0  0  0  0
   -0.6073   -0.9131    2.2128 H   0  0  0  0  0  0  0  0  0  0  0  0
    1.7286   -0.0111    2.5631 H   0  0  0  0  0  0  0  0  0  0  0  0
    1.3560   -1.2969    1.2925 H   0  0  0  0  0  0  0  0  0  0  0  0
    1.5132    1.6944    0.8161 H   0  0  0  0  0  0  0  0  0  0  0  0
    1.5248    1.3456   -1.4438 H   0  0  0  0  0  0  0  0  0  0  0  0
    1.1101   -0.4007   -1.3709 H   0  0  0  0  0  0  0  0  0  0  0  0
   -0.3252    2.0515   -0.1245 H   0  0  0  0  0  0  0  0  0  0  0  0
   -0.8995    1.0037   -1.4291 H   0  0  0  0  0  0  0  0  0  0  0  0
    3.6805    2.7774    1.2935 H   0  0  0  0  0  0  0  0  0  0  0  0
    6.0901    2.4149    0.4537 H   0  0  0  0  0  0  0  0  0  0  0  0
    7.4910    0.4046   -0.8722 H   0  0  0  0  0  0  0  0  0  0  0  0
    7.2438   -1.8819   -1.8072 H   0  0  0  0  0  0  0  0  0  0  0  0
    3.0676   -1.7244   -0.7767 H   0  0  0  0  0  0  0  0  0  0  0  0
  1  2  1  0
  2  3  1  0
  2  4  1  0
  2  5  1  0
  5  6  2  0
  6  7  1  0
  7  8  2  0
  8  9  1  0
  9 10  2  0
  8 11  1  0
 11 12  2  0
 11 13  2  0
 11 14  1  0
 14 15  1  0
 15 16  1  0
 16 17  1  0
 17 18  1  0
 18 19  1  0
 17 20  1  0
 20 21  2  0
 21 22  1  0
 22 23  1  0
 23 24  2  0
 24 25  1  0
 25 26  2  0
 26 27  1  0
 26 28  1  0
 28 29  2  0
 10  5  1  0
 19 14  1  0
 29 20  1  0
 29 23  1  0
  6 30  1  0
  7 31  1  0
  9 32  1  0
 10 33  1  0
 15 34  1  0
 15 35  1  0
 16 36  1  0
 16 37  1  0
 17 38  1  0
 18 39  1  0
 18 40  1  0
 19 41  1  0
 19 42  1  0
 21 43  1  0
 22 44  1  0
 24 45  1  0
 25 46  1  0
 28 47  1  0
M  END
$$$$
[H]c1c([H])c(S(=O)(=O)N2C([H])([H])C([H])([H])C([H])(N([H])C(=O)c3c([H])n([H])c4c([H])c([H])c(Cl)c([H])c34)C([H])([H])C2([H])[H])c([H])c([H])c1OC([H])([H])[H]
     RDKit          3D

 52 55  0  0  0  0  0  0  0  0999 V2000
   -6.9335    3.2586   -0.6922 C   0  0  0  0  0  0  0  0  0  0  0  0
   -6.3066    2.3580   -1.5862 O   0  0  0  0  0  0  0  0  0  0  0  0
   -5.5696    1.2992   -1.0594 C   0  0  0  0  0  0  0  0  0  0  0  0
   -5.4481    1.1246    0.3028 C   0  0  0  0  0  0  0  0  0  0  0  0
   -4.7298    0.0927    0.8620 C   0  0  0  0  0  0  0  0  0  0  0  0
   -4.0845   -0.8344    0.0496 C   0  0  0  0  0  0  0  0  0  0  0  0
   -4.2111   -0.6525   -1.3117 C   0  0  0  0  0  0  0  0  0  0  0  0
   -4.9342    0.3864   -1.8744 C   0  0  0  0  0  0  0  0  0  0  0  0
   -3.1663   -2.1572    0.7213 S   0  0  0  0  0  0  0  0  0  0  0  0
   -3.1785   -3.2930   -0.2893 O   0  0  0  0  0  0  0  0  0  0  0  0
   -3.8623   -2.6455    1.9400 O   0  0  0  0  0  0  0  0  0  0  0  0
   -1.5355   -1.7452    1.0012 N   0  0  0  0  0  0  0  0  0  0  0  0
   -0.8177   -1.3830   -0.1769 C   0  0  0  0  0  0  0  0  0  0  0  0
    0.4006   -2.2548   -0.4060 C   0  0  0  0  0  0  0  0  0  0  0  0
    1.3093   -2.1436    0.7940 C   0  0  0  0  0  0  0  0  0  0  0  0
    0.5806   -2.3444    2.0821 C   0  0  0  0  0  0  0  0  0  0  0  0
   -0.8467   -2.7310    1.7731 C   0  0  0  0  0  0  0  0  0  0  0  0
    1.9765   -0.8570    0.7052 N   0  0  0  0  0  0  0  0  0  0  0  0
    3.3564   -0.7024    0.5364 C   0  0  0  0  0  0  0  0  0  0  0  0
    4.1052   -1.7015    0.4511 O   0  0  0  0  0  0  0  0  0  0  0  0
    3.9371    0.6254    0.4579 C   0  0  0  0  0  0  0  0  0  0  0  0
    3.5701    1.7696    1.1505 C   0  0  0  0  0  0  0  0  0  0  0  0
    4.3744    2.7692    0.7695 N   0  0  0  0  0  0  0  0  0  0  0  0
    5.2605    2.3752   -0.1348 C   0  0  0  0  0  0  0  0  0  0  0  0
    6.2759    3.0108   -0.8186 C   0  0  0  0  0  0  0  0  0  0  0  0
    7.0415    2.2943   -1.7217 C   0  0  0  0  0  0  0  0  0  0  0  0
    6.7663    0.9425   -1.9188 C   0  0  0  0  0  0  0  0  0  0  0  0
    7.7349    0.0296   -3.0634 Cl  0  0  0  0  0  0  0  0  0  0  0  0
    5.7546    0.2910   -1.2433 C   0  0  0  0  0  0  0  0  0  0  0  0
    5.0067    1.0368   -0.3462 C   0  0  0  0  0  0  0  0  0  0  0  0
   -6.2060    3.7129    0.0212 H   0  0  0  0  0  0  0  0  0  0  0  0
   -7.5623    3.9838   -1.2094 H   0  0  0  0  0  0  0  0  0  0  0  0
   -7.6226    2.6266   -0.0593 H   0  0  0  0  0  0  0  0  0  0  0  0
   -5.9628    1.8638    0.9265 H   0  0  0  0  0  0  0  0  0  0  0  0
   -4.6515   -0.0199    1.9172 H   0  0  0  0  0  0  0  0  0  0  0  0
   -3.6986   -1.3909   -1.9472 H   0  0  0  0  0  0  0  0  0  0  0  0
   -5.0068    0.4907   -2.9488 H   0  0  0  0  0  0  0  0  0  0  0  0
   -0.4656   -0.3395   -0.0628 H   0  0  0  0  0  0  0  0  0  0  0  0
   -1.4727   -1.3932   -1.0691 H   0  0  0  0  0  0  0  0  0  0  0  0
    0.8961   -1.8660   -1.3160 H   0  0  0  0  0  0  0  0  0  0  0  0
    0.1399   -3.3082   -0.5938 H   0  0  0  0  0  0  0  0  0  0  0  0
    2.1073   -2.9107    0.7022 H   0  0  0  0  0  0  0  0  0  0  0  0
    0.5825   -1.4401    2.7241 H   0  0  0  0  0  0  0  0  0  0  0  0
    1.0205   -3.1868    2.6536 H   0  0  0  0  0  0  0  0  0  0  0  0
   -0.8330   -3.6861    1.1737 H   0  0  0  0  0  0  0  0  0  0  0  0
   -1.4304   -2.9403    2.7060 H   0  0  0  0  0  0  0  0  0  0  0  0
    1.3676   -0.0255    0.7745 H   0  0  0  0  0  0  0  0  0  0  0  0
    2.7480    1.8015    1.8813 H   0  0  0  0  0  0  0  0  0  0  0  0
    4.3202    3.7549    1.1366 H   0  0  0  0  0  0  0  0  0  0  0  0
    6.5031    4.0654   -0.6759 H   0  0  0  0  0  0  0  0  0  0  0  0
    7.8556    2.7533   -2.2864 H   0  0  0  0  0  0  0  0  0  0  0  0
    5.5457   -0.7642   -1.4023 H   0  0  0  0  0  0  0  0  0  0  0  0
  1  2  1  0
  2  3  1  0
  3  4  2  0
  4  5  1  0
  5  6  2  0
  6  7  1  0
  7  8  2  0
  6  9  1  0
  9 10  2  0
  9 11  2  0
  9 12  1  0
 12 13  1  0
 13 14  1  0
 14 15  1  0
 15 16  1  0
 16 17  1  0
 15 18  1  0
 18 19  1  0
 19 20  2  0
 19 21  1  0
 21 22  2  0
 22 23  1  0
 23 24  1  0
 24 25  2  0
 25 26  1  0
 26 27  2  0
 27 28  1  0
 27 29  1  0
 29 30  2  0
  8  3  1  0
 17 12  1  0
 30 21  1  0
 30 24  1  0
  1 31  1  0
  1 32  1  0
  1 33  1  0
  4 34  1  0
  5 35  1  0
  7 36  1  0
  8 37  1  0
 13 38  1  0
 13 39  1  0
 14 40  1  0
 14 41  1  0
 15 42  1  0
 16 43  1  0
 16 44  1  0
 17 45  1  0
 17 46  1  0
 18 47  1  0
 22 48  1  0
 23 49  1  0
 25 50  1  0
 26 51  1  0
 29 52  1  0
M  END
$$$$
[H]c1c([H])c(C2([H])C([H])([H])C([H])([H])N(S(=O)(=O)c3c([H])c(OC([H])([H])[H])c(OC([H])([H])[H])c(OC([H])([H])[H])c3[H])C([H])([H])C2([H])[H])c([H])c(Cl)c1Cl
     RDKit          3D

 52 54  0  0  0  0  0  0  0  0999 V2000
   -4.4553    2.3466   -0.2578 C   0  0  0  0  0  0  0  0  0  0  0  0
   -4.7591    1.0411    0.1382 O   0  0  0  0  0  0  0  0  0  0  0  0
   -3.9514   -0.0572   -0.1329 C   0  0  0  0  0  0  0  0  0  0  0  0
   -2.7620    0.0437   -0.8263 C   0  0  0  0  0  0  0  0  0  0  0  0
   -1.9869   -1.0831   -1.0739 C   0  0  0  0  0  0  0  0  0  0  0  0
   -2.4357   -2.3007   -0.6102 C   0  0  0  0  0  0  0  0  0  0  0  0
   -3.6232   -2.4319    0.0875 C   0  0  0  0  0  0  0  0  0  0  0  0
   -4.0712   -3.6348    0.5484 O   0  0  0  0  0  0  0  0  0  0  0  0
   -3.4388   -4.8766    0.4008 C   0  0  0  0  0  0  0  0  0  0  0  0
   -4.3744   -1.2995    0.3205 C   0  0  0  0  0  0  0  0  0  0  0  0
   -5.5601   -1.4383    1.0184 O   0  0  0  0  0  0  0  0  0  0  0  0
   -5.5183   -1.3209    2.4310 C   0  0  0  0  0  0  0  0  0  0  0  0
   -0.4880   -0.9118   -1.9534 S   0  0  0  0  0  0  0  0  0  0  0  0
   -0.6259    0.1792   -2.9555 O   0  0  0  0  0  0  0  0  0  0  0  0
   -0.2125   -2.1911   -2.6787 O   0  0  0  0  0  0  0  0  0  0  0  0
    0.8370   -0.6052   -0.8933 N   0  0  0  0  0  0  0  0  0  0  0  0
    0.6280    0.6212   -0.1858 C   0  0  0  0  0  0  0  0  0  0  0  0
    1.8843    1.4388    0.0120 C   0  0  0  0  0  0  0  0  0  0  0  0
    3.0596    0.5538    0.2648 C   0  0  0  0  0  0  0  0  0  0  0  0
    3.2926   -0.3628   -0.9159 C   0  0  0  0  0  0  0  0  0  0  0  0
    2.0398   -0.6466   -1.6795 C   0  0  0  0  0  0  0  0  0  0  0  0
    4.2367    1.4355    0.5173 C   0  0  0  0  0  0  0  0  0  0  0  0
    4.9415    1.3860    1.6986 C   0  0  0  0  0  0  0  0  0  0  0  0
    6.0297    2.2092    1.9204 C   0  0  0  0  0  0  0  0  0  0  0  0
    6.4541    3.1132    0.9689 C   0  0  0  0  0  0  0  0  0  0  0  0
    7.8403    4.1605    1.2530 Cl  0  0  0  0  0  0  0  0  0  0  0  0
    5.7601    3.1701   -0.2090 C   0  0  0  0  0  0  0  0  0  0  0  0
    6.2935    4.3172   -1.4236 Cl  0  0  0  0  0  0  0  0  0  0  0  0
    4.6673    2.3493   -0.4423 C   0  0  0  0  0  0  0  0  0  0  0  0
   -5.4059    2.9308   -0.2976 H   0  0  0  0  0  0  0  0  0  0  0  0
   -3.7416    2.7705    0.4711 H   0  0  0  0  0  0  0  0  0  0  0  0
   -4.0583    2.3526   -1.2946 H   0  0  0  0  0  0  0  0  0  0  0  0
   -2.4351    1.0115   -1.1787 H   0  0  0  0  0  0  0  0  0  0  0  0
   -1.8062   -3.1701   -0.8191 H   0  0  0  0  0  0  0  0  0  0  0  0
   -3.6720   -5.2597   -0.6120 H   0  0  0  0  0  0  0  0  0  0  0  0
   -2.3207   -4.7830    0.4432 H   0  0  0  0  0  0  0  0  0  0  0  0
   -3.7564   -5.6270    1.1244 H   0  0  0  0  0  0  0  0  0  0  0  0
   -4.4639   -1.2392    2.8122 H   0  0  0  0  0  0  0  0  0  0  0  0
   -5.9946   -0.3421    2.7191 H   0  0  0  0  0  0  0  0  0  0  0  0
   -5.9695   -2.1784    2.9439 H   0  0  0  0  0  0  0  0  0  0  0  0
    0.1987    0.3895    0.8332 H   0  0  0  0  0  0  0  0  0  0  0  0
   -0.0886    1.3023   -0.7335 H   0  0  0  0  0  0  0  0  0  0  0  0
    2.0154    2.1237   -0.8382 H   0  0  0  0  0  0  0  0  0  0  0  0
    1.6968    2.0692    0.9288 H   0  0  0  0  0  0  0  0  0  0  0  0
    2.8896   -0.0692    1.1445 H   0  0  0  0  0  0  0  0  0  0  0  0
    3.9710    0.2148   -1.6108 H   0  0  0  0  0  0  0  0  0  0  0  0
    3.8351   -1.2815   -0.6444 H   0  0  0  0  0  0  0  0  0  0  0  0
    2.1367   -1.6782   -2.0974 H   0  0  0  0  0  0  0  0  0  0  0  0
    1.9438    0.0177   -2.5767 H   0  0  0  0  0  0  0  0  0  0  0  0
    4.6212    0.6771    2.4647 H   0  0  0  0  0  0  0  0  0  0  0  0
    6.5833    2.1717    2.8454 H   0  0  0  0  0  0  0  0  0  0  0  0
    4.1194    2.3922   -1.3693 H   0  0  0  0  0  0  0  0  0  0  0  0
  1  2  1  0
  2  3  1  0
  3  4  2  0
  4  5  1  0
  5  6  2  0
  6  7  1  0
  7  8  1  0
  8  9  1  0
  7 10  2  0
 10 11  1  0
 11 12  1  0
  5 13  1  0
 13 14  2  0
 13 15  2  0
 13 16  1  0
 16 17  1  0
 17 18  1  0
 18 19  1  0
 19 20  1  0
 20 21  1  0
 19 22  1  0
 22 23  2  0
 23 24  1  0
 24 25  2  0
 25 26  1  0
 25 27  1  0
 27 28  1  0
 27 29  2  0
 10  3  1  0
 21 16  1  0
 29 22  1  0
  1 30  1  0
  1 31  1  0
  1 32  1  0
  4 33  1  0
  6 34  1  0
  9 35  1  0
  9 36  1  0
  9 37  1  0
 12 38  1  0
 12 39  1  0
 12 40  1  0
 17 41  1  0
 17 42  1  0
 18 43  1  0
 18 44  1  0
 19 45  1  0
 20 46  1  0
 20 47  1  0
 21 48  1  0
 21 49  1  0
 23 50  1  0
 24 51  1  0
 29 52  1  0
M  END
$$$$
[H]c1c([H])c(S(=O)(=O)N2C([H])([H])C([H])([H])C([H])(N([H])C(=O)c3c([H])n([H])c4c([H])c([H])c(F)c([H])c34)C([H])([H])C2([H])[H])c([H])c([H])c1OC([H])([H])[H]
     RDKit          3D

 52 55  0  0  0  0  0  0  0  0999 V2000
    7.8226    2.4965   -1.1871 C   0  0  0  0  0  0  0  0  0  0  0  0
    6.9407    1.6627   -1.9495 O   0  0  0  0  0  0  0  0  0  0  0  0
    5.9804    0.8922   -1.2734 C   0  0  0  0  0  0  0  0  0  0  0  0
    5.8871    0.9346    0.1024 C   0  0  0  0  0  0  0  0  0  0  0  0
    4.9474    0.1833    0.7857 C   0  0  0  0  0  0  0  0  0  0  0  0
    4.0654   -0.6400    0.1074 C   0  0  0  0  0  0  0  0  0  0  0  0
    4.1761   -0.6679   -1.2739 C   0  0  0  0  0  0  0  0  0  0  0  0
    5.1090    0.0771   -1.9604 C   0  0  0  0  0  0  0  0  0  0  0  0
    2.8641   -1.6019    0.9429 S   0  0  0  0  0  0  0  0  0  0  0  0
    2.5753   -2.8210    0.0788 O   0  0  0  0  0  0  0  0  0  0  0  0
    3.3990   -2.1414    2.2361 O   0  0  0  0  0  0  0  0  0  0  0  0
    1.3980   -0.7513    1.1510 N   0  0  0  0  0  0  0  0  0  0  0  0
    0.7819   -0.3794   -0.0845 C   0  0  0  0  0  0  0  0  0  0  0  0
   -0.0622   -1.4712   -0.7016 C   0  0  0  0  0  0  0  0  0  0  0  0
   -1.0484   -1.9883    0.3349 C   0  0  0  0  0  0  0  0  0  0  0  0
   -0.3426   -2.4494    1.5720 C   0  0  0  0  0  0  0  0  0  0  0  0
    0.5113   -1.3340    2.0989 C   0  0  0  0  0  0  0  0  0  0  0  0
   -2.0086   -0.9411    0.5909 N   0  0  0  0  0  0  0  0  0  0  0  0
   -3.3642   -1.0006    0.2825 C   0  0  0  0  0  0  0  0  0  0  0  0
   -3.8487   -2.0180   -0.2622 O   0  0  0  0  0  0  0  0  0  0  0  0
   -4.2405    0.1153    0.5861 C   0  0  0  0  0  0  0  0  0  0  0  0
   -4.2598    0.9173    1.7089 C   0  0  0  0  0  0  0  0  0  0  0  0
   -5.2293    1.8178    1.5705 N   0  0  0  0  0  0  0  0  0  0  0  0
   -5.8748    1.6696    0.4044 C   0  0  0  0  0  0  0  0  0  0  0  0
   -6.9245    2.3591   -0.1590 C   0  0  0  0  0  0  0  0  0  0  0  0
   -7.3751    1.9602   -1.4005 C   0  0  0  0  0  0  0  0  0  0  0  0
   -6.7632    0.8833   -2.0430 C   0  0  0  0  0  0  0  0  0  0  0  0
   -7.1811    0.4660   -3.2623 F   0  0  0  0  0  0  0  0  0  0  0  0
   -5.7180    0.2081   -1.4655 C   0  0  0  0  0  0  0  0  0  0  0  0
   -5.2700    0.6085   -0.2259 C   0  0  0  0  0  0  0  0  0  0  0  0
    8.5405    1.9075   -0.5875 H   0  0  0  0  0  0  0  0  0  0  0  0
    7.2258    3.1501   -0.4965 H   0  0  0  0  0  0  0  0  0  0  0  0
    8.3947    3.1697   -1.8557 H   0  0  0  0  0  0  0  0  0  0  0  0
    6.5837    1.5856    0.6473 H   0  0  0  0  0  0  0  0  0  0  0  0
    4.8715    0.2131    1.8539 H   0  0  0  0  0  0  0  0  0  0  0  0
    3.4749   -1.3217   -1.8083 H   0  0  0  0  0  0  0  0  0  0  0  0
    5.1620    0.0262   -3.0396 H   0  0  0  0  0  0  0  0  0  0  0  0
    0.1072    0.4830    0.1154 H   0  0  0  0  0  0  0  0  0  0  0  0
    1.5608   -0.0720   -0.8184 H   0  0  0  0  0  0  0  0  0  0  0  0
   -0.6193   -0.9781   -1.5449 H   0  0  0  0  0  0  0  0  0  0  0  0
    0.5186   -2.2775   -1.1601 H   0  0  0  0  0  0  0  0  0  0  0  0
   -1.5714   -2.8513   -0.1235 H   0  0  0  0  0  0  0  0  0  0  0  0
   -1.0012   -2.8053    2.3603 H   0  0  0  0  0  0  0  0  0  0  0  0
    0.3487   -3.2750    1.2901 H   0  0  0  0  0  0  0  0  0  0  0  0
    1.1386   -1.7143    2.9540 H   0  0  0  0  0  0  0  0  0  0  0  0
   -0.1719   -0.5819    2.5806 H   0  0  0  0  0  0  0  0  0  0  0  0
   -1.6162   -0.0808    1.0472 H   0  0  0  0  0  0  0  0  0  0  0  0
   -3.5685    0.7962    2.5571 H   0  0  0  0  0  0  0  0  0  0  0  0
   -5.4876    2.5670    2.2652 H   0  0  0  0  0  0  0  0  0  0  0  0
   -7.4236    3.1973    0.3072 H   0  0  0  0  0  0  0  0  0  0  0  0
   -8.1895    2.4416   -1.9143 H   0  0  0  0  0  0  0  0  0  0  0  0
   -5.2249   -0.6254   -1.9342 H   0  0  0  0  0  0  0  0  0  0  0  0
  1  2  1  0
  2  3  1  0
  3  4  2  0
  4  5  1  0
  5  6  2  0
  6  7  1  0
  7  8  2  0
  6  9  1  0
  9 10  2  0
  9 11  2  0
  9 12  1  0
 12 13  1  0
 13 14  1  0
 14 15  1  0
 15 16  1  0
 16 17  1  0
 15 18  1  0
 18 19  1  0
 19 20  2  0
 19 21  1  0
 21 22  2  0
 22 23  1  0
 23 24  1  0
 24 25  2  0
 25 26  1  0
 26 27  2  0
 27 28  1  0
 27 29  1  0
 29 30  2  0
  8  3  1  0
 17 12  1  0
 30 21  1  0
 30 24  1  0
  1 31  1  0
  1 32  1  0
  1 33  1  0
  4 34  1  0
  5 35  1  0
  7 36  1  0
  8 37  1  0
 13 38  1  0
 13 39  1  0
 14 40  1  0
 14 41  1  0
 15 42  1  0
 16 43  1  0
 16 44  1  0
 17 45  1  0
 17 46  1  0
 18 47  1  0
 22 48  1  0
 23 49  1  0
 25 50  1  0
 26 51  1  0
 29 52  1  0
M  END
$$$$
[H]c1c([H])c(S(=O)(=O)N2C([H])([H])C([H])([H])C([H])(c3c([H])n([H])c4c([H])c([H])c(C(F)(F)F)c([H])c34)C([H])([H])C2([H])[H])c([H])c([H])c1OC([H])([H])[H]
     RDKit          3D

 51 54  0  0  0  0  0  0  0  0999 V2000
   -8.1524   -1.2327    0.6056 C   0  0  0  0  0  0  0  0  0  0  0  0
   -7.5987   -0.2796   -0.2871 O   0  0  0  0  0  0  0  0  0  0  0  0
   -6.3274    0.2356   -0.1155 C   0  0  0  0  0  0  0  0  0  0  0  0
   -5.5034   -0.1073    0.9100 C   0  0  0  0  0  0  0  0  0  0  0  0
   -4.2408    0.4713    0.9792 C   0  0  0  0  0  0  0  0  0  0  0  0
   -3.7701    1.3774    0.0624 C   0  0  0  0  0  0  0  0  0  0  0  0
   -4.6296    1.7223   -0.9803 C   0  0  0  0  0  0  0  0  0  0  0  0
   -5.8821    1.1549   -1.0563 C   0  0  0  0  0  0  0  0  0  0  0  0
   -2.1990    2.1454    0.1139 S   0  0  0  0  0  0  0  0  0  0  0  0
   -2.0214    2.9459   -1.1941 O   0  0  0  0  0  0  0  0  0  0  0  0
   -2.2170    3.2601    1.1763 O   0  0  0  0  0  0  0  0  0  0  0  0
   -0.9510    1.0942    0.3170 N   0  0  0  0  0  0  0  0  0  0  0  0
   -0.0670    1.2401    1.4532 C   0  0  0  0  0  0  0  0  0  0  0  0
    1.3097    1.2529    0.7212 C   0  0  0  0  0  0  0  0  0  0  0  0
    1.6274   -0.1923    0.5401 C   0  0  0  0  0  0  0  0  0  0  0  0
    0.3815   -0.9325    0.0210 C   0  0  0  0  0  0  0  0  0  0  0  0
   -0.7396   -0.0262   -0.4514 C   0  0  0  0  0  0  0  0  0  0  0  0
    2.6841   -0.2834   -0.5064 C   0  0  0  0  0  0  0  0  0  0  0  0
    2.5938   -0.2401   -1.8723 C   0  0  0  0  0  0  0  0  0  0  0  0
    3.7941   -0.5627   -2.4351 N   0  0  0  0  0  0  0  0  0  0  0  0
    4.6768   -0.8105   -1.4538 C   0  0  0  0  0  0  0  0  0  0  0  0
    6.0203   -1.0892   -1.4550 C   0  0  0  0  0  0  0  0  0  0  0  0
    6.6645   -1.1824   -0.2113 C   0  0  0  0  0  0  0  0  0  0  0  0
    6.0113   -1.0143    0.9837 C   0  0  0  0  0  0  0  0  0  0  0  0
    4.6497   -0.7409    0.9354 C   0  0  0  0  0  0  0  0  0  0  0  0
    4.0064   -0.6432   -0.2693 C   0  0  0  0  0  0  0  0  0  0  0  0
    6.7046   -1.0351    2.3159 C   0  0  0  0  0  0  0  0  0  0  0  0
    8.0542   -0.8369    2.0486 F   0  0  0  0  0  0  0  0  0  0  0  0
    6.6214   -2.2465    2.9563 F   0  0  0  0  0  0  0  0  0  0  0  0
    6.2052   -0.0482    3.1180 F   0  0  0  0  0  0  0  0  0  0  0  0
   -9.2290   -1.3829    0.3149 H   0  0  0  0  0  0  0  0  0  0  0  0
   -8.0657   -1.0122    1.6625 H   0  0  0  0  0  0  0  0  0  0  0  0
   -7.6555   -2.2000    0.3751 H   0  0  0  0  0  0  0  0  0  0  0  0
   -5.8410   -0.8178    1.6458 H   0  0  0  0  0  0  0  0  0  0  0  0
   -3.5804    0.2042    1.8008 H   0  0  0  0  0  0  0  0  0  0  0  0
   -4.2712    2.4552   -1.7028 H   0  0  0  0  0  0  0  0  0  0  0  0
   -6.5481    1.4303   -1.8671 H   0  0  0  0  0  0  0  0  0  0  0  0
   -0.1259    0.3605    2.0800 H   0  0  0  0  0  0  0  0  0  0  0  0
   -0.2357    2.1304    2.0177 H   0  0  0  0  0  0  0  0  0  0  0  0
    2.0486    1.6927    1.4211 H   0  0  0  0  0  0  0  0  0  0  0  0
    1.2423    1.7960   -0.2250 H   0  0  0  0  0  0  0  0  0  0  0  0
    1.9031   -0.6571    1.4798 H   0  0  0  0  0  0  0  0  0  0  0  0
   -0.0127   -1.6684    0.7396 H   0  0  0  0  0  0  0  0  0  0  0  0
    0.7140   -1.4664   -0.8863 H   0  0  0  0  0  0  0  0  0  0  0  0
   -0.5661    0.2395   -1.5123 H   0  0  0  0  0  0  0  0  0  0  0  0
   -1.6665   -0.6529   -0.4761 H   0  0  0  0  0  0  0  0  0  0  0  0
    1.6913   -0.0076   -2.4375 H   0  0  0  0  0  0  0  0  0  0  0  0
    4.0466   -0.6296   -3.4576 H   0  0  0  0  0  0  0  0  0  0  0  0
    6.5967   -1.2272   -2.3670 H   0  0  0  0  0  0  0  0  0  0  0  0
    7.7414   -1.3969   -0.1844 H   0  0  0  0  0  0  0  0  0  0  0  0
    4.1083   -0.5855    1.8940 H   0  0  0  0  0  0  0  0  0  0  0  0
  1  2  1  0
  2  3  1  0
  3  4  2  0
  4  5  1  0
  5  6  2  0
  6  7  1  0
  7  8  2  0
  6  9  1  0
  9 10  2  0
  9 11  2  0
  9 12  1  0
 12 13  1  0
 13 14  1  0
 14 15  1  0
 15 16  1  0
 16 17  1  0
 15 18  1  0
 18 19  2  0
 19 20  1  0
 20 21  1  0
 21 22  2  0
 22 23  1  0
 23 24  2  0
 24 25  1  0
 25 26  2  0
 24 27  1  0
 27 28  1  0
 27 29  1  0
 27 30  1  0
  8  3  1  0
 17 12  1  0
 26 18  1  0
 26 21  1  0
  1 31  1  0
  1 32  1  0
  1 33  1  0
  4 34  1  0
  5 35  1  0
  7 36  1  0
  8 37  1  0
 13 38  1  0
 13 39  1  0
 14 40  1  0
 14 41  1  0
 15 42  1  0
 16 43  1  0
 16 44  1  0
 17 45  1  0
 17 46  1  0
 19 47  1  0
 20 48  1  0
 22 49  1  0
 23 50  1  0
 25 51  1  0
M  END
$$$$
[H]c1c([H])c(S(=O)(=O)N2C([H])([H])C([H])([H])C([H])(c3c([H])n([H])c4c([H])c([H])c(Cl)c([H])c34)C([H])([H])C2([H])[H])c([H])c([H])c1OC([H])([H])[H]
     RDKit          3D

 48 51  0  0  0  0  0  0  0  0999 V2000
    7.9138    0.8933    0.0621 C   0  0  0  0  0  0  0  0  0  0  0  0
    7.2790   -0.3408    0.3045 O   0  0  0  0  0  0  0  0  0  0  0  0
    5.9263   -0.4955    0.0002 C   0  0  0  0  0  0  0  0  0  0  0  0
    5.1642    0.5188   -0.5360 C   0  0  0  0  0  0  0  0  0  0  0  0
    3.8142    0.3228   -0.8264 C   0  0  0  0  0  0  0  0  0  0  0  0
    3.1787   -0.8718   -0.5982 C   0  0  0  0  0  0  0  0  0  0  0  0
    3.9413   -1.8881   -0.0609 C   0  0  0  0  0  0  0  0  0  0  0  0
    5.2770   -1.7022    0.2291 C   0  0  0  0  0  0  0  0  0  0  0  0
    1.4945   -1.1619   -0.9476 S   0  0  0  0  0  0  0  0  0  0  0  0
    1.0206   -0.3794   -2.1379 O   0  0  0  0  0  0  0  0  0  0  0  0
    1.2793   -2.6376   -1.2609 O   0  0  0  0  0  0  0  0  0  0  0  0
    0.4940   -0.7829    0.3839 N   0  0  0  0  0  0  0  0  0  0  0  0
    0.5401    0.5778    0.7878 C   0  0  0  0  0  0  0  0  0  0  0  0
   -0.6837    1.3745    0.3988 C   0  0  0  0  0  0  0  0  0  0  0  0
   -1.9647    0.7975    0.8879 C   0  0  0  0  0  0  0  0  0  0  0  0
   -1.7411   -0.6803    1.2541 C   0  0  0  0  0  0  0  0  0  0  0  0
   -0.8352   -1.3045    0.2069 C   0  0  0  0  0  0  0  0  0  0  0  0
   -3.0221    0.7594   -0.1695 C   0  0  0  0  0  0  0  0  0  0  0  0
   -2.9299    0.9901   -1.5212 C   0  0  0  0  0  0  0  0  0  0  0  0
   -4.1608    0.8173   -2.0234 N   0  0  0  0  0  0  0  0  0  0  0  0
   -5.0311    0.4905   -1.0698 C   0  0  0  0  0  0  0  0  0  0  0  0
   -6.4022    0.2109   -1.0529 C   0  0  0  0  0  0  0  0  0  0  0  0
   -7.0237   -0.0968    0.1227 C   0  0  0  0  0  0  0  0  0  0  0  0
   -6.3470   -0.1468    1.3285 C   0  0  0  0  0  0  0  0  0  0  0  0
   -7.1980   -0.5490    2.8243 Cl  0  0  0  0  0  0  0  0  0  0  0  0
   -4.9970    0.1268    1.3213 C   0  0  0  0  0  0  0  0  0  0  0  0
   -4.3540    0.4415    0.1260 C   0  0  0  0  0  0  0  0  0  0  0  0
    7.6496    1.6728    0.8148 H   0  0  0  0  0  0  0  0  0  0  0  0
    7.6539    1.3003   -0.9370 H   0  0  0  0  0  0  0  0  0  0  0  0
    9.0169    0.7203    0.0315 H   0  0  0  0  0  0  0  0  0  0  0  0
    5.6347    1.4813   -0.7316 H   0  0  0  0  0  0  0  0  0  0  0  0
    3.2368    1.1360   -1.2482 H   0  0  0  0  0  0  0  0  0  0  0  0
    3.4695   -2.8418    0.1302 H   0  0  0  0  0  0  0  0  0  0  0  0
    5.8856   -2.5076    0.6571 H   0  0  0  0  0  0  0  0  0  0  0  0
    1.4128    1.0638    0.3076 H   0  0  0  0  0  0  0  0  0  0  0  0
    0.7094    0.6598    1.8939 H   0  0  0  0  0  0  0  0  0  0  0  0
   -0.5606    2.3606    0.9435 H   0  0  0  0  0  0  0  0  0  0  0  0
   -0.6497    1.6347   -0.6576 H   0  0  0  0  0  0  0  0  0  0  0  0
   -2.3601    1.2885    1.7855 H   0  0  0  0  0  0  0  0  0  0  0  0
   -1.1672   -0.6644    2.2038 H   0  0  0  0  0  0  0  0  0  0  0  0
   -2.6888   -1.2313    1.3083 H   0  0  0  0  0  0  0  0  0  0  0  0
   -1.2414   -1.1987   -0.8062 H   0  0  0  0  0  0  0  0  0  0  0  0
   -0.7899   -2.3954    0.4422 H   0  0  0  0  0  0  0  0  0  0  0  0
   -2.0170    1.2591   -2.0586 H   0  0  0  0  0  0  0  0  0  0  0  0
   -4.4044    0.9260   -3.0335 H   0  0  0  0  0  0  0  0  0  0  0  0
   -6.9109    0.2573   -2.0116 H   0  0  0  0  0  0  0  0  0  0  0  0
   -8.0910   -0.3108    0.1122 H   0  0  0  0  0  0  0  0  0  0  0  0
   -4.4209    0.1060    2.2326 H   0  0  0  0  0  0  0  0  0  0  0  0
  1  2  1  0
  2  3  1  0
  3  4  2  0
  4  5  1  0
  5  6  2  0
  6  7  1  0
  7  8  2  0
  6  9  1  0
  9 10  2  0
  9 11  2  0
  9 12  1  0
 12 13  1  0
 13 14  1  0
 14 15  1  0
 15 16  1  0
 16 17  1  0
 15 18  1  0
 18 19  2  0
 19 20  1  0
 20 21  1  0
 21 22  2  0
 22 23  1  0
 23 24  2  0
 24 25  1  0
 24 26  1  0
 26 27  2  0
  8  3  1  0
 17 12  1  0
 27 18  1  0
 27 21  1  0
  1 28  1  0
  1 29  1  0
  1 30  1  0
  4 31  1  0
  5 32  1  0
  7 33  1  0
  8 34  1  0
 13 35  1  0
 13 36  1  0
 14 37  1  0
 14 38  1  0
 15 39  1  0
 16 40  1  0
 16 41  1  0
 17 42  1  0
 17 43  1  0
 19 44  1  0
 20 45  1  0
 22 46  1  0
 23 47  1  0
 26 48  1  0
M  END
$$$$
[H]c1c([H])c(C(=O)N([H])C2([H])C([H])([H])C([H])([H])N(S(=O)(=O)c3c([H])c([H])c(OC([H])([H])[H])c([H])c3[H])C([H])([H])C2([H])[H])c([H])c(Cl)c1Cl
     RDKit          3D

 48 50  0  0  0  0  0  0  0  0999 V2000
   -6.6423   -1.0369    2.6055 C   0  0  0  0  0  0  0  0  0  0  0  0
   -6.1740   -1.6052    1.4064 O   0  0  0  0  0  0  0  0  0  0  0  0
   -5.3346   -0.9045    0.5461 C   0  0  0  0  0  0  0  0  0  0  0  0
   -4.8783   -1.4655   -0.6268 C   0  0  0  0  0  0  0  0  0  0  0  0
   -4.0400   -0.7583   -1.4805 C   0  0  0  0  0  0  0  0  0  0  0  0
   -3.6278    0.5267   -1.1983 C   0  0  0  0  0  0  0  0  0  0  0  0
   -4.0960    1.0835   -0.0091 C   0  0  0  0  0  0  0  0  0  0  0  0
   -4.9286    0.3812    0.8389 C   0  0  0  0  0  0  0  0  0  0  0  0
   -2.5715    1.4386   -2.2524 S   0  0  0  0  0  0  0  0  0  0  0  0
   -2.8646    2.9234   -2.1528 O   0  0  0  0  0  0  0  0  0  0  0  0
   -2.8241    1.0755   -3.7082 O   0  0  0  0  0  0  0  0  0  0  0  0
   -0.9044    1.2415   -1.8523 N   0  0  0  0  0  0  0  0  0  0  0  0
   -0.5568   -0.1308   -1.9998 C   0  0  0  0  0  0  0  0  0  0  0  0
    0.4920   -0.5984   -1.0178 C   0  0  0  0  0  0  0  0  0  0  0  0
    1.4720    0.5252   -0.7958 C   0  0  0  0  0  0  0  0  0  0  0  0
    0.7413    1.6258   -0.0714 C   0  0  0  0  0  0  0  0  0  0  0  0
   -0.6787    1.7886   -0.5544 C   0  0  0  0  0  0  0  0  0  0  0  0
    2.6277    0.1028   -0.0272 N   0  0  0  0  0  0  0  0  0  0  0  0
    3.9384    0.1158   -0.5312 C   0  0  0  0  0  0  0  0  0  0  0  0
    4.1107    0.5154   -1.7108 O   0  0  0  0  0  0  0  0  0  0  0  0
    5.1069   -0.3025    0.2219 C   0  0  0  0  0  0  0  0  0  0  0  0
    6.3716   -0.2745   -0.3333 C   0  0  0  0  0  0  0  0  0  0  0  0
    7.4957   -0.6644    0.3562 C   0  0  0  0  0  0  0  0  0  0  0  0
    7.3962   -1.1075    1.6574 C   0  0  0  0  0  0  0  0  0  0  0  0
    8.8006   -1.6162    2.5808 Cl  0  0  0  0  0  0  0  0  0  0  0  0
    6.1463   -1.1503    2.2490 C   0  0  0  0  0  0  0  0  0  0  0  0
    5.8944   -1.6939    3.8930 Cl  0  0  0  0  0  0  0  0  0  0  0  0
    5.0311   -0.7488    1.5230 C   0  0  0  0  0  0  0  0  0  0  0  0
   -5.7286   -0.6130    3.1178 H   0  0  0  0  0  0  0  0  0  0  0  0
   -7.3042   -0.1734    2.4296 H   0  0  0  0  0  0  0  0  0  0  0  0
   -7.0568   -1.7663    3.3033 H   0  0  0  0  0  0  0  0  0  0  0  0
   -5.1847   -2.4649   -0.8695 H   0  0  0  0  0  0  0  0  0  0  0  0
   -3.6997   -1.2194   -2.3907 H   0  0  0  0  0  0  0  0  0  0  0  0
   -3.7708    2.0969    0.2128 H   0  0  0  0  0  0  0  0  0  0  0  0
   -5.2793    0.8420    1.7621 H   0  0  0  0  0  0  0  0  0  0  0  0
   -1.3784   -0.8484   -1.9603 H   0  0  0  0  0  0  0  0  0  0  0  0
   -0.0879   -0.2446   -3.0212 H   0  0  0  0  0  0  0  0  0  0  0  0
   -0.0238   -0.8913   -0.0665 H   0  0  0  0  0  0  0  0  0  0  0  0
    1.0409   -1.4549   -1.4398 H   0  0  0  0  0  0  0  0  0  0  0  0
    1.8082    0.8503   -1.8167 H   0  0  0  0  0  0  0  0  0  0  0  0
    0.6965    1.3493    1.0024 H   0  0  0  0  0  0  0  0  0  0  0  0
    1.3129    2.5842   -0.1268 H   0  0  0  0  0  0  0  0  0  0  0  0
   -0.8781    2.8797   -0.5995 H   0  0  0  0  0  0  0  0  0  0  0  0
   -1.4149    1.3639    0.1668 H   0  0  0  0  0  0  0  0  0  0  0  0
    2.4198   -0.2184    0.9454 H   0  0  0  0  0  0  0  0  0  0  0  0
    6.4737    0.0690   -1.3521 H   0  0  0  0  0  0  0  0  0  0  0  0
    8.4895   -0.6431   -0.0780 H   0  0  0  0  0  0  0  0  0  0  0  0
    4.0625   -0.7843    1.9877 H   0  0  0  0  0  0  0  0  0  0  0  0
  1  2  1  0
  2  3  1  0
  3  4  2  0
  4  5  1  0
  5  6  2  0
  6  7  1  0
  7  8  2  0
  6  9  1  0
  9 10  2  0
  9 11  2  0
  9 12  1  0
 12 13  1  0
 13 14  1  0
 14 15  1  0
 15 16  1  0
 16 17  1  0
 15 18  1  0
 18 19  1  0
 19 20  2  0
 19 21  1  0
 21 22  2  0
 22 23  1  0
 23 24  2  0
 24 25  1  0
 24 26  1  0
 26 27  1  0
 26 28  2  0
  8  3  1  0
 17 12  1  0
 28 21  1  0
  1 29  1  0
  1 30  1  0
  1 31  1  0
  4 32  1  0
  5 33  1  0
  7 34  1  0
  8 35  1  0
 13 36  1  0
 13 37  1  0
 14 38  1  0
 14 39  1  0
 15 40  1  0
 16 41  1  0
 16 42  1  0
 17 43  1  0
 17 44  1  0
 18 45  1  0
 22 46  1  0
 23 47  1  0
 28 48  1  0
M  END
$$$$
[H]c1c([H])c(S(=O)(=O)N2C([H])([H])C([H])([H])C([H])(c3c([H])n([H])c4c([H])c([H])c(F)c([H])c34)C([H])([H])C2([H])[H])c([H])c([H])c1C(F)(F)F
     RDKit          3D

 47 50  0  0  0  0  0  0  0  0999 V2000
   -7.7774   -1.6577    1.6150 F   0  0  0  0  0  0  0  0  0  0  0  0
   -7.7019   -0.7813    0.5741 C   0  0  0  0  0  0  0  0  0  0  0  0
   -8.2142   -1.3112   -0.5898 F   0  0  0  0  0  0  0  0  0  0  0  0
   -8.4988    0.3099    0.8710 F   0  0  0  0  0  0  0  0  0  0  0  0
   -6.2860   -0.3501    0.3592 C   0  0  0  0  0  0  0  0  0  0  0  0
   -5.5576    0.2867    1.3268 C   0  0  0  0  0  0  0  0  0  0  0  0
   -4.2410    0.7044    1.0814 C   0  0  0  0  0  0  0  0  0  0  0  0
   -3.6120    0.5088   -0.1109 C   0  0  0  0  0  0  0  0  0  0  0  0
   -4.3929   -0.1553   -1.0851 C   0  0  0  0  0  0  0  0  0  0  0  0
   -5.6779   -0.5726   -0.8702 C   0  0  0  0  0  0  0  0  0  0  0  0
   -2.0639    1.0801   -0.5471 S   0  0  0  0  0  0  0  0  0  0  0  0
   -2.0301    1.2524   -2.1023 O   0  0  0  0  0  0  0  0  0  0  0  0
   -1.8501    2.5230   -0.0550 O   0  0  0  0  0  0  0  0  0  0  0  0
   -0.6803    0.2320   -0.1243 N   0  0  0  0  0  0  0  0  0  0  0  0
   -0.3421    0.0456    1.1845 C   0  0  0  0  0  0  0  0  0  0  0  0
    1.1063    0.1709    1.6410 C   0  0  0  0  0  0  0  0  0  0  0  0
    2.0506    0.6329    0.6123 C   0  0  0  0  0  0  0  0  0  0  0  0
    1.5684    1.0190   -0.7341 C   0  0  0  0  0  0  0  0  0  0  0  0
    0.3162    0.3229   -1.1671 C   0  0  0  0  0  0  0  0  0  0  0  0
    3.4983    0.3623    0.7334 C   0  0  0  0  0  0  0  0  0  0  0  0
    4.4949    0.9103    1.5102 C   0  0  0  0  0  0  0  0  0  0  0  0
    5.7138    0.5631    1.0431 N   0  0  0  0  0  0  0  0  0  0  0  0
    5.5717   -0.2339   -0.0557 C   0  0  0  0  0  0  0  0  0  0  0  0
    6.4730   -0.9112   -0.8499 C   0  0  0  0  0  0  0  0  0  0  0  0
    6.0500   -1.7394   -1.8575 C   0  0  0  0  0  0  0  0  0  0  0  0
    4.7000   -1.8727   -2.0384 C   0  0  0  0  0  0  0  0  0  0  0  0
    4.2543   -2.7322   -3.0169 F   0  0  0  0  0  0  0  0  0  0  0  0
    3.8098   -1.1897   -1.2423 C   0  0  0  0  0  0  0  0  0  0  0  0
    4.2335   -0.3498   -0.2350 C   0  0  0  0  0  0  0  0  0  0  0  0
   -6.0116    0.4605    2.2894 H   0  0  0  0  0  0  0  0  0  0  0  0
   -3.6973    1.2126    1.8832 H   0  0  0  0  0  0  0  0  0  0  0  0
   -3.9207   -0.3420   -2.0735 H   0  0  0  0  0  0  0  0  0  0  0  0
   -6.2606   -1.0794   -1.6117 H   0  0  0  0  0  0  0  0  0  0  0  0
   -0.6869   -0.9840    1.5000 H   0  0  0  0  0  0  0  0  0  0  0  0
   -0.9779    0.7191    1.8414 H   0  0  0  0  0  0  0  0  0  0  0  0
    1.0915    0.7584    2.5750 H   0  0  0  0  0  0  0  0  0  0  0  0
    1.3938   -0.8735    2.0452 H   0  0  0  0  0  0  0  0  0  0  0  0
    2.1322    1.8188    1.0489 H   0  0  0  0  0  0  0  0  0  0  0  0
    1.3281    2.1401   -0.8089 H   0  0  0  0  0  0  0  0  0  0  0  0
    2.3529    0.9032   -1.4797 H   0  0  0  0  0  0  0  0  0  0  0  0
   -0.1025    0.9149   -1.9959 H   0  0  0  0  0  0  0  0  0  0  0  0
    0.4810   -0.6858   -1.5694 H   0  0  0  0  0  0  0  0  0  0  0  0
    4.2953    1.5551    2.3720 H   0  0  0  0  0  0  0  0  0  0  0  0
    6.6321    0.8339    1.4394 H   0  0  0  0  0  0  0  0  0  0  0  0
    7.5139   -0.7836   -0.6835 H   0  0  0  0  0  0  0  0  0  0  0  0
    6.7382   -2.2857   -2.4872 H   0  0  0  0  0  0  0  0  0  0  0  0
    2.7839   -1.3498   -1.4297 H   0  0  0  0  0  0  0  0  0  0  0  0
  1  2  1  0
  2  3  1  0
  2  4  1  0
  2  5  1  0
  5  6  2  0
  6  7  1  0
  7  8  2  0
  8  9  1  0
  9 10  2  0
  8 11  1  0
 11 12  2  0
 11 13  2  0
 11 14  1  0
 14 15  1  0
 15 16  1  0
 16 17  1  0
 17 18  1  0
 18 19  1  0
 17 20  1  0
 20 21  2  0
 21 22  1  0
 22 23  1  0
 23 24  2  0
 24 25  1  0
 25 26  2  0
 26 27  1  0
 26 28  1  0
 28 29  2  0
 10  5  1  0
 19 14  1  0
 29 20  1  0
 29 23  1  0
  6 30  1  0
  7 31  1  0
  9 32  1  0
 10 33  1  0
 15 34  1  0
 15 35  1  0
 16 36  1  0
 16 37  1  0
 17 38  1  0
 18 39  1  0
 18 40  1  0
 19 41  1  0
 19 42  1  0
 21 43  1  0
 22 44  1  0
 24 45  1  0
 25 46  1  0
 28 47  1  0
M  END
$$$$
[H]c1c([H])c(S(=O)(=O)N2C([H])([H])C([H])([H])C([H])(c3c([H])n([H])c4c([H])c([H])c(F)c([H])c34)C([H])([H])C2([H])[H])c([H])c([H])c1OC([H])([H])[H]
     RDKit          3D

 48 51  0  0  0  0  0  0  0  0999 V2000
    7.9993    0.3570    1.3775 C   0  0  0  0  0  0  0  0  0  0  0  0
    7.2177    0.3459    0.2051 O   0  0  0  0  0  0  0  0  0  0  0  0
    5.9025   -0.0967    0.2265 C   0  0  0  0  0  0  0  0  0  0  0  0
    5.2884   -0.5443    1.3703 C   0  0  0  0  0  0  0  0  0  0  0  0
    3.9624   -0.9924    1.3975 C   0  0  0  0  0  0  0  0  0  0  0  0
    3.2273   -0.9896    0.2300 C   0  0  0  0  0  0  0  0  0  0  0  0
    3.8194   -0.5447   -0.9345 C   0  0  0  0  0  0  0  0  0  0  0  0
    5.1299   -0.1070   -0.9385 C   0  0  0  0  0  0  0  0  0  0  0  0
    1.5677   -1.5252    0.1285 S   0  0  0  0  0  0  0  0  0  0  0  0
    1.2815   -2.1193   -1.2272 O   0  0  0  0  0  0  0  0  0  0  0  0
    1.2938   -2.6243    1.1220 O   0  0  0  0  0  0  0  0  0  0  0  0
    0.4660   -0.2643    0.4208 N   0  0  0  0  0  0  0  0  0  0  0  0
    0.5120    0.8245   -0.4805 C   0  0  0  0  0  0  0  0  0  0  0  0
   -0.7628    1.2785   -1.0852 C   0  0  0  0  0  0  0  0  0  0  0  0
   -1.9854    1.1906   -0.2460 C   0  0  0  0  0  0  0  0  0  0  0  0
   -1.6741    0.5388    1.0982 C   0  0  0  0  0  0  0  0  0  0  0  0
   -0.8353   -0.6883    0.8107 C   0  0  0  0  0  0  0  0  0  0  0  0
   -3.0649    0.4268   -0.9291 C   0  0  0  0  0  0  0  0  0  0  0  0
   -3.0369   -0.3813   -2.0374 C   0  0  0  0  0  0  0  0  0  0  0  0
   -4.2882   -0.8518   -2.2280 N   0  0  0  0  0  0  0  0  0  0  0  0
   -5.1251   -0.3928   -1.3042 C   0  0  0  0  0  0  0  0  0  0  0  0
   -6.4887   -0.5577   -1.0455 C   0  0  0  0  0  0  0  0  0  0  0  0
   -7.0777    0.0757    0.0193 C   0  0  0  0  0  0  0  0  0  0  0  0
   -6.3568    0.8894    0.8641 C   0  0  0  0  0  0  0  0  0  0  0  0
   -6.9497    1.5207    1.9271 F   0  0  0  0  0  0  0  0  0  0  0  0
   -5.0085    1.0480    0.6026 C   0  0  0  0  0  0  0  0  0  0  0  0
   -4.3903    0.4162   -0.4687 C   0  0  0  0  0  0  0  0  0  0  0  0
    9.0895    0.4078    1.1540 H   0  0  0  0  0  0  0  0  0  0  0  0
    7.8682   -0.5527    2.0010 H   0  0  0  0  0  0  0  0  0  0  0  0
    7.7657    1.2434    2.0047 H   0  0  0  0  0  0  0  0  0  0  0  0
    5.8587   -0.5532    2.3133 H   0  0  0  0  0  0  0  0  0  0  0  0
    3.5089   -1.3341    2.2986 H   0  0  0  0  0  0  0  0  0  0  0  0
    3.2687   -0.5281   -1.8816 H   0  0  0  0  0  0  0  0  0  0  0  0
    5.6367    0.2522   -1.8372 H   0  0  0  0  0  0  0  0  0  0  0  0
    1.1869    0.5168   -1.3333 H   0  0  0  0  0  0  0  0  0  0  0  0
    1.0788    1.6762   -0.0008 H   0  0  0  0  0  0  0  0  0  0  0  0
   -0.6147    2.3875   -1.3056 H   0  0  0  0  0  0  0  0  0  0  0  0
   -0.9022    0.8498   -2.1034 H   0  0  0  0  0  0  0  0  0  0  0  0
   -2.4240    2.1860    0.0127 H   0  0  0  0  0  0  0  0  0  0  0  0
   -1.0030    1.2500    1.6360 H   0  0  0  0  0  0  0  0  0  0  0  0
   -2.5725    0.2703    1.6471 H   0  0  0  0  0  0  0  0  0  0  0  0
   -1.3074   -1.3835    0.0980 H   0  0  0  0  0  0  0  0  0  0  0  0
   -0.7541   -1.2271    1.7816 H   0  0  0  0  0  0  0  0  0  0  0  0
   -2.1626   -0.5930   -2.6356 H   0  0  0  0  0  0  0  0  0  0  0  0
   -4.5581   -1.5004   -3.0134 H   0  0  0  0  0  0  0  0  0  0  0  0
   -7.0233   -1.2059   -1.7315 H   0  0  0  0  0  0  0  0  0  0  0  0
   -8.1502   -0.0778    0.1915 H   0  0  0  0  0  0  0  0  0  0  0  0
   -4.4134    1.6833    1.2408 H   0  0  0  0  0  0  0  0  0  0  0  0
  1  2  1  0
  2  3  1  0
  3  4  2  0
  4  5  1  0
  5  6  2  0
  6  7  1  0
  7  8  2  0
  6  9  1  0
  9 10  2  0
  9 11  2  0
  9 12  1  0
 12 13  1  0
 13 14  1  0
 14 15  1  0
 15 16  1  0
 16 17  1  0
 15 18  1  0
 18 19  2  0
 19 20  1  0
 20 21  1  0
 21 22  2  0
 22 23  1  0
 23 24  2  0
 24 25  1  0
 24 26  1  0
 26 27  2  0
  8  3  1  0
 17 12  1  0
 27 18  1  0
 27 21  1  0
  1 28  1  0
  1 29  1  0
  1 30  1  0
  4 31  1  0
  5 32  1  0
  7 33  1  0
  8 34  1  0
 13 35  1  0
 13 36  1  0
 14 37  1  0
 14 38  1  0
 15 39  1  0
 16 40  1  0
 16 41  1  0
 17 42  1  0
 17 43  1  0
 19 44  1  0
 20 45  1  0
 22 46  1  0
 23 47  1  0
 26 48  1  0
M  END
$$$$
[H]c1c([H])c(S(=O)(=O)N2C([H])([H])C([H])([H])N(c3c([H])c([H])c(C(F)(F)F)c([H])c3[H])C([H])([H])C2([H])[H])c([H])c([H])c1OC([H])([H])[H]
     RDKit          3D

 46 48  0  0  0  0  0  0  0  0999 V2000
    8.0242    1.5571    0.4412 C   0  0  0  0  0  0  0  0  0  0  0  0
    7.1144    0.8968   -0.3742 O   0  0  0  0  0  0  0  0  0  0  0  0
    5.7654    0.7229   -0.1540 C   0  0  0  0  0  0  0  0  0  0  0  0
    4.9993    0.0339   -1.0679 C   0  0  0  0  0  0  0  0  0  0  0  0
    3.6210   -0.1567   -0.8859 C   0  0  0  0  0  0  0  0  0  0  0  0
    2.9580    0.3211    0.1849 C   0  0  0  0  0  0  0  0  0  0  0  0
    3.7629    1.0263    1.1138 C   0  0  0  0  0  0  0  0  0  0  0  0
    5.1043    1.2150    0.9515 C   0  0  0  0  0  0  0  0  0  0  0  0
    1.2571    0.1818    0.5710 S   0  0  0  0  0  0  0  0  0  0  0  0
    1.1486    0.2822    2.0976 O   0  0  0  0  0  0  0  0  0  0  0  0
    0.6283    1.5684    0.1530 O   0  0  0  0  0  0  0  0  0  0  0  0
    0.3972   -1.0595    0.0082 N   0  0  0  0  0  0  0  0  0  0  0  0
    0.1757   -1.2742   -1.3588 C   0  0  0  0  0  0  0  0  0  0  0  0
   -1.2539   -0.7062   -1.6709 C   0  0  0  0  0  0  0  0  0  0  0  0
   -2.1213   -1.2097   -0.6295 N   0  0  0  0  0  0  0  0  0  0  0  0
   -1.6709   -2.3243    0.1786 C   0  0  0  0  0  0  0  0  0  0  0  0
   -0.3657   -1.8873    0.8503 C   0  0  0  0  0  0  0  0  0  0  0  0
   -3.3987   -0.5992   -0.3725 C   0  0  0  0  0  0  0  0  0  0  0  0
   -3.4506    0.7371   -0.0671 C   0  0  0  0  0  0  0  0  0  0  0  0
   -4.6477    1.3797    0.1348 C   0  0  0  0  0  0  0  0  0  0  0  0
   -5.8481    0.7336    0.0424 C   0  0  0  0  0  0  0  0  0  0  0  0
   -5.8303   -0.6285   -0.2630 C   0  0  0  0  0  0  0  0  0  0  0  0
   -4.6042   -1.2823   -0.4690 C   0  0  0  0  0  0  0  0  0  0  0  0
   -7.1332    1.4576    0.2480 C   0  0  0  0  0  0  0  0  0  0  0  0
   -6.8467    2.6940    0.8260 F   0  0  0  0  0  0  0  0  0  0  0  0
   -8.0057    0.7962    1.0830 F   0  0  0  0  0  0  0  0  0  0  0  0
   -7.6747    1.6921   -0.9982 F   0  0  0  0  0  0  0  0  0  0  0  0
    7.6119    2.1766    1.2487 H   0  0  0  0  0  0  0  0  0  0  0  0
    8.7462    0.7830    0.8262 H   0  0  0  0  0  0  0  0  0  0  0  0
    8.6548    2.2620   -0.1888 H   0  0  0  0  0  0  0  0  0  0  0  0
    5.4855   -0.3760   -1.9530 H   0  0  0  0  0  0  0  0  0  0  0  0
    3.0719   -0.7384   -1.6389 H   0  0  0  0  0  0  0  0  0  0  0  0
    3.2519    1.4155    1.9957 H   0  0  0  0  0  0  0  0  0  0  0  0
    5.6940    1.7757    1.6893 H   0  0  0  0  0  0  0  0  0  0  0  0
    0.1095   -2.3701   -1.5917 H   0  0  0  0  0  0  0  0  0  0  0  0
    0.8806   -0.8474   -2.0615 H   0  0  0  0  0  0  0  0  0  0  0  0
   -1.5223   -0.9614   -2.6839 H   0  0  0  0  0  0  0  0  0  0  0  0
   -1.2286    0.4214   -1.5412 H   0  0  0  0  0  0  0  0  0  0  0  0
   -2.3606   -2.5685    0.9862 H   0  0  0  0  0  0  0  0  0  0  0  0
   -1.5033   -3.2231   -0.4101 H   0  0  0  0  0  0  0  0  0  0  0  0
    0.2305   -2.8044    1.1367 H   0  0  0  0  0  0  0  0  0  0  0  0
   -0.6546   -1.4206    1.8158 H   0  0  0  0  0  0  0  0  0  0  0  0
   -2.5515    1.3483    0.0289 H   0  0  0  0  0  0  0  0  0  0  0  0
   -4.6622    2.4575    0.3790 H   0  0  0  0  0  0  0  0  0  0  0  0
   -6.7503   -1.1796   -0.3436 H   0  0  0  0  0  0  0  0  0  0  0  0
   -4.6080   -2.3182   -0.6877 H   0  0  0  0  0  0  0  0  0  0  0  0
  1  2  1  0
  2  3  1  0
  3  4  2  0
  4  5  1  0
  5  6  2  0
  6  7  1  0
  7  8  2  0
  6  9  1  0
  9 10  2  0
  9 11  2  0
  9 12  1  0
 12 13  1  0
 13 14  1  0
 14 15  1  0
 15 16  1  0
 16 17  1  0
 15 18  1  0
 18 19  2  0
 19 20  1  0
 20 21  2  0
 21 22  1  0
 22 23  2  0
 21 24  1  0
 24 25  1  0
 24 26  1  0
 24 27  1  0
  8  3  1  0
 17 12  1  0
 23 18  1  0
  1 28  1  0
  1 29  1  0
  1 30  1  0
  4 31  1  0
  5 32  1  0
  7 33  1  0
  8 34  1  0
 13 35  1  0
 13 36  1  0
 14 37  1  0
 14 38  1  0
 16 39  1  0
 16 40  1  0
 17 41  1  0
 17 42  1  0
 19 43  1  0
 20 44  1  0
 22 45  1  0
 23 46  1  0
M  END
$$$$
[H]c1c([H])c(S(=O)(=O)N2C([H])([H])C([H])([H])C([H])(c3c([H])n([H])c4c([H])c([H])c(C#N)c([H])c34)C([H])([H])C2([H])[H])c([H])c([H])c1OC([H])([H])[H]
     RDKit          3D

 49 52  0  0  0  0  0  0  0  0999 V2000
    8.5786    0.4687    0.5369 C   0  0  0  0  0  0  0  0  0  0  0  0
    7.6526   -0.3186   -0.1345 O   0  0  0  0  0  0  0  0  0  0  0  0
    6.3094   -0.0925   -0.3193 C   0  0  0  0  0  0  0  0  0  0  0  0
    5.5141   -1.0068   -1.0371 C   0  0  0  0  0  0  0  0  0  0  0  0
    4.1731   -0.7655   -1.2010 C   0  0  0  0  0  0  0  0  0  0  0  0
    3.5220    0.3487   -0.6913 C   0  0  0  0  0  0  0  0  0  0  0  0
    4.3154    1.2428    0.0129 C   0  0  0  0  0  0  0  0  0  0  0  0
    5.6767    1.0144    0.1878 C   0  0  0  0  0  0  0  0  0  0  0  0
    1.8163    0.5448   -0.9791 S   0  0  0  0  0  0  0  0  0  0  0  0
    1.4549    2.0128   -0.8132 O   0  0  0  0  0  0  0  0  0  0  0  0
    1.4633    0.1070   -2.3775 O   0  0  0  0  0  0  0  0  0  0  0  0
    0.9263   -0.4043    0.1343 N   0  0  0  0  0  0  0  0  0  0  0  0
    0.0893    0.3613    1.0429 C   0  0  0  0  0  0  0  0  0  0  0  0
   -1.2240    0.7153    0.3955 C   0  0  0  0  0  0  0  0  0  0  0  0
   -2.0210   -0.3951   -0.1953 C   0  0  0  0  0  0  0  0  0  0  0  0
   -1.1698   -1.6545   -0.0333 C   0  0  0  0  0  0  0  0  0  0  0  0
    0.2404   -1.5199   -0.4642 C   0  0  0  0  0  0  0  0  0  0  0  0
   -3.2498   -0.6702    0.6085 C   0  0  0  0  0  0  0  0  0  0  0  0
   -3.4608   -1.5469    1.6372 C   0  0  0  0  0  0  0  0  0  0  0  0
   -4.7916   -1.5317    1.9615 N   0  0  0  0  0  0  0  0  0  0  0  0
   -5.4199   -0.6539    1.1490 C   0  0  0  0  0  0  0  0  0  0  0  0
   -6.7341   -0.2041    1.0845 C   0  0  0  0  0  0  0  0  0  0  0  0
   -7.1120    0.7873    0.1875 C   0  0  0  0  0  0  0  0  0  0  0  0
   -6.1526    1.3576   -0.6807 C   0  0  0  0  0  0  0  0  0  0  0  0
   -4.8814    0.8807   -0.5794 C   0  0  0  0  0  0  0  0  0  0  0  0
   -4.4999   -0.1008    0.2997 C   0  0  0  0  0  0  0  0  0  0  0  0
   -6.5487    2.4045   -1.5687 C   0  0  0  0  0  0  0  0  0  0  0  0
   -6.8647    3.2478   -2.3277 N   0  0  0  0  0  0  0  0  0  0  0  0
    9.6076    0.2056    0.2236 H   0  0  0  0  0  0  0  0  0  0  0  0
    8.4657    0.3098    1.6541 H   0  0  0  0  0  0  0  0  0  0  0  0
    8.4482    1.5617    0.3502 H   0  0  0  0  0  0  0  0  0  0  0  0
    5.9779   -1.8825   -1.4282 H   0  0  0  0  0  0  0  0  0  0  0  0
    3.6010   -1.4983   -1.7530 H   0  0  0  0  0  0  0  0  0  0  0  0
    3.8654    2.1369    0.4162 H   0  0  0  0  0  0  0  0  0  0  0  0
    6.2725    1.7183    0.7312 H   0  0  0  0  0  0  0  0  0  0  0  0
   -0.1173   -0.2060    1.9542 H   0  0  0  0  0  0  0  0  0  0  0  0
    0.5739    1.3601    1.2801 H   0  0  0  0  0  0  0  0  0  0  0  0
   -0.9061    1.3749   -0.5053 H   0  0  0  0  0  0  0  0  0  0  0  0
   -1.7987    1.3757    1.0921 H   0  0  0  0  0  0  0  0  0  0  0  0
   -2.3067   -0.2880   -1.2466 H   0  0  0  0  0  0  0  0  0  0  0  0
   -1.1249   -1.7828    1.0944 H   0  0  0  0  0  0  0  0  0  0  0  0
   -1.6887   -2.4896   -0.4740 H   0  0  0  0  0  0  0  0  0  0  0  0
    0.7667   -2.4439   -0.0393 H   0  0  0  0  0  0  0  0  0  0  0  0
    0.4261   -1.5791   -1.5228 H   0  0  0  0  0  0  0  0  0  0  0  0
   -2.7469   -2.1825    2.1255 H   0  0  0  0  0  0  0  0  0  0  0  0
   -5.1918   -2.1392    2.7223 H   0  0  0  0  0  0  0  0  0  0  0  0
   -7.4557   -0.6419    1.7409 H   0  0  0  0  0  0  0  0  0  0  0  0
   -8.1425    1.1368    0.1646 H   0  0  0  0  0  0  0  0  0  0  0  0
   -4.1275    1.3247   -1.2494 H   0  0  0  0  0  0  0  0  0  0  0  0
  1  2  1  0
  2  3  1  0
  3  4  2  0
  4  5  1  0
  5  6  2  0
  6  7  1  0
  7  8  2  0
  6  9  1  0
  9 10  2  0
  9 11  2  0
  9 12  1  0
 12 13  1  0
 13 14  1  0
 14 15  1  0
 15 16  1  0
 16 17  1  0
 15 18  1  0
 18 19  2  0
 19 20  1  0
 20 21  1  0
 21 22  2  0
 22 23  1  0
 23 24  2  0
 24 25  1  0
 25 26  2  0
 24 27  1  0
 27 28  3  0
  8  3  1  0
 17 12  1  0
 26 18  1  0
 26 21  1  0
  1 29  1  0
  1 30  1  0
  1 31  1  0
  4 32  1  0
  5 33  1  0
  7 34  1  0
  8 35  1  0
 13 36  1  0
 13 37  1  0
 14 38  1  0
 14 39  1  0
 15 40  1  0
 16 41  1  0
 16 42  1  0
 17 43  1  0
 17 44  1  0
 19 45  1  0
 20 46  1  0
 22 47  1  0
 23 48  1  0
 25 49  1  0
M  END
$$$$
[H]c1c([H])c(S(=O)(=O)N2C([H])([H])C([H])([H])C([H])(N([H])C(=O)c3c([H])n([H])c4c([H])c([H])c([H])c([H])c34)C([H])([H])C2([H])[H])c([H])c([H])c1C(F)(F)F
     RDKit          3D

 51 54  0  0  0  0  0  0  0  0999 V2000
   -8.3118    1.4474   -1.9294 F   0  0  0  0  0  0  0  0  0  0  0  0
   -8.3745    1.0063   -0.6385 C   0  0  0  0  0  0  0  0  0  0  0  0
   -9.1475   -0.1252   -0.5773 F   0  0  0  0  0  0  0  0  0  0  0  0
   -8.9656    1.9715    0.1768 F   0  0  0  0  0  0  0  0  0  0  0  0
   -7.0164    0.7150   -0.0596 C   0  0  0  0  0  0  0  0  0  0  0  0
   -6.0620    1.6764    0.0985 C   0  0  0  0  0  0  0  0  0  0  0  0
   -4.8211    1.3653    0.6502 C   0  0  0  0  0  0  0  0  0  0  0  0
   -4.5088    0.0999    1.0508 C   0  0  0  0  0  0  0  0  0  0  0  0
   -5.4927   -0.8769    0.8834 C   0  0  0  0  0  0  0  0  0  0  0  0
   -6.7173   -0.5817    0.3428 C   0  0  0  0  0  0  0  0  0  0  0  0
   -3.0259   -0.3846    1.7768 S   0  0  0  0  0  0  0  0  0  0  0  0
   -3.2150   -1.6192    2.6555 O   0  0  0  0  0  0  0  0  0  0  0  0
   -2.5936    0.6996    2.7738 O   0  0  0  0  0  0  0  0  0  0  0  0
   -1.7493   -0.7087    0.7244 N   0  0  0  0  0  0  0  0  0  0  0  0
   -1.2651    0.3436   -0.0842 C   0  0  0  0  0  0  0  0  0  0  0  0
    0.2301    0.5939    0.1600 C   0  0  0  0  0  0  0  0  0  0  0  0
    0.8872   -0.7081   -0.3159 C   0  0  0  0  0  0  0  0  0  0  0  0
    0.4297   -1.8677    0.5085 C   0  0  0  0  0  0  0  0  0  0  0  0
   -0.8439   -1.6430    1.2630 C   0  0  0  0  0  0  0  0  0  0  0  0
    2.3339   -0.5616   -0.2940 N   0  0  0  0  0  0  0  0  0  0  0  0
    3.0981   -0.2565   -1.4426 C   0  0  0  0  0  0  0  0  0  0  0  0
    2.5507   -0.1010   -2.5628 O   0  0  0  0  0  0  0  0  0  0  0  0
    4.5562   -0.1105   -1.3942 C   0  0  0  0  0  0  0  0  0  0  0  0
    5.3875   -0.4523   -2.4678 C   0  0  0  0  0  0  0  0  0  0  0  0
    6.6514   -0.2886   -2.0723 N   0  0  0  0  0  0  0  0  0  0  0  0
    6.6757    0.1415   -0.8014 C   0  0  0  0  0  0  0  0  0  0  0  0
    7.7213    0.4632    0.0539 C   0  0  0  0  0  0  0  0  0  0  0  0
    7.4861    0.9001    1.3334 C   0  0  0  0  0  0  0  0  0  0  0  0
    6.1903    1.0168    1.7564 C   0  0  0  0  0  0  0  0  0  0  0  0
    5.1258    0.7010    0.9214 C   0  0  0  0  0  0  0  0  0  0  0  0
    5.3788    0.2584   -0.3664 C   0  0  0  0  0  0  0  0  0  0  0  0
   -6.2341    2.6947   -0.1958 H   0  0  0  0  0  0  0  0  0  0  0  0
   -4.0933    2.1395    0.7576 H   0  0  0  0  0  0  0  0  0  0  0  0
   -5.3076   -1.9219    1.1818 H   0  0  0  0  0  0  0  0  0  0  0  0
   -7.5108   -1.3180    0.2015 H   0  0  0  0  0  0  0  0  0  0  0  0
   -1.3230   -0.0035   -1.1619 H   0  0  0  0  0  0  0  0  0  0  0  0
   -1.8653    1.2585   -0.0289 H   0  0  0  0  0  0  0  0  0  0  0  0
    0.4626    0.7657    1.2103 H   0  0  0  0  0  0  0  0  0  0  0  0
    0.5416    1.3794   -0.5381 H   0  0  0  0  0  0  0  0  0  0  0  0
    0.5469   -0.8426   -1.3574 H   0  0  0  0  0  0  0  0  0  0  0  0
    0.4159   -2.8309   -0.0471 H   0  0  0  0  0  0  0  0  0  0  0  0
    1.2476   -2.0253    1.2837 H   0  0  0  0  0  0  0  0  0  0  0  0
   -0.6236   -1.4761    2.3527 H   0  0  0  0  0  0  0  0  0  0  0  0
   -1.3779   -2.6485    1.2470 H   0  0  0  0  0  0  0  0  0  0  0  0
    2.7977   -0.7295    0.6487 H   0  0  0  0  0  0  0  0  0  0  0  0
    5.0690   -0.7924   -3.4642 H   0  0  0  0  0  0  0  0  0  0  0  0
    7.5173   -0.4724   -2.6719 H   0  0  0  0  0  0  0  0  0  0  0  0
    8.7250    0.3521   -0.3162 H   0  0  0  0  0  0  0  0  0  0  0  0
    8.3127    1.1514    2.0066 H   0  0  0  0  0  0  0  0  0  0  0  0
    5.9813    1.3696    2.7663 H   0  0  0  0  0  0  0  0  0  0  0  0
    4.1259    0.8359    1.2871 H   0  0  0  0  0  0  0  0  0  0  0  0
  1  2  1  0
  2  3  1  0
  2  4  1  0
  2  5  1  0
  5  6  2  0
  6  7  1  0
  7  8  2  0
  8  9  1  0
  9 10  2  0
  8 11  1  0
 11 12  2  0
 11 13  2  0
 11 14  1  0
 14 15  1  0
 15 16  1  0
 16 17  1  0
 17 18  1  0
 18 19  1  0
 17 20  1  0
 20 21  1  0
 21 22  2  0
 21 23  1  0
 23 24  2  0
 24 25  1  0
 25 26  1  0
 26 27  2  0
 27 28  1  0
 28 29  2  0
 29 30  1  0
 30 31  2  0
 10  5  1  0
 19 14  1  0
 31 23  1  0
 31 26  1  0
  6 32  1  0
  7 33  1  0
  9 34  1  0
 10 35  1  0
 15 36  1  0
 15 37  1  0
 16 38  1  0
 16 39  1  0
 17 40  1  0
 18 41  1  0
 18 42  1  0
 19 43  1  0
 19 44  1  0
 20 45  1  0
 24 46  1  0
 25 47  1  0
 27 48  1  0
 28 49  1  0
 29 50  1  0
 30 51  1  0
M  END
$$$$
[H]c1c([H])c(C2([H])C([H])([H])C([H])([H])N(S(=O)(=O)c3c([H])c(OC([H])([H])[H])c(OC([H])([H])[H])c(OC([H])([H])[H])c3[H])C([H])([H])C2([H])[H])c([H])c([H])c1F
     RDKit          3D

 52 54  0  0  0  0  0  0  0  0999 V2000
   -3.7923    3.8241   -0.1327 C   0  0  0  0  0  0  0  0  0  0  0  0
   -4.2928    2.6351   -0.7083 O   0  0  0  0  0  0  0  0  0  0  0  0
   -3.7573    1.4100   -0.3882 C   0  0  0  0  0  0  0  0  0  0  0  0
   -2.7160    1.3375    0.5077 C   0  0  0  0  0  0  0  0  0  0  0  0
   -2.1178    0.1546    0.8871 C   0  0  0  0  0  0  0  0  0  0  0  0
   -2.6151   -0.9962    0.3189 C   0  0  0  0  0  0  0  0  0  0  0  0
   -3.6679   -0.9575   -0.5910 C   0  0  0  0  0  0  0  0  0  0  0  0
   -4.1494   -2.1415   -1.1494 O   0  0  0  0  0  0  0  0  0  0  0  0
   -3.5586   -3.3748   -0.7822 C   0  0  0  0  0  0  0  0  0  0  0  0
   -4.2379    0.2479   -0.9433 C   0  0  0  0  0  0  0  0  0  0  0  0
   -5.2922    0.2472   -1.8591 O   0  0  0  0  0  0  0  0  0  0  0  0
   -6.6433    0.1422   -1.4813 C   0  0  0  0  0  0  0  0  0  0  0  0
   -0.7996    0.0860    2.0241 S   0  0  0  0  0  0  0  0  0  0  0  0
   -0.9449    1.2158    3.0007 O   0  0  0  0  0  0  0  0  0  0  0  0
   -0.9008   -1.2535    2.7292 O   0  0  0  0  0  0  0  0  0  0  0  0
    0.6884    0.2113    1.1575 N   0  0  0  0  0  0  0  0  0  0  0  0
    0.8988   -0.8340    0.2390 C   0  0  0  0  0  0  0  0  0  0  0  0
    2.2569   -1.1284   -0.2109 C   0  0  0  0  0  0  0  0  0  0  0  0
    3.3801   -0.4648    0.5192 C   0  0  0  0  0  0  0  0  0  0  0  0
    2.9575    0.8911    1.0796 C   0  0  0  0  0  0  0  0  0  0  0  0
    1.7862    0.5447    2.0100 C   0  0  0  0  0  0  0  0  0  0  0  0
    4.5902   -0.2981   -0.3353 C   0  0  0  0  0  0  0  0  0  0  0  0
    5.8030   -0.8321    0.0047 C   0  0  0  0  0  0  0  0  0  0  0  0
    6.9351   -0.6924   -0.7668 C   0  0  0  0  0  0  0  0  0  0  0  0
    6.8169    0.0284   -1.9412 C   0  0  0  0  0  0  0  0  0  0  0  0
    7.8925    0.2062   -2.7512 F   0  0  0  0  0  0  0  0  0  0  0  0
    5.5954    0.5681   -2.2867 C   0  0  0  0  0  0  0  0  0  0  0  0
    4.4594    0.4306   -1.5171 C   0  0  0  0  0  0  0  0  0  0  0  0
   -2.6736    3.8821   -0.2297 H   0  0  0  0  0  0  0  0  0  0  0  0
   -4.0311    3.8208    0.9562 H   0  0  0  0  0  0  0  0  0  0  0  0
   -4.2294    4.7149   -0.6226 H   0  0  0  0  0  0  0  0  0  0  0  0
   -2.3029    2.2374    0.9731 H   0  0  0  0  0  0  0  0  0  0  0  0
   -2.1598   -1.9436    0.6023 H   0  0  0  0  0  0  0  0  0  0  0  0
   -2.4337   -3.3271   -0.8719 H   0  0  0  0  0  0  0  0  0  0  0  0
   -3.9410   -4.1902   -1.4206 H   0  0  0  0  0  0  0  0  0  0  0  0
   -3.8272   -3.5568    0.2949 H   0  0  0  0  0  0  0  0  0  0  0  0
   -6.8882   -0.9320   -1.3155 H   0  0  0  0  0  0  0  0  0  0  0  0
   -6.8698    0.6992   -0.5571 H   0  0  0  0  0  0  0  0  0  0  0  0
   -7.2914    0.5639   -2.2753 H   0  0  0  0  0  0  0  0  0  0  0  0
    0.4439   -1.7728    0.6772 H   0  0  0  0  0  0  0  0  0  0  0  0
    0.2452   -0.6355   -0.6632 H   0  0  0  0  0  0  0  0  0  0  0  0
    2.4711   -2.2383   -0.1853 H   0  0  0  0  0  0  0  0  0  0  0  0
    2.3922   -0.8679   -1.3033 H   0  0  0  0  0  0  0  0  0  0  0  0
    3.6923   -1.0661    1.3978 H   0  0  0  0  0  0  0  0  0  0  0  0
    2.6294    1.5123    0.2462 H   0  0  0  0  0  0  0  0  0  0  0  0
    3.7358    1.3105    1.7122 H   0  0  0  0  0  0  0  0  0  0  0  0
    1.5253    1.4272    2.6005 H   0  0  0  0  0  0  0  0  0  0  0  0
    2.1386   -0.3187    2.6238 H   0  0  0  0  0  0  0  0  0  0  0  0
    5.9261   -1.4067    0.9272 H   0  0  0  0  0  0  0  0  0  0  0  0
    7.8973   -1.1219   -0.4870 H   0  0  0  0  0  0  0  0  0  0  0  0
    5.4762    1.1401   -3.2068 H   0  0  0  0  0  0  0  0  0  0  0  0
    3.4999    0.8620   -1.8012 H   0  0  0  0  0  0  0  0  0  0  0  0
  1  2  1  0
  2  3  1  0
  3  4  2  0
  4  5  1  0
  5  6  2  0
  6  7  1  0
  7  8  1  0
  8  9  1  0
  7 10  2  0
 10 11  1  0
 11 12  1  0
  5 13  1  0
 13 14  2  0
 13 15  2  0
 13 16  1  0
 16 17  1  0
 17 18  1  0
 18 19  1  0
 19 20  1  0
 20 21  1  0
 19 22  1  0
 22 23  2  0
 23 24  1  0
 24 25  2  0
 25 26  1  0
 25 27  1  0
 27 28  2  0
 10  3  1  0
 21 16  1  0
 28 22  1  0
  1 29  1  0
  1 30  1  0
  1 31  1  0
  4 32  1  0
  6 33  1  0
  9 34  1  0
  9 35  1  0
  9 36  1  0
 12 37  1  0
 12 38  1  0
 12 39  1  0
 17 40  1  0
 17 41  1  0
 18 42  1  0
 18 43  1  0
 19 44  1  0
 20 45  1  0
 20 46  1  0
 21 47  1  0
 21 48  1  0
 23 49  1  0
 24 50  1  0
 27 51  1  0
 28 52  1  0
M  END
$$$$
[H]c1c([H])c(C2([H])C([H])([H])C([H])([H])N(S(=O)(=O)c3c([H])c(OC([H])([H])[H])c(OC([H])([H])[H])c(OC([H])([H])[H])c3[H])C([H])([H])C2([H])[H])c([H])c([H])c1Cl
     RDKit          3D

 52 54  0  0  0  0  0  0  0  0999 V2000
   -3.8291    3.7978   -0.2619 C   0  0  0  0  0  0  0  0  0  0  0  0
   -4.3128    2.5782   -0.7938 O   0  0  0  0  0  0  0  0  0  0  0  0
   -3.7718    1.3656   -0.4417 C   0  0  0  0  0  0  0  0  0  0  0  0
   -2.7317    1.3246    0.4510 C   0  0  0  0  0  0  0  0  0  0  0  0
   -2.1324    0.1537    0.8574 C   0  0  0  0  0  0  0  0  0  0  0  0
   -2.6189   -1.0227    0.3274 C   0  0  0  0  0  0  0  0  0  0  0  0
   -3.6726   -0.9946   -0.5782 C   0  0  0  0  0  0  0  0  0  0  0  0
   -4.1289   -2.2134   -1.0862 O   0  0  0  0  0  0  0  0  0  0  0  0
   -3.5520   -3.4332   -0.7037 C   0  0  0  0  0  0  0  0  0  0  0  0
   -4.2488    0.1895   -0.9635 C   0  0  0  0  0  0  0  0  0  0  0  0
   -5.2994    0.1441   -1.8732 O   0  0  0  0  0  0  0  0  0  0  0  0
   -6.6522    0.0360   -1.5043 C   0  0  0  0  0  0  0  0  0  0  0  0
   -0.8085    0.1387    1.9967 S   0  0  0  0  0  0  0  0  0  0  0  0
   -0.9338    1.3253    2.9080 O   0  0  0  0  0  0  0  0  0  0  0  0
   -0.8773   -1.1624    2.7659 O   0  0  0  0  0  0  0  0  0  0  0  0
    0.6889    0.2454    1.1634 N   0  0  0  0  0  0  0  0  0  0  0  0
    0.9127   -0.8415    0.2879 C   0  0  0  0  0  0  0  0  0  0  0  0
    2.2779   -1.0929   -0.1798 C   0  0  0  0  0  0  0  0  0  0  0  0
    3.3846   -0.4000    0.5440 C   0  0  0  0  0  0  0  0  0  0  0  0
    2.9497    0.9644    1.0717 C   0  0  0  0  0  0  0  0  0  0  0  0
    1.7645    0.6405    1.9925 C   0  0  0  0  0  0  0  0  0  0  0  0
    4.5793   -0.2460   -0.3203 C   0  0  0  0  0  0  0  0  0  0  0  0
    5.7828   -0.7841    0.0534 C   0  0  0  0  0  0  0  0  0  0  0  0
    6.9321   -0.6779   -0.7024 C   0  0  0  0  0  0  0  0  0  0  0  0
    6.8450    0.0103   -1.8944 C   0  0  0  0  0  0  0  0  0  0  0  0
    8.2644    0.1973   -2.9279 Cl  0  0  0  0  0  0  0  0  0  0  0  0
    5.6374    0.5546   -2.2771 C   0  0  0  0  0  0  0  0  0  0  0  0
    4.4854    0.4527   -1.5277 C   0  0  0  0  0  0  0  0  0  0  0  0
   -2.7631    3.9721   -0.4645 H   0  0  0  0  0  0  0  0  0  0  0  0
   -3.9281    3.7029    0.8501 H   0  0  0  0  0  0  0  0  0  0  0  0
   -4.4686    4.6497   -0.5504 H   0  0  0  0  0  0  0  0  0  0  0  0
   -2.3158    2.2388    0.8954 H   0  0  0  0  0  0  0  0  0  0  0  0
   -2.1504   -1.9468    0.6443 H   0  0  0  0  0  0  0  0  0  0  0  0
   -2.4546   -3.4407   -0.7107 H   0  0  0  0  0  0  0  0  0  0  0  0
   -3.9488   -4.2316   -1.3878 H   0  0  0  0  0  0  0  0  0  0  0  0
   -3.8955   -3.6624    0.3402 H   0  0  0  0  0  0  0  0  0  0  0  0
   -6.8857   -0.9938   -1.1669 H   0  0  0  0  0  0  0  0  0  0  0  0
   -6.9413    0.7323   -0.6895 H   0  0  0  0  0  0  0  0  0  0  0  0
   -7.2728    0.3442   -2.3867 H   0  0  0  0  0  0  0  0  0  0  0  0
    0.5382   -1.7752    0.8068 H   0  0  0  0  0  0  0  0  0  0  0  0
    0.1971   -0.7307   -0.5817 H   0  0  0  0  0  0  0  0  0  0  0  0
    2.5263   -2.1955   -0.1845 H   0  0  0  0  0  0  0  0  0  0  0  0
    2.3545   -0.7982   -1.2619 H   0  0  0  0  0  0  0  0  0  0  0  0
    3.6898   -0.9817    1.4362 H   0  0  0  0  0  0  0  0  0  0  0  0
    2.6388    1.5963    0.2351 H   0  0  0  0  0  0  0  0  0  0  0  0
    3.7284    1.3816    1.7091 H   0  0  0  0  0  0  0  0  0  0  0  0
    1.4774    1.5137    2.5823 H   0  0  0  0  0  0  0  0  0  0  0  0
    2.0917   -0.1770    2.6782 H   0  0  0  0  0  0  0  0  0  0  0  0
    5.8920   -1.3400    0.9970 H   0  0  0  0  0  0  0  0  0  0  0  0
    7.8852   -1.1070   -0.4013 H   0  0  0  0  0  0  0  0  0  0  0  0
    5.5324    1.1096   -3.2213 H   0  0  0  0  0  0  0  0  0  0  0  0
    3.5387    0.8895   -1.8459 H   0  0  0  0  0  0  0  0  0  0  0  0
  1  2  1  0
  2  3  1  0
  3  4  2  0
  4  5  1  0
  5  6  2  0
  6  7  1  0
  7  8  1  0
  8  9  1  0
  7 10  2  0
 10 11  1  0
 11 12  1  0
  5 13  1  0
 13 14  2  0
 13 15  2  0
 13 16  1  0
 16 17  1  0
 17 18  1  0
 18 19  1  0
 19 20  1  0
 20 21  1  0
 19 22  1  0
 22 23  2  0
 23 24  1  0
 24 25  2  0
 25 26  1  0
 25 27  1  0
 27 28  2  0
 10  3  1  0
 21 16  1  0
 28 22  1  0
  1 29  1  0
  1 30  1  0
  1 31  1  0
  4 32  1  0
  6 33  1  0
  9 34  1  0
  9 35  1  0
  9 36  1  0
 12 37  1  0
 12 38  1  0
 12 39  1  0
 17 40  1  0
 17 41  1  0
 18 42  1  0
 18 43  1  0
 19 44  1  0
 20 45  1  0
 20 46  1  0
 21 47  1  0
 21 48  1  0
 23 49  1  0
 24 50  1  0
 27 51  1  0
 28 52  1  0
M  END
$$$$
[H]c1c([H])c(C2([H])C([H])([H])C([H])([H])N(S(=O)(=O)c3c([H])c(OC([H])([H])[H])c(OC([H])([H])[H])c(OC([H])([H])[H])c3[H])C([H])([H])C2([H])[H])c([H])c([H])c1C#N
     RDKit          3D

 53 55  0  0  0  0  0  0  0  0999 V2000
   -5.0653    0.3005   -2.1638 C   0  0  0  0  0  0  0  0  0  0  0  0
   -5.1748    0.4030   -0.7485 O   0  0  0  0  0  0  0  0  0  0  0  0
   -4.0919    0.7157    0.0485 C   0  0  0  0  0  0  0  0  0  0  0  0
   -2.8391    0.9459   -0.4926 C   0  0  0  0  0  0  0  0  0  0  0  0
   -1.7829    1.2558    0.3345 C   0  0  0  0  0  0  0  0  0  0  0  0
   -2.0390    1.3215    1.6960 C   0  0  0  0  0  0  0  0  0  0  0  0
   -3.2832    1.0941    2.2474 C   0  0  0  0  0  0  0  0  0  0  0  0
   -3.3920    1.1936    3.6178 O   0  0  0  0  0  0  0  0  0  0  0  0
   -2.3497    1.5021    4.4837 C   0  0  0  0  0  0  0  0  0  0  0  0
   -4.3322    0.7850    1.4107 C   0  0  0  0  0  0  0  0  0  0  0  0
   -5.5885    0.5545    1.9519 O   0  0  0  0  0  0  0  0  0  0  0  0
   -6.4523    1.6712    2.0957 C   0  0  0  0  0  0  0  0  0  0  0  0
   -0.1564    1.5699   -0.2895 S   0  0  0  0  0  0  0  0  0  0  0  0
    0.4583    2.5389    0.7139 O   0  0  0  0  0  0  0  0  0  0  0  0
   -0.3219    2.2547   -1.6169 O   0  0  0  0  0  0  0  0  0  0  0  0
    0.7084    0.1480   -0.3549 N   0  0  0  0  0  0  0  0  0  0  0  0
    0.9761   -0.5878    0.8006 C   0  0  0  0  0  0  0  0  0  0  0  0
    2.2960   -1.3077    0.7604 C   0  0  0  0  0  0  0  0  0  0  0  0
    2.5608   -1.9684   -0.5632 C   0  0  0  0  0  0  0  0  0  0  0  0
    1.5190   -1.7896   -1.6041 C   0  0  0  0  0  0  0  0  0  0  0  0
    0.8443   -0.4375   -1.6193 C   0  0  0  0  0  0  0  0  0  0  0  0
    3.9401   -1.6313   -1.0659 C   0  0  0  0  0  0  0  0  0  0  0  0
    4.9222   -2.5975   -1.1631 C   0  0  0  0  0  0  0  0  0  0  0  0
    6.1920   -2.3068   -1.6208 C   0  0  0  0  0  0  0  0  0  0  0  0
    6.5357   -1.0280   -2.0037 C   0  0  0  0  0  0  0  0  0  0  0  0
    5.5651   -0.0547   -1.9116 C   0  0  0  0  0  0  0  0  0  0  0  0
    4.2805   -0.3524   -1.4477 C   0  0  0  0  0  0  0  0  0  0  0  0
    7.8682   -0.7217   -2.4843 C   0  0  0  0  0  0  0  0  0  0  0  0
    8.9379   -0.4873   -2.8560 N   0  0  0  0  0  0  0  0  0  0  0  0
   -4.3588   -0.5011   -2.3904 H   0  0  0  0  0  0  0  0  0  0  0  0
   -6.0430    0.1018   -2.6091 H   0  0  0  0  0  0  0  0  0  0  0  0
   -4.7420    1.2957   -2.5447 H   0  0  0  0  0  0  0  0  0  0  0  0
   -2.6979    0.8818   -1.5531 H   0  0  0  0  0  0  0  0  0  0  0  0
   -1.1638    1.5725    2.3142 H   0  0  0  0  0  0  0  0  0  0  0  0
   -2.5408    1.2914    5.5323 H   0  0  0  0  0  0  0  0  0  0  0  0
   -1.4722    0.8516    4.1940 H   0  0  0  0  0  0  0  0  0  0  0  0
   -1.9593    2.5485    4.3172 H   0  0  0  0  0  0  0  0  0  0  0  0
   -7.5174    1.3771    2.1925 H   0  0  0  0  0  0  0  0  0  0  0  0
   -6.2930    2.3031    1.1769 H   0  0  0  0  0  0  0  0  0  0  0  0
   -6.0984    2.2534    2.9572 H   0  0  0  0  0  0  0  0  0  0  0  0
    0.1740   -1.2945    1.1082 H   0  0  0  0  0  0  0  0  0  0  0  0
    1.0394    0.1360    1.6672 H   0  0  0  0  0  0  0  0  0  0  0  0
    3.1137   -0.5608    0.9182 H   0  0  0  0  0  0  0  0  0  0  0  0
    2.3619   -1.9958    1.6289 H   0  0  0  0  0  0  0  0  0  0  0  0
    2.5697   -3.0809   -0.3291 H   0  0  0  0  0  0  0  0  0  0  0  0
    2.0242   -1.9055   -2.6065 H   0  0  0  0  0  0  0  0  0  0  0  0
    0.7353   -2.5995   -1.5892 H   0  0  0  0  0  0  0  0  0  0  0  0
   -0.1756   -0.5952   -2.0561 H   0  0  0  0  0  0  0  0  0  0  0  0
    1.3568    0.2385   -2.3407 H   0  0  0  0  0  0  0  0  0  0  0  0
    4.6372   -3.6099   -0.8559 H   0  0  0  0  0  0  0  0  0  0  0  0
    6.9542   -3.0772   -1.6925 H   0  0  0  0  0  0  0  0  0  0  0  0
    5.8123    0.9539   -2.2061 H   0  0  0  0  0  0  0  0  0  0  0  0
    3.5483    0.4316   -1.3885 H   0  0  0  0  0  0  0  0  0  0  0  0
  1  2  1  0
  2  3  1  0
  3  4  2  0
  4  5  1  0
  5  6  2  0
  6  7  1  0
  7  8  1  0
  8  9  1  0
  7 10  2  0
 10 11  1  0
 11 12  1  0
  5 13  1  0
 13 14  2  0
 13 15  2  0
 13 16  1  0
 16 17  1  0
 17 18  1  0
 18 19  1  0
 19 20  1  0
 20 21  1  0
 19 22  1  0
 22 23  2  0
 23 24  1  0
 24 25  2  0
 25 26  1  0
 26 27  2  0
 25 28  1  0
 28 29  3  0
 10  3  1  0
 21 16  1  0
 27 22  1  0
  1 30  1  0
  1 31  1  0
  1 32  1  0
  4 33  1  0
  6 34  1  0
  9 35  1  0
  9 36  1  0
  9 37  1  0
 12 38  1  0
 12 39  1  0
 12 40  1  0
 17 41  1  0
 17 42  1  0
 18 43  1  0
 18 44  1  0
 19 45  1  0
 20 46  1  0
 20 47  1  0
 21 48  1  0
 21 49  1  0
 23 50  1  0
 24 51  1  0
 26 52  1  0
 27 53  1  0
M  END
$$$$
[H]c1c([H])c(C#N)c([H])c(N2C([H])([H])C([H])([H])N(S(=O)(=O)c3c([H])c([H])c(C(F)(F)F)c([H])c3[H])C([H])([H])C2([H])[H])c1[H]
     RDKit          3D

 43 45  0  0  0  0  0  0  0  0999 V2000
    7.7538   -0.4306    0.4831 F   0  0  0  0  0  0  0  0  0  0  0  0
    6.7152   -0.6254    1.3714 C   0  0  0  0  0  0  0  0  0  0  0  0
    6.7754    0.3289    2.3438 F   0  0  0  0  0  0  0  0  0  0  0  0
    6.8171   -1.9108    1.8895 F   0  0  0  0  0  0  0  0  0  0  0  0
    5.4308   -0.5542    0.6029 C   0  0  0  0  0  0  0  0  0  0  0  0
    4.5375   -1.6257    0.5885 C   0  0  0  0  0  0  0  0  0  0  0  0
    3.3525   -1.5228   -0.1328 C   0  0  0  0  0  0  0  0  0  0  0  0
    3.0432   -0.3916   -0.8293 C   0  0  0  0  0  0  0  0  0  0  0  0
    3.9177    0.6640   -0.8187 C   0  0  0  0  0  0  0  0  0  0  0  0
    5.1190    0.5857   -0.0999 C   0  0  0  0  0  0  0  0  0  0  0  0
    1.5596   -0.2598   -1.7281 S   0  0  0  0  0  0  0  0  0  0  0  0
    1.1637   -1.6034   -2.2796 O   0  0  0  0  0  0  0  0  0  0  0  0
    1.7776    0.6277   -2.9473 O   0  0  0  0  0  0  0  0  0  0  0  0
    0.3782    0.4351   -0.7524 N   0  0  0  0  0  0  0  0  0  0  0  0
   -0.0173   -0.2133    0.4207 C   0  0  0  0  0  0  0  0  0  0  0  0
   -1.3994    0.0676    0.9041 C   0  0  0  0  0  0  0  0  0  0  0  0
   -2.2262    0.6922   -0.1115 N   0  0  0  0  0  0  0  0  0  0  0  0
   -1.7150    1.6990   -0.9753 C   0  0  0  0  0  0  0  0  0  0  0  0
   -0.2144    1.6368   -1.1599 C   0  0  0  0  0  0  0  0  0  0  0  0
   -3.5882    0.2910   -0.1948 C   0  0  0  0  0  0  0  0  0  0  0  0
   -4.2498    0.3818   -1.3978 C   0  0  0  0  0  0  0  0  0  0  0  0
   -5.6038    0.0061   -1.4266 C   0  0  0  0  0  0  0  0  0  0  0  0
   -6.2508   -0.4349   -0.3080 C   0  0  0  0  0  0  0  0  0  0  0  0
   -5.5646   -0.5214    0.9028 C   0  0  0  0  0  0  0  0  0  0  0  0
   -4.2513   -0.1587    0.9402 C   0  0  0  0  0  0  0  0  0  0  0  0
   -6.2458   -0.9911    2.1024 C   0  0  0  0  0  0  0  0  0  0  0  0
   -6.7670   -1.3731    3.0710 N   0  0  0  0  0  0  0  0  0  0  0  0
    4.7946   -2.5285    1.1471 H   0  0  0  0  0  0  0  0  0  0  0  0
    2.6881   -2.3811   -0.1158 H   0  0  0  0  0  0  0  0  0  0  0  0
    3.6869    1.5756   -1.3708 H   0  0  0  0  0  0  0  0  0  0  0  0
    5.8278    1.4183   -0.0831 H   0  0  0  0  0  0  0  0  0  0  0  0
    0.7105    0.0748    1.2421 H   0  0  0  0  0  0  0  0  0  0  0  0
    0.0833   -1.3171    0.2726 H   0  0  0  0  0  0  0  0  0  0  0  0
   -1.8748   -0.8963    1.2533 H   0  0  0  0  0  0  0  0  0  0  0  0
   -1.3414    0.7173    1.8022 H   0  0  0  0  0  0  0  0  0  0  0  0
   -2.2397    1.7625   -1.9424 H   0  0  0  0  0  0  0  0  0  0  0  0
   -1.9050    2.6827   -0.4277 H   0  0  0  0  0  0  0  0  0  0  0  0
    0.3122    2.5209   -0.7570 H   0  0  0  0  0  0  0  0  0  0  0  0
   -0.0509    1.7203   -2.2799 H   0  0  0  0  0  0  0  0  0  0  0  0
   -3.8124    0.7131   -2.3245 H   0  0  0  0  0  0  0  0  0  0  0  0
   -6.1281    0.0765   -2.3674 H   0  0  0  0  0  0  0  0  0  0  0  0
   -7.3097   -0.7256   -0.3335 H   0  0  0  0  0  0  0  0  0  0  0  0
   -3.6891   -0.2121    1.8538 H   0  0  0  0  0  0  0  0  0  0  0  0
  1  2  1  0
  2  3  1  0
  2  4  1  0
  2  5  1  0
  5  6  2  0
  6  7  1  0
  7  8  2  0
  8  9  1  0
  9 10  2  0
  8 11  1  0
 11 12  2  0
 11 13  2  0
 11 14  1  0
 14 15  1  0
 15 16  1  0
 16 17  1  0
 17 18  1  0
 18 19  1  0
 17 20  1  0
 20 21  2  0
 21 22  1  0
 22 23  2  0
 23 24  1  0
 24 25  2  0
 24 26  1  0
 26 27  3  0
 10  5  1  0
 19 14  1  0
 25 20  1  0
  6 28  1  0
  7 29  1  0
  9 30  1  0
 10 31  1  0
 15 32  1  0
 15 33  1  0
 16 34  1  0
 16 35  1  0
 18 36  1  0
 18 37  1  0
 19 38  1  0
 19 39  1  0
 21 40  1  0
 22 41  1  0
 23 42  1  0
 25 43  1  0
M  END
$$$$
[H]c1c([H])c(S(=O)(=O)N2C([H])([H])C([H])([H])C([H])(N([H])C(=O)c3c([H])n([H])c4c([H])c([H])c([H])c([H])c34)C([H])([H])C2([H])[H])c([H])c([H])c1OC([H])([H])[H]
     RDKit          3D

 52 55  0  0  0  0  0  0  0  0999 V2000
    7.3531    2.6131    1.8191 C   0  0  0  0  0  0  0  0  0  0  0  0
    7.4093    1.2889    1.3162 O   0  0  0  0  0  0  0  0  0  0  0  0
    6.3092    0.7741    0.6204 C   0  0  0  0  0  0  0  0  0  0  0  0
    5.1694    1.5339    0.4183 C   0  0  0  0  0  0  0  0  0  0  0  0
    4.0871    1.0229   -0.2681 C   0  0  0  0  0  0  0  0  0  0  0  0
    4.0824   -0.2660   -0.7876 C   0  0  0  0  0  0  0  0  0  0  0  0
    5.2248   -1.0049   -0.5756 C   0  0  0  0  0  0  0  0  0  0  0  0
    6.3118   -0.5052    0.1084 C   0  0  0  0  0  0  0  0  0  0  0  0
    2.7124   -0.9081   -1.6548 S   0  0  0  0  0  0  0  0  0  0  0  0
    3.1598   -1.8792   -2.7083 O   0  0  0  0  0  0  0  0  0  0  0  0
    1.9609    0.1907   -2.3746 O   0  0  0  0  0  0  0  0  0  0  0  0
    1.6520   -1.7120   -0.5740 N   0  0  0  0  0  0  0  0  0  0  0  0
    1.1098   -0.8597    0.4311 C   0  0  0  0  0  0  0  0  0  0  0  0
   -0.1181   -1.4253    1.1104 C   0  0  0  0  0  0  0  0  0  0  0  0
   -1.1764   -1.8243    0.1140 C   0  0  0  0  0  0  0  0  0  0  0  0
   -0.6350   -1.8021   -1.3019 C   0  0  0  0  0  0  0  0  0  0  0  0
    0.6846   -2.5371   -1.2637 C   0  0  0  0  0  0  0  0  0  0  0  0
   -2.3195   -0.8932    0.1234 N   0  0  0  0  0  0  0  0  0  0  0  0
   -3.5823   -1.4309    0.3962 C   0  0  0  0  0  0  0  0  0  0  0  0
   -3.7273   -2.6662    0.6397 O   0  0  0  0  0  0  0  0  0  0  0  0
   -4.7841   -0.6245    0.4239 C   0  0  0  0  0  0  0  0  0  0  0  0
   -5.8984   -0.8492    1.2353 C   0  0  0  0  0  0  0  0  0  0  0  0
   -6.7708    0.1303    1.0267 N   0  0  0  0  0  0  0  0  0  0  0  0
   -6.3073    1.0129    0.1116 C   0  0  0  0  0  0  0  0  0  0  0  0
   -6.8419    2.1637   -0.4367 C   0  0  0  0  0  0  0  0  0  0  0  0
   -6.1599    2.8859   -1.3836 C   0  0  0  0  0  0  0  0  0  0  0  0
   -4.9298    2.4313   -1.7721 C   0  0  0  0  0  0  0  0  0  0  0  0
   -4.3982    1.2835   -1.2238 C   0  0  0  0  0  0  0  0  0  0  0  0
   -5.0586    0.5306   -0.2632 C   0  0  0  0  0  0  0  0  0  0  0  0
    6.4191    2.7555    2.4103 H   0  0  0  0  0  0  0  0  0  0  0  0
    7.2692    3.2723    0.9286 H   0  0  0  0  0  0  0  0  0  0  0  0
    8.2046    2.8616    2.4566 H   0  0  0  0  0  0  0  0  0  0  0  0
    5.1658    2.5465    0.8224 H   0  0  0  0  0  0  0  0  0  0  0  0
    3.2000    1.6422   -0.4133 H   0  0  0  0  0  0  0  0  0  0  0  0
    5.2277   -2.0255   -0.9832 H   0  0  0  0  0  0  0  0  0  0  0  0
    7.2019   -1.1005    0.2666 H   0  0  0  0  0  0  0  0  0  0  0  0
    0.9261    0.1836    0.0586 H   0  0  0  0  0  0  0  0  0  0  0  0
    1.8816   -0.7495    1.2411 H   0  0  0  0  0  0  0  0  0  0  0  0
   -0.4820   -0.6710    1.8267 H   0  0  0  0  0  0  0  0  0  0  0  0
    0.2002   -2.3406    1.6478 H   0  0  0  0  0  0  0  0  0  0  0  0
   -1.5635   -2.8223    0.3578 H   0  0  0  0  0  0  0  0  0  0  0  0
   -1.3665   -2.2042   -1.9998 H   0  0  0  0  0  0  0  0  0  0  0  0
   -0.3977   -0.7467   -1.5344 H   0  0  0  0  0  0  0  0  0  0  0  0
    1.0158   -2.6854   -2.2980 H   0  0  0  0  0  0  0  0  0  0  0  0
    0.5923   -3.5052   -0.6970 H   0  0  0  0  0  0  0  0  0  0  0  0
   -2.1155    0.1247   -0.0471 H   0  0  0  0  0  0  0  0  0  0  0  0
   -5.9568   -1.7034    1.8936 H   0  0  0  0  0  0  0  0  0  0  0  0
   -7.7166    0.2424    1.4954 H   0  0  0  0  0  0  0  0  0  0  0  0
   -7.8140    2.5122   -0.1231 H   0  0  0  0  0  0  0  0  0  0  0  0
   -6.5930    3.8041   -1.8163 H   0  0  0  0  0  0  0  0  0  0  0  0
   -4.3879    2.9927   -2.5161 H   0  0  0  0  0  0  0  0  0  0  0  0
   -3.4298    0.9430   -1.5791 H   0  0  0  0  0  0  0  0  0  0  0  0
  1  2  1  0
  2  3  1  0
  3  4  2  0
  4  5  1  0
  5  6  2  0
  6  7  1  0
  7  8  2  0
  6  9  1  0
  9 10  2  0
  9 11  2  0
  9 12  1  0
 12 13  1  0
 13 14  1  0
 14 15  1  0
 15 16  1  0
 16 17  1  0
 15 18  1  0
 18 19  1  0
 19 20  2  0
 19 21  1  0
 21 22  2  0
 22 23  1  0
 23 24  1  0
 24 25  2  0
 25 26  1  0
 26 27  2  0
 27 28  1  0
 28 29  2  0
  8  3  1  0
 17 12  1  0
 29 21  1  0
 29 24  1  0
  1 30  1  0
  1 31  1  0
  1 32  1  0
  4 33  1  0
  5 34  1  0
  7 35  1  0
  8 36  1  0
 13 37  1  0
 13 38  1  0
 14 39  1  0
 14 40  1  0
 15 41  1  0
 16 42  1  0
 16 43  1  0
 17 44  1  0
 17 45  1  0
 18 46  1  0
 22 47  1  0
 23 48  1  0
 25 49  1  0
 26 50  1  0
 27 51  1  0
 28 52  1  0
M  END
$$$$
[H]c1c([H])c(Cl)c([H])c(N2C([H])([H])C([H])([H])N(S(=O)(=O)c3c([H])c([H])c(OC([H])([H])[H])c([H])c3[H])C([H])([H])C2([H])[H])c1[H]
     RDKit          3D

 43 45  0  0  0  0  0  0  0  0999 V2000
    7.3823   -0.6577   -0.0095 C   0  0  0  0  0  0  0  0  0  0  0  0
    6.4013   -0.6994   -0.9988 O   0  0  0  0  0  0  0  0  0  0  0  0
    5.1564   -0.1003   -0.7619 C   0  0  0  0  0  0  0  0  0  0  0  0
    4.1714   -0.1291   -1.7253 C   0  0  0  0  0  0  0  0  0  0  0  0
    2.9449    0.4589   -1.4969 C   0  0  0  0  0  0  0  0  0  0  0  0
    2.6412    1.0974   -0.3125 C   0  0  0  0  0  0  0  0  0  0  0  0
    3.6340    1.1193    0.6420 C   0  0  0  0  0  0  0  0  0  0  0  0
    4.8725    0.5324    0.4272 C   0  0  0  0  0  0  0  0  0  0  0  0
    1.0793    1.8330   -0.0523 S   0  0  0  0  0  0  0  0  0  0  0  0
    1.2813    3.0257    0.8469 O   0  0  0  0  0  0  0  0  0  0  0  0
    0.5656    2.3806   -1.3642 O   0  0  0  0  0  0  0  0  0  0  0  0
   -0.0215    0.7022    0.6459 N   0  0  0  0  0  0  0  0  0  0  0  0
   -0.2226   -0.4050   -0.2278 C   0  0  0  0  0  0  0  0  0  0  0  0
   -1.5436   -1.1273   -0.0027 C   0  0  0  0  0  0  0  0  0  0  0  0
   -2.6482   -0.1602   -0.0644 N   0  0  0  0  0  0  0  0  0  0  0  0
   -2.2035    1.2023   -0.1743 C   0  0  0  0  0  0  0  0  0  0  0  0
   -1.2313    1.4176    0.9901 C   0  0  0  0  0  0  0  0  0  0  0  0
   -3.9736   -0.6125   -0.0144 C   0  0  0  0  0  0  0  0  0  0  0  0
   -4.2227   -1.9861    0.0939 C   0  0  0  0  0  0  0  0  0  0  0  0
   -5.5177   -2.4600    0.1452 C   0  0  0  0  0  0  0  0  0  0  0  0
   -6.5771   -1.5757    0.0895 C   0  0  0  0  0  0  0  0  0  0  0  0
   -6.3514   -0.2037   -0.0185 C   0  0  0  0  0  0  0  0  0  0  0  0
   -7.6521    0.9533   -0.0924 Cl  0  0  0  0  0  0  0  0  0  0  0  0
   -5.0468    0.2504   -0.0684 C   0  0  0  0  0  0  0  0  0  0  0  0
    7.7511    0.3783    0.2092 H   0  0  0  0  0  0  0  0  0  0  0  0
    8.2902   -1.2031   -0.3940 H   0  0  0  0  0  0  0  0  0  0  0  0
    7.0054   -1.1281    0.9219 H   0  0  0  0  0  0  0  0  0  0  0  0
    4.3419   -0.6113   -2.6734 H   0  0  0  0  0  0  0  0  0  0  0  0
    2.1472    0.4484   -2.2477 H   0  0  0  0  0  0  0  0  0  0  0  0
    3.4499    1.6116    1.6008 H   0  0  0  0  0  0  0  0  0  0  0  0
    5.6469    0.5497    1.1725 H   0  0  0  0  0  0  0  0  0  0  0  0
    0.5702   -1.1695    0.0230 H   0  0  0  0  0  0  0  0  0  0  0  0
   -0.1005   -0.1176   -1.2805 H   0  0  0  0  0  0  0  0  0  0  0  0
   -1.6599   -1.8441   -0.8342 H   0  0  0  0  0  0  0  0  0  0  0  0
   -1.4986   -1.6329    0.9634 H   0  0  0  0  0  0  0  0  0  0  0  0
   -1.6079    1.2480   -1.1345 H   0  0  0  0  0  0  0  0  0  0  0  0
   -2.9633    1.9664   -0.2264 H   0  0  0  0  0  0  0  0  0  0  0  0
   -1.6212    0.9587    1.9211 H   0  0  0  0  0  0  0  0  0  0  0  0
   -1.0576    2.4948    1.1675 H   0  0  0  0  0  0  0  0  0  0  0  0
   -3.3970   -2.6855    0.1382 H   0  0  0  0  0  0  0  0  0  0  0  0
   -5.7586   -3.5120    0.2288 H   0  0  0  0  0  0  0  0  0  0  0  0
   -7.5854   -1.9089    0.1267 H   0  0  0  0  0  0  0  0  0  0  0  0
   -4.8708    1.3010   -0.1511 H   0  0  0  0  0  0  0  0  0  0  0  0
  1  2  1  0
  2  3  1  0
  3  4  2  0
  4  5  1  0
  5  6  2  0
  6  7  1  0
  7  8  2  0
  6  9  1  0
  9 10  2  0
  9 11  2  0
  9 12  1  0
 12 13  1  0
 13 14  1  0
 14 15  1  0
 15 16  1  0
 16 17  1  0
 15 18  1  0
 18 19  2  0
 19 20  1  0
 20 21  2  0
 21 22  1  0
 22 23  1  0
 22 24  2  0
  8  3  1  0
 17 12  1  0
 24 18  1  0
  1 25  1  0
  1 26  1  0
  1 27  1  0
  4 28  1  0
  5 29  1  0
  7 30  1  0
  8 31  1  0
 13 32  1  0
 13 33  1  0
 14 34  1  0
 14 35  1  0
 16 36  1  0
 16 37  1  0
 17 38  1  0
 17 39  1  0
 19 40  1  0
 20 41  1  0
 21 42  1  0
 24 43  1  0
M  END
$$$$
[H]c1c([H])c(C(=O)N([H])C2([H])C([H])([H])C([H])([H])N(S(=O)(=O)c3c([H])c([H])c(C(F)(F)F)c([H])c3[H])C([H])([H])C2([H])[H])c([H])c([H])c1Cl
     RDKit          3D

 47 49  0  0  0  0  0  0  0  0999 V2000
    8.3735    1.0728   -0.6233 F   0  0  0  0  0  0  0  0  0  0  0  0
    7.7155    0.9684    0.5695 C   0  0  0  0  0  0  0  0  0  0  0  0
    8.3282   -0.0084    1.3353 F   0  0  0  0  0  0  0  0  0  0  0  0
    7.8956    2.1811    1.2489 F   0  0  0  0  0  0  0  0  0  0  0  0
    6.2613    0.7183    0.3959 C   0  0  0  0  0  0  0  0  0  0  0  0
    5.5524    1.5886   -0.4097 C   0  0  0  0  0  0  0  0  0  0  0  0
    4.1794    1.3754   -0.5528 C   0  0  0  0  0  0  0  0  0  0  0  0
    3.5105    0.3457    0.0669 C   0  0  0  0  0  0  0  0  0  0  0  0
    4.2458   -0.4962    0.8568 C   0  0  0  0  0  0  0  0  0  0  0  0
    5.5985   -0.3296    1.0343 C   0  0  0  0  0  0  0  0  0  0  0  0
    1.7833    0.1478   -0.1628 S   0  0  0  0  0  0  0  0  0  0  0  0
    1.5155    0.7325   -1.5674 O   0  0  0  0  0  0  0  0  0  0  0  0
    1.0727    1.0799    0.7623 O   0  0  0  0  0  0  0  0  0  0  0  0
    1.2419   -1.4418   -0.2043 N   0  0  0  0  0  0  0  0  0  0  0  0
    0.6194   -1.9463   -1.3603 C   0  0  0  0  0  0  0  0  0  0  0  0
   -0.7970   -1.4065   -1.5539 C   0  0  0  0  0  0  0  0  0  0  0  0
   -1.6062   -1.4864   -0.3435 C   0  0  0  0  0  0  0  0  0  0  0  0
   -0.8823   -1.3721    0.9887 C   0  0  0  0  0  0  0  0  0  0  0  0
    0.5212   -1.8834    0.9602 C   0  0  0  0  0  0  0  0  0  0  0  0
   -2.6060   -0.3979   -0.2658 N   0  0  0  0  0  0  0  0  0  0  0  0
   -3.9802   -0.6769   -0.0999 C   0  0  0  0  0  0  0  0  0  0  0  0
   -4.4126   -1.8865   -0.0424 O   0  0  0  0  0  0  0  0  0  0  0  0
   -4.9757    0.3584    0.0222 C   0  0  0  0  0  0  0  0  0  0  0  0
   -6.3010    0.0948   -0.2179 C   0  0  0  0  0  0  0  0  0  0  0  0
   -7.2936    1.0417   -0.0785 C   0  0  0  0  0  0  0  0  0  0  0  0
   -6.9697    2.3040    0.3164 C   0  0  0  0  0  0  0  0  0  0  0  0
   -8.2176    3.5191    0.5399 Cl  0  0  0  0  0  0  0  0  0  0  0  0
   -5.6446    2.5910    0.5623 C   0  0  0  0  0  0  0  0  0  0  0  0
   -4.6570    1.6542    0.4242 C   0  0  0  0  0  0  0  0  0  0  0  0
    6.0590    2.4190   -0.9125 H   0  0  0  0  0  0  0  0  0  0  0  0
    3.6855    2.1021   -1.1958 H   0  0  0  0  0  0  0  0  0  0  0  0
    3.6899   -1.3062    1.3231 H   0  0  0  0  0  0  0  0  0  0  0  0
    6.1778   -0.9973    1.6708 H   0  0  0  0  0  0  0  0  0  0  0  0
    0.4655   -3.0523   -1.1814 H   0  0  0  0  0  0  0  0  0  0  0  0
    1.2220   -1.8892   -2.2927 H   0  0  0  0  0  0  0  0  0  0  0  0
   -1.2471   -2.1013   -2.3222 H   0  0  0  0  0  0  0  0  0  0  0  0
   -0.8007   -0.3761   -1.9754 H   0  0  0  0  0  0  0  0  0  0  0  0
   -2.2249   -2.4319   -0.3527 H   0  0  0  0  0  0  0  0  0  0  0  0
   -1.4569   -1.9838    1.6968 H   0  0  0  0  0  0  0  0  0  0  0  0
   -0.9183   -0.3161    1.3412 H   0  0  0  0  0  0  0  0  0  0  0  0
    0.5577   -2.9846    1.0172 H   0  0  0  0  0  0  0  0  0  0  0  0
    1.0190   -1.4863    1.8828 H   0  0  0  0  0  0  0  0  0  0  0  0
   -2.3129    0.5915   -0.3495 H   0  0  0  0  0  0  0  0  0  0  0  0
   -6.6162   -0.9081   -0.5368 H   0  0  0  0  0  0  0  0  0  0  0  0
   -8.3071    0.7843   -0.2832 H   0  0  0  0  0  0  0  0  0  0  0  0
   -5.4294    3.6207    0.8519 H   0  0  0  0  0  0  0  0  0  0  0  0
   -3.6340    1.8738    0.6282 H   0  0  0  0  0  0  0  0  0  0  0  0
  1  2  1  0
  2  3  1  0
  2  4  1  0
  2  5  1  0
  5  6  2  0
  6  7  1  0
  7  8  2  0
  8  9  1  0
  9 10  2  0
  8 11  1  0
 11 12  2  0
 11 13  2  0
 11 14  1  0
 14 15  1  0
 15 16  1  0
 16 17  1  0
 17 18  1  0
 18 19  1  0
 17 20  1  0
 20 21  1  0
 21 22  2  0
 21 23  1  0
 23 24  2  0
 24 25  1  0
 25 26  2  0
 26 27  1  0
 26 28  1  0
 28 29  2  0
 10  5  1  0
 19 14  1  0
 29 23  1  0
  6 30  1  0
  7 31  1  0
  9 32  1  0
 10 33  1  0
 15 34  1  0
 15 35  1  0
 16 36  1  0
 16 37  1  0
 17 38  1  0
 18 39  1  0
 18 40  1  0
 19 41  1  0
 19 42  1  0
 20 43  1  0
 24 44  1  0
 25 45  1  0
 28 46  1  0
 29 47  1  0
M  END
$$$$
[H]c1c([H])c([H])c(C2([H])C([H])([H])C([H])([H])N(C3([H])C([H])([H])C([H])([H])N(S(=O)(=O)c4c([H])c([H])c(C(F)(F)F)c([H])c4[H])C([H])([H])C3([H])[H])C([H])([H])C2([H])[H])c([H])c1[H]
     RDKit          3D

 58 61  0  0  0  0  0  0  0  0999 V2000
    9.9662    0.2170    0.7957 F   0  0  0  0  0  0  0  0  0  0  0  0
    8.9462    0.2017    1.7388 C   0  0  0  0  0  0  0  0  0  0  0  0
    9.1504   -0.9153    2.5171 F   0  0  0  0  0  0  0  0  0  0  0  0
    8.9529    1.3334    2.5085 F   0  0  0  0  0  0  0  0  0  0  0  0
    7.6339    0.1075    1.0450 C   0  0  0  0  0  0  0  0  0  0  0  0
    7.2576    1.1521    0.1885 C   0  0  0  0  0  0  0  0  0  0  0  0
    6.0594    1.0873   -0.4721 C   0  0  0  0  0  0  0  0  0  0  0  0
    5.2064    0.0081   -0.3146 C   0  0  0  0  0  0  0  0  0  0  0  0
    5.6168   -1.0078    0.5448 C   0  0  0  0  0  0  0  0  0  0  0  0
    6.8044   -0.9709    1.2172 C   0  0  0  0  0  0  0  0  0  0  0  0
    3.6606   -0.0607   -1.1567 S   0  0  0  0  0  0  0  0  0  0  0  0
    3.6856   -1.1535   -2.1953 O   0  0  0  0  0  0  0  0  0  0  0  0
    3.4567    1.2513   -1.9073 O   0  0  0  0  0  0  0  0  0  0  0  0
    2.4234   -0.2160   -0.0315 N   0  0  0  0  0  0  0  0  0  0  0  0
    1.6974   -1.4382   -0.0872 C   0  0  0  0  0  0  0  0  0  0  0  0
    0.3595   -1.2895   -0.7971 C   0  0  0  0  0  0  0  0  0  0  0  0
   -0.3945   -0.2100   -0.1326 C   0  0  0  0  0  0  0  0  0  0  0  0
    0.3791    1.0614    0.1364 C   0  0  0  0  0  0  0  0  0  0  0  0
    1.8010    0.9096    0.5054 C   0  0  0  0  0  0  0  0  0  0  0  0
   -1.5925    0.2417   -0.8056 N   0  0  0  0  0  0  0  0  0  0  0  0
   -2.3188    1.0591    0.0835 C   0  0  0  0  0  0  0  0  0  0  0  0
   -3.7569    1.2320   -0.1680 C   0  0  0  0  0  0  0  0  0  0  0  0
   -4.4655    0.1081   -0.8779 C   0  0  0  0  0  0  0  0  0  0  0  0
   -3.5853   -1.0789   -0.9717 C   0  0  0  0  0  0  0  0  0  0  0  0
   -2.2823   -0.6684   -1.6081 C   0  0  0  0  0  0  0  0  0  0  0  0
   -5.7741   -0.1919   -0.2313 C   0  0  0  0  0  0  0  0  0  0  0  0
   -6.8756    0.4906   -0.6993 C   0  0  0  0  0  0  0  0  0  0  0  0
   -8.1226    0.2893   -0.1653 C   0  0  0  0  0  0  0  0  0  0  0  0
   -8.2777   -0.6108    0.8527 C   0  0  0  0  0  0  0  0  0  0  0  0
   -7.1716   -1.3009    1.3237 C   0  0  0  0  0  0  0  0  0  0  0  0
   -5.9082   -1.0988    0.7853 C   0  0  0  0  0  0  0  0  0  0  0  0
    7.9351    1.9886    0.0720 H   0  0  0  0  0  0  0  0  0  0  0  0
    5.7282    1.8913   -1.1397 H   0  0  0  0  0  0  0  0  0  0  0  0
    4.9272   -1.8493    0.6420 H   0  0  0  0  0  0  0  0  0  0  0  0
    7.0946   -1.7721    1.8737 H   0  0  0  0  0  0  0  0  0  0  0  0
    2.3124   -2.2018   -0.6085 H   0  0  0  0  0  0  0  0  0  0  0  0
    1.4674   -1.7572    0.9418 H   0  0  0  0  0  0  0  0  0  0  0  0
    0.4697   -1.2218   -1.8785 H   0  0  0  0  0  0  0  0  0  0  0  0
   -0.1660   -2.2613   -0.5265 H   0  0  0  0  0  0  0  0  0  0  0  0
   -0.7466   -0.6001    0.8671 H   0  0  0  0  0  0  0  0  0  0  0  0
    0.2618    1.8077   -0.6684 H   0  0  0  0  0  0  0  0  0  0  0  0
   -0.1451    1.5265    1.0273 H   0  0  0  0  0  0  0  0  0  0  0  0
    2.3414    1.8435    0.1448 H   0  0  0  0  0  0  0  0  0  0  0  0
    1.9754    0.9694    1.6321 H   0  0  0  0  0  0  0  0  0  0  0  0
   -2.1841    0.6632    1.1354 H   0  0  0  0  0  0  0  0  0  0  0  0
   -1.8429    2.0930    0.0323 H   0  0  0  0  0  0  0  0  0  0  0  0
   -4.0028    2.2194   -0.6584 H   0  0  0  0  0  0  0  0  0  0  0  0
   -4.2730    1.3287    0.8355 H   0  0  0  0  0  0  0  0  0  0  0  0
   -4.6938    0.4853   -1.9054 H   0  0  0  0  0  0  0  0  0  0  0  0
   -3.3470   -1.4597    0.0572 H   0  0  0  0  0  0  0  0  0  0  0  0
   -4.0546   -1.9406   -1.5076 H   0  0  0  0  0  0  0  0  0  0  0  0
   -1.6776   -1.5484   -1.9279 H   0  0  0  0  0  0  0  0  0  0  0  0
   -2.5588   -0.1711   -2.5910 H   0  0  0  0  0  0  0  0  0  0  0  0
   -6.8092    1.2181   -1.5027 H   0  0  0  0  0  0  0  0  0  0  0  0
   -8.9937    0.8555   -0.5312 H   0  0  0  0  0  0  0  0  0  0  0  0
   -9.2624   -0.7755    1.2790 H   0  0  0  0  0  0  0  0  0  0  0  0
   -7.2497   -2.0149    2.1310 H   0  0  0  0  0  0  0  0  0  0  0  0
   -5.0377   -1.6422    1.1534 H   0  0  0  0  0  0  0  0  0  0  0  0
  1  2  1  0
  2  3  1  0
  2  4  1  0
  2  5  1  0
  5  6  2  0
  6  7  1  0
  7  8  2  0
  8  9  1  0
  9 10  2  0
  8 11  1  0
 11 12  2  0
 11 13  2  0
 11 14  1  0
 14 15  1  0
 15 16  1  0
 16 17  1  0
 17 18  1  0
 18 19  1  0
 17 20  1  0
 20 21  1  0
 21 22  1  0
 22 23  1  0
 23 24  1  0
 24 25  1  0
 23 26  1  0
 26 27  2  0
 27 28  1  0
 28 29  2  0
 29 30  1  0
 30 31  2  0
 10  5  1  0
 19 14  1  0
 25 20  1  0
 31 26  1  0
  6 32  1  0
  7 33  1  0
  9 34  1  0
 10 35  1  0
 15 36  1  0
 15 37  1  0
 16 38  1  0
 16 39  1  0
 17 40  1  0
 18 41  1  0
 18 42  1  0
 19 43  1  0
 19 44  1  0
 21 45  1  0
 21 46  1  0
 22 47  1  0
 22 48  1  0
 23 49  1  0
 24 50  1  0
 24 51  1  0
 25 52  1  0
 25 53  1  0
 27 54  1  0
 28 55  1  0
 29 56  1  0
 30 57  1  0
 31 58  1  0
M  END
$$$$
