[H]c1nc(N2C([H])([H])C([H])([H])c3nc(N4C([H])([H])C([H])([H])C([H])([H])C4([H])[H])nc(N([H])c4c([H])c([H])c(C(F)(F)F)c([H])c4[H])c3C([H])([H])C2([H])[H])c(C(F)(F)F)c([H])c1[H]
     RDKit          3D

 61 65  0  0  0  0  0  0  0  0999 V2000
   -4.6015    6.0769   -2.0092 F   0  0  0  0  0  0  0  0  0  0  0  0
   -4.5772    5.9317   -0.6389 C   0  0  0  0  0  0  0  0  0  0  0  0
   -3.9547    7.0832   -0.1270 F   0  0  0  0  0  0  0  0  0  0  0  0
   -5.8639    5.9226   -0.1888 F   0  0  0  0  0  0  0  0  0  0  0  0
   -3.8349    4.7200   -0.2297 C   0  0  0  0  0  0  0  0  0  0  0  0
   -2.6319    4.4384   -0.8562 C   0  0  0  0  0  0  0  0  0  0  0  0
   -1.8569    3.3716   -0.5395 C   0  0  0  0  0  0  0  0  0  0  0  0
   -2.2315    2.4425    0.4819 C   0  0  0  0  0  0  0  0  0  0  0  0
   -1.2507    1.5010    0.7917 N   0  0  0  0  0  0  0  0  0  0  0  0
   -1.1250    0.1921    0.3776 C   0  0  0  0  0  0  0  0  0  0  0  0
   -2.0658   -0.6452   -0.0152 N   0  0  0  0  0  0  0  0  0  0  0  0
   -1.8106   -1.9723   -0.2657 C   0  0  0  0  0  0  0  0  0  0  0  0
   -0.5504   -2.4323   -0.1010 N   0  0  0  0  0  0  0  0  0  0  0  0
    0.4829   -1.6411    0.3045 C   0  0  0  0  0  0  0  0  0  0  0  0
    1.6845   -2.4610    0.3524 C   0  0  0  0  0  0  0  0  0  0  0  0
    2.9829   -1.8292    0.5790 C   0  0  0  0  0  0  0  0  0  0  0  0
    3.1980   -0.4680    0.2126 N   0  0  0  0  0  0  0  0  0  0  0  0
    2.2856    0.5264   -0.2091 C   0  0  0  0  0  0  0  0  0  0  0  0
    1.1689    0.7300    0.8537 C   0  0  0  0  0  0  0  0  0  0  0  0
    0.1698   -0.3560    0.5311 C   0  0  0  0  0  0  0  0  0  0  0  0
    4.5431    0.0130    0.3245 C   0  0  0  0  0  0  0  0  0  0  0  0
    4.9203    0.3692    1.6102 N   0  0  0  0  0  0  0  0  0  0  0  0
    6.1781    0.7825    1.8402 C   0  0  0  0  0  0  0  0  0  0  0  0
    7.0861    0.8463    0.8070 C   0  0  0  0  0  0  0  0  0  0  0  0
    6.7079    0.4975   -0.4452 C   0  0  0  0  0  0  0  0  0  0  0  0
    5.3824    0.0600   -0.7180 C   0  0  0  0  0  0  0  0  0  0  0  0
    5.1033   -0.2609   -2.1230 C   0  0  0  0  0  0  0  0  0  0  0  0
    4.1780    0.6123   -2.6562 F   0  0  0  0  0  0  0  0  0  0  0  0
    4.7559   -1.5855   -2.3843 F   0  0  0  0  0  0  0  0  0  0  0  0
    6.2608   -0.0789   -2.9061 F   0  0  0  0  0  0  0  0  0  0  0  0
   -2.8174   -2.8608   -0.6723 N   0  0  0  0  0  0  0  0  0  0  0  0
   -4.2053   -2.7356   -0.9635 C   0  0  0  0  0  0  0  0  0  0  0  0
   -4.8120   -3.8617   -0.1282 C   0  0  0  0  0  0  0  0  0  0  0  0
   -3.7006   -4.8917   -0.0569 C   0  0  0  0  0  0  0  0  0  0  0  0
   -2.5782   -4.3201   -0.8941 C   0  0  0  0  0  0  0  0  0  0  0  0
   -3.4116    2.7142    1.0899 C   0  0  0  0  0  0  0  0  0  0  0  0
   -4.2188    3.8322    0.7574 C   0  0  0  0  0  0  0  0  0  0  0  0
   -2.2920    5.1248   -1.6312 H   0  0  0  0  0  0  0  0  0  0  0  0
   -0.9112    3.1620   -1.0669 H   0  0  0  0  0  0  0  0  0  0  0  0
   -0.5264    1.8640    1.5805 H   0  0  0  0  0  0  0  0  0  0  0  0
    1.5321   -3.2338    1.1945 H   0  0  0  0  0  0  0  0  0  0  0  0
    1.6504   -3.1772   -0.5539 H   0  0  0  0  0  0  0  0  0  0  0  0
    3.3216   -1.9505    1.6942 H   0  0  0  0  0  0  0  0  0  0  0  0
    3.7634   -2.4410    0.0800 H   0  0  0  0  0  0  0  0  0  0  0  0
    2.7296    1.5125   -0.3585 H   0  0  0  0  0  0  0  0  0  0  0  0
    1.7390    0.3105   -1.1528 H   0  0  0  0  0  0  0  0  0  0  0  0
    0.8329    1.7318    0.6489 H   0  0  0  0  0  0  0  0  0  0  0  0
    1.5072    0.5851    1.8759 H   0  0  0  0  0  0  0  0  0  0  0  0
    6.5171    1.0857    2.8514 H   0  0  0  0  0  0  0  0  0  0  0  0
    8.1429    1.1771    0.9621 H   0  0  0  0  0  0  0  0  0  0  0  0
    7.4212    0.5397   -1.2485 H   0  0  0  0  0  0  0  0  0  0  0  0
   -4.3054   -3.0849   -2.0374 H   0  0  0  0  0  0  0  0  0  0  0  0
   -4.6833   -1.7810   -0.7748 H   0  0  0  0  0  0  0  0  0  0  0  0
   -5.0599   -3.4719    0.8500 H   0  0  0  0  0  0  0  0  0  0  0  0
   -5.7110   -4.2637   -0.6004 H   0  0  0  0  0  0  0  0  0  0  0  0
   -3.3567   -5.0048    0.9879 H   0  0  0  0  0  0  0  0  0  0  0  0
   -4.0690   -5.8762   -0.4827 H   0  0  0  0  0  0  0  0  0  0  0  0
   -1.5653   -4.6281   -0.5509 H   0  0  0  0  0  0  0  0  0  0  0  0
   -2.7903   -4.5207   -1.9392 H   0  0  0  0  0  0  0  0  0  0  0  0
   -3.7611    2.0597    1.8883 H   0  0  0  0  0  0  0  0  0  0  0  0
   -5.1155    4.0176    1.3110 H   0  0  0  0  0  0  0  0  0  0  0  0
  1  2  1  0
  2  3  1  0
  2  4  1  0
  2  5  1  0
  5  6  2  0
  6  7  1  0
  7  8  2  0
  8  9  1  0
  9 10  1  0
 10 11  2  0
 11 12  1  0
 12 13  2  0
 13 14  1  0
 14 15  1  0
 15 16  1  0
 16 17  1  0
 17 18  1  0
 18 19  1  0
 19 20  1  0
 17 21  1  0
 21 22  2  0
 22 23  1  0
 23 24  2  0
 24 25  1  0
 25 26  2  0
 26 27  1  0
 27 28  1  0
 27 29  1  0
 27 30  1  0
 12 31  1  0
 31 32  1  0
 32 33  1  0
 33 34  1  0
 34 35  1  0
  8 36  1  0
 36 37  2  0
 37  5  1  0
 20 10  1  0
 26 21  1  0
 35 31  1  0
 20 14  2  0
  6 38  1  0
  7 39  1  0
  9 40  1  0
 15 41  1  0
 15 42  1  0
 16 43  1  0
 16 44  1  0
 18 45  1  0
 18 46  1  0
 19 47  1  0
 19 48  1  0
 23 49  1  0
 24 50  1  0
 25 51  1  0
 32 52  1  0
 32 53  1  0
 33 54  1  0
 33 55  1  0
 34 56  1  0
 34 57  1  0
 35 58  1  0
 35 59  1  0
 36 60  1  0
 37 61  1  0
M  END
$$$$
[H]c1nc(N([H])c2c([H])c(N([H])C(=O)c3c([H])c([H])c(C([H])([H])N4C([H])([H])C([H])([H])N(C([H])([H])[H])C([H])([H])C4([H])[H])c(C(F)(F)F)c3[H])c([H])c([H])c2C([H])([H])[H])nc(-c2c([H])nc([H])c([H])c2[H])c1[H]
     RDKit          3D

 71 75  0  0  0  0  0  0  0  0999 V2000
   -9.9347    0.2361   -1.3530 C   0  0  0  0  0  0  0  0  0  0  0  0
   -8.7315   -0.2431   -2.0052 N   0  0  0  0  0  0  0  0  0  0  0  0
   -8.3643   -1.4998   -1.3435 C   0  0  0  0  0  0  0  0  0  0  0  0
   -7.7519   -1.1751   -0.0144 C   0  0  0  0  0  0  0  0  0  0  0  0
   -6.3847   -0.6145   -0.1490 N   0  0  0  0  0  0  0  0  0  0  0  0
   -5.4582   -1.7716   -0.2410 C   0  0  0  0  0  0  0  0  0  0  0  0
   -4.0923   -1.3053   -0.0157 C   0  0  0  0  0  0  0  0  0  0  0  0
   -3.8574   -0.0110    0.3758 C   0  0  0  0  0  0  0  0  0  0  0  0
   -2.5723    0.4484    0.6525 C   0  0  0  0  0  0  0  0  0  0  0  0
   -1.4841   -0.3764    0.5464 C   0  0  0  0  0  0  0  0  0  0  0  0
   -1.7408   -1.6721    0.1532 C   0  0  0  0  0  0  0  0  0  0  0  0
   -2.9957   -2.1554   -0.1275 C   0  0  0  0  0  0  0  0  0  0  0  0
   -3.2301   -3.5575   -0.5510 C   0  0  0  0  0  0  0  0  0  0  0  0
   -3.7929   -3.6608   -1.8005 F   0  0  0  0  0  0  0  0  0  0  0  0
   -1.9900   -4.1845   -0.5944 F   0  0  0  0  0  0  0  0  0  0  0  0
   -3.9703   -4.2573    0.3945 F   0  0  0  0  0  0  0  0  0  0  0  0
   -0.1205    0.0746    0.8363 C   0  0  0  0  0  0  0  0  0  0  0  0
    0.7874   -0.7156    0.5100 O   0  0  0  0  0  0  0  0  0  0  0  0
    0.1496    1.3030    1.4367 N   0  0  0  0  0  0  0  0  0  0  0  0
    1.3829    1.8862    1.7753 C   0  0  0  0  0  0  0  0  0  0  0  0
    1.3784    2.9682    2.6655 C   0  0  0  0  0  0  0  0  0  0  0  0
    2.5562    3.5802    3.0131 C   0  0  0  0  0  0  0  0  0  0  0  0
    3.7559    3.1427    2.4950 C   0  0  0  0  0  0  0  0  0  0  0  0
    5.0213    3.8036    2.8736 C   0  0  0  0  0  0  0  0  0  0  0  0
    3.8205    2.0721    1.6058 C   0  0  0  0  0  0  0  0  0  0  0  0
    5.0640    1.6812    1.1133 N   0  0  0  0  0  0  0  0  0  0  0  0
    5.4168    0.6392    0.2403 C   0  0  0  0  0  0  0  0  0  0  0  0
    4.5806   -0.2402   -0.3245 N   0  0  0  0  0  0  0  0  0  0  0  0
    4.9838   -1.2125   -1.1507 C   0  0  0  0  0  0  0  0  0  0  0  0
    6.3432   -1.3501   -1.4657 C   0  0  0  0  0  0  0  0  0  0  0  0
    7.2134   -0.4546   -0.8935 C   0  0  0  0  0  0  0  0  0  0  0  0
    6.7169    0.4847   -0.0790 N   0  0  0  0  0  0  0  0  0  0  0  0
    8.6702   -0.5095   -1.1601 C   0  0  0  0  0  0  0  0  0  0  0  0
    9.1974   -1.4582   -1.9850 C   0  0  0  0  0  0  0  0  0  0  0  0
   10.5790   -1.4717   -2.2091 C   0  0  0  0  0  0  0  0  0  0  0  0
   11.4031   -0.5478   -1.6125 C   0  0  0  0  0  0  0  0  0  0  0  0
   10.8420    0.3687   -0.8075 N   0  0  0  0  0  0  0  0  0  0  0  0
    9.5195    0.4071   -0.5731 C   0  0  0  0  0  0  0  0  0  0  0  0
    2.6286    1.4802    1.2763 C   0  0  0  0  0  0  0  0  0  0  0  0
   -6.3661    0.0487   -1.4754 C   0  0  0  0  0  0  0  0  0  0  0  0
   -7.6847    0.7475   -1.7423 C   0  0  0  0  0  0  0  0  0  0  0  0
  -10.8400    0.0820   -1.9782 H   0  0  0  0  0  0  0  0  0  0  0  0
  -10.1219   -0.3026   -0.4045 H   0  0  0  0  0  0  0  0  0  0  0  0
   -9.8649    1.3283   -1.1812 H   0  0  0  0  0  0  0  0  0  0  0  0
   -7.6639   -2.0729   -1.9562 H   0  0  0  0  0  0  0  0  0  0  0  0
   -9.2658   -2.1094   -1.1456 H   0  0  0  0  0  0  0  0  0  0  0  0
   -7.6343   -2.1192    0.5481 H   0  0  0  0  0  0  0  0  0  0  0  0
   -8.3505   -0.4856    0.5888 H   0  0  0  0  0  0  0  0  0  0  0  0
   -5.7781   -2.5230    0.4961 H   0  0  0  0  0  0  0  0  0  0  0  0
   -5.6613   -2.1828   -1.2517 H   0  0  0  0  0  0  0  0  0  0  0  0
   -4.6678    0.6957    0.5168 H   0  0  0  0  0  0  0  0  0  0  0  0
   -2.4771    1.4610    0.9446 H   0  0  0  0  0  0  0  0  0  0  0  0
   -0.9071   -2.3603    0.0566 H   0  0  0  0  0  0  0  0  0  0  0  0
   -0.7059    1.9212    1.6860 H   0  0  0  0  0  0  0  0  0  0  0  0
    0.4539    3.3373    3.0924 H   0  0  0  0  0  0  0  0  0  0  0  0
    2.5407    4.4303    3.7141 H   0  0  0  0  0  0  0  0  0  0  0  0
    5.7606    3.0867    3.2981 H   0  0  0  0  0  0  0  0  0  0  0  0
    4.8047    4.5194    3.6921 H   0  0  0  0  0  0  0  0  0  0  0  0
    5.4494    4.4108    2.0471 H   0  0  0  0  0  0  0  0  0  0  0  0
    5.9212    2.2641    1.4427 H   0  0  0  0  0  0  0  0  0  0  0  0
    4.2947   -1.9013   -1.5878 H   0  0  0  0  0  0  0  0  0  0  0  0
    6.6728   -2.1241   -2.1247 H   0  0  0  0  0  0  0  0  0  0  0  0
    8.6112   -2.2088   -2.4823 H   0  0  0  0  0  0  0  0  0  0  0  0
   11.0325   -2.2048   -2.8536 H   0  0  0  0  0  0  0  0  0  0  0  0
   12.4912   -0.5498   -1.7822 H   0  0  0  0  0  0  0  0  0  0  0  0
    9.0900    1.1545    0.0789 H   0  0  0  0  0  0  0  0  0  0  0  0
    2.6027    0.6574    0.5857 H   0  0  0  0  0  0  0  0  0  0  0  0
   -6.1870   -0.7063   -2.2777 H   0  0  0  0  0  0  0  0  0  0  0  0
   -5.5974    0.8055   -1.4807 H   0  0  0  0  0  0  0  0  0  0  0  0
   -7.5458    1.3496   -2.6604 H   0  0  0  0  0  0  0  0  0  0  0  0
   -7.9450    1.4195   -0.9167 H   0  0  0  0  0  0  0  0  0  0  0  0
  1  2  1  0
  2  3  1  0
  3  4  1  0
  4  5  1  0
  5  6  1  0
  6  7  1  0
  7  8  2  0
  8  9  1  0
  9 10  2  0
 10 11  1  0
 11 12  2  0
 12 13  1  0
 13 14  1  0
 13 15  1  0
 13 16  1  0
 10 17  1  0
 17 18  2  0
 17 19  1  0
 19 20  1  0
 20 21  2  0
 21 22  1  0
 22 23  2  0
 23 24  1  0
 23 25  1  0
 25 26  1  0
 26 27  1  0
 27 28  2  0
 28 29  1  0
 29 30  2  0
 30 31  1  0
 31 32  2  0
 31 33  1  0
 33 34  2  0
 34 35  1  0
 35 36  2  0
 36 37  1  0
 37 38  2  0
 25 39  2  0
  5 40  1  0
 40 41  1  0
 41  2  1  0
 12  7  1  0
 39 20  1  0
 32 27  1  0
 38 33  1  0
  1 42  1  0
  1 43  1  0
  1 44  1  0
  3 45  1  0
  3 46  1  0
  4 47  1  0
  4 48  1  0
  6 49  1  0
  6 50  1  0
  8 51  1  0
  9 52  1  0
 11 53  1  0
 19 54  1  0
 21 55  1  0
 22 56  1  0
 24 57  1  0
 24 58  1  0
 24 59  1  0
 26 60  1  0
 29 61  1  0
 30 62  1  0
 34 63  1  0
 35 64  1  0
 36 65  1  0
 38 66  1  0
 39 67  1  0
 40 68  1  0
 40 69  1  0
 41 70  1  0
 41 71  1  0
M  END
$$$$
[H]OC(=O)C(O[H])(C([H])(C([H])([H])[H])C([H])([H])[H])C1([H])C([H])([H])C([H])([H])N(C(=O)[C@@]([H])(N([H])[H])C([H])(C([H])([H])[H])C([H])([H])[H])C([H])([H])C1([H])[H]
     RDKit          3D

 49 49  0  0  0  0  0  0  0  0999 V2000
    4.7548    0.6375   -0.9050 C   0  0  0  0  0  0  0  0  0  0  0  0
    4.0360   -0.6022   -0.4340 C   0  0  0  0  0  0  0  0  0  0  0  0
    3.0839   -1.1233   -1.4757 C   0  0  0  0  0  0  0  0  0  0  0  0
    3.3289   -0.3580    0.8973 C   0  0  2  0  0  0  0  0  0  0  0  0
    2.6873   -1.5818    1.2599 N   0  0  0  0  0  0  0  0  0  0  0  0
    2.4744    0.8252    0.8740 C   0  0  0  0  0  0  0  0  0  0  0  0
    2.9857    1.9796    0.5805 O   0  0  0  0  0  0  0  0  0  0  0  0
    1.1049    0.7961    1.1540 N   0  0  0  0  0  0  0  0  0  0  0  0
    0.2739   -0.3024    1.5083 C   0  0  0  0  0  0  0  0  0  0  0  0
   -1.1912    0.0881    1.6686 C   0  0  0  0  0  0  0  0  0  0  0  0
   -1.7485    0.8734    0.5531 C   0  0  0  0  0  0  0  0  0  0  0  0
   -0.6782    1.8441    0.0279 C   0  0  0  0  0  0  0  0  0  0  0  0
    0.3882    2.0966    1.0702 C   0  0  0  0  0  0  0  0  0  0  0  0
   -2.2715    0.1631   -0.6299 C   0  0  0  0  0  0  0  0  0  0  0  0
   -1.3186   -0.6310   -1.2717 O   0  0  0  0  0  0  0  0  0  0  0  0
   -3.5728   -0.5264   -0.5524 C   0  0  0  0  0  0  0  0  0  0  0  0
   -3.8017   -1.1396   -1.9514 C   0  0  0  0  0  0  0  0  0  0  0  0
   -3.7030   -1.6739    0.3926 C   0  0  0  0  0  0  0  0  0  0  0  0
   -2.5319    1.2843   -1.6316 C   0  0  0  0  0  0  0  0  0  0  0  0
   -3.4896    2.2108   -1.2483 O   0  0  0  0  0  0  0  0  0  0  0  0
   -1.9445    1.3799   -2.7128 O   0  0  0  0  0  0  0  0  0  0  0  0
    5.6189    0.3250   -1.5551 H   0  0  0  0  0  0  0  0  0  0  0  0
    5.2085    1.1785   -0.0548 H   0  0  0  0  0  0  0  0  0  0  0  0
    4.0713    1.2805   -1.4994 H   0  0  0  0  0  0  0  0  0  0  0  0
    4.7865   -1.4073   -0.2245 H   0  0  0  0  0  0  0  0  0  0  0  0
    3.1314   -2.2245   -1.5919 H   0  0  0  0  0  0  0  0  0  0  0  0
    3.4080   -0.6944   -2.4613 H   0  0  0  0  0  0  0  0  0  0  0  0
    2.0397   -0.8399   -1.2700 H   0  0  0  0  0  0  0  0  0  0  0  0
    4.1581   -0.1659    1.6234 H   0  0  0  0  0  0  0  0  0  0  0  0
    3.2815   -2.1228    1.9169 H   0  0  0  0  0  0  0  0  0  0  0  0
    2.4116   -2.1613    0.4297 H   0  0  0  0  0  0  0  0  0  0  0  0
    0.6402   -0.7882    2.4306 H   0  0  0  0  0  0  0  0  0  0  0  0
    0.2996   -1.0541    0.6974 H   0  0  0  0  0  0  0  0  0  0  0  0
   -1.1742    0.7619    2.5801 H   0  0  0  0  0  0  0  0  0  0  0  0
   -1.7101   -0.8503    1.8890 H   0  0  0  0  0  0  0  0  0  0  0  0
   -2.5583    1.5476    0.9261 H   0  0  0  0  0  0  0  0  0  0  0  0
   -0.2138    1.3426   -0.8469 H   0  0  0  0  0  0  0  0  0  0  0  0
   -1.0995    2.8019   -0.2874 H   0  0  0  0  0  0  0  0  0  0  0  0
    1.0416    2.8805    0.6639 H   0  0  0  0  0  0  0  0  0  0  0  0
   -0.0967    2.3642    2.0065 H   0  0  0  0  0  0  0  0  0  0  0  0
   -1.3228   -1.5591   -1.0012 H   0  0  0  0  0  0  0  0  0  0  0  0
   -4.3966    0.2030   -0.4272 H   0  0  0  0  0  0  0  0  0  0  0  0
   -2.8242   -1.4316   -2.3893 H   0  0  0  0  0  0  0  0  0  0  0  0
   -4.2284   -0.3805   -2.6405 H   0  0  0  0  0  0  0  0  0  0  0  0
   -4.4152   -2.0526   -1.8882 H   0  0  0  0  0  0  0  0  0  0  0  0
   -4.0135   -1.2739    1.3840 H   0  0  0  0  0  0  0  0  0  0  0  0
   -4.5749   -2.3240    0.0793 H   0  0  0  0  0  0  0  0  0  0  0  0
   -2.8488   -2.3466    0.4146 H   0  0  0  0  0  0  0  0  0  0  0  0
   -3.4867    2.7511   -0.4191 H   0  0  0  0  0  0  0  0  0  0  0  0
  1  2  1  0
  2  3  1  0
  2  4  1  0
  4  5  1  0
  4  6  1  0
  6  7  2  0
  6  8  1  0
  8  9  1  0
  9 10  1  0
 10 11  1  0
 11 12  1  0
 12 13  1  0
 11 14  1  0
 14 15  1  0
 14 16  1  0
 16 17  1  0
 16 18  1  0
 14 19  1  0
 19 20  1  0
 19 21  2  0
 13  8  1  0
  1 22  1  0
  1 23  1  0
  1 24  1  0
  2 25  1  0
  3 26  1  0
  3 27  1  0
  3 28  1  0
  4 29  1  1
  5 30  1  0
  5 31  1  0
  9 32  1  0
  9 33  1  0
 10 34  1  0
 10 35  1  0
 11 36  1  0
 12 37  1  0
 12 38  1  0
 13 39  1  0
 13 40  1  0
 15 41  1  0
 16 42  1  0
 17 43  1  0
 17 44  1  0
 17 45  1  0
 18 46  1  0
 18 47  1  0
 18 48  1  0
 20 49  1  0
M  END
$$$$
[H]c1c([H])c(S(=O)(=O)N2C([H])([H])C([H])([H])N(C([H])([H])c3c([H])c([H])c([N+](=O)[O-])c([H])c3[H])C([H])([H])C2([H])[H])c([H])c([H])c1N1C([H])([H])C([H])([H])OC([H])([H])C1([H])[H]
     RDKit          3D

 57 60  0  0  0  0  0  0  0  0999 V2000
    9.8776   -0.7997    1.3721 O   0  0  0  0  0  0  0  0  0  0  0  0
    9.3105   -0.1497    0.3147 N   0  0  0  0  0  0  0  0  0  0  0  0
    9.9986    0.6480   -0.3334 O   0  0  0  0  0  0  0  0  0  0  0  0
    7.9649   -0.3558   -0.0657 C   0  0  0  0  0  0  0  0  0  0  0  0
    7.4140    0.3124   -1.1388 C   0  0  0  0  0  0  0  0  0  0  0  0
    6.1013    0.1117   -1.5105 C   0  0  0  0  0  0  0  0  0  0  0  0
    5.2695   -0.7673   -0.8298 C   0  0  0  0  0  0  0  0  0  0  0  0
    3.8621   -0.9515   -1.2685 C   0  0  0  0  0  0  0  0  0  0  0  0
    2.9823    0.0215   -0.6519 N   0  0  0  0  0  0  0  0  0  0  0  0
    1.6285   -0.1715   -1.0901 C   0  0  0  0  0  0  0  0  0  0  0  0
    0.7657   -0.4406    0.1234 C   0  0  0  0  0  0  0  0  0  0  0  0
    0.8123    0.7538    0.9479 N   0  0  0  0  0  0  0  0  0  0  0  0
    2.1347    0.9526    1.4498 C   0  0  0  0  0  0  0  0  0  0  0  0
    3.1614    0.0762    0.7667 C   0  0  0  0  0  0  0  0  0  0  0  0
   -0.3666    0.6679    2.2078 S   0  0  0  0  0  0  0  0  0  0  0  0
   -0.1070   -0.5595    2.9965 O   0  0  0  0  0  0  0  0  0  0  0  0
   -0.3043    1.8769    3.0638 O   0  0  0  0  0  0  0  0  0  0  0  0
   -1.9857    0.5684    1.5442 C   0  0  0  0  0  0  0  0  0  0  0  0
   -2.5093   -0.6661    1.2938 C   0  0  0  0  0  0  0  0  0  0  0  0
   -3.7975   -0.7692    0.7647 C   0  0  0  0  0  0  0  0  0  0  0  0
   -4.5500    0.3353    0.4901 C   0  0  0  0  0  0  0  0  0  0  0  0
   -3.9811    1.5721    0.7591 C   0  0  0  0  0  0  0  0  0  0  0  0
   -2.7158    1.7137    1.2800 C   0  0  0  0  0  0  0  0  0  0  0  0
   -5.8489    0.2304   -0.0458 N   0  0  0  0  0  0  0  0  0  0  0  0
   -6.4583   -1.0292   -0.3938 C   0  0  0  0  0  0  0  0  0  0  0  0
   -7.4576   -0.8302   -1.5265 C   0  0  0  0  0  0  0  0  0  0  0  0
   -8.3912    0.1399   -1.2791 O   0  0  0  0  0  0  0  0  0  0  0  0
   -8.0891    1.0006   -0.2515 C   0  0  0  0  0  0  0  0  0  0  0  0
   -6.6224    1.4332   -0.2607 C   0  0  0  0  0  0  0  0  0  0  0  0
    5.8186   -1.4366    0.2437 C   0  0  0  0  0  0  0  0  0  0  0  0
    7.1313   -1.2370    0.6168 C   0  0  0  0  0  0  0  0  0  0  0  0
    8.0568    1.0097   -1.6867 H   0  0  0  0  0  0  0  0  0  0  0  0
    5.6608    0.6341   -2.3540 H   0  0  0  0  0  0  0  0  0  0  0  0
    3.7829   -0.8725   -2.3707 H   0  0  0  0  0  0  0  0  0  0  0  0
    3.5432   -1.9531   -0.8975 H   0  0  0  0  0  0  0  0  0  0  0  0
    1.2604    0.7848   -1.5333 H   0  0  0  0  0  0  0  0  0  0  0  0
    1.5620   -1.0013   -1.8235 H   0  0  0  0  0  0  0  0  0  0  0  0
   -0.2714   -0.6603   -0.1746 H   0  0  0  0  0  0  0  0  0  0  0  0
    1.2179   -1.2944    0.6751 H   0  0  0  0  0  0  0  0  0  0  0  0
    2.4762    2.0038    1.4506 H   0  0  0  0  0  0  0  0  0  0  0  0
    2.1332    0.6359    2.5297 H   0  0  0  0  0  0  0  0  0  0  0  0
    4.1531    0.5271    0.9761 H   0  0  0  0  0  0  0  0  0  0  0  0
    3.1603   -0.9474    1.1917 H   0  0  0  0  0  0  0  0  0  0  0  0
   -1.9687   -1.5952    1.4870 H   0  0  0  0  0  0  0  0  0  0  0  0
   -4.1804   -1.7758    0.5795 H   0  0  0  0  0  0  0  0  0  0  0  0
   -4.5373    2.4602    0.5576 H   0  0  0  0  0  0  0  0  0  0  0  0
   -2.2595    2.6683    1.4947 H   0  0  0  0  0  0  0  0  0  0  0  0
   -5.7086   -1.7822   -0.7498 H   0  0  0  0  0  0  0  0  0  0  0  0
   -7.0471   -1.4045    0.4741 H   0  0  0  0  0  0  0  0  0  0  0  0
   -7.9936   -1.7999   -1.6688 H   0  0  0  0  0  0  0  0  0  0  0  0
   -6.9352   -0.5737   -2.4711 H   0  0  0  0  0  0  0  0  0  0  0  0
   -8.7437    1.9084   -0.3758 H   0  0  0  0  0  0  0  0  0  0  0  0
   -8.3145    0.6042    0.7544 H   0  0  0  0  0  0  0  0  0  0  0  0
   -6.3508    1.9453   -1.1839 H   0  0  0  0  0  0  0  0  0  0  0  0
   -6.5385    2.1120    0.6387 H   0  0  0  0  0  0  0  0  0  0  0  0
    5.2071   -2.1308    0.8019 H   0  0  0  0  0  0  0  0  0  0  0  0
    7.5868   -1.7531    1.4598 H   0  0  0  0  0  0  0  0  0  0  0  0
  1  2  1  0
  2  3  2  0
  2  4  1  0
  4  5  2  0
  5  6  1  0
  6  7  2  0
  7  8  1  0
  8  9  1  0
  9 10  1  0
 10 11  1  0
 11 12  1  0
 12 13  1  0
 13 14  1  0
 12 15  1  0
 15 16  2  0
 15 17  2  0
 15 18  1  0
 18 19  2  0
 19 20  1  0
 20 21  2  0
 21 22  1  0
 22 23  2  0
 21 24  1  0
 24 25  1  0
 25 26  1  0
 26 27  1  0
 27 28  1  0
 28 29  1  0
  7 30  1  0
 30 31  2  0
 31  4  1  0
 14  9  1  0
 23 18  1  0
 29 24  1  0
  5 32  1  0
  6 33  1  0
  8 34  1  0
  8 35  1  0
 10 36  1  0
 10 37  1  0
 11 38  1  0
 11 39  1  0
 13 40  1  0
 13 41  1  0
 14 42  1  0
 14 43  1  0
 19 44  1  0
 20 45  1  0
 22 46  1  0
 23 47  1  0
 25 48  1  0
 25 49  1  0
 26 50  1  0
 26 51  1  0
 28 52  1  0
 28 53  1  0
 29 54  1  0
 29 55  1  0
 30 56  1  0
 31 57  1  0
M  CHG  2   1  -1   2   1
M  END
$$$$
[H]O[C@@]1([H])C([H])([H])C([H])([H])[C@]2(C([H])([H])[H])C3([H])C([H])([H])C([H])([H])[C@@]4(C([H])([H])[H])C([H])(C([H])([H])C([H])([H])[C@]4([H])c4c([H])nc([H])c([H])c4[H])C3([H])C([H])([H])C([H])([H])C2([H])C1([H])[H]
     RDKit          3D

 61 65  0  0  0  0  0  0  0  0999 V2000
   -2.2106    0.3673    1.6099 C   0  0  0  0  0  0  0  0  0  0  0  0
   -1.8330   -0.0080    0.2283 C   0  0  2  0  0  0  0  0  0  0  0  0
   -1.2686   -1.3771    0.1510 C   0  0  0  0  0  0  0  0  0  0  0  0
    0.2215   -1.3912   -0.1807 C   0  0  0  0  0  0  0  0  0  0  0  0
    0.9751   -0.3884    0.7057 C   0  0  0  0  0  0  0  0  0  0  0  0
    0.3915    0.9572    0.5118 C   0  0  0  0  0  0  0  0  0  0  0  0
    1.3715    1.9646   -0.0629 C   0  0  0  0  0  0  0  0  0  0  0  0
    2.5595    1.9363    0.8714 C   0  0  0  0  0  0  0  0  0  0  0  0
    3.2847    0.6353    0.6151 C   0  0  0  0  0  0  0  0  0  0  0  0
    4.1934    0.9035   -0.5931 C   0  0  0  0  0  0  0  0  0  0  0  0
    5.0636   -0.2745   -0.9071 C   0  0  1  0  0  0  0  0  0  0  0  0
    6.1291   -0.4031   -0.0139 O   0  0  0  0  0  0  0  0  0  0  0  0
    4.2099   -1.4972   -0.9640 C   0  0  0  0  0  0  0  0  0  0  0  0
    2.7170   -1.1419   -0.9419 C   0  0  0  0  0  0  0  0  0  0  0  0
    2.4194   -0.5479    0.4444 C   0  0  2  0  0  0  0  0  0  0  0  0
    2.9364   -1.6313    1.4115 C   0  0  0  0  0  0  0  0  0  0  0  0
   -0.7992    0.9378   -0.3792 C   0  0  0  0  0  0  0  0  0  0  0  0
   -1.5669    2.2066   -0.4677 C   0  0  0  0  0  0  0  0  0  0  0  0
   -2.9580    1.7297   -0.9051 C   0  0  0  0  0  0  0  0  0  0  0  0
   -2.9793    0.2485   -0.7187 C   0  0  2  0  0  0  0  0  0  0  0  0
   -4.2553   -0.3380   -0.3467 C   0  0  0  0  0  0  0  0  0  0  0  0
   -5.1179    0.1958    0.5761 C   0  0  0  0  0  0  0  0  0  0  0  0
   -6.3213   -0.3898    0.9107 C   0  0  0  0  0  0  0  0  0  0  0  0
   -6.6931   -1.5693    0.2987 C   0  0  0  0  0  0  0  0  0  0  0  0
   -5.8468   -2.1126   -0.6210 N   0  0  0  0  0  0  0  0  0  0  0  0
   -4.6746   -1.5361   -0.9424 C   0  0  0  0  0  0  0  0  0  0  0  0
   -1.3691    0.2883    2.3401 H   0  0  0  0  0  0  0  0  0  0  0  0
   -2.9614   -0.3603    1.9810 H   0  0  0  0  0  0  0  0  0  0  0  0
   -2.5970    1.3825    1.7198 H   0  0  0  0  0  0  0  0  0  0  0  0
   -1.4604   -1.9761    1.0724 H   0  0  0  0  0  0  0  0  0  0  0  0
   -1.7592   -1.9473   -0.6744 H   0  0  0  0  0  0  0  0  0  0  0  0
    0.3972   -1.2163   -1.2438 H   0  0  0  0  0  0  0  0  0  0  0  0
    0.5798   -2.3986    0.1532 H   0  0  0  0  0  0  0  0  0  0  0  0
    0.7262   -0.7185    1.7580 H   0  0  0  0  0  0  0  0  0  0  0  0
    0.0651    1.4314    1.4853 H   0  0  0  0  0  0  0  0  0  0  0  0
    0.8550    2.9428   -0.0709 H   0  0  0  0  0  0  0  0  0  0  0  0
    1.5972    1.6730   -1.0847 H   0  0  0  0  0  0  0  0  0  0  0  0
    3.2596    2.7587    0.7065 H   0  0  0  0  0  0  0  0  0  0  0  0
    2.1797    1.9208    1.8983 H   0  0  0  0  0  0  0  0  0  0  0  0
    4.0124    0.5320    1.4758 H   0  0  0  0  0  0  0  0  0  0  0  0
    4.8533    1.7502   -0.2779 H   0  0  0  0  0  0  0  0  0  0  0  0
    3.6372    1.1986   -1.4785 H   0  0  0  0  0  0  0  0  0  0  0  0
    5.5173   -0.0911   -1.9031 H   0  0  0  0  0  0  0  0  0  0  0  0
    6.1828    0.3700    0.6160 H   0  0  0  0  0  0  0  0  0  0  0  0
    4.4104   -2.0542   -1.9095 H   0  0  0  0  0  0  0  0  0  0  0  0
    4.4706   -2.1501   -0.1303 H   0  0  0  0  0  0  0  0  0  0  0  0
    2.4784   -0.4571   -1.7505 H   0  0  0  0  0  0  0  0  0  0  0  0
    2.2027   -2.1397   -1.0500 H   0  0  0  0  0  0  0  0  0  0  0  0
    2.8376   -2.6321    0.9929 H   0  0  0  0  0  0  0  0  0  0  0  0
    2.3351   -1.5442    2.3617 H   0  0  0  0  0  0  0  0  0  0  0  0
    3.9837   -1.4227    1.7121 H   0  0  0  0  0  0  0  0  0  0  0  0
   -0.5950    0.5629   -1.3969 H   0  0  0  0  0  0  0  0  0  0  0  0
   -1.6317    2.7613    0.4882 H   0  0  0  0  0  0  0  0  0  0  0  0
   -1.1220    2.8969   -1.2033 H   0  0  0  0  0  0  0  0  0  0  0  0
   -3.7483    2.2593   -0.3370 H   0  0  0  0  0  0  0  0  0  0  0  0
   -3.0641    2.0427   -1.9640 H   0  0  0  0  0  0  0  0  0  0  0  0
   -2.6588   -0.2063   -1.7178 H   0  0  0  0  0  0  0  0  0  0  0  0
   -4.8570    1.1133    1.0645 H   0  0  0  0  0  0  0  0  0  0  0  0
   -7.0044    0.0275    1.6378 H   0  0  0  0  0  0  0  0  0  0  0  0
   -7.6341   -2.0362    0.5539 H   0  0  0  0  0  0  0  0  0  0  0  0
   -4.0665   -2.0376   -1.6828 H   0  0  0  0  0  0  0  0  0  0  0  0
  2  1  1  1
  2  3  1  0
  3  4  1  0
  4  5  1  0
  5  6  1  0
  6  7  1  0
  7  8  1  0
  8  9  1  0
  9 10  1  0
 10 11  1  0
 11 12  1  0
 11 13  1  0
 13 14  1  0
 14 15  1  0
 15 16  1  1
  6 17  1  0
 17 18  1  0
 18 19  1  0
 19 20  1  0
 20 21  1  0
 21 22  2  0
 22 23  1  0
 23 24  2  0
 24 25  1  0
 25 26  2  0
 17  2  1  0
 26 21  1  0
 20  2  1  0
 15  5  1  0
 15  9  1  0
  1 27  1  0
  1 28  1  0
  1 29  1  0
  3 30  1  0
  3 31  1  0
  4 32  1  0
  4 33  1  0
  5 34  1  0
  6 35  1  0
  7 36  1  0
  7 37  1  0
  8 38  1  0
  8 39  1  0
  9 40  1  0
 10 41  1  0
 10 42  1  0
 11 43  1  6
 12 44  1  0
 13 45  1  0
 13 46  1  0
 14 47  1  0
 14 48  1  0
 16 49  1  0
 16 50  1  0
 16 51  1  0
 17 52  1  0
 18 53  1  0
 18 54  1  0
 19 55  1  0
 19 56  1  0
 20 57  1  6
 22 58  1  0
 23 59  1  0
 24 60  1  0
 26 61  1  0
M  END
$$$$
[H]c1c([H])c(N([H])C(=O)c2c(C([H])([H])[H])c(C(=O)C(=O)N([H])C3(C(F)(F)F)C([H])([H])C3([H])[H])c3n2C([H])([H])C([H])([H])C3([H])[H])c([H])c(Cl)c1F
     RDKit          3D

 50 53  0  0  0  0  0  0  0  0999 V2000
    0.2390    1.7385   -0.4659 C   0  0  0  0  0  0  0  0  0  0  0  0
    0.3389    0.2619   -0.6416 C   0  0  0  0  0  0  0  0  0  0  0  0
   -0.7553   -0.5059   -1.0661 C   0  0  0  0  0  0  0  0  0  0  0  0
   -2.0777   -0.0045   -1.4109 C   0  0  0  0  0  0  0  0  0  0  0  0
   -2.3502    0.3385   -2.5900 O   0  0  0  0  0  0  0  0  0  0  0  0
   -3.1295    0.1193   -0.4140 C   0  0  0  0  0  0  0  0  0  0  0  0
   -2.8615   -0.2230    0.7687 O   0  0  0  0  0  0  0  0  0  0  0  0
   -4.4181    0.6095   -0.7567 N   0  0  0  0  0  0  0  0  0  0  0  0
   -5.4473    0.7231    0.2540 C   0  0  0  0  0  0  0  0  0  0  0  0
   -5.8339   -0.5436    0.9349 C   0  0  0  0  0  0  0  0  0  0  0  0
   -6.7717    0.1192   -0.0424 C   0  0  0  0  0  0  0  0  0  0  0  0
   -5.4617    1.9879    1.1121 C   0  0  0  0  0  0  0  0  0  0  0  0
   -6.5029    1.9007    1.9995 F   0  0  0  0  0  0  0  0  0  0  0  0
   -5.6060    3.1076    0.2953 F   0  0  0  0  0  0  0  0  0  0  0  0
   -4.2980    2.0705    1.8527 F   0  0  0  0  0  0  0  0  0  0  0  0
   -0.3266   -1.8098   -1.0888 C   0  0  0  0  0  0  0  0  0  0  0  0
   -0.8544   -3.1994   -1.4157 C   0  0  0  0  0  0  0  0  0  0  0  0
    0.1258   -4.0513   -0.6416 C   0  0  0  0  0  0  0  0  0  0  0  0
    1.4215   -3.2458   -0.7230 C   0  0  0  0  0  0  0  0  0  0  0  0
    0.9373   -1.8734   -0.7107 N   0  0  0  0  0  0  0  0  0  0  0  0
    1.3654   -0.6029   -0.4314 C   0  0  0  0  0  0  0  0  0  0  0  0
    2.7513   -0.3021   -0.0149 C   0  0  0  0  0  0  0  0  0  0  0  0
    3.4620   -1.2554    0.4413 O   0  0  0  0  0  0  0  0  0  0  0  0
    3.3133    0.9756   -0.1035 N   0  0  0  0  0  0  0  0  0  0  0  0
    4.6440    1.3184    0.2815 C   0  0  0  0  0  0  0  0  0  0  0  0
    4.9492    2.6412    0.6295 C   0  0  0  0  0  0  0  0  0  0  0  0
    6.2188    3.0315    0.9836 C   0  0  0  0  0  0  0  0  0  0  0  0
    7.2521    2.1361    1.0122 C   0  0  0  0  0  0  0  0  0  0  0  0
    8.5149    2.4701    1.3532 F   0  0  0  0  0  0  0  0  0  0  0  0
    6.9893    0.8452    0.6796 C   0  0  0  0  0  0  0  0  0  0  0  0
    8.2743   -0.3349    0.7009 Cl  0  0  0  0  0  0  0  0  0  0  0  0
    5.6944    0.4439    0.3174 C   0  0  0  0  0  0  0  0  0  0  0  0
    0.7210    2.0216    0.4929 H   0  0  0  0  0  0  0  0  0  0  0  0
   -0.8469    1.9888   -0.3280 H   0  0  0  0  0  0  0  0  0  0  0  0
    0.6695    2.2429   -1.3285 H   0  0  0  0  0  0  0  0  0  0  0  0
   -4.6445    0.8937   -1.7330 H   0  0  0  0  0  0  0  0  0  0  0  0
   -5.3861   -1.5164    0.5886 H   0  0  0  0  0  0  0  0  0  0  0  0
   -6.0977   -0.5162    2.0096 H   0  0  0  0  0  0  0  0  0  0  0  0
   -7.7016    0.5836    0.3931 H   0  0  0  0  0  0  0  0  0  0  0  0
   -6.8815   -0.3323   -1.0490 H   0  0  0  0  0  0  0  0  0  0  0  0
   -0.7081   -3.4195   -2.4897 H   0  0  0  0  0  0  0  0  0  0  0  0
   -1.8866   -3.3175   -1.0785 H   0  0  0  0  0  0  0  0  0  0  0  0
    0.2577   -5.0483   -1.0946 H   0  0  0  0  0  0  0  0  0  0  0  0
   -0.2372   -4.1220    0.4038 H   0  0  0  0  0  0  0  0  0  0  0  0
    1.9973   -3.4959    0.1907 H   0  0  0  0  0  0  0  0  0  0  0  0
    1.9773   -3.4759   -1.6294 H   0  0  0  0  0  0  0  0  0  0  0  0
    2.7909    1.8111   -0.4999 H   0  0  0  0  0  0  0  0  0  0  0  0
    4.1371    3.3503    0.6091 H   0  0  0  0  0  0  0  0  0  0  0  0
    6.4446    4.0685    1.2536 H   0  0  0  0  0  0  0  0  0  0  0  0
    5.5980   -0.6031    0.0540 H   0  0  0  0  0  0  0  0  0  0  0  0
  1  2  1  0
  2  3  1  0
  3  4  1  0
  4  5  2  0
  4  6  1  0
  6  7  2  0
  6  8  1  0
  8  9  1  0
  9 10  1  0
 10 11  1  0
  9 12  1  0
 12 13  1  0
 12 14  1  0
 12 15  1  0
  3 16  2  0
 16 17  1  0
 17 18  1  0
 18 19  1  0
 19 20  1  0
 20 21  1  0
 21 22  1  0
 22 23  2  0
 22 24  1  0
 24 25  1  0
 25 26  2  0
 26 27  1  0
 27 28  2  0
 28 29  1  0
 28 30  1  0
 30 31  1  0
 30 32  2  0
 21  2  2  0
 32 25  1  0
 11  9  1  0
 20 16  1  0
  1 33  1  0
  1 34  1  0
  1 35  1  0
  8 36  1  0
 10 37  1  0
 10 38  1  0
 11 39  1  0
 11 40  1  0
 17 41  1  0
 17 42  1  0
 18 43  1  0
 18 44  1  0
 19 45  1  0
 19 46  1  0
 24 47  1  0
 26 48  1  0
 27 49  1  0
 32 50  1  0
M  END
$$$$
[H]c1nc2c([H])c(C([H])([H])[H])c(-c3c(C([H])(C([H])([H])[H])C([H])([H])[H])c4c([H])c(C5([H])C([H])([H])C([H])([H])N(C([H])([H])c6c([H])nn(C([H])([H])[H])c6[H])C([H])([H])C5([H])[H])c([H])c([H])c4n3[H])c([H])n2n1
     RDKit          3D

 68 73  0  0  0  0  0  0  0  0999 V2000
   -2.2540   -2.2053   -1.2825 C   0  0  0  0  0  0  0  0  0  0  0  0
   -3.2687   -1.4238   -0.5148 C   0  0  0  0  0  0  0  0  0  0  0  0
   -3.4382   -2.1481    0.8717 C   0  0  0  0  0  0  0  0  0  0  0  0
   -2.9694   -0.0369   -0.1908 C   0  0  0  0  0  0  0  0  0  0  0  0
   -3.8967    0.9638    0.1261 C   0  0  0  0  0  0  0  0  0  0  0  0
   -3.1873    2.0385    0.4866 N   0  0  0  0  0  0  0  0  0  0  0  0
   -1.8674    1.7893    0.4160 C   0  0  0  0  0  0  0  0  0  0  0  0
   -0.7986    2.6048    0.6830 C   0  0  0  0  0  0  0  0  0  0  0  0
    0.5057    2.1241    0.5241 C   0  0  0  0  0  0  0  0  0  0  0  0
    0.7301    0.8433    0.1043 C   0  0  0  0  0  0  0  0  0  0  0  0
   -0.3914    0.0503   -0.1536 C   0  0  0  0  0  0  0  0  0  0  0  0
   -1.6859    0.4960   -0.0076 C   0  0  0  0  0  0  0  0  0  0  0  0
    2.0857    0.3264   -0.1026 C   0  0  0  0  0  0  0  0  0  0  0  0
    2.2504   -0.2324   -1.5221 C   0  0  0  0  0  0  0  0  0  0  0  0
    3.6047   -0.8539   -1.5934 C   0  0  0  0  0  0  0  0  0  0  0  0
    4.4581   -0.3624   -0.4714 N   0  0  0  0  0  0  0  0  0  0  0  0
    5.7795   -0.7010   -0.8462 C   0  0  0  0  0  0  0  0  0  0  0  0
    6.8726   -0.2378    0.0079 C   0  0  0  0  0  0  0  0  0  0  0  0
    6.9378    0.4189    1.2024 C   0  0  0  0  0  0  0  0  0  0  0  0
    8.2196    0.5969    1.4995 N   0  0  0  0  0  0  0  0  0  0  0  0
    8.9916    0.0943    0.5657 N   0  0  0  0  0  0  0  0  0  0  0  0
   10.4425    0.0780    0.4939 C   0  0  0  0  0  0  0  0  0  0  0  0
    8.2012   -0.4287   -0.3689 C   0  0  0  0  0  0  0  0  0  0  0  0
    3.9360   -1.1019    0.6730 C   0  0  0  0  0  0  0  0  0  0  0  0
    2.4621   -0.7876    0.8300 C   0  0  0  0  0  0  0  0  0  0  0  0
   -5.3722    0.9122    0.1327 C   0  0  0  0  0  0  0  0  0  0  0  0
   -6.0605    0.2582   -0.8652 C   0  0  0  0  0  0  0  0  0  0  0  0
   -7.3941    0.1566   -0.8027 N   0  0  0  0  0  0  0  0  0  0  0  0
   -8.2846   -0.4108   -1.6237 N   0  0  0  0  0  0  0  0  0  0  0  0
   -9.5221   -0.2473   -1.1311 C   0  0  0  0  0  0  0  0  0  0  0  0
   -9.4138    0.4262    0.0050 N   0  0  0  0  0  0  0  0  0  0  0  0
   -8.1003    0.6729    0.2024 C   0  0  0  0  0  0  0  0  0  0  0  0
   -7.4520    1.3263    1.2029 C   0  0  0  0  0  0  0  0  0  0  0  0
   -6.0612    1.4603    1.1887 C   0  0  0  0  0  0  0  0  0  0  0  0
   -5.4531    2.1707    2.3386 C   0  0  0  0  0  0  0  0  0  0  0  0
   -1.5851   -2.7355   -0.6059 H   0  0  0  0  0  0  0  0  0  0  0  0
   -1.6947   -1.6243   -2.0301 H   0  0  0  0  0  0  0  0  0  0  0  0
   -2.7991   -2.9829   -1.9425 H   0  0  0  0  0  0  0  0  0  0  0  0
   -4.2392   -1.5855   -0.9876 H   0  0  0  0  0  0  0  0  0  0  0  0
   -4.0611   -3.0510    0.7261 H   0  0  0  0  0  0  0  0  0  0  0  0
   -3.9125   -1.3902    1.5182 H   0  0  0  0  0  0  0  0  0  0  0  0
   -2.4222   -2.4449    1.1692 H   0  0  0  0  0  0  0  0  0  0  0  0
   -3.5672    2.9889    0.7822 H   0  0  0  0  0  0  0  0  0  0  0  0
   -0.9363    3.6130    1.0124 H   0  0  0  0  0  0  0  0  0  0  0  0
    1.3236    2.7894    0.7418 H   0  0  0  0  0  0  0  0  0  0  0  0
   -0.1969   -0.9411   -0.4641 H   0  0  0  0  0  0  0  0  0  0  0  0
    2.8639    1.1274    0.0143 H   0  0  0  0  0  0  0  0  0  0  0  0
    2.0862    0.5790   -2.2691 H   0  0  0  0  0  0  0  0  0  0  0  0
    1.4378   -0.9787   -1.6530 H   0  0  0  0  0  0  0  0  0  0  0  0
    3.5027   -1.9428   -1.4151 H   0  0  0  0  0  0  0  0  0  0  0  0
    4.1127   -0.7477   -2.5545 H   0  0  0  0  0  0  0  0  0  0  0  0
    5.9545   -0.2281   -1.8617 H   0  0  0  0  0  0  0  0  0  0  0  0
    5.8602   -1.8103   -1.0673 H   0  0  0  0  0  0  0  0  0  0  0  0
    6.0527    0.7236    1.7639 H   0  0  0  0  0  0  0  0  0  0  0  0
   10.8642   -0.9317    0.5601 H   0  0  0  0  0  0  0  0  0  0  0  0
   10.7075    0.4401   -0.5457 H   0  0  0  0  0  0  0  0  0  0  0  0
   10.9205    0.7044    1.2549 H   0  0  0  0  0  0  0  0  0  0  0  0
    8.5461   -0.9157   -1.2703 H   0  0  0  0  0  0  0  0  0  0  0  0
    4.4734   -0.9721    1.6014 H   0  0  0  0  0  0  0  0  0  0  0  0
    4.0334   -2.1869    0.3739 H   0  0  0  0  0  0  0  0  0  0  0  0
    2.2292   -0.4981    1.8813 H   0  0  0  0  0  0  0  0  0  0  0  0
    1.8541   -1.6991    0.5895 H   0  0  0  0  0  0  0  0  0  0  0  0
   -5.5502   -0.1437   -1.7465 H   0  0  0  0  0  0  0  0  0  0  0  0
  -10.4618   -0.6032   -1.5766 H   0  0  0  0  0  0  0  0  0  0  0  0
   -7.9902    1.7748    2.0566 H   0  0  0  0  0  0  0  0  0  0  0  0
   -6.1247    1.9965    3.2237 H   0  0  0  0  0  0  0  0  0  0  0  0
   -5.4110    3.2736    2.1960 H   0  0  0  0  0  0  0  0  0  0  0  0
   -4.4764    1.7728    2.6460 H   0  0  0  0  0  0  0  0  0  0  0  0
  1  2  1  0
  2  3  1  0
  2  4  1  0
  4  5  2  0
  5  6  1  0
  6  7  1  0
  7  8  2  0
  8  9  1  0
  9 10  2  0
 10 11  1  0
 11 12  2  0
 10 13  1  0
 13 14  1  0
 14 15  1  0
 15 16  1  0
 16 17  1  0
 17 18  1  0
 18 19  1  0
 19 20  2  0
 20 21  1  0
 21 22  1  0
 21 23  1  0
 16 24  1  0
 24 25  1  0
  5 26  1  0
 26 27  2  0
 27 28  1  0
 28 29  1  0
 29 30  2  0
 30 31  1  0
 31 32  2  0
 32 33  1  0
 33 34  2  0
 34 35  1  0
 12  4  1  0
 25 13  1  0
 34 26  1  0
 12  7  1  0
 23 18  2  0
 32 28  1  0
  1 36  1  0
  1 37  1  0
  1 38  1  0
  2 39  1  0
  3 40  1  0
  3 41  1  0
  3 42  1  0
  6 43  1  0
  8 44  1  0
  9 45  1  0
 11 46  1  0
 13 47  1  0
 14 48  1  0
 14 49  1  0
 15 50  1  0
 15 51  1  0
 17 52  1  0
 17 53  1  0
 19 54  1  0
 22 55  1  0
 22 56  1  0
 22 57  1  0
 23 58  1  0
 24 59  1  0
 24 60  1  0
 25 61  1  0
 25 62  1  0
 27 63  1  0
 30 64  1  0
 33 65  1  0
 35 66  1  0
 35 67  1  0
 35 68  1  0
M  END
$$$$
[H]c1nc2c([H])c([H])c([H])c([H])n2c1C(=O)N([H])c1c([H])c(N([H])C(=O)c2c([H])c([H])c(C([H])([H])N3C([H])([H])C([H])([H])N(C([H])([H])C([H])([H])[H])C([H])([H])C3([H])[H])c(C(F)(F)F)c2[H])c([H])c([H])c1C([H])([H])[H]
     RDKit          3D

 72 76  0  0  0  0  0  0  0  0999 V2000
  -10.3275   -0.5807   -0.1374 C   0  0  0  0  0  0  0  0  0  0  0  0
   -9.9906    0.8434    0.2413 C   0  0  0  0  0  0  0  0  0  0  0  0
   -8.6173    1.1830   -0.0881 N   0  0  0  0  0  0  0  0  0  0  0  0
   -7.6981    0.4633    0.7323 C   0  0  0  0  0  0  0  0  0  0  0  0
   -6.5110   -0.1017   -0.0074 C   0  0  0  0  0  0  0  0  0  0  0  0
   -5.9488    0.7989   -0.9623 N   0  0  0  0  0  0  0  0  0  0  0  0
   -4.8267    1.5639   -0.5424 C   0  0  0  0  0  0  0  0  0  0  0  0
   -3.6184    0.7268   -0.3935 C   0  0  0  0  0  0  0  0  0  0  0  0
   -3.5719   -0.6232   -0.7105 C   0  0  0  0  0  0  0  0  0  0  0  0
   -2.4108   -1.3710   -0.5887 C   0  0  0  0  0  0  0  0  0  0  0  0
   -1.2356   -0.8119   -0.1457 C   0  0  0  0  0  0  0  0  0  0  0  0
   -1.2699    0.5185    0.1687 C   0  0  0  0  0  0  0  0  0  0  0  0
   -2.4318    1.2991    0.0552 C   0  0  0  0  0  0  0  0  0  0  0  0
   -2.3914    2.7336    0.4128 C   0  0  0  0  0  0  0  0  0  0  0  0
   -3.2121    3.1034    1.4304 F   0  0  0  0  0  0  0  0  0  0  0  0
   -1.0754    3.0245    0.8448 F   0  0  0  0  0  0  0  0  0  0  0  0
   -2.5329    3.5500   -0.7223 F   0  0  0  0  0  0  0  0  0  0  0  0
   -0.0135   -1.6221   -0.0123 C   0  0  0  0  0  0  0  0  0  0  0  0
   -0.1842   -2.8588   -0.0206 O   0  0  0  0  0  0  0  0  0  0  0  0
    1.2552   -1.0623    0.1155 N   0  0  0  0  0  0  0  0  0  0  0  0
    2.5003   -1.7125    0.2587 C   0  0  0  0  0  0  0  0  0  0  0  0
    2.6620   -3.0348    0.5854 C   0  0  0  0  0  0  0  0  0  0  0  0
    3.9235   -3.5982    0.6903 C   0  0  0  0  0  0  0  0  0  0  0  0
    5.0398   -2.8266    0.4649 C   0  0  0  0  0  0  0  0  0  0  0  0
    6.3824   -3.4467    0.5852 C   0  0  0  0  0  0  0  0  0  0  0  0
    4.9340   -1.4666    0.1271 C   0  0  0  0  0  0  0  0  0  0  0  0
    6.1089   -0.7396   -0.0894 N   0  0  0  0  0  0  0  0  0  0  0  0
    6.2813    0.6043   -0.4408 C   0  0  0  0  0  0  0  0  0  0  0  0
    5.3083    1.3592   -0.6347 O   0  0  0  0  0  0  0  0  0  0  0  0
    7.5995    1.1973   -0.6068 C   0  0  0  0  0  0  0  0  0  0  0  0
    7.8614    2.2193   -1.5170 C   0  0  0  0  0  0  0  0  0  0  0  0
    9.1462    2.5549   -1.3888 N   0  0  0  0  0  0  0  0  0  0  0  0
    9.7309    1.8027   -0.4401 C   0  0  0  0  0  0  0  0  0  0  0  0
   11.0246    1.7871    0.0602 C   0  0  0  0  0  0  0  0  0  0  0  0
   11.3929    0.9271    1.0668 C   0  0  0  0  0  0  0  0  0  0  0  0
   10.4157    0.0916    1.5459 C   0  0  0  0  0  0  0  0  0  0  0  0
    9.1224    0.1436    1.0078 C   0  0  0  0  0  0  0  0  0  0  0  0
    8.7645    0.9777    0.0275 N   0  0  0  0  0  0  0  0  0  0  0  0
    3.6795   -0.9629    0.0370 C   0  0  0  0  0  0  0  0  0  0  0  0
   -6.9219    1.5419   -1.7178 C   0  0  0  0  0  0  0  0  0  0  0  0
   -8.3110    0.9501   -1.4676 C   0  0  0  0  0  0  0  0  0  0  0  0
  -11.0542   -0.5130   -0.9867 H   0  0  0  0  0  0  0  0  0  0  0  0
  -10.8819   -1.0907    0.6867 H   0  0  0  0  0  0  0  0  0  0  0  0
   -9.4573   -1.1922   -0.4007 H   0  0  0  0  0  0  0  0  0  0  0  0
  -10.6789    1.5891   -0.1860 H   0  0  0  0  0  0  0  0  0  0  0  0
  -10.0776    0.9157    1.3513 H   0  0  0  0  0  0  0  0  0  0  0  0
   -8.2594   -0.4272    1.1430 H   0  0  0  0  0  0  0  0  0  0  0  0
   -7.4137    1.0525    1.6285 H   0  0  0  0  0  0  0  0  0  0  0  0
   -6.7586   -1.0562   -0.5127 H   0  0  0  0  0  0  0  0  0  0  0  0
   -5.7525   -0.3252    0.7659 H   0  0  0  0  0  0  0  0  0  0  0  0
   -4.6686    2.4734   -1.1650 H   0  0  0  0  0  0  0  0  0  0  0  0
   -5.0539    1.9818    0.4868 H   0  0  0  0  0  0  0  0  0  0  0  0
   -4.4656   -1.1121   -1.0870 H   0  0  0  0  0  0  0  0  0  0  0  0
   -2.4227   -2.4203   -0.8467 H   0  0  0  0  0  0  0  0  0  0  0  0
   -0.3800    1.0201    0.5263 H   0  0  0  0  0  0  0  0  0  0  0  0
    1.2863    0.0082    0.1073 H   0  0  0  0  0  0  0  0  0  0  0  0
    1.8204   -3.6792    0.7803 H   0  0  0  0  0  0  0  0  0  0  0  0
    4.0238   -4.6351    0.9475 H   0  0  0  0  0  0  0  0  0  0  0  0
    7.0341   -2.8782    1.2917 H   0  0  0  0  0  0  0  0  0  0  0  0
    6.8383   -3.4801   -0.4345 H   0  0  0  0  0  0  0  0  0  0  0  0
    6.2952   -4.4577    1.0126 H   0  0  0  0  0  0  0  0  0  0  0  0
    7.0142   -1.3131   -0.0122 H   0  0  0  0  0  0  0  0  0  0  0  0
    7.1359    2.6542   -2.2025 H   0  0  0  0  0  0  0  0  0  0  0  0
   11.7971    2.4568   -0.3291 H   0  0  0  0  0  0  0  0  0  0  0  0
   12.4003    0.9026    1.4682 H   0  0  0  0  0  0  0  0  0  0  0  0
   10.6616   -0.6079    2.3462 H   0  0  0  0  0  0  0  0  0  0  0  0
    8.3784   -0.5133    1.4390 H   0  0  0  0  0  0  0  0  0  0  0  0
    3.5296    0.0721   -0.2189 H   0  0  0  0  0  0  0  0  0  0  0  0
   -6.9523    2.5872   -1.3410 H   0  0  0  0  0  0  0  0  0  0  0  0
   -6.6954    1.5873   -2.7958 H   0  0  0  0  0  0  0  0  0  0  0  0
   -9.0509    1.3974   -2.1614 H   0  0  0  0  0  0  0  0  0  0  0  0
   -8.2246   -0.1426   -1.6475 H   0  0  0  0  0  0  0  0  0  0  0  0
  1  2  1  0
  2  3  1  0
  3  4  1  0
  4  5  1  0
  5  6  1  0
  6  7  1  0
  7  8  1  0
  8  9  2  0
  9 10  1  0
 10 11  2  0
 11 12  1  0
 12 13  2  0
 13 14  1  0
 14 15  1  0
 14 16  1  0
 14 17  1  0
 11 18  1  0
 18 19  2  0
 18 20  1  0
 20 21  1  0
 21 22  2  0
 22 23  1  0
 23 24  2  0
 24 25  1  0
 24 26  1  0
 26 27  1  0
 27 28  1  0
 28 29  2  0
 28 30  1  0
 30 31  2  0
 31 32  1  0
 32 33  2  0
 33 34  1  0
 34 35  2  0
 35 36  1  0
 36 37  2  0
 37 38  1  0
 26 39  2  0
  6 40  1  0
 40 41  1  0
 41  3  1  0
 13  8  1  0
 39 21  1  0
 38 30  1  0
 38 33  1  0
  1 42  1  0
  1 43  1  0
  1 44  1  0
  2 45  1  0
  2 46  1  0
  4 47  1  0
  4 48  1  0
  5 49  1  0
  5 50  1  0
  7 51  1  0
  7 52  1  0
  9 53  1  0
 10 54  1  0
 12 55  1  0
 20 56  1  0
 22 57  1  0
 23 58  1  0
 25 59  1  0
 25 60  1  0
 25 61  1  0
 27 62  1  0
 31 63  1  0
 34 64  1  0
 35 65  1  0
 36 66  1  0
 37 67  1  0
 39 68  1  0
 40 69  1  0
 40 70  1  0
 41 71  1  0
 41 72  1  0
M  END
$$$$
[H]O[C@]([H])(C([H])([H])[H])[C@]([H])(C(=O)N([H])[C@]([H])(C(=O)N1C([H])([H])C([H])([H])C([H])([H])[C@@]1([H])C(=O)N([H])[C@]([H])(C(=O)c1nc2c([H])c([H])c([H])c([H])c2s1)C([H])([H])C([H])([H])C([H])([H])N=C(N([H])[H])N([H])[H])C([H])([H])c1c([H])c([H])c([H])c([H])c1[H])N([H])[H]
     RDKit          3D

 85 88  0  0  0  0  0  0  0  0999 V2000
    5.1240    3.1323   -3.9680 C   0  0  0  0  0  0  0  0  0  0  0  0
    4.4021    2.0956   -3.1480 C   0  0  1  0  0  0  0  0  0  0  0  0
    4.5932    0.8597   -3.7579 O   0  0  0  0  0  0  0  0  0  0  0  0
    4.9055    2.0992   -1.7009 C   0  0  1  0  0  0  0  0  0  0  0  0
    4.6405    3.4346   -1.2188 N   0  0  0  0  0  0  0  0  0  0  0  0
    4.1589    1.0604   -0.9143 C   0  0  0  0  0  0  0  0  0  0  0  0
    3.3550    1.5286   -0.0674 O   0  0  0  0  0  0  0  0  0  0  0  0
    4.3489   -0.3120   -1.1123 N   0  0  0  0  0  0  0  0  0  0  0  0
    3.6735   -1.3902   -0.4171 C   0  0  1  0  0  0  0  0  0  0  0  0
    4.0311   -1.3737    1.0371 C   0  0  0  0  0  0  0  0  0  0  0  0
    5.4829   -1.5766    1.3042 C   0  0  0  0  0  0  0  0  0  0  0  0
    6.3785   -0.5446    1.4619 C   0  0  0  0  0  0  0  0  0  0  0  0
    7.7229   -0.7857    1.7027 C   0  0  0  0  0  0  0  0  0  0  0  0
    8.2051   -2.0676    1.7922 C   0  0  0  0  0  0  0  0  0  0  0  0
    7.3379   -3.1199    1.6402 C   0  0  0  0  0  0  0  0  0  0  0  0
    6.0145   -2.8593    1.4019 C   0  0  0  0  0  0  0  0  0  0  0  0
    2.2110   -1.4083   -0.6917 C   0  0  0  0  0  0  0  0  0  0  0  0
    1.8010   -0.3870   -1.3386 O   0  0  0  0  0  0  0  0  0  0  0  0
    1.3280   -2.4446   -0.2890 N   0  0  0  0  0  0  0  0  0  0  0  0
    1.7862   -3.7078    0.3293 C   0  0  0  0  0  0  0  0  0  0  0  0
    0.9014   -3.7830    1.5421 C   0  0  0  0  0  0  0  0  0  0  0  0
   -0.4485   -3.4856    0.8843 C   0  0  0  0  0  0  0  0  0  0  0  0
   -0.0914   -2.6053   -0.3346 C   0  0  1  0  0  0  0  0  0  0  0  0
   -0.9266   -1.4167   -0.1913 C   0  0  0  0  0  0  0  0  0  0  0  0
   -0.4431   -0.2987    0.0890 O   0  0  0  0  0  0  0  0  0  0  0  0
   -2.3221   -1.5726   -0.3836 N   0  0  0  0  0  0  0  0  0  0  0  0
   -3.2788   -0.4453   -0.2919 C   0  0  1  0  0  0  0  0  0  0  0  0
   -4.1095   -0.4364   -1.5064 C   0  0  0  0  0  0  0  0  0  0  0  0
   -5.1909    0.5381   -1.6908 C   0  0  0  0  0  0  0  0  0  0  0  0
   -6.4150    0.4178   -0.8325 C   0  0  0  0  0  0  0  0  0  0  0  0
   -7.0400   -0.8924   -1.0244 N   0  0  0  0  0  0  0  0  0  0  0  0
   -8.2003   -1.0676   -1.5182 C   0  0  0  0  0  0  0  0  0  0  0  0
   -8.6825   -2.3963   -1.6474 N   0  0  0  0  0  0  0  0  0  0  0  0
   -9.0544   -0.0169   -1.9515 N   0  0  0  0  0  0  0  0  0  0  0  0
   -3.9200   -0.3877    0.9933 C   0  0  0  0  0  0  0  0  0  0  0  0
   -4.4083   -1.3753    1.5503 O   0  0  0  0  0  0  0  0  0  0  0  0
   -3.9990    0.9087    1.7151 C   0  0  0  0  0  0  0  0  0  0  0  0
   -3.5506    2.0828    1.3104 N   0  0  0  0  0  0  0  0  0  0  0  0
   -3.7021    3.1357    2.0596 C   0  0  0  0  0  0  0  0  0  0  0  0
   -3.2743    4.4420    1.7402 C   0  0  0  0  0  0  0  0  0  0  0  0
   -3.5026    5.4489    2.6115 C   0  0  0  0  0  0  0  0  0  0  0  0
   -4.1387    5.3211    3.8316 C   0  0  0  0  0  0  0  0  0  0  0  0
   -4.5569    4.0440    4.1472 C   0  0  0  0  0  0  0  0  0  0  0  0
   -4.3355    2.9739    3.2634 C   0  0  0  0  0  0  0  0  0  0  0  0
   -4.6748    1.2927    3.2370 S   0  0  0  0  0  0  0  0  0  0  0  0
    5.6066    3.9104   -3.3535 H   0  0  0  0  0  0  0  0  0  0  0  0
    4.3834    3.6275   -4.6323 H   0  0  0  0  0  0  0  0  0  0  0  0
    5.8894    2.7100   -4.6553 H   0  0  0  0  0  0  0  0  0  0  0  0
    3.3166    2.3761   -3.1271 H   0  0  0  0  0  0  0  0  0  0  0  0
    5.3034    0.9170   -4.4205 H   0  0  0  0  0  0  0  0  0  0  0  0
    5.9885    1.9181   -1.7152 H   0  0  0  0  0  0  0  0  0  0  0  0
    3.8555    3.4373   -0.5471 H   0  0  0  0  0  0  0  0  0  0  0  0
    5.4883    3.8828   -0.7901 H   0  0  0  0  0  0  0  0  0  0  0  0
    5.0690   -0.5690   -1.8478 H   0  0  0  0  0  0  0  0  0  0  0  0
    4.0435   -2.3461   -0.9022 H   0  0  0  0  0  0  0  0  0  0  0  0
    3.3946   -1.9396    1.7173 H   0  0  0  0  0  0  0  0  0  0  0  0
    3.8618   -0.2934    1.3901 H   0  0  0  0  0  0  0  0  0  0  0  0
    6.0868    0.4743    1.4189 H   0  0  0  0  0  0  0  0  0  0  0  0
    8.4303    0.0245    1.8235 H   0  0  0  0  0  0  0  0  0  0  0  0
    9.2465   -2.2930    1.9798 H   0  0  0  0  0  0  0  0  0  0  0  0
    7.7001   -4.1401    1.7107 H   0  0  0  0  0  0  0  0  0  0  0  0
    5.3422   -3.6809    1.2858 H   0  0  0  0  0  0  0  0  0  0  0  0
    2.8378   -3.7601    0.5333 H   0  0  0  0  0  0  0  0  0  0  0  0
    1.4347   -4.5625   -0.3303 H   0  0  0  0  0  0  0  0  0  0  0  0
    1.1896   -2.9744    2.2424 H   0  0  0  0  0  0  0  0  0  0  0  0
    0.8944   -4.7914    2.0072 H   0  0  0  0  0  0  0  0  0  0  0  0
   -1.0294   -2.9219    1.6364 H   0  0  0  0  0  0  0  0  0  0  0  0
   -1.0017   -4.3806    0.6112 H   0  0  0  0  0  0  0  0  0  0  0  0
   -0.4019   -3.2278   -1.2131 H   0  0  0  0  0  0  0  0  0  0  0  0
   -2.7199   -2.4871   -0.5942 H   0  0  0  0  0  0  0  0  0  0  0  0
   -2.5649    0.4560   -0.3908 H   0  0  0  0  0  0  0  0  0  0  0  0
   -3.4502   -0.4927   -2.4459 H   0  0  0  0  0  0  0  0  0  0  0  0
   -4.6497   -1.4718   -1.5191 H   0  0  0  0  0  0  0  0  0  0  0  0
   -5.5728    0.5581   -2.7562 H   0  0  0  0  0  0  0  0  0  0  0  0
   -4.8130    1.6011   -1.4774 H   0  0  0  0  0  0  0  0  0  0  0  0
   -7.1956    1.1618   -1.1902 H   0  0  0  0  0  0  0  0  0  0  0  0
   -6.3334    0.5792    0.2177 H   0  0  0  0  0  0  0  0  0  0  0  0
   -8.1304   -3.0654   -2.2047 H   0  0  0  0  0  0  0  0  0  0  0  0
   -9.5665   -2.6979   -1.1987 H   0  0  0  0  0  0  0  0  0  0  0  0
   -9.9835    0.1461   -1.5192 H   0  0  0  0  0  0  0  0  0  0  0  0
   -8.7584    0.6172   -2.7197 H   0  0  0  0  0  0  0  0  0  0  0  0
   -2.7636    4.6543    0.8089 H   0  0  0  0  0  0  0  0  0  0  0  0
   -3.1774    6.4749    2.3856 H   0  0  0  0  0  0  0  0  0  0  0  0
   -4.3233    6.1130    4.5154 H   0  0  0  0  0  0  0  0  0  0  0  0
   -5.0638    3.7969    5.0573 H   0  0  0  0  0  0  0  0  0  0  0  0
  1  2  1  0
  2  3  1  0
  2  4  1  0
  4  5  1  0
  4  6  1  0
  6  7  2  0
  6  8  1  0
  8  9  1  0
  9 10  1  0
 10 11  1  0
 11 12  2  0
 12 13  1  0
 13 14  2  0
 14 15  1  0
 15 16  2  0
  9 17  1  0
 17 18  2  0
 17 19  1  0
 19 20  1  0
 20 21  1  0
 21 22  1  0
 22 23  1  0
 23 24  1  0
 24 25  2  0
 24 26  1  0
 26 27  1  0
 27 28  1  0
 28 29  1  0
 29 30  1  0
 30 31  1  0
 31 32  2  3
 32 33  1  0
 32 34  1  0
 27 35  1  0
 35 36  2  0
 35 37  1  0
 37 38  2  0
 38 39  1  0
 39 40  2  0
 40 41  1  0
 41 42  2  0
 42 43  1  0
 43 44  2  0
 44 45  1  0
 16 11  1  0
 23 19  1  0
 45 37  1  0
 44 39  1  0
  1 46  1  0
  1 47  1  0
  1 48  1  0
  2 49  1  1
  3 50  1  0
  4 51  1  6
  5 52  1  0
  5 53  1  0
  8 54  1  0
  9 55  1  6
 10 56  1  0
 10 57  1  0
 12 58  1  0
 13 59  1  0
 14 60  1  0
 15 61  1  0
 16 62  1  0
 20 63  1  0
 20 64  1  0
 21 65  1  0
 21 66  1  0
 22 67  1  0
 22 68  1  0
 23 69  1  6
 26 70  1  0
 27 71  1  6
 28 72  1  0
 28 73  1  0
 29 74  1  0
 29 75  1  0
 30 76  1  0
 30 77  1  0
 33 78  1  0
 33 79  1  0
 34 80  1  0
 34 81  1  0
 40 82  1  0
 41 83  1  0
 42 84  1  0
 43 85  1  0
M  END
$$$$
[H]c1nc([H])c(Cl)c(N([H])C(=O)N([H])c2c([H])c(-c3c([H])c([H])c([H])c(-c4c([H])c([H])c([H])c(C(=O)N([H])C([H])([H])C([H])([H])N5C([H])([H])C([H])([H])C([H])([H])C5([H])[H])c4[H])c3[H])nn(C([H])([H])C([H])([H])[H])c2=O)c1Cl
     RDKit          3D

 74 78  0  0  0  0  0  0  0  0999 V2000
   -1.9891   -4.1863    0.4412 C   0  0  0  0  0  0  0  0  0  0  0  0
   -2.2455   -3.3518    1.6659 C   0  0  0  0  0  0  0  0  0  0  0  0
   -2.9958   -2.1743    1.2443 N   0  0  0  0  0  0  0  0  0  0  0  0
   -2.3434   -1.0971    0.8839 N   0  0  0  0  0  0  0  0  0  0  0  0
   -3.0075    0.0305    0.4816 C   0  0  0  0  0  0  0  0  0  0  0  0
   -4.3827   -0.0417    0.4815 C   0  0  0  0  0  0  0  0  0  0  0  0
   -5.1074   -1.1638    0.8564 C   0  0  0  0  0  0  0  0  0  0  0  0
   -6.4841   -1.3177    0.8837 N   0  0  0  0  0  0  0  0  0  0  0  0
   -7.4430   -0.3538    0.5426 C   0  0  0  0  0  0  0  0  0  0  0  0
   -7.1646    0.8111    0.1569 O   0  0  0  0  0  0  0  0  0  0  0  0
   -8.8466   -0.6332    0.6105 N   0  0  0  0  0  0  0  0  0  0  0  0
   -9.7797    0.3507    0.2637 C   0  0  0  0  0  0  0  0  0  0  0  0
  -10.2632    1.2136    1.2445 C   0  0  0  0  0  0  0  0  0  0  0  0
   -9.6951    1.0544    2.9089 Cl  0  0  0  0  0  0  0  0  0  0  0  0
  -11.1730    2.1633    0.8695 C   0  0  0  0  0  0  0  0  0  0  0  0
  -11.5998    2.2780   -0.3978 N   0  0  0  0  0  0  0  0  0  0  0  0
  -11.1662    1.4726   -1.3823 C   0  0  0  0  0  0  0  0  0  0  0  0
  -10.2503    0.5069   -1.0353 C   0  0  0  0  0  0  0  0  0  0  0  0
   -9.6670   -0.5639   -2.3140 Cl  0  0  0  0  0  0  0  0  0  0  0  0
   -4.3263   -2.2702    1.2533 C   0  0  0  0  0  0  0  0  0  0  0  0
   -4.8937   -3.3286    1.6088 O   0  0  0  0  0  0  0  0  0  0  0  0
   -2.2684    1.2053    0.0876 C   0  0  0  0  0  0  0  0  0  0  0  0
   -2.8740    2.3524   -0.3232 C   0  0  0  0  0  0  0  0  0  0  0  0
   -2.1168    3.4781   -0.7021 C   0  0  0  0  0  0  0  0  0  0  0  0
   -0.7436    3.3997   -0.6501 C   0  0  0  0  0  0  0  0  0  0  0  0
   -0.0853    2.2505   -0.2375 C   0  0  0  0  0  0  0  0  0  0  0  0
   -0.8670    1.1737    0.1239 C   0  0  0  0  0  0  0  0  0  0  0  0
    1.3702    2.1795   -0.1904 C   0  0  0  0  0  0  0  0  0  0  0  0
    2.1069    3.3127    0.0902 C   0  0  0  0  0  0  0  0  0  0  0  0
    3.4847    3.2994    0.1443 C   0  0  0  0  0  0  0  0  0  0  0  0
    4.1566    2.1049   -0.0912 C   0  0  0  0  0  0  0  0  0  0  0  0
    3.4650    0.9475   -0.3751 C   0  0  0  0  0  0  0  0  0  0  0  0
    2.0688    1.0154   -0.4181 C   0  0  0  0  0  0  0  0  0  0  0  0
    4.1595   -0.3026   -0.6262 C   0  0  0  0  0  0  0  0  0  0  0  0
    3.4744   -1.3465   -0.6717 O   0  0  0  0  0  0  0  0  0  0  0  0
    5.5708   -0.3999   -0.8219 N   0  0  0  0  0  0  0  0  0  0  0  0
    6.1548   -1.6821   -1.0607 C   0  0  0  0  0  0  0  0  0  0  0  0
    7.6257   -1.6388   -1.2150 C   0  0  0  0  0  0  0  0  0  0  0  0
    8.4073   -1.2182   -0.1266 N   0  0  0  0  0  0  0  0  0  0  0  0
    8.4114    0.1105    0.3024 C   0  0  0  0  0  0  0  0  0  0  0  0
    9.7748    0.3524    0.9883 C   0  0  0  0  0  0  0  0  0  0  0  0
   10.6891   -0.6397    0.3017 C   0  0  0  0  0  0  0  0  0  0  0  0
    9.7371   -1.7014   -0.1303 C   0  0  0  0  0  0  0  0  0  0  0  0
   -2.8573   -4.0771   -0.2614 H   0  0  0  0  0  0  0  0  0  0  0  0
   -1.9298   -5.2745    0.6731 H   0  0  0  0  0  0  0  0  0  0  0  0
   -1.0323   -3.8814   -0.0570 H   0  0  0  0  0  0  0  0  0  0  0  0
   -2.8077   -3.9174    2.4353 H   0  0  0  0  0  0  0  0  0  0  0  0
   -1.2681   -3.0432    2.1196 H   0  0  0  0  0  0  0  0  0  0  0  0
   -4.9330    0.8154    0.1751 H   0  0  0  0  0  0  0  0  0  0  0  0
   -6.8887   -2.2562    1.1924 H   0  0  0  0  0  0  0  0  0  0  0  0
   -9.1456   -1.5663    0.9175 H   0  0  0  0  0  0  0  0  0  0  0  0
  -11.5422    2.8347    1.6619 H   0  0  0  0  0  0  0  0  0  0  0  0
  -11.5284    1.5847   -2.4100 H   0  0  0  0  0  0  0  0  0  0  0  0
   -3.9510    2.3973   -0.3587 H   0  0  0  0  0  0  0  0  0  0  0  0
   -2.6499    4.3623   -1.0200 H   0  0  0  0  0  0  0  0  0  0  0  0
   -0.1471    4.2621   -0.9404 H   0  0  0  0  0  0  0  0  0  0  0  0
   -0.4077    0.2508    0.4539 H   0  0  0  0  0  0  0  0  0  0  0  0
    1.5557    4.2397    0.2734 H   0  0  0  0  0  0  0  0  0  0  0  0
    4.0657    4.1787    0.3619 H   0  0  0  0  0  0  0  0  0  0  0  0
    5.2490    2.1182   -0.0422 H   0  0  0  0  0  0  0  0  0  0  0  0
    1.5131    0.1141   -0.6398 H   0  0  0  0  0  0  0  0  0  0  0  0
    6.1102    0.4664   -0.8012 H   0  0  0  0  0  0  0  0  0  0  0  0
    5.8358   -2.4160   -0.2588 H   0  0  0  0  0  0  0  0  0  0  0  0
    5.7518   -2.1182   -2.0356 H   0  0  0  0  0  0  0  0  0  0  0  0
    7.8198   -0.9607   -2.1168 H   0  0  0  0  0  0  0  0  0  0  0  0
    8.0059   -2.6451   -1.6109 H   0  0  0  0  0  0  0  0  0  0  0  0
    8.4202    0.7868   -0.6020 H   0  0  0  0  0  0  0  0  0  0  0  0
    7.6019    0.3976    1.0205 H   0  0  0  0  0  0  0  0  0  0  0  0
   10.1024    1.3965    0.7915 H   0  0  0  0  0  0  0  0  0  0  0  0
    9.6848    0.1325    2.0710 H   0  0  0  0  0  0  0  0  0  0  0  0
   11.4730   -0.9756    0.9931 H   0  0  0  0  0  0  0  0  0  0  0  0
   11.1387   -0.1797   -0.6247 H   0  0  0  0  0  0  0  0  0  0  0  0
    9.8494   -2.5615    0.5927 H   0  0  0  0  0  0  0  0  0  0  0  0
   10.0332   -2.1162   -1.1184 H   0  0  0  0  0  0  0  0  0  0  0  0
  1  2  1  0
  2  3  1  0
  3  4  1  0
  4  5  2  0
  5  6  1  0
  6  7  2  0
  7  8  1  0
  8  9  1  0
  9 10  2  0
  9 11  1  0
 11 12  1  0
 12 13  2  0
 13 14  1  0
 13 15  1  0
 15 16  2  0
 16 17  1  0
 17 18  2  0
 18 19  1  0
  7 20  1  0
 20 21  2  0
  5 22  1  0
 22 23  2  0
 23 24  1  0
 24 25  2  0
 25 26  1  0
 26 27  2  0
 26 28  1  0
 28 29  2  0
 29 30  1  0
 30 31  2  0
 31 32  1  0
 32 33  2  0
 32 34  1  0
 34 35  2  0
 34 36  1  0
 36 37  1  0
 37 38  1  0
 38 39  1  0
 39 40  1  0
 40 41  1  0
 41 42  1  0
 42 43  1  0
 20  3  1  0
 27 22  1  0
 33 28  1  0
 43 39  1  0
 18 12  1  0
  1 44  1  0
  1 45  1  0
  1 46  1  0
  2 47  1  0
  2 48  1  0
  6 49  1  0
  8 50  1  0
 11 51  1  0
 15 52  1  0
 17 53  1  0
 23 54  1  0
 24 55  1  0
 25 56  1  0
 27 57  1  0
 29 58  1  0
 30 59  1  0
 31 60  1  0
 33 61  1  0
 36 62  1  0
 37 63  1  0
 37 64  1  0
 38 65  1  0
 38 66  1  0
 40 67  1  0
 40 68  1  0
 41 69  1  0
 41 70  1  0
 42 71  1  0
 42 72  1  0
 43 73  1  0
 43 74  1  0
M  END
$$$$
[H]c1nc([H])c(-c2nc3c([H])c(N([H])C(=O)[C@@]([H])(Oc4c([H])c([H])c([H])c5c([H])c([H])c([H])c([H])c45)C([H])([H])[H])c([H])c([H])c3o2)o1
     RDKit          3D

 47 51  0  0  0  0  0  0  0  0999 V2000
   -1.5640   -1.3005   -2.3837 C   0  0  0  0  0  0  0  0  0  0  0  0
   -1.7489   -1.0354   -0.8889 C   0  0  2  0  0  0  0  0  0  0  0  0
   -2.9343   -0.3984   -0.6042 O   0  0  0  0  0  0  0  0  0  0  0  0
   -3.9393   -0.7631    0.2672 C   0  0  0  0  0  0  0  0  0  0  0  0
   -3.8993   -1.9039    1.0368 C   0  0  0  0  0  0  0  0  0  0  0  0
   -4.9408   -2.2007    1.8834 C   0  0  0  0  0  0  0  0  0  0  0  0
   -6.0164   -1.3561    1.9564 C   0  0  0  0  0  0  0  0  0  0  0  0
   -6.0556   -0.2173    1.1877 C   0  0  0  0  0  0  0  0  0  0  0  0
   -7.1500    0.6448    1.2600 C   0  0  0  0  0  0  0  0  0  0  0  0
   -7.1821    1.7845    0.4864 C   0  0  0  0  0  0  0  0  0  0  0  0
   -6.1668    2.1218   -0.3723 C   0  0  0  0  0  0  0  0  0  0  0  0
   -5.0838    1.2438   -0.4266 C   0  0  0  0  0  0  0  0  0  0  0  0
   -5.0445    0.1028    0.3436 C   0  0  0  0  0  0  0  0  0  0  0  0
   -0.5992   -0.1442   -0.4548 C   0  0  0  0  0  0  0  0  0  0  0  0
   -0.9358    0.9407    0.0513 O   0  0  0  0  0  0  0  0  0  0  0  0
    0.7095   -0.5974   -0.6514 N   0  0  0  0  0  0  0  0  0  0  0  0
    1.9251    0.0569   -0.3280 C   0  0  0  0  0  0  0  0  0  0  0  0
    2.0197    1.3005    0.2538 C   0  0  0  0  0  0  0  0  0  0  0  0
    3.2693    1.8681    0.5377 C   0  0  0  0  0  0  0  0  0  0  0  0
    4.4426    1.2180    0.2523 C   0  0  0  0  0  0  0  0  0  0  0  0
    5.7204    1.4793    0.3937 O   0  0  0  0  0  0  0  0  0  0  0  0
    6.4686    0.5209   -0.0420 C   0  0  0  0  0  0  0  0  0  0  0  0
    5.6531   -0.4373   -0.5016 N   0  0  0  0  0  0  0  0  0  0  0  0
    4.3632   -0.0210   -0.3271 C   0  0  0  0  0  0  0  0  0  0  0  0
    3.1460   -0.5811   -0.6070 C   0  0  0  0  0  0  0  0  0  0  0  0
    7.9302    0.4616   -0.0473 C   0  0  0  0  0  0  0  0  0  0  0  0
    8.7198   -0.5746   -0.5188 C   0  0  0  0  0  0  0  0  0  0  0  0
   10.0171   -0.2593   -0.3518 N   0  0  0  0  0  0  0  0  0  0  0  0
   10.0161    0.9678    0.2207 C   0  0  0  0  0  0  0  0  0  0  0  0
    8.7773    1.3654    0.3873 O   0  0  0  0  0  0  0  0  0  0  0  0
   -0.8798   -0.5475   -2.8117 H   0  0  0  0  0  0  0  0  0  0  0  0
   -2.5472   -1.1790   -2.9150 H   0  0  0  0  0  0  0  0  0  0  0  0
   -1.1713   -2.2997   -2.5881 H   0  0  0  0  0  0  0  0  0  0  0  0
   -1.6479   -1.9610   -0.3072 H   0  0  0  0  0  0  0  0  0  0  0  0
   -3.0468   -2.5631    0.9718 H   0  0  0  0  0  0  0  0  0  0  0  0
   -4.9141   -3.1037    2.4956 H   0  0  0  0  0  0  0  0  0  0  0  0
   -6.8213   -1.6020    2.6221 H   0  0  0  0  0  0  0  0  0  0  0  0
   -7.9673    0.3948    1.9362 H   0  0  0  0  0  0  0  0  0  0  0  0
   -8.0362    2.4592    0.5416 H   0  0  0  0  0  0  0  0  0  0  0  0
   -6.1808    3.0125   -0.9837 H   0  0  0  0  0  0  0  0  0  0  0  0
   -4.2851    1.5129   -1.1047 H   0  0  0  0  0  0  0  0  0  0  0  0
    0.8057   -1.5619   -1.1040 H   0  0  0  0  0  0  0  0  0  0  0  0
    1.1193    1.8553    0.4987 H   0  0  0  0  0  0  0  0  0  0  0  0
    3.3072    2.8537    0.9982 H   0  0  0  0  0  0  0  0  0  0  0  0
    3.1041   -1.5643   -1.0664 H   0  0  0  0  0  0  0  0  0  0  0  0
    8.3059   -1.4769   -0.9461 H   0  0  0  0  0  0  0  0  0  0  0  0
   10.9386    1.4841    0.4757 H   0  0  0  0  0  0  0  0  0  0  0  0
  1  2  1  0
  2  3  1  0
  3  4  1  0
  4  5  2  0
  5  6  1  0
  6  7  2  0
  7  8  1  0
  8  9  2  0
  9 10  1  0
 10 11  2  0
 11 12  1  0
 12 13  2  0
  2 14  1  0
 14 15  2  0
 14 16  1  0
 16 17  1  0
 17 18  2  0
 18 19  1  0
 19 20  2  0
 20 21  1  0
 21 22  1  0
 22 23  2  0
 23 24  1  0
 24 25  2  0
 22 26  1  0
 26 27  2  0
 27 28  1  0
 28 29  2  0
 29 30  1  0
 13  4  1  0
 25 17  1  0
 30 26  1  0
 13  8  1  0
 24 20  1  0
  1 31  1  0
  1 32  1  0
  1 33  1  0
  2 34  1  1
  5 35  1  0
  6 36  1  0
  7 37  1  0
  9 38  1  0
 10 39  1  0
 11 40  1  0
 12 41  1  0
 16 42  1  0
 18 43  1  0
 19 44  1  0
 25 45  1  0
 27 46  1  0
 29 47  1  0
M  END
$$$$
[H]c1nc(Cl)c([H])c([H])c1N1C([H])([H])C([H])([H])[C@@]2([H])C([H])([H])N([H])C([H])([H])[C@]2([H])C1([H])[H]
     RDKit          3D

 32 34  0  0  0  0  0  0  0  0999 V2000
    6.5212   -0.1851   -1.0154 Cl  0  0  0  0  0  0  0  0  0  0  0  0
    4.8155   -0.1293   -0.6416 C   0  0  0  0  0  0  0  0  0  0  0  0
    4.3364   -0.0289    0.6411 C   0  0  0  0  0  0  0  0  0  0  0  0
    2.9578    0.0118    0.8818 C   0  0  0  0  0  0  0  0  0  0  0  0
    2.0598   -0.0478   -0.1565 C   0  0  0  0  0  0  0  0  0  0  0  0
    2.6053   -0.1482   -1.4236 C   0  0  0  0  0  0  0  0  0  0  0  0
    3.9446   -0.1864   -1.6392 N   0  0  0  0  0  0  0  0  0  0  0  0
    0.6612   -0.0114    0.0834 N   0  0  0  0  0  0  0  0  0  0  0  0
    0.1716   -0.0312    1.4163 C   0  0  0  0  0  0  0  0  0  0  0  0
   -1.2367   -0.4741    1.6211 C   0  0  0  0  0  0  0  0  0  0  0  0
   -2.0704   -0.4419    0.4029 C   0  0  1  0  0  0  0  0  0  0  0  0
   -3.4439    0.1436    0.5447 C   0  0  0  0  0  0  0  0  0  0  0  0
   -3.8346    0.5160   -0.8148 N   0  0  0  0  0  0  0  0  0  0  0  0
   -2.6239    0.5097   -1.6257 C   0  0  0  0  0  0  0  0  0  0  0  0
   -1.5143    0.5429   -0.6398 C   0  0  2  0  0  0  0  0  0  0  0  0
   -0.1811    0.0542   -1.1228 C   0  0  0  0  0  0  0  0  0  0  0  0
    5.0536    0.0175    1.4557 H   0  0  0  0  0  0  0  0  0  0  0  0
    2.6286    0.0936    1.9040 H   0  0  0  0  0  0  0  0  0  0  0  0
    1.9049   -0.1967   -2.2554 H   0  0  0  0  0  0  0  0  0  0  0  0
    0.3160    0.9252    1.9647 H   0  0  0  0  0  0  0  0  0  0  0  0
    0.8151   -0.7719    1.9807 H   0  0  0  0  0  0  0  0  0  0  0  0
   -1.7412    0.1271    2.4264 H   0  0  0  0  0  0  0  0  0  0  0  0
   -1.2809   -1.5363    2.0122 H   0  0  0  0  0  0  0  0  0  0  0  0
   -2.1975   -1.4458   -0.0759 H   0  0  0  0  0  0  0  0  0  0  0  0
   -3.3466    1.0990    1.1078 H   0  0  0  0  0  0  0  0  0  0  0  0
   -4.1697   -0.5497    1.0061 H   0  0  0  0  0  0  0  0  0  0  0  0
   -4.5114   -0.2211   -1.1526 H   0  0  0  0  0  0  0  0  0  0  0  0
   -2.5974   -0.4843   -2.1429 H   0  0  0  0  0  0  0  0  0  0  0  0
   -2.6156    1.3513   -2.3475 H   0  0  0  0  0  0  0  0  0  0  0  0
   -1.4344    1.5297   -0.1930 H   0  0  0  0  0  0  0  0  0  0  0  0
   -0.2176   -0.8874   -1.6628 H   0  0  0  0  0  0  0  0  0  0  0  0
    0.2256    0.8560   -1.7957 H   0  0  0  0  0  0  0  0  0  0  0  0
  1  2  1  0
  2  3  2  0
  3  4  1  0
  4  5  2  0
  5  6  1  0
  6  7  2  0
  5  8  1  0
  8  9  1  0
  9 10  1  0
 10 11  1  0
 11 12  1  0
 12 13  1  0
 13 14  1  0
 14 15  1  0
 15 16  1  0
  7  2  1  0
 16  8  1  0
 15 11  1  0
  3 17  1  0
  4 18  1  0
  6 19  1  0
  9 20  1  0
  9 21  1  0
 10 22  1  0
 10 23  1  0
 11 24  1  6
 12 25  1  0
 12 26  1  0
 13 27  1  0
 14 28  1  0
 14 29  1  0
 15 30  1  1
 16 31  1  0
 16 32  1  0
M  END
$$$$
[H]OC(=O)[C@@]([H])(N([H])C(=O)[C@@]([H])(N([H])C(=O)[C@@]([H])(N([H])C(=O)OC([H])([H])c1c([H])c([H])c([H])c([H])c1[H])C([H])([H])c1c([H])nc([H])n1[H])C([H])([H])C([H])(C([H])([H])[H])C([H])([H])[H])C([H])([H])C([H])([H])SC([H])([H])[H]
     RDKit          3D

 72 73  0  0  0  0  0  0  0  0999 V2000
    7.1752    0.1830    3.7399 C   0  0  0  0  0  0  0  0  0  0  0  0
    6.7431    1.8116    3.0480 S   0  0  0  0  0  0  0  0  0  0  0  0
    6.5841    1.6329    1.2313 C   0  0  0  0  0  0  0  0  0  0  0  0
    5.4094    0.7426    0.9627 C   0  0  0  0  0  0  0  0  0  0  0  0
    5.2008    0.5778   -0.5486 C   0  0  2  0  0  0  0  0  0  0  0  0
    4.0201   -0.2974   -0.6896 N   0  0  0  0  0  0  0  0  0  0  0  0
    2.7988    0.3047   -1.0879 C   0  0  0  0  0  0  0  0  0  0  0  0
    2.8300    1.5694   -1.2973 O   0  0  0  0  0  0  0  0  0  0  0  0
    1.5182   -0.3485   -1.2751 C   0  0  2  0  0  0  0  0  0  0  0  0
    1.0421   -0.6906   -2.6319 C   0  0  0  0  0  0  0  0  0  0  0  0
    1.8668   -1.6233   -3.4210 C   0  0  0  0  0  0  0  0  0  0  0  0
    3.2413   -1.1601   -3.7709 C   0  0  0  0  0  0  0  0  0  0  0  0
    1.1082   -2.0478   -4.6875 C   0  0  0  0  0  0  0  0  0  0  0  0
    0.4606    0.5288   -0.6482 N   0  0  0  0  0  0  0  0  0  0  0  0
   -0.5355    0.0062    0.1766 C   0  0  0  0  0  0  0  0  0  0  0  0
   -0.5446   -1.2512    0.3978 O   0  0  0  0  0  0  0  0  0  0  0  0
   -1.5457    0.8822    0.7709 C   0  0  2  0  0  0  0  0  0  0  0  0
   -1.0419    1.4751    2.1051 C   0  0  0  0  0  0  0  0  0  0  0  0
   -0.7309    0.4025    3.0844 C   0  0  0  0  0  0  0  0  0  0  0  0
    0.5010   -0.1978    3.2280 C   0  0  0  0  0  0  0  0  0  0  0  0
    0.3845   -1.1120    4.2026 N   0  0  0  0  0  0  0  0  0  0  0  0
   -0.8830   -1.0604    4.6312 C   0  0  0  0  0  0  0  0  0  0  0  0
   -1.5839   -0.1363    3.9570 N   0  0  0  0  0  0  0  0  0  0  0  0
   -2.8178    0.2298    0.9896 N   0  0  0  0  0  0  0  0  0  0  0  0
   -3.9752    0.8433    0.3817 C   0  0  0  0  0  0  0  0  0  0  0  0
   -3.8742    1.8914   -0.2937 O   0  0  0  0  0  0  0  0  0  0  0  0
   -5.2605    0.2963    0.5190 O   0  0  0  0  0  0  0  0  0  0  0  0
   -6.3493    0.9167   -0.0831 C   0  0  0  0  0  0  0  0  0  0  0  0
   -7.6509    0.2856    0.1019 C   0  0  0  0  0  0  0  0  0  0  0  0
   -7.8550   -0.9304    0.7077 C   0  0  0  0  0  0  0  0  0  0  0  0
   -9.1398   -1.4749    0.8497 C   0  0  0  0  0  0  0  0  0  0  0  0
  -10.2538   -0.8084    0.3847 C   0  0  0  0  0  0  0  0  0  0  0  0
  -10.0439    0.4204   -0.2270 C   0  0  0  0  0  0  0  0  0  0  0  0
   -8.7901    0.9530   -0.3661 C   0  0  0  0  0  0  0  0  0  0  0  0
    6.3562   -0.0579   -1.2028 C   0  0  0  0  0  0  0  0  0  0  0  0
    7.5409    0.6361   -1.3999 O   0  0  0  0  0  0  0  0  0  0  0  0
    6.2646   -1.2647   -1.5993 O   0  0  0  0  0  0  0  0  0  0  0  0
    6.2010   -0.2952    4.0003 H   0  0  0  0  0  0  0  0  0  0  0  0
    7.6757   -0.3903    2.9349 H   0  0  0  0  0  0  0  0  0  0  0  0
    7.8413    0.2804    4.6109 H   0  0  0  0  0  0  0  0  0  0  0  0
    7.5410    1.2614    0.8169 H   0  0  0  0  0  0  0  0  0  0  0  0
    6.3935    2.6497    0.8250 H   0  0  0  0  0  0  0  0  0  0  0  0
    5.5157   -0.2577    1.4577 H   0  0  0  0  0  0  0  0  0  0  0  0
    4.4760    1.2516    1.3121 H   0  0  0  0  0  0  0  0  0  0  0  0
    4.9511    1.5706   -0.9227 H   0  0  0  0  0  0  0  0  0  0  0  0
    4.1073   -1.3219   -0.4971 H   0  0  0  0  0  0  0  0  0  0  0  0
    1.4533   -1.2994   -0.6621 H   0  0  0  0  0  0  0  0  0  0  0  0
   -0.0155   -1.1252   -2.4855 H   0  0  0  0  0  0  0  0  0  0  0  0
    0.8404    0.2776   -3.2022 H   0  0  0  0  0  0  0  0  0  0  0  0
    2.0104   -2.6033   -2.8647 H   0  0  0  0  0  0  0  0  0  0  0  0
    4.0021   -1.7437   -3.2464 H   0  0  0  0  0  0  0  0  0  0  0  0
    3.3436   -0.0805   -3.5954 H   0  0  0  0  0  0  0  0  0  0  0  0
    3.3934   -1.2984   -4.9032 H   0  0  0  0  0  0  0  0  0  0  0  0
    0.4164   -2.9023   -4.4460 H   0  0  0  0  0  0  0  0  0  0  0  0
    0.4841   -1.2183   -5.0698 H   0  0  0  0  0  0  0  0  0  0  0  0
    1.8598   -2.3543   -5.4221 H   0  0  0  0  0  0  0  0  0  0  0  0
    0.5663    1.5314   -0.8981 H   0  0  0  0  0  0  0  0  0  0  0  0
   -1.7004    1.7528    0.1129 H   0  0  0  0  0  0  0  0  0  0  0  0
   -1.8405    2.1306    2.4662 H   0  0  0  0  0  0  0  0  0  0  0  0
   -0.0992    2.0153    1.8400 H   0  0  0  0  0  0  0  0  0  0  0  0
    1.3683    0.0605    2.6373 H   0  0  0  0  0  0  0  0  0  0  0  0
   -1.3107   -1.6786    5.4242 H   0  0  0  0  0  0  0  0  0  0  0  0
   -2.6018    0.0684    4.1343 H   0  0  0  0  0  0  0  0  0  0  0  0
   -2.8839   -0.6362    1.5581 H   0  0  0  0  0  0  0  0  0  0  0  0
   -6.4128    1.9625    0.3296 H   0  0  0  0  0  0  0  0  0  0  0  0
   -6.1856    1.0927   -1.1840 H   0  0  0  0  0  0  0  0  0  0  0  0
   -6.9943   -1.4816    1.0857 H   0  0  0  0  0  0  0  0  0  0  0  0
   -9.2820   -2.4251    1.3263 H   0  0  0  0  0  0  0  0  0  0  0  0
  -11.2679   -1.1993    0.4761 H   0  0  0  0  0  0  0  0  0  0  0  0
  -10.9391    0.9402   -0.5923 H   0  0  0  0  0  0  0  0  0  0  0  0
   -8.6644    1.8950   -0.8385 H   0  0  0  0  0  0  0  0  0  0  0  0
    7.5875    1.4427   -2.0262 H   0  0  0  0  0  0  0  0  0  0  0  0
  1  2  1  0
  2  3  1  0
  3  4  1  0
  4  5  1  0
  5  6  1  0
  6  7  1  0
  7  8  2  0
  7  9  1  0
  9 10  1  0
 10 11  1  0
 11 12  1  0
 11 13  1  0
  9 14  1  0
 14 15  1  0
 15 16  2  0
 15 17  1  0
 17 18  1  0
 18 19  1  0
 19 20  2  0
 20 21  1  0
 21 22  2  0
 22 23  1  0
 17 24  1  0
 24 25  1  0
 25 26  2  0
 25 27  1  0
 27 28  1  0
 28 29  1  0
 29 30  2  0
 30 31  1  0
 31 32  2  0
 32 33  1  0
 33 34  2  0
  5 35  1  0
 35 36  1  0
 35 37  2  0
 23 19  1  0
 34 29  1  0
  1 38  1  0
  1 39  1  0
  1 40  1  0
  3 41  1  0
  3 42  1  0
  4 43  1  0
  4 44  1  0
  5 45  1  6
  6 46  1  0
  9 47  1  1
 10 48  1  0
 10 49  1  0
 11 50  1  0
 12 51  1  0
 12 52  1  0
 12 53  1  0
 13 54  1  0
 13 55  1  0
 13 56  1  0
 14 57  1  0
 17 58  1  6
 18 59  1  0
 18 60  1  0
 20 61  1  0
 22 62  1  0
 23 63  1  0
 24 64  1  0
 28 65  1  0
 28 66  1  0
 30 67  1  0
 31 68  1  0
 32 69  1  0
 33 70  1  0
 34 71  1  0
 36 72  1  0
M  END
$$$$
[H]O[C@@]([H])(C([H])([H])[H])[C@]([H])(c1nnc(-c2c([H])c([H])c(C#N)c([H])c2[H])o1)N([H])c1c([H])c([H])c([N+]#[C-])c(Cl)c1C([H])([H])[H]
     RDKit          3D

 44 46  0  0  0  0  0  0  0  0999 V2000
   -1.5064   -2.5025    1.4965 C   0  0  0  0  0  0  0  0  0  0  0  0
   -0.4389   -1.6105    0.9945 C   0  0  2  0  0  0  0  0  0  0  0  0
    0.1226   -0.9268    2.0826 O   0  0  0  0  0  0  0  0  0  0  0  0
   -0.7432   -0.7148   -0.1477 C   0  0  1  0  0  0  0  0  0  0  0  0
   -1.6587    0.3461    0.0763 N   0  0  0  0  0  0  0  0  0  0  0  0
   -3.0496    0.3499    0.0855 C   0  0  0  0  0  0  0  0  0  0  0  0
   -3.7704   -0.7217   -0.3613 C   0  0  0  0  0  0  0  0  0  0  0  0
   -5.1675   -0.7279   -0.3949 C   0  0  0  0  0  0  0  0  0  0  0  0
   -5.8649    0.3654    0.0279 C   0  0  0  0  0  0  0  0  0  0  0  0
   -7.2424    0.4020    0.0119 N   0  0  0  0  0  0  0  0  0  0  0  0
   -8.4090    0.4198   -0.0161 C   0  0  0  0  0  0  0  0  0  0  0  0
   -5.1602    1.4475    0.4775 C   0  0  0  0  0  0  0  0  0  0  0  0
   -6.0725    2.8661    1.0254 Cl  0  0  0  0  0  0  0  0  0  0  0  0
   -3.7779    1.4621    0.5147 C   0  0  0  0  0  0  0  0  0  0  0  0
   -3.1071    2.6677    1.0134 C   0  0  0  0  0  0  0  0  0  0  0  0
    0.5739   -0.1733   -0.6407 C   0  0  0  0  0  0  0  0  0  0  0  0
    0.7131    0.7694   -1.5933 N   0  0  0  0  0  0  0  0  0  0  0  0
    1.9791    1.0220   -1.7947 N   0  0  0  0  0  0  0  0  0  0  0  0
    2.6544    0.2045   -0.9338 C   0  0  0  0  0  0  0  0  0  0  0  0
    1.7774   -0.4789   -0.2772 O   0  0  0  0  0  0  0  0  0  0  0  0
    4.1128    0.1945   -0.8597 C   0  0  0  0  0  0  0  0  0  0  0  0
    4.7600   -0.6444    0.0219 C   0  0  0  0  0  0  0  0  0  0  0  0
    6.1525   -0.6699    0.1090 C   0  0  0  0  0  0  0  0  0  0  0  0
    6.9302    0.1454   -0.6860 C   0  0  0  0  0  0  0  0  0  0  0  0
    6.2843    0.9851   -1.5683 C   0  0  0  0  0  0  0  0  0  0  0  0
    4.9070    1.0007   -1.6447 C   0  0  0  0  0  0  0  0  0  0  0  0
    8.3775    0.1181   -0.5946 C   0  0  0  0  0  0  0  0  0  0  0  0
    9.5282    0.0969   -0.5029 N   0  0  0  0  0  0  0  0  0  0  0  0
   -1.0656   -3.2680    2.1713 H   0  0  0  0  0  0  0  0  0  0  0  0
   -2.2873   -1.9881    2.1114 H   0  0  0  0  0  0  0  0  0  0  0  0
   -1.9450   -3.0767    0.6518 H   0  0  0  0  0  0  0  0  0  0  0  0
    0.4008   -2.2869    0.6428 H   0  0  0  0  0  0  0  0  0  0  0  0
   -0.1023   -1.3984    2.9195 H   0  0  0  0  0  0  0  0  0  0  0  0
   -1.0763   -1.3877   -0.9969 H   0  0  0  0  0  0  0  0  0  0  0  0
   -1.1941    1.3023    0.2715 H   0  0  0  0  0  0  0  0  0  0  0  0
   -3.3305   -1.6456   -0.7469 H   0  0  0  0  0  0  0  0  0  0  0  0
   -5.7287   -1.5910   -0.7535 H   0  0  0  0  0  0  0  0  0  0  0  0
   -2.2853    3.0176    0.3577 H   0  0  0  0  0  0  0  0  0  0  0  0
   -3.8576    3.4690    1.1475 H   0  0  0  0  0  0  0  0  0  0  0  0
   -2.6180    2.4914    2.0162 H   0  0  0  0  0  0  0  0  0  0  0  0
    4.1822   -1.2914    0.6545 H   0  0  0  0  0  0  0  0  0  0  0  0
    6.6727   -1.3297    0.8028 H   0  0  0  0  0  0  0  0  0  0  0  0
    6.9005    1.6203   -2.1872 H   0  0  0  0  0  0  0  0  0  0  0  0
    4.4301    1.6703   -2.3466 H   0  0  0  0  0  0  0  0  0  0  0  0
  1  2  1  0
  2  3  1  0
  2  4  1  0
  4  5  1  0
  5  6  1  0
  6  7  2  0
  7  8  1  0
  8  9  2  0
  9 10  1  0
 10 11  3  0
  9 12  1  0
 12 13  1  0
 12 14  2  0
 14 15  1  0
  4 16  1  0
 16 17  2  0
 17 18  1  0
 18 19  2  0
 19 20  1  0
 19 21  1  0
 21 22  2  0
 22 23  1  0
 23 24  2  0
 24 25  1  0
 25 26  2  0
 24 27  1  0
 27 28  3  0
 14  6  1  0
 20 16  1  0
 26 21  1  0
  1 29  1  0
  1 30  1  0
  1 31  1  0
  2 32  1  6
  3 33  1  0
  4 34  1  6
  5 35  1  0
  7 36  1  0
  8 37  1  0
 15 38  1  0
 15 39  1  0
 15 40  1  0
 22 41  1  0
 23 42  1  0
 25 43  1  0
 26 44  1  0
M  CHG  2  10   1  11  -1
M  END
$$$$
[H]C([H])=C([H])C(=O)N([H])c1sc(N([H])c2c([H])c([H])c3c([H])c([H])c([H])c([H])c3c2[H])nc1C(=O)N([H])[H]
     RDKit          3D

 38 40  0  0  0  0  0  0  0  0999 V2000
    1.5299   -3.6137   -0.5782 N   0  0  0  0  0  0  0  0  0  0  0  0
    2.5705   -2.6307   -0.4970 C   0  0  0  0  0  0  0  0  0  0  0  0
    3.7316   -3.0695   -0.6179 O   0  0  0  0  0  0  0  0  0  0  0  0
    2.2751   -1.1945   -0.2838 C   0  0  0  0  0  0  0  0  0  0  0  0
    1.0512   -0.7838   -0.1636 N   0  0  0  0  0  0  0  0  0  0  0  0
    0.7479    0.4608    0.0236 C   0  0  0  0  0  0  0  0  0  0  0  0
   -0.4758    1.1658    0.1843 N   0  0  0  0  0  0  0  0  0  0  0  0
   -1.7732    0.6383    0.1792 C   0  0  0  0  0  0  0  0  0  0  0  0
   -2.0837   -0.6877    0.0126 C   0  0  0  0  0  0  0  0  0  0  0  0
   -3.4003   -1.1562    0.0166 C   0  0  0  0  0  0  0  0  0  0  0  0
   -4.4560   -0.2953    0.1903 C   0  0  0  0  0  0  0  0  0  0  0  0
   -5.7676   -0.7439    0.1968 C   0  0  0  0  0  0  0  0  0  0  0  0
   -6.8306    0.1131    0.3704 C   0  0  0  0  0  0  0  0  0  0  0  0
   -6.5472    1.4439    0.5391 C   0  0  0  0  0  0  0  0  0  0  0  0
   -5.2471    1.8992    0.5341 C   0  0  0  0  0  0  0  0  0  0  0  0
   -4.1778    1.0426    0.3602 C   0  0  0  0  0  0  0  0  0  0  0  0
   -2.8787    1.4820    0.3531 C   0  0  0  0  0  0  0  0  0  0  0  0
    2.3284    1.1816    0.0406 S   0  0  0  0  0  0  0  0  0  0  0  0
    3.2614   -0.2603   -0.2065 C   0  0  0  0  0  0  0  0  0  0  0  0
    4.6777   -0.3104   -0.2870 N   0  0  0  0  0  0  0  0  0  0  0  0
    5.4589    0.8656   -0.1657 C   0  0  0  0  0  0  0  0  0  0  0  0
    4.8842    1.9608    0.0150 O   0  0  0  0  0  0  0  0  0  0  0  0
    6.9043    0.8366   -0.2448 C   0  0  0  0  0  0  0  0  0  0  0  0
    7.6231    1.9311   -0.1315 C   0  0  0  0  0  0  0  0  0  0  0  0
    1.1403   -3.9890    0.3018 H   0  0  0  0  0  0  0  0  0  0  0  0
    1.1549   -3.9609   -1.4859 H   0  0  0  0  0  0  0  0  0  0  0  0
   -0.3857    2.2181    0.3246 H   0  0  0  0  0  0  0  0  0  0  0  0
   -1.3004   -1.4145   -0.1284 H   0  0  0  0  0  0  0  0  0  0  0  0
   -3.6056   -2.2059   -0.1174 H   0  0  0  0  0  0  0  0  0  0  0  0
   -5.9473   -1.8016    0.0604 H   0  0  0  0  0  0  0  0  0  0  0  0
   -7.8398   -0.2863    0.3680 H   0  0  0  0  0  0  0  0  0  0  0  0
   -7.3721    2.1561    0.6803 H   0  0  0  0  0  0  0  0  0  0  0  0
   -5.0469    2.9509    0.6686 H   0  0  0  0  0  0  0  0  0  0  0  0
   -2.6554    2.5412    0.4875 H   0  0  0  0  0  0  0  0  0  0  0  0
    5.1690   -1.1975   -0.4347 H   0  0  0  0  0  0  0  0  0  0  0  0
    7.4170   -0.1063   -0.4013 H   0  0  0  0  0  0  0  0  0  0  0  0
    8.6964    1.9127   -0.1898 H   0  0  0  0  0  0  0  0  0  0  0  0
    7.1696    2.9077    0.0265 H   0  0  0  0  0  0  0  0  0  0  0  0
  1  2  1  0
  2  3  2  0
  2  4  1  0
  4  5  1  0
  5  6  2  0
  6  7  1  0
  7  8  1  0
  8  9  2  0
  9 10  1  0
 10 11  2  0
 11 12  1  0
 12 13  2  0
 13 14  1  0
 14 15  2  0
 15 16  1  0
 16 17  2  0
  6 18  1  0
 18 19  1  0
 19 20  1  0
 20 21  1  0
 21 22  2  0
 21 23  1  0
 23 24  2  3
 19  4  2  0
 17  8  1  0
 16 11  1  0
  1 25  1  0
  1 26  1  0
  7 27  1  0
  9 28  1  0
 10 29  1  0
 12 30  1  0
 13 31  1  0
 14 32  1  0
 15 33  1  0
 17 34  1  0
 20 35  1  0
 23 36  1  0
 24 37  1  0
 24 38  1  0
M  END
$$$$
[H]OC(=O)[C@@]([H])(N([H])C(=O)[C@@]([H])(N([H])[H])C([H])([H])C([H])([H])N=C(N([H])[H])N([H])[H])C([H])([H])c1c([H])c([H])c(O[H])c([H])c1[H]
     RDKit          3D

 44 44  0  0  0  0  0  0  0  0999 V2000
    2.4792    1.9739   -0.8607 N   0  0  0  0  0  0  0  0  0  0  0  0
    2.5425    0.5654   -0.4226 C   0  0  1  0  0  0  0  0  0  0  0  0
    3.1575    0.4961    0.9531 C   0  0  0  0  0  0  0  0  0  0  0  0
    3.2506   -0.9067    1.4413 C   0  0  0  0  0  0  0  0  0  0  0  0
    4.0294   -1.7641    0.5924 N   0  0  0  0  0  0  0  0  0  0  0  0
    5.2802   -1.6979    0.4121 C   0  0  0  0  0  0  0  0  0  0  0  0
    5.9256   -2.6066   -0.4538 N   0  0  0  0  0  0  0  0  0  0  0  0
    6.0438   -0.7144    1.0750 N   0  0  0  0  0  0  0  0  0  0  0  0
    1.1432    0.0037   -0.4359 C   0  0  0  0  0  0  0  0  0  0  0  0
    0.9213   -1.1991   -0.2086 O   0  0  0  0  0  0  0  0  0  0  0  0
    0.0579    0.8708   -0.7147 N   0  0  0  0  0  0  0  0  0  0  0  0
   -1.3007    0.3077   -0.7241 C   0  0  1  0  0  0  0  0  0  0  0  0
   -2.1307    1.0321    0.2942 C   0  0  0  0  0  0  0  0  0  0  0  0
   -3.5229    0.5547    0.3876 C   0  0  0  0  0  0  0  0  0  0  0  0
   -4.5656    1.1504   -0.3172 C   0  0  0  0  0  0  0  0  0  0  0  0
   -5.8632    0.7106   -0.2344 C   0  0  0  0  0  0  0  0  0  0  0  0
   -6.1437   -0.3576    0.5742 C   0  0  0  0  0  0  0  0  0  0  0  0
   -7.4595   -0.8244    0.6750 O   0  0  0  0  0  0  0  0  0  0  0  0
   -5.1203   -0.9615    1.2816 C   0  0  0  0  0  0  0  0  0  0  0  0
   -3.8347   -0.5355    1.2075 C   0  0  0  0  0  0  0  0  0  0  0  0
   -1.7662    0.4196   -2.1110 C   0  0  0  0  0  0  0  0  0  0  0  0
   -2.9778   -0.0765   -2.5341 O   0  0  0  0  0  0  0  0  0  0  0  0
   -1.0688    0.9881   -3.0263 O   0  0  0  0  0  0  0  0  0  0  0  0
    2.5595    2.0362   -1.9003 H   0  0  0  0  0  0  0  0  0  0  0  0
    3.2246    2.5108   -0.3613 H   0  0  0  0  0  0  0  0  0  0  0  0
    3.1459    0.0309   -1.1591 H   0  0  0  0  0  0  0  0  0  0  0  0
    2.4794    1.1100    1.6125 H   0  0  0  0  0  0  0  0  0  0  0  0
    4.1258    1.0223    0.9219 H   0  0  0  0  0  0  0  0  0  0  0  0
    3.8488   -0.8647    2.4166 H   0  0  0  0  0  0  0  0  0  0  0  0
    2.2974   -1.3540    1.7448 H   0  0  0  0  0  0  0  0  0  0  0  0
    6.6460   -3.2826   -0.0782 H   0  0  0  0  0  0  0  0  0  0  0  0
    5.7177   -2.6411   -1.4721 H   0  0  0  0  0  0  0  0  0  0  0  0
    6.5622    0.0073    0.5102 H   0  0  0  0  0  0  0  0  0  0  0  0
    6.1415   -0.6391    2.1085 H   0  0  0  0  0  0  0  0  0  0  0  0
    0.2099    1.8774   -0.9080 H   0  0  0  0  0  0  0  0  0  0  0  0
   -1.2024   -0.7756   -0.4890 H   0  0  0  0  0  0  0  0  0  0  0  0
   -2.1163    2.1279    0.0528 H   0  0  0  0  0  0  0  0  0  0  0  0
   -1.6307    0.9591    1.3030 H   0  0  0  0  0  0  0  0  0  0  0  0
   -4.2906    2.0010   -0.9501 H   0  0  0  0  0  0  0  0  0  0  0  0
   -6.6348    1.2200   -0.8117 H   0  0  0  0  0  0  0  0  0  0  0  0
   -8.1903   -0.3852    0.1634 H   0  0  0  0  0  0  0  0  0  0  0  0
   -5.3907   -1.7955    1.9020 H   0  0  0  0  0  0  0  0  0  0  0  0
   -3.0120   -0.9950    1.7550 H   0  0  0  0  0  0  0  0  0  0  0  0
   -3.5681    0.4011   -3.2116 H   0  0  0  0  0  0  0  0  0  0  0  0
  1  2  1  0
  2  3  1  0
  3  4  1  0
  4  5  1  0
  5  6  2  3
  6  7  1  0
  6  8  1  0
  2  9  1  0
  9 10  2  0
  9 11  1  0
 11 12  1  0
 12 13  1  0
 13 14  1  0
 14 15  2  0
 15 16  1  0
 16 17  2  0
 17 18  1  0
 17 19  1  0
 19 20  2  0
 12 21  1  0
 21 22  1  0
 21 23  2  0
 20 14  1  0
  1 24  1  0
  1 25  1  0
  2 26  1  6
  3 27  1  0
  3 28  1  0
  4 29  1  0
  4 30  1  0
  7 31  1  0
  7 32  1  0
  8 33  1  0
  8 34  1  0
 11 35  1  0
 12 36  1  1
 13 37  1  0
 13 38  1  0
 15 39  1  0
 16 40  1  0
 18 41  1  0
 19 42  1  0
 20 43  1  0
 22 44  1  0
M  END
$$$$
[H]c1nc2c([H])c([H])c([H])c([H])n2c1C(=O)N([H])c1c([H])c(N([H])C(=O)c2c([H])c([H])c(C([H])([H])N3C([H])([H])C([H])([H])N(C([H])([H])[H])C([H])([H])C3([H])[H])c(C(F)(F)F)c2[H])c([H])c([H])c1C([H])([H])[H]
     RDKit          3D

 69 73  0  0  0  0  0  0  0  0999 V2000
    9.2006   -1.9543   -0.5875 C   0  0  0  0  0  0  0  0  0  0  0  0
    8.0158   -1.1863   -0.7540 N   0  0  0  0  0  0  0  0  0  0  0  0
    7.7395   -0.7236   -2.0714 C   0  0  0  0  0  0  0  0  0  0  0  0
    6.5166   -1.2473   -2.7038 C   0  0  0  0  0  0  0  0  0  0  0  0
    5.3621   -1.1552   -1.7871 N   0  0  0  0  0  0  0  0  0  0  0  0
    5.2334    0.1929   -1.3308 C   0  0  0  0  0  0  0  0  0  0  0  0
    4.0104    0.5161   -0.5900 C   0  0  0  0  0  0  0  0  0  0  0  0
    2.9804   -0.3874   -0.4274 C   0  0  0  0  0  0  0  0  0  0  0  0
    1.7874   -0.0795    0.2392 C   0  0  0  0  0  0  0  0  0  0  0  0
    1.6105    1.1733    0.7634 C   0  0  0  0  0  0  0  0  0  0  0  0
    2.6199    2.0725    0.6079 C   0  0  0  0  0  0  0  0  0  0  0  0
    3.8206    1.7797   -0.0565 C   0  0  0  0  0  0  0  0  0  0  0  0
    4.8604    2.8008   -0.1724 C   0  0  0  0  0  0  0  0  0  0  0  0
    6.0548    2.5047    0.4386 F   0  0  0  0  0  0  0  0  0  0  0  0
    5.0499    3.2263   -1.4820 F   0  0  0  0  0  0  0  0  0  0  0  0
    4.4097    3.9543    0.4921 F   0  0  0  0  0  0  0  0  0  0  0  0
    0.3819    1.5665    1.4683 C   0  0  0  0  0  0  0  0  0  0  0  0
    0.4800    2.5562    2.2173 O   0  0  0  0  0  0  0  0  0  0  0  0
   -0.8278    0.8799    1.3152 N   0  0  0  0  0  0  0  0  0  0  0  0
   -2.0396    1.1963    1.9673 C   0  0  0  0  0  0  0  0  0  0  0  0
   -2.1674    1.8989    3.1259 C   0  0  0  0  0  0  0  0  0  0  0  0
   -3.4095    2.1714    3.6516 C   0  0  0  0  0  0  0  0  0  0  0  0
   -4.5561    1.7435    3.0251 C   0  0  0  0  0  0  0  0  0  0  0  0
   -5.8906    2.0373    3.5924 C   0  0  0  0  0  0  0  0  0  0  0  0
   -4.4721    1.0211    1.8379 C   0  0  0  0  0  0  0  0  0  0  0  0
   -5.6614    0.6137    1.2365 N   0  0  0  0  0  0  0  0  0  0  0  0
   -5.8771   -0.1050    0.0521 C   0  0  0  0  0  0  0  0  0  0  0  0
   -4.9330   -0.4950   -0.6557 O   0  0  0  0  0  0  0  0  0  0  0  0
   -7.2479   -0.4270   -0.4020 C   0  0  0  0  0  0  0  0  0  0  0  0
   -8.3909   -0.0743    0.2844 C   0  0  0  0  0  0  0  0  0  0  0  0
   -9.4366   -0.5205   -0.4167 N   0  0  0  0  0  0  0  0  0  0  0  0
   -8.9875   -1.1392   -1.5160 C   0  0  0  0  0  0  0  0  0  0  0  0
   -9.6643   -1.7682   -2.5585 C   0  0  0  0  0  0  0  0  0  0  0  0
   -8.9585   -2.3378   -3.5910 C   0  0  0  0  0  0  0  0  0  0  0  0
   -7.5809   -2.2571   -3.5434 C   0  0  0  0  0  0  0  0  0  0  0  0
   -6.9299   -1.6302   -2.5028 C   0  0  0  0  0  0  0  0  0  0  0  0
   -7.6275   -1.0770   -1.4993 N   0  0  0  0  0  0  0  0  0  0  0  0
   -3.2164    0.7623    1.3333 C   0  0  0  0  0  0  0  0  0  0  0  0
    5.7347   -2.1102   -0.7391 C   0  0  0  0  0  0  0  0  0  0  0  0
    6.8854   -1.5593    0.0174 C   0  0  0  0  0  0  0  0  0  0  0  0
   10.0206   -1.4285   -1.1234 H   0  0  0  0  0  0  0  0  0  0  0  0
    9.0691   -2.9481   -1.0517 H   0  0  0  0  0  0  0  0  0  0  0  0
    9.5188   -2.0052    0.4733 H   0  0  0  0  0  0  0  0  0  0  0  0
    7.7641    0.3825   -2.1336 H   0  0  0  0  0  0  0  0  0  0  0  0
    8.6117   -1.0522   -2.7133 H   0  0  0  0  0  0  0  0  0  0  0  0
    6.3260   -0.7506   -3.6584 H   0  0  0  0  0  0  0  0  0  0  0  0
    6.6574   -2.3567   -2.8628 H   0  0  0  0  0  0  0  0  0  0  0  0
    5.1756    0.8049   -2.2950 H   0  0  0  0  0  0  0  0  0  0  0  0
    6.1696    0.5147   -0.8856 H   0  0  0  0  0  0  0  0  0  0  0  0
    3.0529   -1.3949   -0.8434 H   0  0  0  0  0  0  0  0  0  0  0  0
    1.0172   -0.8252    0.3373 H   0  0  0  0  0  0  0  0  0  0  0  0
    2.5017    3.0758    1.0168 H   0  0  0  0  0  0  0  0  0  0  0  0
   -0.7888    0.0480    0.6401 H   0  0  0  0  0  0  0  0  0  0  0  0
   -1.3030    2.2390    3.6518 H   0  0  0  0  0  0  0  0  0  0  0  0
   -3.5341    2.7357    4.5836 H   0  0  0  0  0  0  0  0  0  0  0  0
   -5.7626    2.6164    4.5254 H   0  0  0  0  0  0  0  0  0  0  0  0
   -6.5214    2.6552    2.9158 H   0  0  0  0  0  0  0  0  0  0  0  0
   -6.4194    1.0978    3.8693 H   0  0  0  0  0  0  0  0  0  0  0  0
   -6.5753    0.8820    1.7433 H   0  0  0  0  0  0  0  0  0  0  0  0
   -8.4809    0.4705    1.2311 H   0  0  0  0  0  0  0  0  0  0  0  0
  -10.7481   -1.7927   -2.5291 H   0  0  0  0  0  0  0  0  0  0  0  0
   -9.4633   -2.8240   -4.3979 H   0  0  0  0  0  0  0  0  0  0  0  0
   -6.9726   -2.6969   -4.3462 H   0  0  0  0  0  0  0  0  0  0  0  0
   -5.8520   -1.6072   -2.5357 H   0  0  0  0  0  0  0  0  0  0  0  0
   -3.0860    0.2121    0.4254 H   0  0  0  0  0  0  0  0  0  0  0  0
    6.0406   -3.0338   -1.3114 H   0  0  0  0  0  0  0  0  0  0  0  0
    4.9363   -2.3739   -0.0588 H   0  0  0  0  0  0  0  0  0  0  0  0
    7.2224   -2.3531    0.7451 H   0  0  0  0  0  0  0  0  0  0  0  0
    6.5442   -0.7251    0.6578 H   0  0  0  0  0  0  0  0  0  0  0  0
  1  2  1  0
  2  3  1  0
  3  4  1  0
  4  5  1  0
  5  6  1  0
  6  7  1  0
  7  8  2  0
  8  9  1  0
  9 10  2  0
 10 11  1  0
 11 12  2  0
 12 13  1  0
 13 14  1  0
 13 15  1  0
 13 16  1  0
 10 17  1  0
 17 18  2  0
 17 19  1  0
 19 20  1  0
 20 21  2  0
 21 22  1  0
 22 23  2  0
 23 24  1  0
 23 25  1  0
 25 26  1  0
 26 27  1  0
 27 28  2  0
 27 29  1  0
 29 30  2  0
 30 31  1  0
 31 32  2  0
 32 33  1  0
 33 34  2  0
 34 35  1  0
 35 36  2  0
 36 37  1  0
 25 38  2  0
  5 39  1  0
 39 40  1  0
 40  2  1  0
 12  7  1  0
 38 20  1  0
 37 29  1  0
 37 32  1  0
  1 41  1  0
  1 42  1  0
  1 43  1  0
  3 44  1  0
  3 45  1  0
  4 46  1  0
  4 47  1  0
  6 48  1  0
  6 49  1  0
  8 50  1  0
  9 51  1  0
 11 52  1  0
 19 53  1  0
 21 54  1  0
 22 55  1  0
 24 56  1  0
 24 57  1  0
 24 58  1  0
 26 59  1  0
 30 60  1  0
 33 61  1  0
 34 62  1  0
 35 63  1  0
 36 64  1  0
 38 65  1  0
 39 66  1  0
 39 67  1  0
 40 68  1  0
 40 69  1  0
M  END
$$$$
[H]c1nc(N([H])C(=O)c2c([H])c([H])c(C3([H])C([H])([H])C([H])([H])N(C([H])(C([H])([H])[H])C([H])([H])[H])C([H])([H])C3([H])[H])c([H])c2[H])c([H])c(Oc2c(OC([H])([H])C([H])([H])C([H])([H])OC([H])([H])[H])c([H])c3c(c2[H])c([H])c([H])n3C(=O)N([H])C([H])([H])[H])c1[H]
     RDKit          3D

 85 89  0  0  0  0  0  0  0  0999 V2000
   -9.3927    5.3603    0.4827 C   0  0  0  0  0  0  0  0  0  0  0  0
   -8.1647    4.9228   -0.1759 N   0  0  0  0  0  0  0  0  0  0  0  0
   -7.7421    3.5667   -0.0062 C   0  0  0  0  0  0  0  0  0  0  0  0
   -8.4550    2.7865    0.7176 O   0  0  0  0  0  0  0  0  0  0  0  0
   -6.5616    3.0820   -0.6200 N   0  0  0  0  0  0  0  0  0  0  0  0
   -5.7752    3.8491   -1.3881 C   0  0  0  0  0  0  0  0  0  0  0  0
   -4.7068    3.1362   -1.8637 C   0  0  0  0  0  0  0  0  0  0  0  0
   -4.8469    1.8595   -1.3591 C   0  0  0  0  0  0  0  0  0  0  0  0
   -4.1375    0.6992   -1.4539 C   0  0  0  0  0  0  0  0  0  0  0  0
   -4.5364   -0.4417   -0.8216 C   0  0  0  0  0  0  0  0  0  0  0  0
   -3.8520   -1.6327   -0.8890 O   0  0  0  0  0  0  0  0  0  0  0  0
   -2.7186   -1.7868   -1.6226 C   0  0  0  0  0  0  0  0  0  0  0  0
   -2.8453   -2.2912   -2.9063 C   0  0  0  0  0  0  0  0  0  0  0  0
   -1.6994   -2.4498   -3.6442 C   0  0  0  0  0  0  0  0  0  0  0  0
   -0.5151   -2.1421   -3.1741 N   0  0  0  0  0  0  0  0  0  0  0  0
   -0.3218   -1.6486   -1.9413 C   0  0  0  0  0  0  0  0  0  0  0  0
    0.9881   -1.3466   -1.5152 N   0  0  0  0  0  0  0  0  0  0  0  0
    1.4361   -0.8092   -0.3049 C   0  0  0  0  0  0  0  0  0  0  0  0
    0.6975   -0.4885    0.6247 O   0  0  0  0  0  0  0  0  0  0  0  0
    2.8873   -0.5992   -0.0923 C   0  0  0  0  0  0  0  0  0  0  0  0
    3.6620   -0.1733   -1.1234 C   0  0  0  0  0  0  0  0  0  0  0  0
    5.0250    0.0091   -0.9232 C   0  0  0  0  0  0  0  0  0  0  0  0
    5.6458   -0.2195    0.2798 C   0  0  0  0  0  0  0  0  0  0  0  0
    4.8280   -0.6561    1.3194 C   0  0  0  0  0  0  0  0  0  0  0  0
    3.4704   -0.8415    1.1298 C   0  0  0  0  0  0  0  0  0  0  0  0
    7.0738    0.0068    0.4169 C   0  0  0  0  0  0  0  0  0  0  0  0
    7.8839   -1.2990    0.3111 C   0  0  0  0  0  0  0  0  0  0  0  0
    9.3557   -0.9527    0.2098 C   0  0  0  0  0  0  0  0  0  0  0  0
    9.5010    0.4401    0.4424 N   0  0  0  0  0  0  0  0  0  0  0  0
    8.9936    0.9036    1.6804 C   0  0  0  0  0  0  0  0  0  0  0  0
    7.4789    0.7488    1.6687 C   0  0  0  0  0  0  0  0  0  0  0  0
   10.6024    1.1023   -0.1329 C   0  0  0  0  0  0  0  0  0  0  0  0
   10.4609    0.9894   -1.6566 C   0  0  0  0  0  0  0  0  0  0  0  0
   10.5133    2.5818    0.1765 C   0  0  0  0  0  0  0  0  0  0  0  0
   -1.4309   -1.4696   -1.1585 C   0  0  0  0  0  0  0  0  0  0  0  0
   -5.7153   -0.4767   -0.0305 C   0  0  0  0  0  0  0  0  0  0  0  0
   -6.0821   -1.5614    0.5576 O   0  0  0  0  0  0  0  0  0  0  0  0
   -6.4498   -2.6322    1.1419 C   0  0  0  0  0  0  0  0  0  0  0  0
   -7.8481   -3.1123    0.7174 C   0  0  0  0  0  0  0  0  0  0  0  0
   -8.1750   -4.3833    1.4386 C   0  0  0  0  0  0  0  0  0  0  0  0
   -8.1367   -4.1943    2.8002 O   0  0  0  0  0  0  0  0  0  0  0  0
   -9.0266   -3.2518    3.2280 C   0  0  0  0  0  0  0  0  0  0  0  0
   -6.4320    0.7380    0.0520 C   0  0  0  0  0  0  0  0  0  0  0  0
   -6.0132    1.8514   -0.5842 C   0  0  0  0  0  0  0  0  0  0  0  0
  -10.1097    4.5113    0.5930 H   0  0  0  0  0  0  0  0  0  0  0  0
   -9.8275    6.1860   -0.1167 H   0  0  0  0  0  0  0  0  0  0  0  0
   -9.1460    5.7274    1.4913 H   0  0  0  0  0  0  0  0  0  0  0  0
   -7.6246    5.5796   -0.7432 H   0  0  0  0  0  0  0  0  0  0  0  0
   -5.9394    4.9103   -1.6260 H   0  0  0  0  0  0  0  0  0  0  0  0
   -3.8972    3.4468   -2.4990 H   0  0  0  0  0  0  0  0  0  0  0  0
   -3.2332    0.7312   -2.0584 H   0  0  0  0  0  0  0  0  0  0  0  0
   -3.8371   -2.5534   -3.3076 H   0  0  0  0  0  0  0  0  0  0  0  0
   -1.8499   -2.8605   -4.6629 H   0  0  0  0  0  0  0  0  0  0  0  0
    1.7610   -1.5834   -2.2511 H   0  0  0  0  0  0  0  0  0  0  0  0
    3.1981    0.0155   -2.0830 H   0  0  0  0  0  0  0  0  0  0  0  0
    5.5849    0.3501   -1.7960 H   0  0  0  0  0  0  0  0  0  0  0  0
    5.3227   -0.8374    2.2620 H   0  0  0  0  0  0  0  0  0  0  0  0
    2.8627   -1.1815    1.9480 H   0  0  0  0  0  0  0  0  0  0  0  0
    7.4482    0.6092   -0.4495 H   0  0  0  0  0  0  0  0  0  0  0  0
    7.6446   -1.9804    1.1239 H   0  0  0  0  0  0  0  0  0  0  0  0
    7.5891   -1.7522   -0.6614 H   0  0  0  0  0  0  0  0  0  0  0  0
    9.7954   -1.2234   -0.7558 H   0  0  0  0  0  0  0  0  0  0  0  0
    9.8773   -1.5800    0.9799 H   0  0  0  0  0  0  0  0  0  0  0  0
    9.3648    0.2826    2.5451 H   0  0  0  0  0  0  0  0  0  0  0  0
    9.3045    1.9276    1.8784 H   0  0  0  0  0  0  0  0  0  0  0  0
    7.0575    1.7771    1.5911 H   0  0  0  0  0  0  0  0  0  0  0  0
    7.0918    0.2860    2.5937 H   0  0  0  0  0  0  0  0  0  0  0  0
   11.5963    0.7458    0.2035 H   0  0  0  0  0  0  0  0  0  0  0  0
   11.2434    0.3192   -2.0924 H   0  0  0  0  0  0  0  0  0  0  0  0
    9.4866    0.5102   -1.9386 H   0  0  0  0  0  0  0  0  0  0  0  0
   10.4794    1.9636   -2.1559 H   0  0  0  0  0  0  0  0  0  0  0  0
   11.1219    3.0978   -0.6089 H   0  0  0  0  0  0  0  0  0  0  0  0
   11.0128    2.8441    1.1371 H   0  0  0  0  0  0  0  0  0  0  0  0
    9.4759    2.9640    0.1199 H   0  0  0  0  0  0  0  0  0  0  0  0
   -1.3756   -1.0779   -0.1535 H   0  0  0  0  0  0  0  0  0  0  0  0
   -6.4543   -2.5312    2.2794 H   0  0  0  0  0  0  0  0  0  0  0  0
   -5.7606   -3.5451    1.0127 H   0  0  0  0  0  0  0  0  0  0  0  0
   -7.7541   -3.3535   -0.3664 H   0  0  0  0  0  0  0  0  0  0  0  0
   -8.6247   -2.3586    0.9091 H   0  0  0  0  0  0  0  0  0  0  0  0
   -7.4418   -5.1539    1.1070 H   0  0  0  0  0  0  0  0  0  0  0  0
   -9.1924   -4.7611    1.1539 H   0  0  0  0  0  0  0  0  0  0  0  0
  -10.0971   -3.4785    2.9768 H   0  0  0  0  0  0  0  0  0  0  0  0
   -8.8204   -2.2284    2.8916 H   0  0  0  0  0  0  0  0  0  0  0  0
   -8.9138   -3.2056    4.3503 H   0  0  0  0  0  0  0  0  0  0  0  0
   -7.3425    0.6870    0.6730 H   0  0  0  0  0  0  0  0  0  0  0  0
  1  2  1  0
  2  3  1  0
  3  4  2  0
  3  5  1  0
  5  6  1  0
  6  7  2  0
  7  8  1  0
  8  9  2  0
  9 10  1  0
 10 11  1  0
 11 12  1  0
 12 13  2  0
 13 14  1  0
 14 15  2  0
 15 16  1  0
 16 17  1  0
 17 18  1  0
 18 19  2  0
 18 20  1  0
 20 21  2  0
 21 22  1  0
 22 23  2  0
 23 24  1  0
 24 25  2  0
 23 26  1  0
 26 27  1  0
 27 28  1  0
 28 29  1  0
 29 30  1  0
 30 31  1  0
 29 32  1  0
 32 33  1  0
 32 34  1  0
 16 35  2  0
 10 36  2  0
 36 37  1  0
 37 38  1  0
 38 39  1  0
 39 40  1  0
 40 41  1  0
 41 42  1  0
 36 43  1  0
 43 44  2  0
 44  5  1  0
 44  8  1  0
 35 12  1  0
 25 20  1  0
 31 26  1  0
  1 45  1  0
  1 46  1  0
  1 47  1  0
  2 48  1  0
  6 49  1  0
  7 50  1  0
  9 51  1  0
 13 52  1  0
 14 53  1  0
 17 54  1  0
 21 55  1  0
 22 56  1  0
 24 57  1  0
 25 58  1  0
 26 59  1  0
 27 60  1  0
 27 61  1  0
 28 62  1  0
 28 63  1  0
 30 64  1  0
 30 65  1  0
 31 66  1  0
 31 67  1  0
 32 68  1  0
 33 69  1  0
 33 70  1  0
 33 71  1  0
 34 72  1  0
 34 73  1  0
 34 74  1  0
 35 75  1  0
 38 76  1  0
 38 77  1  0
 39 78  1  0
 39 79  1  0
 40 80  1  0
 40 81  1  0
 42 82  1  0
 42 83  1  0
 42 84  1  0
 43 85  1  0
M  END
$$$$
[H]ON([H])C(=O)C([H])([H])[C@]([H])(C(=O)N([H])[C@]([H])(C(=O)N([H])C([H])([H])c1c([H])c([H])c([H])c([H])c1[H])C([H])([H])c1c([H])n([H])c2c([H])c([H])c([H])c([H])c12)C([H])([H])C([H])(C([H])([H])[H])C([H])([H])[H]
     RDKit          3D

 66 68  0  0  0  0  0  0  0  0999 V2000
    5.1877   -1.7025   -2.5111 C   0  0  0  0  0  0  0  0  0  0  0  0
    5.1681   -0.5509   -1.4609 C   0  0  0  0  0  0  0  0  0  0  0  0
    6.4138   -0.7686   -0.6700 C   0  0  0  0  0  0  0  0  0  0  0  0
    3.8717   -0.6386   -0.7441 C   0  0  0  0  0  0  0  0  0  0  0  0
    3.5339    0.3369    0.2937 C   0  0  2  0  0  0  0  0  0  0  0  0
    4.3665    0.4562    1.5162 C   0  0  0  0  0  0  0  0  0  0  0  0
    4.4360   -0.7953    2.3379 C   0  0  0  0  0  0  0  0  0  0  0  0
    3.9759   -1.9002    1.9752 O   0  0  0  0  0  0  0  0  0  0  0  0
    5.0568   -0.7433    3.6165 N   0  0  0  0  0  0  0  0  0  0  0  0
    5.1146   -1.8747    4.3551 O   0  0  0  0  0  0  0  0  0  0  0  0
    2.0889    0.2870    0.7074 C   0  0  0  0  0  0  0  0  0  0  0  0
    1.8224    0.0054    1.8957 O   0  0  0  0  0  0  0  0  0  0  0  0
    1.0638    0.5445   -0.1997 N   0  0  0  0  0  0  0  0  0  0  0  0
   -0.3898    0.5163    0.1344 C   0  0  1  0  0  0  0  0  0  0  0  0
   -0.8402    1.9009    0.2040 C   0  0  0  0  0  0  0  0  0  0  0  0
   -2.2442    2.1692    0.5334 C   0  0  0  0  0  0  0  0  0  0  0  0
   -3.0370    1.6281    1.5462 C   0  0  0  0  0  0  0  0  0  0  0  0
   -4.2839    2.1320    1.4478 N   0  0  0  0  0  0  0  0  0  0  0  0
   -4.3736    2.9988    0.4087 C   0  0  0  0  0  0  0  0  0  0  0  0
   -5.4171    3.7679   -0.0652 C   0  0  0  0  0  0  0  0  0  0  0  0
   -5.2195    4.5991   -1.1431 C   0  0  0  0  0  0  0  0  0  0  0  0
   -3.9685    4.6375   -1.7229 C   0  0  0  0  0  0  0  0  0  0  0  0
   -2.9246    3.8557   -1.2354 C   0  0  0  0  0  0  0  0  0  0  0  0
   -3.1170    3.0213   -0.1568 C   0  0  0  0  0  0  0  0  0  0  0  0
   -1.0512   -0.5232   -0.5984 C   0  0  0  0  0  0  0  0  0  0  0  0
   -0.4137   -1.6631   -0.6193 O   0  0  0  0  0  0  0  0  0  0  0  0
   -2.2564   -0.4642   -1.2772 N   0  0  0  0  0  0  0  0  0  0  0  0
   -2.7625   -1.6732   -1.9520 C   0  0  0  0  0  0  0  0  0  0  0  0
   -3.4803   -2.4153   -0.8843 C   0  0  0  0  0  0  0  0  0  0  0  0
   -3.0451   -3.5288   -0.2462 C   0  0  0  0  0  0  0  0  0  0  0  0
   -3.8056   -4.1228    0.7541 C   0  0  0  0  0  0  0  0  0  0  0  0
   -5.0187   -3.5862    1.1115 C   0  0  0  0  0  0  0  0  0  0  0  0
   -5.4625   -2.4650    0.4700 C   0  0  0  0  0  0  0  0  0  0  0  0
   -4.7180   -1.8590   -0.5274 C   0  0  0  0  0  0  0  0  0  0  0  0
    4.1533   -1.9862   -2.7461 H   0  0  0  0  0  0  0  0  0  0  0  0
    5.6968   -2.5802   -2.0548 H   0  0  0  0  0  0  0  0  0  0  0  0
    5.7721   -1.3913   -3.3844 H   0  0  0  0  0  0  0  0  0  0  0  0
    5.2845    0.3724   -2.0710 H   0  0  0  0  0  0  0  0  0  0  0  0
    6.2955   -1.5972    0.0514 H   0  0  0  0  0  0  0  0  0  0  0  0
    6.7966    0.1102   -0.1277 H   0  0  0  0  0  0  0  0  0  0  0  0
    7.2723   -1.0784   -1.3494 H   0  0  0  0  0  0  0  0  0  0  0  0
    3.0753   -0.5844   -1.5630 H   0  0  0  0  0  0  0  0  0  0  0  0
    3.7948   -1.7271   -0.3961 H   0  0  0  0  0  0  0  0  0  0  0  0
    3.6045    1.3692   -0.2004 H   0  0  0  0  0  0  0  0  0  0  0  0
    3.7594    1.1641    2.2021 H   0  0  0  0  0  0  0  0  0  0  0  0
    5.3298    0.9715    1.4133 H   0  0  0  0  0  0  0  0  0  0  0  0
    5.4481    0.1428    3.9738 H   0  0  0  0  0  0  0  0  0  0  0  0
    5.9837   -2.3083    4.1089 H   0  0  0  0  0  0  0  0  0  0  0  0
    1.2474    0.7772   -1.2012 H   0  0  0  0  0  0  0  0  0  0  0  0
   -0.3263    0.1818    1.2605 H   0  0  0  0  0  0  0  0  0  0  0  0
   -0.2046    2.5523    0.8678 H   0  0  0  0  0  0  0  0  0  0  0  0
   -0.6181    2.3456   -0.8508 H   0  0  0  0  0  0  0  0  0  0  0  0
   -2.6454    0.9129    2.2598 H   0  0  0  0  0  0  0  0  0  0  0  0
   -5.0592    1.8633    2.1022 H   0  0  0  0  0  0  0  0  0  0  0  0
   -6.3983    3.7453    0.3767 H   0  0  0  0  0  0  0  0  0  0  0  0
   -6.0315    5.2317   -1.5469 H   0  0  0  0  0  0  0  0  0  0  0  0
   -3.7375    5.2767   -2.5746 H   0  0  0  0  0  0  0  0  0  0  0  0
   -1.9308    3.8709   -1.6777 H   0  0  0  0  0  0  0  0  0  0  0  0
   -2.8401    0.3656   -1.3531 H   0  0  0  0  0  0  0  0  0  0  0  0
   -1.8997   -2.2453   -2.3599 H   0  0  0  0  0  0  0  0  0  0  0  0
   -3.4402   -1.3530   -2.7509 H   0  0  0  0  0  0  0  0  0  0  0  0
   -2.1015   -3.9733   -0.5151 H   0  0  0  0  0  0  0  0  0  0  0  0
   -3.4128   -5.0071    1.2316 H   0  0  0  0  0  0  0  0  0  0  0  0
   -5.6207   -4.0315    1.8843 H   0  0  0  0  0  0  0  0  0  0  0  0
   -6.4261   -2.0017    0.7156 H   0  0  0  0  0  0  0  0  0  0  0  0
   -5.0918   -0.9704   -1.0189 H   0  0  0  0  0  0  0  0  0  0  0  0
  1  2  1  0
  2  3  1  0
  2  4  1  0
  4  5  1  0
  5  6  1  0
  6  7  1  0
  7  8  2  0
  7  9  1  0
  9 10  1  0
  5 11  1  0
 11 12  2  0
 11 13  1  0
 13 14  1  0
 14 15  1  0
 15 16  1  0
 16 17  2  0
 17 18  1  0
 18 19  1  0
 19 20  2  0
 20 21  1  0
 21 22  2  0
 22 23  1  0
 23 24  2  0
 14 25  1  0
 25 26  2  0
 25 27  1  0
 27 28  1  0
 28 29  1  0
 29 30  2  0
 30 31  1  0
 31 32  2  0
 32 33  1  0
 33 34  2  0
 24 16  1  0
 34 29  1  0
 24 19  1  0
  1 35  1  0
  1 36  1  0
  1 37  1  0
  2 38  1  0
  3 39  1  0
  3 40  1  0
  3 41  1  0
  4 42  1  0
  4 43  1  0
  5 44  1  6
  6 45  1  0
  6 46  1  0
  9 47  1  0
 10 48  1  0
 13 49  1  0
 14 50  1  1
 15 51  1  0
 15 52  1  0
 17 53  1  0
 18 54  1  0
 20 55  1  0
 21 56  1  0
 22 57  1  0
 23 58  1  0
 27 59  1  0
 28 60  1  0
 28 61  1  0
 30 62  1  0
 31 63  1  0
 32 64  1  0
 33 65  1  0
 34 66  1  0
M  END
$$$$
[H]c1nc([H])c(-c2nc(-c3noc(=O)n3[H])c([H])c3nc(N4C([H])([H])C([H])([H])OC([H])([H])[C@]4([H])C([H])([H])[H])n(C([H])([H])[C@]4([H])C([H])([H])C([H])([H])[C@@]([H])(C([H])([H])[H])C([H])([H])C4([H])[H])c23)c([H])c1Cl
     RDKit          3D

 67 72  0  0  0  0  0  0  0  0999 V2000
    5.3424    0.3571    1.1637 C   0  0  0  0  0  0  0  0  0  0  0  0
    4.4723   -0.8786    1.1182 C   0  0  1  0  0  0  0  0  0  0  0  0
    3.2474   -0.7051    2.0146 C   0  0  0  0  0  0  0  0  0  0  0  0
    2.0080   -1.0327    1.1606 C   0  0  0  0  0  0  0  0  0  0  0  0
    1.9281   -0.0082    0.1234 C   0  0  2  0  0  0  0  0  0  0  0  0
    0.7200    0.1166   -0.7544 C   0  0  0  0  0  0  0  0  0  0  0  0
   -0.5369    0.3445   -0.1488 N   0  0  0  0  0  0  0  0  0  0  0  0
   -0.9990    1.5833    0.2477 C   0  0  0  0  0  0  0  0  0  0  0  0
   -2.2072    1.4883    0.8054 N   0  0  0  0  0  0  0  0  0  0  0  0
   -2.5758    0.2149    0.7942 C   0  0  0  0  0  0  0  0  0  0  0  0
   -3.7111   -0.4462    1.2405 C   0  0  0  0  0  0  0  0  0  0  0  0
   -3.8742   -1.8031    1.1196 C   0  0  0  0  0  0  0  0  0  0  0  0
   -2.8731   -2.4599    0.5412 N   0  0  0  0  0  0  0  0  0  0  0  0
   -1.7210   -1.8535    0.0779 C   0  0  0  0  0  0  0  0  0  0  0  0
   -0.8253   -2.7594   -0.5461 C   0  0  0  0  0  0  0  0  0  0  0  0
   -0.3378   -3.8173    0.1841 C   0  0  0  0  0  0  0  0  0  0  0  0
    0.4058   -4.7918   -0.3526 N   0  0  0  0  0  0  0  0  0  0  0  0
    0.6975   -4.7502   -1.6581 C   0  0  0  0  0  0  0  0  0  0  0  0
    0.2465   -3.7256   -2.4526 C   0  0  0  0  0  0  0  0  0  0  0  0
    0.6071   -3.6370   -4.1627 Cl  0  0  0  0  0  0  0  0  0  0  0  0
   -0.5281   -2.7241   -1.8582 C   0  0  0  0  0  0  0  0  0  0  0  0
   -1.5230   -0.5059    0.1884 C   0  0  0  0  0  0  0  0  0  0  0  0
   -5.0834   -2.4727    1.6037 C   0  0  0  0  0  0  0  0  0  0  0  0
   -5.3377   -3.7716    1.5340 N   0  0  0  0  0  0  0  0  0  0  0  0
   -6.5215   -4.0196    2.0670 O   0  0  0  0  0  0  0  0  0  0  0  0
   -7.0243   -2.8912    2.4760 C   0  0  0  0  0  0  0  0  0  0  0  0
   -8.1319   -2.7407    3.0316 O   0  0  0  0  0  0  0  0  0  0  0  0
   -6.1541   -1.9210    2.2005 N   0  0  0  0  0  0  0  0  0  0  0  0
   -0.3426    2.8469    0.1019 N   0  0  0  0  0  0  0  0  0  0  0  0
    0.3980    3.3308    1.2308 C   0  0  0  0  0  0  0  0  0  0  0  0
    0.0845    4.7814    1.4433 C   0  0  0  0  0  0  0  0  0  0  0  0
    0.1293    5.5164    0.2609 O   0  0  0  0  0  0  0  0  0  0  0  0
   -0.7810    5.0689   -0.6720 C   0  0  0  0  0  0  0  0  0  0  0  0
   -0.3790    3.6663   -1.0760 C   0  0  2  0  0  0  0  0  0  0  0  0
   -1.2792    3.1266   -2.1600 C   0  0  0  0  0  0  0  0  0  0  0  0
    3.1128   -0.1758   -0.8688 C   0  0  0  0  0  0  0  0  0  0  0  0
    4.1022   -1.1428   -0.3068 C   0  0  0  0  0  0  0  0  0  0  0  0
    4.7878    1.2535    1.4554 H   0  0  0  0  0  0  0  0  0  0  0  0
    5.8113    0.5596    0.1654 H   0  0  0  0  0  0  0  0  0  0  0  0
    6.2160    0.1901    1.8526 H   0  0  0  0  0  0  0  0  0  0  0  0
    5.0959   -1.7508    1.4546 H   0  0  0  0  0  0  0  0  0  0  0  0
    3.1979    0.3105    2.4288 H   0  0  0  0  0  0  0  0  0  0  0  0
    3.3064   -1.4899    2.7964 H   0  0  0  0  0  0  0  0  0  0  0  0
    1.1529   -0.9742    1.8477 H   0  0  0  0  0  0  0  0  0  0  0  0
    2.1933   -2.0673    0.8079 H   0  0  0  0  0  0  0  0  0  0  0  0
    2.2111    0.9663    0.6316 H   0  0  0  0  0  0  0  0  0  0  0  0
    0.8022   -0.4084   -1.6990 H   0  0  0  0  0  0  0  0  0  0  0  0
    0.9534    1.1807   -1.2241 H   0  0  0  0  0  0  0  0  0  0  0  0
   -4.4959    0.1342    1.7011 H   0  0  0  0  0  0  0  0  0  0  0  0
   -0.5570   -3.8786    1.2423 H   0  0  0  0  0  0  0  0  0  0  0  0
    1.2936   -5.5332   -2.0843 H   0  0  0  0  0  0  0  0  0  0  0  0
   -0.8742   -1.9161   -2.5356 H   0  0  0  0  0  0  0  0  0  0  0  0
   -6.2526   -0.8905    2.4002 H   0  0  0  0  0  0  0  0  0  0  0  0
    0.1394    2.7985    2.1738 H   0  0  0  0  0  0  0  0  0  0  0  0
    1.4973    3.2428    1.0910 H   0  0  0  0  0  0  0  0  0  0  0  0
    0.8571    5.2063    2.1132 H   0  0  0  0  0  0  0  0  0  0  0  0
   -0.8947    4.9416    1.9407 H   0  0  0  0  0  0  0  0  0  0  0  0
   -1.8291    5.1406   -0.3685 H   0  0  0  0  0  0  0  0  0  0  0  0
   -0.6719    5.7491   -1.5634 H   0  0  0  0  0  0  0  0  0  0  0  0
    0.6464    3.7155   -1.4873 H   0  0  0  0  0  0  0  0  0  0  0  0
   -0.7031    2.3848   -2.7315 H   0  0  0  0  0  0  0  0  0  0  0  0
   -2.2469    2.7539   -1.7801 H   0  0  0  0  0  0  0  0  0  0  0  0
   -1.4920    3.9714   -2.8506 H   0  0  0  0  0  0  0  0  0  0  0  0
    2.7378   -0.6006   -1.8267 H   0  0  0  0  0  0  0  0  0  0  0  0
    3.5471    0.8081   -1.1354 H   0  0  0  0  0  0  0  0  0  0  0  0
    3.7695   -2.1834   -0.4965 H   0  0  0  0  0  0  0  0  0  0  0  0
    5.0464   -1.0226   -0.9064 H   0  0  0  0  0  0  0  0  0  0  0  0
  1  2  1  0
  2  3  1  0
  3  4  1  0
  4  5  1  0
  5  6  1  0
  6  7  1  0
  7  8  1  0
  8  9  2  0
  9 10  1  0
 10 11  2  0
 11 12  1  0
 12 13  2  0
 13 14  1  0
 14 15  1  0
 15 16  2  0
 16 17  1  0
 17 18  2  0
 18 19  1  0
 19 20  1  0
 19 21  2  0
 14 22  2  0
 12 23  1  0
 23 24  2  0
 24 25  1  0
 25 26  1  0
 26 27  2  0
 26 28  1  0
  8 29  1  0
 29 30  1  0
 30 31  1  0
 31 32  1  0
 32 33  1  0
 33 34  1  0
 34 35  1  0
  5 36  1  0
 36 37  1  0
 37  2  1  0
 22  7  1  0
 28 23  1  0
 34 29  1  0
 22 10  1  0
 21 15  1  0
  1 38  1  0
  1 39  1  0
  1 40  1  0
  2 41  1  1
  3 42  1  0
  3 43  1  0
  4 44  1  0
  4 45  1  0
  5 46  1  1
  6 47  1  0
  6 48  1  0
 11 49  1  0
 16 50  1  0
 18 51  1  0
 21 52  1  0
 28 53  1  0
 30 54  1  0
 30 55  1  0
 31 56  1  0
 31 57  1  0
 33 58  1  0
 33 59  1  0
 34 60  1  6
 35 61  1  0
 35 62  1  0
 35 63  1  0
 36 64  1  0
 36 65  1  0
 37 66  1  0
 37 67  1  0
M  END
$$$$
[H]OC([H])([H])[C@]1([H])[C@@]([H])(O[H])[C@]([H])(O[H])[C@@]([H])(O[H])[C@@]([H])(O[H])[C@]1([H])O[H]
     RDKit          3D

 27 27  0  0  0  0  0  0  0  0999 V2000
   -2.8480    1.0405    1.1420 O   0  0  0  0  0  0  0  0  0  0  0  0
   -2.4544    0.0219    0.2776 C   0  0  0  0  0  0  0  0  0  0  0  0
   -0.9662   -0.1928    0.4854 C   0  0  2  0  0  0  0  0  0  0  0  0
   -0.2559    1.0890    0.1689 C   0  0  1  0  0  0  0  0  0  0  0  0
   -0.7976    2.1929    0.7792 O   0  0  0  0  0  0  0  0  0  0  0  0
    1.2085    0.8952    0.5516 C   0  0  2  0  0  0  0  0  0  0  0  0
    1.8564    2.0994    0.2119 O   0  0  0  0  0  0  0  0  0  0  0  0
    1.7688   -0.1680   -0.3494 C   0  0  1  0  0  0  0  0  0  0  0  0
    3.0928   -0.4188   -0.0028 O   0  0  0  0  0  0  0  0  0  0  0  0
    0.9968   -1.4597   -0.2994 C   0  0  1  0  0  0  0  0  0  0  0  0
    1.1849   -2.1643    0.8726 O   0  0  0  0  0  0  0  0  0  0  0  0
   -0.4815   -1.2426   -0.4870 C   0  0  2  0  0  0  0  0  0  0  0  0
   -0.7335   -0.7868   -1.7847 O   0  0  0  0  0  0  0  0  0  0  0  0
   -3.3912    1.6872    0.6447 H   0  0  0  0  0  0  0  0  0  0  0  0
   -3.0271   -0.8845    0.5308 H   0  0  0  0  0  0  0  0  0  0  0  0
   -2.6486    0.2755   -0.7642 H   0  0  0  0  0  0  0  0  0  0  0  0
   -0.7295   -0.5042    1.5108 H   0  0  0  0  0  0  0  0  0  0  0  0
   -0.2513    1.2509   -0.9463 H   0  0  0  0  0  0  0  0  0  0  0  0
   -0.2288    2.5630    1.4732 H   0  0  0  0  0  0  0  0  0  0  0  0
    1.2958    0.6686    1.6144 H   0  0  0  0  0  0  0  0  0  0  0  0
    1.8002    2.1664   -0.7758 H   0  0  0  0  0  0  0  0  0  0  0  0
    1.6925    0.2141   -1.3959 H   0  0  0  0  0  0  0  0  0  0  0  0
    3.6844    0.0663   -0.6377 H   0  0  0  0  0  0  0  0  0  0  0  0
    1.3449   -2.0823   -1.1515 H   0  0  0  0  0  0  0  0  0  0  0  0
    0.3491   -2.6936    1.0759 H   0  0  0  0  0  0  0  0  0  0  0  0
   -1.0115   -2.1826   -0.2972 H   0  0  0  0  0  0  0  0  0  0  0  0
   -0.4501   -1.4508   -2.4472 H   0  0  0  0  0  0  0  0  0  0  0  0
  1  2  1  0
  2  3  1  0
  3  4  1  0
  4  5  1  0
  4  6  1  0
  6  7  1  0
  6  8  1  0
  8  9  1  0
  8 10  1  0
 10 11  1  0
 10 12  1  0
 12 13  1  0
 12  3  1  0
  1 14  1  0
  2 15  1  0
  2 16  1  0
  3 17  1  1
  4 18  1  6
  5 19  1  0
  6 20  1  1
  7 21  1  0
  8 22  1  6
  9 23  1  0
 10 24  1  6
 11 25  1  0
 12 26  1  1
 13 27  1  0
M  END
$$$$
[H]c1nc(N([H])c2c([H])c(OC([H])([H])[H])c(OC([H])([H])[H])c(OC([H])([H])[H])c2[H])nc(N([H])c2nc3c(c([H])c2[H])OC(C([H])([H])[H])(C([H])([H])[H])C(=O)N3[H])c1F
     RDKit          3D

 57 60  0  0  0  0  0  0  0  0999 V2000
   -5.6364    2.1181   -1.8630 C   0  0  0  0  0  0  0  0  0  0  0  0
   -5.8443    0.7587   -1.5880 O   0  0  0  0  0  0  0  0  0  0  0  0
   -4.8072    0.0010   -1.0783 C   0  0  0  0  0  0  0  0  0  0  0  0
   -3.5618    0.6012   -0.8432 C   0  0  0  0  0  0  0  0  0  0  0  0
   -2.5031   -0.0703   -0.3477 C   0  0  0  0  0  0  0  0  0  0  0  0
   -1.2316    0.4626   -0.0655 N   0  0  0  0  0  0  0  0  0  0  0  0
   -0.9067    1.8244    0.0656 C   0  0  0  0  0  0  0  0  0  0  0  0
   -1.7494    2.8585   -0.0431 N   0  0  0  0  0  0  0  0  0  0  0  0
   -1.4116    4.1432    0.0863 C   0  0  0  0  0  0  0  0  0  0  0  0
   -0.1125    4.4539    0.3502 C   0  0  0  0  0  0  0  0  0  0  0  0
    0.3587    5.6995    0.5032 F   0  0  0  0  0  0  0  0  0  0  0  0
    0.8217    3.4140    0.4762 C   0  0  0  0  0  0  0  0  0  0  0  0
    2.1801    3.7060    0.7505 N   0  0  0  0  0  0  0  0  0  0  0  0
    3.1050    2.6399    0.8733 C   0  0  0  0  0  0  0  0  0  0  0  0
    4.4571    2.8965    1.1446 C   0  0  0  0  0  0  0  0  0  0  0  0
    5.3443    1.8517    1.2613 C   0  0  0  0  0  0  0  0  0  0  0  0
    4.9285    0.5481    1.1161 C   0  0  0  0  0  0  0  0  0  0  0  0
    5.7961   -0.5293    1.2273 O   0  0  0  0  0  0  0  0  0  0  0  0
    5.5066   -1.7939    0.6515 C   0  0  0  0  0  0  0  0  0  0  0  0
    6.2846   -2.8749    1.3459 C   0  0  0  0  0  0  0  0  0  0  0  0
    5.8127   -1.7705   -0.8228 C   0  0  0  0  0  0  0  0  0  0  0  0
    4.0556   -2.1122    0.8177 C   0  0  0  0  0  0  0  0  0  0  0  0
    3.6763   -3.3008    1.0572 O   0  0  0  0  0  0  0  0  0  0  0  0
    3.1427   -1.0383    0.6962 N   0  0  0  0  0  0  0  0  0  0  0  0
    3.5828    0.3027    0.8467 C   0  0  0  0  0  0  0  0  0  0  0  0
    2.7547    1.3550    0.7416 N   0  0  0  0  0  0  0  0  0  0  0  0
    0.3826    2.1601    0.3289 N   0  0  0  0  0  0  0  0  0  0  0  0
   -2.7045   -1.4372   -0.0691 C   0  0  0  0  0  0  0  0  0  0  0  0
   -3.9082   -2.0549   -0.2874 C   0  0  0  0  0  0  0  0  0  0  0  0
   -4.0666   -3.3859   -0.0045 O   0  0  0  0  0  0  0  0  0  0  0  0
   -2.9762   -4.1177    0.5153 C   0  0  0  0  0  0  0  0  0  0  0  0
   -4.9761   -1.3425   -0.7952 C   0  0  0  0  0  0  0  0  0  0  0  0
   -6.2188   -1.9257   -1.0338 O   0  0  0  0  0  0  0  0  0  0  0  0
   -7.1743   -1.9137    0.0186 C   0  0  0  0  0  0  0  0  0  0  0  0
   -4.7813    2.3111   -2.5387 H   0  0  0  0  0  0  0  0  0  0  0  0
   -5.4850    2.7232   -0.9417 H   0  0  0  0  0  0  0  0  0  0  0  0
   -6.5386    2.5082   -2.4098 H   0  0  0  0  0  0  0  0  0  0  0  0
   -3.4970    1.6360   -1.0973 H   0  0  0  0  0  0  0  0  0  0  0  0
   -0.4103   -0.2136    0.0641 H   0  0  0  0  0  0  0  0  0  0  0  0
   -2.1604    4.9024   -0.0184 H   0  0  0  0  0  0  0  0  0  0  0  0
    2.4712    4.6872    0.8556 H   0  0  0  0  0  0  0  0  0  0  0  0
    4.7318    3.9285    1.2492 H   0  0  0  0  0  0  0  0  0  0  0  0
    6.3943    2.0780    1.4734 H   0  0  0  0  0  0  0  0  0  0  0  0
    5.7812   -3.1588    2.2953 H   0  0  0  0  0  0  0  0  0  0  0  0
    7.3278   -2.5920    1.5737 H   0  0  0  0  0  0  0  0  0  0  0  0
    6.3119   -3.7970    0.7168 H   0  0  0  0  0  0  0  0  0  0  0  0
    5.5475   -2.7321   -1.2838 H   0  0  0  0  0  0  0  0  0  0  0  0
    5.2428   -0.9509   -1.3072 H   0  0  0  0  0  0  0  0  0  0  0  0
    6.8942   -1.5474   -0.9277 H   0  0  0  0  0  0  0  0  0  0  0  0
    2.1474   -1.2464    0.4955 H   0  0  0  0  0  0  0  0  0  0  0  0
   -1.8577   -2.0119    0.3366 H   0  0  0  0  0  0  0  0  0  0  0  0
   -2.2185   -4.1935   -0.2936 H   0  0  0  0  0  0  0  0  0  0  0  0
   -3.3828   -5.1246    0.7905 H   0  0  0  0  0  0  0  0  0  0  0  0
   -2.5554   -3.6060    1.4036 H   0  0  0  0  0  0  0  0  0  0  0  0
   -7.4919   -2.9486    0.2973 H   0  0  0  0  0  0  0  0  0  0  0  0
   -8.0902   -1.3564   -0.3279 H   0  0  0  0  0  0  0  0  0  0  0  0
   -6.7818   -1.4227    0.9319 H   0  0  0  0  0  0  0  0  0  0  0  0
  1  2  1  0
  2  3  1  0
  3  4  2  0
  4  5  1  0
  5  6  1  0
  6  7  1  0
  7  8  2  0
  8  9  1  0
  9 10  2  0
 10 11  1  0
 10 12  1  0
 12 13  1  0
 13 14  1  0
 14 15  2  0
 15 16  1  0
 16 17  2  0
 17 18  1  0
 18 19  1  0
 19 20  1  0
 19 21  1  0
 19 22  1  0
 22 23  2  0
 22 24  1  0
 24 25  1  0
 25 26  2  0
 12 27  2  0
  5 28  2  0
 28 29  1  0
 29 30  1  0
 30 31  1  0
 29 32  2  0
 32 33  1  0
 33 34  1  0
 32  3  1  0
 27  7  1  0
 26 14  1  0
 25 17  1  0
  1 35  1  0
  1 36  1  0
  1 37  1  0
  4 38  1  0
  6 39  1  0
  9 40  1  0
 13 41  1  0
 15 42  1  0
 16 43  1  0
 20 44  1  0
 20 45  1  0
 20 46  1  0
 21 47  1  0
 21 48  1  0
 21 49  1  0
 24 50  1  0
 28 51  1  0
 31 52  1  0
 31 53  1  0
 31 54  1  0
 34 55  1  0
 34 56  1  0
 34 57  1  0
M  END
$$$$
[H]c1c([H])c([H])c(C([H])([H])[C@@]2([H])C(=O)N3C([H])([H])C([H])([H])C([H])([H])[C@@]3([H])C(=O)N([H])[C@@]([H])(C([H])([H])c3c([H])n([H])c4c([H])c([H])c([H])c([H])c34)C(=O)N([H])[C@@]([H])(C([H])([H])c3c([H])c([H])c([H])c([H])c3[H])C(=O)N([H])[C@]([H])(C([H])([H])c3c([H])n([H])c4c([H])c([H])c([H])c([H])c34)C(=O)N([H])[C@@]([H])(C([H])([H])c3c([H])c([H])c([H])c([H])c3[H])C(=O)N([H])[C@@]([H])(C([H])(C([H])([H])[H])C([H])([H])[H])C(=O)N2[H])c([H])c1[H]
     RDKit          3D

138146  0  0  0  0  0  0  0  0999 V2000
    2.8507   -6.2762   -0.5333 C   0  0  0  0  0  0  0  0  0  0  0  0
    1.4412   -6.0966   -0.0485 C   0  0  0  0  0  0  0  0  0  0  0  0
    1.3090   -6.9646    1.2146 C   0  0  0  0  0  0  0  0  0  0  0  0
    1.2459   -4.6594    0.3673 C   0  0  2  0  0  0  0  0  0  0  0  0
   -0.0836   -4.3768    0.8540 N   0  0  0  0  0  0  0  0  0  0  0  0
   -1.3386   -4.2088    0.3110 C   0  0  0  0  0  0  0  0  0  0  0  0
   -2.1264   -5.2371    0.5105 O   0  0  0  0  0  0  0  0  0  0  0  0
   -2.0309   -3.1498   -0.4437 C   0  0  2  0  0  0  0  0  0  0  0  0
   -1.7710   -3.0938   -1.9216 C   0  0  0  0  0  0  0  0  0  0  0  0
   -2.2160   -4.3510   -2.6020 C   0  0  0  0  0  0  0  0  0  0  0  0
   -1.4664   -5.4482   -2.8362 C   0  0  0  0  0  0  0  0  0  0  0  0
   -1.9694   -6.5844   -3.4770 C   0  0  0  0  0  0  0  0  0  0  0  0
   -3.2577   -6.6336   -3.8985 C   0  0  0  0  0  0  0  0  0  0  0  0
   -4.0458   -5.5096   -3.6651 C   0  0  0  0  0  0  0  0  0  0  0  0
   -3.5462   -4.3939   -3.0344 C   0  0  0  0  0  0  0  0  0  0  0  0
   -2.0623   -1.8803    0.2422 N   0  0  0  0  0  0  0  0  0  0  0  0
   -2.8734   -0.7682    0.1714 C   0  0  0  0  0  0  0  0  0  0  0  0
   -3.4978   -0.3947    1.2458 O   0  0  0  0  0  0  0  0  0  0  0  0
   -3.1862    0.1400   -0.9520 C   0  0  1  0  0  0  0  0  0  0  0  0
   -4.4741   -0.1641   -1.6527 C   0  0  0  0  0  0  0  0  0  0  0  0
   -5.7374   -0.1122   -0.9530 C   0  0  0  0  0  0  0  0  0  0  0  0
   -6.5212    1.0322   -0.9200 C   0  0  0  0  0  0  0  0  0  0  0  0
   -7.5885    0.7714   -0.1812 N   0  0  0  0  0  0  0  0  0  0  0  0
   -7.5497   -0.5041    0.2798 C   0  0  0  0  0  0  0  0  0  0  0  0
   -8.4443   -1.2280    1.0632 C   0  0  0  0  0  0  0  0  0  0  0  0
   -8.1760   -2.5385    1.3693 C   0  0  0  0  0  0  0  0  0  0  0  0
   -6.9958   -3.0971    0.8716 C   0  0  0  0  0  0  0  0  0  0  0  0
   -6.1325   -2.3813    0.1110 C   0  0  0  0  0  0  0  0  0  0  0  0
   -6.3906   -1.0585   -0.2038 C   0  0  0  0  0  0  0  0  0  0  0  0
   -3.2082    1.5325   -0.4927 N   0  0  0  0  0  0  0  0  0  0  0  0
   -2.2627    2.5165   -0.3839 C   0  0  0  0  0  0  0  0  0  0  0  0
   -2.4719    3.5857   -1.1003 O   0  0  0  0  0  0  0  0  0  0  0  0
   -1.0182    2.5791    0.4272 C   0  0  2  0  0  0  0  0  0  0  0  0
   -1.3058    2.5064    1.9334 C   0  0  0  0  0  0  0  0  0  0  0  0
   -2.1780    3.5940    2.4231 C   0  0  0  0  0  0  0  0  0  0  0  0
   -1.6636    4.8052    2.8372 C   0  0  0  0  0  0  0  0  0  0  0  0
   -2.4896    5.8007    3.2988 C   0  0  0  0  0  0  0  0  0  0  0  0
   -3.8585    5.6258    3.3650 C   0  0  0  0  0  0  0  0  0  0  0  0
   -4.3865    4.4015    2.9476 C   0  0  0  0  0  0  0  0  0  0  0  0
   -3.5416    3.4131    2.4871 C   0  0  0  0  0  0  0  0  0  0  0  0
   -0.3454    3.8459    0.2400 N   0  0  0  0  0  0  0  0  0  0  0  0
    1.0200    4.1113    0.0496 C   0  0  0  0  0  0  0  0  0  0  0  0
    1.5282    4.9249    0.9129 O   0  0  0  0  0  0  0  0  0  0  0  0
    1.9253    3.6050   -0.9708 C   0  0  2  0  0  0  0  0  0  0  0  0
    1.9055    4.2956   -2.3110 C   0  0  0  0  0  0  0  0  0  0  0  0
    2.2802    5.7078   -2.3098 C   0  0  0  0  0  0  0  0  0  0  0  0
    3.5783    6.1640   -2.5563 C   0  0  0  0  0  0  0  0  0  0  0  0
    3.5888    7.4669   -2.4359 N   0  0  0  0  0  0  0  0  0  0  0  0
    2.3438    7.8798   -2.1201 C   0  0  0  0  0  0  0  0  0  0  0  0
    1.8092    9.1447   -1.8913 C   0  0  0  0  0  0  0  0  0  0  0  0
    0.4781    9.3243   -1.5893 C   0  0  0  0  0  0  0  0  0  0  0  0
   -0.3715    8.2455   -1.5051 C   0  0  0  0  0  0  0  0  0  0  0  0
    0.1597    6.9949   -1.7316 C   0  0  0  0  0  0  0  0  0  0  0  0
    1.5078    6.7941   -2.0369 C   0  0  0  0  0  0  0  0  0  0  0  0
    1.8908    2.1833   -1.2359 N   0  0  0  0  0  0  0  0  0  0  0  0
    3.0059    1.3239   -0.8929 C   0  0  0  0  0  0  0  0  0  0  0  0
    3.3935    0.4406   -1.7135 O   0  0  0  0  0  0  0  0  0  0  0  0
    3.6545    1.4928    0.3687 C   0  0  2  0  0  0  0  0  0  0  0  0
    5.1519    1.8037    0.2463 C   0  0  0  0  0  0  0  0  0  0  0  0
    5.4728    1.9312    1.7135 C   0  0  0  0  0  0  0  0  0  0  0  0
    4.3497    1.2881    2.4703 C   0  0  0  0  0  0  0  0  0  0  0  0
    3.6506    0.5049    1.4006 N   0  0  0  0  0  0  0  0  0  0  0  0
    3.1080   -0.7944    1.4594 C   0  0  0  0  0  0  0  0  0  0  0  0
    2.2131   -0.9262    2.4281 O   0  0  0  0  0  0  0  0  0  0  0  0
    3.2669   -2.0409    0.7358 C   0  0  2  0  0  0  0  0  0  0  0  0
    4.6070   -2.4403    0.2217 C   0  0  0  0  0  0  0  0  0  0  0  0
    5.6445   -2.6641    1.2328 C   0  0  0  0  0  0  0  0  0  0  0  0
    5.6432   -3.9010    1.8865 C   0  0  0  0  0  0  0  0  0  0  0  0
    6.6066   -4.2072    2.8133 C   0  0  0  0  0  0  0  0  0  0  0  0
    7.5768   -3.2793    3.0936 C   0  0  0  0  0  0  0  0  0  0  0  0
    7.5997   -2.0562    2.4650 C   0  0  0  0  0  0  0  0  0  0  0  0
    6.6070   -1.7550    1.5162 C   0  0  0  0  0  0  0  0  0  0  0  0
    2.2106   -2.3907   -0.1932 N   0  0  0  0  0  0  0  0  0  0  0  0
    1.7954   -3.6717   -0.5708 C   0  0  0  0  0  0  0  0  0  0  0  0
    1.8875   -4.0314   -1.7980 O   0  0  0  0  0  0  0  0  0  0  0  0
    2.8989   -6.3629   -1.6532 H   0  0  0  0  0  0  0  0  0  0  0  0
    3.2700   -7.2790   -0.1948 H   0  0  0  0  0  0  0  0  0  0  0  0
    3.5702   -5.5490   -0.1172 H   0  0  0  0  0  0  0  0  0  0  0  0
    0.7411   -6.4932   -0.7643 H   0  0  0  0  0  0  0  0  0  0  0  0
    1.0128   -7.9967    0.9377 H   0  0  0  0  0  0  0  0  0  0  0  0
    2.2970   -7.0349    1.7118 H   0  0  0  0  0  0  0  0  0  0  0  0
    0.6012   -6.4978    1.9252 H   0  0  0  0  0  0  0  0  0  0  0  0
    2.0009   -4.5968    1.2339 H   0  0  0  0  0  0  0  0  0  0  0  0
   -0.0507   -4.3028    1.9512 H   0  0  0  0  0  0  0  0  0  0  0  0
   -3.1292   -3.5561   -0.4703 H   0  0  0  0  0  0  0  0  0  0  0  0
   -0.7147   -2.9589   -2.2027 H   0  0  0  0  0  0  0  0  0  0  0  0
   -2.2908   -2.2787   -2.4317 H   0  0  0  0  0  0  0  0  0  0  0  0
   -0.4409   -5.4443   -2.5200 H   0  0  0  0  0  0  0  0  0  0  0  0
   -1.2845   -7.4037   -3.6125 H   0  0  0  0  0  0  0  0  0  0  0  0
   -3.6303   -7.5202   -4.3901 H   0  0  0  0  0  0  0  0  0  0  0  0
   -5.0706   -5.5588   -4.0045 H   0  0  0  0  0  0  0  0  0  0  0  0
   -4.2171   -3.5546   -2.8876 H   0  0  0  0  0  0  0  0  0  0  0  0
   -1.2677   -1.8057    0.9770 H   0  0  0  0  0  0  0  0  0  0  0  0
   -2.3917    0.0884   -1.7445 H   0  0  0  0  0  0  0  0  0  0  0  0
   -4.4983    0.4518   -2.6184 H   0  0  0  0  0  0  0  0  0  0  0  0
   -4.3328   -1.2133   -2.0816 H   0  0  0  0  0  0  0  0  0  0  0  0
   -6.3301    1.9916   -1.3986 H   0  0  0  0  0  0  0  0  0  0  0  0
   -8.3704    1.4436    0.0328 H   0  0  0  0  0  0  0  0  0  0  0  0
   -9.3488   -0.7109    1.4147 H   0  0  0  0  0  0  0  0  0  0  0  0
   -8.8605   -3.1073    1.9745 H   0  0  0  0  0  0  0  0  0  0  0  0
   -6.8493   -4.1399    1.1526 H   0  0  0  0  0  0  0  0  0  0  0  0
   -5.2416   -2.8262   -0.2688 H   0  0  0  0  0  0  0  0  0  0  0  0
   -4.2109    1.7980   -0.1712 H   0  0  0  0  0  0  0  0  0  0  0  0
   -0.3628    1.7059    0.2210 H   0  0  0  0  0  0  0  0  0  0  0  0
   -1.7024    1.5551    2.2615 H   0  0  0  0  0  0  0  0  0  0  0  0
   -0.2774    2.6211    2.3997 H   0  0  0  0  0  0  0  0  0  0  0  0
   -0.6065    5.0144    2.8212 H   0  0  0  0  0  0  0  0  0  0  0  0
   -2.1013    6.7525    3.6277 H   0  0  0  0  0  0  0  0  0  0  0  0
   -4.5402    6.3826    3.7217 H   0  0  0  0  0  0  0  0  0  0  0  0
   -5.4590    4.2124    2.9786 H   0  0  0  0  0  0  0  0  0  0  0  0
   -4.0243    2.4642    2.1853 H   0  0  0  0  0  0  0  0  0  0  0  0
   -1.0447    4.6631    0.2584 H   0  0  0  0  0  0  0  0  0  0  0  0
    2.9987    3.8656   -0.5964 H   0  0  0  0  0  0  0  0  0  0  0  0
    0.8656    4.2125   -2.7373 H   0  0  0  0  0  0  0  0  0  0  0  0
    2.5742    3.6990   -2.9756 H   0  0  0  0  0  0  0  0  0  0  0  0
    4.4297    5.5301   -2.8054 H   0  0  0  0  0  0  0  0  0  0  0  0
    4.4123    8.1400   -2.5560 H   0  0  0  0  0  0  0  0  0  0  0  0
    2.4970   10.0024   -1.9621 H   0  0  0  0  0  0  0  0  0  0  0  0
    0.1052   10.3435   -1.4125 H   0  0  0  0  0  0  0  0  0  0  0  0
   -1.4088    8.4005   -1.2672 H   0  0  0  0  0  0  0  0  0  0  0  0
   -0.5084    6.1518   -1.6834 H   0  0  0  0  0  0  0  0  0  0  0  0
    1.0666    1.7742   -1.6903 H   0  0  0  0  0  0  0  0  0  0  0  0
    3.2872    2.4774    0.8665 H   0  0  0  0  0  0  0  0  0  0  0  0
    5.7154    0.9773   -0.1777 H   0  0  0  0  0  0  0  0  0  0  0  0
    5.3142    2.7748   -0.2567 H   0  0  0  0  0  0  0  0  0  0  0  0
    5.4887    3.0157    2.0281 H   0  0  0  0  0  0  0  0  0  0  0  0
    6.4548    1.4849    1.9696 H   0  0  0  0  0  0  0  0  0  0  0  0
    3.5869    2.0465    2.8059 H   0  0  0  0  0  0  0  0  0  0  0  0
    4.6361    0.7291    3.3354 H   0  0  0  0  0  0  0  0  0  0  0  0
    3.1145   -2.9254    1.5321 H   0  0  0  0  0  0  0  0  0  0  0  0
    4.9671   -1.7521   -0.5946 H   0  0  0  0  0  0  0  0  0  0  0  0
    4.4627   -3.4082   -0.3201 H   0  0  0  0  0  0  0  0  0  0  0  0
    4.8735   -4.6303    1.6622 H   0  0  0  0  0  0  0  0  0  0  0  0
    6.5553   -5.1782    3.2854 H   0  0  0  0  0  0  0  0  0  0  0  0
    8.3368   -3.5205    3.8255 H   0  0  0  0  0  0  0  0  0  0  0  0
    8.3394   -1.2906    2.6478 H   0  0  0  0  0  0  0  0  0  0  0  0
    6.6550   -0.8086    1.0301 H   0  0  0  0  0  0  0  0  0  0  0  0
    1.7136   -1.5727   -0.6307 H   0  0  0  0  0  0  0  0  0  0  0  0
  1  2  1  0
  2  3  1  0
  2  4  1  0
  4  5  1  0
  5  6  1  0
  6  7  2  0
  6  8  1  0
  8  9  1  0
  9 10  1  0
 10 11  2  0
 11 12  1  0
 12 13  2  0
 13 14  1  0
 14 15  2  0
  8 16  1  0
 16 17  1  0
 17 18  2  0
 17 19  1  0
 19 20  1  0
 20 21  1  0
 21 22  2  0
 22 23  1  0
 23 24  1  0
 24 25  2  0
 25 26  1  0
 26 27  2  0
 27 28  1  0
 28 29  2  0
 19 30  1  0
 30 31  1  0
 31 32  2  0
 31 33  1  0
 33 34  1  0
 34 35  1  0
 35 36  2  0
 36 37  1  0
 37 38  2  0
 38 39  1  0
 39 40  2  0
 33 41  1  0
 41 42  1  0
 42 43  2  0
 42 44  1  0
 44 45  1  0
 45 46  1  0
 46 47  2  0
 47 48  1  0
 48 49  1  0
 49 50  2  0
 50 51  1  0
 51 52  2  0
 52 53  1  0
 53 54  2  0
 44 55  1  0
 55 56  1  0
 56 57  2  0
 56 58  1  0
 58 59  1  0
 59 60  1  0
 60 61  1  0
 61 62  1  0
 62 63  1  0
 63 64  2  0
 63 65  1  0
 65 66  1  0
 66 67  1  0
 67 68  2  0
 68 69  1  0
 69 70  2  0
 70 71  1  0
 71 72  2  0
 65 73  1  0
 73 74  1  0
 74 75  2  0
 74  4  1  0
 15 10  1  0
 29 21  1  0
 40 35  1  0
 54 46  1  0
 62 58  1  0
 72 67  1  0
 29 24  1  0
 54 49  1  0
  1 76  1  0
  1 77  1  0
  1 78  1  0
  2 79  1  0
  3 80  1  0
  3 81  1  0
  3 82  1  0
  4 83  1  1
  5 84  1  0
  8 85  1  6
  9 86  1  0
  9 87  1  0
 11 88  1  0
 12 89  1  0
 13 90  1  0
 14 91  1  0
 15 92  1  0
 16 93  1  0
 19 94  1  6
 20 95  1  0
 20 96  1  0
 22 97  1  0
 23 98  1  0
 25 99  1  0
 26100  1  0
 27101  1  0
 28102  1  0
 30103  1  0
 33104  1  6
 34105  1  0
 34106  1  0
 36107  1  0
 37108  1  0
 38109  1  0
 39110  1  0
 40111  1  0
 41112  1  0
 44113  1  1
 45114  1  0
 45115  1  0
 47116  1  0
 48117  1  0
 50118  1  0
 51119  1  0
 52120  1  0
 53121  1  0
 55122  1  0
 58123  1  1
 59124  1  0
 59125  1  0
 60126  1  0
 60127  1  0
 61128  1  0
 61129  1  0
 65130  1  1
 66131  1  0
 66132  1  0
 68133  1  0
 69134  1  0
 70135  1  0
 71136  1  0
 72137  1  0
 73138  1  0
M  END
$$$$
[H]Oc1c([H])c([H])c(C([H])([H])[C@@]2([H])C(=O)N([H])[C@]([H])(C([H])([H])c3c([H])n([H])c4c([H])c([H])c([H])c([H])c34)C(=O)N([H])[C@@]([H])(C([H])([H])c3c([H])c([H])c([H])c([H])c3[H])C(=O)N([H])[C@@]([H])(C([H])(C([H])([H])[H])C([H])([H])[H])C(=O)N([H])[C@@]([H])(C([H])([H])c3c([H])c([H])c([H])c([H])c3[H])C(=O)N([H])[C@@]([H])(C([H])([H])c3c([H])nc([H])n3[H])C(=O)N3C([H])([H])C([H])([H])C([H])([H])[C@@]3([H])C(=O)N2[H])c([H])c1[H]
     RDKit          3D

132139  0  0  0  0  0  0  0  0999 V2000
    3.6985   -5.6500   -2.1919 C   0  0  0  0  0  0  0  0  0  0  0  0
    2.3929   -4.9446   -2.1361 C   0  0  0  0  0  0  0  0  0  0  0  0
    1.1988   -5.7922   -2.3964 C   0  0  0  0  0  0  0  0  0  0  0  0
    2.2295   -4.0324   -0.8986 C   0  0  2  0  0  0  0  0  0  0  0  0
    0.9186   -3.4782   -1.0314 N   0  0  0  0  0  0  0  0  0  0  0  0
   -0.1947   -3.6408   -0.1674 C   0  0  0  0  0  0  0  0  0  0  0  0
   -1.2324   -4.1690   -0.7317 O   0  0  0  0  0  0  0  0  0  0  0  0
   -0.3240   -3.3009    1.2349 C   0  0  2  0  0  0  0  0  0  0  0  0
   -0.1697   -4.5001    2.1632 C   0  0  0  0  0  0  0  0  0  0  0  0
   -1.1402   -5.5616    1.9718 C   0  0  0  0  0  0  0  0  0  0  0  0
   -2.3416   -5.5141    2.6865 C   0  0  0  0  0  0  0  0  0  0  0  0
   -3.3101   -6.5001    2.5572 C   0  0  0  0  0  0  0  0  0  0  0  0
   -3.1181   -7.5675    1.7130 C   0  0  0  0  0  0  0  0  0  0  0  0
   -1.9350   -7.6363    0.9937 C   0  0  0  0  0  0  0  0  0  0  0  0
   -0.9896   -6.6463    1.1392 C   0  0  0  0  0  0  0  0  0  0  0  0
   -1.4838   -2.5352    1.6080 N   0  0  0  0  0  0  0  0  0  0  0  0
   -2.3621   -1.7377    0.8816 C   0  0  0  0  0  0  0  0  0  0  0  0
   -3.6083   -2.0542    0.8934 O   0  0  0  0  0  0  0  0  0  0  0  0
   -2.0853   -0.5283    0.0637 C   0  0  1  0  0  0  0  0  0  0  0  0
   -2.3600   -0.7345   -1.3924 C   0  0  0  0  0  0  0  0  0  0  0  0
   -3.7175   -1.0729   -1.8159 C   0  0  0  0  0  0  0  0  0  0  0  0
   -4.2064   -2.3696   -2.0354 C   0  0  0  0  0  0  0  0  0  0  0  0
   -5.4982   -2.3199   -2.3954 N   0  0  0  0  0  0  0  0  0  0  0  0
   -5.9131   -1.0436   -2.4324 C   0  0  0  0  0  0  0  0  0  0  0  0
   -7.1471   -0.5048   -2.7651 C   0  0  0  0  0  0  0  0  0  0  0  0
   -7.2965    0.8473   -2.7441 C   0  0  0  0  0  0  0  0  0  0  0  0
   -6.2216    1.6563   -2.3936 C   0  0  0  0  0  0  0  0  0  0  0  0
   -5.0075    1.0964   -2.0675 C   0  0  0  0  0  0  0  0  0  0  0  0
   -4.8229   -0.2624   -2.0771 C   0  0  0  0  0  0  0  0  0  0  0  0
   -2.8265    0.6152    0.6115 N   0  0  0  0  0  0  0  0  0  0  0  0
   -2.3320    1.8561    0.9910 C   0  0  0  0  0  0  0  0  0  0  0  0
   -2.9327    2.8823    0.5059 O   0  0  0  0  0  0  0  0  0  0  0  0
   -1.1934    2.1763    1.8922 C   0  0  2  0  0  0  0  0  0  0  0  0
   -1.5599    2.7835    3.1934 C   0  0  0  0  0  0  0  0  0  0  0  0
   -2.2798    4.0458    3.2424 C   0  0  0  0  0  0  0  0  0  0  0  0
   -3.6473    4.0670    3.1871 C   0  0  0  0  0  0  0  0  0  0  0  0
   -4.3156    5.2675    3.2592 C   0  0  0  0  0  0  0  0  0  0  0  0
   -3.6857    6.4846    3.3869 C   0  0  0  0  0  0  0  0  0  0  0  0
   -4.3596    7.6966    3.4592 O   0  0  0  0  0  0  0  0  0  0  0  0
   -2.3005    6.4181    3.4396 C   0  0  0  0  0  0  0  0  0  0  0  0
   -1.6121    5.2285    3.3693 C   0  0  0  0  0  0  0  0  0  0  0  0
    0.0075    2.5710    1.2296 N   0  0  0  0  0  0  0  0  0  0  0  0
    0.7933    3.7005    1.0759 C   0  0  0  0  0  0  0  0  0  0  0  0
    1.7917    3.8198    1.9366 O   0  0  0  0  0  0  0  0  0  0  0  0
    0.8108    4.8328    0.1771 C   0  0  2  0  0  0  0  0  0  0  0  0
   -0.4906    5.3534   -0.3589 C   0  0  0  0  0  0  0  0  0  0  0  0
   -0.0246    6.3528   -1.4043 C   0  0  0  0  0  0  0  0  0  0  0  0
    1.4686    6.1161   -1.5157 C   0  0  0  0  0  0  0  0  0  0  0  0
    1.5400    4.7080   -1.0681 N   0  0  0  0  0  0  0  0  0  0  0  0
    2.1138    3.6151   -1.7034 C   0  0  0  0  0  0  0  0  0  0  0  0
    1.7408    3.3535   -2.9201 O   0  0  0  0  0  0  0  0  0  0  0  0
    3.1261    2.6396   -1.2274 C   0  0  2  0  0  0  0  0  0  0  0  0
    4.4997    3.2224   -1.5928 C   0  0  0  0  0  0  0  0  0  0  0  0
    4.7288    3.4515   -2.9977 C   0  0  0  0  0  0  0  0  0  0  0  0
    4.4468    4.5983   -3.7030 C   0  0  0  0  0  0  0  0  0  0  0  0
    4.8153    4.4338   -4.9870 N   0  0  0  0  0  0  0  0  0  0  0  0
    5.3283    3.1868   -5.0939 C   0  0  0  0  0  0  0  0  0  0  0  0
    5.2709    2.6018   -3.8834 N   0  0  0  0  0  0  0  0  0  0  0  0
    2.9139    1.3691   -1.8711 N   0  0  0  0  0  0  0  0  0  0  0  0
    2.2160    0.2396   -1.4422 C   0  0  0  0  0  0  0  0  0  0  0  0
    1.1367   -0.0926   -2.0631 O   0  0  0  0  0  0  0  0  0  0  0  0
    2.5666   -0.6868   -0.3046 C   0  0  2  0  0  0  0  0  0  0  0  0
    3.2872    0.0573    0.7783 C   0  0  0  0  0  0  0  0  0  0  0  0
    3.6630   -0.8108    1.9023 C   0  0  0  0  0  0  0  0  0  0  0  0
    2.7843   -1.0279    2.9404 C   0  0  0  0  0  0  0  0  0  0  0  0
    3.1189   -1.8126    4.0194 C   0  0  0  0  0  0  0  0  0  0  0  0
    4.3543   -2.4111    4.0967 C   0  0  0  0  0  0  0  0  0  0  0  0
    5.2557   -2.2104    3.0693 C   0  0  0  0  0  0  0  0  0  0  0  0
    4.8899   -1.4209    2.0055 C   0  0  0  0  0  0  0  0  0  0  0  0
    3.4041   -1.7006   -0.8793 N   0  0  0  0  0  0  0  0  0  0  0  0
    3.3508   -3.0796   -0.8317 C   0  0  0  0  0  0  0  0  0  0  0  0
    4.5153   -3.6587   -0.7040 O   0  0  0  0  0  0  0  0  0  0  0  0
    4.0525   -5.9808   -1.1961 H   0  0  0  0  0  0  0  0  0  0  0  0
    4.5246   -5.0689   -2.6688 H   0  0  0  0  0  0  0  0  0  0  0  0
    3.5587   -6.5311   -2.8741 H   0  0  0  0  0  0  0  0  0  0  0  0
    2.4141   -4.1883   -2.9857 H   0  0  0  0  0  0  0  0  0  0  0  0
    1.5158   -6.5238   -3.2010 H   0  0  0  0  0  0  0  0  0  0  0  0
    0.8491   -6.4098   -1.5768 H   0  0  0  0  0  0  0  0  0  0  0  0
    0.4121   -5.1835   -2.8868 H   0  0  0  0  0  0  0  0  0  0  0  0
    2.3532   -4.7190   -0.0308 H   0  0  0  0  0  0  0  0  0  0  0  0
    0.7704   -2.8913   -1.9108 H   0  0  0  0  0  0  0  0  0  0  0  0
    0.5529   -2.6576    1.5179 H   0  0  0  0  0  0  0  0  0  0  0  0
   -0.2178   -4.1220    3.2072 H   0  0  0  0  0  0  0  0  0  0  0  0
    0.8558   -4.9449    2.0492 H   0  0  0  0  0  0  0  0  0  0  0  0
   -2.5568   -4.7169    3.3601 H   0  0  0  0  0  0  0  0  0  0  0  0
   -4.2390   -6.4552    3.1155 H   0  0  0  0  0  0  0  0  0  0  0  0
   -3.8749   -8.3429    1.6088 H   0  0  0  0  0  0  0  0  0  0  0  0
   -1.8379   -8.4975    0.3476 H   0  0  0  0  0  0  0  0  0  0  0  0
   -0.0782   -6.7318    0.5708 H   0  0  0  0  0  0  0  0  0  0  0  0
   -1.7058   -2.6059    2.6631 H   0  0  0  0  0  0  0  0  0  0  0  0
   -0.9808   -0.3244    0.1279 H   0  0  0  0  0  0  0  0  0  0  0  0
   -2.1044    0.2340   -1.9403 H   0  0  0  0  0  0  0  0  0  0  0  0
   -1.6906   -1.5355   -1.8324 H   0  0  0  0  0  0  0  0  0  0  0  0
   -3.6904   -3.3130   -1.9506 H   0  0  0  0  0  0  0  0  0  0  0  0
   -6.1296   -3.1411   -2.6250 H   0  0  0  0  0  0  0  0  0  0  0  0
   -8.0003   -1.1152   -3.0432 H   0  0  0  0  0  0  0  0  0  0  0  0
   -8.2110    1.3594   -2.9858 H   0  0  0  0  0  0  0  0  0  0  0  0
   -6.3226    2.7389   -2.3726 H   0  0  0  0  0  0  0  0  0  0  0  0
   -4.1615    1.7126   -1.8084 H   0  0  0  0  0  0  0  0  0  0  0  0
   -3.8760    0.4350    0.7189 H   0  0  0  0  0  0  0  0  0  0  0  0
   -0.9094    1.0815    2.2668 H   0  0  0  0  0  0  0  0  0  0  0  0
   -2.1789    2.0744    3.8321 H   0  0  0  0  0  0  0  0  0  0  0  0
   -0.6023    2.8147    3.8110 H   0  0  0  0  0  0  0  0  0  0  0  0
   -4.2353    3.1349    3.0843 H   0  0  0  0  0  0  0  0  0  0  0  0
   -5.4047    5.3030    3.2156 H   0  0  0  0  0  0  0  0  0  0  0  0
   -4.5422    8.1705    2.5701 H   0  0  0  0  0  0  0  0  0  0  0  0
   -1.7562    7.3658    3.5408 H   0  0  0  0  0  0  0  0  0  0  0  0
   -0.5065    5.2728    3.4256 H   0  0  0  0  0  0  0  0  0  0  0  0
    0.4450    1.7053    0.6937 H   0  0  0  0  0  0  0  0  0  0  0  0
    1.2779    5.7435    0.6875 H   0  0  0  0  0  0  0  0  0  0  0  0
   -1.0093    4.5011   -0.8384 H   0  0  0  0  0  0  0  0  0  0  0  0
   -1.1147    5.8248    0.4082 H   0  0  0  0  0  0  0  0  0  0  0  0
   -0.2855    7.3793   -1.1496 H   0  0  0  0  0  0  0  0  0  0  0  0
   -0.4949    6.0530   -2.3738 H   0  0  0  0  0  0  0  0  0  0  0  0
    1.7402    6.2870   -2.5439 H   0  0  0  0  0  0  0  0  0  0  0  0
    1.9682    6.7641   -0.7672 H   0  0  0  0  0  0  0  0  0  0  0  0
    3.1763    2.5713   -0.1314 H   0  0  0  0  0  0  0  0  0  0  0  0
    5.2449    2.4890   -1.1633 H   0  0  0  0  0  0  0  0  0  0  0  0
    4.6095    4.1322   -0.9523 H   0  0  0  0  0  0  0  0  0  0  0  0
    3.9924    5.5148   -3.3019 H   0  0  0  0  0  0  0  0  0  0  0  0
    5.7304    2.6781   -5.9527 H   0  0  0  0  0  0  0  0  0  0  0  0
    5.5923    1.6265   -3.6271 H   0  0  0  0  0  0  0  0  0  0  0  0
    3.3511    1.3039   -2.8467 H   0  0  0  0  0  0  0  0  0  0  0  0
    1.6179   -1.1019    0.1069 H   0  0  0  0  0  0  0  0  0  0  0  0
    4.2149    0.4808    0.3533 H   0  0  0  0  0  0  0  0  0  0  0  0
    2.6152    0.8409    1.2424 H   0  0  0  0  0  0  0  0  0  0  0  0
    1.7889   -0.5649    2.9122 H   0  0  0  0  0  0  0  0  0  0  0  0
    2.4246   -1.9734    4.8245 H   0  0  0  0  0  0  0  0  0  0  0  0
    4.6534   -3.0396    4.9397 H   0  0  0  0  0  0  0  0  0  0  0  0
    6.2249   -2.6797    3.1287 H   0  0  0  0  0  0  0  0  0  0  0  0
    5.6371   -1.2881    1.2101 H   0  0  0  0  0  0  0  0  0  0  0  0
    4.2229   -1.2811   -1.4538 H   0  0  0  0  0  0  0  0  0  0  0  0
  1  2  1  0
  2  3  1  0
  2  4  1  0
  4  5  1  0
  5  6  1  0
  6  7  2  0
  6  8  1  0
  8  9  1  0
  9 10  1  0
 10 11  2  0
 11 12  1  0
 12 13  2  0
 13 14  1  0
 14 15  2  0
  8 16  1  0
 16 17  1  0
 17 18  2  0
 17 19  1  0
 19 20  1  0
 20 21  1  0
 21 22  2  0
 22 23  1  0
 23 24  1  0
 24 25  2  0
 25 26  1  0
 26 27  2  0
 27 28  1  0
 28 29  2  0
 19 30  1  0
 30 31  1  0
 31 32  2  0
 31 33  1  0
 33 34  1  0
 34 35  1  0
 35 36  2  0
 36 37  1  0
 37 38  2  0
 38 39  1  0
 38 40  1  0
 40 41  2  0
 33 42  1  0
 42 43  1  0
 43 44  2  0
 43 45  1  0
 45 46  1  0
 46 47  1  0
 47 48  1  0
 48 49  1  0
 49 50  1  0
 50 51  2  0
 50 52  1  0
 52 53  1  0
 53 54  1  0
 54 55  2  0
 55 56  1  0
 56 57  2  0
 57 58  1  0
 52 59  1  0
 59 60  1  0
 60 61  2  0
 60 62  1  0
 62 63  1  0
 63 64  1  0
 64 65  2  0
 65 66  1  0
 66 67  2  0
 67 68  1  0
 68 69  2  0
 62 70  1  0
 70 71  1  0
 71 72  2  0
 71  4  1  0
 15 10  1  0
 29 21  1  0
 41 35  1  0
 49 45  1  0
 58 54  1  0
 69 64  1  0
 29 24  1  0
  1 73  1  0
  1 74  1  0
  1 75  1  0
  2 76  1  0
  3 77  1  0
  3 78  1  0
  3 79  1  0
  4 80  1  1
  5 81  1  0
  8 82  1  1
  9 83  1  0
  9 84  1  0
 11 85  1  0
 12 86  1  0
 13 87  1  0
 14 88  1  0
 15 89  1  0
 16 90  1  0
 19 91  1  6
 20 92  1  0
 20 93  1  0
 22 94  1  0
 23 95  1  0
 25 96  1  0
 26 97  1  0
 27 98  1  0
 28 99  1  0
 30100  1  0
 33101  1  1
 34102  1  0
 34103  1  0
 36104  1  0
 37105  1  0
 39106  1  0
 40107  1  0
 41108  1  0
 42109  1  0
 45110  1  1
 46111  1  0
 46112  1  0
 47113  1  0
 47114  1  0
 48115  1  0
 48116  1  0
 52117  1  1
 53118  1  0
 53119  1  0
 55120  1  0
 57121  1  0
 58122  1  0
 59123  1  0
 62124  1  1
 63125  1  0
 63126  1  0
 65127  1  0
 66128  1  0
 67129  1  0
 68130  1  0
 69131  1  0
 70132  1  0
M  END
$$$$
[H]C1=C2C([H])([H])C([H])([H])C3([H])C4([H])C([H])([H])C([H])([H])[C@]([H])(c5c([H])nc([H])c([H])c5[H])[C@@]4(C([H])([H])[H])C([H])([H])C([H])([H])C3([H])[C@@]2(C([H])([H])[H])C([H])([H])C([H])([H])C1=O
     RDKit          3D

 57 61  0  0  0  0  0  0  0  0999 V2000
    1.5309   -0.9238    1.6387 C   0  0  0  0  0  0  0  0  0  0  0  0
    1.4862   -0.1040    0.3994 C   0  0  2  0  0  0  0  0  0  0  0  0
    0.8566    1.2335    0.5417 C   0  0  0  0  0  0  0  0  0  0  0  0
   -0.5517    1.0874    1.0753 C   0  0  0  0  0  0  0  0  0  0  0  0
   -1.3608    0.3766    0.0420 C   0  0  0  0  0  0  0  0  0  0  0  0
   -0.7939   -1.0067   -0.1654 C   0  0  0  0  0  0  0  0  0  0  0  0
   -1.5300   -1.7208   -1.3081 C   0  0  0  0  0  0  0  0  0  0  0  0
   -3.0086   -1.6504   -1.1724 C   0  0  0  0  0  0  0  0  0  0  0  0
   -3.5091   -0.2991   -0.7819 C   0  0  0  0  0  0  0  0  0  0  0  0
   -4.4958    0.2737   -1.4117 C   0  0  0  0  0  0  0  0  0  0  0  0
   -4.9886    1.5835   -1.0409 C   0  0  0  0  0  0  0  0  0  0  0  0
   -5.5979    2.3281   -1.8336 O   0  0  0  0  0  0  0  0  0  0  0  0
   -4.7330    2.0214    0.3649 C   0  0  0  0  0  0  0  0  0  0  0  0
   -3.2591    1.7654    0.6093 C   0  0  0  0  0  0  0  0  0  0  0  0
   -2.8385    0.3608    0.3498 C   0  0  2  0  0  0  0  0  0  0  0  0
   -3.1452   -0.4447    1.5938 C   0  0  0  0  0  0  0  0  0  0  0  0
    0.6053   -0.8751   -0.6013 C   0  0  0  0  0  0  0  0  0  0  0  0
    1.3945   -2.0939   -0.8371 C   0  0  0  0  0  0  0  0  0  0  0  0
    2.8444   -1.5899   -0.7676 C   0  0  0  0  0  0  0  0  0  0  0  0
    2.7349   -0.1203   -0.4209 C   0  0  2  0  0  0  0  0  0  0  0  0
    3.9573    0.3744    0.1180 C   0  0  0  0  0  0  0  0  0  0  0  0
    4.6261   -0.1241    1.2021 C   0  0  0  0  0  0  0  0  0  0  0  0
    5.8239    0.4441    1.6528 C   0  0  0  0  0  0  0  0  0  0  0  0
    6.3655    1.5337    1.0065 C   0  0  0  0  0  0  0  0  0  0  0  0
    5.7059    2.0209   -0.0583 N   0  0  0  0  0  0  0  0  0  0  0  0
    4.5555    1.4820   -0.4980 C   0  0  0  0  0  0  0  0  0  0  0  0
    2.0373   -1.8842    1.4102 H   0  0  0  0  0  0  0  0  0  0  0  0
    2.0245   -0.3944    2.4950 H   0  0  0  0  0  0  0  0  0  0  0  0
    0.5344   -1.2117    2.0272 H   0  0  0  0  0  0  0  0  0  0  0  0
    1.4470    1.9727    1.1060 H   0  0  0  0  0  0  0  0  0  0  0  0
    0.7447    1.6628   -0.4905 H   0  0  0  0  0  0  0  0  0  0  0  0
   -0.9891    2.0847    1.3165 H   0  0  0  0  0  0  0  0  0  0  0  0
   -0.5871    0.4761    2.0174 H   0  0  0  0  0  0  0  0  0  0  0  0
   -1.2454    0.9218   -0.9233 H   0  0  0  0  0  0  0  0  0  0  0  0
   -0.9796   -1.6067    0.7254 H   0  0  0  0  0  0  0  0  0  0  0  0
   -1.2285   -2.8015   -1.2042 H   0  0  0  0  0  0  0  0  0  0  0  0
   -1.1459   -1.3986   -2.2938 H   0  0  0  0  0  0  0  0  0  0  0  0
   -3.3673   -2.4323   -0.4699 H   0  0  0  0  0  0  0  0  0  0  0  0
   -3.4565   -1.8970   -2.1563 H   0  0  0  0  0  0  0  0  0  0  0  0
   -4.9730   -0.2472   -2.2505 H   0  0  0  0  0  0  0  0  0  0  0  0
   -4.9064    3.0963    0.4659 H   0  0  0  0  0  0  0  0  0  0  0  0
   -5.3891    1.4946    1.0584 H   0  0  0  0  0  0  0  0  0  0  0  0
   -2.9937    2.0086    1.6666 H   0  0  0  0  0  0  0  0  0  0  0  0
   -2.7051    2.4814   -0.0318 H   0  0  0  0  0  0  0  0  0  0  0  0
   -2.2749   -0.6497    2.2168 H   0  0  0  0  0  0  0  0  0  0  0  0
   -3.5824   -1.4521    1.3288 H   0  0  0  0  0  0  0  0  0  0  0  0
   -3.9399    0.0586    2.1820 H   0  0  0  0  0  0  0  0  0  0  0  0
    0.6267   -0.2540   -1.5260 H   0  0  0  0  0  0  0  0  0  0  0  0
    1.2483   -2.5021   -1.8654 H   0  0  0  0  0  0  0  0  0  0  0  0
    1.2731   -2.9244   -0.1467 H   0  0  0  0  0  0  0  0  0  0  0  0
    3.4370   -2.1595   -0.0446 H   0  0  0  0  0  0  0  0  0  0  0  0
    3.3507   -1.7058   -1.7625 H   0  0  0  0  0  0  0  0  0  0  0  0
    2.4663    0.3855   -1.3899 H   0  0  0  0  0  0  0  0  0  0  0  0
    4.2023   -0.9695    1.6950 H   0  0  0  0  0  0  0  0  0  0  0  0
    6.2988   -0.0089    2.5239 H   0  0  0  0  0  0  0  0  0  0  0  0
    7.3007    1.9751    1.3607 H   0  0  0  0  0  0  0  0  0  0  0  0
    4.0978    1.9482   -1.3678 H   0  0  0  0  0  0  0  0  0  0  0  0
  2  1  1  1
  2  3  1  0
  3  4  1  0
  4  5  1  0
  5  6  1  0
  6  7  1  0
  7  8  1  0
  8  9  1  0
  9 10  2  0
 10 11  1  0
 11 12  2  0
 11 13  1  0
 13 14  1  0
 14 15  1  0
 15 16  1  1
  6 17  1  0
 17 18  1  0
 18 19  1  0
 19 20  1  0
 20 21  1  0
 21 22  2  0
 22 23  1  0
 23 24  2  0
 24 25  1  0
 25 26  2  0
 17  2  1  0
 26 21  1  0
 20  2  1  0
 15  5  1  0
 15  9  1  0
  1 27  1  0
  1 28  1  0
  1 29  1  0
  3 30  1  0
  3 31  1  0
  4 32  1  0
  4 33  1  0
  5 34  1  0
  6 35  1  0
  7 36  1  0
  7 37  1  0
  8 38  1  0
  8 39  1  0
 10 40  1  0
 13 41  1  0
 13 42  1  0
 14 43  1  0
 14 44  1  0
 16 45  1  0
 16 46  1  0
 16 47  1  0
 17 48  1  0
 18 49  1  0
 18 50  1  0
 19 51  1  0
 19 52  1  0
 20 53  1  6
 22 54  1  0
 23 55  1  0
 24 56  1  0
 26 57  1  0
M  END
$$$$
[H]c1c([H])c([H])c(C([H])([H])[C@@]([H])(C(=O)N([H])[C@]([H])(C(=O)N([H])C([H])([H])C(=O)N([H])[C@]([H])(C(=O)N([H])[C@]([H])(C(=O)N([H])[C@]([H])(C(=O)N([H])[H])C([H])([H])c2c([H])n([H])c3c([H])c([H])c([H])c([H])c23)C([H])([H])C([H])(C([H])([H])[H])C([H])([H])[H])C([H])([H])c2c([H])n([H])c3c([H])c([H])c([H])c([H])c23)C([H])(C([H])([H])[H])C([H])([H])[H])N([H])[H])c([H])c1[H]
     RDKit          3D

114118  0  0  0  0  0  0  0  0999 V2000
   -5.9279   -3.3711   -0.8172 C   0  0  0  0  0  0  0  0  0  0  0  0
   -4.8539   -3.4415   -1.8808 C   0  0  0  0  0  0  0  0  0  0  0  0
   -5.5518   -4.0315   -3.1123 C   0  0  0  0  0  0  0  0  0  0  0  0
   -4.3197   -2.1092   -2.3214 C   0  0  0  0  0  0  0  0  0  0  0  0
   -3.7242   -1.2946   -1.2347 C   0  0  2  0  0  0  0  0  0  0  0  0
   -2.6266   -1.8830   -0.5213 N   0  0  0  0  0  0  0  0  0  0  0  0
   -1.5490   -1.0912   -0.0850 C   0  0  0  0  0  0  0  0  0  0  0  0
   -1.7395    0.1806   -0.3973 O   0  0  0  0  0  0  0  0  0  0  0  0
   -0.3356   -1.4484    0.6008 C   0  0  2  0  0  0  0  0  0  0  0  0
   -0.3122   -2.1251    1.8930 C   0  0  0  0  0  0  0  0  0  0  0  0
   -0.8937   -3.4375    2.1146 C   0  0  0  0  0  0  0  0  0  0  0  0
   -0.2568   -4.6640    1.8775 C   0  0  0  0  0  0  0  0  0  0  0  0
   -1.0965   -5.6782    2.1352 N   0  0  0  0  0  0  0  0  0  0  0  0
   -2.2805   -5.1879    2.5409 C   0  0  0  0  0  0  0  0  0  0  0  0
   -3.4637   -5.7818    2.9378 C   0  0  0  0  0  0  0  0  0  0  0  0
   -4.5477   -5.0611    3.3316 C   0  0  0  0  0  0  0  0  0  0  0  0
   -4.4198   -3.6885    3.3176 C   0  0  0  0  0  0  0  0  0  0  0  0
   -3.2687   -3.0865    2.9302 C   0  0  0  0  0  0  0  0  0  0  0  0
   -2.1512   -3.7970    2.5267 C   0  0  0  0  0  0  0  0  0  0  0  0
    0.5136   -0.2096    0.6996 N   0  0  0  0  0  0  0  0  0  0  0  0
    1.8133   -0.1687    0.1852 C   0  0  0  0  0  0  0  0  0  0  0  0
    2.2324   -1.2462   -0.3709 O   0  0  0  0  0  0  0  0  0  0  0  0
    2.7519    0.9738    0.2101 C   0  0  0  0  0  0  0  0  0  0  0  0
    4.0167    0.6014   -0.4082 N   0  0  0  0  0  0  0  0  0  0  0  0
    5.1430    1.4191   -0.5370 C   0  0  0  0  0  0  0  0  0  0  0  0
    5.1270    2.5984   -0.1175 O   0  0  0  0  0  0  0  0  0  0  0  0
    6.4143    0.8972   -1.1969 C   0  0  1  0  0  0  0  0  0  0  0  0
    7.3931    1.9011   -1.2283 N   0  0  0  0  0  0  0  0  0  0  0  0
    8.7598    2.0745   -1.3122 C   0  0  0  0  0  0  0  0  0  0  0  0
    9.5762    1.1311   -1.3485 O   0  0  0  0  0  0  0  0  0  0  0  0
    9.3660    3.4180   -1.3773 C   0  0  1  0  0  0  0  0  0  0  0  0
    8.3715    4.4935   -1.2439 N   0  0  0  0  0  0  0  0  0  0  0  0
   10.5046    3.7153   -0.4861 C   0  0  0  0  0  0  0  0  0  0  0  0
   11.7219    2.8564   -0.6997 C   0  0  0  0  0  0  0  0  0  0  0  0
   12.0620    1.8299    0.1136 C   0  0  0  0  0  0  0  0  0  0  0  0
   13.1793    1.0567   -0.1487 C   0  0  0  0  0  0  0  0  0  0  0  0
   14.0034    1.2912   -1.2475 C   0  0  0  0  0  0  0  0  0  0  0  0
   13.6101    2.3555   -2.0487 C   0  0  0  0  0  0  0  0  0  0  0  0
   12.5117    3.1398   -1.8223 C   0  0  0  0  0  0  0  0  0  0  0  0
    6.6750   -0.3962   -0.4865 C   0  0  0  0  0  0  0  0  0  0  0  0
    7.8133   -1.2303   -1.0260 C   0  0  0  0  0  0  0  0  0  0  0  0
    6.8498   -0.2113    1.0159 C   0  0  0  0  0  0  0  0  0  0  0  0
   -4.7128   -0.5947   -0.3757 C   0  0  0  0  0  0  0  0  0  0  0  0
   -4.5663   -0.5180    0.8703 O   0  0  0  0  0  0  0  0  0  0  0  0
   -5.8508    0.0028   -0.9628 N   0  0  0  0  0  0  0  0  0  0  0  0
   -6.8275    0.6969   -0.0838 C   0  0  1  0  0  0  0  0  0  0  0  0
   -6.7798    2.1285   -0.4624 C   0  0  0  0  0  0  0  0  0  0  0  0
   -7.6302    3.0485    0.2806 C   0  0  0  0  0  0  0  0  0  0  0  0
   -7.1766    3.7635    1.4158 C   0  0  0  0  0  0  0  0  0  0  0  0
   -8.2148    4.4642    1.8734 N   0  0  0  0  0  0  0  0  0  0  0  0
   -9.2953    4.2526    1.1124 C   0  0  0  0  0  0  0  0  0  0  0  0
  -10.5634    4.7683    1.1895 C   0  0  0  0  0  0  0  0  0  0  0  0
  -11.5345    4.4180    0.2654 C   0  0  0  0  0  0  0  0  0  0  0  0
  -11.1831    3.5362   -0.7366 C   0  0  0  0  0  0  0  0  0  0  0  0
   -9.9160    3.0291   -0.8051 C   0  0  0  0  0  0  0  0  0  0  0  0
   -8.9336    3.3591    0.1019 C   0  0  0  0  0  0  0  0  0  0  0  0
   -8.1479    0.0418   -0.2234 C   0  0  0  0  0  0  0  0  0  0  0  0
   -9.0007   -0.1235    0.9071 N   0  0  0  0  0  0  0  0  0  0  0  0
   -8.5216   -0.3759   -1.3291 O   0  0  0  0  0  0  0  0  0  0  0  0
   -6.8458   -2.8515   -1.1738 H   0  0  0  0  0  0  0  0  0  0  0  0
   -5.5763   -3.0868    0.1733 H   0  0  0  0  0  0  0  0  0  0  0  0
   -6.2533   -4.4581   -0.6929 H   0  0  0  0  0  0  0  0  0  0  0  0
   -4.0836   -4.1501   -1.5557 H   0  0  0  0  0  0  0  0  0  0  0  0
   -6.5300   -3.4841   -3.1437 H   0  0  0  0  0  0  0  0  0  0  0  0
   -5.0272   -3.7349   -4.0376 H   0  0  0  0  0  0  0  0  0  0  0  0
   -5.7517   -5.0951   -2.9863 H   0  0  0  0  0  0  0  0  0  0  0  0
   -3.4901   -2.3447   -3.0498 H   0  0  0  0  0  0  0  0  0  0  0  0
   -5.0622   -1.5230   -2.8655 H   0  0  0  0  0  0  0  0  0  0  0  0
   -3.2283   -0.3886   -1.7700 H   0  0  0  0  0  0  0  0  0  0  0  0
   -2.6228   -2.8951   -0.3394 H   0  0  0  0  0  0  0  0  0  0  0  0
    0.2763   -2.0674   -0.1450 H   0  0  0  0  0  0  0  0  0  0  0  0
   -0.7105   -1.3963    2.6945 H   0  0  0  0  0  0  0  0  0  0  0  0
    0.7879   -2.1870    2.2306 H   0  0  0  0  0  0  0  0  0  0  0  0
    0.7657   -4.7256    1.5510 H   0  0  0  0  0  0  0  0  0  0  0  0
   -0.8955   -6.6924    2.0388 H   0  0  0  0  0  0  0  0  0  0  0  0
   -3.5335   -6.8624    2.9416 H   0  0  0  0  0  0  0  0  0  0  0  0
   -5.4538   -5.5297    3.6382 H   0  0  0  0  0  0  0  0  0  0  0  0
   -5.2648   -3.0849    3.6232 H   0  0  0  0  0  0  0  0  0  0  0  0
   -3.1744   -2.0042    2.9279 H   0  0  0  0  0  0  0  0  0  0  0  0
    0.0587    0.5813    1.1606 H   0  0  0  0  0  0  0  0  0  0  0  0
    2.2693    1.7441   -0.4698 H   0  0  0  0  0  0  0  0  0  0  0  0
    2.9522    1.3716    1.2035 H   0  0  0  0  0  0  0  0  0  0  0  0
    4.0241   -0.3783   -0.7932 H   0  0  0  0  0  0  0  0  0  0  0  0
    6.1700    0.5993   -2.2295 H   0  0  0  0  0  0  0  0  0  0  0  0
    6.8828    2.9148   -1.2039 H   0  0  0  0  0  0  0  0  0  0  0  0
    9.7135    3.5877   -2.4755 H   0  0  0  0  0  0  0  0  0  0  0  0
    7.8855    4.6870   -2.1533 H   0  0  0  0  0  0  0  0  0  0  0  0
    8.8456    5.3759   -0.9059 H   0  0  0  0  0  0  0  0  0  0  0  0
   10.8493    4.7791   -0.5651 H   0  0  0  0  0  0  0  0  0  0  0  0
   10.2499    3.6038    0.6033 H   0  0  0  0  0  0  0  0  0  0  0  0
   11.4374    1.6135    1.0024 H   0  0  0  0  0  0  0  0  0  0  0  0
   13.4635    0.2493    0.4848 H   0  0  0  0  0  0  0  0  0  0  0  0
   14.8766    0.7039   -1.4799 H   0  0  0  0  0  0  0  0  0  0  0  0
   14.2391    2.5724   -2.9214 H   0  0  0  0  0  0  0  0  0  0  0  0
   12.2468    3.9567   -2.4808 H   0  0  0  0  0  0  0  0  0  0  0  0
    5.7703   -1.0274   -0.6002 H   0  0  0  0  0  0  0  0  0  0  0  0
    8.0268   -0.9654   -2.0708 H   0  0  0  0  0  0  0  0  0  0  0  0
    7.4294   -2.3310   -1.1375 H   0  0  0  0  0  0  0  0  0  0  0  0
    8.6508   -1.3558   -0.3397 H   0  0  0  0  0  0  0  0  0  0  0  0
    6.1083   -0.8019    1.5829 H   0  0  0  0  0  0  0  0  0  0  0  0
    6.7298    0.8257    1.3110 H   0  0  0  0  0  0  0  0  0  0  0  0
    7.8449   -0.6414    1.3197 H   0  0  0  0  0  0  0  0  0  0  0  0
   -6.0941    0.0078   -1.9717 H   0  0  0  0  0  0  0  0  0  0  0  0
   -6.4656    0.6170    0.9737 H   0  0  0  0  0  0  0  0  0  0  0  0
   -7.0007    2.2845   -1.5527 H   0  0  0  0  0  0  0  0  0  0  0  0
   -5.7189    2.4653   -0.3353 H   0  0  0  0  0  0  0  0  0  0  0  0
   -6.1788    3.7219    1.8122 H   0  0  0  0  0  0  0  0  0  0  0  0
   -8.1962    5.0961    2.6987 H   0  0  0  0  0  0  0  0  0  0  0  0
  -10.8568    5.4579    1.9680 H   0  0  0  0  0  0  0  0  0  0  0  0
  -12.5298    4.8175    0.3044 H   0  0  0  0  0  0  0  0  0  0  0  0
  -11.9477    3.2678   -1.4647 H   0  0  0  0  0  0  0  0  0  0  0  0
   -9.6981    2.3362   -1.6340 H   0  0  0  0  0  0  0  0  0  0  0  0
   -9.8660   -0.6837    0.8097 H   0  0  0  0  0  0  0  0  0  0  0  0
   -8.7341    0.3185    1.7880 H   0  0  0  0  0  0  0  0  0  0  0  0
  1  2  1  0
  2  3  1  0
  2  4  1  0
  4  5  1  0
  5  6  1  0
  6  7  1  0
  7  8  2  0
  7  9  1  0
  9 10  1  0
 10 11  1  0
 11 12  2  0
 12 13  1  0
 13 14  1  0
 14 15  2  0
 15 16  1  0
 16 17  2  0
 17 18  1  0
 18 19  2  0
  9 20  1  0
 20 21  1  0
 21 22  2  0
 21 23  1  0
 23 24  1  0
 24 25  1  0
 25 26  2  0
 25 27  1  0
 27 28  1  0
 28 29  1  0
 29 30  2  0
 29 31  1  0
 31 32  1  0
 31 33  1  0
 33 34  1  0
 34 35  2  0
 35 36  1  0
 36 37  2  0
 37 38  1  0
 38 39  2  0
 27 40  1  0
 40 41  1  0
 40 42  1  0
  5 43  1  0
 43 44  2  0
 43 45  1  0
 45 46  1  0
 46 47  1  0
 47 48  1  0
 48 49  2  0
 49 50  1  0
 50 51  1  0
 51 52  2  0
 52 53  1  0
 53 54  2  0
 54 55  1  0
 55 56  2  0
 46 57  1  0
 57 58  1  0
 57 59  2  0
 19 11  1  0
 39 34  1  0
 56 48  1  0
 19 14  1  0
 56 51  1  0
  1 60  1  0
  1 61  1  0
  1 62  1  0
  2 63  1  0
  3 64  1  0
  3 65  1  0
  3 66  1  0
  4 67  1  0
  4 68  1  0
  5 69  1  6
  6 70  1  0
  9 71  1  6
 10 72  1  0
 10 73  1  0
 12 74  1  0
 13 75  1  0
 15 76  1  0
 16 77  1  0
 17 78  1  0
 18 79  1  0
 20 80  1  0
 23 81  1  0
 23 82  1  0
 24 83  1  0
 27 84  1  6
 28 85  1  0
 31 86  1  6
 32 87  1  0
 32 88  1  0
 33 89  1  0
 33 90  1  0
 35 91  1  0
 36 92  1  0
 37 93  1  0
 38 94  1  0
 39 95  1  0
 40 96  1  0
 41 97  1  0
 41 98  1  0
 41 99  1  0
 42100  1  0
 42101  1  0
 42102  1  0
 45103  1  0
 46104  1  1
 47105  1  0
 47106  1  0
 49107  1  0
 50108  1  0
 52109  1  0
 53110  1  0
 54111  1  0
 55112  1  0
 58113  1  0
 58114  1  0
M  END
$$$$
[H]c1nc(N2C([H])([H])C([H])([H])OC([H])([H])C2([H])[H])nc([H])c1-c1c([H])nc(N([H])C(=O)N([H])C([H])([H])C([H])([H])[H])c([H])c1-c1nc(C(F)(F)F)c([H])s1
     RDKit          3D

 53 56  0  0  0  0  0  0  0  0999 V2000
   -7.2513    3.5876   -1.2458 C   0  0  0  0  0  0  0  0  0  0  0  0
   -7.7077    2.7263   -0.0802 C   0  0  0  0  0  0  0  0  0  0  0  0
   -7.0616    1.4540   -0.0857 N   0  0  0  0  0  0  0  0  0  0  0  0
   -5.6520    1.2472    0.0113 C   0  0  0  0  0  0  0  0  0  0  0  0
   -4.9507    2.3169    0.1288 O   0  0  0  0  0  0  0  0  0  0  0  0
   -5.0203   -0.0216   -0.0201 N   0  0  0  0  0  0  0  0  0  0  0  0
   -3.6117   -0.0545    0.0184 C   0  0  0  0  0  0  0  0  0  0  0  0
   -2.9230   -1.2319    0.0178 C   0  0  0  0  0  0  0  0  0  0  0  0
   -1.5250   -1.2721    0.0019 C   0  0  0  0  0  0  0  0  0  0  0  0
   -0.8838   -2.6001    0.0030 C   0  0  0  0  0  0  0  0  0  0  0  0
    0.3865   -2.9534   -0.0131 N   0  0  0  0  0  0  0  0  0  0  0  0
    0.7256   -4.1981   -0.0122 C   0  0  0  0  0  0  0  0  0  0  0  0
   -0.2973   -5.1318    0.0072 C   0  0  0  0  0  0  0  0  0  0  0  0
   -1.6668   -4.1306    0.0219 S   0  0  0  0  0  0  0  0  0  0  0  0
    2.1805   -4.6536   -0.0673 C   0  0  0  0  0  0  0  0  0  0  0  0
    2.4684   -4.9711   -1.3876 F   0  0  0  0  0  0  0  0  0  0  0  0
    2.3487   -5.7180    0.7555 F   0  0  0  0  0  0  0  0  0  0  0  0
    2.9673   -3.6072    0.3409 F   0  0  0  0  0  0  0  0  0  0  0  0
   -0.8173   -0.1320   -0.0138 C   0  0  0  0  0  0  0  0  0  0  0  0
   -1.5363    1.0798   -0.0113 C   0  0  0  0  0  0  0  0  0  0  0  0
   -2.8602    1.0759    0.0038 N   0  0  0  0  0  0  0  0  0  0  0  0
    0.6297   -0.0361   -0.0604 C   0  0  0  0  0  0  0  0  0  0  0  0
    1.2957    0.4380    1.0632 C   0  0  0  0  0  0  0  0  0  0  0  0
    2.6298    0.6307    1.0815 N   0  0  0  0  0  0  0  0  0  0  0  0
    3.3647    0.3546   -0.0293 C   0  0  0  0  0  0  0  0  0  0  0  0
    2.7543   -0.1016   -1.1145 N   0  0  0  0  0  0  0  0  0  0  0  0
    1.4078   -0.3048   -1.1586 C   0  0  0  0  0  0  0  0  0  0  0  0
    4.7468    0.6389    0.0279 N   0  0  0  0  0  0  0  0  0  0  0  0
    5.1209    2.0690   -0.0452 C   0  0  0  0  0  0  0  0  0  0  0  0
    6.0912    2.1344   -1.2065 C   0  0  0  0  0  0  0  0  0  0  0  0
    7.2112    1.3578   -0.9924 O   0  0  0  0  0  0  0  0  0  0  0  0
    7.1246    0.5332    0.1299 C   0  0  0  0  0  0  0  0  0  0  0  0
    5.8303   -0.2927    0.1376 C   0  0  0  0  0  0  0  0  0  0  0  0
   -6.1862    3.4155   -1.4188 H   0  0  0  0  0  0  0  0  0  0  0  0
   -7.8399    3.3873   -2.1746 H   0  0  0  0  0  0  0  0  0  0  0  0
   -7.4750    4.6535   -0.9957 H   0  0  0  0  0  0  0  0  0  0  0  0
   -8.8338    2.5811   -0.1905 H   0  0  0  0  0  0  0  0  0  0  0  0
   -7.4536    3.3107    0.8320 H   0  0  0  0  0  0  0  0  0  0  0  0
   -7.6509    0.5780   -0.1705 H   0  0  0  0  0  0  0  0  0  0  0  0
   -5.5603   -0.8918   -0.0646 H   0  0  0  0  0  0  0  0  0  0  0  0
   -3.4516   -2.1798    0.0256 H   0  0  0  0  0  0  0  0  0  0  0  0
   -0.2004   -6.2336    0.0101 H   0  0  0  0  0  0  0  0  0  0  0  0
   -0.9784    2.0347   -0.0218 H   0  0  0  0  0  0  0  0  0  0  0  0
    0.6809    0.6467    1.9483 H   0  0  0  0  0  0  0  0  0  0  0  0
    0.9341   -0.6792   -2.0495 H   0  0  0  0  0  0  0  0  0  0  0  0
    5.4745    2.4791    0.8875 H   0  0  0  0  0  0  0  0  0  0  0  0
    4.2369    2.6954   -0.3575 H   0  0  0  0  0  0  0  0  0  0  0  0
    5.5479    1.6199   -2.0597 H   0  0  0  0  0  0  0  0  0  0  0  0
    6.3002    3.1649   -1.4425 H   0  0  0  0  0  0  0  0  0  0  0  0
    7.1928    1.1422    1.0448 H   0  0  0  0  0  0  0  0  0  0  0  0
    7.9976   -0.1486    0.1377 H   0  0  0  0  0  0  0  0  0  0  0  0
    5.9029   -0.9367   -0.7566 H   0  0  0  0  0  0  0  0  0  0  0  0
    5.8432   -0.8724    1.0800 H   0  0  0  0  0  0  0  0  0  0  0  0
  1  2  1  0
  2  3  1  0
  3  4  1  0
  4  5  2  0
  4  6  1  0
  6  7  1  0
  7  8  2  0
  8  9  1  0
  9 10  1  0
 10 11  2  0
 11 12  1  0
 12 13  2  0
 13 14  1  0
 12 15  1  0
 15 16  1  0
 15 17  1  0
 15 18  1  0
  9 19  2  0
 19 20  1  0
 20 21  2  0
 19 22  1  0
 22 23  2  0
 23 24  1  0
 24 25  2  0
 25 26  1  0
 26 27  2  0
 25 28  1  0
 28 29  1  0
 29 30  1  0
 30 31  1  0
 31 32  1  0
 32 33  1  0
 21  7  1  0
 27 22  1  0
 33 28  1  0
 14 10  1  0
  1 34  1  0
  1 35  1  0
  1 36  1  0
  2 37  1  0
  2 38  1  0
  3 39  1  0
  6 40  1  0
  8 41  1  0
 13 42  1  0
 20 43  1  0
 23 44  1  0
 27 45  1  0
 29 46  1  0
 29 47  1  0
 30 48  1  0
 30 49  1  0
 32 50  1  0
 32 51  1  0
 33 52  1  0
 33 53  1  0
M  END
$$$$
[H]OC(=O)C([H])(Oc1c([H])c([H])c(-c2c([H])c([H])c(-c3c(C([H])([H])c4c([H])c([H])c([H])c([H])c4[H])oc4c([H])c([H])c([H])c([H])c34)c([H])c2[H])c([H])c1Br)C([H])([H])c1c([H])c([H])c([H])c([H])c1[H]
     RDKit          3D

 68 73  0  0  0  0  0  0  0  0999 V2000
    7.9726    1.9088   -0.7195 O   0  0  0  0  0  0  0  0  0  0  0  0
    6.7846    1.4387   -1.2153 C   0  0  0  0  0  0  0  0  0  0  0  0
    6.3362    1.9779   -2.2617 O   0  0  0  0  0  0  0  0  0  0  0  0
    5.9895    0.3200   -0.5752 C   0  0  0  0  0  0  0  0  0  0  0  0
    6.7331   -0.9999   -0.7693 C   0  0  0  0  0  0  0  0  0  0  0  0
    8.0741   -1.0121   -0.1481 C   0  0  0  0  0  0  0  0  0  0  0  0
    8.1837   -1.3393    1.1960 C   0  0  0  0  0  0  0  0  0  0  0  0
    9.4330   -1.3816    1.7688 C   0  0  0  0  0  0  0  0  0  0  0  0
   10.5582   -1.1046    1.0304 C   0  0  0  0  0  0  0  0  0  0  0  0
   10.4491   -0.7805   -0.2988 C   0  0  0  0  0  0  0  0  0  0  0  0
    9.2063   -0.7365   -0.8807 C   0  0  0  0  0  0  0  0  0  0  0  0
    4.7599    0.2412   -1.1488 O   0  0  0  0  0  0  0  0  0  0  0  0
    3.4668    0.2680   -0.8365 C   0  0  0  0  0  0  0  0  0  0  0  0
    2.5678    0.1712   -1.9247 C   0  0  0  0  0  0  0  0  0  0  0  0
    1.2040    0.1870   -1.7596 C   0  0  0  0  0  0  0  0  0  0  0  0
    0.6549    0.3012   -0.4992 C   0  0  0  0  0  0  0  0  0  0  0  0
    1.5399    0.3928    0.5628 C   0  0  0  0  0  0  0  0  0  0  0  0
    2.9230    0.3776    0.4095 C   0  0  0  0  0  0  0  0  0  0  0  0
    3.9730    0.5045    2.0015 Br  0  0  0  0  0  0  0  0  0  0  0  0
   -0.7874    0.3687   -0.2451 C   0  0  0  0  0  0  0  0  0  0  0  0
   -1.7484   -0.2531   -0.9888 C   0  0  0  0  0  0  0  0  0  0  0  0
   -3.0655   -0.0602   -0.6243 C   0  0  0  0  0  0  0  0  0  0  0  0
   -3.4986    0.7029    0.4234 C   0  0  0  0  0  0  0  0  0  0  0  0
   -2.4960    1.3356    1.1803 C   0  0  0  0  0  0  0  0  0  0  0  0
   -1.1882    1.1547    0.8319 C   0  0  0  0  0  0  0  0  0  0  0  0
   -4.8872    0.9450    0.7914 C   0  0  0  0  0  0  0  0  0  0  0  0
   -5.7826    0.1941    1.4560 C   0  0  0  0  0  0  0  0  0  0  0  0
   -5.6769   -1.1750    1.9877 C   0  0  0  0  0  0  0  0  0  0  0  0
   -6.0030   -2.1857    0.9700 C   0  0  0  0  0  0  0  0  0  0  0  0
   -5.0943   -3.0539    0.4619 C   0  0  0  0  0  0  0  0  0  0  0  0
   -5.4582   -4.0097   -0.5054 C   0  0  0  0  0  0  0  0  0  0  0  0
   -6.7589   -4.0782   -0.9578 C   0  0  0  0  0  0  0  0  0  0  0  0
   -7.6819   -3.2007   -0.4464 C   0  0  0  0  0  0  0  0  0  0  0  0
   -7.3260   -2.2499    0.5152 C   0  0  0  0  0  0  0  0  0  0  0  0
   -6.9180    0.9013    1.5977 O   0  0  0  0  0  0  0  0  0  0  0  0
   -6.8023    2.0800    1.0532 C   0  0  0  0  0  0  0  0  0  0  0  0
   -7.7018    3.1529    0.9481 C   0  0  0  0  0  0  0  0  0  0  0  0
   -7.2464    4.2710    0.2974 C   0  0  0  0  0  0  0  0  0  0  0  0
   -5.9823    4.3761   -0.2388 C   0  0  0  0  0  0  0  0  0  0  0  0
   -5.1176    3.3034   -0.1210 C   0  0  0  0  0  0  0  0  0  0  0  0
   -5.5347    2.1668    0.5232 C   0  0  0  0  0  0  0  0  0  0  0  0
    8.1993    2.8946   -0.5957 H   0  0  0  0  0  0  0  0  0  0  0  0
    6.0456    0.5338    0.4987 H   0  0  0  0  0  0  0  0  0  0  0  0
    6.1573   -1.8313   -0.2618 H   0  0  0  0  0  0  0  0  0  0  0  0
    6.7389   -1.2258   -1.8353 H   0  0  0  0  0  0  0  0  0  0  0  0
    7.2867   -1.5607    1.7936 H   0  0  0  0  0  0  0  0  0  0  0  0
    9.5091   -1.6439    2.8355 H   0  0  0  0  0  0  0  0  0  0  0  0
   11.5250   -1.1398    1.4961 H   0  0  0  0  0  0  0  0  0  0  0  0
   11.3261   -0.5552   -0.9134 H   0  0  0  0  0  0  0  0  0  0  0  0
    9.0815   -0.4797   -1.9455 H   0  0  0  0  0  0  0  0  0  0  0  0
    2.9482    0.0808   -2.9458 H   0  0  0  0  0  0  0  0  0  0  0  0
    0.5290    0.1128   -2.6060 H   0  0  0  0  0  0  0  0  0  0  0  0
    1.1634    0.4756    1.5658 H   0  0  0  0  0  0  0  0  0  0  0  0
   -1.4472   -0.8779   -1.8383 H   0  0  0  0  0  0  0  0  0  0  0  0
   -3.8183   -0.5677   -1.2301 H   0  0  0  0  0  0  0  0  0  0  0  0
   -2.7889    1.9511    2.0218 H   0  0  0  0  0  0  0  0  0  0  0  0
   -0.4107    1.6638    1.4334 H   0  0  0  0  0  0  0  0  0  0  0  0
   -6.4175   -1.2898    2.8245 H   0  0  0  0  0  0  0  0  0  0  0  0
   -4.6489   -1.3729    2.4047 H   0  0  0  0  0  0  0  0  0  0  0  0
   -4.0685   -3.0411    0.7863 H   0  0  0  0  0  0  0  0  0  0  0  0
   -4.7315   -4.6986   -0.9033 H   0  0  0  0  0  0  0  0  0  0  0  0
   -7.0538   -4.8231   -1.7140 H   0  0  0  0  0  0  0  0  0  0  0  0
   -8.7102   -3.2464   -0.7965 H   0  0  0  0  0  0  0  0  0  0  0  0
   -8.0252   -1.5488    0.9357 H   0  0  0  0  0  0  0  0  0  0  0  0
   -8.6825    3.0598    1.3730 H   0  0  0  0  0  0  0  0  0  0  0  0
   -7.9534    5.0949    0.2275 H   0  0  0  0  0  0  0  0  0  0  0  0
   -5.6944    5.2852   -0.7316 H   0  0  0  0  0  0  0  0  0  0  0  0
   -4.1122    3.3296   -0.5216 H   0  0  0  0  0  0  0  0  0  0  0  0
  1  2  1  0
  2  3  2  0
  2  4  1  0
  4  5  1  0
  5  6  1  0
  6  7  2  0
  7  8  1  0
  8  9  2  0
  9 10  1  0
 10 11  2  0
  4 12  1  0
 12 13  1  0
 13 14  2  0
 14 15  1  0
 15 16  2  0
 16 17  1  0
 17 18  2  0
 18 19  1  0
 16 20  1  0
 20 21  2  0
 21 22  1  0
 22 23  2  0
 23 24  1  0
 24 25  2  0
 23 26  1  0
 26 27  2  0
 27 28  1  0
 28 29  1  0
 29 30  2  0
 30 31  1  0
 31 32  2  0
 32 33  1  0
 33 34  2  0
 27 35  1  0
 35 36  1  0
 36 37  2  0
 37 38  1  0
 38 39  2  0
 39 40  1  0
 40 41  2  0
 11  6  1  0
 18 13  1  0
 25 20  1  0
 41 26  1  0
 34 29  1  0
 41 36  1  0
  1 42  1  0
  4 43  1  0
  5 44  1  0
  5 45  1  0
  7 46  1  0
  8 47  1  0
  9 48  1  0
 10 49  1  0
 11 50  1  0
 14 51  1  0
 15 52  1  0
 17 53  1  0
 21 54  1  0
 22 55  1  0
 24 56  1  0
 25 57  1  0
 28 58  1  0
 28 59  1  0
 30 60  1  0
 31 61  1  0
 32 62  1  0
 33 63  1  0
 34 64  1  0
 37 65  1  0
 38 66  1  0
 39 67  1  0
 40 68  1  0
M  END
$$$$
[H]c1nc(N([H])c2c([H])c([H])c(N3C([H])([H])C([H])([H])C([H])(N4C([H])([H])C([H])([H])N(C([H])([H])[H])C([H])([H])C4([H])[H])C([H])([H])C3([H])[H])c([H])c2OC([H])([H])[H])nc(N([H])c2c([H])c([H])c([H])c([H])c2S(=O)(=O)C([H])(C([H])([H])[H])C([H])([H])[H])c1Cl
     RDKit          3D

 82 86  0  0  0  0  0  0  0  0999 V2000
   -0.1870    3.7228   -1.2569 C   0  0  0  0  0  0  0  0  0  0  0  0
    0.4390    2.5297   -0.8437 O   0  0  0  0  0  0  0  0  0  0  0  0
   -0.3483    1.4775   -0.4024 C   0  0  0  0  0  0  0  0  0  0  0  0
   -1.7220    1.6350   -0.3827 C   0  0  0  0  0  0  0  0  0  0  0  0
   -2.5624    0.6308    0.0436 C   0  0  0  0  0  0  0  0  0  0  0  0
   -1.9599   -0.5357    0.4478 C   0  0  0  0  0  0  0  0  0  0  0  0
   -0.5748   -0.7280    0.4408 C   0  0  0  0  0  0  0  0  0  0  0  0
    0.2576    0.2764    0.0150 C   0  0  0  0  0  0  0  0  0  0  0  0
    1.6540    0.2011   -0.0367 N   0  0  0  0  0  0  0  0  0  0  0  0
    2.4984   -0.8842    0.3177 C   0  0  0  0  0  0  0  0  0  0  0  0
    2.1033   -2.0726    0.7812 N   0  0  0  0  0  0  0  0  0  0  0  0
    2.9559   -3.0558    1.0957 C   0  0  0  0  0  0  0  0  0  0  0  0
    4.3092   -2.8632    0.9451 C   0  0  0  0  0  0  0  0  0  0  0  0
    5.4455   -4.1449    1.3534 Cl  0  0  0  0  0  0  0  0  0  0  0  0
    4.7527   -1.6166    0.4572 C   0  0  0  0  0  0  0  0  0  0  0  0
    6.1380   -1.4466    0.3110 N   0  0  0  0  0  0  0  0  0  0  0  0
    6.9009   -0.3576   -0.1368 C   0  0  0  0  0  0  0  0  0  0  0  0
    6.2766    0.8084   -0.5266 C   0  0  0  0  0  0  0  0  0  0  0  0
    7.0240    1.9039   -0.9778 C   0  0  0  0  0  0  0  0  0  0  0  0
    8.3820    1.8034   -1.0274 C   0  0  0  0  0  0  0  0  0  0  0  0
    9.0024    0.6381   -0.6374 C   0  0  0  0  0  0  0  0  0  0  0  0
    8.2961   -0.4485   -0.1920 C   0  0  0  0  0  0  0  0  0  0  0  0
    9.0842   -1.8926    0.2913 S   0  0  0  0  0  0  0  0  0  0  0  0
    8.6633   -3.0312   -0.6035 O   0  0  0  0  0  0  0  0  0  0  0  0
    8.8235   -2.3045    1.7132 O   0  0  0  0  0  0  0  0  0  0  0  0
   10.8572   -1.7881    0.1370 C   0  0  0  0  0  0  0  0  0  0  0  0
   11.2609   -1.6791   -1.2975 C   0  0  0  0  0  0  0  0  0  0  0  0
   11.4760   -0.7869    1.0544 C   0  0  0  0  0  0  0  0  0  0  0  0
    3.8248   -0.7008    0.1721 N   0  0  0  0  0  0  0  0  0  0  0  0
   -3.9818    0.8060    0.0512 N   0  0  0  0  0  0  0  0  0  0  0  0
   -4.5241    1.9609   -0.5784 C   0  0  0  0  0  0  0  0  0  0  0  0
   -6.0011    1.9283   -0.8544 C   0  0  0  0  0  0  0  0  0  0  0  0
   -6.8245    1.3726    0.2584 C   0  0  0  0  0  0  0  0  0  0  0  0
   -6.0036    0.6088    1.2781 C   0  0  0  0  0  0  0  0  0  0  0  0
   -4.8657   -0.1463    0.6796 C   0  0  0  0  0  0  0  0  0  0  0  0
   -7.9560    0.6086   -0.0875 N   0  0  0  0  0  0  0  0  0  0  0  0
   -7.7905   -0.5856   -0.8057 C   0  0  0  0  0  0  0  0  0  0  0  0
   -9.1362   -1.0235   -1.3907 C   0  0  0  0  0  0  0  0  0  0  0  0
  -10.1390   -0.8718   -0.3544 N   0  0  0  0  0  0  0  0  0  0  0  0
  -10.0361   -1.8235    0.7053 C   0  0  0  0  0  0  0  0  0  0  0  0
  -10.3349    0.4834    0.0484 C   0  0  0  0  0  0  0  0  0  0  0  0
   -9.1475    1.3193   -0.4248 C   0  0  0  0  0  0  0  0  0  0  0  0
    0.5375    4.4499   -1.6799 H   0  0  0  0  0  0  0  0  0  0  0  0
   -0.9481    3.5330   -2.0530 H   0  0  0  0  0  0  0  0  0  0  0  0
   -0.6880    4.2523   -0.4156 H   0  0  0  0  0  0  0  0  0  0  0  0
   -2.1476    2.5764   -0.7105 H   0  0  0  0  0  0  0  0  0  0  0  0
   -2.6020   -1.3517    0.7883 H   0  0  0  0  0  0  0  0  0  0  0  0
   -0.2121   -1.6859    0.7807 H   0  0  0  0  0  0  0  0  0  0  0  0
    2.1500    1.0935   -0.3956 H   0  0  0  0  0  0  0  0  0  0  0  0
    2.6174   -4.0222    1.4737 H   0  0  0  0  0  0  0  0  0  0  0  0
    6.7215   -2.3022    0.5911 H   0  0  0  0  0  0  0  0  0  0  0  0
    5.2202    0.9989   -0.5296 H   0  0  0  0  0  0  0  0  0  0  0  0
    6.5603    2.8305   -1.2896 H   0  0  0  0  0  0  0  0  0  0  0  0
    9.0220    2.6252   -1.3712 H   0  0  0  0  0  0  0  0  0  0  0  0
   10.0936    0.6299   -0.7052 H   0  0  0  0  0  0  0  0  0  0  0  0
   11.2252   -2.8031    0.4806 H   0  0  0  0  0  0  0  0  0  0  0  0
   11.9033   -0.7785   -1.4926 H   0  0  0  0  0  0  0  0  0  0  0  0
   10.3307   -1.5514   -1.9199 H   0  0  0  0  0  0  0  0  0  0  0  0
   11.7765   -2.5763   -1.6995 H   0  0  0  0  0  0  0  0  0  0  0  0
   12.0225   -1.2557    1.8769 H   0  0  0  0  0  0  0  0  0  0  0  0
   12.1781   -0.1622    0.4319 H   0  0  0  0  0  0  0  0  0  0  0  0
   10.7434   -0.0899    1.5079 H   0  0  0  0  0  0  0  0  0  0  0  0
   -4.2803    2.8410    0.0525 H   0  0  0  0  0  0  0  0  0  0  0  0
   -3.9354    2.1199   -1.5269 H   0  0  0  0  0  0  0  0  0  0  0  0
   -6.3084    2.9635   -1.1164 H   0  0  0  0  0  0  0  0  0  0  0  0
   -6.1470    1.3325   -1.7818 H   0  0  0  0  0  0  0  0  0  0  0  0
   -7.2139    2.2642    0.8421 H   0  0  0  0  0  0  0  0  0  0  0  0
   -6.6586   -0.1075    1.8153 H   0  0  0  0  0  0  0  0  0  0  0  0
   -5.5929    1.2907    2.0626 H   0  0  0  0  0  0  0  0  0  0  0  0
   -5.1731   -0.8869   -0.0780 H   0  0  0  0  0  0  0  0  0  0  0  0
   -4.3121   -0.6097    1.5260 H   0  0  0  0  0  0  0  0  0  0  0  0
   -7.5080   -1.4012   -0.0997 H   0  0  0  0  0  0  0  0  0  0  0  0
   -7.0082   -0.5774   -1.5870 H   0  0  0  0  0  0  0  0  0  0  0  0
   -9.4445   -0.3742   -2.2343 H   0  0  0  0  0  0  0  0  0  0  0  0
   -9.0261   -2.0597   -1.7202 H   0  0  0  0  0  0  0  0  0  0  0  0
   -9.1822   -2.5377    0.5321 H   0  0  0  0  0  0  0  0  0  0  0  0
   -9.9814   -1.3564    1.7041 H   0  0  0  0  0  0  0  0  0  0  0  0
  -10.9456   -2.4645    0.6802 H   0  0  0  0  0  0  0  0  0  0  0  0
  -11.2261    0.8855   -0.4545 H   0  0  0  0  0  0  0  0  0  0  0  0
  -10.4517    0.5517    1.1515 H   0  0  0  0  0  0  0  0  0  0  0  0
   -9.2778    1.5186   -1.4917 H   0  0  0  0  0  0  0  0  0  0  0  0
   -9.1611    2.2698    0.1783 H   0  0  0  0  0  0  0  0  0  0  0  0
  1  2  1  0
  2  3  1  0
  3  4  2  0
  4  5  1  0
  5  6  2  0
  6  7  1  0
  7  8  2  0
  8  9  1  0
  9 10  1  0
 10 11  2  0
 11 12  1  0
 12 13  2  0
 13 14  1  0
 13 15  1  0
 15 16  1  0
 16 17  1  0
 17 18  2  0
 18 19  1  0
 19 20  2  0
 20 21  1  0
 21 22  2  0
 22 23  1  0
 23 24  2  0
 23 25  2  0
 23 26  1  0
 26 27  1  0
 26 28  1  0
 15 29  2  0
  5 30  1  0
 30 31  1  0
 31 32  1  0
 32 33  1  0
 33 34  1  0
 34 35  1  0
 33 36  1  0
 36 37  1  0
 37 38  1  0
 38 39  1  0
 39 40  1  0
 39 41  1  0
 41 42  1  0
  8  3  1  0
 29 10  1  0
 35 30  1  0
 42 36  1  0
 22 17  1  0
  1 43  1  0
  1 44  1  0
  1 45  1  0
  4 46  1  0
  6 47  1  0
  7 48  1  0
  9 49  1  0
 12 50  1  0
 16 51  1  0
 18 52  1  0
 19 53  1  0
 20 54  1  0
 21 55  1  0
 26 56  1  0
 27 57  1  0
 27 58  1  0
 27 59  1  0
 28 60  1  0
 28 61  1  0
 28 62  1  0
 31 63  1  0
 31 64  1  0
 32 65  1  0
 32 66  1  0
 33 67  1  0
 34 68  1  0
 34 69  1  0
 35 70  1  0
 35 71  1  0
 37 72  1  0
 37 73  1  0
 38 74  1  0
 38 75  1  0
 40 76  1  0
 40 77  1  0
 40 78  1  0
 41 79  1  0
 41 80  1  0
 42 81  1  0
 42 82  1  0
M  END
$$$$
[H]Oc1c([H])c([H])c(C([H])([H])[C@@]([H])(C(=O)N([H])[H])N([H])C(=O)[C@@]2([H])N(C(=O)[C@@]([H])(N([H])C(=O)[C@@]([H])(N([H])[H])C([H])([H])c3c([H])c([H])c([H])c([H])c3[H])C([H])([H])[H])C([H])([H])C([H])([H])C2([H])[H])c([H])c1[H]
     RDKit          3D

 69 71  0  0  0  0  0  0  0  0999 V2000
    1.4968   -2.3994   -1.3443 C   0  0  0  0  0  0  0  0  0  0  0  0
    1.5957   -1.5233   -0.1071 C   0  0  2  0  0  0  0  0  0  0  0  0
    2.9730   -1.0382   -0.0840 N   0  0  0  0  0  0  0  0  0  0  0  0
    3.2772    0.3487   -0.1461 C   0  0  0  0  0  0  0  0  0  0  0  0
    2.3159    1.1511   -0.2227 O   0  0  0  0  0  0  0  0  0  0  0  0
    4.6745    0.8438   -0.1217 C   0  0  1  0  0  0  0  0  0  0  0  0
    5.6367   -0.2139   -0.0328 N   0  0  0  0  0  0  0  0  0  0  0  0
    4.9009    1.7493   -1.3064 C   0  0  0  0  0  0  0  0  0  0  0  0
    6.2804    2.2844   -1.3488 C   0  0  0  0  0  0  0  0  0  0  0  0
    6.5887    3.4703   -0.7233 C   0  0  0  0  0  0  0  0  0  0  0  0
    7.8645    4.0074   -0.7354 C   0  0  0  0  0  0  0  0  0  0  0  0
    8.8535    3.3347   -1.3929 C   0  0  0  0  0  0  0  0  0  0  0  0
    8.5672    2.1443   -2.0269 C   0  0  0  0  0  0  0  0  0  0  0  0
    7.2757    1.6051   -2.0119 C   0  0  0  0  0  0  0  0  0  0  0  0
    1.3192   -2.2473    1.1416 C   0  0  0  0  0  0  0  0  0  0  0  0
    2.2587   -2.3754    1.9952 O   0  0  0  0  0  0  0  0  0  0  0  0
    0.0694   -2.8150    1.4627 N   0  0  0  0  0  0  0  0  0  0  0  0
   -0.2180   -3.5427    2.7087 C   0  0  0  0  0  0  0  0  0  0  0  0
   -1.2538   -4.5620    2.3466 C   0  0  0  0  0  0  0  0  0  0  0  0
   -1.8497   -4.0946    1.0431 C   0  0  0  0  0  0  0  0  0  0  0  0
   -1.1472   -2.8092    0.7011 C   0  0  1  0  0  0  0  0  0  0  0  0
   -2.0228   -1.6721    1.0024 C   0  0  0  0  0  0  0  0  0  0  0  0
   -1.6674   -0.8286    1.8557 O   0  0  0  0  0  0  0  0  0  0  0  0
   -3.2544   -1.5150    0.3475 N   0  0  0  0  0  0  0  0  0  0  0  0
   -4.1734   -0.3890    0.6105 C   0  0  1  0  0  0  0  0  0  0  0  0
   -4.2873    0.3195   -0.7087 C   0  0  0  0  0  0  0  0  0  0  0  0
   -5.1562    1.4889   -0.6870 C   0  0  0  0  0  0  0  0  0  0  0  0
   -6.4798    1.4528   -1.0601 C   0  0  0  0  0  0  0  0  0  0  0  0
   -7.2575    2.5853   -1.0199 C   0  0  0  0  0  0  0  0  0  0  0  0
   -6.7595    3.7932   -0.6109 C   0  0  0  0  0  0  0  0  0  0  0  0
   -7.5484    4.9338   -0.5718 O   0  0  0  0  0  0  0  0  0  0  0  0
   -5.4414    3.8425   -0.2364 C   0  0  0  0  0  0  0  0  0  0  0  0
   -4.6602    2.7205   -0.2733 C   0  0  0  0  0  0  0  0  0  0  0  0
   -5.4229   -1.0052    1.0869 C   0  0  0  0  0  0  0  0  0  0  0  0
   -6.5489   -0.2729    1.5364 N   0  0  0  0  0  0  0  0  0  0  0  0
   -5.5709   -2.2777    1.1283 O   0  0  0  0  0  0  0  0  0  0  0  0
    0.6810   -2.0033   -1.9748 H   0  0  0  0  0  0  0  0  0  0  0  0
    1.3150   -3.4678   -1.0572 H   0  0  0  0  0  0  0  0  0  0  0  0
    2.4076   -2.3964   -1.9487 H   0  0  0  0  0  0  0  0  0  0  0  0
    0.9427   -0.6426   -0.2027 H   0  0  0  0  0  0  0  0  0  0  0  0
    3.7701   -1.7164   -0.0203 H   0  0  0  0  0  0  0  0  0  0  0  0
    4.7807    1.4670    0.8014 H   0  0  0  0  0  0  0  0  0  0  0  0
    5.4622   -0.8869   -0.8128 H   0  0  0  0  0  0  0  0  0  0  0  0
    5.5109   -0.7351    0.8569 H   0  0  0  0  0  0  0  0  0  0  0  0
    4.7059    1.2134   -2.2599 H   0  0  0  0  0  0  0  0  0  0  0  0
    4.1557    2.5736   -1.2529 H   0  0  0  0  0  0  0  0  0  0  0  0
    5.8309    4.0316   -0.1923 H   0  0  0  0  0  0  0  0  0  0  0  0
    8.1191    4.9414   -0.2455 H   0  0  0  0  0  0  0  0  0  0  0  0
    9.8689    3.7613   -1.4029 H   0  0  0  0  0  0  0  0  0  0  0  0
    9.3562    1.6063   -2.5519 H   0  0  0  0  0  0  0  0  0  0  0  0
    7.1092    0.6686   -2.5264 H   0  0  0  0  0  0  0  0  0  0  0  0
    0.7006   -4.0850    3.0394 H   0  0  0  0  0  0  0  0  0  0  0  0
   -0.5101   -2.8711    3.5243 H   0  0  0  0  0  0  0  0  0  0  0  0
   -2.0158   -4.5787    3.1757 H   0  0  0  0  0  0  0  0  0  0  0  0
   -0.8503   -5.5940    2.2767 H   0  0  0  0  0  0  0  0  0  0  0  0
   -1.6471   -4.8752    0.2822 H   0  0  0  0  0  0  0  0  0  0  0  0
   -2.9509   -3.9254    1.1310 H   0  0  0  0  0  0  0  0  0  0  0  0
   -0.9266   -2.8277   -0.3989 H   0  0  0  0  0  0  0  0  0  0  0  0
   -3.5619   -2.2028   -0.3576 H   0  0  0  0  0  0  0  0  0  0  0  0
   -3.7338    0.2682    1.3935 H   0  0  0  0  0  0  0  0  0  0  0  0
   -3.2614    0.5929   -1.0683 H   0  0  0  0  0  0  0  0  0  0  0  0
   -4.6527   -0.4273   -1.4578 H   0  0  0  0  0  0  0  0  0  0  0  0
   -6.8829    0.4996   -1.3864 H   0  0  0  0  0  0  0  0  0  0  0  0
   -8.2942    2.4977   -1.3255 H   0  0  0  0  0  0  0  0  0  0  0  0
   -8.0403    5.1207    0.2797 H   0  0  0  0  0  0  0  0  0  0  0  0
   -5.0114    4.7808    0.0930 H   0  0  0  0  0  0  0  0  0  0  0  0
   -3.6148    2.7516    0.0229 H   0  0  0  0  0  0  0  0  0  0  0  0
   -6.5045    0.5138    2.2031 H   0  0  0  0  0  0  0  0  0  0  0  0
   -7.4864   -0.5468    1.1689 H   0  0  0  0  0  0  0  0  0  0  0  0
  1  2  1  0
  2  3  1  0
  3  4  1  0
  4  5  2  0
  4  6  1  0
  6  7  1  0
  6  8  1  0
  8  9  1  0
  9 10  2  0
 10 11  1  0
 11 12  2  0
 12 13  1  0
 13 14  2  0
  2 15  1  0
 15 16  2  0
 15 17  1  0
 17 18  1  0
 18 19  1  0
 19 20  1  0
 20 21  1  0
 21 22  1  0
 22 23  2  0
 22 24  1  0
 24 25  1  0
 25 26  1  0
 26 27  1  0
 27 28  2  0
 28 29  1  0
 29 30  2  0
 30 31  1  0
 30 32  1  0
 32 33  2  0
 25 34  1  0
 34 35  1  0
 34 36  2  0
 14  9  1  0
 21 17  1  0
 33 27  1  0
  1 37  1  0
  1 38  1  0
  1 39  1  0
  2 40  1  6
  3 41  1  0
  6 42  1  1
  7 43  1  0
  7 44  1  0
  8 45  1  0
  8 46  1  0
 10 47  1  0
 11 48  1  0
 12 49  1  0
 13 50  1  0
 14 51  1  0
 18 52  1  0
 18 53  1  0
 19 54  1  0
 19 55  1  0
 20 56  1  0
 20 57  1  0
 21 58  1  6
 24 59  1  0
 25 60  1  1
 26 61  1  0
 26 62  1  0
 28 63  1  0
 29 64  1  0
 31 65  1  0
 32 66  1  0
 33 67  1  0
 35 68  1  0
 35 69  1  0
M  END
$$$$
[H]c1nc(N([H])[H])c(C(=O)N([H])c2nc([H])c([H])c([H])c2N2C([H])([H])C([H])([H])C(N([H])[H])(C([H])([H])[H])C([H])([H])C2([H])[H])nc1-c1nc(C(=O)N([H])[H])c([H])c([H])c1C(F)(F)F
     RDKit          3D

 61 64  0  0  0  0  0  0  0  0999 V2000
   -5.5985   -1.0459    1.8325 C   0  0  0  0  0  0  0  0  0  0  0  0
   -5.9156   -0.2975    0.5489 C   0  0  0  0  0  0  0  0  0  0  0  0
   -7.3691   -0.3681    0.3490 N   0  0  0  0  0  0  0  0  0  0  0  0
   -5.1526   -0.9415   -0.5548 C   0  0  0  0  0  0  0  0  0  0  0  0
   -4.2781   -0.0071   -1.3557 C   0  0  0  0  0  0  0  0  0  0  0  0
   -3.5379    0.9379   -0.5628 N   0  0  0  0  0  0  0  0  0  0  0  0
   -4.0412    1.2828    0.7456 C   0  0  0  0  0  0  0  0  0  0  0  0
   -5.5687    1.1606    0.6746 C   0  0  0  0  0  0  0  0  0  0  0  0
   -2.3537    1.5111   -1.0717 C   0  0  0  0  0  0  0  0  0  0  0  0
   -2.3874    2.7398   -1.7173 C   0  0  0  0  0  0  0  0  0  0  0  0
   -1.2671    3.3196   -2.2618 C   0  0  0  0  0  0  0  0  0  0  0  0
   -0.0733    2.6475   -2.1564 C   0  0  0  0  0  0  0  0  0  0  0  0
   -0.0557    1.4761   -1.5366 N   0  0  0  0  0  0  0  0  0  0  0  0
   -1.1015    0.8506   -0.9831 C   0  0  0  0  0  0  0  0  0  0  0  0
   -1.0471   -0.3868   -0.3660 N   0  0  0  0  0  0  0  0  0  0  0  0
   -0.1278   -1.3079   -0.0202 C   0  0  0  0  0  0  0  0  0  0  0  0
   -0.8636   -2.4108    0.4443 O   0  0  0  0  0  0  0  0  0  0  0  0
    1.2508   -1.6281    0.0715 C   0  0  0  0  0  0  0  0  0  0  0  0
    2.2745   -0.7713    0.0300 N   0  0  0  0  0  0  0  0  0  0  0  0
    3.5643   -1.0202    0.2592 C   0  0  0  0  0  0  0  0  0  0  0  0
    3.8433   -2.3814    0.5803 C   0  0  0  0  0  0  0  0  0  0  0  0
    2.8719   -3.2641    0.6303 N   0  0  0  0  0  0  0  0  0  0  0  0
    1.5942   -2.9719    0.3955 C   0  0  0  0  0  0  0  0  0  0  0  0
    0.6032   -3.9814    0.4268 N   0  0  0  0  0  0  0  0  0  0  0  0
    4.7259   -0.1691    0.2718 C   0  0  0  0  0  0  0  0  0  0  0  0
    5.9414   -0.7519    0.5642 N   0  0  0  0  0  0  0  0  0  0  0  0
    7.0929   -0.1109    0.6527 C   0  0  0  0  0  0  0  0  0  0  0  0
    7.1692    1.2481    0.4504 C   0  0  0  0  0  0  0  0  0  0  0  0
    5.9969    1.8852    0.1545 C   0  0  0  0  0  0  0  0  0  0  0  0
    4.8005    1.1624    0.0698 C   0  0  0  0  0  0  0  0  0  0  0  0
    3.6181    1.9296   -0.3576 C   0  0  0  0  0  0  0  0  0  0  0  0
    3.2130    1.4553   -1.6121 F   0  0  0  0  0  0  0  0  0  0  0  0
    4.0081    3.2547   -0.6432 F   0  0  0  0  0  0  0  0  0  0  0  0
    2.6160    2.0345    0.5224 F   0  0  0  0  0  0  0  0  0  0  0  0
    8.3053   -0.8484    0.9608 C   0  0  0  0  0  0  0  0  0  0  0  0
    8.2551   -2.2541    1.1167 N   0  0  0  0  0  0  0  0  0  0  0  0
    9.3962   -0.2109    1.0847 O   0  0  0  0  0  0  0  0  0  0  0  0
   -5.8406   -0.4537    2.7329 H   0  0  0  0  0  0  0  0  0  0  0  0
   -6.2379   -1.9693    1.8010 H   0  0  0  0  0  0  0  0  0  0  0  0
   -4.5263   -1.2700    1.8128 H   0  0  0  0  0  0  0  0  0  0  0  0
   -7.7581    0.3283    1.0559 H   0  0  0  0  0  0  0  0  0  0  0  0
   -7.5685    0.0714   -0.5786 H   0  0  0  0  0  0  0  0  0  0  0  0
   -4.5579   -1.8188   -0.2206 H   0  0  0  0  0  0  0  0  0  0  0  0
   -5.9237   -1.3470   -1.2759 H   0  0  0  0  0  0  0  0  0  0  0  0
   -3.5839   -0.6188   -1.9698 H   0  0  0  0  0  0  0  0  0  0  0  0
   -5.0051    0.5399   -2.0337 H   0  0  0  0  0  0  0  0  0  0  0  0
   -3.8426    2.3521    0.9877 H   0  0  0  0  0  0  0  0  0  0  0  0
   -3.7088    0.6005    1.5411 H   0  0  0  0  0  0  0  0  0  0  0  0
   -6.0578    1.6046    1.5598 H   0  0  0  0  0  0  0  0  0  0  0  0
   -5.8846    1.6430   -0.2889 H   0  0  0  0  0  0  0  0  0  0  0  0
   -3.3647    3.2161   -1.7638 H   0  0  0  0  0  0  0  0  0  0  0  0
   -1.3248    4.2931   -2.7689 H   0  0  0  0  0  0  0  0  0  0  0  0
    0.8304    3.1062   -2.5913 H   0  0  0  0  0  0  0  0  0  0  0  0
   -2.0945   -0.7565   -0.1636 H   0  0  0  0  0  0  0  0  0  0  0  0
    4.8852   -2.6719    0.7819 H   0  0  0  0  0  0  0  0  0  0  0  0
    0.2764   -4.3352    1.3434 H   0  0  0  0  0  0  0  0  0  0  0  0
    0.2364   -4.3494   -0.4578 H   0  0  0  0  0  0  0  0  0  0  0  0
    8.1151    1.7823    0.5232 H   0  0  0  0  0  0  0  0  0  0  0  0
    6.0430    2.9502   -0.0075 H   0  0  0  0  0  0  0  0  0  0  0  0
    9.1058   -2.8134    0.9406 H   0  0  0  0  0  0  0  0  0  0  0  0
    7.3858   -2.7281    1.4024 H   0  0  0  0  0  0  0  0  0  0  0  0
  1  2  1  0
  2  3  1  0
  2  4  1  0
  4  5  1  0
  5  6  1  0
  6  7  1  0
  7  8  1  0
  6  9  1  0
  9 10  2  0
 10 11  1  0
 11 12  2  0
 12 13  1  0
 13 14  2  0
 14 15  1  0
 15 16  1  0
 16 17  2  0
 16 18  1  0
 18 19  2  0
 19 20  1  0
 20 21  2  0
 21 22  1  0
 22 23  2  0
 23 24  1  0
 20 25  1  0
 25 26  2  0
 26 27  1  0
 27 28  2  0
 28 29  1  0
 29 30  2  0
 30 31  1  0
 31 32  1  0
 31 33  1  0
 31 34  1  0
 27 35  1  0
 35 36  1  0
 35 37  2  0
  8  2  1  0
 14  9  1  0
 23 18  1  0
 30 25  1  0
  1 38  1  0
  1 39  1  0
  1 40  1  0
  3 41  1  0
  3 42  1  0
  4 43  1  0
  4 44  1  0
  5 45  1  0
  5 46  1  0
  7 47  1  0
  7 48  1  0
  8 49  1  0
  8 50  1  0
 10 51  1  0
 11 52  1  0
 12 53  1  0
 15 54  1  0
 21 55  1  0
 24 56  1  0
 24 57  1  0
 28 58  1  0
 29 59  1  0
 36 60  1  0
 36 61  1  0
M  END
$$$$
[H]c1nc([H])c(Cl)c(N([H])C(=O)N([H])c2c([H])c(-c3c([H])c([H])c([H])c(-c4c([H])c([H])c([H])c(C(=O)N([H])C5([H])C([H])([H])C5([H])[H])c4[H])c3[H])nn(C([H])([H])C([H])([H])[H])c2=O)c1Cl
     RDKit          3D

 63 67  0  0  0  0  0  0  0  0999 V2000
   -1.7312   -5.2029    0.7561 C   0  0  0  0  0  0  0  0  0  0  0  0
   -2.0933   -4.6105   -0.5897 C   0  0  0  0  0  0  0  0  0  0  0  0
   -2.2961   -3.1716   -0.3654 N   0  0  0  0  0  0  0  0  0  0  0  0
   -1.2977   -2.3199   -0.4741 N   0  0  0  0  0  0  0  0  0  0  0  0
   -1.4598   -0.9943   -0.2739 C   0  0  0  0  0  0  0  0  0  0  0  0
   -2.7031   -0.4754    0.0584 C   0  0  0  0  0  0  0  0  0  0  0  0
   -3.7784   -1.3285    0.1834 C   0  0  0  0  0  0  0  0  0  0  0  0
   -5.0998   -0.9718    0.5121 N   0  0  0  0  0  0  0  0  0  0  0  0
   -5.5744    0.3025    0.7639 C   0  0  0  0  0  0  0  0  0  0  0  0
   -4.8537    1.3224    0.7262 O   0  0  0  0  0  0  0  0  0  0  0  0
   -6.9506    0.5615    1.0927 N   0  0  0  0  0  0  0  0  0  0  0  0
   -7.4103    1.8632    1.3425 C   0  0  0  0  0  0  0  0  0  0  0  0
   -7.8892    2.6195    0.2674 C   0  0  0  0  0  0  0  0  0  0  0  0
   -7.8895    1.9081   -1.3133 Cl  0  0  0  0  0  0  0  0  0  0  0  0
   -8.3585    3.9070    0.4278 C   0  0  0  0  0  0  0  0  0  0  0  0
   -8.3466    4.4254    1.6478 N   0  0  0  0  0  0  0  0  0  0  0  0
   -7.8935    3.7352    2.7212 C   0  0  0  0  0  0  0  0  0  0  0  0
   -7.4152    2.4340    2.5826 C   0  0  0  0  0  0  0  0  0  0  0  0
   -6.8333    1.5463    3.9620 Cl  0  0  0  0  0  0  0  0  0  0  0  0
   -3.4887   -2.6846   -0.0480 C   0  0  0  0  0  0  0  0  0  0  0  0
   -4.4403   -3.5051    0.0545 O   0  0  0  0  0  0  0  0  0  0  0  0
   -0.3175   -0.0878   -0.4079 C   0  0  0  0  0  0  0  0  0  0  0  0
   -0.3808    1.2668   -0.2213 C   0  0  0  0  0  0  0  0  0  0  0  0
    0.7283    2.0937   -0.3590 C   0  0  0  0  0  0  0  0  0  0  0  0
    1.9343    1.5229   -0.6963 C   0  0  0  0  0  0  0  0  0  0  0  0
    2.0505    0.1693   -0.8944 C   0  0  0  0  0  0  0  0  0  0  0  0
    0.9319   -0.6225   -0.7500 C   0  0  0  0  0  0  0  0  0  0  0  0
    3.3016   -0.4826   -1.2527 C   0  0  0  0  0  0  0  0  0  0  0  0
    3.3139   -1.6204   -2.0299 C   0  0  0  0  0  0  0  0  0  0  0  0
    4.5053   -2.2347   -2.3680 C   0  0  0  0  0  0  0  0  0  0  0  0
    5.6858   -1.6910   -1.9150 C   0  0  0  0  0  0  0  0  0  0  0  0
    5.7309   -0.5466   -1.1291 C   0  0  0  0  0  0  0  0  0  0  0  0
    4.5183    0.0330   -0.8162 C   0  0  0  0  0  0  0  0  0  0  0  0
    7.0014   -0.0054   -0.6727 C   0  0  0  0  0  0  0  0  0  0  0  0
    8.0578   -0.5763   -1.0408 O   0  0  0  0  0  0  0  0  0  0  0  0
    7.1094    1.1332    0.1662 N   0  0  0  0  0  0  0  0  0  0  0  0
    8.3745    1.6589    0.6105 C   0  0  0  0  0  0  0  0  0  0  0  0
    8.4499    3.1691    0.6971 C   0  0  0  0  0  0  0  0  0  0  0  0
    8.5119    2.3204    1.9466 C   0  0  0  0  0  0  0  0  0  0  0  0
   -1.6404   -6.3104    0.6734 H   0  0  0  0  0  0  0  0  0  0  0  0
   -2.5777   -4.9514    1.4439 H   0  0  0  0  0  0  0  0  0  0  0  0
   -0.8091   -4.7229    1.1269 H   0  0  0  0  0  0  0  0  0  0  0  0
   -3.0675   -5.0827   -0.9047 H   0  0  0  0  0  0  0  0  0  0  0  0
   -1.3395   -4.8101   -1.3561 H   0  0  0  0  0  0  0  0  0  0  0  0
   -2.8422    0.5729    0.2195 H   0  0  0  0  0  0  0  0  0  0  0  0
   -5.8306   -1.7540    0.5799 H   0  0  0  0  0  0  0  0  0  0  0  0
   -7.6027   -0.2372    1.1422 H   0  0  0  0  0  0  0  0  0  0  0  0
   -8.7212    4.4550   -0.4435 H   0  0  0  0  0  0  0  0  0  0  0  0
   -7.9038    4.2010    3.6969 H   0  0  0  0  0  0  0  0  0  0  0  0
   -1.3119    1.7473    0.0443 H   0  0  0  0  0  0  0  0  0  0  0  0
    0.6104    3.1661   -0.1966 H   0  0  0  0  0  0  0  0  0  0  0  0
    2.8256    2.1460   -0.8123 H   0  0  0  0  0  0  0  0  0  0  0  0
    0.9587   -1.6919   -0.8921 H   0  0  0  0  0  0  0  0  0  0  0  0
    2.3492   -2.0033   -2.3579 H   0  0  0  0  0  0  0  0  0  0  0  0
    4.4746   -3.1126   -2.9702 H   0  0  0  0  0  0  0  0  0  0  0  0
    6.6193   -2.1645   -2.1748 H   0  0  0  0  0  0  0  0  0  0  0  0
    4.4656    0.9195   -0.2135 H   0  0  0  0  0  0  0  0  0  0  0  0
    6.2450    1.6066    0.4725 H   0  0  0  0  0  0  0  0  0  0  0  0
    9.2668    1.1108    0.2329 H   0  0  0  0  0  0  0  0  0  0  0  0
    9.3786    3.6813    0.3553 H   0  0  0  0  0  0  0  0  0  0  0  0
    7.5326    3.7604    0.6147 H   0  0  0  0  0  0  0  0  0  0  0  0
    7.6790    2.3340    2.6702 H   0  0  0  0  0  0  0  0  0  0  0  0
    9.5371    2.2791    2.4085 H   0  0  0  0  0  0  0  0  0  0  0  0
  1  2  1  0
  2  3  1  0
  3  4  1  0
  4  5  2  0
  5  6  1  0
  6  7  2  0
  7  8  1  0
  8  9  1  0
  9 10  2  0
  9 11  1  0
 11 12  1  0
 12 13  2  0
 13 14  1  0
 13 15  1  0
 15 16  2  0
 16 17  1  0
 17 18  2  0
 18 19  1  0
  7 20  1  0
 20 21  2  0
  5 22  1  0
 22 23  2  0
 23 24  1  0
 24 25  2  0
 25 26  1  0
 26 27  2  0
 26 28  1  0
 28 29  2  0
 29 30  1  0
 30 31  2  0
 31 32  1  0
 32 33  2  0
 32 34  1  0
 34 35  2  0
 34 36  1  0
 36 37  1  0
 37 38  1  0
 38 39  1  0
 20  3  1  0
 27 22  1  0
 33 28  1  0
 39 37  1  0
 18 12  1  0
  1 40  1  0
  1 41  1  0
  1 42  1  0
  2 43  1  0
  2 44  1  0
  6 45  1  0
  8 46  1  0
 11 47  1  0
 15 48  1  0
 17 49  1  0
 23 50  1  0
 24 51  1  0
 25 52  1  0
 27 53  1  0
 29 54  1  0
 30 55  1  0
 31 56  1  0
 33 57  1  0
 36 58  1  0
 37 59  1  0
 38 60  1  0
 38 61  1  0
 39 62  1  0
 39 63  1  0
M  END
$$$$
[H]c1c([H])c(C([H])([H])N2C([H])([H])C([H])([H])N(C([H])([H])[H])C([H])([H])C2([H])[H])c(C(F)(F)F)c([H])c1C(=O)N([H])c1c([H])c([H])c(C([H])([H])[H])c(C(=O)N([H])[H])c1[H]
     RDKit          3D

 56 58  0  0  0  0  0  0  0  0999 V2000
    7.7340   -1.5634   -1.0979 C   0  0  0  0  0  0  0  0  0  0  0  0
    6.3977   -1.0603   -0.8380 N   0  0  0  0  0  0  0  0  0  0  0  0
    5.8045   -0.6319   -2.0866 C   0  0  0  0  0  0  0  0  0  0  0  0
    4.4552    0.0186   -1.8811 C   0  0  0  0  0  0  0  0  0  0  0  0
    4.4111    0.8876   -0.7576 N   0  0  0  0  0  0  0  0  0  0  0  0
    3.6396    0.4943    0.3590 C   0  0  0  0  0  0  0  0  0  0  0  0
    2.1961    0.3931    0.2135 C   0  0  0  0  0  0  0  0  0  0  0  0
    1.5817    0.7363   -0.9605 C   0  0  0  0  0  0  0  0  0  0  0  0
    0.2028    0.6790   -1.1491 C   0  0  0  0  0  0  0  0  0  0  0  0
   -0.6134    0.2585   -0.1164 C   0  0  0  0  0  0  0  0  0  0  0  0
   -0.0043   -0.0832    1.0527 C   0  0  0  0  0  0  0  0  0  0  0  0
    1.3685   -0.0325    1.2591 C   0  0  0  0  0  0  0  0  0  0  0  0
    1.9455   -0.4178    2.5470 C   0  0  0  0  0  0  0  0  0  0  0  0
    2.6469    0.5893    3.1858 F   0  0  0  0  0  0  0  0  0  0  0  0
    2.6850   -1.5872    2.4799 F   0  0  0  0  0  0  0  0  0  0  0  0
    0.8909   -0.7187    3.4219 F   0  0  0  0  0  0  0  0  0  0  0  0
   -2.0807    0.1889   -0.3183 C   0  0  0  0  0  0  0  0  0  0  0  0
   -2.4920    0.1895   -1.4806 O   0  0  0  0  0  0  0  0  0  0  0  0
   -2.9563    0.1261    0.7842 N   0  0  0  0  0  0  0  0  0  0  0  0
   -4.3503    0.0486    0.7998 C   0  0  0  0  0  0  0  0  0  0  0  0
   -5.0101    0.3057    1.9972 C   0  0  0  0  0  0  0  0  0  0  0  0
   -6.3774    0.2273    2.0601 C   0  0  0  0  0  0  0  0  0  0  0  0
   -7.1701   -0.1061    0.9572 C   0  0  0  0  0  0  0  0  0  0  0  0
   -8.6371   -0.1612    1.1220 C   0  0  0  0  0  0  0  0  0  0  0  0
   -6.4975   -0.3560   -0.2135 C   0  0  0  0  0  0  0  0  0  0  0  0
   -5.0866   -0.2776   -0.2877 C   0  0  0  0  0  0  0  0  0  0  0  0
   -7.2301   -0.7154   -1.4139 C   0  0  0  0  0  0  0  0  0  0  0  0
   -8.6253   -0.8574   -1.4540 N   0  0  0  0  0  0  0  0  0  0  0  0
   -6.5479   -0.9102   -2.4860 O   0  0  0  0  0  0  0  0  0  0  0  0
    5.7561    1.1881   -0.3213 C   0  0  0  0  0  0  0  0  0  0  0  0
    6.5023   -0.0246    0.1412 C   0  0  0  0  0  0  0  0  0  0  0  0
    8.1689   -1.8419   -0.1139 H   0  0  0  0  0  0  0  0  0  0  0  0
    8.3744   -0.7802   -1.5498 H   0  0  0  0  0  0  0  0  0  0  0  0
    7.6837   -2.4739   -1.7141 H   0  0  0  0  0  0  0  0  0  0  0  0
    6.4802    0.1210   -2.5793 H   0  0  0  0  0  0  0  0  0  0  0  0
    5.6629   -1.5339   -2.7135 H   0  0  0  0  0  0  0  0  0  0  0  0
    4.2784    0.6355   -2.8114 H   0  0  0  0  0  0  0  0  0  0  0  0
    3.6702   -0.7599   -1.8990 H   0  0  0  0  0  0  0  0  0  0  0  0
    3.8324    1.2894    1.1520 H   0  0  0  0  0  0  0  0  0  0  0  0
    4.1171   -0.4047    0.8045 H   0  0  0  0  0  0  0  0  0  0  0  0
    2.1431    1.0900   -1.8191 H   0  0  0  0  0  0  0  0  0  0  0  0
   -0.2422    0.9600   -2.0966 H   0  0  0  0  0  0  0  0  0  0  0  0
   -0.6259   -0.4292    1.8969 H   0  0  0  0  0  0  0  0  0  0  0  0
   -2.4979    0.1391    1.7658 H   0  0  0  0  0  0  0  0  0  0  0  0
   -4.4708    0.5748    2.9126 H   0  0  0  0  0  0  0  0  0  0  0  0
   -6.8594    0.4317    3.0006 H   0  0  0  0  0  0  0  0  0  0  0  0
   -9.0765   -1.1638    1.0059 H   0  0  0  0  0  0  0  0  0  0  0  0
   -9.1244    0.6295    0.5244 H   0  0  0  0  0  0  0  0  0  0  0  0
   -8.8457    0.1307    2.2045 H   0  0  0  0  0  0  0  0  0  0  0  0
   -4.6429   -0.5070   -1.2700 H   0  0  0  0  0  0  0  0  0  0  0  0
   -9.0620   -1.7799   -1.2467 H   0  0  0  0  0  0  0  0  0  0  0  0
   -9.2605   -0.0693   -1.6981 H   0  0  0  0  0  0  0  0  0  0  0  0
    6.2963    1.6148   -1.1911 H   0  0  0  0  0  0  0  0  0  0  0  0
    5.7392    1.9591    0.4874 H   0  0  0  0  0  0  0  0  0  0  0  0
    6.1570   -0.4069    1.1214 H   0  0  0  0  0  0  0  0  0  0  0  0
    7.5655    0.2947    0.3085 H   0  0  0  0  0  0  0  0  0  0  0  0
  1  2  1  0
  2  3  1  0
  3  4  1  0
  4  5  1  0
  5  6  1  0
  6  7  1  0
  7  8  2  0
  8  9  1  0
  9 10  2  0
 10 11  1  0
 11 12  2  0
 12 13  1  0
 13 14  1  0
 13 15  1  0
 13 16  1  0
 10 17  1  0
 17 18  2  0
 17 19  1  0
 19 20  1  0
 20 21  2  0
 21 22  1  0
 22 23  2  0
 23 24  1  0
 23 25  1  0
 25 26  2  0
 25 27  1  0
 27 28  1  0
 27 29  2  0
  5 30  1  0
 30 31  1  0
 31  2  1  0
 12  7  1  0
 26 20  1  0
  1 32  1  0
  1 33  1  0
  1 34  1  0
  3 35  1  0
  3 36  1  0
  4 37  1  0
  4 38  1  0
  6 39  1  0
  6 40  1  0
  8 41  1  0
  9 42  1  0
 11 43  1  0
 19 44  1  0
 21 45  1  0
 22 46  1  0
 24 47  1  0
 24 48  1  0
 24 49  1  0
 26 50  1  0
 28 51  1  0
 28 52  1  0
 30 53  1  0
 30 54  1  0
 31 55  1  0
 31 56  1  0
M  END
$$$$
[H]N=C(N([H])[H])N([H])C([H])([H])C([H])([H])C([H])([H])[C@]([H])(C(=O)N([H])[C@]([H])(C(=O)N([H])[C@]([H])(C(=O)O[H])C([H])([H])C([H])([H])C([H])([H])C([H])([H])N([H])[H])C([H])([H])c1c([H])c([H])c([H])c([H])c1[H])N([H])C(=O)[C@@]([H])(N([H])[H])C([H])([H])c1c(C([H])([H])[H])c([H])c(O[H])c([H])c1C([H])([H])[H]
     RDKit          3D

 94 95  0  0  0  0  0  0  0  0999 V2000
   -5.8984   -1.0354   -2.5936 C   0  0  0  0  0  0  0  0  0  0  0  0
   -6.1093   -2.2711   -1.7559 C   0  0  0  0  0  0  0  0  0  0  0  0
   -7.3197   -2.9551   -1.9617 C   0  0  0  0  0  0  0  0  0  0  0  0
   -7.6151   -4.1101   -1.3051 C   0  0  0  0  0  0  0  0  0  0  0  0
   -8.8489   -4.7368   -1.5648 O   0  0  0  0  0  0  0  0  0  0  0  0
   -6.7097   -4.6207   -0.4200 C   0  0  0  0  0  0  0  0  0  0  0  0
   -5.5088   -3.9526   -0.2069 C   0  0  0  0  0  0  0  0  0  0  0  0
   -4.5424   -4.5332    0.7433 C   0  0  0  0  0  0  0  0  0  0  0  0
   -5.1937   -2.7640   -0.8744 C   0  0  0  0  0  0  0  0  0  0  0  0
   -3.9433   -2.1140   -0.5524 C   0  0  0  0  0  0  0  0  0  0  0  0
   -3.9985   -1.0203    0.5017 C   0  0  2  0  0  0  0  0  0  0  0  0
   -4.8332    0.0806    0.1760 N   0  0  0  0  0  0  0  0  0  0  0  0
   -2.6252   -0.6115    0.8848 C   0  0  0  0  0  0  0  0  0  0  0  0
   -1.9067   -1.4378    1.4879 O   0  0  0  0  0  0  0  0  0  0  0  0
   -2.1405    0.6592    0.5821 N   0  0  0  0  0  0  0  0  0  0  0  0
   -0.8143    1.1261    0.9344 C   0  0  2  0  0  0  0  0  0  0  0  0
   -0.8444    2.6019    1.1281 C   0  0  0  0  0  0  0  0  0  0  0  0
   -1.7850    3.0141    2.2190 C   0  0  0  0  0  0  0  0  0  0  0  0
   -1.7090    4.5411    2.3033 C   0  0  0  0  0  0  0  0  0  0  0  0
   -2.5831    4.9989    3.3310 N   0  0  0  0  0  0  0  0  0  0  0  0
   -2.6644    6.4031    3.6048 C   0  0  0  0  0  0  0  0  0  0  0  0
   -1.7474    7.3067    3.0092 N   0  0  0  0  0  0  0  0  0  0  0  0
   -3.5621    6.8649    4.3898 N   0  0  0  0  0  0  0  0  0  0  0  0
    0.1647    0.8280   -0.1576 C   0  0  0  0  0  0  0  0  0  0  0  0
   -0.1420    0.2777   -1.2248 O   0  0  0  0  0  0  0  0  0  0  0  0
    1.5104    1.1969    0.0578 N   0  0  0  0  0  0  0  0  0  0  0  0
    2.5544    0.9478   -0.9083 C   0  0  1  0  0  0  0  0  0  0  0  0
    3.2952    2.1815   -1.2632 C   0  0  0  0  0  0  0  0  0  0  0  0
    2.4962    3.2572   -1.8415 C   0  0  0  0  0  0  0  0  0  0  0  0
    1.9589    4.2148   -0.9846 C   0  0  0  0  0  0  0  0  0  0  0  0
    1.1843    5.2601   -1.4549 C   0  0  0  0  0  0  0  0  0  0  0  0
    0.9106    5.3978   -2.8029 C   0  0  0  0  0  0  0  0  0  0  0  0
    1.4395    4.4528   -3.6579 C   0  0  0  0  0  0  0  0  0  0  0  0
    2.2065    3.4200   -3.1810 C   0  0  0  0  0  0  0  0  0  0  0  0
    3.5249   -0.0025   -0.2613 C   0  0  0  0  0  0  0  0  0  0  0  0
    3.2630   -0.3796    0.9143 O   0  0  0  0  0  0  0  0  0  0  0  0
    4.6929   -0.4818   -0.8986 N   0  0  0  0  0  0  0  0  0  0  0  0
    5.5372   -1.4114   -0.1218 C   0  0  1  0  0  0  0  0  0  0  0  0
    5.6050   -2.7281   -0.8457 C   0  0  0  0  0  0  0  0  0  0  0  0
    6.4134   -3.7210   -0.1037 C   0  0  0  0  0  0  0  0  0  0  0  0
    6.4468   -5.0749   -0.8244 C   0  0  0  0  0  0  0  0  0  0  0  0
    7.2755   -5.9944    0.0568 C   0  0  0  0  0  0  0  0  0  0  0  0
    6.5786   -6.0473    1.3356 N   0  0  0  0  0  0  0  0  0  0  0  0
    6.8609   -0.7972   -0.0048 C   0  0  0  0  0  0  0  0  0  0  0  0
    7.8826   -1.3093    0.7505 O   0  0  0  0  0  0  0  0  0  0  0  0
    7.1057    0.2839   -0.6308 O   0  0  0  0  0  0  0  0  0  0  0  0
   -4.8386   -0.7755   -2.6863 H   0  0  0  0  0  0  0  0  0  0  0  0
   -6.3035   -1.3078   -3.6181 H   0  0  0  0  0  0  0  0  0  0  0  0
   -6.5723   -0.2593   -2.2305 H   0  0  0  0  0  0  0  0  0  0  0  0
   -8.0403   -2.5484   -2.6671 H   0  0  0  0  0  0  0  0  0  0  0  0
   -9.6597   -4.4745   -0.9848 H   0  0  0  0  0  0  0  0  0  0  0  0
   -6.9460   -5.5402    0.0999 H   0  0  0  0  0  0  0  0  0  0  0  0
   -4.9096   -5.5277    1.1080 H   0  0  0  0  0  0  0  0  0  0  0  0
   -3.5510   -4.7667    0.2886 H   0  0  0  0  0  0  0  0  0  0  0  0
   -4.4865   -3.9004    1.6389 H   0  0  0  0  0  0  0  0  0  0  0  0
   -3.1572   -2.8426   -0.1828 H   0  0  0  0  0  0  0  0  0  0  0  0
   -3.4422   -1.6805   -1.4706 H   0  0  0  0  0  0  0  0  0  0  0  0
   -4.4826   -1.5332    1.3972 H   0  0  0  0  0  0  0  0  0  0  0  0
   -5.8429   -0.0999    0.3849 H   0  0  0  0  0  0  0  0  0  0  0  0
   -4.5749    0.8746    0.8369 H   0  0  0  0  0  0  0  0  0  0  0  0
   -2.7530    1.3354    0.0687 H   0  0  0  0  0  0  0  0  0  0  0  0
   -0.4353    0.5366    1.7953 H   0  0  0  0  0  0  0  0  0  0  0  0
   -1.1103    3.0991    0.1458 H   0  0  0  0  0  0  0  0  0  0  0  0
    0.1837    3.0268    1.3376 H   0  0  0  0  0  0  0  0  0  0  0  0
   -2.7932    2.6555    1.9760 H   0  0  0  0  0  0  0  0  0  0  0  0
   -1.3973    2.6115    3.1932 H   0  0  0  0  0  0  0  0  0  0  0  0
   -2.0286    4.9413    1.2952 H   0  0  0  0  0  0  0  0  0  0  0  0
   -0.6586    4.8404    2.3990 H   0  0  0  0  0  0  0  0  0  0  0  0
   -3.1530    4.3256    3.8723 H   0  0  0  0  0  0  0  0  0  0  0  0
   -1.4473    7.1606    2.0411 H   0  0  0  0  0  0  0  0  0  0  0  0
   -1.3809    8.1098    3.5444 H   0  0  0  0  0  0  0  0  0  0  0  0
   -4.2748    6.3142    4.8767 H   0  0  0  0  0  0  0  0  0  0  0  0
    1.7775    1.6657    0.9405 H   0  0  0  0  0  0  0  0  0  0  0  0
    2.0942    0.4275   -1.7709 H   0  0  0  0  0  0  0  0  0  0  0  0
    3.8287    2.5765   -0.3863 H   0  0  0  0  0  0  0  0  0  0  0  0
    4.0721    1.8950   -2.0241 H   0  0  0  0  0  0  0  0  0  0  0  0
    2.1623    4.1250    0.0923 H   0  0  0  0  0  0  0  0  0  0  0  0
    0.7641    6.0094   -0.7818 H   0  0  0  0  0  0  0  0  0  0  0  0
    0.2977    6.2299   -3.1417 H   0  0  0  0  0  0  0  0  0  0  0  0
    1.2207    4.5657   -4.7102 H   0  0  0  0  0  0  0  0  0  0  0  0
    2.5951    2.7148   -3.8714 H   0  0  0  0  0  0  0  0  0  0  0  0
    4.9511   -0.2070   -1.8501 H   0  0  0  0  0  0  0  0  0  0  0  0
    5.0825   -1.5969    0.8537 H   0  0  0  0  0  0  0  0  0  0  0  0
    5.9952   -2.5643   -1.8934 H   0  0  0  0  0  0  0  0  0  0  0  0
    4.5383   -3.0595   -0.9852 H   0  0  0  0  0  0  0  0  0  0  0  0
    5.9634   -3.9081    0.8840 H   0  0  0  0  0  0  0  0  0  0  0  0
    7.4773   -3.3996   -0.0731 H   0  0  0  0  0  0  0  0  0  0  0  0
    5.4222   -5.4844   -0.8749 H   0  0  0  0  0  0  0  0  0  0  0  0
    6.9094   -4.9366   -1.8098 H   0  0  0  0  0  0  0  0  0  0  0  0
    8.2415   -5.4568    0.2784 H   0  0  0  0  0  0  0  0  0  0  0  0
    7.4410   -6.9849   -0.3879 H   0  0  0  0  0  0  0  0  0  0  0  0
    6.9942   -5.4279    2.0524 H   0  0  0  0  0  0  0  0  0  0  0  0
    5.5491   -5.9837    1.2423 H   0  0  0  0  0  0  0  0  0  0  0  0
    8.8156   -0.9800    0.6982 H   0  0  0  0  0  0  0  0  0  0  0  0
  1  2  1  0
  2  3  2  0
  3  4  1  0
  4  5  1  0
  4  6  2  0
  6  7  1  0
  7  8  1  0
  7  9  2  0
  9 10  1  0
 10 11  1  0
 11 12  1  0
 11 13  1  0
 13 14  2  0
 13 15  1  0
 15 16  1  0
 16 17  1  0
 17 18  1  0
 18 19  1  0
 19 20  1  0
 20 21  1  0
 21 22  1  0
 21 23  2  3
 16 24  1  0
 24 25  2  0
 24 26  1  0
 26 27  1  0
 27 28  1  0
 28 29  1  0
 29 30  2  0
 30 31  1  0
 31 32  2  0
 32 33  1  0
 33 34  2  0
 27 35  1  0
 35 36  2  0
 35 37  1  0
 37 38  1  0
 38 39  1  0
 39 40  1  0
 40 41  1  0
 41 42  1  0
 42 43  1  0
 38 44  1  0
 44 45  1  0
 44 46  2  0
  9  2  1  0
 34 29  1  0
  1 47  1  0
  1 48  1  0
  1 49  1  0
  3 50  1  0
  5 51  1  0
  6 52  1  0
  8 53  1  0
  8 54  1  0
  8 55  1  0
 10 56  1  0
 10 57  1  0
 11 58  1  1
 12 59  1  0
 12 60  1  0
 15 61  1  0
 16 62  1  1
 17 63  1  0
 17 64  1  0
 18 65  1  0
 18 66  1  0
 19 67  1  0
 19 68  1  0
 20 69  1  0
 22 70  1  0
 22 71  1  0
 23 72  1  0
 26 73  1  0
 27 74  1  6
 28 75  1  0
 28 76  1  0
 30 77  1  0
 31 78  1  0
 32 79  1  0
 33 80  1  0
 34 81  1  0
 37 82  1  0
 38 83  1  1
 39 84  1  0
 39 85  1  0
 40 86  1  0
 40 87  1  0
 41 88  1  0
 41 89  1  0
 42 90  1  0
 42 91  1  0
 43 92  1  0
 43 93  1  0
 45 94  1  0
M  END
$$$$
[H]c1nc(N([H])c2c([H])c([H])c(N3C([H])([H])C([H])([H])N(C(=O)C([H])([H])[H])C([H])([H])C3([H])[H])c([H])c2OC([H])([H])[H])nc(N([H])c2c([H])c([H])c([H])c([H])c2C(=O)C([H])([H])[H])c1Cl
     RDKit          3D

 62 65  0  0  0  0  0  0  0  0999 V2000
   -1.0702    3.0055    1.6186 C   0  0  0  0  0  0  0  0  0  0  0  0
   -0.3918    1.8993    1.0707 O   0  0  0  0  0  0  0  0  0  0  0  0
   -1.1497    0.7965    0.6613 C   0  0  0  0  0  0  0  0  0  0  0  0
   -2.5166    0.7868    0.7873 C   0  0  0  0  0  0  0  0  0  0  0  0
   -3.3099   -0.2927    0.3914 C   0  0  0  0  0  0  0  0  0  0  0  0
   -2.6251   -1.3518   -0.1368 C   0  0  0  0  0  0  0  0  0  0  0  0
   -1.2266   -1.3549   -0.2713 C   0  0  0  0  0  0  0  0  0  0  0  0
   -0.4546   -0.3000    0.1160 C   0  0  0  0  0  0  0  0  0  0  0  0
    0.9443   -0.1900    0.0315 N   0  0  0  0  0  0  0  0  0  0  0  0
    1.8213   -1.1719   -0.4795 C   0  0  0  0  0  0  0  0  0  0  0  0
    1.4944   -2.3639   -0.9684 N   0  0  0  0  0  0  0  0  0  0  0  0
    2.3569   -3.2569   -1.4385 C   0  0  0  0  0  0  0  0  0  0  0  0
    3.7030   -2.9623   -1.4365 C   0  0  0  0  0  0  0  0  0  0  0  0
    4.8666   -4.1358   -2.0573 Cl  0  0  0  0  0  0  0  0  0  0  0  0
    4.1047   -1.7368   -0.9400 C   0  0  0  0  0  0  0  0  0  0  0  0
    5.4647   -1.4289   -0.8948 N   0  0  0  0  0  0  0  0  0  0  0  0
    6.1189   -0.2539   -0.4744 C   0  0  0  0  0  0  0  0  0  0  0  0
    5.4345    0.9557   -0.5377 C   0  0  0  0  0  0  0  0  0  0  0  0
    6.0917    2.1529   -0.2395 C   0  0  0  0  0  0  0  0  0  0  0  0
    7.4154    2.1461    0.1167 C   0  0  0  0  0  0  0  0  0  0  0  0
    8.1132    0.9789    0.1885 C   0  0  0  0  0  0  0  0  0  0  0  0
    7.4483   -0.2383   -0.1115 C   0  0  0  0  0  0  0  0  0  0  0  0
    8.1950   -1.4610    0.0633 C   0  0  0  0  0  0  0  0  0  0  0  0
    9.6570   -1.3684    0.4013 C   0  0  0  0  0  0  0  0  0  0  0  0
    7.7327   -2.5851   -0.0420 O   0  0  0  0  0  0  0  0  0  0  0  0
    3.1696   -0.9253   -0.4986 N   0  0  0  0  0  0  0  0  0  0  0  0
   -4.7014   -0.2065    0.5564 N   0  0  0  0  0  0  0  0  0  0  0  0
   -5.3120    1.0476    0.9955 C   0  0  0  0  0  0  0  0  0  0  0  0
   -6.8110    0.9791    0.7813 C   0  0  0  0  0  0  0  0  0  0  0  0
   -7.1445    0.2905   -0.4763 N   0  0  0  0  0  0  0  0  0  0  0  0
   -6.4390   -0.9187   -0.8831 C   0  0  0  0  0  0  0  0  0  0  0  0
   -5.5709   -1.3314    0.3104 C   0  0  0  0  0  0  0  0  0  0  0  0
   -8.1590    0.7862   -1.3208 C   0  0  0  0  0  0  0  0  0  0  0  0
   -8.8906    2.0094   -0.9332 C   0  0  0  0  0  0  0  0  0  0  0  0
   -8.4433    0.2061   -2.3851 O   0  0  0  0  0  0  0  0  0  0  0  0
   -1.6628    3.5488    0.8391 H   0  0  0  0  0  0  0  0  0  0  0  0
   -0.2898    3.7316    1.9814 H   0  0  0  0  0  0  0  0  0  0  0  0
   -1.7347    2.6887    2.4263 H   0  0  0  0  0  0  0  0  0  0  0  0
   -3.0121    1.6496    1.2125 H   0  0  0  0  0  0  0  0  0  0  0  0
   -3.1863   -2.2323   -0.4716 H   0  0  0  0  0  0  0  0  0  0  0  0
   -0.7934   -2.2374   -0.6983 H   0  0  0  0  0  0  0  0  0  0  0  0
    1.4192    0.7199    0.3830 H   0  0  0  0  0  0  0  0  0  0  0  0
    2.0349   -4.2357   -1.8350 H   0  0  0  0  0  0  0  0  0  0  0  0
    6.0971   -2.2015   -1.2931 H   0  0  0  0  0  0  0  0  0  0  0  0
    4.3908    1.0176   -0.8339 H   0  0  0  0  0  0  0  0  0  0  0  0
    5.5427    3.0912   -0.2927 H   0  0  0  0  0  0  0  0  0  0  0  0
    7.9639    3.0575    0.3554 H   0  0  0  0  0  0  0  0  0  0  0  0
    9.1714    0.9378    0.4695 H   0  0  0  0  0  0  0  0  0  0  0  0
   10.1535   -2.3464    0.2668 H   0  0  0  0  0  0  0  0  0  0  0  0
   10.1836   -0.6653   -0.2774 H   0  0  0  0  0  0  0  0  0  0  0  0
    9.8290   -1.0367    1.4258 H   0  0  0  0  0  0  0  0  0  0  0  0
   -4.8819    1.9259    0.4688 H   0  0  0  0  0  0  0  0  0  0  0  0
   -5.1450    1.1831    2.0817 H   0  0  0  0  0  0  0  0  0  0  0  0
   -7.2712    1.9827    0.7365 H   0  0  0  0  0  0  0  0  0  0  0  0
   -7.2259    0.3423    1.5892 H   0  0  0  0  0  0  0  0  0  0  0  0
   -5.7453   -0.6321   -1.6991 H   0  0  0  0  0  0  0  0  0  0  0  0
   -7.1305   -1.7347   -1.1654 H   0  0  0  0  0  0  0  0  0  0  0  0
   -6.2672   -1.4108    1.1860 H   0  0  0  0  0  0  0  0  0  0  0  0
   -5.0646   -2.2580    0.0829 H   0  0  0  0  0  0  0  0  0  0  0  0
   -9.8214    2.1084   -1.5633 H   0  0  0  0  0  0  0  0  0  0  0  0
   -8.2520    2.8758   -1.1225 H   0  0  0  0  0  0  0  0  0  0  0  0
   -9.2178    1.9236    0.1301 H   0  0  0  0  0  0  0  0  0  0  0  0
  1  2  1  0
  2  3  1  0
  3  4  2  0
  4  5  1  0
  5  6  2  0
  6  7  1  0
  7  8  2  0
  8  9  1  0
  9 10  1  0
 10 11  2  0
 11 12  1  0
 12 13  2  0
 13 14  1  0
 13 15  1  0
 15 16  1  0
 16 17  1  0
 17 18  2  0
 18 19  1  0
 19 20  2  0
 20 21  1  0
 21 22  2  0
 22 23  1  0
 23 24  1  0
 23 25  2  0
 15 26  2  0
  5 27  1  0
 27 28  1  0
 28 29  1  0
 29 30  1  0
 30 31  1  0
 31 32  1  0
 30 33  1  0
 33 34  1  0
 33 35  2  0
  8  3  1  0
 26 10  1  0
 32 27  1  0
 22 17  1  0
  1 36  1  0
  1 37  1  0
  1 38  1  0
  4 39  1  0
  6 40  1  0
  7 41  1  0
  9 42  1  0
 12 43  1  0
 16 44  1  0
 18 45  1  0
 19 46  1  0
 20 47  1  0
 21 48  1  0
 24 49  1  0
 24 50  1  0
 24 51  1  0
 28 52  1  0
 28 53  1  0
 29 54  1  0
 29 55  1  0
 31 56  1  0
 31 57  1  0
 32 58  1  0
 32 59  1  0
 34 60  1  0
 34 61  1  0
 34 62  1  0
M  END
$$$$
[H]c1nc([H])c(-c2c([H])c3nc(N([H])C(=O)N([H])C([H])([H])C([H])([H])[H])sc3n(C3([H])C([H])([H])C([H])([H])C([H])([H])C3([H])[H])c2=O)c([H])c1[H]
     RDKit          3D

 48 51  0  0  0  0  0  0  0  0999 V2000
    7.1573    0.7564    0.3172 C   0  0  0  0  0  0  0  0  0  0  0  0
    7.0264    0.2847   -1.1160 C   0  0  0  0  0  0  0  0  0  0  0  0
    5.9595   -0.6772   -1.2166 N   0  0  0  0  0  0  0  0  0  0  0  0
    4.6374   -0.3041   -0.8580 C   0  0  0  0  0  0  0  0  0  0  0  0
    4.3670    0.8570   -0.4498 O   0  0  0  0  0  0  0  0  0  0  0  0
    3.6001   -1.2324   -0.9538 N   0  0  0  0  0  0  0  0  0  0  0  0
    2.2345   -0.9156   -0.6046 C   0  0  0  0  0  0  0  0  0  0  0  0
    1.7381    0.2254   -0.1609 N   0  0  0  0  0  0  0  0  0  0  0  0
    0.4725    0.3327    0.1052 C   0  0  0  0  0  0  0  0  0  0  0  0
   -0.1856    1.4886    0.5840 C   0  0  0  0  0  0  0  0  0  0  0  0
   -1.5398    1.4320    0.8165 C   0  0  0  0  0  0  0  0  0  0  0  0
   -2.2623    2.6186    1.3217 C   0  0  0  0  0  0  0  0  0  0  0  0
   -3.1508    2.5684    2.3681 C   0  0  0  0  0  0  0  0  0  0  0  0
   -3.7740    3.7512    2.7523 C   0  0  0  0  0  0  0  0  0  0  0  0
   -3.5241    4.9460    2.1193 C   0  0  0  0  0  0  0  0  0  0  0  0
   -2.6561    4.9755    1.1030 N   0  0  0  0  0  0  0  0  0  0  0  0
   -2.0544    3.8557    0.7256 C   0  0  0  0  0  0  0  0  0  0  0  0
   -2.3018    0.3070    0.6092 C   0  0  0  0  0  0  0  0  0  0  0  0
   -3.5035    0.3064    0.8303 O   0  0  0  0  0  0  0  0  0  0  0  0
   -1.6627   -0.7921    0.1515 N   0  0  0  0  0  0  0  0  0  0  0  0
   -2.3183   -2.0285   -0.1107 C   0  0  0  0  0  0  0  0  0  0  0  0
   -1.9756   -2.6298   -1.4593 C   0  0  0  0  0  0  0  0  0  0  0  0
   -3.2621   -3.2996   -1.9660 C   0  0  0  0  0  0  0  0  0  0  0  0
   -4.0991   -3.4099   -0.6830 C   0  0  0  0  0  0  0  0  0  0  0  0
   -3.7900   -2.0102   -0.1134 C   0  0  0  0  0  0  0  0  0  0  0  0
   -0.3147   -0.7723   -0.0910 C   0  0  0  0  0  0  0  0  0  0  0  0
    0.8417   -1.9068   -0.6541 S   0  0  0  0  0  0  0  0  0  0  0  0
    6.6836    1.7429    0.4238 H   0  0  0  0  0  0  0  0  0  0  0  0
    6.6305    0.0205    0.9888 H   0  0  0  0  0  0  0  0  0  0  0  0
    8.2240    0.7809    0.6158 H   0  0  0  0  0  0  0  0  0  0  0  0
    6.8195    1.1589   -1.7678 H   0  0  0  0  0  0  0  0  0  0  0  0
    7.9603   -0.1673   -1.4865 H   0  0  0  0  0  0  0  0  0  0  0  0
    6.1475   -1.6452   -1.5501 H   0  0  0  0  0  0  0  0  0  0  0  0
    3.7811   -2.2019   -1.2865 H   0  0  0  0  0  0  0  0  0  0  0  0
    0.3508    2.4116    0.7702 H   0  0  0  0  0  0  0  0  0  0  0  0
   -3.3511    1.6344    2.8735 H   0  0  0  0  0  0  0  0  0  0  0  0
   -4.4795    3.7445    3.5734 H   0  0  0  0  0  0  0  0  0  0  0  0
   -3.9932    5.8744    2.3976 H   0  0  0  0  0  0  0  0  0  0  0  0
   -1.3473    3.8851   -0.1039 H   0  0  0  0  0  0  0  0  0  0  0  0
   -1.9783   -2.7582    0.6538 H   0  0  0  0  0  0  0  0  0  0  0  0
   -1.6473   -1.8454   -2.1751 H   0  0  0  0  0  0  0  0  0  0  0  0
   -1.2497   -3.4632   -1.3667 H   0  0  0  0  0  0  0  0  0  0  0  0
   -3.8002   -2.5982   -2.6371 H   0  0  0  0  0  0  0  0  0  0  0  0
   -3.0790   -4.2787   -2.4008 H   0  0  0  0  0  0  0  0  0  0  0  0
   -3.6341   -4.1497   -0.0346 H   0  0  0  0  0  0  0  0  0  0  0  0
   -5.1590   -3.5349   -0.8868 H   0  0  0  0  0  0  0  0  0  0  0  0
   -4.2552   -1.3203   -0.8451 H   0  0  0  0  0  0  0  0  0  0  0  0
   -4.2828   -2.0175    0.8774 H   0  0  0  0  0  0  0  0  0  0  0  0
  1  2  1  0
  2  3  1  0
  3  4  1  0
  4  5  2  0
  4  6  1  0
  6  7  1  0
  7  8  2  0
  8  9  1  0
  9 10  1  0
 10 11  2  0
 11 12  1  0
 12 13  2  0
 13 14  1  0
 14 15  2  0
 15 16  1  0
 16 17  2  0
 11 18  1  0
 18 19  2  0
 18 20  1  0
 20 21  1  0
 21 22  1  0
 22 23  1  0
 23 24  1  0
 24 25  1  0
 20 26  1  0
 26 27  1  0
 27  7  1  0
 26  9  2  0
 17 12  1  0
 25 21  1  0
  1 28  1  0
  1 29  1  0
  1 30  1  0
  2 31  1  0
  2 32  1  0
  3 33  1  0
  6 34  1  0
 10 35  1  0
 13 36  1  0
 14 37  1  0
 15 38  1  0
 17 39  1  0
 21 40  1  0
 22 41  1  0
 22 42  1  0
 23 43  1  0
 23 44  1  0
 24 45  1  0
 24 46  1  0
 25 47  1  0
 25 48  1  0
M  END
$$$$
[H]c1nc(N([H])c2c([H])c([H])c(OC([H])([H])c3c([H])c([H])c([H])c(F)c3[H])c(Cl)c2[H])c2c(n1)c([H])c([H])n2[H]
     RDKit          3D

 40 43  0  0  0  0  0  0  0  0999 V2000
    6.3502   -2.0474   -3.0473 F   0  0  0  0  0  0  0  0  0  0  0  0
    6.2739   -1.1734   -2.0175 C   0  0  0  0  0  0  0  0  0  0  0  0
    7.4175   -0.5712   -1.4953 C   0  0  0  0  0  0  0  0  0  0  0  0
    7.3177    0.3159   -0.4466 C   0  0  0  0  0  0  0  0  0  0  0  0
    6.0819    0.6089    0.0883 C   0  0  0  0  0  0  0  0  0  0  0  0
    4.9312    0.0304   -0.4051 C   0  0  0  0  0  0  0  0  0  0  0  0
    3.6140    0.3605    0.1856 C   0  0  0  0  0  0  0  0  0  0  0  0
    2.6261   -0.3611   -0.5007 O   0  0  0  0  0  0  0  0  0  0  0  0
    1.2726   -0.2778   -0.1918 C   0  0  0  0  0  0  0  0  0  0  0  0
    0.8633    0.5447    0.8305 C   0  0  0  0  0  0  0  0  0  0  0  0
   -0.4682    0.6377    1.1465 C   0  0  0  0  0  0  0  0  0  0  0  0
   -1.4745   -0.0718    0.4768 C   0  0  0  0  0  0  0  0  0  0  0  0
   -2.8031    0.0696    0.8731 N   0  0  0  0  0  0  0  0  0  0  0  0
   -3.9795   -0.2941    0.2225 C   0  0  0  0  0  0  0  0  0  0  0  0
   -4.0588   -0.8570   -0.9898 N   0  0  0  0  0  0  0  0  0  0  0  0
   -5.2122   -1.1842   -1.5967 C   0  0  0  0  0  0  0  0  0  0  0  0
   -6.4023   -0.9584   -1.0021 N   0  0  0  0  0  0  0  0  0  0  0  0
   -6.4164   -0.3930    0.2240 C   0  0  0  0  0  0  0  0  0  0  0  0
   -7.4723   -0.0471    1.0669 C   0  0  0  0  0  0  0  0  0  0  0  0
   -6.8755    0.4935    2.1855 C   0  0  0  0  0  0  0  0  0  0  0  0
   -5.5220    0.4712    2.0172 N   0  0  0  0  0  0  0  0  0  0  0  0
   -5.2238   -0.0656    0.8276 C   0  0  0  0  0  0  0  0  0  0  0  0
   -1.0442   -0.8867   -0.5392 C   0  0  0  0  0  0  0  0  0  0  0  0
    0.3184   -0.9903   -0.8729 C   0  0  0  0  0  0  0  0  0  0  0  0
    0.8261   -2.0382   -2.1732 Cl  0  0  0  0  0  0  0  0  0  0  0  0
    5.0509   -0.8499   -1.4491 C   0  0  0  0  0  0  0  0  0  0  0  0
    8.3660   -0.8420   -1.9593 H   0  0  0  0  0  0  0  0  0  0  0  0
    8.2062    0.7752   -0.0509 H   0  0  0  0  0  0  0  0  0  0  0  0
    5.9711    1.3112    0.9235 H   0  0  0  0  0  0  0  0  0  0  0  0
    3.5917    0.1268    1.2873 H   0  0  0  0  0  0  0  0  0  0  0  0
    3.4551    1.4603    0.1023 H   0  0  0  0  0  0  0  0  0  0  0  0
    1.5666    1.1356    1.4093 H   0  0  0  0  0  0  0  0  0  0  0  0
   -0.8026    1.2896    1.9557 H   0  0  0  0  0  0  0  0  0  0  0  0
   -2.9489    0.5299    1.8415 H   0  0  0  0  0  0  0  0  0  0  0  0
   -5.1319   -1.6349   -2.5802 H   0  0  0  0  0  0  0  0  0  0  0  0
   -8.5153   -0.1826    0.8659 H   0  0  0  0  0  0  0  0  0  0  0  0
   -7.3760    0.8775    3.0620 H   0  0  0  0  0  0  0  0  0  0  0  0
   -4.7983    0.8118    2.6911 H   0  0  0  0  0  0  0  0  0  0  0  0
   -1.7371   -1.4859   -1.1129 H   0  0  0  0  0  0  0  0  0  0  0  0
    4.1623   -1.3158   -1.8525 H   0  0  0  0  0  0  0  0  0  0  0  0
  1  2  1  0
  2  3  2  0
  3  4  1  0
  4  5  2  0
  5  6  1  0
  6  7  1  0
  7  8  1  0
  8  9  1  0
  9 10  2  0
 10 11  1  0
 11 12  2  0
 12 13  1  0
 13 14  1  0
 14 15  2  0
 15 16  1  0
 16 17  2  0
 17 18  1  0
 18 19  1  0
 19 20  2  0
 20 21  1  0
 21 22  1  0
 12 23  1  0
 23 24  2  0
 24 25  1  0
  6 26  2  0
 26  2  1  0
 24  9  1  0
 22 14  1  0
 22 18  2  0
  3 27  1  0
  4 28  1  0
  5 29  1  0
  7 30  1  0
  7 31  1  0
 10 32  1  0
 11 33  1  0
 13 34  1  0
 16 35  1  0
 19 36  1  0
 20 37  1  0
 21 38  1  0
 23 39  1  0
 26 40  1  0
M  END
$$$$
[H]N=C(N([H])[H])N([H])C([H])([H])C([H])([H])C([H])([H])[C@@]([H])(C(=O)N1C([H])([H])C([H])([H])C([H])([H])[C@@]1([H])C(=O)N([H])C([H])([H])C(=O)N([H])[C@]([H])(C(=O)N([H])[C@]([H])(C(=O)N([H])[C@]([H])(C(=O)N([H])[H])C([H])([H])c1c([H])n([H])c2c([H])c([H])c([H])c([H])c12)C([H])([H])C([H])(C([H])([H])[H])C([H])([H])[H])C([H])([H])c1c([H])n([H])c2c([H])c([H])c([H])c([H])c12)N([H])[H]
     RDKit          3D

115119  0  0  0  0  0  0  0  0999 V2000
   -1.9390    3.2973   -0.7630 C   0  0  0  0  0  0  0  0  0  0  0  0
   -3.4142    3.4024   -0.3283 C   0  0  0  0  0  0  0  0  0  0  0  0
   -4.1613    4.0406   -1.4324 C   0  0  0  0  0  0  0  0  0  0  0  0
   -3.8859    2.1941    0.3117 C   0  0  0  0  0  0  0  0  0  0  0  0
   -3.9218    0.8725   -0.3647 C   0  0  2  0  0  0  0  0  0  0  0  0
   -2.6743    0.3922   -0.8378 N   0  0  0  0  0  0  0  0  0  0  0  0
   -1.7821   -0.4993   -0.1736 C   0  0  0  0  0  0  0  0  0  0  0  0
   -2.0799   -0.9486    0.9482 O   0  0  0  0  0  0  0  0  0  0  0  0
   -0.4949   -0.8999   -0.7835 C   0  0  2  0  0  0  0  0  0  0  0  0
   -0.5770   -1.5726   -2.0954 C   0  0  0  0  0  0  0  0  0  0  0  0
   -1.2879   -2.8506   -2.2052 C   0  0  0  0  0  0  0  0  0  0  0  0
   -2.6317   -3.0379   -2.5759 C   0  0  0  0  0  0  0  0  0  0  0  0
   -2.9711   -4.3173   -2.5587 N   0  0  0  0  0  0  0  0  0  0  0  0
   -1.8788   -5.0185   -2.1824 C   0  0  0  0  0  0  0  0  0  0  0  0
   -1.7600   -6.3874   -2.0456 C   0  0  0  0  0  0  0  0  0  0  0  0
   -0.5318   -6.8769   -1.6696 C   0  0  0  0  0  0  0  0  0  0  0  0
    0.5290   -6.0249   -1.4425 C   0  0  0  0  0  0  0  0  0  0  0  0
    0.3916   -4.6604   -1.5844 C   0  0  0  0  0  0  0  0  0  0  0  0
   -0.8294   -4.1319   -1.9603 C   0  0  0  0  0  0  0  0  0  0  0  0
    0.2870   -1.6595    0.1773 N   0  0  0  0  0  0  0  0  0  0  0  0
    1.5504   -1.1506    0.6203 C   0  0  0  0  0  0  0  0  0  0  0  0
    1.9656   -0.0595    0.2121 O   0  0  0  0  0  0  0  0  0  0  0  0
    2.3676   -1.9475    1.5742 C   0  0  0  0  0  0  0  0  0  0  0  0
    3.6032   -1.2253    1.8993 N   0  0  0  0  0  0  0  0  0  0  0  0
    3.5907    0.0056    2.5969 C   0  0  0  0  0  0  0  0  0  0  0  0
    2.4624    0.4569    2.9607 O   0  0  0  0  0  0  0  0  0  0  0  0
    4.7553    0.8271    2.9497 C   0  0  2  0  0  0  0  0  0  0  0  0
    4.5257    2.2881    2.9980 C   0  0  0  0  0  0  0  0  0  0  0  0
    5.0267    2.8866    1.7276 C   0  0  0  0  0  0  0  0  0  0  0  0
    5.5087    1.6433    0.9580 C   0  0  0  0  0  0  0  0  0  0  0  0
    5.8455    0.6861    1.9580 N   0  0  0  0  0  0  0  0  0  0  0  0
    6.8564   -0.2409    2.1082 C   0  0  0  0  0  0  0  0  0  0  0  0
    6.8905   -1.0567    3.1218 O   0  0  0  0  0  0  0  0  0  0  0  0
    8.0489   -0.4921    1.1927 C   0  0  1  0  0  0  0  0  0  0  0  0
    8.3459    0.7572    0.5197 N   0  0  0  0  0  0  0  0  0  0  0  0
    9.2164   -0.8949    2.0283 C   0  0  0  0  0  0  0  0  0  0  0  0
   10.4927   -1.2995    1.4854 C   0  0  0  0  0  0  0  0  0  0  0  0
   11.3399   -0.5219    0.5924 C   0  0  0  0  0  0  0  0  0  0  0  0
   10.8552   -0.3562   -0.7508 N   0  0  0  0  0  0  0  0  0  0  0  0
   11.5166    0.4840   -1.6966 C   0  0  0  0  0  0  0  0  0  0  0  0
   12.7447    1.0966   -1.3328 N   0  0  0  0  0  0  0  0  0  0  0  0
   10.9931    0.6681   -2.8582 N   0  0  0  0  0  0  0  0  0  0  0  0
   -5.0697    0.6337   -1.2570 C   0  0  0  0  0  0  0  0  0  0  0  0
   -4.8895   -0.0042   -2.3234 O   0  0  0  0  0  0  0  0  0  0  0  0
   -6.4091    1.0701   -1.0233 N   0  0  0  0  0  0  0  0  0  0  0  0
   -7.4492    0.7826   -1.9326 C   0  0  1  0  0  0  0  0  0  0  0  0
   -8.6223    0.0801   -1.3153 C   0  0  0  0  0  0  0  0  0  0  0  0
   -9.2944    0.7938   -0.2122 C   0  0  0  0  0  0  0  0  0  0  0  0
  -10.3460    1.6859   -0.3699 C   0  0  0  0  0  0  0  0  0  0  0  0
  -10.6602    2.1631    0.8319 N   0  0  0  0  0  0  0  0  0  0  0  0
   -9.8678    1.6299    1.7797 C   0  0  0  0  0  0  0  0  0  0  0  0
   -9.7951    1.7671    3.1569 C   0  0  0  0  0  0  0  0  0  0  0  0
   -8.8834    1.0607    3.8887 C   0  0  0  0  0  0  0  0  0  0  0  0
   -7.9877    0.1742    3.2834 C   0  0  0  0  0  0  0  0  0  0  0  0
   -8.0820    0.0593    1.9214 C   0  0  0  0  0  0  0  0  0  0  0  0
   -8.9862    0.7528    1.1498 C   0  0  0  0  0  0  0  0  0  0  0  0
   -7.9612    1.9425   -2.7072 C   0  0  0  0  0  0  0  0  0  0  0  0
   -8.9535    1.8101   -3.7212 N   0  0  0  0  0  0  0  0  0  0  0  0
   -7.5204    3.0762   -2.4807 O   0  0  0  0  0  0  0  0  0  0  0  0
   -1.3878    2.5779   -0.1422 H   0  0  0  0  0  0  0  0  0  0  0  0
   -1.9276    3.0167   -1.8162 H   0  0  0  0  0  0  0  0  0  0  0  0
   -1.4533    4.3003   -0.7114 H   0  0  0  0  0  0  0  0  0  0  0  0
   -3.3450    4.1987    0.4859 H   0  0  0  0  0  0  0  0  0  0  0  0
   -3.7391    5.0948   -1.5326 H   0  0  0  0  0  0  0  0  0  0  0  0
   -5.2321    4.2120   -1.2015 H   0  0  0  0  0  0  0  0  0  0  0  0
   -4.0538    3.6039   -2.4390 H   0  0  0  0  0  0  0  0  0  0  0  0
   -3.2663    2.0547    1.2554 H   0  0  0  0  0  0  0  0  0  0  0  0
   -4.9207    2.3416    0.7503 H   0  0  0  0  0  0  0  0  0  0  0  0
   -4.1508    0.1640    0.5216 H   0  0  0  0  0  0  0  0  0  0  0  0
   -2.3581    0.7127   -1.7890 H   0  0  0  0  0  0  0  0  0  0  0  0
    0.0530    0.0878   -0.9917 H   0  0  0  0  0  0  0  0  0  0  0  0
    0.4608   -1.7353   -2.4876 H   0  0  0  0  0  0  0  0  0  0  0  0
   -1.0144   -0.8234   -2.8180 H   0  0  0  0  0  0  0  0  0  0  0  0
   -3.2461   -2.2048   -2.8357 H   0  0  0  0  0  0  0  0  0  0  0  0
   -3.9201   -4.7443   -2.7915 H   0  0  0  0  0  0  0  0  0  0  0  0
   -2.5588   -7.0792   -2.2133 H   0  0  0  0  0  0  0  0  0  0  0  0
   -0.3261   -7.9404   -1.5271 H   0  0  0  0  0  0  0  0  0  0  0  0
    1.4999   -6.4042   -1.1459 H   0  0  0  0  0  0  0  0  0  0  0  0
    1.2024   -3.9779   -1.4186 H   0  0  0  0  0  0  0  0  0  0  0  0
   -0.1033   -2.5456    0.5358 H   0  0  0  0  0  0  0  0  0  0  0  0
    2.6012   -2.9508    1.1686 H   0  0  0  0  0  0  0  0  0  0  0  0
    1.7930   -2.0807    2.4955 H   0  0  0  0  0  0  0  0  0  0  0  0
    4.5223   -1.6142    1.6098 H   0  0  0  0  0  0  0  0  0  0  0  0
    5.0913    0.4805    3.9588 H   0  0  0  0  0  0  0  0  0  0  0  0
    3.4773    2.5757    3.2303 H   0  0  0  0  0  0  0  0  0  0  0  0
    5.1307    2.7156    3.8430 H   0  0  0  0  0  0  0  0  0  0  0  0
    5.8967    3.5329    1.8823 H   0  0  0  0  0  0  0  0  0  0  0  0
    4.2592    3.3940    1.1193 H   0  0  0  0  0  0  0  0  0  0  0  0
    6.2368    1.9482    0.2293 H   0  0  0  0  0  0  0  0  0  0  0  0
    4.6115    1.2981    0.3463 H   0  0  0  0  0  0  0  0  0  0  0  0
    7.8193   -1.2571    0.4400 H   0  0  0  0  0  0  0  0  0  0  0  0
    8.1274    0.8155   -0.4627 H   0  0  0  0  0  0  0  0  0  0  0  0
    8.4139    1.5784    1.1050 H   0  0  0  0  0  0  0  0  0  0  0  0
    8.8469   -1.7078    2.7691 H   0  0  0  0  0  0  0  0  0  0  0  0
    9.4386   -0.0506    2.7926 H   0  0  0  0  0  0  0  0  0  0  0  0
   10.3009   -2.2967    0.9187 H   0  0  0  0  0  0  0  0  0  0  0  0
   11.1567   -1.7050    2.3394 H   0  0  0  0  0  0  0  0  0  0  0  0
   12.3266   -1.0580    0.4960 H   0  0  0  0  0  0  0  0  0  0  0  0
   11.5386    0.5045    1.0372 H   0  0  0  0  0  0  0  0  0  0  0  0
   10.0016   -0.9069   -1.0503 H   0  0  0  0  0  0  0  0  0  0  0  0
   13.3803    1.4834   -2.0684 H   0  0  0  0  0  0  0  0  0  0  0  0
   13.0065    1.1598   -0.3266 H   0  0  0  0  0  0  0  0  0  0  0  0
   10.0920    0.1936   -3.0748 H   0  0  0  0  0  0  0  0  0  0  0  0
   -6.5873    1.6203   -0.1814 H   0  0  0  0  0  0  0  0  0  0  0  0
   -6.9960    0.0444   -2.6940 H   0  0  0  0  0  0  0  0  0  0  0  0
   -8.3530   -0.9475   -0.9626 H   0  0  0  0  0  0  0  0  0  0  0  0
   -9.4070   -0.0500   -2.1266 H   0  0  0  0  0  0  0  0  0  0  0  0
  -10.8200    1.9466   -1.3074 H   0  0  0  0  0  0  0  0  0  0  0  0
  -11.4304    2.8675    1.0150 H   0  0  0  0  0  0  0  0  0  0  0  0
  -10.5068    2.4785    3.5980 H   0  0  0  0  0  0  0  0  0  0  0  0
   -8.8767    1.2041    4.9607 H   0  0  0  0  0  0  0  0  0  0  0  0
   -7.3012   -0.3434    3.9262 H   0  0  0  0  0  0  0  0  0  0  0  0
   -7.3977   -0.6193    1.4151 H   0  0  0  0  0  0  0  0  0  0  0  0
   -8.8290    2.0314   -4.7240 H   0  0  0  0  0  0  0  0  0  0  0  0
   -9.8874    1.4591   -3.4352 H   0  0  0  0  0  0  0  0  0  0  0  0
  1  2  1  0
  2  3  1  0
  2  4  1  0
  4  5  1  0
  5  6  1  0
  6  7  1  0
  7  8  2  0
  7  9  1  0
  9 10  1  0
 10 11  1  0
 11 12  2  0
 12 13  1  0
 13 14  1  0
 14 15  2  0
 15 16  1  0
 16 17  2  0
 17 18  1  0
 18 19  2  0
  9 20  1  0
 20 21  1  0
 21 22  2  0
 21 23  1  0
 23 24  1  0
 24 25  1  0
 25 26  2  0
 25 27  1  0
 27 28  1  0
 28 29  1  0
 29 30  1  0
 30 31  1  0
 31 32  1  0
 32 33  2  0
 32 34  1  0
 34 35  1  0
 34 36  1  0
 36 37  1  0
 37 38  1  0
 38 39  1  0
 39 40  1  0
 40 41  1  0
 40 42  2  3
  5 43  1  0
 43 44  2  0
 43 45  1  0
 45 46  1  0
 46 47  1  0
 47 48  1  0
 48 49  2  0
 49 50  1  0
 50 51  1  0
 51 52  2  0
 52 53  1  0
 53 54  2  0
 54 55  1  0
 55 56  2  0
 46 57  1  0
 57 58  1  0
 57 59  2  0
 19 11  1  0
 31 27  1  0
 56 48  1  0
 19 14  1  0
 56 51  1  0
  1 60  1  0
  1 61  1  0
  1 62  1  0
  2 63  1  0
  3 64  1  0
  3 65  1  0
  3 66  1  0
  4 67  1  0
  4 68  1  0
  5 69  1  1
  6 70  1  0
  9 71  1  6
 10 72  1  0
 10 73  1  0
 12 74  1  0
 13 75  1  0
 15 76  1  0
 16 77  1  0
 17 78  1  0
 18 79  1  0
 20 80  1  0
 23 81  1  0
 23 82  1  0
 24 83  1  0
 27 84  1  1
 28 85  1  0
 28 86  1  0
 29 87  1  0
 29 88  1  0
 30 89  1  0
 30 90  1  0
 34 91  1  6
 35 92  1  0
 35 93  1  0
 36 94  1  0
 36 95  1  0
 37 96  1  0
 37 97  1  0
 38 98  1  0
 38 99  1  0
 39100  1  0
 41101  1  0
 41102  1  0
 42103  1  0
 45104  1  0
 46105  1  6
 47106  1  0
 47107  1  0
 49108  1  0
 50109  1  0
 52110  1  0
 53111  1  0
 54112  1  0
 55113  1  0
 58114  1  0
 58115  1  0
M  END
$$$$
[H]c1nc(N([H])c2c([H])c([H])c(C([H])(C([H])([H])[H])C([H])([H])[H])c([H])c2OC([H])([H])[H])nc(N([H])c2c([H])c([H])c([H])c([H])c2S(=O)(=O)C([H])(C([H])([H])[H])C([H])([H])[H])c1Cl
     RDKit          3D

 59 61  0  0  0  0  0  0  0  0999 V2000
    3.9884   -2.8987   -1.7199 C   0  0  0  0  0  0  0  0  0  0  0  0
    3.3339   -1.8479   -1.0734 O   0  0  0  0  0  0  0  0  0  0  0  0
    3.9638   -0.8139   -0.4210 C   0  0  0  0  0  0  0  0  0  0  0  0
    5.3369   -0.8220   -0.4084 C   0  0  0  0  0  0  0  0  0  0  0  0
    6.0441    0.1645    0.2155 C   0  0  0  0  0  0  0  0  0  0  0  0
    5.3465    1.1654    0.8304 C   0  0  0  0  0  0  0  0  0  0  0  0
    3.9406    1.1665    0.8131 C   0  0  0  0  0  0  0  0  0  0  0  0
    3.2047    0.1899    0.1949 C   0  0  0  0  0  0  0  0  0  0  0  0
    1.8217    0.1089    0.1262 N   0  0  0  0  0  0  0  0  0  0  0  0
    0.8527    0.9946    0.6679 C   0  0  0  0  0  0  0  0  0  0  0  0
    1.1069    2.1030    1.3653 N   0  0  0  0  0  0  0  0  0  0  0  0
    0.1479    2.8995    1.8512 C   0  0  0  0  0  0  0  0  0  0  0  0
   -1.1611    2.5872    1.6383 C   0  0  0  0  0  0  0  0  0  0  0  0
   -2.4278    3.5836    2.2454 Cl  0  0  0  0  0  0  0  0  0  0  0  0
   -1.4995    1.4344    0.9121 C   0  0  0  0  0  0  0  0  0  0  0  0
   -2.8300    1.0937    0.6812 N   0  0  0  0  0  0  0  0  0  0  0  0
   -3.4349    0.0332    0.0086 C   0  0  0  0  0  0  0  0  0  0  0  0
   -2.7062   -0.9459   -0.5969 C   0  0  0  0  0  0  0  0  0  0  0  0
   -3.2600   -2.0288   -1.2832 C   0  0  0  0  0  0  0  0  0  0  0  0
   -4.6157   -2.1255   -1.3602 C   0  0  0  0  0  0  0  0  0  0  0  0
   -5.3907   -1.1648   -0.7667 C   0  0  0  0  0  0  0  0  0  0  0  0
   -4.8268   -0.0986   -0.0909 C   0  0  0  0  0  0  0  0  0  0  0  0
   -5.8377    1.0821    0.6398 S   0  0  0  0  0  0  0  0  0  0  0  0
   -5.6386    1.2285    2.1252 O   0  0  0  0  0  0  0  0  0  0  0  0
   -5.5800    2.4333    0.0164 O   0  0  0  0  0  0  0  0  0  0  0  0
   -7.5679    0.7640    0.4093 C   0  0  0  0  0  0  0  0  0  0  0  0
   -7.9906    0.8803   -1.0316 C   0  0  0  0  0  0  0  0  0  0  0  0
   -8.0510   -0.4765    1.0990 C   0  0  0  0  0  0  0  0  0  0  0  0
   -0.4728    0.7298    0.4845 N   0  0  0  0  0  0  0  0  0  0  0  0
    7.5302    0.1784    0.2433 C   0  0  0  0  0  0  0  0  0  0  0  0
    8.1130    0.2781   -1.1620 C   0  0  0  0  0  0  0  0  0  0  0  0
    8.0526   -1.1150    0.8545 C   0  0  0  0  0  0  0  0  0  0  0  0
    3.3163   -3.7402   -1.9396 H   0  0  0  0  0  0  0  0  0  0  0  0
    4.4478   -2.5051   -2.6536 H   0  0  0  0  0  0  0  0  0  0  0  0
    4.7775   -3.3209   -1.0343 H   0  0  0  0  0  0  0  0  0  0  0  0
    5.8942   -1.6215   -0.8998 H   0  0  0  0  0  0  0  0  0  0  0  0
    5.8724    1.9642    1.3350 H   0  0  0  0  0  0  0  0  0  0  0  0
    3.4720    1.9911    1.3209 H   0  0  0  0  0  0  0  0  0  0  0  0
    1.4233   -0.7334   -0.4062 H   0  0  0  0  0  0  0  0  0  0  0  0
    0.4710    3.7826    2.4084 H   0  0  0  0  0  0  0  0  0  0  0  0
   -3.5567    1.7911    1.1091 H   0  0  0  0  0  0  0  0  0  0  0  0
   -1.6033   -0.9667   -0.5967 H   0  0  0  0  0  0  0  0  0  0  0  0
   -2.6562   -2.7807   -1.7476 H   0  0  0  0  0  0  0  0  0  0  0  0
   -5.1151   -2.9550   -1.8868 H   0  0  0  0  0  0  0  0  0  0  0  0
   -6.4571   -1.2917   -0.8581 H   0  0  0  0  0  0  0  0  0  0  0  0
   -8.0896    1.6129    0.9470 H   0  0  0  0  0  0  0  0  0  0  0  0
   -7.1481    0.8131   -1.7473 H   0  0  0  0  0  0  0  0  0  0  0  0
   -8.7899    0.1432   -1.2458 H   0  0  0  0  0  0  0  0  0  0  0  0
   -8.4237    1.8865   -1.1864 H   0  0  0  0  0  0  0  0  0  0  0  0
   -8.6955   -0.2893    1.9820 H   0  0  0  0  0  0  0  0  0  0  0  0
   -7.1998   -1.1063    1.4917 H   0  0  0  0  0  0  0  0  0  0  0  0
   -8.6788   -1.0752    0.3824 H   0  0  0  0  0  0  0  0  0  0  0  0
    7.8642    1.0616    0.7956 H   0  0  0  0  0  0  0  0  0  0  0  0
    9.1122    0.7582   -1.0623 H   0  0  0  0  0  0  0  0  0  0  0  0
    7.4455    0.8320   -1.8300 H   0  0  0  0  0  0  0  0  0  0  0  0
    8.3198   -0.7682   -1.5267 H   0  0  0  0  0  0  0  0  0  0  0  0
    8.1234   -1.9158    0.0760 H   0  0  0  0  0  0  0  0  0  0  0  0
    7.3273   -1.4399    1.6149 H   0  0  0  0  0  0  0  0  0  0  0  0
    9.0543   -0.8880    1.2625 H   0  0  0  0  0  0  0  0  0  0  0  0
  1  2  1  0
  2  3  1  0
  3  4  2  0
  4  5  1  0
  5  6  2  0
  6  7  1  0
  7  8  2  0
  8  9  1  0
  9 10  1  0
 10 11  2  0
 11 12  1  0
 12 13  2  0
 13 14  1  0
 13 15  1  0
 15 16  1  0
 16 17  1  0
 17 18  2  0
 18 19  1  0
 19 20  2  0
 20 21  1  0
 21 22  2  0
 22 23  1  0
 23 24  2  0
 23 25  2  0
 23 26  1  0
 26 27  1  0
 26 28  1  0
 15 29  2  0
  5 30  1  0
 30 31  1  0
 30 32  1  0
  8  3  1  0
 29 10  1  0
 22 17  1  0
  1 33  1  0
  1 34  1  0
  1 35  1  0
  4 36  1  0
  6 37  1  0
  7 38  1  0
  9 39  1  0
 12 40  1  0
 16 41  1  0
 18 42  1  0
 19 43  1  0
 20 44  1  0
 21 45  1  0
 26 46  1  0
 27 47  1  0
 27 48  1  0
 27 49  1  0
 28 50  1  0
 28 51  1  0
 28 52  1  0
 30 53  1  0
 31 54  1  0
 31 55  1  0
 31 56  1  0
 32 57  1  0
 32 58  1  0
 32 59  1  0
M  END
$$$$
[H]OC([H])([H])C([H])([H])N1C([H])([H])C([H])([H])C([H])(N([H])c2c([H])c([H])c(S(=O)(=O)N([H])C(=O)c3c([H])c([H])c(N4C([H])([H])C([H])([H])N(C([H])([H])C5=C(c6c([H])c([H])c(Cl)c([H])c6[H])C([H])([H])C(C([H])([H])[H])(C([H])([H])[H])C([H])([H])C5([H])[H])C([H])([H])C4([H])[H])c([H])c3Oc3c([H])c([H])c([H])c4c3c([H])c([H])n4[H])c([H])c2[N+](=O)[O-])C([H])([H])C1([H])[H]
     RDKit          3D

117124  0  0  0  0  0  0  0  0999 V2000
  -11.2211   -1.7113    1.3139 C   0  0  0  0  0  0  0  0  0  0  0  0
  -10.3565   -2.7020    0.5595 C   0  0  0  0  0  0  0  0  0  0  0  0
  -11.1902   -3.8709    0.0975 C   0  0  0  0  0  0  0  0  0  0  0  0
   -9.2444   -3.2102    1.4513 C   0  0  0  0  0  0  0  0  0  0  0  0
   -7.8848   -3.0098    0.7829 C   0  0  0  0  0  0  0  0  0  0  0  0
   -7.7859   -1.4936    0.5941 C   0  0  0  0  0  0  0  0  0  0  0  0
   -6.6748   -0.7484    1.1770 C   0  0  0  0  0  0  0  0  0  0  0  0
   -5.4163   -1.3138    0.6662 N   0  0  0  0  0  0  0  0  0  0  0  0
   -5.1488   -1.0878   -0.6635 C   0  0  0  0  0  0  0  0  0  0  0  0
   -3.7178   -1.1796   -1.0952 C   0  0  0  0  0  0  0  0  0  0  0  0
   -2.8341   -1.3291    0.0099 N   0  0  0  0  0  0  0  0  0  0  0  0
   -3.2286   -2.2292    1.0602 C   0  0  0  0  0  0  0  0  0  0  0  0
   -4.5509   -1.7362    1.6531 C   0  0  0  0  0  0  0  0  0  0  0  0
   -1.6103   -0.5937    0.1144 C   0  0  0  0  0  0  0  0  0  0  0  0
   -0.5913   -1.0565    0.9341 C   0  0  0  0  0  0  0  0  0  0  0  0
    0.5639   -0.3563    1.0965 C   0  0  0  0  0  0  0  0  0  0  0  0
    0.7867    0.8951    0.4268 C   0  0  0  0  0  0  0  0  0  0  0  0
    2.1356    1.3992    0.5130 C   0  0  0  0  0  0  0  0  0  0  0  0
    2.8109    0.9536    1.5406 O   0  0  0  0  0  0  0  0  0  0  0  0
    2.8229    2.2814   -0.2760 N   0  0  0  0  0  0  0  0  0  0  0  0
    4.4075    2.8487    0.0962 S   0  0  0  0  0  0  0  0  0  0  0  0
    4.6947    4.1125   -0.6824 O   0  0  0  0  0  0  0  0  0  0  0  0
    4.4770    3.2222    1.5764 O   0  0  0  0  0  0  0  0  0  0  0  0
    5.6066    1.6441   -0.2159 C   0  0  0  0  0  0  0  0  0  0  0  0
    6.0838    0.8272    0.7878 C   0  0  0  0  0  0  0  0  0  0  0  0
    7.0769   -0.1090    0.5685 C   0  0  0  0  0  0  0  0  0  0  0  0
    7.6151   -0.2292   -0.7226 C   0  0  0  0  0  0  0  0  0  0  0  0
    8.5834   -1.2323   -0.9056 N   0  0  0  0  0  0  0  0  0  0  0  0
    9.2115   -1.9117    0.2007 C   0  0  0  0  0  0  0  0  0  0  0  0
   10.1020   -0.9593    0.9659 C   0  0  0  0  0  0  0  0  0  0  0  0
   11.3066   -0.6871    0.0653 C   0  0  0  0  0  0  0  0  0  0  0  0
   12.1885   -1.8512    0.1523 N   0  0  0  0  0  0  0  0  0  0  0  0
   13.1172   -1.8343   -0.9312 C   0  0  0  0  0  0  0  0  0  0  0  0
   14.1280   -2.9342   -0.9283 C   0  0  0  0  0  0  0  0  0  0  0  0
   14.9070   -2.9084    0.2421 O   0  0  0  0  0  0  0  0  0  0  0  0
   11.4479   -3.0635    0.3263 C   0  0  0  0  0  0  0  0  0  0  0  0
   10.0744   -3.0599   -0.3048 C   0  0  0  0  0  0  0  0  0  0  0  0
    7.1698    0.5618   -1.7474 C   0  0  0  0  0  0  0  0  0  0  0  0
    6.1619    1.4885   -1.4556 C   0  0  0  0  0  0  0  0  0  0  0  0
    7.6840    0.4845   -3.0657 N   0  0  0  0  0  0  0  0  0  0  0  0
    8.9456    0.1127   -3.4156 O   0  0  0  0  0  0  0  0  0  0  0  0
    6.8421    0.8015   -3.9724 O   0  0  0  0  0  0  0  0  0  0  0  0
   -0.2051    1.3444   -0.3620 C   0  0  0  0  0  0  0  0  0  0  0  0
   -0.2412    2.5099   -1.0733 O   0  0  0  0  0  0  0  0  0  0  0  0
   -0.2250    3.8301   -0.8206 C   0  0  0  0  0  0  0  0  0  0  0  0
    0.5776    4.7535   -1.4952 C   0  0  0  0  0  0  0  0  0  0  0  0
    0.5906    6.0881   -1.2293 C   0  0  0  0  0  0  0  0  0  0  0  0
   -0.2025    6.6346   -0.2563 C   0  0  0  0  0  0  0  0  0  0  0  0
   -1.0205    5.7626    0.4450 C   0  0  0  0  0  0  0  0  0  0  0  0
   -1.8893    6.0594    1.4508 N   0  0  0  0  0  0  0  0  0  0  0  0
   -2.4450    4.9146    1.8141 C   0  0  0  0  0  0  0  0  0  0  0  0
   -1.9364    3.8724    1.0431 C   0  0  0  0  0  0  0  0  0  0  0  0
   -1.0319    4.4092    0.1736 C   0  0  0  0  0  0  0  0  0  0  0  0
   -1.3998    0.5737   -0.5050 C   0  0  0  0  0  0  0  0  0  0  0  0
   -8.7572   -1.0008   -0.1292 C   0  0  0  0  0  0  0  0  0  0  0  0
   -9.7999   -1.9876   -0.6536 C   0  0  0  0  0  0  0  0  0  0  0  0
   -8.9024    0.3998   -0.4005 C   0  0  0  0  0  0  0  0  0  0  0  0
   -8.9094    1.4484    0.4718 C   0  0  0  0  0  0  0  0  0  0  0  0
   -9.0454    2.7758    0.1191 C   0  0  0  0  0  0  0  0  0  0  0  0
   -9.1868    3.0816   -1.2111 C   0  0  0  0  0  0  0  0  0  0  0  0
   -9.3577    4.7715   -1.6382 Cl  0  0  0  0  0  0  0  0  0  0  0  0
   -9.1894    2.0722   -2.1515 C   0  0  0  0  0  0  0  0  0  0  0  0
   -9.0493    0.7517   -1.7522 C   0  0  0  0  0  0  0  0  0  0  0  0
  -11.8002   -2.2160    2.1188 H   0  0  0  0  0  0  0  0  0  0  0  0
  -11.9637   -1.2979    0.5704 H   0  0  0  0  0  0  0  0  0  0  0  0
  -10.6321   -0.8666    1.6726 H   0  0  0  0  0  0  0  0  0  0  0  0
  -10.6244   -4.6026   -0.4907 H   0  0  0  0  0  0  0  0  0  0  0  0
  -11.6633   -4.3293    0.9980 H   0  0  0  0  0  0  0  0  0  0  0  0
  -12.0047   -3.4435   -0.5536 H   0  0  0  0  0  0  0  0  0  0  0  0
   -9.3676   -4.2649    1.7372 H   0  0  0  0  0  0  0  0  0  0  0  0
   -9.2199   -2.5434    2.3435 H   0  0  0  0  0  0  0  0  0  0  0  0
   -7.1361   -3.2630    1.5472 H   0  0  0  0  0  0  0  0  0  0  0  0
   -7.8025   -3.5310   -0.1680 H   0  0  0  0  0  0  0  0  0  0  0  0
   -6.7211    0.3127    0.9612 H   0  0  0  0  0  0  0  0  0  0  0  0
   -6.6542   -0.9796    2.2660 H   0  0  0  0  0  0  0  0  0  0  0  0
   -5.7800   -1.7925   -1.2862 H   0  0  0  0  0  0  0  0  0  0  0  0
   -5.5160   -0.0593   -1.0284 H   0  0  0  0  0  0  0  0  0  0  0  0
   -3.6231   -2.1194   -1.7344 H   0  0  0  0  0  0  0  0  0  0  0  0
   -3.4245   -0.3367   -1.7658 H   0  0  0  0  0  0  0  0  0  0  0  0
   -2.5410   -2.3075    1.8928 H   0  0  0  0  0  0  0  0  0  0  0  0
   -3.4352   -3.2289    0.6203 H   0  0  0  0  0  0  0  0  0  0  0  0
   -4.3451   -0.9940    2.4687 H   0  0  0  0  0  0  0  0  0  0  0  0
   -4.9611   -2.6437    2.1855 H   0  0  0  0  0  0  0  0  0  0  0  0
   -0.7290   -2.0173    1.4461 H   0  0  0  0  0  0  0  0  0  0  0  0
    1.3618   -0.7103    1.7340 H   0  0  0  0  0  0  0  0  0  0  0  0
    2.4633    2.6199   -1.2214 H   0  0  0  0  0  0  0  0  0  0  0  0
    5.6622    0.9303    1.7891 H   0  0  0  0  0  0  0  0  0  0  0  0
    7.4222   -0.7381    1.3821 H   0  0  0  0  0  0  0  0  0  0  0  0
    8.8678   -1.5290   -1.8605 H   0  0  0  0  0  0  0  0  0  0  0  0
    8.4130   -2.3475    0.8327 H   0  0  0  0  0  0  0  0  0  0  0  0
   10.4106   -1.4094    1.9408 H   0  0  0  0  0  0  0  0  0  0  0  0
    9.6313    0.0169    1.1551 H   0  0  0  0  0  0  0  0  0  0  0  0
   11.8463    0.2129    0.4033 H   0  0  0  0  0  0  0  0  0  0  0  0
   10.9460   -0.6363   -0.9772 H   0  0  0  0  0  0  0  0  0  0  0  0
   13.6680   -0.8571   -0.8933 H   0  0  0  0  0  0  0  0  0  0  0  0
   12.6011   -1.8600   -1.9183 H   0  0  0  0  0  0  0  0  0  0  0  0
   14.8464   -2.7251   -1.7792 H   0  0  0  0  0  0  0  0  0  0  0  0
   13.6981   -3.9103   -1.1349 H   0  0  0  0  0  0  0  0  0  0  0  0
   14.8192   -2.0064    0.6526 H   0  0  0  0  0  0  0  0  0  0  0  0
   12.0095   -3.9067   -0.1045 H   0  0  0  0  0  0  0  0  0  0  0  0
   11.3335   -3.2611    1.4285 H   0  0  0  0  0  0  0  0  0  0  0  0
    9.6132   -4.0384    0.0053 H   0  0  0  0  0  0  0  0  0  0  0  0
   10.1566   -2.9948   -1.3897 H   0  0  0  0  0  0  0  0  0  0  0  0
    5.8244    2.1029   -2.2814 H   0  0  0  0  0  0  0  0  0  0  0  0
    1.2011    4.3030   -2.2779 H   0  0  0  0  0  0  0  0  0  0  0  0
    1.2342    6.7425   -1.7877 H   0  0  0  0  0  0  0  0  0  0  0  0
   -0.2120    7.6819   -0.0251 H   0  0  0  0  0  0  0  0  0  0  0  0
   -2.0829    6.9976    1.8583 H   0  0  0  0  0  0  0  0  0  0  0  0
   -3.1873    4.7640    2.5908 H   0  0  0  0  0  0  0  0  0  0  0  0
   -2.2343    2.8543    1.1566 H   0  0  0  0  0  0  0  0  0  0  0  0
   -2.1559    1.0150   -1.1692 H   0  0  0  0  0  0  0  0  0  0  0  0
   -9.3332   -2.7197   -1.3390 H   0  0  0  0  0  0  0  0  0  0  0  0
  -10.5440   -1.4150   -1.2147 H   0  0  0  0  0  0  0  0  0  0  0  0
   -8.8100    1.1917    1.5340 H   0  0  0  0  0  0  0  0  0  0  0  0
   -9.0341    3.4973    0.9120 H   0  0  0  0  0  0  0  0  0  0  0  0
   -9.3042    2.3665   -3.1850 H   0  0  0  0  0  0  0  0  0  0  0  0
   -9.0571    0.0032   -2.5282 H   0  0  0  0  0  0  0  0  0  0  0  0
  1  2  1  0
  2  3  1  0
  2  4  1  0
  4  5  1  0
  5  6  1  0
  6  7  1  0
  7  8  1  0
  8  9  1  0
  9 10  1  0
 10 11  1  0
 11 12  1  0
 12 13  1  0
 11 14  1  0
 14 15  2  0
 15 16  1  0
 16 17  2  0
 17 18  1  0
 18 19  2  0
 18 20  1  0
 20 21  1  0
 21 22  2  0
 21 23  2  0
 21 24  1  0
 24 25  2  0
 25 26  1  0
 26 27  2  0
 27 28  1  0
 28 29  1  0
 29 30  1  0
 30 31  1  0
 31 32  1  0
 32 33  1  0
 33 34  1  0
 34 35  1  0
 32 36  1  0
 36 37  1  0
 27 38  1  0
 38 39  2  0
 38 40  1  0
 40 41  1  0
 40 42  2  0
 17 43  1  0
 43 44  1  0
 44 45  1  0
 45 46  2  0
 46 47  1  0
 47 48  2  0
 48 49  1  0
 49 50  1  0
 50 51  1  0
 51 52  2  0
 52 53  1  0
 43 54  2  0
  6 55  2  0
 55 56  1  0
 55 57  1  0
 57 58  2  0
 58 59  1  0
 59 60  2  0
 60 61  1  0
 60 62  1  0
 62 63  2  0
 56  2  1  0
 63 57  1  0
 13  8  1  0
 54 14  1  0
 39 24  1  0
 53 45  1  0
 37 29  1  0
 53 49  2  0
  1 64  1  0
  1 65  1  0
  1 66  1  0
  3 67  1  0
  3 68  1  0
  3 69  1  0
  4 70  1  0
  4 71  1  0
  5 72  1  0
  5 73  1  0
  7 74  1  0
  7 75  1  0
  9 76  1  0
  9 77  1  0
 10 78  1  0
 10 79  1  0
 12 80  1  0
 12 81  1  0
 13 82  1  0
 13 83  1  0
 15 84  1  0
 16 85  1  0
 20 86  1  0
 25 87  1  0
 26 88  1  0
 28 89  1  0
 29 90  1  0
 30 91  1  0
 30 92  1  0
 31 93  1  0
 31 94  1  0
 33 95  1  0
 33 96  1  0
 34 97  1  0
 34 98  1  0
 35 99  1  0
 36100  1  0
 36101  1  0
 37102  1  0
 37103  1  0
 39104  1  0
 46105  1  0
 47106  1  0
 48107  1  0
 50108  1  0
 51109  1  0
 52110  1  0
 54111  1  0
 56112  1  0
 56113  1  0
 58114  1  0
 59115  1  0
 62116  1  0
 63117  1  0
M  CHG  2  40   1  41  -1
M  END
$$$$
[H]c1c([H])c([H])c(-c2c([H])c(C(F)(F)F)c([H])c(C3([H])C([H])([H])C([H])([H])N(C(=O)c4c([H])c(OC([H])([H])[H])c(OC([H])([H])[H])c(OC([H])([H])[H])c4[H])C([H])([H])C3([H])[H])c2[H])c([H])c1[H]
     RDKit          3D

 64 67  0  0  0  0  0  0  0  0999 V2000
   -4.0168    3.2540   -0.8099 C   0  0  0  0  0  0  0  0  0  0  0  0
   -5.1020    2.4733   -0.3651 O   0  0  0  0  0  0  0  0  0  0  0  0
   -5.0129    1.1077   -0.2942 C   0  0  0  0  0  0  0  0  0  0  0  0
   -3.8343    0.4700   -0.6591 C   0  0  0  0  0  0  0  0  0  0  0  0
   -3.6719   -0.8756   -0.6115 C   0  0  0  0  0  0  0  0  0  0  0  0
   -4.8082   -1.5879   -0.1619 C   0  0  0  0  0  0  0  0  0  0  0  0
   -5.9899   -0.9930    0.2047 C   0  0  0  0  0  0  0  0  0  0  0  0
   -7.0888   -1.7351    0.6398 O   0  0  0  0  0  0  0  0  0  0  0  0
   -6.9697   -3.1415    0.7061 C   0  0  0  0  0  0  0  0  0  0  0  0
   -6.0847    0.3670    0.1364 C   0  0  0  0  0  0  0  0  0  0  0  0
   -7.2367    1.0535    0.4877 O   0  0  0  0  0  0  0  0  0  0  0  0
   -7.3694    1.5226    1.8350 C   0  0  0  0  0  0  0  0  0  0  0  0
   -2.4810   -1.6252   -0.9039 C   0  0  0  0  0  0  0  0  0  0  0  0
   -2.6704   -2.9068   -1.0014 O   0  0  0  0  0  0  0  0  0  0  0  0
   -1.1469   -1.2225   -1.0980 N   0  0  0  0  0  0  0  0  0  0  0  0
   -0.6838    0.1154   -0.9897 C   0  0  0  0  0  0  0  0  0  0  0  0
    0.7612    0.2938   -0.6580 C   0  0  0  0  0  0  0  0  0  0  0  0
    1.3671   -0.9445   -0.1447 C   0  0  0  0  0  0  0  0  0  0  0  0
    1.2036   -2.0299   -1.2098 C   0  0  0  0  0  0  0  0  0  0  0  0
   -0.2296   -2.3172   -1.4591 C   0  0  0  0  0  0  0  0  0  0  0  0
    2.8001   -0.8432    0.1750 C   0  0  0  0  0  0  0  0  0  0  0  0
    3.5114    0.3316    0.0137 C   0  0  0  0  0  0  0  0  0  0  0  0
    4.8516    0.4382    0.3041 C   0  0  0  0  0  0  0  0  0  0  0  0
    5.4558   -0.6986    0.7666 C   0  0  0  0  0  0  0  0  0  0  0  0
    4.8136   -1.9038    0.9491 C   0  0  0  0  0  0  0  0  0  0  0  0
    3.4484   -1.9589    0.6413 C   0  0  0  0  0  0  0  0  0  0  0  0
    5.5057   -3.1271    1.4459 C   0  0  0  0  0  0  0  0  0  0  0  0
    4.6558   -3.6980    2.3831 F   0  0  0  0  0  0  0  0  0  0  0  0
    5.7410   -3.9816    0.3795 F   0  0  0  0  0  0  0  0  0  0  0  0
    6.6798   -2.7491    2.0872 F   0  0  0  0  0  0  0  0  0  0  0  0
    5.5693    1.7092    0.1456 C   0  0  0  0  0  0  0  0  0  0  0  0
    5.2052    2.6162   -0.8379 C   0  0  0  0  0  0  0  0  0  0  0  0
    5.8722    3.8123   -0.9934 C   0  0  0  0  0  0  0  0  0  0  0  0
    6.9310    4.1689   -0.1799 C   0  0  0  0  0  0  0  0  0  0  0  0
    7.2928    3.2696    0.7989 C   0  0  0  0  0  0  0  0  0  0  0  0
    6.6240    2.0648    0.9558 C   0  0  0  0  0  0  0  0  0  0  0  0
   -4.3339    4.3240   -0.7103 H   0  0  0  0  0  0  0  0  0  0  0  0
   -3.8244    3.0031   -1.8640 H   0  0  0  0  0  0  0  0  0  0  0  0
   -3.1465    3.0264   -0.1514 H   0  0  0  0  0  0  0  0  0  0  0  0
   -3.0733    1.1166   -1.0182 H   0  0  0  0  0  0  0  0  0  0  0  0
   -4.7517   -2.6532   -0.1001 H   0  0  0  0  0  0  0  0  0  0  0  0
   -7.8364   -3.6094    1.2144 H   0  0  0  0  0  0  0  0  0  0  0  0
   -6.8953   -3.5202   -0.3310 H   0  0  0  0  0  0  0  0  0  0  0  0
   -6.0666   -3.4686    1.2527 H   0  0  0  0  0  0  0  0  0  0  0  0
   -6.9383    0.7653    2.4965 H   0  0  0  0  0  0  0  0  0  0  0  0
   -6.8512    2.5172    1.9459 H   0  0  0  0  0  0  0  0  0  0  0  0
   -8.4500    1.7257    2.0820 H   0  0  0  0  0  0  0  0  0  0  0  0
   -1.2229    0.5500   -0.0730 H   0  0  0  0  0  0  0  0  0  0  0  0
   -0.9840    0.7367   -1.8783 H   0  0  0  0  0  0  0  0  0  0  0  0
    0.9026    1.1207    0.1025 H   0  0  0  0  0  0  0  0  0  0  0  0
    1.2568    0.6505   -1.6031 H   0  0  0  0  0  0  0  0  0  0  0  0
    0.8329   -1.3047    0.7591 H   0  0  0  0  0  0  0  0  0  0  0  0
    1.6844   -1.6349   -2.1319 H   0  0  0  0  0  0  0  0  0  0  0  0
    1.7934   -2.8894   -0.8884 H   0  0  0  0  0  0  0  0  0  0  0  0
   -0.4970   -3.1948   -0.7885 H   0  0  0  0  0  0  0  0  0  0  0  0
   -0.4305   -2.5809   -2.5061 H   0  0  0  0  0  0  0  0  0  0  0  0
    2.9628    1.1744   -0.3551 H   0  0  0  0  0  0  0  0  0  0  0  0
    6.5185   -0.6240    1.0064 H   0  0  0  0  0  0  0  0  0  0  0  0
    2.9670   -2.9083    0.7979 H   0  0  0  0  0  0  0  0  0  0  0  0
    4.3889    2.3817   -1.4775 H   0  0  0  0  0  0  0  0  0  0  0  0
    5.5805    4.5147   -1.7624 H   0  0  0  0  0  0  0  0  0  0  0  0
    7.4645    5.1063   -0.3052 H   0  0  0  0  0  0  0  0  0  0  0  0
    8.1236    3.5566    1.4345 H   0  0  0  0  0  0  0  0  0  0  0  0
    6.9334    1.3900    1.7360 H   0  0  0  0  0  0  0  0  0  0  0  0
  1  2  1  0
  2  3  1  0
  3  4  2  0
  4  5  1  0
  5  6  2  0
  6  7  1  0
  7  8  1  0
  8  9  1  0
  7 10  2  0
 10 11  1  0
 11 12  1  0
  5 13  1  0
 13 14  2  0
 13 15  1  0
 15 16  1  0
 16 17  1  0
 17 18  1  0
 18 19  1  0
 19 20  1  0
 18 21  1  0
 21 22  2  0
 22 23  1  0
 23 24  2  0
 24 25  1  0
 25 26  2  0
 25 27  1  0
 27 28  1  0
 27 29  1  0
 27 30  1  0
 23 31  1  0
 31 32  2  0
 32 33  1  0
 33 34  2  0
 34 35  1  0
 35 36  2  0
 10  3  1  0
 20 15  1  0
 26 21  1  0
 36 31  1  0
  1 37  1  0
  1 38  1  0
  1 39  1  0
  4 40  1  0
  6 41  1  0
  9 42  1  0
  9 43  1  0
  9 44  1  0
 12 45  1  0
 12 46  1  0
 12 47  1  0
 16 48  1  0
 16 49  1  0
 17 50  1  0
 17 51  1  0
 18 52  1  0
 19 53  1  0
 19 54  1  0
 20 55  1  0
 20 56  1  0
 22 57  1  0
 24 58  1  0
 26 59  1  0
 32 60  1  0
 33 61  1  0
 34 62  1  0
 35 63  1  0
 36 64  1  0
M  END
$$$$
[H]OC(=O)[C@@]([H])(N([H])C(=O)[C@]([H])(C([H])([H])S[H])C([H])([H])c1c([H])c([H])c([H])c([H])c1[H])C([H])([H])[H]
     RDKit          3D

 35 35  0  0  0  0  0  0  0  0999 V2000
    2.6281   -0.9252    1.8963 C   0  0  0  0  0  0  0  0  0  0  0  0
    2.6449    0.2071    0.8683 C   0  0  2  0  0  0  0  0  0  0  0  0
    1.7845   -0.0640   -0.2476 N   0  0  0  0  0  0  0  0  0  0  0  0
    0.6982    0.7953   -0.5724 C   0  0  0  0  0  0  0  0  0  0  0  0
    0.4942    1.8289    0.1534 O   0  0  0  0  0  0  0  0  0  0  0  0
   -0.1865    0.5053   -1.7299 C   0  0  2  0  0  0  0  0  0  0  0  0
   -1.1517    1.6658   -1.8721 C   0  0  0  0  0  0  0  0  0  0  0  0
   -0.1199    3.1471   -2.1535 S   0  0  0  0  0  0  0  0  0  0  0  0
   -0.8989   -0.8096   -1.5956 C   0  0  0  0  0  0  0  0  0  0  0  0
   -1.7776   -0.9294   -0.4257 C   0  0  0  0  0  0  0  0  0  0  0  0
   -1.4149   -1.4294    0.8016 C   0  0  0  0  0  0  0  0  0  0  0  0
   -2.3160   -1.5010    1.8634 C   0  0  0  0  0  0  0  0  0  0  0  0
   -3.6146   -1.0715    1.7257 C   0  0  0  0  0  0  0  0  0  0  0  0
   -3.9922   -0.5678    0.4997 C   0  0  0  0  0  0  0  0  0  0  0  0
   -3.1014   -0.4969   -0.5494 C   0  0  0  0  0  0  0  0  0  0  0  0
    4.0669    0.3589    0.4503 C   0  0  0  0  0  0  0  0  0  0  0  0
    5.0456    0.6219    1.3727 O   0  0  0  0  0  0  0  0  0  0  0  0
    4.3256    0.2367   -0.7707 O   0  0  0  0  0  0  0  0  0  0  0  0
    2.4053   -1.9043    1.4150 H   0  0  0  0  0  0  0  0  0  0  0  0
    3.6242   -1.0106    2.3844 H   0  0  0  0  0  0  0  0  0  0  0  0
    1.8397   -0.7427    2.6527 H   0  0  0  0  0  0  0  0  0  0  0  0
    2.3030    1.1407    1.3644 H   0  0  0  0  0  0  0  0  0  0  0  0
    1.9386   -0.8986   -0.8445 H   0  0  0  0  0  0  0  0  0  0  0  0
    0.4524    0.5078   -2.6350 H   0  0  0  0  0  0  0  0  0  0  0  0
   -1.7109    1.8247   -0.9376 H   0  0  0  0  0  0  0  0  0  0  0  0
   -1.8354    1.5597   -2.7166 H   0  0  0  0  0  0  0  0  0  0  0  0
   -0.7570    4.0715   -2.9762 H   0  0  0  0  0  0  0  0  0  0  0  0
   -0.1131   -1.5988   -1.5476 H   0  0  0  0  0  0  0  0  0  0  0  0
   -1.4325   -0.9869   -2.5593 H   0  0  0  0  0  0  0  0  0  0  0  0
   -0.3985   -1.7760    0.9254 H   0  0  0  0  0  0  0  0  0  0  0  0
   -2.0110   -1.8970    2.8195 H   0  0  0  0  0  0  0  0  0  0  0  0
   -4.3348   -1.1203    2.5478 H   0  0  0  0  0  0  0  0  0  0  0  0
   -5.0258   -0.2343    0.4163 H   0  0  0  0  0  0  0  0  0  0  0  0
   -3.4251   -0.1001   -1.4909 H   0  0  0  0  0  0  0  0  0  0  0  0
    5.3667    1.5926    1.4678 H   0  0  0  0  0  0  0  0  0  0  0  0
  1  2  1  0
  2  3  1  0
  3  4  1  0
  4  5  2  0
  4  6  1  0
  6  7  1  0
  7  8  1  0
  6  9  1  0
  9 10  1  0
 10 11  2  0
 11 12  1  0
 12 13  2  0
 13 14  1  0
 14 15  2  0
  2 16  1  0
 16 17  1  0
 16 18  2  0
 15 10  1  0
  1 19  1  0
  1 20  1  0
  1 21  1  0
  2 22  1  1
  3 23  1  0
  6 24  1  6
  7 25  1  0
  7 26  1  0
  8 27  1  0
  9 28  1  0
  9 29  1  0
 11 30  1  0
 12 31  1  0
 13 32  1  0
 14 33  1  0
 15 34  1  0
 17 35  1  0
M  END
$$$$
[H]c1nc2c([H])c([H])c([H])c(-c3c([H])nn4c([H])c(-c5c([H])c([H])c(N6C([H])([H])C([H])([H])N(C([H])([H])[H])C([H])([H])C6([H])[H])c([H])c5[H])c([H])nc34)c2c([H])c1[H]
     RDKit          3D

 56 61  0  0  0  0  0  0  0  0999 V2000
    8.5076    0.0292    0.3302 C   0  0  0  0  0  0  0  0  0  0  0  0
    7.7836    0.3665   -0.8550 N   0  0  0  0  0  0  0  0  0  0  0  0
    6.9697    1.5543   -0.7353 C   0  0  0  0  0  0  0  0  0  0  0  0
    5.8943    1.4277    0.2904 C   0  0  0  0  0  0  0  0  0  0  0  0
    5.1675    0.1778    0.1487 N   0  0  0  0  0  0  0  0  0  0  0  0
    5.9832   -1.0050   -0.0652 C   0  0  0  0  0  0  0  0  0  0  0  0
    6.9088   -0.7139   -1.2342 C   0  0  0  0  0  0  0  0  0  0  0  0
    3.7358    0.0953    0.2013 C   0  0  0  0  0  0  0  0  0  0  0  0
    3.1418   -1.1141    0.4866 C   0  0  0  0  0  0  0  0  0  0  0  0
    1.7465   -1.2740    0.5402 C   0  0  0  0  0  0  0  0  0  0  0  0
    0.9397   -0.1923    0.3016 C   0  0  0  0  0  0  0  0  0  0  0  0
    1.5410    1.0027    0.0200 C   0  0  0  0  0  0  0  0  0  0  0  0
    2.9147    1.1738   -0.0363 C   0  0  0  0  0  0  0  0  0  0  0  0
   -0.5047   -0.3460    0.3520 C   0  0  0  0  0  0  0  0  0  0  0  0
   -1.2825    0.7343    0.7619 C   0  0  0  0  0  0  0  0  0  0  0  0
   -2.5933    0.5767    0.7985 N   0  0  0  0  0  0  0  0  0  0  0  0
   -3.2634   -0.5566    0.4689 C   0  0  0  0  0  0  0  0  0  0  0  0
   -4.5920   -0.9284    0.4338 C   0  0  0  0  0  0  0  0  0  0  0  0
   -4.6195   -2.2316    0.0034 C   0  0  0  0  0  0  0  0  0  0  0  0
   -3.3480   -2.6056   -0.2050 N   0  0  0  0  0  0  0  0  0  0  0  0
   -2.5217   -1.6038    0.0723 N   0  0  0  0  0  0  0  0  0  0  0  0
   -1.1638   -1.5066    0.0126 C   0  0  0  0  0  0  0  0  0  0  0  0
   -5.7078   -0.0884    0.8413 C   0  0  0  0  0  0  0  0  0  0  0  0
   -5.6642    0.4825    2.1271 C   0  0  0  0  0  0  0  0  0  0  0  0
   -6.7095    1.2258    2.5480 C   0  0  0  0  0  0  0  0  0  0  0  0
   -7.7914    1.4258    1.7501 C   0  0  0  0  0  0  0  0  0  0  0  0
   -7.8531    0.8796    0.4939 C   0  0  0  0  0  0  0  0  0  0  0  0
   -8.9216    1.0824   -0.3138 N   0  0  0  0  0  0  0  0  0  0  0  0
   -8.9914    0.5643   -1.5491 C   0  0  0  0  0  0  0  0  0  0  0  0
   -7.9763   -0.2050   -2.0673 C   0  0  0  0  0  0  0  0  0  0  0  0
   -6.8719   -0.4333   -1.2740 C   0  0  0  0  0  0  0  0  0  0  0  0
   -6.7993    0.0972   -0.0029 C   0  0  0  0  0  0  0  0  0  0  0  0
    9.4904    0.5816    0.3500 H   0  0  0  0  0  0  0  0  0  0  0  0
    7.9953    0.3128    1.2788 H   0  0  0  0  0  0  0  0  0  0  0  0
    8.7239   -1.0527    0.4174 H   0  0  0  0  0  0  0  0  0  0  0  0
    7.5594    2.4663   -0.5769 H   0  0  0  0  0  0  0  0  0  0  0  0
    6.4539    1.6697   -1.7302 H   0  0  0  0  0  0  0  0  0  0  0  0
    6.2875    1.4176    1.3357 H   0  0  0  0  0  0  0  0  0  0  0  0
    5.2623    2.3240    0.2290 H   0  0  0  0  0  0  0  0  0  0  0  0
    6.5093   -1.2668    0.8494 H   0  0  0  0  0  0  0  0  0  0  0  0
    5.3620   -1.8673   -0.3954 H   0  0  0  0  0  0  0  0  0  0  0  0
    7.5062   -1.6133   -1.5094 H   0  0  0  0  0  0  0  0  0  0  0  0
    6.2827   -0.3602   -2.0697 H   0  0  0  0  0  0  0  0  0  0  0  0
    3.7352   -1.9774    0.6870 H   0  0  0  0  0  0  0  0  0  0  0  0
    1.2969   -2.2317    0.7651 H   0  0  0  0  0  0  0  0  0  0  0  0
    0.8894    1.8485   -0.1662 H   0  0  0  0  0  0  0  0  0  0  0  0
    3.3614    2.1312   -0.2657 H   0  0  0  0  0  0  0  0  0  0  0  0
   -0.7853    1.6597    1.0341 H   0  0  0  0  0  0  0  0  0  0  0  0
   -5.4814   -2.8813   -0.1542 H   0  0  0  0  0  0  0  0  0  0  0  0
   -0.5417   -2.3386   -0.3044 H   0  0  0  0  0  0  0  0  0  0  0  0
   -4.7740    0.2800    2.7003 H   0  0  0  0  0  0  0  0  0  0  0  0
   -6.6687    1.6630    3.5423 H   0  0  0  0  0  0  0  0  0  0  0  0
   -8.6139    2.0247    2.1142 H   0  0  0  0  0  0  0  0  0  0  0  0
   -9.8835    0.7680   -2.1452 H   0  0  0  0  0  0  0  0  0  0  0  0
   -7.9939   -0.6356   -3.0482 H   0  0  0  0  0  0  0  0  0  0  0  0
   -6.0320   -1.0129   -1.6214 H   0  0  0  0  0  0  0  0  0  0  0  0
  1  2  1  0
  2  3  1  0
  3  4  1  0
  4  5  1  0
  5  6  1  0
  6  7  1  0
  5  8  1  0
  8  9  2  0
  9 10  1  0
 10 11  2  0
 11 12  1  0
 12 13  2  0
 11 14  1  0
 14 15  1  0
 15 16  2  0
 16 17  1  0
 17 18  2  0
 18 19  1  0
 19 20  2  0
 20 21  1  0
 21 22  1  0
 18 23  1  0
 23 24  2  0
 24 25  1  0
 25 26  2  0
 26 27  1  0
 27 28  2  0
 28 29  1  0
 29 30  2  0
 30 31  1  0
 31 32  2  0
  7  2  1  0
 13  8  1  0
 22 14  2  0
 32 23  1  0
 21 17  1  0
 32 27  1  0
  1 33  1  0
  1 34  1  0
  1 35  1  0
  3 36  1  0
  3 37  1  0
  4 38  1  0
  4 39  1  0
  6 40  1  0
  6 41  1  0
  7 42  1  0
  7 43  1  0
  9 44  1  0
 10 45  1  0
 12 46  1  0
 13 47  1  0
 15 48  1  0
 19 49  1  0
 22 50  1  0
 24 51  1  0
 25 52  1  0
 26 53  1  0
 29 54  1  0
 30 55  1  0
 31 56  1  0
M  END
$$$$
[H]c1c([H])c(C(=O)N([H])[H])c([H])c(-c2c([H])c([H])c([H])c([H])c2N([H])S(=O)(=O)c2c([H])c([H])c(OC([H])([H])[H])c([H])c2[H])c1[H]
     RDKit          3D

 45 47  0  0  0  0  0  0  0  0999 V2000
   -7.1553    0.7240   -0.0779 C   0  0  0  0  0  0  0  0  0  0  0  0
   -6.3814    0.1394    0.9394 O   0  0  0  0  0  0  0  0  0  0  0  0
   -4.9936    0.3650    0.9255 C   0  0  0  0  0  0  0  0  0  0  0  0
   -4.2138   -0.1964    1.9107 C   0  0  0  0  0  0  0  0  0  0  0  0
   -2.8434    0.0335    1.8867 C   0  0  0  0  0  0  0  0  0  0  0  0
   -2.2612    0.8054    0.9039 C   0  0  0  0  0  0  0  0  0  0  0  0
   -3.0578    1.3590   -0.0737 C   0  0  0  0  0  0  0  0  0  0  0  0
   -4.3988    1.1307   -0.0454 C   0  0  0  0  0  0  0  0  0  0  0  0
   -0.5526    1.0891    0.8783 S   0  0  0  0  0  0  0  0  0  0  0  0
   -0.3723    2.5856    0.7399 O   0  0  0  0  0  0  0  0  0  0  0  0
    0.0079    0.7121    2.2432 O   0  0  0  0  0  0  0  0  0  0  0  0
    0.2702    0.2418   -0.3528 N   0  0  0  0  0  0  0  0  0  0  0  0
    0.3846   -1.1357   -0.5592 C   0  0  0  0  0  0  0  0  0  0  0  0
   -0.6878   -1.9771   -0.4955 C   0  0  0  0  0  0  0  0  0  0  0  0
   -0.5069   -3.3377   -0.7396 C   0  0  0  0  0  0  0  0  0  0  0  0
    0.7461   -3.8116   -1.0411 C   0  0  0  0  0  0  0  0  0  0  0  0
    1.8169   -2.9446   -1.1013 C   0  0  0  0  0  0  0  0  0  0  0  0
    1.6693   -1.6070   -0.8664 C   0  0  0  0  0  0  0  0  0  0  0  0
    2.8361   -0.7265   -0.9413 C   0  0  0  0  0  0  0  0  0  0  0  0
    3.6870   -0.7908   -2.0396 C   0  0  0  0  0  0  0  0  0  0  0  0
    4.7878    0.0144   -2.1286 C   0  0  0  0  0  0  0  0  0  0  0  0
    5.0938    0.9299   -1.1164 C   0  0  0  0  0  0  0  0  0  0  0  0
    4.2651    1.0103   -0.0197 C   0  0  0  0  0  0  0  0  0  0  0  0
    3.1584    0.1803    0.0393 C   0  0  0  0  0  0  0  0  0  0  0  0
    4.5590    1.9612    1.0598 C   0  0  0  0  0  0  0  0  0  0  0  0
    5.6992    2.8033    0.9791 N   0  0  0  0  0  0  0  0  0  0  0  0
    3.8331    2.0627    2.0674 O   0  0  0  0  0  0  0  0  0  0  0  0
   -6.7774    0.3197   -1.0511 H   0  0  0  0  0  0  0  0  0  0  0  0
   -7.0504    1.8316   -0.1179 H   0  0  0  0  0  0  0  0  0  0  0  0
   -8.2099    0.4356    0.1011 H   0  0  0  0  0  0  0  0  0  0  0  0
   -4.6657   -0.8001    2.6801 H   0  0  0  0  0  0  0  0  0  0  0  0
   -2.2521   -0.4171    2.6696 H   0  0  0  0  0  0  0  0  0  0  0  0
   -2.5903    1.9764   -0.8593 H   0  0  0  0  0  0  0  0  0  0  0  0
   -5.0274    1.5643   -0.8122 H   0  0  0  0  0  0  0  0  0  0  0  0
    0.7702    0.8620   -1.0714 H   0  0  0  0  0  0  0  0  0  0  0  0
   -1.6921   -1.6798   -0.2838 H   0  0  0  0  0  0  0  0  0  0  0  0
   -1.3183   -4.0392   -0.7008 H   0  0  0  0  0  0  0  0  0  0  0  0
    0.9120   -4.8575   -1.2336 H   0  0  0  0  0  0  0  0  0  0  0  0
    2.8228   -3.3055   -1.3406 H   0  0  0  0  0  0  0  0  0  0  0  0
    3.4478   -1.4937   -2.8118 H   0  0  0  0  0  0  0  0  0  0  0  0
    5.4619   -0.0193   -2.9728 H   0  0  0  0  0  0  0  0  0  0  0  0
    5.9518    1.5709   -1.1659 H   0  0  0  0  0  0  0  0  0  0  0  0
    2.5170    0.2462    0.9080 H   0  0  0  0  0  0  0  0  0  0  0  0
    6.6273    2.3426    0.8714 H   0  0  0  0  0  0  0  0  0  0  0  0
    5.6831    3.8426    1.0187 H   0  0  0  0  0  0  0  0  0  0  0  0
  1  2  1  0
  2  3  1  0
  3  4  2  0
  4  5  1  0
  5  6  2  0
  6  7  1  0
  7  8  2  0
  6  9  1  0
  9 10  2  0
  9 11  2  0
  9 12  1  0
 12 13  1  0
 13 14  2  0
 14 15  1  0
 15 16  2  0
 16 17  1  0
 17 18  2  0
 18 19  1  0
 19 20  2  0
 20 21  1  0
 21 22  2  0
 22 23  1  0
 23 24  2  0
 23 25  1  0
 25 26  1  0
 25 27  2  0
  8  3  1  0
 18 13  1  0
 24 19  1  0
  1 28  1  0
  1 29  1  0
  1 30  1  0
  4 31  1  0
  5 32  1  0
  7 33  1  0
  8 34  1  0
 12 35  1  0
 14 36  1  0
 15 37  1  0
 16 38  1  0
 17 39  1  0
 20 40  1  0
 21 41  1  0
 22 42  1  0
 24 43  1  0
 26 44  1  0
 26 45  1  0
M  END
$$$$
[H]c1nc2c(C([H])([H])[H])c(C([H])([H])[H])c(-c3c(C([H])(C([H])([H])[H])C([H])([H])[H])c4c([H])c(C5([H])C([H])([H])C([H])([H])N(C([H])([H])c6nn(C([H])([H])[H])c([H])c6[H])C([H])([H])C5([H])[H])c([H])c([H])c4n3[H])c([H])n2n1
     RDKit          3D

 71 76  0  0  0  0  0  0  0  0999 V2000
   -1.7374   -2.8513   -0.8299 C   0  0  0  0  0  0  0  0  0  0  0  0
   -2.7885   -1.9475   -0.2662 C   0  0  0  0  0  0  0  0  0  0  0  0
   -4.1636   -2.4503   -0.5860 C   0  0  0  0  0  0  0  0  0  0  0  0
   -2.5456   -0.5261   -0.2580 C   0  0  0  0  0  0  0  0  0  0  0  0
   -3.4417    0.5128   -0.2098 C   0  0  0  0  0  0  0  0  0  0  0  0
   -2.7186    1.6918   -0.0975 N   0  0  0  0  0  0  0  0  0  0  0  0
   -1.4302    1.4400   -0.0765 C   0  0  0  0  0  0  0  0  0  0  0  0
   -0.3496    2.3162    0.0171 C   0  0  0  0  0  0  0  0  0  0  0  0
    0.9148    1.7845    0.0117 C   0  0  0  0  0  0  0  0  0  0  0  0
    1.1290    0.4271   -0.0817 C   0  0  0  0  0  0  0  0  0  0  0  0
    0.0119   -0.3928   -0.1710 C   0  0  0  0  0  0  0  0  0  0  0  0
   -1.2704    0.0925   -0.1721 C   0  0  0  0  0  0  0  0  0  0  0  0
    2.5058   -0.0737   -0.1298 C   0  0  0  0  0  0  0  0  0  0  0  0
    3.1731   -0.1871    1.2361 C   0  0  0  0  0  0  0  0  0  0  0  0
    4.6838   -0.1186    0.9312 C   0  0  0  0  0  0  0  0  0  0  0  0
    5.0524   -0.8499   -0.2181 N   0  0  0  0  0  0  0  0  0  0  0  0
    5.7451   -0.1892   -1.2583 C   0  0  0  0  0  0  0  0  0  0  0  0
    7.0403    0.3291   -0.7521 C   0  0  0  0  0  0  0  0  0  0  0  0
    7.2584    1.6051   -0.2660 C   0  0  0  0  0  0  0  0  0  0  0  0
    8.5935    1.6556    0.0819 C   0  0  0  0  0  0  0  0  0  0  0  0
    9.1605    0.4627   -0.1815 N   0  0  0  0  0  0  0  0  0  0  0  0
   10.5532    0.1722    0.0614 C   0  0  0  0  0  0  0  0  0  0  0  0
    8.2269   -0.3366   -0.6833 N   0  0  0  0  0  0  0  0  0  0  0  0
    4.1265   -1.8486   -0.6441 C   0  0  0  0  0  0  0  0  0  0  0  0
    2.7287   -1.3438   -0.8555 C   0  0  0  0  0  0  0  0  0  0  0  0
   -4.8835    0.5822   -0.2474 C   0  0  0  0  0  0  0  0  0  0  0  0
   -5.5518    0.3763   -1.4267 C   0  0  0  0  0  0  0  0  0  0  0  0
   -6.8910    0.4494   -1.5371 N   0  0  0  0  0  0  0  0  0  0  0  0
   -7.7053    0.2873   -2.5670 N   0  0  0  0  0  0  0  0  0  0  0  0
   -8.9795    0.4625   -2.1894 C   0  0  0  0  0  0  0  0  0  0  0  0
   -8.9222    0.7401   -0.8753 N   0  0  0  0  0  0  0  0  0  0  0  0
   -7.6440    0.7347   -0.4625 C   0  0  0  0  0  0  0  0  0  0  0  0
   -7.0498    0.9535    0.7576 C   0  0  0  0  0  0  0  0  0  0  0  0
   -7.8661    1.2751    1.9574 C   0  0  0  0  0  0  0  0  0  0  0  0
   -5.6531    0.8746    0.8579 C   0  0  0  0  0  0  0  0  0  0  0  0
   -5.0335    1.1005    2.1654 C   0  0  0  0  0  0  0  0  0  0  0  0
   -2.3077   -3.7799   -1.1899 H   0  0  0  0  0  0  0  0  0  0  0  0
   -1.1509   -2.4445   -1.6589 H   0  0  0  0  0  0  0  0  0  0  0  0
   -1.0550   -3.2778   -0.0760 H   0  0  0  0  0  0  0  0  0  0  0  0
   -2.7277   -2.2283    0.8893 H   0  0  0  0  0  0  0  0  0  0  0  0
   -4.4734   -2.3778   -1.6230 H   0  0  0  0  0  0  0  0  0  0  0  0
   -4.1692   -3.5873   -0.3085 H   0  0  0  0  0  0  0  0  0  0  0  0
   -4.8822   -2.0658    0.1527 H   0  0  0  0  0  0  0  0  0  0  0  0
   -3.1471    2.6491   -0.0354 H   0  0  0  0  0  0  0  0  0  0  0  0
   -0.5340    3.3737    0.0915 H   0  0  0  0  0  0  0  0  0  0  0  0
    1.7732    2.4627    0.0853 H   0  0  0  0  0  0  0  0  0  0  0  0
    0.2536   -1.4251   -0.2173 H   0  0  0  0  0  0  0  0  0  0  0  0
    3.1064    0.7369   -0.6450 H   0  0  0  0  0  0  0  0  0  0  0  0
    2.9342   -1.1699    1.6891 H   0  0  0  0  0  0  0  0  0  0  0  0
    2.9479    0.6665    1.8802 H   0  0  0  0  0  0  0  0  0  0  0  0
    5.2504   -0.4028    1.8562 H   0  0  0  0  0  0  0  0  0  0  0  0
    4.8823    0.9595    0.7675 H   0  0  0  0  0  0  0  0  0  0  0  0
    5.9132   -0.9424   -2.0734 H   0  0  0  0  0  0  0  0  0  0  0  0
    5.2303    0.6790   -1.7226 H   0  0  0  0  0  0  0  0  0  0  0  0
    6.5752    2.4301   -0.1571 H   0  0  0  0  0  0  0  0  0  0  0  0
    9.0925    2.5268    0.4992 H   0  0  0  0  0  0  0  0  0  0  0  0
   10.7617    0.3018    1.1452 H   0  0  0  0  0  0  0  0  0  0  0  0
   10.8105   -0.8619   -0.2429 H   0  0  0  0  0  0  0  0  0  0  0  0
   11.1886    0.9215   -0.4573 H   0  0  0  0  0  0  0  0  0  0  0  0
    4.4809   -2.2376   -1.6349 H   0  0  0  0  0  0  0  0  0  0  0  0
    4.1827   -2.7139    0.0422 H   0  0  0  0  0  0  0  0  0  0  0  0
    2.0689   -2.1730   -0.4583 H   0  0  0  0  0  0  0  0  0  0  0  0
    2.4502   -1.2756   -1.9321 H   0  0  0  0  0  0  0  0  0  0  0  0
   -4.9983    0.1382   -2.3394 H   0  0  0  0  0  0  0  0  0  0  0  0
   -9.8693    0.3956   -2.7958 H   0  0  0  0  0  0  0  0  0  0  0  0
   -7.4959    2.2408    2.3680 H   0  0  0  0  0  0  0  0  0  0  0  0
   -7.8087    0.5040    2.7439 H   0  0  0  0  0  0  0  0  0  0  0  0
   -8.9290    1.4911    1.6694 H   0  0  0  0  0  0  0  0  0  0  0  0
   -3.9566    1.3143    2.1391 H   0  0  0  0  0  0  0  0  0  0  0  0
   -5.1304    0.1183    2.7264 H   0  0  0  0  0  0  0  0  0  0  0  0
   -5.5458    1.8438    2.7821 H   0  0  0  0  0  0  0  0  0  0  0  0
  1  2  1  0
  2  3  1  0
  2  4  1  0
  4  5  2  0
  5  6  1  0
  6  7  1  0
  7  8  2  0
  8  9  1  0
  9 10  2  0
 10 11  1  0
 11 12  2  0
 10 13  1  0
 13 14  1  0
 14 15  1  0
 15 16  1  0
 16 17  1  0
 17 18  1  0
 18 19  1  0
 19 20  2  0
 20 21  1  0
 21 22  1  0
 21 23  1  0
 16 24  1  0
 24 25  1  0
  5 26  1  0
 26 27  2  0
 27 28  1  0
 28 29  1  0
 29 30  2  0
 30 31  1  0
 31 32  2  0
 32 33  1  0
 33 34  1  0
 33 35  2  0
 35 36  1  0
 12  4  1  0
 25 13  1  0
 35 26  1  0
 12  7  1  0
 23 18  2  0
 32 28  1  0
  1 37  1  0
  1 38  1  0
  1 39  1  0
  2 40  1  0
  3 41  1  0
  3 42  1  0
  3 43  1  0
  6 44  1  0
  8 45  1  0
  9 46  1  0
 11 47  1  0
 13 48  1  0
 14 49  1  0
 14 50  1  0
 15 51  1  0
 15 52  1  0
 17 53  1  0
 17 54  1  0
 19 55  1  0
 20 56  1  0
 22 57  1  0
 22 58  1  0
 22 59  1  0
 24 60  1  0
 24 61  1  0
 25 62  1  0
 25 63  1  0
 27 64  1  0
 30 65  1  0
 34 66  1  0
 34 67  1  0
 34 68  1  0
 36 69  1  0
 36 70  1  0
 36 71  1  0
M  END
$$$$
[H]c1c([H])c([H])c(S(=O)(=O)N(C([H])([H])C([H])([H])[H])C([H])([H])[C@]23c4nnc(-c5c(F)c([H])c([H])c([H])c5F)c([H])c4[C@]([H])(C([H])([H])C2([H])[H])C3(C([H])([H])[H])C([H])([H])[H])c([H])c1[H]
     RDKit          3D

 61 65  0  0  0  0  0  0  0  0999 V2000
   -4.0975   -1.0092   -1.4409 C   0  0  0  0  0  0  0  0  0  0  0  0
   -2.7502   -0.3234   -1.4763 C   0  0  0  0  0  0  0  0  0  0  0  0
   -2.1277   -0.2041   -0.2141 N   0  0  0  0  0  0  0  0  0  0  0  0
   -1.2051   -1.1144    0.2413 C   0  0  0  0  0  0  0  0  0  0  0  0
    0.1293   -1.3100   -0.2867 C   0  0  1  0  0  0  0  0  0  0  0  0
    0.2746   -1.7251   -1.7210 C   0  0  0  0  0  0  0  0  0  0  0  0
    1.6439   -2.3838   -1.8060 C   0  0  0  0  0  0  0  0  0  0  0  0
    2.1483   -2.3196   -0.3984 C   0  0  1  0  0  0  0  0  0  0  0  0
    2.3938   -0.8751   -0.1242 C   0  0  0  0  0  0  0  0  0  0  0  0
    3.5774   -0.1932    0.0384 C   0  0  0  0  0  0  0  0  0  0  0  0
    3.4952    1.1618    0.2756 C   0  0  0  0  0  0  0  0  0  0  0  0
    2.2734    1.7355    0.3343 N   0  0  0  0  0  0  0  0  0  0  0  0
    1.1607    1.0574    0.1751 N   0  0  0  0  0  0  0  0  0  0  0  0
    1.1564   -0.2592   -0.0582 C   0  0  0  0  0  0  0  0  0  0  0  0
    4.6753    1.9896    0.4639 C   0  0  0  0  0  0  0  0  0  0  0  0
    5.3168    2.6170   -0.6030 C   0  0  0  0  0  0  0  0  0  0  0  0
    4.8455    2.4662   -1.8642 F   0  0  0  0  0  0  0  0  0  0  0  0
    6.4371    3.4028   -0.4247 C   0  0  0  0  0  0  0  0  0  0  0  0
    6.9352    3.5696    0.8579 C   0  0  0  0  0  0  0  0  0  0  0  0
    6.2962    2.9465    1.9083 C   0  0  0  0  0  0  0  0  0  0  0  0
    5.1762    2.1582    1.7479 C   0  0  0  0  0  0  0  0  0  0  0  0
    4.5798    1.5610    2.8301 F   0  0  0  0  0  0  0  0  0  0  0  0
    0.8686   -2.4915    0.3922 C   0  0  0  0  0  0  0  0  0  0  0  0
    0.2646   -3.7977    0.0841 C   0  0  0  0  0  0  0  0  0  0  0  0
    1.0524   -2.1950    1.8503 C   0  0  0  0  0  0  0  0  0  0  0  0
   -2.4673    1.2127    0.6341 S   0  0  0  0  0  0  0  0  0  0  0  0
   -1.7810    1.2936    1.9449 O   0  0  0  0  0  0  0  0  0  0  0  0
   -2.0789    2.3985   -0.1837 O   0  0  0  0  0  0  0  0  0  0  0  0
   -4.1849    1.3858    0.9949 C   0  0  0  0  0  0  0  0  0  0  0  0
   -4.9613    2.0238    0.0623 C   0  0  0  0  0  0  0  0  0  0  0  0
   -6.3148    2.2183    0.2331 C   0  0  0  0  0  0  0  0  0  0  0  0
   -6.8645    1.7349    1.4033 C   0  0  0  0  0  0  0  0  0  0  0  0
   -6.0982    1.0910    2.3513 C   0  0  0  0  0  0  0  0  0  0  0  0
   -4.7514    0.9161    2.1450 C   0  0  0  0  0  0  0  0  0  0  0  0
   -4.8124   -0.5745   -2.1752 H   0  0  0  0  0  0  0  0  0  0  0  0
   -4.5234   -1.0574   -0.4185 H   0  0  0  0  0  0  0  0  0  0  0  0
   -3.9371   -2.0624   -1.7524 H   0  0  0  0  0  0  0  0  0  0  0  0
   -2.1255   -0.8064   -2.2059 H   0  0  0  0  0  0  0  0  0  0  0  0
   -2.9713    0.7153   -1.8706 H   0  0  0  0  0  0  0  0  0  0  0  0
   -1.0940   -0.9519    1.3696 H   0  0  0  0  0  0  0  0  0  0  0  0
   -1.7092   -2.1431    0.2442 H   0  0  0  0  0  0  0  0  0  0  0  0
   -0.4574   -2.4835   -2.0518 H   0  0  0  0  0  0  0  0  0  0  0  0
    0.2526   -0.8999   -2.4498 H   0  0  0  0  0  0  0  0  0  0  0  0
    1.5974   -3.4261   -2.1368 H   0  0  0  0  0  0  0  0  0  0  0  0
    2.3408   -1.7683   -2.4368 H   0  0  0  0  0  0  0  0  0  0  0  0
    2.9463   -2.9785   -0.1365 H   0  0  0  0  0  0  0  0  0  0  0  0
    4.5553   -0.6993   -0.0169 H   0  0  0  0  0  0  0  0  0  0  0  0
    6.9594    3.9016   -1.2147 H   0  0  0  0  0  0  0  0  0  0  0  0
    7.8251    4.1918    1.0124 H   0  0  0  0  0  0  0  0  0  0  0  0
    6.6676    3.0616    2.9261 H   0  0  0  0  0  0  0  0  0  0  0  0
    0.9975   -4.4455   -0.4746 H   0  0  0  0  0  0  0  0  0  0  0  0
    0.1130   -4.3508    1.0573 H   0  0  0  0  0  0  0  0  0  0  0  0
   -0.6565   -3.7936   -0.5016 H   0  0  0  0  0  0  0  0  0  0  0  0
    0.2128   -2.6711    2.4085 H   0  0  0  0  0  0  0  0  0  0  0  0
    1.9919   -2.5751    2.2756 H   0  0  0  0  0  0  0  0  0  0  0  0
    0.9645   -1.0938    2.0504 H   0  0  0  0  0  0  0  0  0  0  0  0
   -4.5427    2.4162   -0.8763 H   0  0  0  0  0  0  0  0  0  0  0  0
   -6.9323    2.7302   -0.5171 H   0  0  0  0  0  0  0  0  0  0  0  0
   -7.9459    1.8859    1.5484 H   0  0  0  0  0  0  0  0  0  0  0  0
   -6.5930    0.7267    3.2663 H   0  0  0  0  0  0  0  0  0  0  0  0
   -4.1412    0.4132    2.8806 H   0  0  0  0  0  0  0  0  0  0  0  0
  1  2  1  0
  2  3  1  0
  3  4  1  0
  5  4  1  1
  5  6  1  0
  6  7  1  0
  7  8  1  0
  8  9  1  0
  9 10  2  0
 10 11  1  0
 11 12  2  0
 12 13  1  0
 13 14  2  0
 11 15  1  0
 15 16  2  0
 16 17  1  0
 16 18  1  0
 18 19  2  0
 19 20  1  0
 20 21  2  0
 21 22  1  0
  8 23  1  0
 23 24  1  0
 23 25  1  0
  3 26  1  0
 26 27  2  0
 26 28  2  0
 26 29  1  0
 29 30  2  0
 30 31  1  0
 31 32  2  0
 32 33  1  0
 33 34  2  0
 14  5  1  0
 21 15  1  0
 34 29  1  0
 23  5  1  0
 14  9  1  0
  1 35  1  0
  1 36  1  0
  1 37  1  0
  2 38  1  0
  2 39  1  0
  4 40  1  0
  4 41  1  0
  6 42  1  0
  6 43  1  0
  7 44  1  0
  7 45  1  0
  8 46  1  6
 10 47  1  0
 18 48  1  0
 19 49  1  0
 20 50  1  0
 24 51  1  0
 24 52  1  0
 24 53  1  0
 25 54  1  0
 25 55  1  0
 25 56  1  0
 30 57  1  0
 31 58  1  0
 32 59  1  0
 33 60  1  0
 34 61  1  0
M  END
$$$$
[H]c1nc(N([H])c2c([H])c([H])c(C(F)(F)F)c([H])c2OC([H])(C([H])([H])[H])C([H])([H])[H])nc(N([H])c2c([H])c([H])c([H])c([H])c2S(=O)(=O)C([H])(C([H])([H])[H])C([H])([H])[H])c1Cl
     RDKit          3D

 59 61  0  0  0  0  0  0  0  0999 V2000
   -6.1155   -2.0494   -1.3889 C   0  0  0  0  0  0  0  0  0  0  0  0
   -4.6062   -1.7723   -1.7454 C   0  0  0  0  0  0  0  0  0  0  0  0
   -3.9100   -3.0972   -1.6737 C   0  0  0  0  0  0  0  0  0  0  0  0
   -4.0879   -0.8073   -0.9322 O   0  0  0  0  0  0  0  0  0  0  0  0
   -4.4205    0.4357   -0.5382 C   0  0  0  0  0  0  0  0  0  0  0  0
   -5.5770    1.1106   -0.8049 C   0  0  0  0  0  0  0  0  0  0  0  0
   -5.8869    2.3820   -0.3699 C   0  0  0  0  0  0  0  0  0  0  0  0
   -4.9232    2.9964    0.4003 C   0  0  0  0  0  0  0  0  0  0  0  0
   -3.7300    2.3535    0.6958 C   0  0  0  0  0  0  0  0  0  0  0  0
   -3.4319    1.0987    0.2586 C   0  0  0  0  0  0  0  0  0  0  0  0
   -2.1760    0.4934    0.3880 N   0  0  0  0  0  0  0  0  0  0  0  0
   -1.1769    0.8089    1.3256 C   0  0  0  0  0  0  0  0  0  0  0  0
   -1.2379    1.6538    2.3462 N   0  0  0  0  0  0  0  0  0  0  0  0
   -0.1778    1.9725    3.1044 C   0  0  0  0  0  0  0  0  0  0  0  0
    1.0647    1.4286    2.8566 C   0  0  0  0  0  0  0  0  0  0  0  0
    2.4608    1.8265    3.8207 Cl  0  0  0  0  0  0  0  0  0  0  0  0
    1.1606    0.5373    1.7847 C   0  0  0  0  0  0  0  0  0  0  0  0
    2.4528    0.0697    1.4191 N   0  0  0  0  0  0  0  0  0  0  0  0
    2.7717   -0.8179    0.3752 C   0  0  0  0  0  0  0  0  0  0  0  0
    1.8760   -1.6893   -0.2412 C   0  0  0  0  0  0  0  0  0  0  0  0
    2.2277   -2.5381   -1.2712 C   0  0  0  0  0  0  0  0  0  0  0  0
    3.5268   -2.5278   -1.7135 C   0  0  0  0  0  0  0  0  0  0  0  0
    4.4455   -1.6588   -1.1021 C   0  0  0  0  0  0  0  0  0  0  0  0
    4.0857   -0.8257   -0.0877 C   0  0  0  0  0  0  0  0  0  0  0  0
    5.2851    0.2337    0.6122 S   0  0  0  0  0  0  0  0  0  0  0  0
    5.5509   -0.1708    2.0636 O   0  0  0  0  0  0  0  0  0  0  0  0
    4.8596    1.6534    0.6021 O   0  0  0  0  0  0  0  0  0  0  0  0
    6.8637    0.1141   -0.2075 C   0  0  0  0  0  0  0  0  0  0  0  0
    7.5980   -1.1099    0.2528 C   0  0  0  0  0  0  0  0  0  0  0  0
    7.7106    1.3036    0.3217 C   0  0  0  0  0  0  0  0  0  0  0  0
    0.0747    0.2716    1.0909 N   0  0  0  0  0  0  0  0  0  0  0  0
   -7.1722    3.0705   -0.7214 C   0  0  0  0  0  0  0  0  0  0  0  0
   -7.0374    3.4177   -2.0767 F   0  0  0  0  0  0  0  0  0  0  0  0
   -8.2778    2.3015   -0.4916 F   0  0  0  0  0  0  0  0  0  0  0  0
   -7.2315    4.2833   -0.0541 F   0  0  0  0  0  0  0  0  0  0  0  0
   -6.2280   -1.6630   -0.3589 H   0  0  0  0  0  0  0  0  0  0  0  0
   -6.2473   -3.1678   -1.3693 H   0  0  0  0  0  0  0  0  0  0  0  0
   -6.7612   -1.5535   -2.1316 H   0  0  0  0  0  0  0  0  0  0  0  0
   -4.6471   -1.3877   -2.7801 H   0  0  0  0  0  0  0  0  0  0  0  0
   -2.8840   -2.9084   -1.2121 H   0  0  0  0  0  0  0  0  0  0  0  0
   -4.4396   -3.7558   -0.9117 H   0  0  0  0  0  0  0  0  0  0  0  0
   -3.8002   -3.6344   -2.6294 H   0  0  0  0  0  0  0  0  0  0  0  0
   -6.3579    0.6269   -1.4170 H   0  0  0  0  0  0  0  0  0  0  0  0
   -5.0975    4.0011    0.7765 H   0  0  0  0  0  0  0  0  0  0  0  0
   -3.0035    2.9304    1.3099 H   0  0  0  0  0  0  0  0  0  0  0  0
   -1.9591   -0.2998   -0.3140 H   0  0  0  0  0  0  0  0  0  0  0  0
   -0.3125    2.6670    3.9269 H   0  0  0  0  0  0  0  0  0  0  0  0
    3.2482    0.4354    1.9938 H   0  0  0  0  0  0  0  0  0  0  0  0
    0.8671   -1.7409    0.0905 H   0  0  0  0  0  0  0  0  0  0  0  0
    1.5243   -3.1992   -1.7313 H   0  0  0  0  0  0  0  0  0  0  0  0
    3.8736   -3.1629   -2.5091 H   0  0  0  0  0  0  0  0  0  0  0  0
    5.4490   -1.6867   -1.4989 H   0  0  0  0  0  0  0  0  0  0  0  0
    6.7266    0.2411   -1.2796 H   0  0  0  0  0  0  0  0  0  0  0  0
    7.4198   -1.2065    1.3497 H   0  0  0  0  0  0  0  0  0  0  0  0
    8.7200   -0.9487    0.1404 H   0  0  0  0  0  0  0  0  0  0  0  0
    7.4129   -2.0245   -0.3076 H   0  0  0  0  0  0  0  0  0  0  0  0
    7.3965    1.4582    1.3470 H   0  0  0  0  0  0  0  0  0  0  0  0
    7.4770    2.2073   -0.2880 H   0  0  0  0  0  0  0  0  0  0  0  0
    8.7850    1.0195    0.2947 H   0  0  0  0  0  0  0  0  0  0  0  0
  1  2  1  0
  2  3  1  0
  2  4  1  0
  4  5  1  0
  5  6  2  0
  6  7  1  0
  7  8  2  0
  8  9  1  0
  9 10  2  0
 10 11  1  0
 11 12  1  0
 12 13  2  0
 13 14  1  0
 14 15  2  0
 15 16  1  0
 15 17  1  0
 17 18  1  0
 18 19  1  0
 19 20  2  0
 20 21  1  0
 21 22  2  0
 22 23  1  0
 23 24  2  0
 24 25  1  0
 25 26  2  0
 25 27  2  0
 25 28  1  0
 28 29  1  0
 28 30  1  0
 17 31  2  0
  7 32  1  0
 32 33  1  0
 32 34  1  0
 32 35  1  0
 10  5  1  0
 31 12  1  0
 24 19  1  0
  1 36  1  0
  1 37  1  0
  1 38  1  0
  2 39  1  0
  3 40  1  0
  3 41  1  0
  3 42  1  0
  6 43  1  0
  8 44  1  0
  9 45  1  0
 11 46  1  0
 14 47  1  0
 18 48  1  0
 20 49  1  0
 21 50  1  0
 22 51  1  0
 23 52  1  0
 28 53  1  0
 29 54  1  0
 29 55  1  0
 29 56  1  0
 30 57  1  0
 30 58  1  0
 30 59  1  0
M  END
$$$$
[H]O[C@]([H])(C([H])([H])N([H])C(=O)c1c(C([H])([H])[H])c(/C([H])=C2\C(=O)N([H])c3c([H])c([H])c(F)c([H])c32)n([H])c1C([H])([H])[H])C([H])([H])N1C([H])([H])C([H])([H])OC([H])([H])C1([H])[H]
     RDKit          3D

 59 62  0  0  0  0  0  0  0  0999 V2000
   -0.0067    3.0051   -1.0071 C   0  0  0  0  0  0  0  0  0  0  0  0
   -0.8501    1.8317   -0.6247 C   0  0  0  0  0  0  0  0  0  0  0  0
   -2.0811    1.8440   -0.1243 N   0  0  0  0  0  0  0  0  0  0  0  0
   -2.5055    0.6096    0.0967 C   0  0  0  0  0  0  0  0  0  0  0  0
   -3.7672    0.1046    0.6046 C   0  0  0  0  0  0  0  0  0  0  0  0
   -4.9551    0.3616    0.1015 C   0  0  0  0  0  0  0  0  0  0  0  0
   -5.2686    1.1831   -1.0526 C   0  0  0  0  0  0  0  0  0  0  0  0
   -4.4447    1.7926   -1.8068 O   0  0  0  0  0  0  0  0  0  0  0  0
   -6.6877    1.1703   -1.1787 N   0  0  0  0  0  0  0  0  0  0  0  0
   -7.2854    0.3683   -0.1452 C   0  0  0  0  0  0  0  0  0  0  0  0
   -8.5932    0.0485    0.1572 C   0  0  0  0  0  0  0  0  0  0  0  0
   -8.8890   -0.7569    1.2253 C   0  0  0  0  0  0  0  0  0  0  0  0
   -7.8675   -1.2558    2.0099 C   0  0  0  0  0  0  0  0  0  0  0  0
   -8.1704   -2.0582    3.0732 F   0  0  0  0  0  0  0  0  0  0  0  0
   -6.5671   -0.9274    1.6946 C   0  0  0  0  0  0  0  0  0  0  0  0
   -6.2525   -0.1198    0.6256 C   0  0  0  0  0  0  0  0  0  0  0  0
   -1.4701   -0.2719   -0.2891 C   0  0  0  0  0  0  0  0  0  0  0  0
   -1.5634   -1.7560   -0.2190 C   0  0  0  0  0  0  0  0  0  0  0  0
   -0.4504    0.4817   -0.7334 C   0  0  0  0  0  0  0  0  0  0  0  0
    0.8421    0.0665   -1.2851 C   0  0  0  0  0  0  0  0  0  0  0  0
    1.4391    0.9461   -2.0019 O   0  0  0  0  0  0  0  0  0  0  0  0
    1.4641   -1.1610   -1.1017 N   0  0  0  0  0  0  0  0  0  0  0  0
    2.7215   -1.6317   -1.5988 C   0  0  0  0  0  0  0  0  0  0  0  0
    3.9100   -0.9040   -1.0858 C   0  0  1  0  0  0  0  0  0  0  0  0
    3.9623    0.4288   -1.4233 O   0  0  0  0  0  0  0  0  0  0  0  0
    3.9389   -1.0769    0.4336 C   0  0  0  0  0  0  0  0  0  0  0  0
    5.1145   -0.5489    1.0231 N   0  0  0  0  0  0  0  0  0  0  0  0
    6.3057   -1.2328    0.7606 C   0  0  0  0  0  0  0  0  0  0  0  0
    7.5650   -0.4418    0.7566 C   0  0  0  0  0  0  0  0  0  0  0  0
    7.4895    0.7846    1.3637 O   0  0  0  0  0  0  0  0  0  0  0  0
    6.4448    1.4794    0.7104 C   0  0  0  0  0  0  0  0  0  0  0  0
    5.1722    0.8464    1.2284 C   0  0  0  0  0  0  0  0  0  0  0  0
    0.0822    3.1015   -2.1049 H   0  0  0  0  0  0  0  0  0  0  0  0
    0.9945    2.8829   -0.5849 H   0  0  0  0  0  0  0  0  0  0  0  0
   -0.4526    3.9508   -0.6159 H   0  0  0  0  0  0  0  0  0  0  0  0
   -2.6066    2.7533    0.0695 H   0  0  0  0  0  0  0  0  0  0  0  0
   -3.7823   -0.5608    1.4939 H   0  0  0  0  0  0  0  0  0  0  0  0
   -7.2117    1.6663   -1.9082 H   0  0  0  0  0  0  0  0  0  0  0  0
   -9.3955    0.4290   -0.4451 H   0  0  0  0  0  0  0  0  0  0  0  0
   -9.9115   -1.0343    1.4983 H   0  0  0  0  0  0  0  0  0  0  0  0
   -5.7718   -1.3177    2.3089 H   0  0  0  0  0  0  0  0  0  0  0  0
   -2.6454   -2.0706   -0.0938 H   0  0  0  0  0  0  0  0  0  0  0  0
   -1.2591   -2.2559   -1.1569 H   0  0  0  0  0  0  0  0  0  0  0  0
   -1.0707   -2.1818    0.6776 H   0  0  0  0  0  0  0  0  0  0  0  0
    0.9409   -1.8713   -0.4745 H   0  0  0  0  0  0  0  0  0  0  0  0
    2.7227   -1.5655   -2.7387 H   0  0  0  0  0  0  0  0  0  0  0  0
    2.8856   -2.7214   -1.3345 H   0  0  0  0  0  0  0  0  0  0  0  0
    4.8252   -1.3984   -1.5342 H   0  0  0  0  0  0  0  0  0  0  0  0
    4.6728    0.6685   -2.0620 H   0  0  0  0  0  0  0  0  0  0  0  0
    3.8608   -2.1623    0.6551 H   0  0  0  0  0  0  0  0  0  0  0  0
    3.0333   -0.6218    0.8919 H   0  0  0  0  0  0  0  0  0  0  0  0
    6.4000   -2.0516    1.5425 H   0  0  0  0  0  0  0  0  0  0  0  0
    6.2394   -1.7948   -0.1894 H   0  0  0  0  0  0  0  0  0  0  0  0
    8.3678   -1.0168    1.3034 H   0  0  0  0  0  0  0  0  0  0  0  0
    7.9510   -0.2953   -0.2738 H   0  0  0  0  0  0  0  0  0  0  0  0
    6.5258    1.2239   -0.3654 H   0  0  0  0  0  0  0  0  0  0  0  0
    6.4620    2.5549    0.9159 H   0  0  0  0  0  0  0  0  0  0  0  0
    5.1227    1.0724    2.3311 H   0  0  0  0  0  0  0  0  0  0  0  0
    4.3267    1.4070    0.7958 H   0  0  0  0  0  0  0  0  0  0  0  0
  1  2  1  0
  2  3  1  0
  3  4  1  0
  4  5  1  0
  5  6  2  0
  6  7  1  0
  7  8  2  0
  7  9  1  0
  9 10  1  0
 10 11  2  0
 11 12  1  0
 12 13  2  0
 13 14  1  0
 13 15  1  0
 15 16  2  0
  4 17  2  0
 17 18  1  0
 17 19  1  0
 19 20  1  0
 20 21  2  0
 20 22  1  0
 22 23  1  0
 23 24  1  0
 24 25  1  0
 24 26  1  0
 26 27  1  0
 27 28  1  0
 28 29  1  0
 29 30  1  0
 30 31  1  0
 31 32  1  0
 19  2  2  0
 32 27  1  0
 16  6  1  0
 16 10  1  0
  1 33  1  0
  1 34  1  0
  1 35  1  0
  3 36  1  0
  5 37  1  0
  9 38  1  0
 11 39  1  0
 12 40  1  0
 15 41  1  0
 18 42  1  0
 18 43  1  0
 18 44  1  0
 22 45  1  0
 23 46  1  0
 23 47  1  0
 24 48  1  6
 25 49  1  0
 26 50  1  0
 26 51  1  0
 28 52  1  0
 28 53  1  0
 29 54  1  0
 29 55  1  0
 31 56  1  0
 31 57  1  0
 32 58  1  0
 32 59  1  0
M  END
$$$$
[H]c1c([H])c(C(=O)N([H])c2sc(N([H])c3c([H])c([H])c4c([H])c([H])c([H])c([H])c4c3[H])nc2C(=O)N([H])[H])c([H])c([H])c1Cl
     RDKit          3D

 44 47  0  0  0  0  0  0  0  0999 V2000
    0.5345   -2.9258    1.0647 N   0  0  0  0  0  0  0  0  0  0  0  0
    1.4632   -1.8194    1.1195 C   0  0  0  0  0  0  0  0  0  0  0  0
    2.5485   -2.0842    1.6301 O   0  0  0  0  0  0  0  0  0  0  0  0
    1.0462   -0.4867    0.5692 C   0  0  0  0  0  0  0  0  0  0  0  0
   -0.2329   -0.2532    0.4089 N   0  0  0  0  0  0  0  0  0  0  0  0
   -0.6986    0.9291    0.1491 C   0  0  0  0  0  0  0  0  0  0  0  0
   -2.0447    1.3954   -0.0587 N   0  0  0  0  0  0  0  0  0  0  0  0
   -3.2119    0.6454   -0.0205 C   0  0  0  0  0  0  0  0  0  0  0  0
   -3.3067   -0.6977    0.2929 C   0  0  0  0  0  0  0  0  0  0  0  0
   -4.5348   -1.3699    0.2995 C   0  0  0  0  0  0  0  0  0  0  0  0
   -5.6986   -0.7131   -0.0076 C   0  0  0  0  0  0  0  0  0  0  0  0
   -6.8896   -1.4042    0.0084 C   0  0  0  0  0  0  0  0  0  0  0  0
   -8.0373   -0.7221   -0.3028 C   0  0  0  0  0  0  0  0  0  0  0  0
   -7.9935    0.6170   -0.6216 C   0  0  0  0  0  0  0  0  0  0  0  0
   -6.7882    1.2835   -0.6297 C   0  0  0  0  0  0  0  0  0  0  0  0
   -5.6058    0.6323   -0.3216 C   0  0  0  0  0  0  0  0  0  0  0  0
   -4.4162    1.3049   -0.3333 C   0  0  0  0  0  0  0  0  0  0  0  0
    0.7385    1.8577    0.1087 S   0  0  0  0  0  0  0  0  0  0  0  0
    1.8990    0.5570    0.4463 C   0  0  0  0  0  0  0  0  0  0  0  0
    3.2867    0.7558    0.3207 N   0  0  0  0  0  0  0  0  0  0  0  0
    4.2493   -0.0867   -0.1779 C   0  0  0  0  0  0  0  0  0  0  0  0
    4.0453   -1.2169   -0.6709 O   0  0  0  0  0  0  0  0  0  0  0  0
    5.7001    0.2913   -0.1766 C   0  0  0  0  0  0  0  0  0  0  0  0
    6.6141   -0.3687   -0.9685 C   0  0  0  0  0  0  0  0  0  0  0  0
    7.9528   -0.0406   -0.9766 C   0  0  0  0  0  0  0  0  0  0  0  0
    8.3778    0.9839   -0.1607 C   0  0  0  0  0  0  0  0  0  0  0  0
   10.0759    1.3963   -0.1750 Cl  0  0  0  0  0  0  0  0  0  0  0  0
    7.4942    1.6582    0.6373 C   0  0  0  0  0  0  0  0  0  0  0  0
    6.1580    1.2980    0.6165 C   0  0  0  0  0  0  0  0  0  0  0  0
    0.2269   -3.3492    1.9516 H   0  0  0  0  0  0  0  0  0  0  0  0
    0.1884   -3.2822    0.1575 H   0  0  0  0  0  0  0  0  0  0  0  0
   -2.0946    2.4376   -0.2592 H   0  0  0  0  0  0  0  0  0  0  0  0
   -2.4155   -1.2508    0.5431 H   0  0  0  0  0  0  0  0  0  0  0  0
   -4.4985   -2.4172    0.5577 H   0  0  0  0  0  0  0  0  0  0  0  0
   -6.9544   -2.4428    0.2516 H   0  0  0  0  0  0  0  0  0  0  0  0
   -9.0262   -1.1968   -0.3136 H   0  0  0  0  0  0  0  0  0  0  0  0
   -8.9097    1.1388   -0.8644 H   0  0  0  0  0  0  0  0  0  0  0  0
   -6.7063    2.3349   -0.8740 H   0  0  0  0  0  0  0  0  0  0  0  0
   -4.3691    2.3411   -0.5784 H   0  0  0  0  0  0  0  0  0  0  0  0
    3.6212    1.7148    0.6723 H   0  0  0  0  0  0  0  0  0  0  0  0
    6.2451   -1.1823   -1.6100 H   0  0  0  0  0  0  0  0  0  0  0  0
    8.6384   -0.5886   -1.6175 H   0  0  0  0  0  0  0  0  0  0  0  0
    7.8385    2.4546    1.2682 H   0  0  0  0  0  0  0  0  0  0  0  0
    5.4909    1.8710    1.2823 H   0  0  0  0  0  0  0  0  0  0  0  0
  1  2  1  0
  2  3  2  0
  2  4  1  0
  4  5  1  0
  5  6  2  0
  6  7  1  0
  7  8  1  0
  8  9  2  0
  9 10  1  0
 10 11  2  0
 11 12  1  0
 12 13  2  0
 13 14  1  0
 14 15  2  0
 15 16  1  0
 16 17  2  0
  6 18  1  0
 18 19  1  0
 19 20  1  0
 20 21  1  0
 21 22  2  0
 21 23  1  0
 23 24  2  0
 24 25  1  0
 25 26  2  0
 26 27  1  0
 26 28  1  0
 28 29  2  0
 19  4  2  0
 29 23  1  0
 17  8  1  0
 16 11  1  0
  1 30  1  0
  1 31  1  0
  7 32  1  0
  9 33  1  0
 10 34  1  0
 12 35  1  0
 13 36  1  0
 14 37  1  0
 15 38  1  0
 17 39  1  0
 20 40  1  0
 24 41  1  0
 25 42  1  0
 28 43  1  0
 29 44  1  0
M  END
$$$$
[H]c1c([H])c([H])c(C([H])([H])[C@@]2([H])C(=O)N([H])[C@@]([H])(C([H])([H])c3c([H])c([H])c([H])c([H])c3[H])C(=O)N([H])[C@]([H])(C([H])([H])c3c([H])c([H])c([H])c([H])c3[H])C(=O)N([H])[C@@]([H])(C([H])([H])C([H])([H])C([H])([H])C([H])([H])N([H])[H])C(=O)N([H])[C@@]([H])(C([H])(C([H])([H])[H])C([H])([H])[H])C(=O)N2[H])c([H])c1[H]
     RDKit          3D

 97100  0  0  0  0  0  0  0  0999 V2000
   -0.9799   -3.6151   -2.2338 C   0  0  0  0  0  0  0  0  0  0  0  0
    0.2181   -3.2219   -1.4917 C   0  0  0  0  0  0  0  0  0  0  0  0
    1.3882   -3.1555   -2.4260 C   0  0  0  0  0  0  0  0  0  0  0  0
    0.1821   -1.9624   -0.6732 C   0  0  2  0  0  0  0  0  0  0  0  0
    1.5088   -1.8726   -0.0892 N   0  0  0  0  0  0  0  0  0  0  0  0
    2.3126   -0.7024    0.0212 C   0  0  0  0  0  0  0  0  0  0  0  0
    2.9689   -0.5991    1.1151 O   0  0  0  0  0  0  0  0  0  0  0  0
    2.4582    0.3599   -0.9537 C   0  0  2  0  0  0  0  0  0  0  0  0
    3.7998    0.5516   -1.6320 C   0  0  0  0  0  0  0  0  0  0  0  0
    4.3759   -0.5369   -2.4038 C   0  0  0  0  0  0  0  0  0  0  0  0
    4.9227   -1.7485   -1.7733 C   0  0  0  0  0  0  0  0  0  0  0  0
    6.1805   -1.6000   -0.9790 C   0  0  0  0  0  0  0  0  0  0  0  0
    6.1570   -0.7016    0.1131 N   0  0  0  0  0  0  0  0  0  0  0  0
    1.9368    1.6560   -0.5655 N   0  0  0  0  0  0  0  0  0  0  0  0
    1.5844    2.2010    0.6692 C   0  0  0  0  0  0  0  0  0  0  0  0
    2.2759    3.2241    1.0763 O   0  0  0  0  0  0  0  0  0  0  0  0
    0.5233    1.7921    1.6028 C   0  0  1  0  0  0  0  0  0  0  0  0
    0.9218    1.6579    3.0319 C   0  0  0  0  0  0  0  0  0  0  0  0
    1.4464    2.7989    3.7511 C   0  0  0  0  0  0  0  0  0  0  0  0
    0.6333    3.7564    4.3490 C   0  0  0  0  0  0  0  0  0  0  0  0
    1.1475    4.8114    5.0721 C   0  0  0  0  0  0  0  0  0  0  0  0
    2.5080    4.9557    5.2308 C   0  0  0  0  0  0  0  0  0  0  0  0
    3.3352    4.0224    4.6503 C   0  0  0  0  0  0  0  0  0  0  0  0
    2.7943    2.9824    3.9355 C   0  0  0  0  0  0  0  0  0  0  0  0
   -0.6332    2.7123    1.4752 N   0  0  0  0  0  0  0  0  0  0  0  0
   -1.8541    2.4170    0.8551 C   0  0  0  0  0  0  0  0  0  0  0  0
   -2.8944    2.6611    1.5225 O   0  0  0  0  0  0  0  0  0  0  0  0
   -2.0265    1.8530   -0.4989 C   0  0  2  0  0  0  0  0  0  0  0  0
   -1.9936    3.0963   -1.4152 C   0  0  0  0  0  0  0  0  0  0  0  0
   -2.1668    2.7913   -2.8250 C   0  0  0  0  0  0  0  0  0  0  0  0
   -1.1450    2.4660   -3.6880 C   0  0  0  0  0  0  0  0  0  0  0  0
   -1.3812    2.1991   -5.0185 C   0  0  0  0  0  0  0  0  0  0  0  0
   -2.6589    2.2505   -5.5267 C   0  0  0  0  0  0  0  0  0  0  0  0
   -3.6924    2.5699   -4.6969 C   0  0  0  0  0  0  0  0  0  0  0  0
   -3.4504    2.8372   -3.3621 C   0  0  0  0  0  0  0  0  0  0  0  0
   -3.2409    1.1559   -0.7348 N   0  0  0  0  0  0  0  0  0  0  0  0
   -3.5257   -0.1932   -0.9605 C   0  0  0  0  0  0  0  0  0  0  0  0
   -4.1088   -0.4942   -2.0777 O   0  0  0  0  0  0  0  0  0  0  0  0
   -3.2774   -1.3878   -0.1256 C   0  0  2  0  0  0  0  0  0  0  0  0
   -4.3990   -1.6412    0.8574 C   0  0  0  0  0  0  0  0  0  0  0  0
   -4.2524   -2.7900    1.7215 C   0  0  0  0  0  0  0  0  0  0  0  0
   -3.6729   -2.6060    2.9622 C   0  0  0  0  0  0  0  0  0  0  0  0
   -3.4924   -3.6548    3.8339 C   0  0  0  0  0  0  0  0  0  0  0  0
   -3.8785   -4.9339    3.5151 C   0  0  0  0  0  0  0  0  0  0  0  0
   -4.4627   -5.1525    2.2794 C   0  0  0  0  0  0  0  0  0  0  0  0
   -4.6369   -4.0796    1.4116 C   0  0  0  0  0  0  0  0  0  0  0  0
   -2.0317   -1.4039    0.5940 N   0  0  0  0  0  0  0  0  0  0  0  0
   -0.8266   -2.0288    0.4336 C   0  0  0  0  0  0  0  0  0  0  0  0
   -0.4375   -2.8323    1.3798 O   0  0  0  0  0  0  0  0  0  0  0  0
   -1.4277   -2.7196   -2.7493 H   0  0  0  0  0  0  0  0  0  0  0  0
   -1.7433   -4.2024   -1.6767 H   0  0  0  0  0  0  0  0  0  0  0  0
   -0.6680   -4.2927   -3.0748 H   0  0  0  0  0  0  0  0  0  0  0  0
    0.4566   -4.0522   -0.7575 H   0  0  0  0  0  0  0  0  0  0  0  0
    1.2146   -3.7745   -3.3487 H   0  0  0  0  0  0  0  0  0  0  0  0
    1.6400   -2.1384   -2.7810 H   0  0  0  0  0  0  0  0  0  0  0  0
    2.3240   -3.5626   -1.9581 H   0  0  0  0  0  0  0  0  0  0  0  0
    0.0504   -1.0870   -1.3302 H   0  0  0  0  0  0  0  0  0  0  0  0
    1.9098   -2.7601    0.2907 H   0  0  0  0  0  0  0  0  0  0  0  0
    1.7870    0.0520   -1.8335 H   0  0  0  0  0  0  0  0  0  0  0  0
    3.6988    1.4590   -2.3037 H   0  0  0  0  0  0  0  0  0  0  0  0
    4.4970    0.9391   -0.8250 H   0  0  0  0  0  0  0  0  0  0  0  0
    5.1995   -0.0858   -3.0439 H   0  0  0  0  0  0  0  0  0  0  0  0
    3.5920   -0.8182   -3.2004 H   0  0  0  0  0  0  0  0  0  0  0  0
    4.1930   -2.3334   -1.1558 H   0  0  0  0  0  0  0  0  0  0  0  0
    5.1785   -2.4604   -2.6205 H   0  0  0  0  0  0  0  0  0  0  0  0
    7.0506   -1.3624   -1.6626 H   0  0  0  0  0  0  0  0  0  0  0  0
    6.4981   -2.6106   -0.5535 H   0  0  0  0  0  0  0  0  0  0  0  0
    6.2199   -1.1553    1.0553 H   0  0  0  0  0  0  0  0  0  0  0  0
    6.7876    0.1303    0.0077 H   0  0  0  0  0  0  0  0  0  0  0  0
    1.8145    2.3255   -1.4009 H   0  0  0  0  0  0  0  0  0  0  0  0
    0.1892    0.7573    1.2954 H   0  0  0  0  0  0  0  0  0  0  0  0
   -0.0493    1.3184    3.5611 H   0  0  0  0  0  0  0  0  0  0  0  0
    1.5602    0.7412    3.1487 H   0  0  0  0  0  0  0  0  0  0  0  0
   -0.4482    3.7097    4.2771 H   0  0  0  0  0  0  0  0  0  0  0  0
    0.5169    5.5621    5.5401 H   0  0  0  0  0  0  0  0  0  0  0  0
    2.9388    5.7862    5.8011 H   0  0  0  0  0  0  0  0  0  0  0  0
    4.4012    4.1457    4.7824 H   0  0  0  0  0  0  0  0  0  0  0  0
    3.4909    2.2787    3.5066 H   0  0  0  0  0  0  0  0  0  0  0  0
   -0.4368    3.6672    1.9150 H   0  0  0  0  0  0  0  0  0  0  0  0
   -1.1012    1.2969   -0.8335 H   0  0  0  0  0  0  0  0  0  0  0  0
   -0.9966    3.5964   -1.2964 H   0  0  0  0  0  0  0  0  0  0  0  0
   -2.8136    3.7821   -1.0779 H   0  0  0  0  0  0  0  0  0  0  0  0
   -0.1482    2.4302   -3.2740 H   0  0  0  0  0  0  0  0  0  0  0  0
   -0.5904    1.9427   -5.7033 H   0  0  0  0  0  0  0  0  0  0  0  0
   -2.8712    2.0401   -6.5859 H   0  0  0  0  0  0  0  0  0  0  0  0
   -4.6964    2.6036   -5.1264 H   0  0  0  0  0  0  0  0  0  0  0  0
   -4.3203    3.0862   -2.7519 H   0  0  0  0  0  0  0  0  0  0  0  0
   -4.1010    1.8068   -0.7411 H   0  0  0  0  0  0  0  0  0  0  0  0
   -3.3032   -2.3317   -0.7496 H   0  0  0  0  0  0  0  0  0  0  0  0
   -5.3324   -1.7670    0.2505 H   0  0  0  0  0  0  0  0  0  0  0  0
   -4.5353   -0.7235    1.4544 H   0  0  0  0  0  0  0  0  0  0  0  0
   -3.3327   -1.6191    3.3117 H   0  0  0  0  0  0  0  0  0  0  0  0
   -3.0320   -3.5177    4.8244 H   0  0  0  0  0  0  0  0  0  0  0  0
   -3.7488   -5.7891    4.1865 H   0  0  0  0  0  0  0  0  0  0  0  0
   -4.7929   -6.1314    1.9563 H   0  0  0  0  0  0  0  0  0  0  0  0
   -5.0859   -4.2691    0.4708 H   0  0  0  0  0  0  0  0  0  0  0  0
   -2.0940   -0.7589    1.4716 H   0  0  0  0  0  0  0  0  0  0  0  0
  1  2  1  0
  2  3  1  0
  2  4  1  0
  4  5  1  0
  5  6  1  0
  6  7  2  0
  6  8  1  0
  8  9  1  0
  9 10  1  0
 10 11  1  0
 11 12  1  0
 12 13  1  0
  8 14  1  0
 14 15  1  0
 15 16  2  0
 15 17  1  0
 17 18  1  0
 18 19  1  0
 19 20  2  0
 20 21  1  0
 21 22  2  0
 22 23  1  0
 23 24  2  0
 17 25  1  0
 25 26  1  0
 26 27  2  0
 26 28  1  0
 28 29  1  0
 29 30  1  0
 30 31  2  0
 31 32  1  0
 32 33  2  0
 33 34  1  0
 34 35  2  0
 28 36  1  0
 36 37  1  0
 37 38  2  0
 37 39  1  0
 39 40  1  0
 40 41  1  0
 41 42  2  0
 42 43  1  0
 43 44  2  0
 44 45  1  0
 45 46  2  0
 39 47  1  0
 47 48  1  0
 48 49  2  0
 48  4  1  0
 24 19  1  0
 35 30  1  0
 46 41  1  0
  1 50  1  0
  1 51  1  0
  1 52  1  0
  2 53  1  0
  3 54  1  0
  3 55  1  0
  3 56  1  0
  4 57  1  6
  5 58  1  0
  8 59  1  6
  9 60  1  0
  9 61  1  0
 10 62  1  0
 10 63  1  0
 11 64  1  0
 11 65  1  0
 12 66  1  0
 12 67  1  0
 13 68  1  0
 13 69  1  0
 14 70  1  0
 17 71  1  6
 18 72  1  0
 18 73  1  0
 20 74  1  0
 21 75  1  0
 22 76  1  0
 23 77  1  0
 24 78  1  0
 25 79  1  0
 28 80  1  6
 29 81  1  0
 29 82  1  0
 31 83  1  0
 32 84  1  0
 33 85  1  0
 34 86  1  0
 35 87  1  0
 36 88  1  0
 39 89  1  6
 40 90  1  0
 40 91  1  0
 42 92  1  0
 43 93  1  0
 44 94  1  0
 45 95  1  0
 46 96  1  0
 47 97  1  0
M  END
$$$$
[H]c1nc(F)c([H])c([H])c1Oc1c([H])c([H])c(C(F)(F)F)c([H])c1C(=O)N([H])c1c([H])c([H])n([H])c(=O)c1[H]
     RDKit          3D

 39 41  0  0  0  0  0  0  0  0999 V2000
   -3.4624    4.0413    1.5966 F   0  0  0  0  0  0  0  0  0  0  0  0
   -2.9944    3.0388    0.8089 C   0  0  0  0  0  0  0  0  0  0  0  0
   -2.5706    3.2889   -0.4868 C   0  0  0  0  0  0  0  0  0  0  0  0
   -2.0960    2.2066   -1.2421 C   0  0  0  0  0  0  0  0  0  0  0  0
   -2.0510    0.9464   -0.7222 C   0  0  0  0  0  0  0  0  0  0  0  0
   -1.5780   -0.1397   -1.4986 O   0  0  0  0  0  0  0  0  0  0  0  0
   -1.3796   -1.3654   -0.8462 C   0  0  0  0  0  0  0  0  0  0  0  0
   -2.3464   -2.3598   -1.0749 C   0  0  0  0  0  0  0  0  0  0  0  0
   -2.2383   -3.5781   -0.4593 C   0  0  0  0  0  0  0  0  0  0  0  0
   -1.1679   -3.7751    0.3694 C   0  0  0  0  0  0  0  0  0  0  0  0
   -0.2263   -2.8033    0.5851 C   0  0  0  0  0  0  0  0  0  0  0  0
   -0.2989   -1.5276   -0.0368 C   0  0  0  0  0  0  0  0  0  0  0  0
    0.8554   -0.6768    0.1255 C   0  0  0  0  0  0  0  0  0  0  0  0
    1.6694   -1.0091    1.0465 O   0  0  0  0  0  0  0  0  0  0  0  0
    1.2171    0.4880   -0.5844 N   0  0  0  0  0  0  0  0  0  0  0  0
    2.3619    1.2690   -0.2934 C   0  0  0  0  0  0  0  0  0  0  0  0
    3.0215    1.9473   -1.3284 C   0  0  0  0  0  0  0  0  0  0  0  0
    4.1151    2.7446   -1.0694 C   0  0  0  0  0  0  0  0  0  0  0  0
    4.5283    2.8555    0.1788 N   0  0  0  0  0  0  0  0  0  0  0  0
    3.9439    2.2364    1.2096 C   0  0  0  0  0  0  0  0  0  0  0  0
    4.3786    2.3769    2.3746 O   0  0  0  0  0  0  0  0  0  0  0  0
    2.8279    1.4196    0.9737 C   0  0  0  0  0  0  0  0  0  0  0  0
   -1.0681   -5.0862    1.0705 C   0  0  0  0  0  0  0  0  0  0  0  0
    0.0884   -5.1684    1.8155 F   0  0  0  0  0  0  0  0  0  0  0  0
   -1.2636   -6.1608    0.2681 F   0  0  0  0  0  0  0  0  0  0  0  0
   -2.1017   -5.0951    2.0249 F   0  0  0  0  0  0  0  0  0  0  0  0
   -2.4832    0.7509    0.5711 C   0  0  0  0  0  0  0  0  0  0  0  0
   -2.9460    1.7974    1.3111 N   0  0  0  0  0  0  0  0  0  0  0  0
   -2.6060    4.2926   -0.8736 H   0  0  0  0  0  0  0  0  0  0  0  0
   -1.7751    2.4547   -2.2294 H   0  0  0  0  0  0  0  0  0  0  0  0
   -3.1722   -2.1373   -1.7387 H   0  0  0  0  0  0  0  0  0  0  0  0
   -2.9796   -4.3326   -0.6331 H   0  0  0  0  0  0  0  0  0  0  0  0
    0.6102   -2.9864    1.2358 H   0  0  0  0  0  0  0  0  0  0  0  0
    0.6441    0.7731   -1.4134 H   0  0  0  0  0  0  0  0  0  0  0  0
    2.6406    1.8189   -2.3349 H   0  0  0  0  0  0  0  0  0  0  0  0
    4.5983    3.2513   -1.9193 H   0  0  0  0  0  0  0  0  0  0  0  0
    5.3743    3.4662    0.3534 H   0  0  0  0  0  0  0  0  0  0  0  0
    2.3886    0.9697    1.8446 H   0  0  0  0  0  0  0  0  0  0  0  0
   -2.4583   -0.2324    0.9951 H   0  0  0  0  0  0  0  0  0  0  0  0
  1  2  1  0
  2  3  2  0
  3  4  1  0
  4  5  2  0
  5  6  1  0
  6  7  1  0
  7  8  2  0
  8  9  1  0
  9 10  2  0
 10 11  1  0
 11 12  2  0
 12 13  1  0
 13 14  2  0
 13 15  1  0
 15 16  1  0
 16 17  1  0
 17 18  2  0
 18 19  1  0
 19 20  1  0
 20 21  2  0
 20 22  1  0
 10 23  1  0
 23 24  1  0
 23 25  1  0
 23 26  1  0
  5 27  1  0
 27 28  2  0
 28  2  1  0
 12  7  1  0
 22 16  2  0
  3 29  1  0
  4 30  1  0
  8 31  1  0
  9 32  1  0
 11 33  1  0
 15 34  1  0
 17 35  1  0
 18 36  1  0
 19 37  1  0
 22 38  1  0
 27 39  1  0
M  END
$$$$
[H]c1c([H])c(N([H])C(=O)c2c(C([H])([H])[H])c(C(=O)C(=O)N([H])C3(C(F)(F)F)C([H])([H])C3([H])[H])c3n2C([H])([H])C([H])([H])C3([H])[H])c([H])c(C([H])(F)F)c1F
     RDKit          3D

 53 56  0  0  0  0  0  0  0  0999 V2000
   -0.0194   -1.4417    0.2595 C   0  0  0  0  0  0  0  0  0  0  0  0
   -0.0493    0.0572    0.2290 C   0  0  0  0  0  0  0  0  0  0  0  0
   -1.1752    0.8092    0.6330 C   0  0  0  0  0  0  0  0  0  0  0  0
   -2.4006    0.2186    1.1526 C   0  0  0  0  0  0  0  0  0  0  0  0
   -2.5010    0.0324    2.3917 O   0  0  0  0  0  0  0  0  0  0  0  0
   -3.4715   -0.1411    0.2492 C   0  0  0  0  0  0  0  0  0  0  0  0
   -3.3410    0.0575   -0.9841 O   0  0  0  0  0  0  0  0  0  0  0  0
   -4.6548   -0.7108    0.7464 N   0  0  0  0  0  0  0  0  0  0  0  0
   -5.7471   -1.0820   -0.1376 C   0  0  0  0  0  0  0  0  0  0  0  0
   -6.3618    0.0093   -0.9535 C   0  0  0  0  0  0  0  0  0  0  0  0
   -7.0876   -0.4869    0.2520 C   0  0  0  0  0  0  0  0  0  0  0  0
   -5.8474   -2.5189   -0.6048 C   0  0  0  0  0  0  0  0  0  0  0  0
   -6.9605   -2.6023   -1.4245 F   0  0  0  0  0  0  0  0  0  0  0  0
   -6.0526   -3.3747    0.4807 F   0  0  0  0  0  0  0  0  0  0  0  0
   -4.7578   -2.9250   -1.3236 F   0  0  0  0  0  0  0  0  0  0  0  0
   -0.8512    2.1213    0.4303 C   0  0  0  0  0  0  0  0  0  0  0  0
   -1.4703    3.4625    0.5983 C   0  0  0  0  0  0  0  0  0  0  0  0
   -0.5548    4.3694   -0.1969 C   0  0  0  0  0  0  0  0  0  0  0  0
    0.7435    3.6379   -0.2842 C   0  0  0  0  0  0  0  0  0  0  0  0
    0.3775    2.2411   -0.0631 N   0  0  0  0  0  0  0  0  0  0  0  0
    0.8768    0.9570   -0.1875 C   0  0  0  0  0  0  0  0  0  0  0  0
    2.2530    0.7031   -0.6600 C   0  0  0  0  0  0  0  0  0  0  0  0
    2.7307    1.6118   -1.4159 O   0  0  0  0  0  0  0  0  0  0  0  0
    2.9495   -0.4331   -0.2958 N   0  0  0  0  0  0  0  0  0  0  0  0
    4.2638   -0.7117   -0.7528 C   0  0  0  0  0  0  0  0  0  0  0  0
    4.8624   -0.1917   -1.8611 C   0  0  0  0  0  0  0  0  0  0  0  0
    6.1840   -0.5176   -2.2075 C   0  0  0  0  0  0  0  0  0  0  0  0
    6.9101   -1.3785   -1.4276 C   0  0  0  0  0  0  0  0  0  0  0  0
    8.1823   -1.7481   -1.6814 F   0  0  0  0  0  0  0  0  0  0  0  0
    6.3028   -1.9149   -0.2919 C   0  0  0  0  0  0  0  0  0  0  0  0
    5.0123   -1.5941    0.0433 C   0  0  0  0  0  0  0  0  0  0  0  0
    7.0445   -2.8577    0.5943 C   0  0  0  0  0  0  0  0  0  0  0  0
    7.4442   -3.9825   -0.0985 F   0  0  0  0  0  0  0  0  0  0  0  0
    8.1212   -2.1616    1.1102 F   0  0  0  0  0  0  0  0  0  0  0  0
    0.4196   -1.8312    1.1780 H   0  0  0  0  0  0  0  0  0  0  0  0
   -1.0846   -1.8195    0.1266 H   0  0  0  0  0  0  0  0  0  0  0  0
    0.5110   -1.8763   -0.6066 H   0  0  0  0  0  0  0  0  0  0  0  0
   -4.7829   -0.8842    1.7699 H   0  0  0  0  0  0  0  0  0  0  0  0
   -6.8413   -0.2777   -1.9262 H   0  0  0  0  0  0  0  0  0  0  0  0
   -5.8766    1.0128   -0.9420 H   0  0  0  0  0  0  0  0  0  0  0  0
   -7.1153    0.2156    1.1101 H   0  0  0  0  0  0  0  0  0  0  0  0
   -8.0062   -1.0833    0.1199 H   0  0  0  0  0  0  0  0  0  0  0  0
   -2.4833    3.4472    0.1506 H   0  0  0  0  0  0  0  0  0  0  0  0
   -1.4734    3.7871    1.6599 H   0  0  0  0  0  0  0  0  0  0  0  0
   -0.9448    4.6354   -1.1797 H   0  0  0  0  0  0  0  0  0  0  0  0
   -0.3569    5.3276    0.3585 H   0  0  0  0  0  0  0  0  0  0  0  0
    1.1768    3.7972   -1.2800 H   0  0  0  0  0  0  0  0  0  0  0  0
    1.4798    3.9529    0.4903 H   0  0  0  0  0  0  0  0  0  0  0  0
    2.4802   -1.1042    0.3710 H   0  0  0  0  0  0  0  0  0  0  0  0
    4.3429    0.4758   -2.5255 H   0  0  0  0  0  0  0  0  0  0  0  0
    6.6510   -0.1027   -3.0842 H   0  0  0  0  0  0  0  0  0  0  0  0
    4.5451   -2.0228    0.9405 H   0  0  0  0  0  0  0  0  0  0  0  0
    6.4044   -3.1628    1.4210 H   0  0  0  0  0  0  0  0  0  0  0  0
  1  2  1  0
  2  3  1  0
  3  4  1  0
  4  5  2  0
  4  6  1  0
  6  7  2  0
  6  8  1  0
  8  9  1  0
  9 10  1  0
 10 11  1  0
  9 12  1  0
 12 13  1  0
 12 14  1  0
 12 15  1  0
  3 16  2  0
 16 17  1  0
 17 18  1  0
 18 19  1  0
 19 20  1  0
 20 21  1  0
 21 22  1  0
 22 23  2  0
 22 24  1  0
 24 25  1  0
 25 26  2  0
 26 27  1  0
 27 28  2  0
 28 29  1  0
 28 30  1  0
 30 31  2  0
 30 32  1  0
 32 33  1  0
 32 34  1  0
 21  2  2  0
 31 25  1  0
 11  9  1  0
 20 16  1  0
  1 35  1  0
  1 36  1  0
  1 37  1  0
  8 38  1  0
 10 39  1  0
 10 40  1  0
 11 41  1  0
 11 42  1  0
 17 43  1  0
 17 44  1  0
 18 45  1  0
 18 46  1  0
 19 47  1  0
 19 48  1  0
 24 49  1  0
 26 50  1  0
 27 51  1  0
 31 52  1  0
 32 53  1  0
M  END
$$$$
[H]C1=C([H])C([H])(F)C([H])([H])C([H])=C1N([H])C(=O)C1(C(=O)N([H])c2c([H])c([H])c(Oc3c([H])c([H])nc4c([H])c(OC([H])([H])C([H])([H])C([H])([H])N5C([H])([H])C([H])([H])C([H])([H])C([H])([H])C5([H])[H])c(OC([H])([H])[H])c([H])c34)c(F)c2[H])C([H])([H])C1([H])[H]
     RDKit          3D

 84 89  0  0  0  0  0  0  0  0999 V2000
    3.8941   -3.7132    0.1913 C   0  0  0  0  0  0  0  0  0  0  0  0
    4.6565   -2.6079   -0.2681 O   0  0  0  0  0  0  0  0  0  0  0  0
    4.0305   -1.4283   -0.6539 C   0  0  0  0  0  0  0  0  0  0  0  0
    2.6597   -1.2972   -0.6016 C   0  0  0  0  0  0  0  0  0  0  0  0
    2.0436   -0.1222   -0.9870 C   0  0  0  0  0  0  0  0  0  0  0  0
    0.6510    0.0367   -0.9451 C   0  0  0  0  0  0  0  0  0  0  0  0
   -0.0755   -1.0256   -0.4996 O   0  0  0  0  0  0  0  0  0  0  0  0
   -1.4492   -1.0402   -0.3255 C   0  0  0  0  0  0  0  0  0  0  0  0
   -2.2606   -1.8743   -1.0649 C   0  0  0  0  0  0  0  0  0  0  0  0
   -3.6423   -1.8715   -0.8692 C   0  0  0  0  0  0  0  0  0  0  0  0
   -4.2526   -1.0654    0.0403 C   0  0  0  0  0  0  0  0  0  0  0  0
   -5.6503   -1.0411    0.3103 N   0  0  0  0  0  0  0  0  0  0  0  0
   -6.4608   -2.1680    0.2347 C   0  0  0  0  0  0  0  0  0  0  0  0
   -5.8498   -3.2675   -0.0680 O   0  0  0  0  0  0  0  0  0  0  0  0
   -7.9176   -2.3168    0.4538 C   0  0  0  0  0  0  0  0  0  0  0  0
   -8.5358   -3.5604   -0.1118 C   0  0  0  0  0  0  0  0  0  0  0  0
   -8.2258   -3.5095    1.3287 C   0  0  0  0  0  0  0  0  0  0  0  0
   -8.8577   -1.1862    0.5085 C   0  0  0  0  0  0  0  0  0  0  0  0
  -10.0295   -1.5183    0.9875 O   0  0  0  0  0  0  0  0  0  0  0  0
   -8.6712    0.1344    0.1256 N   0  0  0  0  0  0  0  0  0  0  0  0
   -9.7018    1.1257    0.2594 C   0  0  0  0  0  0  0  0  0  0  0  0
  -10.1675    1.7824   -0.7844 C   0  0  0  0  0  0  0  0  0  0  0  0
  -11.2276    2.8066   -0.6621 C   0  0  0  0  0  0  0  0  0  0  0  0
  -11.7828    3.0373    0.6810 C   0  0  0  0  0  0  0  0  0  0  0  0
  -13.1708    2.8095    0.6256 F   0  0  0  0  0  0  0  0  0  0  0  0
  -11.1912    2.2557    1.7682 C   0  0  0  0  0  0  0  0  0  0  0  0
  -10.2373    1.3788    1.5761 C   0  0  0  0  0  0  0  0  0  0  0  0
   -3.4356   -0.2282    0.7824 C   0  0  0  0  0  0  0  0  0  0  0  0
   -2.0698   -0.2231    0.5976 C   0  0  0  0  0  0  0  0  0  0  0  0
   -1.3225    0.6137    1.3883 F   0  0  0  0  0  0  0  0  0  0  0  0
    0.0582    1.2154   -1.3358 C   0  0  0  0  0  0  0  0  0  0  0  0
    0.8455    2.2647   -1.7771 C   0  0  0  0  0  0  0  0  0  0  0  0
    2.1789    2.1086   -1.8152 N   0  0  0  0  0  0  0  0  0  0  0  0
    2.7728    0.9564   -1.4354 C   0  0  0  0  0  0  0  0  0  0  0  0
    4.1549    0.8104   -1.4827 C   0  0  0  0  0  0  0  0  0  0  0  0
    4.7873   -0.3669   -1.0977 C   0  0  0  0  0  0  0  0  0  0  0  0
    6.1653   -0.5173   -1.1421 O   0  0  0  0  0  0  0  0  0  0  0  0
    6.9247    0.5946   -1.5969 C   0  0  0  0  0  0  0  0  0  0  0  0
    8.3981    0.2160   -1.5674 C   0  0  0  0  0  0  0  0  0  0  0  0
    8.7652   -0.1374   -0.1628 C   0  0  0  0  0  0  0  0  0  0  0  0
    8.5410    0.9713    0.7124 N   0  0  0  0  0  0  0  0  0  0  0  0
    8.8626    0.5943    2.0908 C   0  0  0  0  0  0  0  0  0  0  0  0
   10.1341    1.2231    2.5590 C   0  0  0  0  0  0  0  0  0  0  0  0
   11.2236    1.2674    1.5088 C   0  0  0  0  0  0  0  0  0  0  0  0
   10.7617    1.8537    0.2168 C   0  0  0  0  0  0  0  0  0  0  0  0
    9.2894    2.1446    0.3223 C   0  0  0  0  0  0  0  0  0  0  0  0
    4.5297   -4.6049    0.2046 H   0  0  0  0  0  0  0  0  0  0  0  0
    3.0368   -3.9207   -0.4537 H   0  0  0  0  0  0  0  0  0  0  0  0
    3.5857   -3.4838    1.2349 H   0  0  0  0  0  0  0  0  0  0  0  0
    2.0594   -2.1200   -0.2574 H   0  0  0  0  0  0  0  0  0  0  0  0
   -1.7910   -2.5214   -1.7915 H   0  0  0  0  0  0  0  0  0  0  0  0
   -4.2011   -2.5275   -1.4890 H   0  0  0  0  0  0  0  0  0  0  0  0
   -5.9930   -0.0843    0.6053 H   0  0  0  0  0  0  0  0  0  0  0  0
   -7.8776   -4.1574   -0.7922 H   0  0  0  0  0  0  0  0  0  0  0  0
   -9.5862   -3.5314   -0.4675 H   0  0  0  0  0  0  0  0  0  0  0  0
   -9.0668   -3.4296    2.0590 H   0  0  0  0  0  0  0  0  0  0  0  0
   -7.4089   -4.1370    1.6985 H   0  0  0  0  0  0  0  0  0  0  0  0
   -7.7902    0.4562   -0.3104 H   0  0  0  0  0  0  0  0  0  0  0  0
   -9.7650    1.5684   -1.7719 H   0  0  0  0  0  0  0  0  0  0  0  0
  -10.7674    3.7837   -1.0343 H   0  0  0  0  0  0  0  0  0  0  0  0
  -12.0168    2.5426   -1.4224 H   0  0  0  0  0  0  0  0  0  0  0  0
  -11.6408    4.1294    0.9469 H   0  0  0  0  0  0  0  0  0  0  0  0
  -11.5771    2.4212    2.8054 H   0  0  0  0  0  0  0  0  0  0  0  0
   -9.8450    0.8363    2.4194 H   0  0  0  0  0  0  0  0  0  0  0  0
   -3.9079    0.4182    1.5091 H   0  0  0  0  0  0  0  0  0  0  0  0
   -0.9995    1.3667   -1.3304 H   0  0  0  0  0  0  0  0  0  0  0  0
    0.3645    3.1827   -2.0801 H   0  0  0  0  0  0  0  0  0  0  0  0
    4.7341    1.6500   -1.8317 H   0  0  0  0  0  0  0  0  0  0  0  0
    6.7902    1.4564   -0.9075 H   0  0  0  0  0  0  0  0  0  0  0  0
    6.6790    0.8981   -2.6163 H   0  0  0  0  0  0  0  0  0  0  0  0
    8.5172   -0.6510   -2.2580 H   0  0  0  0  0  0  0  0  0  0  0  0
    8.9717    1.0419   -1.9999 H   0  0  0  0  0  0  0  0  0  0  0  0
    8.1514   -1.0174    0.1504 H   0  0  0  0  0  0  0  0  0  0  0  0
    9.8226   -0.4865   -0.1718 H   0  0  0  0  0  0  0  0  0  0  0  0
    8.8820   -0.5200    2.1502 H   0  0  0  0  0  0  0  0  0  0  0  0
    8.0335    0.9450    2.7222 H   0  0  0  0  0  0  0  0  0  0  0  0
   10.5337    0.5668    3.3880 H   0  0  0  0  0  0  0  0  0  0  0  0
    9.9539    2.2035    3.0123 H   0  0  0  0  0  0  0  0  0  0  0  0
   11.7159    0.2783    1.3726 H   0  0  0  0  0  0  0  0  0  0  0  0
   12.0186    1.9324    1.9308 H   0  0  0  0  0  0  0  0  0  0  0  0
   10.9303    1.1781   -0.6500 H   0  0  0  0  0  0  0  0  0  0  0  0
   11.3098    2.7776   -0.0117 H   0  0  0  0  0  0  0  0  0  0  0  0
    9.0848    2.9287    1.0867 H   0  0  0  0  0  0  0  0  0  0  0  0
    8.9162    2.5157   -0.6375 H   0  0  0  0  0  0  0  0  0  0  0  0
  1  2  1  0
  2  3  1  0
  3  4  2  0
  4  5  1  0
  5  6  2  0
  6  7  1  0
  7  8  1  0
  8  9  2  0
  9 10  1  0
 10 11  2  0
 11 12  1  0
 12 13  1  0
 13 14  2  0
 13 15  1  0
 15 16  1  0
 16 17  1  0
 15 18  1  0
 18 19  2  0
 18 20  1  0
 20 21  1  0
 21 22  2  0
 22 23  1  0
 23 24  1  0
 24 25  1  0
 24 26  1  0
 26 27  2  0
 11 28  1  0
 28 29  2  0
 29 30  1  0
  6 31  1  0
 31 32  2  0
 32 33  1  0
 33 34  2  0
 34 35  1  0
 35 36  2  0
 36 37  1  0
 37 38  1  0
 38 39  1  0
 39 40  1  0
 40 41  1  0
 41 42  1  0
 42 43  1  0
 43 44  1  0
 44 45  1  0
 45 46  1  0
 36  3  1  0
 46 41  1  0
 34  5  1  0
 29  8  1  0
 17 15  1  0
 27 21  1  0
  1 47  1  0
  1 48  1  0
  1 49  1  0
  4 50  1  0
  9 51  1  0
 10 52  1  0
 12 53  1  0
 16 54  1  0
 16 55  1  0
 17 56  1  0
 17 57  1  0
 20 58  1  0
 22 59  1  0
 23 60  1  0
 23 61  1  0
 24 62  1  0
 26 63  1  0
 27 64  1  0
 28 65  1  0
 31 66  1  0
 32 67  1  0
 35 68  1  0
 38 69  1  0
 38 70  1  0
 39 71  1  0
 39 72  1  0
 40 73  1  0
 40 74  1  0
 42 75  1  0
 42 76  1  0
 43 77  1  0
 43 78  1  0
 44 79  1  0
 44 80  1  0
 45 81  1  0
 45 82  1  0
 46 83  1  0
 46 84  1  0
M  END
$$$$
[H]Oc1c([H])c([H])c(/C([H])=C(\[H])C(=O)N2C([H])([H])C([H])([H])C([H])([H])C([H])([H])C2([H])[H])c([H])c1O[H]
     RDKit          3D

 35 36  0  0  0  0  0  0  0  0999 V2000
    6.5769   -0.8725    0.3155 O   0  0  0  0  0  0  0  0  0  0  0  0
    5.3010   -0.4717   -0.0051 C   0  0  0  0  0  0  0  0  0  0  0  0
    5.1052    0.5034   -0.9771 C   0  0  0  0  0  0  0  0  0  0  0  0
    3.8031    0.8689   -1.2602 C   0  0  0  0  0  0  0  0  0  0  0  0
    2.7059    0.3179   -0.6311 C   0  0  0  0  0  0  0  0  0  0  0  0
    1.3906    0.7925   -1.0236 C   0  0  0  0  0  0  0  0  0  0  0  0
    0.2527    0.3606   -0.5121 C   0  0  0  0  0  0  0  0  0  0  0  0
   -1.0335    0.8913   -0.9631 C   0  0  0  0  0  0  0  0  0  0  0  0
   -1.0961    1.7773   -1.8540 O   0  0  0  0  0  0  0  0  0  0  0  0
   -2.2407    0.4181   -0.4052 N   0  0  0  0  0  0  0  0  0  0  0  0
   -2.1894   -0.5984    0.6181 C   0  0  0  0  0  0  0  0  0  0  0  0
   -3.6087   -1.1636    0.7333 C   0  0  0  0  0  0  0  0  0  0  0  0
   -4.4738   -0.0369    1.2427 C   0  0  0  0  0  0  0  0  0  0  0  0
   -4.5209    1.0758    0.2330 C   0  0  0  0  0  0  0  0  0  0  0  0
   -3.4861    0.9367   -0.8467 C   0  0  0  0  0  0  0  0  0  0  0  0
    2.9286   -0.6466    0.3284 C   0  0  0  0  0  0  0  0  0  0  0  0
    4.2076   -1.0240    0.6251 C   0  0  0  0  0  0  0  0  0  0  0  0
    4.4208   -1.9966    1.5935 O   0  0  0  0  0  0  0  0  0  0  0  0
    6.6978   -1.5818    1.0240 H   0  0  0  0  0  0  0  0  0  0  0  0
    5.9370    0.9450   -1.4782 H   0  0  0  0  0  0  0  0  0  0  0  0
    3.7001    1.6412   -2.0336 H   0  0  0  0  0  0  0  0  0  0  0  0
    1.3376    1.5581   -1.7935 H   0  0  0  0  0  0  0  0  0  0  0  0
    0.2875   -0.3952    0.2491 H   0  0  0  0  0  0  0  0  0  0  0  0
   -1.4755   -1.4106    0.3994 H   0  0  0  0  0  0  0  0  0  0  0  0
   -1.9181   -0.1866    1.6123 H   0  0  0  0  0  0  0  0  0  0  0  0
   -3.6562   -2.0551    1.3567 H   0  0  0  0  0  0  0  0  0  0  0  0
   -3.9400   -1.3562   -0.3275 H   0  0  0  0  0  0  0  0  0  0  0  0
   -5.4960   -0.4353    1.4749 H   0  0  0  0  0  0  0  0  0  0  0  0
   -4.0565    0.3251    2.2042 H   0  0  0  0  0  0  0  0  0  0  0  0
   -5.5207    1.0118   -0.2724 H   0  0  0  0  0  0  0  0  0  0  0  0
   -4.4954    2.0728    0.7201 H   0  0  0  0  0  0  0  0  0  0  0  0
   -3.8734    0.2969   -1.6722 H   0  0  0  0  0  0  0  0  0  0  0  0
   -3.3300    1.9533   -1.2842 H   0  0  0  0  0  0  0  0  0  0  0  0
    2.0935   -1.0865    0.8281 H   0  0  0  0  0  0  0  0  0  0  0  0
    3.6649   -2.4291    2.0804 H   0  0  0  0  0  0  0  0  0  0  0  0
  1  2  1  0
  2  3  2  0
  3  4  1  0
  4  5  2  0
  5  6  1  0
  6  7  2  0
  7  8  1  0
  8  9  2  0
  8 10  1  0
 10 11  1  0
 11 12  1  0
 12 13  1  0
 13 14  1  0
 14 15  1  0
  5 16  1  0
 16 17  2  0
 17 18  1  0
 17  2  1  0
 15 10  1  0
  1 19  1  0
  3 20  1  0
  4 21  1  0
  6 22  1  0
  7 23  1  0
 11 24  1  0
 11 25  1  0
 12 26  1  0
 12 27  1  0
 13 28  1  0
 13 29  1  0
 14 30  1  0
 14 31  1  0
 15 32  1  0
 15 33  1  0
 16 34  1  0
 18 35  1  0
M  END
$$$$
[H]OC(=O)C([H])([H])C([H])([H])[C@@]([H])(C(=O)N([H])[C@]([H])(C(=O)N([H])[C@]([H])(C(=O)N([H])[C@]([H])(C(=O)N([H])[C@]([H])(C(=O)N([H])[C@]([H])(C(=O)N([H])[H])C([H])([H])c1c([H])c([H])c([H])c([H])c1[H])C([H])([H])C([H])([H])C(=O)N([H])[H])C([H])([H])c1c([H])nc([H])n1[H])C([H])([H])C([H])(C([H])([H])[H])C([H])([H])[H])C([H])([H])C([H])([H])C(=O)N([H])[H])N([H])[H]
     RDKit          3D

110111  0  0  0  0  0  0  0  0999 V2000
   -1.8241   -4.7617    2.9928 C   0  0  0  0  0  0  0  0  0  0  0  0
   -1.9016   -3.2099    2.9486 C   0  0  0  0  0  0  0  0  0  0  0  0
   -3.3373   -2.9077    3.2519 C   0  0  0  0  0  0  0  0  0  0  0  0
   -1.4444   -2.7966    1.6058 C   0  0  0  0  0  0  0  0  0  0  0  0
   -1.3723   -1.3831    1.2458 C   0  0  2  0  0  0  0  0  0  0  0  0
   -2.5274   -0.5483    1.1801 N   0  0  0  0  0  0  0  0  0  0  0  0
   -3.7084   -0.8531    0.4893 C   0  0  0  0  0  0  0  0  0  0  0  0
   -3.7753   -1.9803   -0.1144 O   0  0  0  0  0  0  0  0  0  0  0  0
   -4.8800    0.0076    0.3891 C   0  0  2  0  0  0  0  0  0  0  0  0
   -5.1652    1.0298    1.3835 C   0  0  0  0  0  0  0  0  0  0  0  0
   -5.3635    0.6166    2.8150 C   0  0  0  0  0  0  0  0  0  0  0  0
   -5.6739    1.8538    3.6444 C   0  0  0  0  0  0  0  0  0  0  0  0
   -5.8425    1.7511    5.0549 N   0  0  0  0  0  0  0  0  0  0  0  0
   -5.7904    2.9863    3.1238 O   0  0  0  0  0  0  0  0  0  0  0  0
   -6.0757   -0.7554    0.0354 N   0  0  0  0  0  0  0  0  0  0  0  0
   -6.7053   -0.7218   -1.2093 C   0  0  0  0  0  0  0  0  0  0  0  0
   -6.2419    0.0217   -2.1127 O   0  0  0  0  0  0  0  0  0  0  0  0
   -7.8863   -1.5311   -1.4927 C   0  0  1  0  0  0  0  0  0  0  0  0
   -8.3476   -2.2653   -0.3272 N   0  0  0  0  0  0  0  0  0  0  0  0
   -9.0056   -0.7996   -2.1555 C   0  0  0  0  0  0  0  0  0  0  0  0
   -9.5044    0.3427   -1.3087 C   0  0  0  0  0  0  0  0  0  0  0  0
  -10.6190    1.0464   -1.9865 C   0  0  0  0  0  0  0  0  0  0  0  0
  -11.2482    2.1287   -1.4142 O   0  0  0  0  0  0  0  0  0  0  0  0
  -10.9976    0.6457   -3.1078 O   0  0  0  0  0  0  0  0  0  0  0  0
   -0.5297   -1.0515    0.0493 C   0  0  0  0  0  0  0  0  0  0  0  0
   -0.9211   -0.0547   -0.6404 O   0  0  0  0  0  0  0  0  0  0  0  0
    0.6174   -1.7170   -0.3701 N   0  0  0  0  0  0  0  0  0  0  0  0
    1.4299   -1.4272   -1.5108 C   0  0  1  0  0  0  0  0  0  0  0  0
    0.7853   -0.9734   -2.7733 C   0  0  0  0  0  0  0  0  0  0  0  0
   -0.1123   -1.9800   -3.3920 C   0  0  0  0  0  0  0  0  0  0  0  0
    0.2829   -2.9686   -4.3006 C   0  0  0  0  0  0  0  0  0  0  0  0
   -0.7784   -3.6801   -4.6469 N   0  0  0  0  0  0  0  0  0  0  0  0
   -1.8472   -3.2109   -4.0148 C   0  0  0  0  0  0  0  0  0  0  0  0
   -1.4157   -2.1689   -3.2516 N   0  0  0  0  0  0  0  0  0  0  0  0
    2.7465   -0.8699   -1.2392 C   0  0  0  0  0  0  0  0  0  0  0  0
    3.3831   -1.3808   -0.2581 O   0  0  0  0  0  0  0  0  0  0  0  0
    3.4095    0.1676   -1.9248 N   0  0  0  0  0  0  0  0  0  0  0  0
    4.7628    0.5965   -1.5298 C   0  0  1  0  0  0  0  0  0  0  0  0
    5.4816    0.8517   -2.8037 C   0  0  0  0  0  0  0  0  0  0  0  0
    6.8976    1.2929   -2.7319 C   0  0  0  0  0  0  0  0  0  0  0  0
    7.3698    1.4462   -4.1664 C   0  0  0  0  0  0  0  0  0  0  0  0
    8.7262    1.7207   -4.4028 N   0  0  0  0  0  0  0  0  0  0  0  0
    6.6031    1.3387   -5.1395 O   0  0  0  0  0  0  0  0  0  0  0  0
    4.6910    1.6969   -0.5591 C   0  0  0  0  0  0  0  0  0  0  0  0
    3.5680    2.2323   -0.2927 O   0  0  0  0  0  0  0  0  0  0  0  0
    5.8204    2.2114    0.1273 N   0  0  0  0  0  0  0  0  0  0  0  0
    5.7255    3.2803    1.0972 C   0  0  1  0  0  0  0  0  0  0  0  0
    5.9950    2.7303    2.5064 C   0  0  0  0  0  0  0  0  0  0  0  0
    7.3228    2.1166    2.6411 C   0  0  0  0  0  0  0  0  0  0  0  0
    7.5524    0.7919    2.3381 C   0  0  0  0  0  0  0  0  0  0  0  0
    8.7984    0.1912    2.4730 C   0  0  0  0  0  0  0  0  0  0  0  0
    9.8650    0.9577    2.9339 C   0  0  0  0  0  0  0  0  0  0  0  0
    9.6531    2.2718    3.2383 C   0  0  0  0  0  0  0  0  0  0  0  0
    8.3956    2.8542    3.0958 C   0  0  0  0  0  0  0  0  0  0  0  0
    6.6375    4.3679    0.7373 C   0  0  0  0  0  0  0  0  0  0  0  0
    6.7320    5.5843    1.4910 N   0  0  0  0  0  0  0  0  0  0  0  0
    7.3860    4.2658   -0.2739 O   0  0  0  0  0  0  0  0  0  0  0  0
   -2.2402   -5.1564    2.0435 H   0  0  0  0  0  0  0  0  0  0  0  0
   -0.7546   -5.0677    3.1080 H   0  0  0  0  0  0  0  0  0  0  0  0
   -2.4764   -5.0751    3.8061 H   0  0  0  0  0  0  0  0  0  0  0  0
   -1.2197   -2.8959    3.7740 H   0  0  0  0  0  0  0  0  0  0  0  0
   -3.7007   -3.4935    4.1432 H   0  0  0  0  0  0  0  0  0  0  0  0
   -3.9785   -3.2961    2.4211 H   0  0  0  0  0  0  0  0  0  0  0  0
   -3.5188   -1.8501    3.4585 H   0  0  0  0  0  0  0  0  0  0  0  0
   -2.0365   -3.4043    0.8309 H   0  0  0  0  0  0  0  0  0  0  0  0
   -0.4037   -3.2321    1.4344 H   0  0  0  0  0  0  0  0  0  0  0  0
   -0.7935   -0.9205    2.1756 H   0  0  0  0  0  0  0  0  0  0  0  0
   -2.5515    0.4048    1.6780 H   0  0  0  0  0  0  0  0  0  0  0  0
   -4.7418    0.6428   -0.6095 H   0  0  0  0  0  0  0  0  0  0  0  0
   -4.4590    1.9218    1.3328 H   0  0  0  0  0  0  0  0  0  0  0  0
   -6.1548    1.5296    1.0999 H   0  0  0  0  0  0  0  0  0  0  0  0
   -4.4291    0.2241    3.2433 H   0  0  0  0  0  0  0  0  0  0  0  0
   -6.1874   -0.0715    2.9770 H   0  0  0  0  0  0  0  0  0  0  0  0
   -5.3673    2.3738    5.7298 H   0  0  0  0  0  0  0  0  0  0  0  0
   -6.4773    1.0144    5.4450 H   0  0  0  0  0  0  0  0  0  0  0  0
   -6.4672   -1.3661    0.7981 H   0  0  0  0  0  0  0  0  0  0  0  0
   -7.5351   -2.3280   -2.2250 H   0  0  0  0  0  0  0  0  0  0  0  0
   -8.5297   -1.5733    0.4336 H   0  0  0  0  0  0  0  0  0  0  0  0
   -7.5982   -2.8945    0.0121 H   0  0  0  0  0  0  0  0  0  0  0  0
   -8.6640   -0.4372   -3.1668 H   0  0  0  0  0  0  0  0  0  0  0  0
   -9.8407   -1.5084   -2.3869 H   0  0  0  0  0  0  0  0  0  0  0  0
   -8.6683    1.0930   -1.2366 H   0  0  0  0  0  0  0  0  0  0  0  0
   -9.7815   -0.0552   -0.3206 H   0  0  0  0  0  0  0  0  0  0  0  0
  -11.0007    2.4073   -0.4688 H   0  0  0  0  0  0  0  0  0  0  0  0
    0.9287   -2.5359    0.2441 H   0  0  0  0  0  0  0  0  0  0  0  0
    1.7355   -2.5481   -1.8750 H   0  0  0  0  0  0  0  0  0  0  0  0
    1.5972   -0.7237   -3.5400 H   0  0  0  0  0  0  0  0  0  0  0  0
    0.2191   -0.0261   -2.7201 H   0  0  0  0  0  0  0  0  0  0  0  0
    1.2834   -3.1027   -4.6413 H   0  0  0  0  0  0  0  0  0  0  0  0
   -2.8643   -3.5624   -4.0731 H   0  0  0  0  0  0  0  0  0  0  0  0
   -2.0969   -1.6339   -2.6592 H   0  0  0  0  0  0  0  0  0  0  0  0
    2.9372    0.6305   -2.7175 H   0  0  0  0  0  0  0  0  0  0  0  0
    5.2735   -0.2403   -0.9791 H   0  0  0  0  0  0  0  0  0  0  0  0
    5.4813   -0.1384   -3.3597 H   0  0  0  0  0  0  0  0  0  0  0  0
    4.9095    1.5274   -3.4932 H   0  0  0  0  0  0  0  0  0  0  0  0
    6.9694    2.3264   -2.3336 H   0  0  0  0  0  0  0  0  0  0  0  0
    7.5519    0.5603   -2.2662 H   0  0  0  0  0  0  0  0  0  0  0  0
    9.1677    2.6131   -4.1333 H   0  0  0  0  0  0  0  0  0  0  0  0
    9.3089    0.9852   -4.8731 H   0  0  0  0  0  0  0  0  0  0  0  0
    6.7735    1.8256   -0.0399 H   0  0  0  0  0  0  0  0  0  0  0  0
    4.6564    3.6200    1.0803 H   0  0  0  0  0  0  0  0  0  0  0  0
    5.2261    1.9302    2.6927 H   0  0  0  0  0  0  0  0  0  0  0  0
    5.8009    3.4986    3.2602 H   0  0  0  0  0  0  0  0  0  0  0  0
    6.7436    0.1739    1.9786 H   0  0  0  0  0  0  0  0  0  0  0  0
    9.0008   -0.8368    2.2440 H   0  0  0  0  0  0  0  0  0  0  0  0
   10.8319    0.4915    3.0383 H   0  0  0  0  0  0  0  0  0  0  0  0
   10.4978    2.8664    3.5992 H   0  0  0  0  0  0  0  0  0  0  0  0
    8.3461    3.8901    3.3709 H   0  0  0  0  0  0  0  0  0  0  0  0
    5.9001    6.1927    1.5477 H   0  0  0  0  0  0  0  0  0  0  0  0
    7.6013    5.8303    1.9540 H   0  0  0  0  0  0  0  0  0  0  0  0
  1  2  1  0
  2  3  1  0
  2  4  1  0
  4  5  1  0
  5  6  1  0
  6  7  1  0
  7  8  2  0
  7  9  1  0
  9 10  1  0
 10 11  1  0
 11 12  1  0
 12 13  1  0
 12 14  2  0
  9 15  1  0
 15 16  1  0
 16 17  2  0
 16 18  1  0
 18 19  1  0
 18 20  1  0
 20 21  1  0
 21 22  1  0
 22 23  1  0
 22 24  2  0
  5 25  1  0
 25 26  2  0
 25 27  1  0
 27 28  1  0
 28 29  1  0
 29 30  1  0
 30 31  2  0
 31 32  1  0
 32 33  2  0
 33 34  1  0
 28 35  1  0
 35 36  2  0
 35 37  1  0
 37 38  1  0
 38 39  1  0
 39 40  1  0
 40 41  1  0
 41 42  1  0
 41 43  2  0
 38 44  1  0
 44 45  2  0
 44 46  1  0
 46 47  1  0
 47 48  1  0
 48 49  1  0
 49 50  2  0
 50 51  1  0
 51 52  2  0
 52 53  1  0
 53 54  2  0
 47 55  1  0
 55 56  1  0
 55 57  2  0
 34 30  1  0
 54 49  1  0
  1 58  1  0
  1 59  1  0
  1 60  1  0
  2 61  1  0
  3 62  1  0
  3 63  1  0
  3 64  1  0
  4 65  1  0
  4 66  1  0
  5 67  1  1
  6 68  1  0
  9 69  1  6
 10 70  1  0
 10 71  1  0
 11 72  1  0
 11 73  1  0
 13 74  1  0
 13 75  1  0
 15 76  1  0
 18 77  1  6
 19 78  1  0
 19 79  1  0
 20 80  1  0
 20 81  1  0
 21 82  1  0
 21 83  1  0
 23 84  1  0
 27 85  1  0
 28 86  1  6
 29 87  1  0
 29 88  1  0
 31 89  1  0
 33 90  1  0
 34 91  1  0
 37 92  1  0
 38 93  1  1
 39 94  1  0
 39 95  1  0
 40 96  1  0
 40 97  1  0
 42 98  1  0
 42 99  1  0
 46100  1  0
 47101  1  1
 48102  1  0
 48103  1  0
 50104  1  0
 51105  1  0
 52106  1  0
 53107  1  0
 54108  1  0
 56109  1  0
 56110  1  0
M  END
$$$$
[H]c1c([H])c([H])c(C(=O)c2c([H])c(-c3c(N([H])[H])nc(N([H])[H])nc3C([H])([H])C([H])([H])[H])c([H])c([H])c2Cl)c([H])c1[H]
     RDKit          3D

 42 44  0  0  0  0  0  0  0  0999 V2000
   -2.9716   -2.8812   -0.1072 C   0  0  0  0  0  0  0  0  0  0  0  0
   -2.5156   -1.8244   -1.1021 C   0  0  0  0  0  0  0  0  0  0  0  0
   -2.9886   -0.5151   -0.6754 C   0  0  0  0  0  0  0  0  0  0  0  0
   -4.1334   -0.0618   -1.2086 N   0  0  0  0  0  0  0  0  0  0  0  0
   -4.6841    1.1160   -0.8717 C   0  0  0  0  0  0  0  0  0  0  0  0
   -5.9060    1.5592   -1.4936 N   0  0  0  0  0  0  0  0  0  0  0  0
   -4.0552    1.8622    0.0418 N   0  0  0  0  0  0  0  0  0  0  0  0
   -2.9264    1.4659    0.6026 C   0  0  0  0  0  0  0  0  0  0  0  0
   -2.2595    2.2516    1.5747 N   0  0  0  0  0  0  0  0  0  0  0  0
   -2.3276    0.2386    0.2625 C   0  0  0  0  0  0  0  0  0  0  0  0
   -1.0359   -0.0929    0.8406 C   0  0  0  0  0  0  0  0  0  0  0  0
   -0.7774   -1.0292    1.7872 C   0  0  0  0  0  0  0  0  0  0  0  0
    0.5225   -1.2539    2.2736 C   0  0  0  0  0  0  0  0  0  0  0  0
    1.5911   -0.5226    1.8058 C   0  0  0  0  0  0  0  0  0  0  0  0
    3.1750   -0.8666    2.4593 Cl  0  0  0  0  0  0  0  0  0  0  0  0
    1.3484    0.4298    0.8530 C   0  0  0  0  0  0  0  0  0  0  0  0
    0.0762    0.6372    0.3832 C   0  0  0  0  0  0  0  0  0  0  0  0
    2.4419    1.2615    0.3837 C   0  0  0  0  0  0  0  0  0  0  0  0
    2.3508    2.5438    0.4513 O   0  0  0  0  0  0  0  0  0  0  0  0
    3.6920    0.7720   -0.1804 C   0  0  0  0  0  0  0  0  0  0  0  0
    3.8121   -0.4628   -0.7860 C   0  0  0  0  0  0  0  0  0  0  0  0
    5.0143   -0.9206   -1.2983 C   0  0  0  0  0  0  0  0  0  0  0  0
    6.1354   -0.1247   -1.2075 C   0  0  0  0  0  0  0  0  0  0  0  0
    6.0550    1.1350   -0.6007 C   0  0  0  0  0  0  0  0  0  0  0  0
    4.8466    1.5511   -0.1045 C   0  0  0  0  0  0  0  0  0  0  0  0
   -3.6630   -3.6273   -0.5696 H   0  0  0  0  0  0  0  0  0  0  0  0
   -2.0820   -3.4373    0.2436 H   0  0  0  0  0  0  0  0  0  0  0  0
   -3.4634   -2.3807    0.7785 H   0  0  0  0  0  0  0  0  0  0  0  0
   -1.4142   -1.8748   -1.2605 H   0  0  0  0  0  0  0  0  0  0  0  0
   -2.9694   -2.1021   -2.0801 H   0  0  0  0  0  0  0  0  0  0  0  0
   -6.7882    1.4177   -0.9825 H   0  0  0  0  0  0  0  0  0  0  0  0
   -5.9224    2.0064   -2.4223 H   0  0  0  0  0  0  0  0  0  0  0  0
   -2.1952    1.9272    2.5542 H   0  0  0  0  0  0  0  0  0  0  0  0
   -1.8439    3.1696    1.2184 H   0  0  0  0  0  0  0  0  0  0  0  0
   -1.5642   -1.6202    2.2227 H   0  0  0  0  0  0  0  0  0  0  0  0
    0.6946   -2.0143    3.0349 H   0  0  0  0  0  0  0  0  0  0  0  0
   -0.1131    1.4001   -0.3861 H   0  0  0  0  0  0  0  0  0  0  0  0
    2.9350   -1.1026   -0.8652 H   0  0  0  0  0  0  0  0  0  0  0  0
    5.1018   -1.8951   -1.7753 H   0  0  0  0  0  0  0  0  0  0  0  0
    7.1254   -0.4311   -1.5937 H   0  0  0  0  0  0  0  0  0  0  0  0
    6.9561    1.7744   -0.5231 H   0  0  0  0  0  0  0  0  0  0  0  0
    4.7260    2.5221    0.3808 H   0  0  0  0  0  0  0  0  0  0  0  0
  1  2  1  0
  2  3  1  0
  3  4  2  0
  4  5  1  0
  5  6  1  0
  5  7  2  0
  7  8  1  0
  8  9  1  0
  8 10  2  0
 10 11  1  0
 11 12  2  0
 12 13  1  0
 13 14  2  0
 14 15  1  0
 14 16  1  0
 16 17  2  0
 16 18  1  0
 18 19  2  0
 18 20  1  0
 20 21  2  0
 21 22  1  0
 22 23  2  0
 23 24  1  0
 24 25  2  0
 10  3  1  0
 17 11  1  0
 25 20  1  0
  1 26  1  0
  1 27  1  0
  1 28  1  0
  2 29  1  0
  2 30  1  0
  6 31  1  0
  6 32  1  0
  9 33  1  0
  9 34  1  0
 12 35  1  0
 13 36  1  0
 17 37  1  0
 21 38  1  0
 22 39  1  0
 23 40  1  0
 24 41  1  0
 25 42  1  0
M  END
$$$$
[H]c1nc(N2C([H])([H])C([H])([H])N(C(=O)N([H])c3c([H])c([H])c(C(F)(F)F)c([H])c3[H])C([H])([H])C2([H])[H])c(C(F)(F)F)c([H])c1[H]
     RDKit          3D

 45 47  0  0  0  0  0  0  0  0999 V2000
    7.7217    1.7308    1.4282 F   0  0  0  0  0  0  0  0  0  0  0  0
    7.5117    0.7113    0.5465 C   0  0  0  0  0  0  0  0  0  0  0  0
    8.1729   -0.4717    0.9244 F   0  0  0  0  0  0  0  0  0  0  0  0
    7.8954    1.0949   -0.7190 F   0  0  0  0  0  0  0  0  0  0  0  0
    6.0636    0.3785    0.5881 C   0  0  0  0  0  0  0  0  0  0  0  0
    5.5293   -0.4066    1.5757 C   0  0  0  0  0  0  0  0  0  0  0  0
    4.1849   -0.7256    1.5893 C   0  0  0  0  0  0  0  0  0  0  0  0
    3.3587   -0.2491    0.5878 C   0  0  0  0  0  0  0  0  0  0  0  0
    1.9604   -0.5629    0.5700 N   0  0  0  0  0  0  0  0  0  0  0  0
    1.2562   -0.8173   -0.5929 C   0  0  0  0  0  0  0  0  0  0  0  0
    1.8641   -0.7922   -1.7300 O   0  0  0  0  0  0  0  0  0  0  0  0
   -0.1199   -1.1001   -0.6314 N   0  0  0  0  0  0  0  0  0  0  0  0
   -0.8177   -1.2137    0.6321 C   0  0  0  0  0  0  0  0  0  0  0  0
   -2.2900   -1.5830    0.3454 C   0  0  0  0  0  0  0  0  0  0  0  0
   -2.7024   -0.5591   -0.5954 N   0  0  0  0  0  0  0  0  0  0  0  0
   -2.1921   -0.7715   -1.9488 C   0  0  0  0  0  0  0  0  0  0  0  0
   -0.7548   -1.2274   -1.9220 C   0  0  0  0  0  0  0  0  0  0  0  0
   -3.4852    0.5756   -0.3191 C   0  0  0  0  0  0  0  0  0  0  0  0
   -2.8521    1.7929   -0.1537 N   0  0  0  0  0  0  0  0  0  0  0  0
   -3.5035    2.9136    0.1392 C   0  0  0  0  0  0  0  0  0  0  0  0
   -4.8715    2.9296    0.2955 C   0  0  0  0  0  0  0  0  0  0  0  0
   -5.5361    1.7384    0.1409 C   0  0  0  0  0  0  0  0  0  0  0  0
   -4.8405    0.5486   -0.1703 C   0  0  0  0  0  0  0  0  0  0  0  0
   -5.6028   -0.6867   -0.3412 C   0  0  0  0  0  0  0  0  0  0  0  0
   -5.4724   -1.3129   -1.5580 F   0  0  0  0  0  0  0  0  0  0  0  0
   -5.4854   -1.5198    0.7434 F   0  0  0  0  0  0  0  0  0  0  0  0
   -6.9881   -0.3234   -0.3327 F   0  0  0  0  0  0  0  0  0  0  0  0
    3.8868    0.5385   -0.4034 C   0  0  0  0  0  0  0  0  0  0  0  0
    5.2289    0.8392   -0.3869 C   0  0  0  0  0  0  0  0  0  0  0  0
    6.1963   -0.7724    2.3651 H   0  0  0  0  0  0  0  0  0  0  0  0
    3.7639   -1.3450    2.3671 H   0  0  0  0  0  0  0  0  0  0  0  0
    1.4969   -0.5866    1.5402 H   0  0  0  0  0  0  0  0  0  0  0  0
   -0.8769   -0.2547    1.1661 H   0  0  0  0  0  0  0  0  0  0  0  0
   -0.4164   -2.0675    1.2032 H   0  0  0  0  0  0  0  0  0  0  0  0
   -2.7598   -1.5594    1.3180 H   0  0  0  0  0  0  0  0  0  0  0  0
   -2.3453   -2.5742   -0.1910 H   0  0  0  0  0  0  0  0  0  0  0  0
   -2.8081   -1.5588   -2.4154 H   0  0  0  0  0  0  0  0  0  0  0  0
   -2.3226    0.1470   -2.5630 H   0  0  0  0  0  0  0  0  0  0  0  0
   -0.2035   -0.5094   -2.6044 H   0  0  0  0  0  0  0  0  0  0  0  0
   -0.6426   -2.2132   -2.3845 H   0  0  0  0  0  0  0  0  0  0  0  0
   -2.9770    3.8630    0.2596 H   0  0  0  0  0  0  0  0  0  0  0  0
   -5.4435    3.8225    0.5437 H   0  0  0  0  0  0  0  0  0  0  0  0
   -6.6347    1.7207    0.2582 H   0  0  0  0  0  0  0  0  0  0  0  0
    3.2455    0.9524   -1.1933 H   0  0  0  0  0  0  0  0  0  0  0  0
    5.6080    1.4668   -1.1690 H   0  0  0  0  0  0  0  0  0  0  0  0
  1  2  1  0
  2  3  1  0
  2  4  1  0
  2  5  1  0
  5  6  2  0
  6  7  1  0
  7  8  2  0
  8  9  1  0
  9 10  1  0
 10 11  2  0
 10 12  1  0
 12 13  1  0
 13 14  1  0
 14 15  1  0
 15 16  1  0
 16 17  1  0
 15 18  1  0
 18 19  2  0
 19 20  1  0
 20 21  2  0
 21 22  1  0
 22 23  2  0
 23 24  1  0
 24 25  1  0
 24 26  1  0
 24 27  1  0
  8 28  1  0
 28 29  2  0
 29  5  1  0
 17 12  1  0
 23 18  1  0
  6 30  1  0
  7 31  1  0
  9 32  1  0
 13 33  1  0
 13 34  1  0
 14 35  1  0
 14 36  1  0
 16 37  1  0
 16 38  1  0
 17 39  1  0
 17 40  1  0
 20 41  1  0
 21 42  1  0
 22 43  1  0
 28 44  1  0
 29 45  1  0
M  END
$$$$
[H]Oc1c([H])c2c(c([H])c1O[H])C([H])([H])C([H])([H])N2C(=O)c1c([H])c(C([H])(C([H])([H])[H])C([H])([H])[H])c(O[H])c([H])c1O[H]
     RDKit          3D

 43 45  0  0  0  0  0  0  0  0999 V2000
   -3.1102    0.2999   -2.2116 C   0  0  0  0  0  0  0  0  0  0  0  0
   -3.8847   -0.2579   -1.0630 C   0  0  0  0  0  0  0  0  0  0  0  0
   -4.9811    0.7053   -0.6904 C   0  0  0  0  0  0  0  0  0  0  0  0
   -3.0473   -0.6435    0.0847 C   0  0  0  0  0  0  0  0  0  0  0  0
   -1.6804   -0.3777    0.0177 C   0  0  0  0  0  0  0  0  0  0  0  0
   -0.8267   -0.7160    1.0761 C   0  0  0  0  0  0  0  0  0  0  0  0
    0.5741   -0.3568    1.0466 C   0  0  0  0  0  0  0  0  0  0  0  0
    1.2218   -0.2396    2.1517 O   0  0  0  0  0  0  0  0  0  0  0  0
    1.3611   -0.1090   -0.1063 N   0  0  0  0  0  0  0  0  0  0  0  0
    1.1110   -0.3304   -1.5108 C   0  0  0  0  0  0  0  0  0  0  0  0
    2.4650   -0.7836   -2.0168 C   0  0  0  0  0  0  0  0  0  0  0  0
    3.3944    0.0377   -1.2103 C   0  0  0  0  0  0  0  0  0  0  0  0
    4.7024    0.4356   -1.3941 C   0  0  0  0  0  0  0  0  0  0  0  0
    5.3685    1.2185   -0.4691 C   0  0  0  0  0  0  0  0  0  0  0  0
    6.6917    1.5925   -0.7048 O   0  0  0  0  0  0  0  0  0  0  0  0
    4.6968    1.6096    0.6707 C   0  0  0  0  0  0  0  0  0  0  0  0
    5.3674    2.3928    1.5929 O   0  0  0  0  0  0  0  0  0  0  0  0
    3.3897    1.2039    0.8399 C   0  0  0  0  0  0  0  0  0  0  0  0
    2.7053    0.4179   -0.0783 C   0  0  0  0  0  0  0  0  0  0  0  0
   -1.3943   -1.3136    2.1668 C   0  0  0  0  0  0  0  0  0  0  0  0
   -0.6961   -1.7055    3.2672 O   0  0  0  0  0  0  0  0  0  0  0  0
   -2.7945   -1.5718    2.2079 C   0  0  0  0  0  0  0  0  0  0  0  0
   -3.6104   -1.2387    1.1742 C   0  0  0  0  0  0  0  0  0  0  0  0
   -4.9786   -1.4656    1.1571 O   0  0  0  0  0  0  0  0  0  0  0  0
   -3.7884    0.5999   -3.0434 H   0  0  0  0  0  0  0  0  0  0  0  0
   -2.3780   -0.4021   -2.6548 H   0  0  0  0  0  0  0  0  0  0  0  0
   -2.5614    1.2249   -1.9192 H   0  0  0  0  0  0  0  0  0  0  0  0
   -4.4021   -1.1895   -1.3993 H   0  0  0  0  0  0  0  0  0  0  0  0
   -4.9554    0.8744    0.4119 H   0  0  0  0  0  0  0  0  0  0  0  0
   -4.7436    1.6889   -1.1423 H   0  0  0  0  0  0  0  0  0  0  0  0
   -5.9752    0.4069   -1.0460 H   0  0  0  0  0  0  0  0  0  0  0  0
   -1.2592    0.1120   -0.8274 H   0  0  0  0  0  0  0  0  0  0  0  0
    0.4337   -1.2201   -1.6792 H   0  0  0  0  0  0  0  0  0  0  0  0
    0.7578    0.5700   -2.0405 H   0  0  0  0  0  0  0  0  0  0  0  0
    2.5295   -0.4967   -3.0926 H   0  0  0  0  0  0  0  0  0  0  0  0
    2.6270   -1.8682   -1.8542 H   0  0  0  0  0  0  0  0  0  0  0  0
    5.2495    0.1414   -2.2795 H   0  0  0  0  0  0  0  0  0  0  0  0
    7.1449    2.1644   -0.0067 H   0  0  0  0  0  0  0  0  0  0  0  0
    4.8492    2.6690    2.4260 H   0  0  0  0  0  0  0  0  0  0  0  0
    2.8790    1.5202    1.7376 H   0  0  0  0  0  0  0  0  0  0  0  0
    0.2391   -1.6619    3.4510 H   0  0  0  0  0  0  0  0  0  0  0  0
   -3.2133   -2.0392    3.0738 H   0  0  0  0  0  0  0  0  0  0  0  0
   -5.4781   -1.8985    1.9144 H   0  0  0  0  0  0  0  0  0  0  0  0
  1  2  1  0
  2  3  1  0
  2  4  1  0
  4  5  2  0
  5  6  1  0
  6  7  1  0
  7  8  2  0
  7  9  1  0
  9 10  1  0
 10 11  1  0
 11 12  1  0
 12 13  2  0
 13 14  1  0
 14 15  1  0
 14 16  2  0
 16 17  1  0
 16 18  1  0
 18 19  2  0
  6 20  2  0
 20 21  1  0
 20 22  1  0
 22 23  2  0
 23 24  1  0
 23  4  1  0
 19  9  1  0
 19 12  1  0
  1 25  1  0
  1 26  1  0
  1 27  1  0
  2 28  1  0
  3 29  1  0
  3 30  1  0
  3 31  1  0
  5 32  1  0
 10 33  1  0
 10 34  1  0
 11 35  1  0
 11 36  1  0
 13 37  1  0
 15 38  1  0
 17 39  1  0
 18 40  1  0
 21 41  1  0
 22 42  1  0
 24 43  1  0
M  END
$$$$
[H]OC(=O)[C@@]([H])(N([H])C(=O)[C@@]([H])(N([H])C(=O)[C@@]([H])(N([H])C(=O)[C@@]([H])(N([H])C(=O)[C@@]1([H])N(C(=O)[C@@]([H])(N([H])C(=O)OC([H])([H])c2c([H])c([H])c([H])c([H])c2[H])[C@@]([H])(C([H])([H])[H])C([H])([H])C([H])([H])[H])C([H])([H])C([H])([H])C1([H])[H])C([H])([H])C([H])(C([H])([H])[H])C([H])([H])[H])C([H])([H])O[H])C([H])([H])C([H])(C([H])([H])[H])C([H])([H])[H])C([H])([H])c1c([H])c([H])c([H])c([H])c1[H]
     RDKit          3D

121123  0  0  0  0  0  0  0  0999 V2000
   -8.3737   -3.9444   -0.3777 C   0  0  0  0  0  0  0  0  0  0  0  0
   -8.2621   -3.3389   -1.7915 C   0  0  0  0  0  0  0  0  0  0  0  0
   -7.0860   -2.4164   -1.8485 C   0  0  2  0  0  0  0  0  0  0  0  0
   -5.8291   -3.1153   -1.5087 C   0  0  0  0  0  0  0  0  0  0  0  0
   -7.3672   -1.1304   -1.1405 C   0  0  2  0  0  0  0  0  0  0  0  0
   -8.3730   -0.3959   -1.8124 N   0  0  0  0  0  0  0  0  0  0  0  0
   -8.5658    1.0288   -1.6005 C   0  0  0  0  0  0  0  0  0  0  0  0
   -7.7589    1.5927   -0.8689 O   0  0  0  0  0  0  0  0  0  0  0  0
   -9.5750    1.7585   -2.1613 O   0  0  0  0  0  0  0  0  0  0  0  0
   -9.7342    3.1264   -2.0068 C   0  0  0  0  0  0  0  0  0  0  0  0
   -9.8284    3.6783   -0.6585 C   0  0  0  0  0  0  0  0  0  0  0  0
  -10.9660    3.6192    0.0701 C   0  0  0  0  0  0  0  0  0  0  0  0
  -11.0791    4.1565    1.3099 C   0  0  0  0  0  0  0  0  0  0  0  0
   -9.9847    4.8022    1.8850 C   0  0  0  0  0  0  0  0  0  0  0  0
   -8.8189    4.8707    1.1590 C   0  0  0  0  0  0  0  0  0  0  0  0
   -8.7293    4.3329   -0.0819 C   0  0  0  0  0  0  0  0  0  0  0  0
   -6.0799   -0.4219   -0.8055 C   0  0  0  0  0  0  0  0  0  0  0  0
   -5.4461    0.0516   -1.7702 O   0  0  0  0  0  0  0  0  0  0  0  0
   -5.6556   -0.3184    0.5320 N   0  0  0  0  0  0  0  0  0  0  0  0
   -6.7104   -0.5102    1.6270 C   0  0  0  0  0  0  0  0  0  0  0  0
   -6.0795   -1.6377    2.3641 C   0  0  0  0  0  0  0  0  0  0  0  0
   -4.6152   -1.3860    2.2869 C   0  0  0  0  0  0  0  0  0  0  0  0
   -4.5479   -0.1039    1.3159 C   0  0  1  0  0  0  0  0  0  0  0  0
   -3.1989    0.0631    1.0564 C   0  0  0  0  0  0  0  0  0  0  0  0
   -2.5376    0.6317    2.0962 O   0  0  0  0  0  0  0  0  0  0  0  0
   -2.2704   -0.1998    0.0157 N   0  0  0  0  0  0  0  0  0  0  0  0
   -0.9106    0.1222    0.3084 C   0  0  1  0  0  0  0  0  0  0  0  0
   -0.2934   -1.1124    1.0754 C   0  0  0  0  0  0  0  0  0  0  0  0
   -0.2488   -2.3500    0.2680 C   0  0  0  0  0  0  0  0  0  0  0  0
   -1.4964   -2.9275   -0.2568 C   0  0  0  0  0  0  0  0  0  0  0  0
    0.3703   -3.4111    1.2115 C   0  0  0  0  0  0  0  0  0  0  0  0
    0.1139    0.4432   -0.6613 C   0  0  0  0  0  0  0  0  0  0  0  0
   -0.0169    0.3193   -1.8787 O   0  0  0  0  0  0  0  0  0  0  0  0
    1.3055    0.9052   -0.0579 N   0  0  0  0  0  0  0  0  0  0  0  0
    2.5938    1.2544   -0.5673 C   0  0  1  0  0  0  0  0  0  0  0  0
    2.7672    2.7974   -0.4324 C   0  0  0  0  0  0  0  0  0  0  0  0
    2.7433    3.1189    0.9051 O   0  0  0  0  0  0  0  0  0  0  0  0
    3.5478    0.7086    0.5448 C   0  0  0  0  0  0  0  0  0  0  0  0
    3.1421    0.9971    1.6587 O   0  0  0  0  0  0  0  0  0  0  0  0
    4.7072   -0.0253    0.2712 N   0  0  0  0  0  0  0  0  0  0  0  0
    5.8371   -0.7414    0.0849 C   0  0  1  0  0  0  0  0  0  0  0  0
    5.4896   -1.8929   -0.8494 C   0  0  0  0  0  0  0  0  0  0  0  0
    6.5040   -2.9072   -1.1224 C   0  0  0  0  0  0  0  0  0  0  0  0
    7.7984   -2.5814   -1.7301 C   0  0  0  0  0  0  0  0  0  0  0  0
    6.6744   -3.8865    0.0494 C   0  0  0  0  0  0  0  0  0  0  0  0
    6.9646    0.1060   -0.5131 C   0  0  0  0  0  0  0  0  0  0  0  0
    6.6903    0.7923   -1.4987 O   0  0  0  0  0  0  0  0  0  0  0  0
    8.2188    0.0561    0.0953 N   0  0  0  0  0  0  0  0  0  0  0  0
    9.4475    0.6993   -0.2334 C   0  0  1  0  0  0  0  0  0  0  0  0
    9.3578    2.1225    0.3179 C   0  0  0  0  0  0  0  0  0  0  0  0
   10.5908    2.8793    0.1539 C   0  0  0  0  0  0  0  0  0  0  0  0
   11.1095    3.4398   -0.9567 C   0  0  0  0  0  0  0  0  0  0  0  0
   12.2902    4.1926   -0.9217 C   0  0  0  0  0  0  0  0  0  0  0  0
   13.0121    4.4297    0.2242 C   0  0  0  0  0  0  0  0  0  0  0  0
   12.4549    3.8395    1.3816 C   0  0  0  0  0  0  0  0  0  0  0  0
   11.3201    3.1124    1.3364 C   0  0  0  0  0  0  0  0  0  0  0  0
   10.5853   -0.0197    0.3155 C   0  0  0  0  0  0  0  0  0  0  0  0
   11.8364   -0.0494   -0.3568 O   0  0  0  0  0  0  0  0  0  0  0  0
   10.5788   -0.6638    1.4108 O   0  0  0  0  0  0  0  0  0  0  0  0
   -7.3734   -4.1725    0.0107 H   0  0  0  0  0  0  0  0  0  0  0  0
   -8.9009   -3.2706    0.3114 H   0  0  0  0  0  0  0  0  0  0  0  0
   -8.9625   -4.8704   -0.4699 H   0  0  0  0  0  0  0  0  0  0  0  0
   -9.1890   -2.7654   -1.9447 H   0  0  0  0  0  0  0  0  0  0  0  0
   -8.2322   -4.1391   -2.5340 H   0  0  0  0  0  0  0  0  0  0  0  0
   -7.0574   -2.1035   -2.9735 H   0  0  0  0  0  0  0  0  0  0  0  0
   -5.9155   -4.2350   -1.4022 H   0  0  0  0  0  0  0  0  0  0  0  0
   -5.3646   -2.7705   -0.5567 H   0  0  0  0  0  0  0  0  0  0  0  0
   -5.1118   -2.9705   -2.3624 H   0  0  0  0  0  0  0  0  0  0  0  0
   -7.7814   -1.4020   -0.1258 H   0  0  0  0  0  0  0  0  0  0  0  0
   -9.0372   -0.8360   -2.4829 H   0  0  0  0  0  0  0  0  0  0  0  0
   -8.8949    3.6289   -2.5593 H   0  0  0  0  0  0  0  0  0  0  0  0
  -10.6381    3.4274   -2.6372 H   0  0  0  0  0  0  0  0  0  0  0  0
  -11.8443    3.1306   -0.3547 H   0  0  0  0  0  0  0  0  0  0  0  0
  -12.0290    4.0881    1.8290 H   0  0  0  0  0  0  0  0  0  0  0  0
  -10.0779    5.2314    2.8562 H   0  0  0  0  0  0  0  0  0  0  0  0
   -7.9794    5.3849    1.6226 H   0  0  0  0  0  0  0  0  0  0  0  0
   -7.8306    4.3817   -0.6777 H   0  0  0  0  0  0  0  0  0  0  0  0
   -7.7014   -0.5529    1.2952 H   0  0  0  0  0  0  0  0  0  0  0  0
   -6.5527    0.4568    2.1942 H   0  0  0  0  0  0  0  0  0  0  0  0
   -6.3735   -1.5275    3.4534 H   0  0  0  0  0  0  0  0  0  0  0  0
   -6.3953   -2.6356    1.9951 H   0  0  0  0  0  0  0  0  0  0  0  0
   -4.1975   -1.0860    3.2420 H   0  0  0  0  0  0  0  0  0  0  0  0
   -4.0640   -2.1385    1.7256 H   0  0  0  0  0  0  0  0  0  0  0  0
   -4.8589    0.7246    2.0923 H   0  0  0  0  0  0  0  0  0  0  0  0
   -2.5681   -0.6015   -0.8664 H   0  0  0  0  0  0  0  0  0  0  0  0
   -0.8930    0.8953    1.1336 H   0  0  0  0  0  0  0  0  0  0  0  0
    0.7345   -0.8076    1.2911 H   0  0  0  0  0  0  0  0  0  0  0  0
   -0.8211   -1.2167    2.0147 H   0  0  0  0  0  0  0  0  0  0  0  0
    0.4944   -2.2928   -0.5698 H   0  0  0  0  0  0  0  0  0  0  0  0
   -2.4190   -2.7725    0.2770 H   0  0  0  0  0  0  0  0  0  0  0  0
   -1.3693   -4.0678   -0.2686 H   0  0  0  0  0  0  0  0  0  0  0  0
   -1.5694   -2.7137   -1.3797 H   0  0  0  0  0  0  0  0  0  0  0  0
   -0.4760   -3.8988    1.7466 H   0  0  0  0  0  0  0  0  0  0  0  0
    1.0589   -2.9494    1.9281 H   0  0  0  0  0  0  0  0  0  0  0  0
    0.8350   -4.2189    0.5922 H   0  0  0  0  0  0  0  0  0  0  0  0
    1.2410    1.0711    1.0310 H   0  0  0  0  0  0  0  0  0  0  0  0
    2.7985    0.9389   -1.5293 H   0  0  0  0  0  0  0  0  0  0  0  0
    3.6497    3.0666   -0.9849 H   0  0  0  0  0  0  0  0  0  0  0  0
    1.8772    3.2902   -0.9145 H   0  0  0  0  0  0  0  0  0  0  0  0
    1.8113    2.9974    1.2148 H   0  0  0  0  0  0  0  0  0  0  0  0
    4.9184    0.0032    1.6585 H   0  0  0  0  0  0  0  0  0  0  0  0
    6.3050   -1.1711    1.0040 H   0  0  0  0  0  0  0  0  0  0  0  0
    5.1357   -1.4266   -1.7849 H   0  0  0  0  0  0  0  0  0  0  0  0
    4.6405   -2.4076   -0.3230 H   0  0  0  0  0  0  0  0  0  0  0  0
    5.9995   -3.6196   -1.8957 H   0  0  0  0  0  0  0  0  0  0  0  0
    7.9091   -1.6812   -2.3017 H   0  0  0  0  0  0  0  0  0  0  0  0
    8.6190   -2.7017   -0.9480 H   0  0  0  0  0  0  0  0  0  0  0  0
    8.1300   -3.3957   -2.4837 H   0  0  0  0  0  0  0  0  0  0  0  0
    7.4160   -3.4751    0.7146 H   0  0  0  0  0  0  0  0  0  0  0  0
    5.6860   -4.1011    0.5005 H   0  0  0  0  0  0  0  0  0  0  0  0
    7.0377   -4.8568   -0.3268 H   0  0  0  0  0  0  0  0  0  0  0  0
    8.3050   -0.5746    0.9830 H   0  0  0  0  0  0  0  0  0  0  0  0
    9.6014    0.7765   -1.3511 H   0  0  0  0  0  0  0  0  0  0  0  0
    8.5372    2.6805   -0.1979 H   0  0  0  0  0  0  0  0  0  0  0  0
    9.0758    2.0795    1.3629 H   0  0  0  0  0  0  0  0  0  0  0  0
   10.6356    3.3184   -1.8833 H   0  0  0  0  0  0  0  0  0  0  0  0
   12.6558    4.6255   -1.8763 H   0  0  0  0  0  0  0  0  0  0  0  0
   13.9202    5.0056    0.2821 H   0  0  0  0  0  0  0  0  0  0  0  0
   13.0386    4.0532    2.2865 H   0  0  0  0  0  0  0  0  0  0  0  0
   10.9575    2.6968    2.2854 H   0  0  0  0  0  0  0  0  0  0  0  0
   11.8420   -0.0867   -1.3733 H   0  0  0  0  0  0  0  0  0  0  0  0
  1  2  1  0
  2  3  1  0
  3  4  1  0
  3  5  1  0
  5  6  1  0
  6  7  1  0
  7  8  2  0
  7  9  1  0
  9 10  1  0
 10 11  1  0
 11 12  2  0
 12 13  1  0
 13 14  2  0
 14 15  1  0
 15 16  2  0
  5 17  1  0
 17 18  2  0
 17 19  1  0
 19 20  1  0
 20 21  1  0
 21 22  1  0
 22 23  1  0
 23 24  1  0
 24 25  2  0
 24 26  1  0
 26 27  1  0
 27 28  1  0
 28 29  1  0
 29 30  1  0
 29 31  1  0
 27 32  1  0
 32 33  2  0
 32 34  1  0
 34 35  1  0
 35 36  1  0
 36 37  1  0
 35 38  1  0
 38 39  2  0
 38 40  1  0
 40 41  1  0
 41 42  1  0
 42 43  1  0
 43 44  1  0
 43 45  1  0
 41 46  1  0
 46 47  2  0
 46 48  1  0
 48 49  1  0
 49 50  1  0
 50 51  1  0
 51 52  2  0
 52 53  1  0
 53 54  2  0
 54 55  1  0
 55 56  2  0
 49 57  1  0
 57 58  1  0
 57 59  2  0
 16 11  1  0
 23 19  1  0
 56 51  1  0
  1 60  1  0
  1 61  1  0
  1 62  1  0
  2 63  1  0
  2 64  1  0
  3 65  1  6
  4 66  1  0
  4 67  1  0
  4 68  1  0
  5 69  1  1
  6 70  1  0
 10 71  1  0
 10 72  1  0
 12 73  1  0
 13 74  1  0
 14 75  1  0
 15 76  1  0
 16 77  1  0
 20 78  1  0
 20 79  1  0
 21 80  1  0
 21 81  1  0
 22 82  1  0
 22 83  1  0
 23 84  1  1
 26 85  1  0
 27 86  1  1
 28 87  1  0
 28 88  1  0
 29 89  1  0
 30 90  1  0
 30 91  1  0
 30 92  1  0
 31 93  1  0
 31 94  1  0
 31 95  1  0
 34 96  1  0
 35 97  1  6
 36 98  1  0
 36 99  1  0
 37100  1  0
 40101  1  0
 41102  1  1
 42103  1  0
 42104  1  0
 43105  1  0
 44106  1  0
 44107  1  0
 44108  1  0
 45109  1  0
 45110  1  0
 45111  1  0
 48112  1  0
 49113  1  6
 50114  1  0
 50115  1  0
 52116  1  0
 53117  1  0
 54118  1  0
 55119  1  0
 56120  1  0
 58121  1  0
M  END
$$$$
[H]c1c([H])c([H])c(C2([H])C(C(=O)OC([H])([H])[H])=C(C([H])([H])[H])N([H])C(C([H])([H])[H])=C2C(=O)OC([H])([H])[H])c([H])c1[H]
     RDKit          3D

 41 42  0  0  0  0  0  0  0  0999 V2000
    4.7904    1.0051   -0.3403 C   0  0  0  0  0  0  0  0  0  0  0  0
    3.7203    0.3470    0.3005 O   0  0  0  0  0  0  0  0  0  0  0  0
    2.4064    0.6482    0.0918 C   0  0  0  0  0  0  0  0  0  0  0  0
    2.2042    1.5931   -0.7465 O   0  0  0  0  0  0  0  0  0  0  0  0
    1.2427   -0.0066    0.7338 C   0  0  0  0  0  0  0  0  0  0  0  0
    1.4679   -0.9587    1.5928 C   0  0  0  0  0  0  0  0  0  0  0  0
    2.8776   -1.3976    1.9325 C   0  0  0  0  0  0  0  0  0  0  0  0
    0.4031   -1.6177    2.2848 N   0  0  0  0  0  0  0  0  0  0  0  0
   -0.9183   -1.1917    1.9910 C   0  0  0  0  0  0  0  0  0  0  0  0
   -2.0624   -1.8704    2.7236 C   0  0  0  0  0  0  0  0  0  0  0  0
   -1.1754   -0.2500    1.1211 C   0  0  0  0  0  0  0  0  0  0  0  0
   -0.1036    0.4176    0.3815 C   0  0  0  0  0  0  0  0  0  0  0  0
   -0.3370    0.3683   -1.0940 C   0  0  0  0  0  0  0  0  0  0  0  0
   -0.5325    1.5117   -1.8221 C   0  0  0  0  0  0  0  0  0  0  0  0
   -0.7513    1.5159   -3.1835 C   0  0  0  0  0  0  0  0  0  0  0  0
   -0.7776    0.3194   -3.8603 C   0  0  0  0  0  0  0  0  0  0  0  0
   -0.5830   -0.8401   -3.1447 C   0  0  0  0  0  0  0  0  0  0  0  0
   -0.3649   -0.8216   -1.7780 C   0  0  0  0  0  0  0  0  0  0  0  0
   -2.5883    0.1732    0.8883 C   0  0  0  0  0  0  0  0  0  0  0  0
   -3.5809   -0.3013    1.4508 O   0  0  0  0  0  0  0  0  0  0  0  0
   -2.8325    1.1780   -0.0253 O   0  0  0  0  0  0  0  0  0  0  0  0
   -4.1678    1.6321   -0.2934 C   0  0  0  0  0  0  0  0  0  0  0  0
    5.3148    1.7098    0.3356 H   0  0  0  0  0  0  0  0  0  0  0  0
    4.4521    1.5073   -1.2726 H   0  0  0  0  0  0  0  0  0  0  0  0
    5.5540    0.2520   -0.6619 H   0  0  0  0  0  0  0  0  0  0  0  0
    2.7902   -2.2088    2.7176 H   0  0  0  0  0  0  0  0  0  0  0  0
    3.4221   -0.5840    2.3807 H   0  0  0  0  0  0  0  0  0  0  0  0
    3.3129   -1.8083    1.0123 H   0  0  0  0  0  0  0  0  0  0  0  0
    0.5799   -2.3776    2.9754 H   0  0  0  0  0  0  0  0  0  0  0  0
   -1.5934   -2.6736    3.3896 H   0  0  0  0  0  0  0  0  0  0  0  0
   -2.6869   -2.3866    1.9889 H   0  0  0  0  0  0  0  0  0  0  0  0
   -2.5743   -1.1659    3.3652 H   0  0  0  0  0  0  0  0  0  0  0  0
   -0.1588    1.5086    0.6834 H   0  0  0  0  0  0  0  0  0  0  0  0
   -0.5160    2.4721   -1.3078 H   0  0  0  0  0  0  0  0  0  0  0  0
   -0.9049    2.4242   -3.7518 H   0  0  0  0  0  0  0  0  0  0  0  0
   -0.9511    0.3049   -4.9478 H   0  0  0  0  0  0  0  0  0  0  0  0
   -0.6089   -1.7650   -3.7023 H   0  0  0  0  0  0  0  0  0  0  0  0
   -0.2216   -1.7479   -1.2822 H   0  0  0  0  0  0  0  0  0  0  0  0
   -4.2084    2.1641   -1.2609 H   0  0  0  0  0  0  0  0  0  0  0  0
   -4.8119    0.7152   -0.4291 H   0  0  0  0  0  0  0  0  0  0  0  0
   -4.5269    2.2057    0.5632 H   0  0  0  0  0  0  0  0  0  0  0  0
  1  2  1  0
  2  3  1  0
  3  4  2  0
  3  5  1  0
  5  6  2  0
  6  7  1  0
  6  8  1  0
  8  9  1  0
  9 10  1  0
  9 11  2  0
 11 12  1  0
 12 13  1  0
 13 14  2  0
 14 15  1  0
 15 16  2  0
 16 17  1  0
 17 18  2  0
 11 19  1  0
 19 20  2  0
 19 21  1  0
 21 22  1  0
 12  5  1  0
 18 13  1  0
  1 23  1  0
  1 24  1  0
  1 25  1  0
  7 26  1  0
  7 27  1  0
  7 28  1  0
  8 29  1  0
 10 30  1  0
 10 31  1  0
 10 32  1  0
 12 33  1  0
 14 34  1  0
 15 35  1  0
 16 36  1  0
 17 37  1  0
 18 38  1  0
 22 39  1  0
 22 40  1  0
 22 41  1  0
M  END
$$$$
[H]c1c([H])c(-c2c(N([H])[H])nc(N([H])[H])nc2C([H])([H])C([H])([H])[H])c([H])c(C(F)(F)F)c1Cl
     RDKit          3D

 33 34  0  0  0  0  0  0  0  0999 V2000
   -2.1714    2.6622   -1.1008 C   0  0  0  0  0  0  0  0  0  0  0  0
   -1.0816    1.6176   -1.0769 C   0  0  0  0  0  0  0  0  0  0  0  0
   -1.5431    0.4081   -0.3143 C   0  0  0  0  0  0  0  0  0  0  0  0
   -2.8742    0.2770   -0.0564 N   0  0  0  0  0  0  0  0  0  0  0  0
   -3.3548   -0.7615    0.6129 C   0  0  0  0  0  0  0  0  0  0  0  0
   -4.7413   -0.9422    0.9115 N   0  0  0  0  0  0  0  0  0  0  0  0
   -2.4944   -1.6994    1.0415 N   0  0  0  0  0  0  0  0  0  0  0  0
   -1.1775   -1.6443    0.8305 C   0  0  0  0  0  0  0  0  0  0  0  0
   -0.3157   -2.6654    1.3027 N   0  0  0  0  0  0  0  0  0  0  0  0
   -0.6745   -0.5484    0.1233 C   0  0  0  0  0  0  0  0  0  0  0  0
    0.7543   -0.5009   -0.1299 C   0  0  0  0  0  0  0  0  0  0  0  0
    1.2883   -1.3159   -1.1303 C   0  0  0  0  0  0  0  0  0  0  0  0
    2.6407   -1.3221   -1.4097 C   0  0  0  0  0  0  0  0  0  0  0  0
    3.4608   -0.4930   -0.6677 C   0  0  0  0  0  0  0  0  0  0  0  0
    5.1841   -0.4875   -0.9923 Cl  0  0  0  0  0  0  0  0  0  0  0  0
    2.9896    0.3344    0.3317 C   0  0  0  0  0  0  0  0  0  0  0  0
    1.6331    0.3121    0.5816 C   0  0  0  0  0  0  0  0  0  0  0  0
    3.9292    1.2088    1.0916 C   0  0  0  0  0  0  0  0  0  0  0  0
    4.5854    2.0854    0.2221 F   0  0  0  0  0  0  0  0  0  0  0  0
    3.2036    2.0369    1.9410 F   0  0  0  0  0  0  0  0  0  0  0  0
    4.8691    0.4914    1.7635 F   0  0  0  0  0  0  0  0  0  0  0  0
   -2.8530    2.4516   -0.2389 H   0  0  0  0  0  0  0  0  0  0  0  0
   -2.7977    2.5897   -2.0087 H   0  0  0  0  0  0  0  0  0  0  0  0
   -1.7570    3.7086   -1.0265 H   0  0  0  0  0  0  0  0  0  0  0  0
   -0.1325    2.0028   -0.6727 H   0  0  0  0  0  0  0  0  0  0  0  0
   -0.9104    1.2694   -2.1156 H   0  0  0  0  0  0  0  0  0  0  0  0
   -5.1154   -1.9235    1.0832 H   0  0  0  0  0  0  0  0  0  0  0  0
   -5.3719   -0.1166    0.9571 H   0  0  0  0  0  0  0  0  0  0  0  0
    0.2229   -3.2732    0.6658 H   0  0  0  0  0  0  0  0  0  0  0  0
   -0.2282   -2.8056    2.3249 H   0  0  0  0  0  0  0  0  0  0  0  0
    0.5670   -1.9366   -1.6701 H   0  0  0  0  0  0  0  0  0  0  0  0
    3.0240   -1.9736   -2.2011 H   0  0  0  0  0  0  0  0  0  0  0  0
    1.2425    0.9538    1.3545 H   0  0  0  0  0  0  0  0  0  0  0  0
  1  2  1  0
  2  3  1  0
  3  4  2  0
  4  5  1  0
  5  6  1  0
  5  7  2  0
  7  8  1  0
  8  9  1  0
  8 10  2  0
 10 11  1  0
 11 12  2  0
 12 13  1  0
 13 14  2  0
 14 15  1  0
 14 16  1  0
 16 17  2  0
 16 18  1  0
 18 19  1  0
 18 20  1  0
 18 21  1  0
 10  3  1  0
 17 11  1  0
  1 22  1  0
  1 23  1  0
  1 24  1  0
  2 25  1  0
  2 26  1  0
  6 27  1  0
  6 28  1  0
  9 29  1  0
  9 30  1  0
 12 31  1  0
 13 32  1  0
 17 33  1  0
M  END
$$$$
[H]c1nc(N([H])[H])c(O[C@@]([H])(c2c([H])c([H])c(F)c([H])c2C(F)(F)F)C([H])([H])[H])c([H])c1-c1c([H])c(F)c(F)c(C(F)(F)F)c1[H]
     RDKit          3D

 46 48  0  0  0  0  0  0  0  0999 V2000
   -2.8099    0.1343   -2.6361 C   0  0  0  0  0  0  0  0  0  0  0  0
   -2.7330   -0.3166   -1.1389 C   0  0  1  0  0  0  0  0  0  0  0  0
   -1.4202   -0.1715   -0.8150 O   0  0  0  0  0  0  0  0  0  0  0  0
   -0.3312   -0.9145   -0.6163 C   0  0  0  0  0  0  0  0  0  0  0  0
    0.8666   -0.2265   -0.2516 C   0  0  0  0  0  0  0  0  0  0  0  0
    2.0475   -0.8451   -0.0180 C   0  0  0  0  0  0  0  0  0  0  0  0
    2.0826   -2.2205   -0.1415 C   0  0  0  0  0  0  0  0  0  0  0  0
    0.9474   -2.8809   -0.4874 N   0  0  0  0  0  0  0  0  0  0  0  0
   -0.2276   -2.2858   -0.7226 C   0  0  0  0  0  0  0  0  0  0  0  0
   -1.3653   -3.0799   -1.0855 N   0  0  0  0  0  0  0  0  0  0  0  0
    3.2719   -0.1450    0.3467 C   0  0  0  0  0  0  0  0  0  0  0  0
    3.2497    1.0206    1.0770 C   0  0  0  0  0  0  0  0  0  0  0  0
    4.3675    1.7252    1.4635 C   0  0  0  0  0  0  0  0  0  0  0  0
    4.3119    2.8700    2.1783 F   0  0  0  0  0  0  0  0  0  0  0  0
    5.5886    1.2542    1.1110 C   0  0  0  0  0  0  0  0  0  0  0  0
    6.7646    1.8513    1.4320 F   0  0  0  0  0  0  0  0  0  0  0  0
    5.6736    0.0728    0.3687 C   0  0  0  0  0  0  0  0  0  0  0  0
    4.5340   -0.6140   -0.0062 C   0  0  0  0  0  0  0  0  0  0  0  0
    7.0121   -0.4591   -0.0144 C   0  0  0  0  0  0  0  0  0  0  0  0
    7.6425    0.5064   -0.7785 F   0  0  0  0  0  0  0  0  0  0  0  0
    6.8556   -1.6038   -0.7719 F   0  0  0  0  0  0  0  0  0  0  0  0
    7.7459   -0.7562    1.1116 F   0  0  0  0  0  0  0  0  0  0  0  0
   -3.5415    0.6892   -0.3862 C   0  0  0  0  0  0  0  0  0  0  0  0
   -3.6764    1.9522   -0.9830 C   0  0  0  0  0  0  0  0  0  0  0  0
   -4.3661    2.9576   -0.3084 C   0  0  0  0  0  0  0  0  0  0  0  0
   -4.8966    2.7117    0.9067 C   0  0  0  0  0  0  0  0  0  0  0  0
   -5.5573    3.6905    1.5467 F   0  0  0  0  0  0  0  0  0  0  0  0
   -4.7537    1.4679    1.4737 C   0  0  0  0  0  0  0  0  0  0  0  0
   -4.0653    0.4194    0.8299 C   0  0  0  0  0  0  0  0  0  0  0  0
   -3.9663   -0.8882    1.4865 C   0  0  0  0  0  0  0  0  0  0  0  0
   -4.5055   -1.9364    0.7651 F   0  0  0  0  0  0  0  0  0  0  0  0
   -4.8170   -0.8434    2.6400 F   0  0  0  0  0  0  0  0  0  0  0  0
   -2.7311   -1.1600    2.0275 F   0  0  0  0  0  0  0  0  0  0  0  0
   -3.7897    0.5303   -2.8762 H   0  0  0  0  0  0  0  0  0  0  0  0
   -2.5392   -0.7573   -3.2514 H   0  0  0  0  0  0  0  0  0  0  0  0
   -2.0268    0.8809   -2.7679 H   0  0  0  0  0  0  0  0  0  0  0  0
   -3.0883   -1.3346   -1.0743 H   0  0  0  0  0  0  0  0  0  0  0  0
    0.8315    0.8533   -0.1528 H   0  0  0  0  0  0  0  0  0  0  0  0
    3.0209   -2.7233    0.0433 H   0  0  0  0  0  0  0  0  0  0  0  0
   -1.9069   -3.6110   -0.3779 H   0  0  0  0  0  0  0  0  0  0  0  0
   -1.6436   -3.1205   -2.0760 H   0  0  0  0  0  0  0  0  0  0  0  0
    2.2887    1.4478    1.3905 H   0  0  0  0  0  0  0  0  0  0  0  0
    4.5540   -1.5401   -0.5845 H   0  0  0  0  0  0  0  0  0  0  0  0
   -3.2597    2.1864   -1.9452 H   0  0  0  0  0  0  0  0  0  0  0  0
   -4.4561    3.9231   -0.7864 H   0  0  0  0  0  0  0  0  0  0  0  0
   -5.1830    1.2891    2.4347 H   0  0  0  0  0  0  0  0  0  0  0  0
  1  2  1  0
  2  3  1  0
  3  4  1  0
  4  5  2  0
  5  6  1  0
  6  7  2  0
  7  8  1  0
  8  9  2  0
  9 10  1  0
  6 11  1  0
 11 12  2  0
 12 13  1  0
 13 14  1  0
 13 15  2  0
 15 16  1  0
 15 17  1  0
 17 18  2  0
 17 19  1  0
 19 20  1  0
 19 21  1  0
 19 22  1  0
  2 23  1  0
 23 24  2  0
 24 25  1  0
 25 26  2  0
 26 27  1  0
 26 28  1  0
 28 29  2  0
 29 30  1  0
 30 31  1  0
 30 32  1  0
 30 33  1  0
  9  4  1  0
 18 11  1  0
 29 23  1  0
  1 34  1  0
  1 35  1  0
  1 36  1  0
  2 37  1  6
  5 38  1  0
  7 39  1  0
 10 40  1  0
 10 41  1  0
 12 42  1  0
 18 43  1  0
 24 44  1  0
 25 45  1  0
 28 46  1  0
M  END
$$$$
[H]c1nc(N([H])[H])c(C(=O)N([H])c2nc([H])c([H])c([H])c2N2C([H])([H])C([H])([H])C(N([H])[H])(C([H])([H])[H])C([H])([H])C2([H])[H])nc1-c1nc([H])c([H])c([H])c1OC(F)(F)F
     RDKit          3D

 58 61  0  0  0  0  0  0  0  0999 V2000
   -3.5864   -2.9347   -2.1272 C   0  0  0  0  0  0  0  0  0  0  0  0
   -3.6769   -2.2229   -0.7752 C   0  0  0  0  0  0  0  0  0  0  0  0
   -5.0075   -2.4620   -0.1922 N   0  0  0  0  0  0  0  0  0  0  0  0
   -3.5575   -0.7598   -1.0219 C   0  0  0  0  0  0  0  0  0  0  0  0
   -2.3114   -0.2150   -0.3695 C   0  0  0  0  0  0  0  0  0  0  0  0
   -2.3428   -0.5688    1.0174 N   0  0  0  0  0  0  0  0  0  0  0  0
   -2.3123   -1.9959    1.3212 C   0  0  0  0  0  0  0  0  0  0  0  0
   -2.6103   -2.8198    0.0936 C   0  0  0  0  0  0  0  0  0  0  0  0
   -2.4000    0.3187    2.1062 C   0  0  0  0  0  0  0  0  0  0  0  0
   -3.5148    0.3416    2.9504 C   0  0  0  0  0  0  0  0  0  0  0  0
   -3.5994    1.2041    4.0085 C   0  0  0  0  0  0  0  0  0  0  0  0
   -2.5480    2.0666    4.2334 C   0  0  0  0  0  0  0  0  0  0  0  0
   -1.4823    2.0395    3.4209 N   0  0  0  0  0  0  0  0  0  0  0  0
   -1.3820    1.1847    2.3604 C   0  0  0  0  0  0  0  0  0  0  0  0
   -0.2168    1.2177    1.5664 N   0  0  0  0  0  0  0  0  0  0  0  0
    0.8499    2.1518    1.8524 C   0  0  0  0  0  0  0  0  0  0  0  0
    0.7451    2.9491    2.8127 O   0  0  0  0  0  0  0  0  0  0  0  0
    2.0499    2.1850    1.0428 C   0  0  0  0  0  0  0  0  0  0  0  0
    2.1894    1.3501    0.0165 N   0  0  0  0  0  0  0  0  0  0  0  0
    3.3101    1.3333   -0.7926 C   0  0  0  0  0  0  0  0  0  0  0  0
    4.2683    2.2363   -0.4670 C   0  0  0  0  0  0  0  0  0  0  0  0
    4.1666    3.1190    0.5867 N   0  0  0  0  0  0  0  0  0  0  0  0
    3.0501    3.0838    1.3362 C   0  0  0  0  0  0  0  0  0  0  0  0
    2.8491    3.9516    2.4433 N   0  0  0  0  0  0  0  0  0  0  0  0
    3.2980    0.4264   -1.9253 C   0  0  0  0  0  0  0  0  0  0  0  0
    2.1413   -0.3185   -2.0985 N   0  0  0  0  0  0  0  0  0  0  0  0
    1.9476   -1.1507   -3.1138 C   0  0  0  0  0  0  0  0  0  0  0  0
    2.8866   -1.3517   -4.0969 C   0  0  0  0  0  0  0  0  0  0  0  0
    4.0513   -0.6429   -3.9738 C   0  0  0  0  0  0  0  0  0  0  0  0
    4.2305    0.2338   -2.8790 C   0  0  0  0  0  0  0  0  0  0  0  0
    5.4519    0.8828   -2.8276 O   0  0  0  0  0  0  0  0  0  0  0  0
    6.5636    0.1297   -2.3277 C   0  0  0  0  0  0  0  0  0  0  0  0
    7.6669    0.9746   -2.3180 F   0  0  0  0  0  0  0  0  0  0  0  0
    6.7669   -0.8877   -3.2695 F   0  0  0  0  0  0  0  0  0  0  0  0
    6.3484   -0.5049   -1.1445 F   0  0  0  0  0  0  0  0  0  0  0  0
   -3.3521   -4.0003   -1.9786 H   0  0  0  0  0  0  0  0  0  0  0  0
   -4.5413   -2.7674   -2.6585 H   0  0  0  0  0  0  0  0  0  0  0  0
   -2.7107   -2.4876   -2.6453 H   0  0  0  0  0  0  0  0  0  0  0  0
   -5.2259   -1.6195    0.3880 H   0  0  0  0  0  0  0  0  0  0  0  0
   -5.6795   -2.5454   -0.9692 H   0  0  0  0  0  0  0  0  0  0  0  0
   -4.4439   -0.1922   -0.6685 H   0  0  0  0  0  0  0  0  0  0  0  0
   -3.4727   -0.5317   -2.1042 H   0  0  0  0  0  0  0  0  0  0  0  0
   -1.4251   -0.6419   -0.8824 H   0  0  0  0  0  0  0  0  0  0  0  0
   -2.3089    0.8840   -0.4838 H   0  0  0  0  0  0  0  0  0  0  0  0
   -2.9541   -2.2529    2.1868 H   0  0  0  0  0  0  0  0  0  0  0  0
   -1.2643   -2.2208    1.6183 H   0  0  0  0  0  0  0  0  0  0  0  0
   -2.9981   -3.8090    0.4529 H   0  0  0  0  0  0  0  0  0  0  0  0
   -1.6832   -3.0313   -0.4631 H   0  0  0  0  0  0  0  0  0  0  0  0
   -4.3052   -0.3484    2.7331 H   0  0  0  0  0  0  0  0  0  0  0  0
   -4.4498    1.2392    4.6727 H   0  0  0  0  0  0  0  0  0  0  0  0
   -2.5993    2.7655    5.0778 H   0  0  0  0  0  0  0  0  0  0  0  0
   -0.0885    0.5847    0.7721 H   0  0  0  0  0  0  0  0  0  0  0  0
    5.1552    2.3025   -1.0687 H   0  0  0  0  0  0  0  0  0  0  0  0
    2.3094    4.8303    2.2455 H   0  0  0  0  0  0  0  0  0  0  0  0
    3.1818    3.7909    3.3980 H   0  0  0  0  0  0  0  0  0  0  0  0
    1.0245   -1.7071   -3.1992 H   0  0  0  0  0  0  0  0  0  0  0  0
    2.7281   -2.0284   -4.9272 H   0  0  0  0  0  0  0  0  0  0  0  0
    4.8203   -0.7582   -4.7242 H   0  0  0  0  0  0  0  0  0  0  0  0
  1  2  1  0
  2  3  1  0
  2  4  1  0
  4  5  1  0
  5  6  1  0
  6  7  1  0
  7  8  1  0
  6  9  1  0
  9 10  2  0
 10 11  1  0
 11 12  2  0
 12 13  1  0
 13 14  2  0
 14 15  1  0
 15 16  1  0
 16 17  2  0
 16 18  1  0
 18 19  2  0
 19 20  1  0
 20 21  2  0
 21 22  1  0
 22 23  2  0
 23 24  1  0
 20 25  1  0
 25 26  2  0
 26 27  1  0
 27 28  2  0
 28 29  1  0
 29 30  2  0
 30 31  1  0
 31 32  1  0
 32 33  1  0
 32 34  1  0
 32 35  1  0
  8  2  1  0
 14  9  1  0
 23 18  1  0
 30 25  1  0
  1 36  1  0
  1 37  1  0
  1 38  1  0
  3 39  1  0
  3 40  1  0
  4 41  1  0
  4 42  1  0
  5 43  1  0
  5 44  1  0
  7 45  1  0
  7 46  1  0
  8 47  1  0
  8 48  1  0
 10 49  1  0
 11 50  1  0
 12 51  1  0
 15 52  1  0
 21 53  1  0
 24 54  1  0
 24 55  1  0
 27 56  1  0
 28 57  1  0
 29 58  1  0
M  END
$$$$
[H]c1c([H])c(N([H])C(=O)N2C([H])([H])C([H])([H])OC3(C2([H])[H])C([H])([H])C([H])([H])N(C(=O)C2([H])C([H])([H])C2([H])[H])C([H])([H])C3([H])[H])c([H])c([H])c1OC(F)(F)F
     RDKit          3D

 54 57  0  0  0  0  0  0  0  0999 V2000
    8.6837    1.8504   -1.0421 F   0  0  0  0  0  0  0  0  0  0  0  0
    9.1090    0.7734   -0.2638 C   0  0  0  0  0  0  0  0  0  0  0  0
   10.3974    1.0366    0.1031 F   0  0  0  0  0  0  0  0  0  0  0  0
    9.0204   -0.4165   -0.9558 F   0  0  0  0  0  0  0  0  0  0  0  0
    8.2583    0.6601    0.8879 O   0  0  0  0  0  0  0  0  0  0  0  0
    6.8860    0.4438    0.6526 C   0  0  0  0  0  0  0  0  0  0  0  0
    6.0271    1.5120    0.5178 C   0  0  0  0  0  0  0  0  0  0  0  0
    4.6955    1.3026    0.2899 C   0  0  0  0  0  0  0  0  0  0  0  0
    4.1526    0.0170    0.1848 C   0  0  0  0  0  0  0  0  0  0  0  0
    2.7818   -0.0615   -0.0730 N   0  0  0  0  0  0  0  0  0  0  0  0
    1.9940   -1.2046    0.1644 C   0  0  0  0  0  0  0  0  0  0  0  0
    2.4559   -2.2517    0.6359 O   0  0  0  0  0  0  0  0  0  0  0  0
    0.5912   -1.2035   -0.1373 N   0  0  0  0  0  0  0  0  0  0  0  0
   -0.2196   -2.3562    0.0976 C   0  0  0  0  0  0  0  0  0  0  0  0
   -1.3147   -2.3990   -0.9086 C   0  0  0  0  0  0  0  0  0  0  0  0
   -2.0668   -1.2803   -1.0458 O   0  0  0  0  0  0  0  0  0  0  0  0
   -1.5415   -0.1022   -0.6198 C   0  0  0  0  0  0  0  0  0  0  0  0
   -2.0817    1.0010   -1.5337 C   0  0  0  0  0  0  0  0  0  0  0  0
   -3.5790    0.8106   -1.5887 C   0  0  0  0  0  0  0  0  0  0  0  0
   -4.0665    0.8332   -0.2233 N   0  0  0  0  0  0  0  0  0  0  0  0
   -3.1299    1.2432    0.7878 C   0  0  0  0  0  0  0  0  0  0  0  0
   -1.9756    0.2402    0.7736 C   0  0  0  0  0  0  0  0  0  0  0  0
   -5.3814    0.4756    0.1021 C   0  0  0  0  0  0  0  0  0  0  0  0
   -6.1486    0.1226   -0.8657 O   0  0  0  0  0  0  0  0  0  0  0  0
   -5.9642    0.4699    1.4704 C   0  0  0  0  0  0  0  0  0  0  0  0
   -7.0605   -0.5523    1.6877 C   0  0  0  0  0  0  0  0  0  0  0  0
   -7.3953    0.8784    1.5715 C   0  0  0  0  0  0  0  0  0  0  0  0
   -0.0380   -0.0231   -0.6907 C   0  0  0  0  0  0  0  0  0  0  0  0
    4.9996   -1.0322    0.3171 C   0  0  0  0  0  0  0  0  0  0  0  0
    6.3674   -0.8194    0.5516 C   0  0  0  0  0  0  0  0  0  0  0  0
    6.4488    2.5257    0.5996 H   0  0  0  0  0  0  0  0  0  0  0  0
    4.0627    2.1814    0.1916 H   0  0  0  0  0  0  0  0  0  0  0  0
    2.2824    0.8146   -0.4901 H   0  0  0  0  0  0  0  0  0  0  0  0
   -0.6205   -2.4177    1.1290 H   0  0  0  0  0  0  0  0  0  0  0  0
    0.3877   -3.2967   -0.0375 H   0  0  0  0  0  0  0  0  0  0  0  0
   -0.8627   -2.6888   -1.8959 H   0  0  0  0  0  0  0  0  0  0  0  0
   -1.9740   -3.2749   -0.6435 H   0  0  0  0  0  0  0  0  0  0  0  0
   -1.6946    0.8460   -2.5629 H   0  0  0  0  0  0  0  0  0  0  0  0
   -1.7906    2.0006   -1.1793 H   0  0  0  0  0  0  0  0  0  0  0  0
   -3.7591   -0.2152   -1.9871 H   0  0  0  0  0  0  0  0  0  0  0  0
   -4.0714    1.5673   -2.2306 H   0  0  0  0  0  0  0  0  0  0  0  0
   -3.5027    1.2500    1.8145 H   0  0  0  0  0  0  0  0  0  0  0  0
   -2.7449    2.2782    0.6029 H   0  0  0  0  0  0  0  0  0  0  0  0
   -2.3604   -0.6614    1.2959 H   0  0  0  0  0  0  0  0  0  0  0  0
   -1.1620    0.6947    1.3783 H   0  0  0  0  0  0  0  0  0  0  0  0
   -5.3544    0.7630    2.3426 H   0  0  0  0  0  0  0  0  0  0  0  0
   -7.2980   -1.2316    0.8432 H   0  0  0  0  0  0  0  0  0  0  0  0
   -7.1191   -1.0478    2.6940 H   0  0  0  0  0  0  0  0  0  0  0  0
   -7.7778    1.3603    2.4961 H   0  0  0  0  0  0  0  0  0  0  0  0
   -7.8675    1.2853    0.6557 H   0  0  0  0  0  0  0  0  0  0  0  0
    0.2763    0.8310   -0.0373 H   0  0  0  0  0  0  0  0  0  0  0  0
    0.3380    0.2170   -1.7030 H   0  0  0  0  0  0  0  0  0  0  0  0
    4.6774   -2.0719    0.2358 H   0  0  0  0  0  0  0  0  0  0  0  0
    7.0298   -1.6770    0.6552 H   0  0  0  0  0  0  0  0  0  0  0  0
  1  2  1  0
  2  3  1  0
  2  4  1  0
  2  5  1  0
  5  6  1  0
  6  7  2  0
  7  8  1  0
  8  9  2  0
  9 10  1  0
 10 11  1  0
 11 12  2  0
 11 13  1  0
 13 14  1  0
 14 15  1  0
 15 16  1  0
 16 17  1  0
 17 18  1  0
 18 19  1  0
 19 20  1  0
 20 21  1  0
 21 22  1  0
 20 23  1  0
 23 24  2  0
 23 25  1  0
 25 26  1  0
 26 27  1  0
 17 28  1  0
  9 29  1  0
 29 30  2  0
 30  6  1  0
 28 13  1  0
 22 17  1  0
 27 25  1  0
  7 31  1  0
  8 32  1  0
 10 33  1  0
 14 34  1  0
 14 35  1  0
 15 36  1  0
 15 37  1  0
 18 38  1  0
 18 39  1  0
 19 40  1  0
 19 41  1  0
 21 42  1  0
 21 43  1  0
 22 44  1  0
 22 45  1  0
 25 46  1  0
 26 47  1  0
 26 48  1  0
 27 49  1  0
 27 50  1  0
 28 51  1  0
 28 52  1  0
 29 53  1  0
 30 54  1  0
M  END
$$$$
[H]Oc1c([H])c([H])c(F)c([H])c1-c1nc([H])c(N([H])[C@]([H])(c2c([H])c([H])c([H])c([H])c2[H])C([H])([H])O[H])c([H])c1-c1c([H])c([H])c2c(c(C([H])([H])[H])nn2[H])c1[H]
     RDKit          3D

 57 61  0  0  0  0  0  0  0  0999 V2000
   -2.4146   -2.8376    3.8564 C   0  0  0  0  0  0  0  0  0  0  0  0
   -3.3597   -2.5087    2.7708 C   0  0  0  0  0  0  0  0  0  0  0  0
   -4.6019   -2.9395    2.5113 N   0  0  0  0  0  0  0  0  0  0  0  0
   -5.0982   -2.3765    1.4123 N   0  0  0  0  0  0  0  0  0  0  0  0
   -4.1821   -1.5317    0.8897 C   0  0  0  0  0  0  0  0  0  0  0  0
   -4.1810   -0.7068   -0.2290 C   0  0  0  0  0  0  0  0  0  0  0  0
   -3.0801    0.0640   -0.5280 C   0  0  0  0  0  0  0  0  0  0  0  0
   -1.9880   -0.0024    0.3039 C   0  0  0  0  0  0  0  0  0  0  0  0
   -2.0091   -0.8438    1.4315 C   0  0  0  0  0  0  0  0  0  0  0  0
   -3.0956   -1.6079    1.7301 C   0  0  0  0  0  0  0  0  0  0  0  0
   -0.8039    0.7930    0.0253 C   0  0  0  0  0  0  0  0  0  0  0  0
    0.4110    0.2043   -0.2654 C   0  0  0  0  0  0  0  0  0  0  0  0
    1.5408    0.9951   -0.5243 C   0  0  0  0  0  0  0  0  0  0  0  0
    2.7795    0.4011   -0.8237 N   0  0  0  0  0  0  0  0  0  0  0  0
    3.0269   -0.9891   -1.0723 C   0  0  1  0  0  0  0  0  0  0  0  0
    2.3936   -1.5147   -2.3387 C   0  0  0  0  0  0  0  0  0  0  0  0
    2.7056   -2.8856   -2.4610 O   0  0  0  0  0  0  0  0  0  0  0  0
    4.4996   -1.2308   -1.1835 C   0  0  0  0  0  0  0  0  0  0  0  0
    5.3010   -0.3772   -1.9100 C   0  0  0  0  0  0  0  0  0  0  0  0
    6.6499   -0.6015   -2.0082 C   0  0  0  0  0  0  0  0  0  0  0  0
    7.2349   -1.6829   -1.3847 C   0  0  0  0  0  0  0  0  0  0  0  0
    6.4267   -2.5551   -0.6445 C   0  0  0  0  0  0  0  0  0  0  0  0
    5.0844   -2.3091   -0.5622 C   0  0  0  0  0  0  0  0  0  0  0  0
    1.4070    2.3665   -0.4808 C   0  0  0  0  0  0  0  0  0  0  0  0
    0.2361    2.9246   -0.2007 N   0  0  0  0  0  0  0  0  0  0  0  0
   -0.8623    2.1537    0.0511 C   0  0  0  0  0  0  0  0  0  0  0  0
   -2.0768    2.8607    0.3593 C   0  0  0  0  0  0  0  0  0  0  0  0
   -2.6448    2.7563    1.6024 C   0  0  0  0  0  0  0  0  0  0  0  0
   -3.8205    3.4601    1.8934 C   0  0  0  0  0  0  0  0  0  0  0  0
   -4.3899    3.3651    3.1177 F   0  0  0  0  0  0  0  0  0  0  0  0
   -4.4156    4.2567    0.9493 C   0  0  0  0  0  0  0  0  0  0  0  0
   -3.8378    4.3535   -0.2921 C   0  0  0  0  0  0  0  0  0  0  0  0
   -2.6722    3.6550   -0.5804 C   0  0  0  0  0  0  0  0  0  0  0  0
   -2.1254    3.7824   -1.8503 O   0  0  0  0  0  0  0  0  0  0  0  0
   -2.5169   -3.9359    4.0759 H   0  0  0  0  0  0  0  0  0  0  0  0
   -1.3547   -2.7132    3.5074 H   0  0  0  0  0  0  0  0  0  0  0  0
   -2.5141   -2.2209    4.7496 H   0  0  0  0  0  0  0  0  0  0  0  0
   -6.0459   -2.5249    0.9702 H   0  0  0  0  0  0  0  0  0  0  0  0
   -5.0502   -0.6745   -0.8622 H   0  0  0  0  0  0  0  0  0  0  0  0
   -3.0696    0.7133   -1.4210 H   0  0  0  0  0  0  0  0  0  0  0  0
   -1.1108   -0.8659    2.0709 H   0  0  0  0  0  0  0  0  0  0  0  0
    0.4369   -0.8694   -0.2729 H   0  0  0  0  0  0  0  0  0  0  0  0
    3.6124    1.0638   -0.8650 H   0  0  0  0  0  0  0  0  0  0  0  0
    2.6667   -1.6151   -0.2139 H   0  0  0  0  0  0  0  0  0  0  0  0
    1.3080   -1.4015   -2.3954 H   0  0  0  0  0  0  0  0  0  0  0  0
    2.8411   -1.0223   -3.2442 H   0  0  0  0  0  0  0  0  0  0  0  0
    1.8705   -3.3971   -2.7151 H   0  0  0  0  0  0  0  0  0  0  0  0
    4.8153    0.4774   -2.3979 H   0  0  0  0  0  0  0  0  0  0  0  0
    7.2703    0.0954   -2.5946 H   0  0  0  0  0  0  0  0  0  0  0  0
    8.2832   -1.8541   -1.4637 H   0  0  0  0  0  0  0  0  0  0  0  0
    6.8840   -3.4146   -0.1473 H   0  0  0  0  0  0  0  0  0  0  0  0
    4.4889   -3.0146    0.0256 H   0  0  0  0  0  0  0  0  0  0  0  0
    2.2542    3.0407   -0.6746 H   0  0  0  0  0  0  0  0  0  0  0  0
   -2.1959    2.1398    2.3640 H   0  0  0  0  0  0  0  0  0  0  0  0
   -5.3403    4.7989    1.2035 H   0  0  0  0  0  0  0  0  0  0  0  0
   -4.2671    4.9691   -1.0722 H   0  0  0  0  0  0  0  0  0  0  0  0
   -1.3036    3.3347   -2.1919 H   0  0  0  0  0  0  0  0  0  0  0  0
  1  2  1  0
  2  3  2  0
  3  4  1  0
  4  5  1  0
  5  6  2  0
  6  7  1  0
  7  8  2  0
  8  9  1  0
  9 10  2  0
  8 11  1  0
 11 12  2  0
 12 13  1  0
 13 14  1  0
 14 15  1  0
 15 16  1  0
 16 17  1  0
 15 18  1  0
 18 19  2  0
 19 20  1  0
 20 21  2  0
 21 22  1  0
 22 23  2  0
 13 24  2  0
 24 25  1  0
 25 26  2  0
 26 27  1  0
 27 28  2  0
 28 29  1  0
 29 30  1  0
 29 31  2  0
 31 32  1  0
 32 33  2  0
 33 34  1  0
 10  2  1  0
 26 11  1  0
 33 27  1  0
 10  5  1  0
 23 18  1  0
  1 35  1  0
  1 36  1  0
  1 37  1  0
  4 38  1  0
  6 39  1  0
  7 40  1  0
  9 41  1  0
 12 42  1  0
 14 43  1  0
 15 44  1  1
 16 45  1  0
 16 46  1  0
 17 47  1  0
 19 48  1  0
 20 49  1  0
 21 50  1  0
 22 51  1  0
 23 52  1  0
 24 53  1  0
 28 54  1  0
 31 55  1  0
 32 56  1  0
 34 57  1  0
M  END
$$$$
[H]c1c([H])c([H])c(C([H])([H])[C@@]2([H])C(=O)N([H])[C@@]([H])(C([H])([H])c3c([H])n([H])c4c([H])c([H])c([H])c([H])c34)C(=O)N([H])[C@]([H])(C([H])([H])c3c([H])n([H])c4c([H])c([H])c([H])c([H])c34)C(=O)N([H])[C@@]([H])(C([H])([H])c3c([H])c([H])c([H])c([H])c3[H])C(=O)N([H])[C@@]([H])(C([H])(C([H])([H])[H])C([H])([H])[H])C(=O)N([H])[C@]([H])(C([H])([H])c3c([H])c([H])c([H])c([H])c3[H])C(=O)N3C([H])([H])C([H])([H])C([H])([H])[C@@]3([H])C(=O)N2[H])c([H])c1[H]
     RDKit          3D

138146  0  0  0  0  0  0  0  0999 V2000
    3.3856   -1.7116    4.0731 C   0  0  0  0  0  0  0  0  0  0  0  0
    2.0570   -1.9077    3.3999 C   0  0  0  0  0  0  0  0  0  0  0  0
    1.7498   -3.3633    3.5254 C   0  0  0  0  0  0  0  0  0  0  0  0
    1.9251   -1.2942    2.0650 C   0  0  2  0  0  0  0  0  0  0  0  0
    0.6262   -1.4510    1.4309 N   0  0  0  0  0  0  0  0  0  0  0  0
   -0.2379   -2.4934    1.2173 C   0  0  0  0  0  0  0  0  0  0  0  0
   -1.3385   -2.4681    1.9272 O   0  0  0  0  0  0  0  0  0  0  0  0
   -0.2455   -3.6900    0.3478 C   0  0  2  0  0  0  0  0  0  0  0  0
    0.7098   -3.7069   -0.7762 C   0  0  0  0  0  0  0  0  0  0  0  0
    0.5608   -4.9576   -1.6153 C   0  0  0  0  0  0  0  0  0  0  0  0
    1.2196   -6.1172   -1.2764 C   0  0  0  0  0  0  0  0  0  0  0  0
    1.1038   -7.2499   -2.0510 C   0  0  0  0  0  0  0  0  0  0  0  0
    0.3179   -7.2607   -3.2011 C   0  0  0  0  0  0  0  0  0  0  0  0
   -0.3327   -6.0694   -3.5103 C   0  0  0  0  0  0  0  0  0  0  0  0
   -0.2143   -4.9509   -2.7392 C   0  0  0  0  0  0  0  0  0  0  0  0
   -1.6055   -4.0924    0.0089 N   0  0  0  0  0  0  0  0  0  0  0  0
   -2.7768   -3.3535    0.0144 C   0  0  0  0  0  0  0  0  0  0  0  0
   -3.7488   -3.7663    0.7513 O   0  0  0  0  0  0  0  0  0  0  0  0
   -3.1045   -2.1139   -0.7204 C   0  0  1  0  0  0  0  0  0  0  0  0
   -3.6810   -2.3987   -2.0722 C   0  0  0  0  0  0  0  0  0  0  0  0
   -4.9024   -3.1675   -2.1605 C   0  0  0  0  0  0  0  0  0  0  0  0
   -6.1656   -2.5800   -2.1875 C   0  0  0  0  0  0  0  0  0  0  0  0
   -7.0545   -3.5768   -2.2384 N   0  0  0  0  0  0  0  0  0  0  0  0
   -6.4399   -4.7773   -2.2470 C   0  0  0  0  0  0  0  0  0  0  0  0
   -6.9291   -6.0807   -2.3065 C   0  0  0  0  0  0  0  0  0  0  0  0
   -6.0792   -7.1627   -2.3203 C   0  0  0  0  0  0  0  0  0  0  0  0
   -4.7243   -6.9229   -2.2739 C   0  0  0  0  0  0  0  0  0  0  0  0
   -4.2610   -5.6354   -2.2147 C   0  0  0  0  0  0  0  0  0  0  0  0
   -5.0800   -4.5296   -2.1980 C   0  0  0  0  0  0  0  0  0  0  0  0
   -4.0662   -1.3023    0.0132 N   0  0  0  0  0  0  0  0  0  0  0  0
   -4.0751    0.0872    0.1437 C   0  0  0  0  0  0  0  0  0  0  0  0
   -5.1025    0.7261   -0.1883 O   0  0  0  0  0  0  0  0  0  0  0  0
   -2.9438    0.9478    0.6621 C   0  0  2  0  0  0  0  0  0  0  0  0
   -3.3164    1.1381    2.1149 C   0  0  0  0  0  0  0  0  0  0  0  0
   -2.4335    1.9632    2.9126 C   0  0  0  0  0  0  0  0  0  0  0  0
   -1.3563    1.5165    3.6575 C   0  0  0  0  0  0  0  0  0  0  0  0
   -0.7457    2.5919    4.2261 N   0  0  0  0  0  0  0  0  0  0  0  0
   -1.3988    3.7196    3.8694 C   0  0  0  0  0  0  0  0  0  0  0  0
   -1.1609    5.0302    4.2066 C   0  0  0  0  0  0  0  0  0  0  0  0
   -1.9977    6.0033    3.7189 C   0  0  0  0  0  0  0  0  0  0  0  0
   -3.0520    5.6570    2.9075 C   0  0  0  0  0  0  0  0  0  0  0  0
   -3.2613    4.3479    2.5905 C   0  0  0  0  0  0  0  0  0  0  0  0
   -2.4490    3.3271    3.0532 C   0  0  0  0  0  0  0  0  0  0  0  0
   -2.9636    2.1718   -0.0784 N   0  0  0  0  0  0  0  0  0  0  0  0
   -1.9676    2.7597   -0.8863 C   0  0  0  0  0  0  0  0  0  0  0  0
   -2.1524    2.7419   -2.1689 O   0  0  0  0  0  0  0  0  0  0  0  0
   -0.7094    3.4135   -0.4846 C   0  0  2  0  0  0  0  0  0  0  0  0
   -0.7929    4.9082   -0.5672 C   0  0  0  0  0  0  0  0  0  0  0  0
   -1.1031    5.5041   -1.8541 C   0  0  0  0  0  0  0  0  0  0  0  0
   -2.4248    5.7448   -2.2358 C   0  0  0  0  0  0  0  0  0  0  0  0
   -2.7327    6.3262   -3.4592 C   0  0  0  0  0  0  0  0  0  0  0  0
   -1.7178    6.6784   -4.3243 C   0  0  0  0  0  0  0  0  0  0  0  0
   -0.4171    6.4574   -3.9820 C   0  0  0  0  0  0  0  0  0  0  0  0
   -0.1404    5.8716   -2.7448 C   0  0  0  0  0  0  0  0  0  0  0  0
    0.3940    2.8372   -1.2289 N   0  0  0  0  0  0  0  0  0  0  0  0
    1.7614    3.2477   -0.9890 C   0  0  0  0  0  0  0  0  0  0  0  0
    2.4514    3.3708   -2.0646 O   0  0  0  0  0  0  0  0  0  0  0  0
    2.3644    3.5144    0.2747 C   0  0  2  0  0  0  0  0  0  0  0  0
    3.2300    4.8030    0.1160 C   0  0  0  0  0  0  0  0  0  0  0  0
    4.0865    4.8600    1.3432 C   0  0  0  0  0  0  0  0  0  0  0  0
    3.6461    3.6170    2.0667 C   0  0  0  0  0  0  0  0  0  0  0  0
    3.2906    2.6807    0.9337 N   0  0  0  0  0  0  0  0  0  0  0  0
    3.8069    1.4006    0.7315 C   0  0  0  0  0  0  0  0  0  0  0  0
    4.5706    0.9225    1.6608 O   0  0  0  0  0  0  0  0  0  0  0  0
    3.6271    0.4644   -0.3976 C   0  0  1  0  0  0  0  0  0  0  0  0
    4.7520    0.6167   -1.4174 C   0  0  0  0  0  0  0  0  0  0  0  0
    6.0744    0.3514   -0.8837 C   0  0  0  0  0  0  0  0  0  0  0  0
    6.8620    1.3379   -0.3564 C   0  0  0  0  0  0  0  0  0  0  0  0
    8.1234    1.0476    0.1662 C   0  0  0  0  0  0  0  0  0  0  0  0
    8.5867   -0.2604    0.1507 C   0  0  0  0  0  0  0  0  0  0  0  0
    7.8000   -1.2629   -0.3794 C   0  0  0  0  0  0  0  0  0  0  0  0
    6.5730   -0.9351   -0.8795 C   0  0  0  0  0  0  0  0  0  0  0  0
    3.4053   -0.9071   -0.0358 N   0  0  0  0  0  0  0  0  0  0  0  0
    3.0319   -1.5711    1.1054 C   0  0  0  0  0  0  0  0  0  0  0  0
    3.7330   -2.6054    1.4148 O   0  0  0  0  0  0  0  0  0  0  0  0
    4.1207   -1.3463    3.3421 H   0  0  0  0  0  0  0  0  0  0  0  0
    3.7945   -2.6420    4.5398 H   0  0  0  0  0  0  0  0  0  0  0  0
    3.3102   -0.9002    4.8456 H   0  0  0  0  0  0  0  0  0  0  0  0
    1.2981   -1.3844    4.0586 H   0  0  0  0  0  0  0  0  0  0  0  0
    2.2515   -3.8337    4.4055 H   0  0  0  0  0  0  0  0  0  0  0  0
    1.9439   -3.9383    2.5910 H   0  0  0  0  0  0  0  0  0  0  0  0
    0.6655   -3.4865    3.7261 H   0  0  0  0  0  0  0  0  0  0  0  0
    2.0317   -0.1960    2.3055 H   0  0  0  0  0  0  0  0  0  0  0  0
    0.2795   -0.4812    1.0485 H   0  0  0  0  0  0  0  0  0  0  0  0
    0.1351   -4.5088    1.0713 H   0  0  0  0  0  0  0  0  0  0  0  0
    1.7446   -3.8490   -0.3425 H   0  0  0  0  0  0  0  0  0  0  0  0
    0.7711   -2.8457   -1.4264 H   0  0  0  0  0  0  0  0  0  0  0  0
    1.8526   -6.1530   -0.3763 H   0  0  0  0  0  0  0  0  0  0  0  0
    1.6034   -8.1790   -1.8204 H   0  0  0  0  0  0  0  0  0  0  0  0
    0.2043   -8.1265   -3.8295 H   0  0  0  0  0  0  0  0  0  0  0  0
   -0.9499   -6.0480   -4.3944 H   0  0  0  0  0  0  0  0  0  0  0  0
   -0.7388   -4.0572   -3.0243 H   0  0  0  0  0  0  0  0  0  0  0  0
   -1.6670   -5.1152   -0.2758 H   0  0  0  0  0  0  0  0  0  0  0  0
   -2.2031   -1.4440   -0.7919 H   0  0  0  0  0  0  0  0  0  0  0  0
   -2.8954   -2.8963   -2.7324 H   0  0  0  0  0  0  0  0  0  0  0  0
   -3.7655   -1.3804   -2.5742 H   0  0  0  0  0  0  0  0  0  0  0  0
   -6.4125   -1.5306   -2.1701 H   0  0  0  0  0  0  0  0  0  0  0  0
   -8.1102   -3.5197   -2.2709 H   0  0  0  0  0  0  0  0  0  0  0  0
   -8.0024   -6.2494   -2.3430 H   0  0  0  0  0  0  0  0  0  0  0  0
   -6.4191   -8.1965   -2.3635 H   0  0  0  0  0  0  0  0  0  0  0  0
   -4.0351   -7.7771   -2.2842 H   0  0  0  0  0  0  0  0  0  0  0  0
   -3.2024   -5.4675   -2.1857 H   0  0  0  0  0  0  0  0  0  0  0  0
   -4.8275   -1.8966    0.4761 H   0  0  0  0  0  0  0  0  0  0  0  0
   -1.9839    0.3756    0.5746 H   0  0  0  0  0  0  0  0  0  0  0  0
   -4.3753    1.5458    2.0814 H   0  0  0  0  0  0  0  0  0  0  0  0
   -3.4634    0.1066    2.5240 H   0  0  0  0  0  0  0  0  0  0  0  0
   -1.0721    0.4813    3.7533 H   0  0  0  0  0  0  0  0  0  0  0  0
    0.1022    2.5369    4.8419 H   0  0  0  0  0  0  0  0  0  0  0  0
   -0.3430    5.3205    4.8379 H   0  0  0  0  0  0  0  0  0  0  0  0
   -1.8380    7.0573    3.9646 H   0  0  0  0  0  0  0  0  0  0  0  0
   -3.7275    6.4072    2.5107 H   0  0  0  0  0  0  0  0  0  0  0  0
   -4.1040    4.0924    1.9529 H   0  0  0  0  0  0  0  0  0  0  0  0
   -3.9013    2.6960   -0.0083 H   0  0  0  0  0  0  0  0  0  0  0  0
   -0.4776    3.2022    0.6079 H   0  0  0  0  0  0  0  0  0  0  0  0
    0.1450    5.3455   -0.1149 H   0  0  0  0  0  0  0  0  0  0  0  0
   -1.5783    5.2175    0.1863 H   0  0  0  0  0  0  0  0  0  0  0  0
   -3.2653    5.4947   -1.6080 H   0  0  0  0  0  0  0  0  0  0  0  0
   -3.7653    6.5128   -3.7535 H   0  0  0  0  0  0  0  0  0  0  0  0
   -1.9583    7.1336   -5.2816 H   0  0  0  0  0  0  0  0  0  0  0  0
    0.3894    6.7334   -4.6566 H   0  0  0  0  0  0  0  0  0  0  0  0
    0.9276    5.7490   -2.5590 H   0  0  0  0  0  0  0  0  0  0  0  0
    0.2806    2.1110   -1.9661 H   0  0  0  0  0  0  0  0  0  0  0  0
    1.6206    3.8559    1.0633 H   0  0  0  0  0  0  0  0  0  0  0  0
    3.9216    4.5705   -0.7446 H   0  0  0  0  0  0  0  0  0  0  0  0
    2.6142    5.6738   -0.0848 H   0  0  0  0  0  0  0  0  0  0  0  0
    3.8936    5.7680    1.9415 H   0  0  0  0  0  0  0  0  0  0  0  0
    5.1752    4.8172    1.1386 H   0  0  0  0  0  0  0  0  0  0  0  0
    2.6630    3.8325    2.5335 H   0  0  0  0  0  0  0  0  0  0  0  0
    4.3558    3.2033    2.7534 H   0  0  0  0  0  0  0  0  0  0  0  0
    2.7676    0.8533   -0.9622 H   0  0  0  0  0  0  0  0  0  0  0  0
    4.5123    0.0196   -2.3190 H   0  0  0  0  0  0  0  0  0  0  0  0
    4.7236    1.6792   -1.7267 H   0  0  0  0  0  0  0  0  0  0  0  0
    6.5665    2.3827   -0.3114 H   0  0  0  0  0  0  0  0  0  0  0  0
    8.7658    1.7838    0.5842 H   0  0  0  0  0  0  0  0  0  0  0  0
    9.5689   -0.5431    0.5502 H   0  0  0  0  0  0  0  0  0  0  0  0
    8.1207   -2.3046   -0.4122 H   0  0  0  0  0  0  0  0  0  0  0  0
    5.9570   -1.7203   -1.2917 H   0  0  0  0  0  0  0  0  0  0  0  0
    3.5799   -1.5540   -0.8900 H   0  0  0  0  0  0  0  0  0  0  0  0
  1  2  1  0
  2  3  1  0
  2  4  1  0
  4  5  1  0
  5  6  1  0
  6  7  2  0
  6  8  1  0
  8  9  1  0
  9 10  1  0
 10 11  2  0
 11 12  1  0
 12 13  2  0
 13 14  1  0
 14 15  2  0
  8 16  1  0
 16 17  1  0
 17 18  2  0
 17 19  1  0
 19 20  1  0
 20 21  1  0
 21 22  2  0
 22 23  1  0
 23 24  1  0
 24 25  2  0
 25 26  1  0
 26 27  2  0
 27 28  1  0
 28 29  2  0
 19 30  1  0
 30 31  1  0
 31 32  2  0
 31 33  1  0
 33 34  1  0
 34 35  1  0
 35 36  2  0
 36 37  1  0
 37 38  1  0
 38 39  2  0
 39 40  1  0
 40 41  2  0
 41 42  1  0
 42 43  2  0
 33 44  1  0
 44 45  1  0
 45 46  2  0
 45 47  1  0
 47 48  1  0
 48 49  1  0
 49 50  2  0
 50 51  1  0
 51 52  2  0
 52 53  1  0
 53 54  2  0
 47 55  1  0
 55 56  1  0
 56 57  2  0
 56 58  1  0
 58 59  1  0
 59 60  1  0
 60 61  1  0
 61 62  1  0
 62 63  1  0
 63 64  2  0
 63 65  1  0
 65 66  1  0
 66 67  1  0
 67 68  2  0
 68 69  1  0
 69 70  2  0
 70 71  1  0
 71 72  2  0
 65 73  1  0
 73 74  1  0
 74 75  2  0
 74  4  1  0
 15 10  1  0
 29 21  1  0
 43 35  1  0
 54 49  1  0
 62 58  1  0
 72 67  1  0
 29 24  1  0
 43 38  1  0
  1 76  1  0
  1 77  1  0
  1 78  1  0
  2 79  1  0
  3 80  1  0
  3 81  1  0
  3 82  1  0
  4 83  1  1
  5 84  1  0
  8 85  1  1
  9 86  1  0
  9 87  1  0
 11 88  1  0
 12 89  1  0
 13 90  1  0
 14 91  1  0
 15 92  1  0
 16 93  1  0
 19 94  1  6
 20 95  1  0
 20 96  1  0
 22 97  1  0
 23 98  1  0
 25 99  1  0
 26100  1  0
 27101  1  0
 28102  1  0
 30103  1  0
 33104  1  1
 34105  1  0
 34106  1  0
 36107  1  0
 37108  1  0
 39109  1  0
 40110  1  0
 41111  1  0
 42112  1  0
 44113  1  0
 47114  1  1
 48115  1  0
 48116  1  0
 50117  1  0
 51118  1  0
 52119  1  0
 53120  1  0
 54121  1  0
 55122  1  0
 58123  1  1
 59124  1  0
 59125  1  0
 60126  1  0
 60127  1  0
 61128  1  0
 61129  1  0
 65130  1  6
 66131  1  0
 66132  1  0
 68133  1  0
 69134  1  0
 70135  1  0
 71136  1  0
 72137  1  0
 73138  1  0
M  END
$$$$
[H]c1nc(C([H])([H])[H])oc1-c1c(N([H])[H])nc([H])c(-c2c([H])c(S(=O)(=O)N([H])C([H])([H])C3([H])C([H])([H])C3([H])[H])c([H])c([H])c2C([H])([H])[H])c1[H]
     RDKit          3D

 50 53  0  0  0  0  0  0  0  0999 V2000
    7.7977   -2.0329    0.5135 C   0  0  0  0  0  0  0  0  0  0  0  0
    6.4899   -1.3205    0.3640 C   0  0  0  0  0  0  0  0  0  0  0  0
    6.3976    0.0249    0.3764 N   0  0  0  0  0  0  0  0  0  0  0  0
    5.0884    0.2896    0.2187 C   0  0  0  0  0  0  0  0  0  0  0  0
    4.3893   -0.8928    0.1110 C   0  0  0  0  0  0  0  0  0  0  0  0
    5.2960   -1.8409    0.2066 O   0  0  0  0  0  0  0  0  0  0  0  0
    2.9577   -1.0934   -0.0701 C   0  0  0  0  0  0  0  0  0  0  0  0
    2.1100   -0.0167   -0.1560 C   0  0  0  0  0  0  0  0  0  0  0  0
    0.7463   -0.1733   -0.3283 C   0  0  0  0  0  0  0  0  0  0  0  0
    0.2164   -1.4497   -0.4167 C   0  0  0  0  0  0  0  0  0  0  0  0
    1.0512   -2.4844   -0.3315 N   0  0  0  0  0  0  0  0  0  0  0  0
    2.3957   -2.3465   -0.1622 C   0  0  0  0  0  0  0  0  0  0  0  0
    3.2575   -3.4708   -0.0754 N   0  0  0  0  0  0  0  0  0  0  0  0
   -0.0778    1.0100   -0.4183 C   0  0  0  0  0  0  0  0  0  0  0  0
   -1.1662    1.0988    0.4564 C   0  0  0  0  0  0  0  0  0  0  0  0
   -1.9999    2.2023    0.4586 C   0  0  0  0  0  0  0  0  0  0  0  0
   -1.7107    3.2076   -0.4372 C   0  0  0  0  0  0  0  0  0  0  0  0
   -0.6400    3.1424   -1.3125 C   0  0  0  0  0  0  0  0  0  0  0  0
    0.1905    2.0096   -1.2936 C   0  0  0  0  0  0  0  0  0  0  0  0
    1.3197    1.9244   -2.2381 C   0  0  0  0  0  0  0  0  0  0  0  0
   -3.3675    2.3308    1.5465 S   0  0  0  0  0  0  0  0  0  0  0  0
   -3.1117    1.5632    2.8294 O   0  0  0  0  0  0  0  0  0  0  0  0
   -3.6309    3.7512    1.9484 O   0  0  0  0  0  0  0  0  0  0  0  0
   -4.7614    1.6680    0.8146 N   0  0  0  0  0  0  0  0  0  0  0  0
   -4.5893    0.2651    0.5202 C   0  0  0  0  0  0  0  0  0  0  0  0
   -5.8466   -0.2786   -0.1259 C   0  0  0  0  0  0  0  0  0  0  0  0
   -5.7880   -1.7512   -0.4840 C   0  0  0  0  0  0  0  0  0  0  0  0
   -6.7334   -1.2189    0.5626 C   0  0  0  0  0  0  0  0  0  0  0  0
    8.3415   -1.6554    1.3942 H   0  0  0  0  0  0  0  0  0  0  0  0
    7.6232   -3.1158    0.6208 H   0  0  0  0  0  0  0  0  0  0  0  0
    8.4246   -1.8390   -0.3848 H   0  0  0  0  0  0  0  0  0  0  0  0
    4.6592    1.2892    0.1832 H   0  0  0  0  0  0  0  0  0  0  0  0
    2.5675    0.9636   -0.0745 H   0  0  0  0  0  0  0  0  0  0  0  0
   -0.8456   -1.5249   -0.5499 H   0  0  0  0  0  0  0  0  0  0  0  0
    3.9500   -3.6758   -0.8167 H   0  0  0  0  0  0  0  0  0  0  0  0
    3.2134   -4.1153    0.7355 H   0  0  0  0  0  0  0  0  0  0  0  0
   -1.3811    0.2931    1.1600 H   0  0  0  0  0  0  0  0  0  0  0  0
   -2.3598    4.0833   -0.4457 H   0  0  0  0  0  0  0  0  0  0  0  0
   -0.4056    3.9292   -2.0206 H   0  0  0  0  0  0  0  0  0  0  0  0
    1.0007    2.4374   -3.2056 H   0  0  0  0  0  0  0  0  0  0  0  0
    2.2445    2.4404   -1.8826 H   0  0  0  0  0  0  0  0  0  0  0  0
    1.5652    0.8938   -2.5641 H   0  0  0  0  0  0  0  0  0  0  0  0
   -5.0274    2.1380   -0.0680 H   0  0  0  0  0  0  0  0  0  0  0  0
   -4.3149   -0.2627    1.4449 H   0  0  0  0  0  0  0  0  0  0  0  0
   -3.7539    0.1911   -0.2166 H   0  0  0  0  0  0  0  0  0  0  0  0
   -6.2871    0.4171   -0.8859 H   0  0  0  0  0  0  0  0  0  0  0  0
   -6.1790   -1.9950   -1.4868 H   0  0  0  0  0  0  0  0  0  0  0  0
   -4.9461   -2.3586   -0.1183 H   0  0  0  0  0  0  0  0  0  0  0  0
   -6.5518   -1.5055    1.6303 H   0  0  0  0  0  0  0  0  0  0  0  0
   -7.8177   -1.1455    0.3377 H   0  0  0  0  0  0  0  0  0  0  0  0
  1  2  1  0
  2  3  2  0
  3  4  1  0
  4  5  2  0
  5  6  1  0
  5  7  1  0
  7  8  2  0
  8  9  1  0
  9 10  2  0
 10 11  1  0
 11 12  2  0
 12 13  1  0
  9 14  1  0
 14 15  2  0
 15 16  1  0
 16 17  2  0
 17 18  1  0
 18 19  2  0
 19 20  1  0
 16 21  1  0
 21 22  2  0
 21 23  2  0
 21 24  1  0
 24 25  1  0
 25 26  1  0
 26 27  1  0
 27 28  1  0
  6  2  1  0
 12  7  1  0
 19 14  1  0
 28 26  1  0
  1 29  1  0
  1 30  1  0
  1 31  1  0
  4 32  1  0
  8 33  1  0
 10 34  1  0
 13 35  1  0
 13 36  1  0
 15 37  1  0
 17 38  1  0
 18 39  1  0
 20 40  1  0
 20 41  1  0
 20 42  1  0
 24 43  1  0
 25 44  1  0
 25 45  1  0
 26 46  1  0
 27 47  1  0
 27 48  1  0
 28 49  1  0
 28 50  1  0
M  END
$$$$
[H]O[C@]1([H])[C@]([H])(n2c([H])c([H])c(=O)n([H])c2=O)O[C@]([H])(C([H])([H])OP(=O)(O[H])OP(=O)(O[H])OP(=O)(O[H])O[H])[C@]1([H])O[H]
     RDKit          3D

 44 45  0  0  0  0  0  0  0  0999 V2000
   -0.4833    2.6522    0.3223 O   0  0  0  0  0  0  0  0  0  0  0  0
   -1.2066    1.7895   -0.4319 C   0  0  2  0  0  0  0  0  0  0  0  0
   -2.7039    1.7103    0.0409 C   0  0  2  0  0  0  0  0  0  0  0  0
   -2.6209    1.8550    1.3926 O   0  0  0  0  0  0  0  0  0  0  0  0
   -3.0755    0.3925   -0.4977 C   0  0  1  0  0  0  0  0  0  0  0  0
   -1.9740   -0.3910   -0.0727 O   0  0  0  0  0  0  0  0  0  0  0  0
   -0.8811    0.3526   -0.3565 C   0  0  2  0  0  0  0  0  0  0  0  0
    0.3785    0.0865    0.4009 C   0  0  0  0  0  0  0  0  0  0  0  0
    1.2219    1.0448   -0.2112 O   0  0  0  0  0  0  0  0  0  0  0  0
    2.6019    0.3051   -0.7843 P   0  0  0  0  0  0  0  0  0  0  0  0
    2.1985   -0.1260   -2.4579 O   0  0  0  0  0  0  0  0  0  0  0  0
    3.7071    1.2813   -0.9439 O   0  0  0  0  0  0  0  0  0  0  0  0
    2.9566   -1.0816    0.0590 O   0  0  0  0  0  0  0  0  0  0  0  0
    4.6426   -1.3331    0.0669 P   0  0  0  0  0  0  0  0  0  0  0  0
    5.1443   -1.5474   -1.5322 O   0  0  0  0  0  0  0  0  0  0  0  0
    4.9167   -2.5832    0.8346 O   0  0  0  0  0  0  0  0  0  0  0  0
    5.3950    0.0175    0.7726 O   0  0  0  0  0  0  0  0  0  0  0  0
    7.0554   -0.1694    0.5814 P   0  0  0  0  0  0  0  0  0  0  0  0
    7.6158   -1.3461    1.6493 O   0  0  0  0  0  0  0  0  0  0  0  0
    7.8284    1.3144    0.8747 O   0  0  0  0  0  0  0  0  0  0  0  0
    7.3137   -0.5444   -0.8527 O   0  0  0  0  0  0  0  0  0  0  0  0
   -4.2771   -0.2561   -0.1476 N   0  0  0  0  0  0  0  0  0  0  0  0
   -4.3499   -1.5977   -0.1845 C   0  0  0  0  0  0  0  0  0  0  0  0
   -5.5563   -2.2516    0.0076 C   0  0  0  0  0  0  0  0  0  0  0  0
   -6.7251   -1.5211    0.2573 C   0  0  0  0  0  0  0  0  0  0  0  0
   -7.8249   -2.0874    0.4385 O   0  0  0  0  0  0  0  0  0  0  0  0
   -6.6087   -0.1700    0.2847 N   0  0  0  0  0  0  0  0  0  0  0  0
   -5.4206    0.4304    0.0876 C   0  0  0  0  0  0  0  0  0  0  0  0
   -5.3721    1.6571    0.1096 O   0  0  0  0  0  0  0  0  0  0  0  0
   -0.1346    3.4252   -0.2091 H   0  0  0  0  0  0  0  0  0  0  0  0
   -1.2598    2.1275   -1.5251 H   0  0  0  0  0  0  0  0  0  0  0  0
   -3.1685    2.5661   -0.4802 H   0  0  0  0  0  0  0  0  0  0  0  0
   -2.5262    0.8891    1.7588 H   0  0  0  0  0  0  0  0  0  0  0  0
   -2.9826    0.4717   -1.6485 H   0  0  0  0  0  0  0  0  0  0  0  0
   -0.5899    0.0477   -1.4463 H   0  0  0  0  0  0  0  0  0  0  0  0
    0.7592   -0.8740    0.5076 H   0  0  0  0  0  0  0  0  0  0  0  0
    0.1534    0.4719    1.4701 H   0  0  0  0  0  0  0  0  0  0  0  0
    2.1197   -1.0659   -2.4585 H   0  0  0  0  0  0  0  0  0  0  0  0
    5.1404   -0.6929   -2.0013 H   0  0  0  0  0  0  0  0  0  0  0  0
    7.7186   -2.2086    1.1958 H   0  0  0  0  0  0  0  0  0  0  0  0
    7.4676    1.9939    0.2664 H   0  0  0  0  0  0  0  0  0  0  0  0
   -3.4686   -2.1715   -0.4016 H   0  0  0  0  0  0  0  0  0  0  0  0
   -5.6657   -3.3139   -0.0692 H   0  0  0  0  0  0  0  0  0  0  0  0
   -7.4591    0.4506    0.4339 H   0  0  0  0  0  0  0  0  0  0  0  0
  1  2  1  0
  2  3  1  0
  3  4  1  0
  3  5  1  0
  5  6  1  0
  6  7  1  0
  7  8  1  0
  8  9  1  0
  9 10  1  0
 10 11  1  0
 10 12  2  0
 10 13  1  0
 13 14  1  0
 14 15  1  0
 14 16  2  0
 14 17  1  0
 17 18  1  0
 18 19  1  0
 18 20  1  0
 18 21  2  0
  5 22  1  0
 22 23  1  0
 23 24  2  0
 24 25  1  0
 25 26  2  0
 25 27  1  0
 27 28  1  0
 28 29  2  0
  7  2  1  0
 28 22  1  0
  1 30  1  0
  2 31  1  6
  3 32  1  6
  4 33  1  0
  5 34  1  6
  7 35  1  6
  8 36  1  0
  8 37  1  0
 11 38  1  0
 15 39  1  0
 19 40  1  0
 20 41  1  0
 23 42  1  0
 24 43  1  0
 27 44  1  0
M  END
$$$$
[H]/C(=C(/[H])C([H])([H])N1C([H])([H])C([H])([H])N(C([H])([H])[C@]2([H])ON=C3c4c([H])c(OC([H])([H])[H])c(OC([H])([H])[H])c([H])c4OC([H])([H])[C@]32[H])C([H])([H])C1([H])[H])c1c([H])c([H])c([H])c([H])c1OC([H])([H])[H]
     RDKit          3D

 68 72  0  0  0  0  0  0  0  0999 V2000
    9.5913    1.5975    2.7823 C   0  0  0  0  0  0  0  0  0  0  0  0
    9.2175    1.1227    1.5233 O   0  0  0  0  0  0  0  0  0  0  0  0
    7.9527    0.7772    1.1147 C   0  0  0  0  0  0  0  0  0  0  0  0
    6.8639    0.8755    1.9651 C   0  0  0  0  0  0  0  0  0  0  0  0
    5.5948    0.5279    1.5536 C   0  0  0  0  0  0  0  0  0  0  0  0
    4.4710    0.5938    2.3218 O   0  0  0  0  0  0  0  0  0  0  0  0
    3.2109    0.0432    2.0857 C   0  0  0  0  0  0  0  0  0  0  0  0
    3.0705   -0.6620    0.7799 C   0  0  1  0  0  0  0  0  0  0  0  0
    1.8229   -0.3061    0.0005 C   0  0  2  0  0  0  0  0  0  0  0  0
    0.5903   -0.9807    0.4931 C   0  0  0  0  0  0  0  0  0  0  0  0
   -0.4863   -0.7780   -0.4103 N   0  0  0  0  0  0  0  0  0  0  0  0
   -1.0058    0.5204   -0.5597 C   0  0  0  0  0  0  0  0  0  0  0  0
   -2.4984    0.4489   -0.8258 C   0  0  0  0  0  0  0  0  0  0  0  0
   -2.8712   -0.5977   -1.7131 N   0  0  0  0  0  0  0  0  0  0  0  0
   -3.8010   -1.5555   -1.2100 C   0  0  0  0  0  0  0  0  0  0  0  0
   -5.1264   -0.8385   -1.0568 C   0  0  0  0  0  0  0  0  0  0  0  0
   -5.6841   -0.7622    0.1140 C   0  0  0  0  0  0  0  0  0  0  0  0
   -6.9320   -0.1284    0.4558 C   0  0  0  0  0  0  0  0  0  0  0  0
   -7.3150   -0.1664    1.8004 C   0  0  0  0  0  0  0  0  0  0  0  0
   -8.4817    0.3944    2.2598 C   0  0  0  0  0  0  0  0  0  0  0  0
   -9.3167    1.0224    1.3703 C   0  0  0  0  0  0  0  0  0  0  0  0
   -8.9950    1.0914    0.0414 C   0  0  0  0  0  0  0  0  0  0  0  0
   -7.7994    0.5080   -0.3823 C   0  0  0  0  0  0  0  0  0  0  0  0
   -7.4867    0.5845   -1.7261 O   0  0  0  0  0  0  0  0  0  0  0  0
   -8.3576    1.2317   -2.6169 C   0  0  0  0  0  0  0  0  0  0  0  0
   -1.7395   -1.1190   -2.4090 C   0  0  0  0  0  0  0  0  0  0  0  0
   -0.6426   -1.6463   -1.4982 C   0  0  0  0  0  0  0  0  0  0  0  0
    2.2555   -0.7836   -1.2857 O   0  0  0  0  0  0  0  0  0  0  0  0
    3.5912   -0.3893   -1.3758 N   0  0  0  0  0  0  0  0  0  0  0  0
    4.1063   -0.3042   -0.2045 C   0  0  0  0  0  0  0  0  0  0  0  0
    5.4556    0.0706    0.2369 C   0  0  0  0  0  0  0  0  0  0  0  0
    6.5438   -0.0229   -0.5991 C   0  0  0  0  0  0  0  0  0  0  0  0
    7.8110    0.3254   -0.1849 C   0  0  0  0  0  0  0  0  0  0  0  0
    8.9089    0.2258   -1.0456 O   0  0  0  0  0  0  0  0  0  0  0  0
    8.6670   -0.2471   -2.3644 C   0  0  0  0  0  0  0  0  0  0  0  0
   10.6627    1.2788    2.9454 H   0  0  0  0  0  0  0  0  0  0  0  0
    8.9327    1.1402    3.5508 H   0  0  0  0  0  0  0  0  0  0  0  0
    9.5214    2.6944    2.7803 H   0  0  0  0  0  0  0  0  0  0  0  0
    6.9746    1.2305    2.9875 H   0  0  0  0  0  0  0  0  0  0  0  0
    3.0495   -0.7255    2.8991 H   0  0  0  0  0  0  0  0  0  0  0  0
    2.3824    0.7702    2.2072 H   0  0  0  0  0  0  0  0  0  0  0  0
    3.1288   -1.7784    0.9050 H   0  0  0  0  0  0  0  0  0  0  0  0
    1.7552    0.7915   -0.0223 H   0  0  0  0  0  0  0  0  0  0  0  0
    0.7478   -2.0702    0.6151 H   0  0  0  0  0  0  0  0  0  0  0  0
    0.2842   -0.5075    1.4711 H   0  0  0  0  0  0  0  0  0  0  0  0
   -0.8815    1.1016    0.3922 H   0  0  0  0  0  0  0  0  0  0  0  0
   -0.5102    1.1048   -1.3876 H   0  0  0  0  0  0  0  0  0  0  0  0
   -3.0673    0.3416    0.1294 H   0  0  0  0  0  0  0  0  0  0  0  0
   -2.8541    1.4201   -1.2788 H   0  0  0  0  0  0  0  0  0  0  0  0
   -3.4962   -1.8926   -0.2123 H   0  0  0  0  0  0  0  0  0  0  0  0
   -3.9397   -2.4246   -1.8742 H   0  0  0  0  0  0  0  0  0  0  0  0
   -5.5905   -0.4030   -1.9042 H   0  0  0  0  0  0  0  0  0  0  0  0
   -5.1051   -1.2575    0.9395 H   0  0  0  0  0  0  0  0  0  0  0  0
   -6.6716   -0.6566    2.5205 H   0  0  0  0  0  0  0  0  0  0  0  0
   -8.7167    0.3265    3.3244 H   0  0  0  0  0  0  0  0  0  0  0  0
  -10.2398    1.4656    1.7350 H   0  0  0  0  0  0  0  0  0  0  0  0
   -9.6336    1.5806   -0.6842 H   0  0  0  0  0  0  0  0  0  0  0  0
   -8.5963    2.2711   -2.3338 H   0  0  0  0  0  0  0  0  0  0  0  0
   -7.9783    1.1552   -3.6617 H   0  0  0  0  0  0  0  0  0  0  0  0
   -9.2996    0.6110   -2.6283 H   0  0  0  0  0  0  0  0  0  0  0  0
   -1.3126   -0.2822   -3.0361 H   0  0  0  0  0  0  0  0  0  0  0  0
   -2.0510   -1.8893   -3.1497 H   0  0  0  0  0  0  0  0  0  0  0  0
   -1.0013   -2.6387   -1.1393 H   0  0  0  0  0  0  0  0  0  0  0  0
    0.2474   -1.8428   -2.1314 H   0  0  0  0  0  0  0  0  0  0  0  0
    6.3766   -0.3830   -1.6055 H   0  0  0  0  0  0  0  0  0  0  0  0
    8.2365   -1.2857   -2.3092 H   0  0  0  0  0  0  0  0  0  0  0  0
    7.8843    0.3979   -2.8416 H   0  0  0  0  0  0  0  0  0  0  0  0
    9.5757   -0.3174   -2.9597 H   0  0  0  0  0  0  0  0  0  0  0  0
  1  2  1  0
  2  3  1  0
  3  4  2  0
  4  5  1  0
  5  6  1  0
  6  7  1  0
  7  8  1  0
  8  9  1  0
  9 10  1  0
 10 11  1  0
 11 12  1  0
 12 13  1  0
 13 14  1  0
 14 15  1  0
 15 16  1  0
 16 17  2  0
 17 18  1  0
 18 19  2  0
 19 20  1  0
 20 21  2  0
 21 22  1  0
 22 23  2  0
 23 24  1  0
 24 25  1  0
 14 26  1  0
 26 27  1  0
  9 28  1  0
 28 29  1  0
 29 30  2  0
 30 31  1  0
 31 32  1  0
 32 33  2  0
 33 34  1  0
 34 35  1  0
 33  3  1  0
 31  5  2  0
 30  8  1  0
 27 11  1  0
 23 18  1  0
  1 36  1  0
  1 37  1  0
  1 38  1  0
  4 39  1  0
  7 40  1  0
  7 41  1  0
  8 42  1  1
  9 43  1  6
 10 44  1  0
 10 45  1  0
 12 46  1  0
 12 47  1  0
 13 48  1  0
 13 49  1  0
 15 50  1  0
 15 51  1  0
 16 52  1  0
 17 53  1  0
 19 54  1  0
 20 55  1  0
 21 56  1  0
 22 57  1  0
 25 58  1  0
 25 59  1  0
 25 60  1  0
 26 61  1  0
 26 62  1  0
 27 63  1  0
 27 64  1  0
 32 65  1  0
 35 66  1  0
 35 67  1  0
 35 68  1  0
M  END
$$$$
[H]OC(=O)[C@@]([H])(N([H])C(=O)[C@@]([H])(N([H])C(=O)c1c([H])c(OC([H])([H])[H])c(OC([H])([H])[H])c(OC([H])([H])[H])c1[H])C([H])([H])c1c([H])c([H])c([H])c([H])c1[H])C([H])([H])c1c([H])c([H])c([H])c([H])c1[H]
     RDKit          3D

 67 69  0  0  0  0  0  0  0  0999 V2000
    5.6001    4.1886   -1.5825 C   0  0  0  0  0  0  0  0  0  0  0  0
    6.0506    3.2777   -0.5963 O   0  0  0  0  0  0  0  0  0  0  0  0
    5.2234    2.2028   -0.3014 C   0  0  0  0  0  0  0  0  0  0  0  0
    4.0193    1.9967   -0.9128 C   0  0  0  0  0  0  0  0  0  0  0  0
    3.2074    0.9079   -0.5977 C   0  0  0  0  0  0  0  0  0  0  0  0
    3.6290    0.0223    0.3499 C   0  0  0  0  0  0  0  0  0  0  0  0
    4.8428    0.2001    0.9894 C   0  0  0  0  0  0  0  0  0  0  0  0
    5.2396   -0.7192    1.9472 O   0  0  0  0  0  0  0  0  0  0  0  0
    4.4176   -1.8163    2.2628 C   0  0  0  0  0  0  0  0  0  0  0  0
    5.6203    1.2860    0.6545 C   0  0  0  0  0  0  0  0  0  0  0  0
    6.8402    1.4359    1.3192 O   0  0  0  0  0  0  0  0  0  0  0  0
    6.9451    2.1665    2.5261 C   0  0  0  0  0  0  0  0  0  0  0  0
    1.9391    0.7194   -1.2716 C   0  0  0  0  0  0  0  0  0  0  0  0
    1.6513    1.4821   -2.2273 O   0  0  0  0  0  0  0  0  0  0  0  0
    1.0323   -0.2755   -0.8963 N   0  0  0  0  0  0  0  0  0  0  0  0
   -0.2428   -0.4666   -1.5760 C   0  0  1  0  0  0  0  0  0  0  0  0
   -0.2767   -1.7646   -2.3277 C   0  0  0  0  0  0  0  0  0  0  0  0
   -0.0683   -2.9496   -1.4832 C   0  0  0  0  0  0  0  0  0  0  0  0
    1.2182   -3.4396   -1.2495 C   0  0  0  0  0  0  0  0  0  0  0  0
    1.4458   -4.5419   -0.4688 C   0  0  0  0  0  0  0  0  0  0  0  0
    0.4026   -5.2208    0.1254 C   0  0  0  0  0  0  0  0  0  0  0  0
   -0.8715   -4.7525   -0.0937 C   0  0  0  0  0  0  0  0  0  0  0  0
   -1.0998   -3.6334   -0.8866 C   0  0  0  0  0  0  0  0  0  0  0  0
   -1.4024   -0.2282   -0.6940 C   0  0  0  0  0  0  0  0  0  0  0  0
   -1.2076    0.0560    0.5248 O   0  0  0  0  0  0  0  0  0  0  0  0
   -2.7164   -0.3054   -1.1720 N   0  0  0  0  0  0  0  0  0  0  0  0
   -3.8532   -0.0503   -0.2443 C   0  0  1  0  0  0  0  0  0  0  0  0
   -4.4497    1.2974   -0.6186 C   0  0  0  0  0  0  0  0  0  0  0  0
   -5.5754    1.6825    0.2139 C   0  0  0  0  0  0  0  0  0  0  0  0
   -6.8791    1.4400   -0.1696 C   0  0  0  0  0  0  0  0  0  0  0  0
   -7.9156    1.8210    0.6497 C   0  0  0  0  0  0  0  0  0  0  0  0
   -7.6318    2.4468    1.8560 C   0  0  0  0  0  0  0  0  0  0  0  0
   -6.3294    2.6896    2.2400 C   0  0  0  0  0  0  0  0  0  0  0  0
   -5.2846    2.3131    1.4290 C   0  0  0  0  0  0  0  0  0  0  0  0
   -4.7954   -1.1704   -0.3509 C   0  0  0  0  0  0  0  0  0  0  0  0
   -5.8709   -1.2608    0.5056 O   0  0  0  0  0  0  0  0  0  0  0  0
   -4.6827   -2.0910   -1.1995 O   0  0  0  0  0  0  0  0  0  0  0  0
    5.2555    3.6769   -2.5016 H   0  0  0  0  0  0  0  0  0  0  0  0
    6.3709    4.9505   -1.8224 H   0  0  0  0  0  0  0  0  0  0  0  0
    4.7070    4.6955   -1.1470 H   0  0  0  0  0  0  0  0  0  0  0  0
    3.6544    2.6956   -1.6808 H   0  0  0  0  0  0  0  0  0  0  0  0
    3.0374   -0.8573    0.6421 H   0  0  0  0  0  0  0  0  0  0  0  0
    4.9511   -2.4924    2.9733 H   0  0  0  0  0  0  0  0  0  0  0  0
    3.4506   -1.4917    2.7087 H   0  0  0  0  0  0  0  0  0  0  0  0
    4.1561   -2.4145    1.3508 H   0  0  0  0  0  0  0  0  0  0  0  0
    7.7507    2.9260    2.3740 H   0  0  0  0  0  0  0  0  0  0  0  0
    5.9889    2.6116    2.8404 H   0  0  0  0  0  0  0  0  0  0  0  0
    7.3118    1.5039    3.3632 H   0  0  0  0  0  0  0  0  0  0  0  0
    1.2476   -0.9137   -0.1066 H   0  0  0  0  0  0  0  0  0  0  0  0
   -0.2915    0.3320   -2.3748 H   0  0  0  0  0  0  0  0  0  0  0  0
   -1.2528   -1.8076   -2.8616 H   0  0  0  0  0  0  0  0  0  0  0  0
    0.4950   -1.7028   -3.1259 H   0  0  0  0  0  0  0  0  0  0  0  0
    2.0574   -2.9338   -1.6976 H   0  0  0  0  0  0  0  0  0  0  0  0
    2.4481   -4.9406   -0.2743 H   0  0  0  0  0  0  0  0  0  0  0  0
    0.6057   -6.0954    0.7431 H   0  0  0  0  0  0  0  0  0  0  0  0
   -1.6764   -5.2945    0.3780 H   0  0  0  0  0  0  0  0  0  0  0  0
   -2.1166   -3.3427   -1.0025 H   0  0  0  0  0  0  0  0  0  0  0  0
   -2.9571   -0.5326   -2.1490 H   0  0  0  0  0  0  0  0  0  0  0  0
   -3.4256    0.0662    0.7620 H   0  0  0  0  0  0  0  0  0  0  0  0
   -4.7614    1.2039   -1.7023 H   0  0  0  0  0  0  0  0  0  0  0  0
   -3.6223    2.0601   -0.6263 H   0  0  0  0  0  0  0  0  0  0  0  0
   -7.1062    0.9438   -1.1256 H   0  0  0  0  0  0  0  0  0  0  0  0
   -8.9268    1.6439    0.3746 H   0  0  0  0  0  0  0  0  0  0  0  0
   -8.4796    2.7312    2.4729 H   0  0  0  0  0  0  0  0  0  0  0  0
   -6.1210    3.1716    3.1699 H   0  0  0  0  0  0  0  0  0  0  0  0
   -4.2552    2.4964    1.7158 H   0  0  0  0  0  0  0  0  0  0  0  0
   -6.6673   -1.8362    0.3495 H   0  0  0  0  0  0  0  0  0  0  0  0
  1  2  1  0
  2  3  1  0
  3  4  2  0
  4  5  1  0
  5  6  2  0
  6  7  1  0
  7  8  1  0
  8  9  1  0
  7 10  2  0
 10 11  1  0
 11 12  1  0
  5 13  1  0
 13 14  2  0
 13 15  1  0
 15 16  1  0
 16 17  1  0
 17 18  1  0
 18 19  2  0
 19 20  1  0
 20 21  2  0
 21 22  1  0
 22 23  2  0
 16 24  1  0
 24 25  2  0
 24 26  1  0
 26 27  1  0
 27 28  1  0
 28 29  1  0
 29 30  2  0
 30 31  1  0
 31 32  2  0
 32 33  1  0
 33 34  2  0
 27 35  1  0
 35 36  1  0
 35 37  2  0
 10  3  1  0
 23 18  1  0
 34 29  1  0
  1 38  1  0
  1 39  1  0
  1 40  1  0
  4 41  1  0
  6 42  1  0
  9 43  1  0
  9 44  1  0
  9 45  1  0
 12 46  1  0
 12 47  1  0
 12 48  1  0
 15 49  1  0
 16 50  1  6
 17 51  1  0
 17 52  1  0
 19 53  1  0
 20 54  1  0
 21 55  1  0
 22 56  1  0
 23 57  1  0
 26 58  1  0
 27 59  1  1
 28 60  1  0
 28 61  1  0
 30 62  1  0
 31 63  1  0
 32 64  1  0
 33 65  1  0
 34 66  1  0
 36 67  1  0
M  END
$$$$
[H]/C(=C1/SC(=S)N([H])C1=O)c1c(C([H])([H])[H])c(C(=O)OC([H])([H])C([H])([H])[H])c(C([H])([H])[H])n1[H]
     RDKit          3D

 34 35  0  0  0  0  0  0  0  0999 V2000
    4.4591   -0.2640    2.5168 C   0  0  0  0  0  0  0  0  0  0  0  0
    4.0914    0.2458    1.1401 C   0  0  0  0  0  0  0  0  0  0  0  0
    2.7965   -0.1618    0.7624 O   0  0  0  0  0  0  0  0  0  0  0  0
    2.3000    0.2159   -0.4646 C   0  0  0  0  0  0  0  0  0  0  0  0
    2.9804    0.9209   -1.2612 O   0  0  0  0  0  0  0  0  0  0  0  0
    0.9640   -0.1762   -0.9097 C   0  0  0  0  0  0  0  0  0  0  0  0
    0.5920   -1.3057   -1.6152 C   0  0  0  0  0  0  0  0  0  0  0  0
    1.5712   -2.3420   -2.0443 C   0  0  0  0  0  0  0  0  0  0  0  0
   -0.7235   -1.2808   -1.8166 N   0  0  0  0  0  0  0  0  0  0  0  0
   -1.2792   -0.1591   -1.2664 C   0  0  0  0  0  0  0  0  0  0  0  0
   -2.6803    0.1890   -1.3452 C   0  0  0  0  0  0  0  0  0  0  0  0
   -3.4025    0.4581   -0.2964 C   0  0  0  0  0  0  0  0  0  0  0  0
   -2.8842    0.4636    1.4343 S   0  0  0  0  0  0  0  0  0  0  0  0
   -4.5557    0.2673    2.0914 C   0  0  0  0  0  0  0  0  0  0  0  0
   -4.9635   -0.3073    3.5692 S   0  0  0  0  0  0  0  0  0  0  0  0
   -5.3870    0.7167    1.0497 N   0  0  0  0  0  0  0  0  0  0  0  0
   -4.8107    0.8270   -0.2126 C   0  0  0  0  0  0  0  0  0  0  0  0
   -5.4148    1.2199   -1.2804 O   0  0  0  0  0  0  0  0  0  0  0  0
   -0.2433    0.5197   -0.7107 C   0  0  0  0  0  0  0  0  0  0  0  0
   -0.2381    1.8235   -0.0071 C   0  0  0  0  0  0  0  0  0  0  0  0
    3.6144   -0.0298    3.2113 H   0  0  0  0  0  0  0  0  0  0  0  0
    5.3503    0.3093    2.8448 H   0  0  0  0  0  0  0  0  0  0  0  0
    4.7120   -1.3330    2.4872 H   0  0  0  0  0  0  0  0  0  0  0  0
    4.1215    1.3640    1.1656 H   0  0  0  0  0  0  0  0  0  0  0  0
    4.8315   -0.1733    0.4285 H   0  0  0  0  0  0  0  0  0  0  0  0
    1.1274   -3.3429   -2.1278 H   0  0  0  0  0  0  0  0  0  0  0  0
    2.4111   -2.4028   -1.3316 H   0  0  0  0  0  0  0  0  0  0  0  0
    2.0090   -2.0645   -3.0305 H   0  0  0  0  0  0  0  0  0  0  0  0
   -1.2640   -2.0107   -2.3229 H   0  0  0  0  0  0  0  0  0  0  0  0
   -3.2005    0.2381   -2.3256 H   0  0  0  0  0  0  0  0  0  0  0  0
   -6.4083    0.9568    1.2335 H   0  0  0  0  0  0  0  0  0  0  0  0
    0.6428    2.4345   -0.3974 H   0  0  0  0  0  0  0  0  0  0  0  0
   -0.0124    1.7212    1.0716 H   0  0  0  0  0  0  0  0  0  0  0  0
   -1.1068    2.4625   -0.2404 H   0  0  0  0  0  0  0  0  0  0  0  0
  1  2  1  0
  2  3  1  0
  3  4  1  0
  4  5  2  0
  4  6  1  0
  6  7  2  0
  7  8  1  0
  7  9  1  0
  9 10  1  0
 10 11  1  0
 11 12  2  0
 12 13  1  0
 13 14  1  0
 14 15  2  0
 14 16  1  0
 16 17  1  0
 17 18  2  0
 10 19  2  0
 19 20  1  0
 19  6  1  0
 17 12  1  0
  1 21  1  0
  1 22  1  0
  1 23  1  0
  2 24  1  0
  2 25  1  0
  8 26  1  0
  8 27  1  0
  8 28  1  0
  9 29  1  0
 11 30  1  0
 16 31  1  0
 20 32  1  0
 20 33  1  0
 20 34  1  0
M  END
$$$$
[H]OP(=O)(O[H])C(F)(F)c1c([H])c([H])c(-c2c([H])c([H])c(-c3c(C([H])([H])c4c([H])c([H])c([H])c([H])c4[H])oc4c([H])c([H])c([H])c([H])c34)c([H])c2[H])c([H])c1[H]
     RDKit          3D

 56 60  0  0  0  0  0  0  0  0999 V2000
    7.8560    2.8332   -0.4942 O   0  0  0  0  0  0  0  0  0  0  0  0
    8.1467    1.2281   -0.9546 P   0  0  0  0  0  0  0  0  0  0  0  0
    9.8378    1.0676   -1.0559 O   0  0  0  0  0  0  0  0  0  0  0  0
    7.5727    1.0209   -2.3335 O   0  0  0  0  0  0  0  0  0  0  0  0
    7.4904    0.0339    0.2130 C   0  0  0  0  0  0  0  0  0  0  0  0
    8.0255   -1.2039   -0.0700 F   0  0  0  0  0  0  0  0  0  0  0  0
    7.9208    0.3970    1.4909 F   0  0  0  0  0  0  0  0  0  0  0  0
    6.0024   -0.0505    0.1650 C   0  0  0  0  0  0  0  0  0  0  0  0
    5.2158    1.0488    0.4247 C   0  0  0  0  0  0  0  0  0  0  0  0
    3.8434    0.9487    0.3760 C   0  0  0  0  0  0  0  0  0  0  0  0
    3.2311   -0.2595    0.0649 C   0  0  0  0  0  0  0  0  0  0  0  0
    4.0204   -1.3505   -0.1916 C   0  0  0  0  0  0  0  0  0  0  0  0
    5.4146   -1.2812   -0.1504 C   0  0  0  0  0  0  0  0  0  0  0  0
    1.7931   -0.4075    0.0155 C   0  0  0  0  0  0  0  0  0  0  0  0
    0.9738    0.3424    0.8685 C   0  0  0  0  0  0  0  0  0  0  0  0
   -0.4015    0.1764    0.8145 C   0  0  0  0  0  0  0  0  0  0  0  0
   -1.0149   -0.7025   -0.0483 C   0  0  0  0  0  0  0  0  0  0  0  0
   -0.2039   -1.4374   -0.8869 C   0  0  0  0  0  0  0  0  0  0  0  0
    1.1779   -1.2965   -0.8595 C   0  0  0  0  0  0  0  0  0  0  0  0
   -2.4485   -0.9118   -0.0379 C   0  0  0  0  0  0  0  0  0  0  0  0
   -3.4661   -0.0483   -0.3413 C   0  0  0  0  0  0  0  0  0  0  0  0
   -3.3504    1.3681   -0.7653 C   0  0  0  0  0  0  0  0  0  0  0  0
   -4.6548    2.0848   -0.6802 C   0  0  0  0  0  0  0  0  0  0  0  0
   -5.5355    2.1174   -1.7428 C   0  0  0  0  0  0  0  0  0  0  0  0
   -6.7469    2.7646   -1.7057 C   0  0  0  0  0  0  0  0  0  0  0  0
   -7.1363    3.4270   -0.5627 C   0  0  0  0  0  0  0  0  0  0  0  0
   -6.2819    3.4150    0.5163 C   0  0  0  0  0  0  0  0  0  0  0  0
   -5.0661    2.7608    0.4667 C   0  0  0  0  0  0  0  0  0  0  0  0
   -4.6080   -0.7125   -0.1875 O   0  0  0  0  0  0  0  0  0  0  0  0
   -4.3630   -1.9550    0.1981 C   0  0  0  0  0  0  0  0  0  0  0  0
   -5.1702   -3.0416    0.4906 C   0  0  0  0  0  0  0  0  0  0  0  0
   -4.6096   -4.2426    0.8743 C   0  0  0  0  0  0  0  0  0  0  0  0
   -3.2389   -4.4298    0.9870 C   0  0  0  0  0  0  0  0  0  0  0  0
   -2.4357   -3.3586    0.6993 C   0  0  0  0  0  0  0  0  0  0  0  0
   -3.0031   -2.1567    0.3160 C   0  0  0  0  0  0  0  0  0  0  0  0
    7.9144    2.9683    0.4849 H   0  0  0  0  0  0  0  0  0  0  0  0
   10.1249    0.1463   -0.8377 H   0  0  0  0  0  0  0  0  0  0  0  0
    5.6748    1.9884    0.6641 H   0  0  0  0  0  0  0  0  0  0  0  0
    3.1637    1.7745    0.5721 H   0  0  0  0  0  0  0  0  0  0  0  0
    3.5675   -2.3233   -0.4444 H   0  0  0  0  0  0  0  0  0  0  0  0
    6.0504   -2.1102   -0.3456 H   0  0  0  0  0  0  0  0  0  0  0  0
    1.4816    1.0261    1.5337 H   0  0  0  0  0  0  0  0  0  0  0  0
   -0.9804    0.8043    1.5158 H   0  0  0  0  0  0  0  0  0  0  0  0
   -0.6032   -2.1654   -1.6113 H   0  0  0  0  0  0  0  0  0  0  0  0
    1.7762   -1.9074   -1.5421 H   0  0  0  0  0  0  0  0  0  0  0  0
   -2.6449    1.9329   -0.0924 H   0  0  0  0  0  0  0  0  0  0  0  0
   -2.9507    1.4876   -1.7939 H   0  0  0  0  0  0  0  0  0  0  0  0
   -5.2337    1.5898   -2.6618 H   0  0  0  0  0  0  0  0  0  0  0  0
   -7.4106    2.7692   -2.5533 H   0  0  0  0  0  0  0  0  0  0  0  0
   -8.0872    3.9324   -0.5410 H   0  0  0  0  0  0  0  0  0  0  0  0
   -6.5782    3.9403    1.4233 H   0  0  0  0  0  0  0  0  0  0  0  0
   -4.3688    2.7427    1.3124 H   0  0  0  0  0  0  0  0  0  0  0  0
   -6.2508   -2.9011    0.4028 H   0  0  0  0  0  0  0  0  0  0  0  0
   -5.2740   -5.0902    1.0992 H   0  0  0  0  0  0  0  0  0  0  0  0
   -2.8021   -5.3761    1.2874 H   0  0  0  0  0  0  0  0  0  0  0  0
   -1.3562   -3.4171    0.7616 H   0  0  0  0  0  0  0  0  0  0  0  0
  1  2  1  0
  2  3  1  0
  2  4  2  0
  2  5  1  0
  5  6  1  0
  5  7  1  0
  5  8  1  0
  8  9  2  0
  9 10  1  0
 10 11  2  0
 11 12  1  0
 12 13  2  0
 11 14  1  0
 14 15  2  0
 15 16  1  0
 16 17  2  0
 17 18  1  0
 18 19  2  0
 17 20  1  0
 20 21  2  0
 21 22  1  0
 22 23  1  0
 23 24  2  0
 24 25  1  0
 25 26  2  0
 26 27  1  0
 27 28  2  0
 21 29  1  0
 29 30  1  0
 30 31  2  0
 31 32  1  0
 32 33  2  0
 33 34  1  0
 34 35  2  0
 13  8  1  0
 19 14  1  0
 35 20  1  0
 28 23  1  0
 35 30  1  0
  1 36  1  0
  3 37  1  0
  9 38  1  0
 10 39  1  0
 12 40  1  0
 13 41  1  0
 15 42  1  0
 16 43  1  0
 18 44  1  0
 19 45  1  0
 22 46  1  0
 22 47  1  0
 24 48  1  0
 25 49  1  0
 26 50  1  0
 27 51  1  0
 28 52  1  0
 31 53  1  0
 32 54  1  0
 33 55  1  0
 34 56  1  0
M  END
$$$$
[H]c1c([H])c(C([H])([H])N([H])C(=O)c2nc(-c3c([H])c([H])c(OC([H])([H])[H])c4nc(C(F)(F)F)c([H])c([H])c34)oc2C([H])([H])N([H])[H])c([H])c(F)c1F
     RDKit          3D

 52 55  0  0  0  0  0  0  0  0999 V2000
   -6.9826    2.7161   -0.9592 C   0  0  0  0  0  0  0  0  0  0  0  0
   -6.4312    1.4666   -0.7030 O   0  0  0  0  0  0  0  0  0  0  0  0
   -5.0775    1.2780   -0.5450 C   0  0  0  0  0  0  0  0  0  0  0  0
   -4.1995    2.3151   -0.6220 C   0  0  0  0  0  0  0  0  0  0  0  0
   -2.8516    2.0669   -0.4687 C   0  0  0  0  0  0  0  0  0  0  0  0
   -2.3250    0.7932   -0.2399 C   0  0  0  0  0  0  0  0  0  0  0  0
   -0.8848    0.6773   -0.1841 C   0  0  0  0  0  0  0  0  0  0  0  0
   -0.0443   -0.3611   -0.3162 N   0  0  0  0  0  0  0  0  0  0  0  0
    1.2493   -0.0080   -0.2271 C   0  0  0  0  0  0  0  0  0  0  0  0
    2.4576   -0.7871   -0.3728 C   0  0  0  0  0  0  0  0  0  0  0  0
    3.2627   -0.2751   -1.2744 O   0  0  0  0  0  0  0  0  0  0  0  0
    2.8767   -1.9367    0.2650 N   0  0  0  0  0  0  0  0  0  0  0  0
    4.1504   -2.5258   -0.1492 C   0  0  0  0  0  0  0  0  0  0  0  0
    5.3071   -1.6218    0.0641 C   0  0  0  0  0  0  0  0  0  0  0  0
    5.5892   -1.1681    1.3218 C   0  0  0  0  0  0  0  0  0  0  0  0
    6.6623   -0.2961    1.4854 C   0  0  0  0  0  0  0  0  0  0  0  0
    7.4375    0.1111    0.4135 C   0  0  0  0  0  0  0  0  0  0  0  0
    8.4592    0.9594    0.6434 F   0  0  0  0  0  0  0  0  0  0  0  0
    7.1255   -0.3648   -0.8396 C   0  0  0  0  0  0  0  0  0  0  0  0
    7.9010    0.0606   -1.8953 F   0  0  0  0  0  0  0  0  0  0  0  0
    6.0810   -1.2200   -1.0409 C   0  0  0  0  0  0  0  0  0  0  0  0
    1.1684    1.3708   -0.0090 C   0  0  0  0  0  0  0  0  0  0  0  0
    2.3206    2.2685    0.1775 C   0  0  0  0  0  0  0  0  0  0  0  0
    1.9136    3.6417    0.4003 N   0  0  0  0  0  0  0  0  0  0  0  0
   -0.0797    1.7150    0.0054 O   0  0  0  0  0  0  0  0  0  0  0  0
   -3.2186   -0.2140   -0.1619 C   0  0  0  0  0  0  0  0  0  0  0  0
   -2.7735   -1.4851    0.1020 C   0  0  0  0  0  0  0  0  0  0  0  0
   -3.7168   -2.5101    0.2078 C   0  0  0  0  0  0  0  0  0  0  0  0
   -5.0543   -2.2381    0.0492 C   0  0  0  0  0  0  0  0  0  0  0  0
   -5.4962   -0.9903   -0.2094 N   0  0  0  0  0  0  0  0  0  0  0  0
   -4.5956   -0.0064   -0.3104 C   0  0  0  0  0  0  0  0  0  0  0  0
   -6.0404   -3.3620    0.1600 C   0  0  0  0  0  0  0  0  0  0  0  0
   -5.4447   -4.5846   -0.0337 F   0  0  0  0  0  0  0  0  0  0  0  0
   -7.0489   -3.1700   -0.7668 F   0  0  0  0  0  0  0  0  0  0  0  0
   -6.5625   -3.3269    1.4552 F   0  0  0  0  0  0  0  0  0  0  0  0
   -7.9141    2.5988   -1.6117 H   0  0  0  0  0  0  0  0  0  0  0  0
   -7.3506    3.2162   -0.0502 H   0  0  0  0  0  0  0  0  0  0  0  0
   -6.3096    3.4444   -1.4691 H   0  0  0  0  0  0  0  0  0  0  0  0
   -4.4743    3.3438   -0.7970 H   0  0  0  0  0  0  0  0  0  0  0  0
   -2.1416    2.9104   -0.5258 H   0  0  0  0  0  0  0  0  0  0  0  0
    2.3486   -2.4124    1.0112 H   0  0  0  0  0  0  0  0  0  0  0  0
    4.1024   -2.7222   -1.2580 H   0  0  0  0  0  0  0  0  0  0  0  0
    4.2771   -3.5185    0.3194 H   0  0  0  0  0  0  0  0  0  0  0  0
    5.0320   -1.4449    2.2181 H   0  0  0  0  0  0  0  0  0  0  0  0
    6.8690    0.0619    2.4751 H   0  0  0  0  0  0  0  0  0  0  0  0
    5.8267   -1.6017   -2.0192 H   0  0  0  0  0  0  0  0  0  0  0  0
    2.9516    2.2440   -0.7398 H   0  0  0  0  0  0  0  0  0  0  0  0
    2.9232    1.9877    1.0786 H   0  0  0  0  0  0  0  0  0  0  0  0
    2.7086    4.2923    0.2741 H   0  0  0  0  0  0  0  0  0  0  0  0
    1.2062    3.8841   -0.2961 H   0  0  0  0  0  0  0  0  0  0  0  0
   -1.7594   -1.7414    0.2479 H   0  0  0  0  0  0  0  0  0  0  0  0
   -3.4299   -3.5307    0.4248 H   0  0  0  0  0  0  0  0  0  0  0  0
  1  2  1  0
  2  3  1  0
  3  4  2  0
  4  5  1  0
  5  6  2  0
  6  7  1  0
  7  8  2  0
  8  9  1  0
  9 10  1  0
 10 11  2  0
 10 12  1  0
 12 13  1  0
 13 14  1  0
 14 15  2  0
 15 16  1  0
 16 17  2  0
 17 18  1  0
 17 19  1  0
 19 20  1  0
 19 21  2  0
  9 22  2  0
 22 23  1  0
 23 24  1  0
 22 25  1  0
  6 26  1  0
 26 27  2  0
 27 28  1  0
 28 29  2  0
 29 30  1  0
 30 31  2  0
 29 32  1  0
 32 33  1  0
 32 34  1  0
 32 35  1  0
 31  3  1  0
 25  7  1  0
 31 26  1  0
 21 14  1  0
  1 36  1  0
  1 37  1  0
  1 38  1  0
  4 39  1  0
  5 40  1  0
 12 41  1  0
 13 42  1  0
 13 43  1  0
 15 44  1  0
 16 45  1  0
 21 46  1  0
 23 47  1  0
 23 48  1  0
 24 49  1  0
 24 50  1  0
 27 51  1  0
 28 52  1  0
M  END
$$$$
[H]c1nc(N([H])c2c([H])c([H])c(C(=O)N([H])C3([H])C([H])([H])N(C([H])([H])[H])C([H])([H])C3([H])[H])c([H])c2OC([H])([H])[H])nc2c1N(C([H])([H])[H])C(=O)[C@@]([H])(C([H])([H])[H])N2C1([H])C([H])([H])C([H])([H])C([H])([H])C1([H])[H]
     RDKit          3D

 71 75  0  0  0  0  0  0  0  0999 V2000
    2.8368    0.6242   -4.5313 C   0  0  0  0  0  0  0  0  0  0  0  0
    1.6418    0.7464   -3.8197 O   0  0  0  0  0  0  0  0  0  0  0  0
    1.5597    0.4244   -2.4581 C   0  0  0  0  0  0  0  0  0  0  0  0
    2.6692   -0.0258   -1.7812 C   0  0  0  0  0  0  0  0  0  0  0  0
    2.6422   -0.3541   -0.4500 C   0  0  0  0  0  0  0  0  0  0  0  0
    1.4243   -0.2050    0.1782 C   0  0  0  0  0  0  0  0  0  0  0  0
    0.2831    0.2521   -0.4942 C   0  0  0  0  0  0  0  0  0  0  0  0
    0.3143    0.5799   -1.8284 C   0  0  0  0  0  0  0  0  0  0  0  0
   -0.7805    1.0477   -2.5816 N   0  0  0  0  0  0  0  0  0  0  0  0
   -2.1065    1.2564   -2.1759 C   0  0  0  0  0  0  0  0  0  0  0  0
   -2.9637    1.7263   -3.1413 N   0  0  0  0  0  0  0  0  0  0  0  0
   -4.2483    1.9765   -2.9445 C   0  0  0  0  0  0  0  0  0  0  0  0
   -4.7590    1.7495   -1.6845 C   0  0  0  0  0  0  0  0  0  0  0  0
   -6.1244    1.9810   -1.3723 N   0  0  0  0  0  0  0  0  0  0  0  0
   -7.0678    2.4750   -2.3835 C   0  0  0  0  0  0  0  0  0  0  0  0
   -6.5619    1.7147   -0.0485 C   0  0  0  0  0  0  0  0  0  0  0  0
   -7.7505    1.4203    0.1993 O   0  0  0  0  0  0  0  0  0  0  0  0
   -5.5501    1.7990    1.0376 C   0  0  1  0  0  0  0  0  0  0  0  0
   -6.1847    1.5962    2.3519 C   0  0  0  0  0  0  0  0  0  0  0  0
   -4.4365    1.0189    0.6637 N   0  0  0  0  0  0  0  0  0  0  0  0
   -3.7436    0.0093    1.4314 C   0  0  0  0  0  0  0  0  0  0  0  0
   -3.2048    0.4960    2.7466 C   0  0  0  0  0  0  0  0  0  0  0  0
   -3.4142   -0.6300    3.7362 C   0  0  0  0  0  0  0  0  0  0  0  0
   -4.0727   -1.7427    2.9936 C   0  0  0  0  0  0  0  0  0  0  0  0
   -4.4748   -1.2689    1.6320 C   0  0  0  0  0  0  0  0  0  0  0  0
   -3.9481    1.2771   -0.6689 C   0  0  0  0  0  0  0  0  0  0  0  0
   -2.6450    1.0530   -0.9765 N   0  0  0  0  0  0  0  0  0  0  0  0
    3.8118   -0.8350    0.2800 C   0  0  0  0  0  0  0  0  0  0  0  0
    3.7193   -1.0497    1.5062 O   0  0  0  0  0  0  0  0  0  0  0  0
    5.0332   -1.0552   -0.3906 N   0  0  0  0  0  0  0  0  0  0  0  0
    6.1669   -1.5350    0.3861 C   0  0  0  0  0  0  0  0  0  0  0  0
    6.5438   -2.9003   -0.1582 C   0  0  0  0  0  0  0  0  0  0  0  0
    8.0032   -2.9864    0.2379 C   0  0  0  0  0  0  0  0  0  0  0  0
    8.5001   -1.6445    0.2883 N   0  0  0  0  0  0  0  0  0  0  0  0
    9.2451   -1.3499    1.4956 C   0  0  0  0  0  0  0  0  0  0  0  0
    7.4057   -0.7356    0.1435 C   0  0  0  0  0  0  0  0  0  0  0  0
    2.8192    1.2163   -5.4890 H   0  0  0  0  0  0  0  0  0  0  0  0
    3.7165    1.0214   -3.9770 H   0  0  0  0  0  0  0  0  0  0  0  0
    3.0628   -0.4248   -4.8317 H   0  0  0  0  0  0  0  0  0  0  0  0
    3.6115   -0.1322   -2.3054 H   0  0  0  0  0  0  0  0  0  0  0  0
    1.3581   -0.4534    1.2285 H   0  0  0  0  0  0  0  0  0  0  0  0
   -0.6404    0.3471    0.0569 H   0  0  0  0  0  0  0  0  0  0  0  0
   -0.5467    1.2706   -3.6040 H   0  0  0  0  0  0  0  0  0  0  0  0
   -4.9056    2.3422   -3.7039 H   0  0  0  0  0  0  0  0  0  0  0  0
   -8.0525    2.5574   -1.9124 H   0  0  0  0  0  0  0  0  0  0  0  0
   -7.0962    1.6866   -3.1740 H   0  0  0  0  0  0  0  0  0  0  0  0
   -6.7159    3.4354   -2.8102 H   0  0  0  0  0  0  0  0  0  0  0  0
   -5.2276    2.8907    1.0373 H   0  0  0  0  0  0  0  0  0  0  0  0
   -6.1375    0.6317    2.8276 H   0  0  0  0  0  0  0  0  0  0  0  0
   -7.2874    1.8330    2.2399 H   0  0  0  0  0  0  0  0  0  0  0  0
   -5.8477    2.3519    3.1229 H   0  0  0  0  0  0  0  0  0  0  0  0
   -2.8024   -0.3023    0.8698 H   0  0  0  0  0  0  0  0  0  0  0  0
   -3.6286    1.4490    3.0958 H   0  0  0  0  0  0  0  0  0  0  0  0
   -2.0893    0.6763    2.7351 H   0  0  0  0  0  0  0  0  0  0  0  0
   -2.4927   -0.9269    4.2616 H   0  0  0  0  0  0  0  0  0  0  0  0
   -4.1705   -0.2569    4.4890 H   0  0  0  0  0  0  0  0  0  0  0  0
   -3.3187   -2.5689    2.9220 H   0  0  0  0  0  0  0  0  0  0  0  0
   -4.9878   -2.1168    3.4978 H   0  0  0  0  0  0  0  0  0  0  0  0
   -5.5646   -1.2258    1.4708 H   0  0  0  0  0  0  0  0  0  0  0  0
   -4.1468   -2.0794    0.9068 H   0  0  0  0  0  0  0  0  0  0  0  0
    5.2189   -0.9105   -1.4012 H   0  0  0  0  0  0  0  0  0  0  0  0
    5.8983   -1.6594    1.4346 H   0  0  0  0  0  0  0  0  0  0  0  0
    6.0014   -3.7145    0.3513 H   0  0  0  0  0  0  0  0  0  0  0  0
    6.3902   -2.9463   -1.2510 H   0  0  0  0  0  0  0  0  0  0  0  0
    8.5571   -3.6425   -0.4412 H   0  0  0  0  0  0  0  0  0  0  0  0
    8.0615   -3.3973    1.2840 H   0  0  0  0  0  0  0  0  0  0  0  0
   10.3217   -1.3766    1.2240 H   0  0  0  0  0  0  0  0  0  0  0  0
    8.9825   -2.0076    2.3391 H   0  0  0  0  0  0  0  0  0  0  0  0
    9.0550   -0.3008    1.8441 H   0  0  0  0  0  0  0  0  0  0  0  0
    7.3459   -0.2733   -0.8629 H   0  0  0  0  0  0  0  0  0  0  0  0
    7.4951    0.1008    0.8621 H   0  0  0  0  0  0  0  0  0  0  0  0
  1  2  1  0
  2  3  1  0
  3  4  2  0
  4  5  1  0
  5  6  2  0
  6  7  1  0
  7  8  2  0
  8  9  1  0
  9 10  1  0
 10 11  2  0
 11 12  1  0
 12 13  2  0
 13 14  1  0
 14 15  1  0
 14 16  1  0
 16 17  2  0
 16 18  1  0
 18 19  1  0
 18 20  1  0
 20 21  1  0
 21 22  1  0
 22 23  1  0
 23 24  1  0
 24 25  1  0
 20 26  1  0
 26 27  2  0
  5 28  1  0
 28 29  2  0
 28 30  1  0
 30 31  1  0
 31 32  1  0
 32 33  1  0
 33 34  1  0
 34 35  1  0
 34 36  1  0
  8  3  1  0
 27 10  1  0
 36 31  1  0
 26 13  1  0
 25 21  1  0
  1 37  1  0
  1 38  1  0
  1 39  1  0
  4 40  1  0
  6 41  1  0
  7 42  1  0
  9 43  1  0
 12 44  1  0
 15 45  1  0
 15 46  1  0
 15 47  1  0
 18 48  1  1
 19 49  1  0
 19 50  1  0
 19 51  1  0
 21 52  1  0
 22 53  1  0
 22 54  1  0
 23 55  1  0
 23 56  1  0
 24 57  1  0
 24 58  1  0
 25 59  1  0
 25 60  1  0
 30 61  1  0
 31 62  1  0
 32 63  1  0
 32 64  1  0
 33 65  1  0
 33 66  1  0
 35 67  1  0
 35 68  1  0
 35 69  1  0
 36 70  1  0
 36 71  1  0
M  END
$$$$
[H]ON([H])C(=O)C([H])([H])N(C([H])([H])c1c([H])c([H])c([N+](=O)[O-])c([H])c1[H])S(=O)(=O)c1c([H])c([H])c(Br)c([H])c1[H]
     RDKit          3D

 40 41  0  0  0  0  0  0  0  0999 V2000
   -2.1675    3.6659   -2.4223 O   0  0  0  0  0  0  0  0  0  0  0  0
   -1.4418    3.3539   -1.3331 N   0  0  0  0  0  0  0  0  0  0  0  0
   -1.0770    2.0202   -1.0750 C   0  0  0  0  0  0  0  0  0  0  0  0
   -1.4361    1.1277   -1.8713 O   0  0  0  0  0  0  0  0  0  0  0  0
   -0.2930    1.6874    0.1028 C   0  0  0  0  0  0  0  0  0  0  0  0
    0.0371    0.3291    0.3041 N   0  0  0  0  0  0  0  0  0  0  0  0
    1.0064   -0.2398   -0.5167 C   0  0  0  0  0  0  0  0  0  0  0  0
    2.3497   -0.4635    0.0755 C   0  0  0  0  0  0  0  0  0  0  0  0
    2.8247   -1.6928    0.4771 C   0  0  0  0  0  0  0  0  0  0  0  0
    4.0772   -1.8650    1.0273 C   0  0  0  0  0  0  0  0  0  0  0  0
    4.9240   -0.8107    1.2049 C   0  0  0  0  0  0  0  0  0  0  0  0
    4.4718    0.4436    0.8084 C   0  0  0  0  0  0  0  0  0  0  0  0
    3.2189    0.6098    0.2592 C   0  0  0  0  0  0  0  0  0  0  0  0
    6.2117   -0.9947    1.7716 N   0  0  0  0  0  0  0  0  0  0  0  0
    6.5943   -2.2554    2.1402 O   0  0  0  0  0  0  0  0  0  0  0  0
    6.9930   -0.0489    1.9399 O   0  0  0  0  0  0  0  0  0  0  0  0
   -0.9867   -0.6199    1.2134 S   0  0  0  0  0  0  0  0  0  0  0  0
   -0.4007   -1.9878    1.4222 O   0  0  0  0  0  0  0  0  0  0  0  0
   -1.1527   -0.0307    2.5850 O   0  0  0  0  0  0  0  0  0  0  0  0
   -2.5994   -0.7811    0.5552 C   0  0  0  0  0  0  0  0  0  0  0  0
   -2.9222   -1.8073   -0.3105 C   0  0  0  0  0  0  0  0  0  0  0  0
   -4.1657   -1.9727   -0.8478 C   0  0  0  0  0  0  0  0  0  0  0  0
   -5.1591   -1.0902   -0.5275 C   0  0  0  0  0  0  0  0  0  0  0  0
   -6.9106   -1.3240   -1.2849 Br  0  0  0  0  0  0  0  0  0  0  0  0
   -4.8930   -0.0501    0.3295 C   0  0  0  0  0  0  0  0  0  0  0  0
   -3.6277    0.0866    0.8529 C   0  0  0  0  0  0  0  0  0  0  0  0
   -3.1178    3.4549   -2.3427 H   0  0  0  0  0  0  0  0  0  0  0  0
   -1.1616    4.1232   -0.6937 H   0  0  0  0  0  0  0  0  0  0  0  0
   -0.7953    2.0579    1.0440 H   0  0  0  0  0  0  0  0  0  0  0  0
    0.6555    2.2790    0.0581 H   0  0  0  0  0  0  0  0  0  0  0  0
    1.1977    0.3140   -1.4815 H   0  0  0  0  0  0  0  0  0  0  0  0
    0.6407   -1.2483   -0.8683 H   0  0  0  0  0  0  0  0  0  0  0  0
    2.2070   -2.5685    0.3611 H   0  0  0  0  0  0  0  0  0  0  0  0
    4.4382   -2.8463    1.3405 H   0  0  0  0  0  0  0  0  0  0  0  0
    5.1602    1.2882    0.9549 H   0  0  0  0  0  0  0  0  0  0  0  0
    2.9581    1.6255   -0.0186 H   0  0  0  0  0  0  0  0  0  0  0  0
   -2.1441   -2.5116   -0.5710 H   0  0  0  0  0  0  0  0  0  0  0  0
   -4.3792   -2.8064   -1.5348 H   0  0  0  0  0  0  0  0  0  0  0  0
   -5.7122    0.6284    0.5573 H   0  0  0  0  0  0  0  0  0  0  0  0
   -3.4229    0.9204    1.5371 H   0  0  0  0  0  0  0  0  0  0  0  0
  1  2  1  0
  2  3  1  0
  3  4  2  0
  3  5  1  0
  5  6  1  0
  6  7  1  0
  7  8  1  0
  8  9  2  0
  9 10  1  0
 10 11  2  0
 11 12  1  0
 12 13  2  0
 11 14  1  0
 14 15  1  0
 14 16  2  0
  6 17  1  0
 17 18  2  0
 17 19  2  0
 17 20  1  0
 20 21  2  0
 21 22  1  0
 22 23  2  0
 23 24  1  0
 23 25  1  0
 25 26  2  0
 13  8  1  0
 26 20  1  0
  1 27  1  0
  2 28  1  0
  5 29  1  0
  5 30  1  0
  7 31  1  0
  7 32  1  0
  9 33  1  0
 10 34  1  0
 12 35  1  0
 13 36  1  0
 21 37  1  0
 22 38  1  0
 25 39  1  0
 26 40  1  0
M  CHG  2  14   1  15  -1
M  END
$$$$
[H]N=C(c1c([H])c([H])c([H])c(C([H])([H])C([H])(C(=O)N2C([H])([H])C([H])([H])C([H])(C([H])([H])[H])C([H])([H])C2([H])[H])N([H])S(=O)(=O)c2c([H])c([H])c3c([H])c([H])c([H])c([H])c3c2[H])c1[H])N([H])[H]
     RDKit          3D

 64 67  0  0  0  0  0  0  0  0999 V2000
   -3.9238   -3.5390    1.0349 C   0  0  0  0  0  0  0  0  0  0  0  0
   -2.4624   -3.9198    0.8570 C   0  0  0  0  0  0  0  0  0  0  0  0
   -1.5911   -2.8575    1.5118 C   0  0  0  0  0  0  0  0  0  0  0  0
   -1.7482   -1.6058    0.6299 C   0  0  0  0  0  0  0  0  0  0  0  0
   -1.0091   -1.8803   -0.5667 N   0  0  0  0  0  0  0  0  0  0  0  0
   -0.9541   -3.2477   -1.0251 C   0  0  0  0  0  0  0  0  0  0  0  0
   -2.1728   -4.0457   -0.6124 C   0  0  0  0  0  0  0  0  0  0  0  0
   -0.3597   -0.8752   -1.2774 C   0  0  0  0  0  0  0  0  0  0  0  0
    0.3028   -1.2449   -2.3123 O   0  0  0  0  0  0  0  0  0  0  0  0
   -0.3449    0.5803   -0.9698 C   0  0  0  0  0  0  0  0  0  0  0  0
   -1.7331    1.0975   -1.1859 C   0  0  0  0  0  0  0  0  0  0  0  0
   -1.8776    2.5513   -0.9241 C   0  0  0  0  0  0  0  0  0  0  0  0
   -1.6643    3.3918   -1.9835 C   0  0  0  0  0  0  0  0  0  0  0  0
   -1.7700    4.7569   -1.8646 C   0  0  0  0  0  0  0  0  0  0  0  0
   -2.0995    5.3023   -0.6482 C   0  0  0  0  0  0  0  0  0  0  0  0
   -2.3167    4.4478    0.4301 C   0  0  0  0  0  0  0  0  0  0  0  0
   -2.2036    3.0916    0.2792 C   0  0  0  0  0  0  0  0  0  0  0  0
   -2.6680    5.0636    1.7149 C   0  0  0  0  0  0  0  0  0  0  0  0
   -2.7787    6.4687    1.8373 N   0  0  0  0  0  0  0  0  0  0  0  0
   -2.8826    4.3384    2.7557 N   0  0  0  0  0  0  0  0  0  0  0  0
    0.6136    1.1580   -1.8545 N   0  0  0  0  0  0  0  0  0  0  0  0
    1.9968    1.8159   -1.2341 S   0  0  0  0  0  0  0  0  0  0  0  0
    2.9453    2.4036   -2.2230 O   0  0  0  0  0  0  0  0  0  0  0  0
    1.7167    2.8581   -0.1581 O   0  0  0  0  0  0  0  0  0  0  0  0
    2.8965    0.5349   -0.4075 C   0  0  0  0  0  0  0  0  0  0  0  0
    2.7031    0.2651    0.9302 C   0  0  0  0  0  0  0  0  0  0  0  0
    3.3948   -0.7299    1.5889 C   0  0  0  0  0  0  0  0  0  0  0  0
    4.3127   -1.4950    0.9208 C   0  0  0  0  0  0  0  0  0  0  0  0
    5.0043   -2.4963    1.5969 C   0  0  0  0  0  0  0  0  0  0  0  0
    5.9290   -3.2674    0.9242 C   0  0  0  0  0  0  0  0  0  0  0  0
    6.1339   -3.0097   -0.4150 C   0  0  0  0  0  0  0  0  0  0  0  0
    5.4476   -2.0108   -1.1003 C   0  0  0  0  0  0  0  0  0  0  0  0
    4.5269   -1.2477   -0.4176 C   0  0  0  0  0  0  0  0  0  0  0  0
    3.8231   -0.2394   -1.0761 C   0  0  0  0  0  0  0  0  0  0  0  0
   -4.2872   -2.9630    0.1498 H   0  0  0  0  0  0  0  0  0  0  0  0
   -4.0077   -2.9543    1.9750 H   0  0  0  0  0  0  0  0  0  0  0  0
   -4.5514   -4.4457    1.1358 H   0  0  0  0  0  0  0  0  0  0  0  0
   -2.3316   -4.8856    1.3850 H   0  0  0  0  0  0  0  0  0  0  0  0
   -0.5526   -3.2313    1.4527 H   0  0  0  0  0  0  0  0  0  0  0  0
   -1.9290   -2.6744    2.5332 H   0  0  0  0  0  0  0  0  0  0  0  0
   -1.3735   -0.7150    1.1941 H   0  0  0  0  0  0  0  0  0  0  0  0
   -2.8361   -1.5568    0.4280 H   0  0  0  0  0  0  0  0  0  0  0  0
   -0.8784   -3.3089   -2.1290 H   0  0  0  0  0  0  0  0  0  0  0  0
   -0.0743   -3.7827   -0.5974 H   0  0  0  0  0  0  0  0  0  0  0  0
   -1.9497   -5.1130   -0.8324 H   0  0  0  0  0  0  0  0  0  0  0  0
   -3.0449   -3.7651   -1.2079 H   0  0  0  0  0  0  0  0  0  0  0  0
    0.0227    0.6760    0.0667 H   0  0  0  0  0  0  0  0  0  0  0  0
   -2.4249    0.6043   -0.4907 H   0  0  0  0  0  0  0  0  0  0  0  0
   -2.0478    0.8697   -2.2008 H   0  0  0  0  0  0  0  0  0  0  0  0
   -1.3989    3.0126   -2.9767 H   0  0  0  0  0  0  0  0  0  0  0  0
   -1.5892    5.3941   -2.7449 H   0  0  0  0  0  0  0  0  0  0  0  0
   -2.1817    6.3789   -0.5597 H   0  0  0  0  0  0  0  0  0  0  0  0
   -2.3772    2.4636    1.1288 H   0  0  0  0  0  0  0  0  0  0  0  0
   -2.4324    6.9739    2.6779 H   0  0  0  0  0  0  0  0  0  0  0  0
   -3.2149    7.0308    1.0778 H   0  0  0  0  0  0  0  0  0  0  0  0
   -3.1318    4.7052    3.6840 H   0  0  0  0  0  0  0  0  0  0  0  0
    0.4249    1.1364   -2.8496 H   0  0  0  0  0  0  0  0  0  0  0  0
    1.9712    0.8800    1.4509 H   0  0  0  0  0  0  0  0  0  0  0  0
    3.2197   -0.9192    2.6473 H   0  0  0  0  0  0  0  0  0  0  0  0
    4.8340   -2.6889    2.6502 H   0  0  0  0  0  0  0  0  0  0  0  0
    6.4854   -4.0590    1.4290 H   0  0  0  0  0  0  0  0  0  0  0  0
    6.8539   -3.6029   -0.9588 H   0  0  0  0  0  0  0  0  0  0  0  0
    5.6148   -1.8201   -2.1384 H   0  0  0  0  0  0  0  0  0  0  0  0
    4.0017   -0.0536   -2.1358 H   0  0  0  0  0  0  0  0  0  0  0  0
  1  2  1  0
  2  3  1  0
  3  4  1  0
  4  5  1  0
  5  6  1  0
  6  7  1  0
  5  8  1  0
  8  9  2  0
  8 10  1  0
 10 11  1  0
 11 12  1  0
 12 13  2  0
 13 14  1  0
 14 15  2  0
 15 16  1  0
 16 17  2  0
 16 18  1  0
 18 19  1  0
 18 20  2  3
 10 21  1  0
 21 22  1  0
 22 23  2  0
 22 24  2  0
 22 25  1  0
 25 26  2  0
 26 27  1  0
 27 28  2  0
 28 29  1  0
 29 30  2  0
 30 31  1  0
 31 32  2  0
 32 33  1  0
 33 34  2  0
  7  2  1  0
 17 12  1  0
 34 25  1  0
 33 28  1  0
  1 35  1  0
  1 36  1  0
  1 37  1  0
  2 38  1  0
  3 39  1  0
  3 40  1  0
  4 41  1  0
  4 42  1  0
  6 43  1  0
  6 44  1  0
  7 45  1  0
  7 46  1  0
 10 47  1  0
 11 48  1  0
 11 49  1  0
 13 50  1  0
 14 51  1  0
 15 52  1  0
 17 53  1  0
 19 54  1  0
 19 55  1  0
 20 56  1  0
 21 57  1  0
 26 58  1  0
 27 59  1  0
 29 60  1  0
 30 61  1  0
 31 62  1  0
 32 63  1  0
 34 64  1  0
M  END
$$$$
[H]OC(=O)[C@]([H])(c1c([H])c([H])c([H])c([H])c1[H])N([H])C(=O)[C@@]([H])(N([H])C(=O)c1c([H])c(OC([H])([H])[H])c(OC([H])([H])[H])c(OC([H])([H])[H])c1[H])C([H])([H])c1c([H])c([H])c([H])c([H])c1[H]
     RDKit          3D

 64 66  0  0  0  0  0  0  0  0999 V2000
   -4.1917   -4.6802   -1.3792 C   0  0  0  0  0  0  0  0  0  0  0  0
   -5.0028   -3.9551   -0.4755 O   0  0  0  0  0  0  0  0  0  0  0  0
   -4.5369   -2.6852   -0.0910 C   0  0  0  0  0  0  0  0  0  0  0  0
   -3.3529   -2.1676   -0.5652 C   0  0  0  0  0  0  0  0  0  0  0  0
   -2.8617   -0.9166   -0.2068 C   0  0  0  0  0  0  0  0  0  0  0  0
   -3.6269   -0.1807    0.6727 C   0  0  0  0  0  0  0  0  0  0  0  0
   -4.8264   -0.6356    1.1904 C   0  0  0  0  0  0  0  0  0  0  0  0
   -5.5865    0.1150    2.0737 O   0  0  0  0  0  0  0  0  0  0  0  0
   -5.1167    1.3907    2.4570 C   0  0  0  0  0  0  0  0  0  0  0  0
   -5.2574   -1.9023    0.7856 C   0  0  0  0  0  0  0  0  0  0  0  0
   -6.4555   -2.4005    1.2798 O   0  0  0  0  0  0  0  0  0  0  0  0
   -6.3878   -3.1450    2.4989 C   0  0  0  0  0  0  0  0  0  0  0  0
   -1.6020   -0.4155   -0.7369 C   0  0  0  0  0  0  0  0  0  0  0  0
   -1.0854   -1.0278   -1.7006 O   0  0  0  0  0  0  0  0  0  0  0  0
   -0.9415    0.7150   -0.2202 N   0  0  0  0  0  0  0  0  0  0  0  0
    0.3552    1.1701   -0.8170 C   0  0  1  0  0  0  0  0  0  0  0  0
    0.1106    2.5895   -1.2072 C   0  0  0  0  0  0  0  0  0  0  0  0
    1.2088    3.3248   -1.8270 C   0  0  0  0  0  0  0  0  0  0  0  0
    1.4681    3.3144   -3.2026 C   0  0  0  0  0  0  0  0  0  0  0  0
    2.4891    4.0571   -3.7431 C   0  0  0  0  0  0  0  0  0  0  0  0
    3.3031    4.8433   -2.9624 C   0  0  0  0  0  0  0  0  0  0  0  0
    3.0638    4.8651   -1.6115 C   0  0  0  0  0  0  0  0  0  0  0  0
    2.0292    4.1148   -1.0511 C   0  0  0  0  0  0  0  0  0  0  0  0
    1.3373    0.9437    0.2459 C   0  0  0  0  0  0  0  0  0  0  0  0
    0.9761    0.8774    1.4373 O   0  0  0  0  0  0  0  0  0  0  0  0
    2.7104    0.7861   -0.0513 N   0  0  0  0  0  0  0  0  0  0  0  0
    3.6962    0.5372    1.0052 C   0  0  2  0  0  0  0  0  0  0  0  0
    4.8294    1.4403    0.8184 C   0  0  0  0  0  0  0  0  0  0  0  0
    5.8588    1.6259    1.7547 O   0  0  0  0  0  0  0  0  0  0  0  0
    4.9420    2.1304   -0.2350 O   0  0  0  0  0  0  0  0  0  0  0  0
    4.1686   -0.8845    0.8805 C   0  0  0  0  0  0  0  0  0  0  0  0
    3.2389   -1.9188    0.7613 C   0  0  0  0  0  0  0  0  0  0  0  0
    3.6459   -3.2169    0.6334 C   0  0  0  0  0  0  0  0  0  0  0  0
    4.9753   -3.5486    0.6175 C   0  0  0  0  0  0  0  0  0  0  0  0
    5.9116   -2.5515    0.7331 C   0  0  0  0  0  0  0  0  0  0  0  0
    5.4833   -1.2241    0.8633 C   0  0  0  0  0  0  0  0  0  0  0  0
   -4.1095   -4.0757   -2.3302 H   0  0  0  0  0  0  0  0  0  0  0  0
   -4.6171   -5.6758   -1.5994 H   0  0  0  0  0  0  0  0  0  0  0  0
   -3.1526   -4.8278   -0.9658 H   0  0  0  0  0  0  0  0  0  0  0  0
   -2.7679   -2.7728   -1.2597 H   0  0  0  0  0  0  0  0  0  0  0  0
   -3.2826    0.8015    0.9796 H   0  0  0  0  0  0  0  0  0  0  0  0
   -5.9451    1.9893    2.9353 H   0  0  0  0  0  0  0  0  0  0  0  0
   -4.8188    2.0028    1.5575 H   0  0  0  0  0  0  0  0  0  0  0  0
   -4.2494    1.3393    3.1453 H   0  0  0  0  0  0  0  0  0  0  0  0
   -6.6458   -2.4657    3.3381 H   0  0  0  0  0  0  0  0  0  0  0  0
   -5.3458   -3.4852    2.6988 H   0  0  0  0  0  0  0  0  0  0  0  0
   -7.0916   -3.9953    2.4007 H   0  0  0  0  0  0  0  0  0  0  0  0
   -1.3498    1.2421    0.5782 H   0  0  0  0  0  0  0  0  0  0  0  0
    0.5180    0.5109   -1.7014 H   0  0  0  0  0  0  0  0  0  0  0  0
   -0.7627    2.5536   -1.9349 H   0  0  0  0  0  0  0  0  0  0  0  0
   -0.3414    3.1647   -0.3372 H   0  0  0  0  0  0  0  0  0  0  0  0
    0.8264    2.6973   -3.8052 H   0  0  0  0  0  0  0  0  0  0  0  0
    2.6760    4.0390   -4.8061 H   0  0  0  0  0  0  0  0  0  0  0  0
    4.1159    5.4301   -3.4182 H   0  0  0  0  0  0  0  0  0  0  0  0
    3.7026    5.4865   -0.9667 H   0  0  0  0  0  0  0  0  0  0  0  0
    1.9333    4.2078    0.0261 H   0  0  0  0  0  0  0  0  0  0  0  0
    3.0668    0.8403   -1.0180 H   0  0  0  0  0  0  0  0  0  0  0  0
    3.2364    0.6614    2.0099 H   0  0  0  0  0  0  0  0  0  0  0  0
    5.8135    2.4459    2.3520 H   0  0  0  0  0  0  0  0  0  0  0  0
    2.1926   -1.6228    0.7758 H   0  0  0  0  0  0  0  0  0  0  0  0
    2.8871   -3.9950    0.5435 H   0  0  0  0  0  0  0  0  0  0  0  0
    5.2955   -4.5858    0.5144 H   0  0  0  0  0  0  0  0  0  0  0  0
    6.9554   -2.8012    0.7219 H   0  0  0  0  0  0  0  0  0  0  0  0
    6.2905   -0.4940    0.9406 H   0  0  0  0  0  0  0  0  0  0  0  0
  1  2  1  0
  2  3  1  0
  3  4  2  0
  4  5  1  0
  5  6  2  0
  6  7  1  0
  7  8  1  0
  8  9  1  0
  7 10  2  0
 10 11  1  0
 11 12  1  0
  5 13  1  0
 13 14  2  0
 13 15  1  0
 15 16  1  0
 16 17  1  0
 17 18  1  0
 18 19  2  0
 19 20  1  0
 20 21  2  0
 21 22  1  0
 22 23  2  0
 16 24  1  0
 24 25  2  0
 24 26  1  0
 26 27  1  0
 27 28  1  0
 28 29  1  0
 28 30  2  0
 27 31  1  0
 31 32  2  0
 32 33  1  0
 33 34  2  0
 34 35  1  0
 35 36  2  0
 10  3  1  0
 23 18  1  0
 36 31  1  0
  1 37  1  0
  1 38  1  0
  1 39  1  0
  4 40  1  0
  6 41  1  0
  9 42  1  0
  9 43  1  0
  9 44  1  0
 12 45  1  0
 12 46  1  0
 12 47  1  0
 15 48  1  0
 16 49  1  6
 17 50  1  0
 17 51  1  0
 19 52  1  0
 20 53  1  0
 21 54  1  0
 22 55  1  0
 23 56  1  0
 26 57  1  0
 27 58  1  1
 29 59  1  0
 32 60  1  0
 33 61  1  0
 34 62  1  0
 35 63  1  0
 36 64  1  0
M  END
$$$$
[H]c1c([H])c([H])c(S(=O)(=O)[C@@]2([H])C([H])([H])N(C(=O)C3(c4c([H])c([H])c(Cl)c([H])c4[H])C([H])([H])C3([H])[H])[C@]([H])(C(=O)N([H])[C@]([H])(C(=O)C(=O)N([H])C3([H])C([H])([H])C3([H])[H])C([H])([H])C([H])([H])C([H])([H])[H])C2([H])[H])c(Cl)c1[H]
     RDKit          3D

 75 79  0  0  0  0  0  0  0  0999 V2000
    3.8814    3.6568    1.4015 C   0  0  0  0  0  0  0  0  0  0  0  0
    2.9499    2.6008    2.0368 C   0  0  0  0  0  0  0  0  0  0  0  0
    3.4286    1.2189    1.6341 C   0  0  0  0  0  0  0  0  0  0  0  0
    3.3661    1.0343    0.1177 C   0  0  2  0  0  0  0  0  0  0  0  0
    2.0471    1.1276   -0.4340 N   0  0  0  0  0  0  0  0  0  0  0  0
    0.8303    0.8057    0.1994 C   0  0  0  0  0  0  0  0  0  0  0  0
    0.7721    0.3728    1.3670 O   0  0  0  0  0  0  0  0  0  0  0  0
   -0.4203    0.9911   -0.5602 C   0  0  2  0  0  0  0  0  0  0  0  0
   -1.0983    2.2609   -0.0667 C   0  0  0  0  0  0  0  0  0  0  0  0
   -2.5670    2.0343   -0.4598 C   0  0  2  0  0  0  0  0  0  0  0  0
   -2.5585    0.7219   -1.1541 C   0  0  0  0  0  0  0  0  0  0  0  0
   -1.4369   -0.0000   -0.4840 N   0  0  0  0  0  0  0  0  0  0  0  0
   -1.4893   -1.3305   -0.0400 C   0  0  0  0  0  0  0  0  0  0  0  0
   -0.3000   -1.7554    0.3277 O   0  0  0  0  0  0  0  0  0  0  0  0
   -2.5606   -2.2903    0.0898 C   0  0  0  0  0  0  0  0  0  0  0  0
   -3.9998   -2.0846    0.1057 C   0  0  0  0  0  0  0  0  0  0  0  0
   -3.4020   -2.5030   -1.1804 C   0  0  0  0  0  0  0  0  0  0  0  0
   -2.1221   -3.5999    0.7263 C   0  0  0  0  0  0  0  0  0  0  0  0
   -2.8201   -4.1145    1.7960 C   0  0  0  0  0  0  0  0  0  0  0  0
   -2.4543   -5.3209    2.3734 C   0  0  0  0  0  0  0  0  0  0  0  0
   -1.3804   -6.0319    1.8864 C   0  0  0  0  0  0  0  0  0  0  0  0
   -0.9215   -7.5726    2.6303 Cl  0  0  0  0  0  0  0  0  0  0  0  0
   -0.6762   -5.5331    0.8232 C   0  0  0  0  0  0  0  0  0  0  0  0
   -1.0594   -4.3132    0.2516 C   0  0  0  0  0  0  0  0  0  0  0  0
   -3.0448    3.4562   -1.3447 S   0  0  0  0  0  0  0  0  0  0  0  0
   -2.4571    4.6504   -0.5879 O   0  0  0  0  0  0  0  0  0  0  0  0
   -2.3832    3.5374   -2.7060 O   0  0  0  0  0  0  0  0  0  0  0  0
   -4.7314    3.7004   -1.5957 C   0  0  0  0  0  0  0  0  0  0  0  0
   -5.3725    4.7102   -0.8386 C   0  0  0  0  0  0  0  0  0  0  0  0
   -6.7137    4.9492   -0.9292 C   0  0  0  0  0  0  0  0  0  0  0  0
   -7.4497    4.1665   -1.7959 C   0  0  0  0  0  0  0  0  0  0  0  0
   -6.8720    3.1774   -2.5518 C   0  0  0  0  0  0  0  0  0  0  0  0
   -5.4832    2.9469   -2.4431 C   0  0  0  0  0  0  0  0  0  0  0  0
   -4.7711    1.7294   -3.4663 Cl  0  0  0  0  0  0  0  0  0  0  0  0
    4.1324   -0.0998   -0.3861 C   0  0  0  0  0  0  0  0  0  0  0  0
    3.4919   -0.8837   -1.1810 O   0  0  0  0  0  0  0  0  0  0  0  0
    5.5044   -0.4461   -0.1077 C   0  0  0  0  0  0  0  0  0  0  0  0
    6.3035    0.1849    0.6142 O   0  0  0  0  0  0  0  0  0  0  0  0
    6.0420   -1.6464   -0.7139 N   0  0  0  0  0  0  0  0  0  0  0  0
    7.3952   -2.0901   -0.5108 C   0  0  0  0  0  0  0  0  0  0  0  0
    7.6718   -3.5368   -0.3987 C   0  0  0  0  0  0  0  0  0  0  0  0
    8.0990   -2.7616   -1.6175 C   0  0  0  0  0  0  0  0  0  0  0  0
    3.4640    4.0429    0.4549 H   0  0  0  0  0  0  0  0  0  0  0  0
    4.8802    3.2309    1.1937 H   0  0  0  0  0  0  0  0  0  0  0  0
    4.0129    4.4869    2.1304 H   0  0  0  0  0  0  0  0  0  0  0  0
    1.9616    2.8258    1.6088 H   0  0  0  0  0  0  0  0  0  0  0  0
    3.0053    2.7419    3.1193 H   0  0  0  0  0  0  0  0  0  0  0  0
    2.9920    0.4136    2.2054 H   0  0  0  0  0  0  0  0  0  0  0  0
    4.5505    1.2632    1.8430 H   0  0  0  0  0  0  0  0  0  0  0  0
    3.9211    1.9924   -0.2144 H   0  0  0  0  0  0  0  0  0  0  0  0
    2.0207    1.4922   -1.4612 H   0  0  0  0  0  0  0  0  0  0  0  0
   -0.1441    1.0807   -1.6379 H   0  0  0  0  0  0  0  0  0  0  0  0
   -0.6690    3.1602   -0.5151 H   0  0  0  0  0  0  0  0  0  0  0  0
   -1.0473    2.2319    1.0279 H   0  0  0  0  0  0  0  0  0  0  0  0
   -3.1597    2.0387    0.5030 H   0  0  0  0  0  0  0  0  0  0  0  0
   -2.2088    0.8337   -2.2348 H   0  0  0  0  0  0  0  0  0  0  0  0
   -3.5137    0.2636   -1.0479 H   0  0  0  0  0  0  0  0  0  0  0  0
   -4.5498   -1.1601    0.2322 H   0  0  0  0  0  0  0  0  0  0  0  0
   -4.6232   -2.9359    0.5733 H   0  0  0  0  0  0  0  0  0  0  0  0
   -3.4931   -3.5596   -1.5324 H   0  0  0  0  0  0  0  0  0  0  0  0
   -3.3478   -1.7853   -1.9992 H   0  0  0  0  0  0  0  0  0  0  0  0
   -3.6662   -3.5944    2.2163 H   0  0  0  0  0  0  0  0  0  0  0  0
   -3.0050   -5.7162    3.2086 H   0  0  0  0  0  0  0  0  0  0  0  0
    0.1812   -6.0704    0.4126 H   0  0  0  0  0  0  0  0  0  0  0  0
   -0.5087   -3.9430   -0.5886 H   0  0  0  0  0  0  0  0  0  0  0  0
   -4.7399    5.2942   -0.1734 H   0  0  0  0  0  0  0  0  0  0  0  0
   -7.1575    5.7357   -0.3250 H   0  0  0  0  0  0  0  0  0  0  0  0
   -8.5016    4.3532   -1.8664 H   0  0  0  0  0  0  0  0  0  0  0  0
   -7.4329    2.5491   -3.2410 H   0  0  0  0  0  0  0  0  0  0  0  0
    5.4315   -2.2445   -1.3445 H   0  0  0  0  0  0  0  0  0  0  0  0
    8.0188   -1.4153    0.1295 H   0  0  0  0  0  0  0  0  0  0  0  0
    8.4662   -3.9124    0.2745 H   0  0  0  0  0  0  0  0  0  0  0  0
    6.8083   -4.2434   -0.5476 H   0  0  0  0  0  0  0  0  0  0  0  0
    7.5273   -3.0086   -2.5616 H   0  0  0  0  0  0  0  0  0  0  0  0
    9.1569   -2.5611   -1.8044 H   0  0  0  0  0  0  0  0  0  0  0  0
  1  2  1  0
  2  3  1  0
  3  4  1  0
  4  5  1  0
  5  6  1  0
  6  7  2  0
  6  8  1  0
  8  9  1  0
  9 10  1  0
 10 11  1  0
 11 12  1  0
 12 13  1  0
 13 14  2  0
 13 15  1  0
 15 16  1  0
 16 17  1  0
 15 18  1  0
 18 19  2  0
 19 20  1  0
 20 21  2  0
 21 22  1  0
 21 23  1  0
 23 24  2  0
 10 25  1  0
 25 26  2  0
 25 27  2  0
 25 28  1  0
 28 29  2  0
 29 30  1  0
 30 31  2  0
 31 32  1  0
 32 33  2  0
 33 34  1  0
  4 35  1  0
 35 36  2  0
 35 37  1  0
 37 38  2  0
 37 39  1  0
 39 40  1  0
 40 41  1  0
 41 42  1  0
 12  8  1  0
 17 15  1  0
 24 18  1  0
 33 28  1  0
 42 40  1  0
  1 43  1  0
  1 44  1  0
  1 45  1  0
  2 46  1  0
  2 47  1  0
  3 48  1  0
  3 49  1  0
  4 50  1  6
  5 51  1  0
  8 52  1  6
  9 53  1  0
  9 54  1  0
 10 55  1  1
 11 56  1  0
 11 57  1  0
 16 58  1  0
 16 59  1  0
 17 60  1  0
 17 61  1  0
 19 62  1  0
 20 63  1  0
 23 64  1  0
 24 65  1  0
 29 66  1  0
 30 67  1  0
 31 68  1  0
 32 69  1  0
 39 70  1  0
 40 71  1  0
 41 72  1  0
 41 73  1  0
 42 74  1  0
 42 75  1  0
M  END
$$$$
[H]OC(=O)C([H])([H])C([H])([H])[C@@]([H])(C(=O)N1C([H])([H])C([H])([H])C([H])([H])[C@@]1([H])C(=O)N([H])[C@]([H])(C(=O)c1nc2c([H])c([H])c([H])c([H])c2s1)C([H])([H])c1c([H])c([H])c([H])c([H])c1[H])N([H])C(=O)OC(C([H])([H])[H])(C([H])([H])[H])C([H])([H])[H]
     RDKit          3D

 79 82  0  0  0  0  0  0  0  0999 V2000
   -8.1128   -1.6388   -2.1710 C   0  0  0  0  0  0  0  0  0  0  0  0
   -8.4049   -1.0136   -0.8086 C   0  0  0  0  0  0  0  0  0  0  0  0
   -8.8478    0.3941   -1.0264 C   0  0  0  0  0  0  0  0  0  0  0  0
   -9.6260   -1.7879   -0.2828 C   0  0  0  0  0  0  0  0  0  0  0  0
   -7.3656   -1.1786    0.0972 O   0  0  0  0  0  0  0  0  0  0  0  0
   -6.1047   -0.6901   -0.0917 C   0  0  0  0  0  0  0  0  0  0  0  0
   -5.9401   -0.0371   -1.1881 O   0  0  0  0  0  0  0  0  0  0  0  0
   -5.0115   -0.8143    0.7402 N   0  0  0  0  0  0  0  0  0  0  0  0
   -3.6553   -0.2029    0.4203 C   0  0  1  0  0  0  0  0  0  0  0  0
   -3.4178    0.8250    1.3941 C   0  0  0  0  0  0  0  0  0  0  0  0
   -2.2531    1.7344    1.3796 C   0  0  0  0  0  0  0  0  0  0  0  0
   -2.1197    2.5715    0.1574 C   0  0  0  0  0  0  0  0  0  0  0  0
   -1.0347    3.4253    0.0916 O   0  0  0  0  0  0  0  0  0  0  0  0
   -2.9357    2.5207   -0.7674 O   0  0  0  0  0  0  0  0  0  0  0  0
   -2.8398   -1.3351    0.0759 C   0  0  0  0  0  0  0  0  0  0  0  0
   -3.5235   -2.1681   -0.7705 O   0  0  0  0  0  0  0  0  0  0  0  0
   -1.5892   -1.8727    0.3146 N   0  0  0  0  0  0  0  0  0  0  0  0
   -1.1558   -3.1113   -0.3850 C   0  0  0  0  0  0  0  0  0  0  0  0
   -0.3918   -3.8477    0.6741 C   0  0  0  0  0  0  0  0  0  0  0  0
    0.0163   -2.8500    1.6988 C   0  0  0  0  0  0  0  0  0  0  0  0
   -0.5278   -1.5178    1.1586 C   0  0  1  0  0  0  0  0  0  0  0  0
    0.6284   -0.8671    0.4388 C   0  0  0  0  0  0  0  0  0  0  0  0
    0.5746   -0.7976   -0.7994 O   0  0  0  0  0  0  0  0  0  0  0  0
    1.7003   -0.3727    1.1528 N   0  0  0  0  0  0  0  0  0  0  0  0
    2.8980    0.2882    0.5077 C   0  0  1  0  0  0  0  0  0  0  0  0
    2.8155    1.7196    0.8670 C   0  0  0  0  0  0  0  0  0  0  0  0
    3.8482    2.5976    0.3324 C   0  0  0  0  0  0  0  0  0  0  0  0
    4.9064    3.1427    1.0395 C   0  0  0  0  0  0  0  0  0  0  0  0
    5.8659    3.9564    0.4385 C   0  0  0  0  0  0  0  0  0  0  0  0
    5.8072    4.2547   -0.8812 C   0  0  0  0  0  0  0  0  0  0  0  0
    4.7617    3.7308   -1.6373 C   0  0  0  0  0  0  0  0  0  0  0  0
    3.8286    2.9372   -1.0468 C   0  0  0  0  0  0  0  0  0  0  0  0
    4.0147   -0.5487    0.7944 C   0  0  0  0  0  0  0  0  0  0  0  0
    3.7582   -1.5600    1.6437 O   0  0  0  0  0  0  0  0  0  0  0  0
    5.4110   -0.5812    0.3729 C   0  0  0  0  0  0  0  0  0  0  0  0
    6.1713    0.1579   -0.3698 N   0  0  0  0  0  0  0  0  0  0  0  0
    7.4364   -0.0971   -0.5952 C   0  0  0  0  0  0  0  0  0  0  0  0
    8.3344    0.7009   -1.3521 C   0  0  0  0  0  0  0  0  0  0  0  0
    9.6274    0.3010   -1.4295 C   0  0  0  0  0  0  0  0  0  0  0  0
   10.1618   -0.8178   -0.8427 C   0  0  0  0  0  0  0  0  0  0  0  0
    9.2941   -1.5955   -0.1111 C   0  0  0  0  0  0  0  0  0  0  0  0
    7.9374   -1.2256    0.0085 C   0  0  0  0  0  0  0  0  0  0  0  0
    6.5726   -1.8117    0.8342 S   0  0  0  0  0  0  0  0  0  0  0  0
   -9.0773   -2.0234   -2.5632 H   0  0  0  0  0  0  0  0  0  0  0  0
   -7.4380   -2.5040   -2.1143 H   0  0  0  0  0  0  0  0  0  0  0  0
   -7.7404   -0.9020   -2.8843 H   0  0  0  0  0  0  0  0  0  0  0  0
   -8.2778    1.1217   -0.4110 H   0  0  0  0  0  0  0  0  0  0  0  0
   -8.6834    0.7314   -2.0860 H   0  0  0  0  0  0  0  0  0  0  0  0
   -9.9348    0.5603   -0.7844 H   0  0  0  0  0  0  0  0  0  0  0  0
  -10.4909   -1.4266   -0.9085 H   0  0  0  0  0  0  0  0  0  0  0  0
   -9.4414   -2.8653   -0.5173 H   0  0  0  0  0  0  0  0  0  0  0  0
   -9.8035   -1.6087    0.7733 H   0  0  0  0  0  0  0  0  0  0  0  0
   -5.0119   -1.3280    1.6366 H   0  0  0  0  0  0  0  0  0  0  0  0
   -3.8982    0.2879   -0.6078 H   0  0  0  0  0  0  0  0  0  0  0  0
   -3.5327    0.3729    2.4515 H   0  0  0  0  0  0  0  0  0  0  0  0
   -4.3328    1.5411    1.4149 H   0  0  0  0  0  0  0  0  0  0  0  0
   -1.3113    1.2927    1.6643 H   0  0  0  0  0  0  0  0  0  0  0  0
   -2.4002    2.5432    2.2049 H   0  0  0  0  0  0  0  0  0  0  0  0
   -1.0376    4.2323   -0.5442 H   0  0  0  0  0  0  0  0  0  0  0  0
   -2.0527   -3.6830   -0.7243 H   0  0  0  0  0  0  0  0  0  0  0  0
   -0.5125   -2.8947   -1.2402 H   0  0  0  0  0  0  0  0  0  0  0  0
    0.5088   -4.3613    0.2360 H   0  0  0  0  0  0  0  0  0  0  0  0
   -1.0926   -4.5987    1.1371 H   0  0  0  0  0  0  0  0  0  0  0  0
    1.1246   -2.7778    1.8136 H   0  0  0  0  0  0  0  0  0  0  0  0
   -0.3475   -3.0520    2.7243 H   0  0  0  0  0  0  0  0  0  0  0  0
   -0.8224   -0.8882    2.0401 H   0  0  0  0  0  0  0  0  0  0  0  0
    1.7384   -0.4319    2.1853 H   0  0  0  0  0  0  0  0  0  0  0  0
    2.6622    0.2207   -0.5914 H   0  0  0  0  0  0  0  0  0  0  0  0
    2.8226    1.8160    1.9944 H   0  0  0  0  0  0  0  0  0  0  0  0
    1.7822    2.1137    0.5611 H   0  0  0  0  0  0  0  0  0  0  0  0
    4.9864    2.9292    2.0823 H   0  0  0  0  0  0  0  0  0  0  0  0
    6.6812    4.3590    1.0593 H   0  0  0  0  0  0  0  0  0  0  0  0
    6.5628    4.8974   -1.3710 H   0  0  0  0  0  0  0  0  0  0  0  0
    4.7191    3.9650   -2.6915 H   0  0  0  0  0  0  0  0  0  0  0  0
    2.9897    2.4942   -1.6002 H   0  0  0  0  0  0  0  0  0  0  0  0
    8.0254    1.6045   -1.8467 H   0  0  0  0  0  0  0  0  0  0  0  0
   10.3471    0.9117   -2.0169 H   0  0  0  0  0  0  0  0  0  0  0  0
   11.1884   -1.0679   -0.9413 H   0  0  0  0  0  0  0  0  0  0  0  0
    9.5882   -2.4981    0.3893 H   0  0  0  0  0  0  0  0  0  0  0  0
  1  2  1  0
  2  3  1  0
  2  4  1  0
  2  5  1  0
  5  6  1  0
  6  7  2  0
  6  8  1  0
  8  9  1  0
  9 10  1  0
 10 11  1  0
 11 12  1  0
 12 13  1  0
 12 14  2  0
  9 15  1  0
 15 16  2  0
 15 17  1  0
 17 18  1  0
 18 19  1  0
 19 20  1  0
 20 21  1  0
 21 22  1  0
 22 23  2  0
 22 24  1  0
 24 25  1  0
 25 26  1  0
 26 27  1  0
 27 28  2  0
 28 29  1  0
 29 30  2  0
 30 31  1  0
 31 32  2  0
 25 33  1  0
 33 34  2  0
 33 35  1  0
 35 36  2  0
 36 37  1  0
 37 38  2  0
 38 39  1  0
 39 40  2  0
 40 41  1  0
 41 42  2  0
 42 43  1  0
 21 17  1  0
 32 27  1  0
 43 35  1  0
 42 37  1  0
  1 44  1  0
  1 45  1  0
  1 46  1  0
  3 47  1  0
  3 48  1  0
  3 49  1  0
  4 50  1  0
  4 51  1  0
  4 52  1  0
  8 53  1  0
  9 54  1  6
 10 55  1  0
 10 56  1  0
 11 57  1  0
 11 58  1  0
 13 59  1  0
 18 60  1  0
 18 61  1  0
 19 62  1  0
 19 63  1  0
 20 64  1  0
 20 65  1  0
 21 66  1  1
 24 67  1  0
 25 68  1  6
 26 69  1  0
 26 70  1  0
 28 71  1  0
 29 72  1  0
 30 73  1  0
 31 74  1  0
 32 75  1  0
 38 76  1  0
 39 77  1  0
 40 78  1  0
 41 79  1  0
M  END
$$$$
[H]Oc1c([H])c(F)c(C(=O)N2C([H])([H])c3nc(-c4nn([H])c5c([H])c(-c6c([H])c(F)c(O[H])c([H])c6C([H])([H])C([H])([H])[H])c([H])c([H])c45)n([H])c3C([H])([H])C2([H])[H])c([H])c1F
     RDKit          3D

 61 66  0  0  0  0  0  0  0  0999 V2000
   -7.4978   -2.3910    1.7743 C   0  0  0  0  0  0  0  0  0  0  0  0
   -6.3113   -1.4281    1.5900 C   0  0  0  0  0  0  0  0  0  0  0  0
   -6.7789   -0.3154    0.7423 C   0  0  0  0  0  0  0  0  0  0  0  0
   -8.1449   -0.1204    0.5224 C   0  0  0  0  0  0  0  0  0  0  0  0
   -8.6261    0.8976   -0.2729 C   0  0  0  0  0  0  0  0  0  0  0  0
  -10.0170    0.9978   -0.4225 O   0  0  0  0  0  0  0  0  0  0  0  0
   -7.7571    1.7790   -0.8933 C   0  0  0  0  0  0  0  0  0  0  0  0
   -8.2295    2.7745   -1.6708 F   0  0  0  0  0  0  0  0  0  0  0  0
   -6.4116    1.6036   -0.6892 C   0  0  0  0  0  0  0  0  0  0  0  0
   -5.9143    0.5677    0.1207 C   0  0  0  0  0  0  0  0  0  0  0  0
   -4.4701    0.4821    0.2887 C   0  0  0  0  0  0  0  0  0  0  0  0
   -3.6814    0.3994   -0.8715 C   0  0  0  0  0  0  0  0  0  0  0  0
   -2.2916    0.3363   -0.7968 C   0  0  0  0  0  0  0  0  0  0  0  0
   -1.6732    0.3539    0.4107 C   0  0  0  0  0  0  0  0  0  0  0  0
   -0.3567    0.3056    0.7927 C   0  0  0  0  0  0  0  0  0  0  0  0
   -0.3884    0.3595    2.1594 N   0  0  0  0  0  0  0  0  0  0  0  0
   -1.6316    0.4356    2.5834 N   0  0  0  0  0  0  0  0  0  0  0  0
   -2.4811    0.4370    1.5549 C   0  0  0  0  0  0  0  0  0  0  0  0
   -3.8565    0.5006    1.5076 C   0  0  0  0  0  0  0  0  0  0  0  0
    0.8601    0.2151   -0.0018 C   0  0  0  0  0  0  0  0  0  0  0  0
    2.0907    0.1702    0.6063 N   0  0  0  0  0  0  0  0  0  0  0  0
    3.0695    0.0845   -0.2972 C   0  0  0  0  0  0  0  0  0  0  0  0
    4.5393    0.0047   -0.1051 C   0  0  0  0  0  0  0  0  0  0  0  0
    5.2121   -0.3488   -1.3207 N   0  0  0  0  0  0  0  0  0  0  0  0
    4.5791   -0.6437   -2.5761 C   0  0  0  0  0  0  0  0  0  0  0  0
    3.2515   -0.0101   -2.7904 C   0  0  0  0  0  0  0  0  0  0  0  0
    2.4593    0.0737   -1.5149 C   0  0  0  0  0  0  0  0  0  0  0  0
    1.1282    0.1540   -1.2808 N   0  0  0  0  0  0  0  0  0  0  0  0
    6.6452   -0.4205   -1.2612 C   0  0  0  0  0  0  0  0  0  0  0  0
    7.2767   -0.7218   -2.3296 O   0  0  0  0  0  0  0  0  0  0  0  0
    7.4310   -0.1785   -0.0838 C   0  0  0  0  0  0  0  0  0  0  0  0
    7.9153    1.0507    0.2869 C   0  0  0  0  0  0  0  0  0  0  0  0
    8.6659    1.1931    1.4308 C   0  0  0  0  0  0  0  0  0  0  0  0
    9.1227    2.4135    1.7615 F   0  0  0  0  0  0  0  0  0  0  0  0
    8.9509    0.1135    2.2326 C   0  0  0  0  0  0  0  0  0  0  0  0
    9.7078    0.2797    3.3790 O   0  0  0  0  0  0  0  0  0  0  0  0
    8.4745   -1.1098    1.8732 C   0  0  0  0  0  0  0  0  0  0  0  0
    7.7235   -1.2628    0.7315 C   0  0  0  0  0  0  0  0  0  0  0  0
    7.2667   -2.4908    0.4023 F   0  0  0  0  0  0  0  0  0  0  0  0
   -7.0750   -3.3359    2.1877 H   0  0  0  0  0  0  0  0  0  0  0  0
   -8.1687   -1.9261    2.5207 H   0  0  0  0  0  0  0  0  0  0  0  0
   -7.9784   -2.6280    0.8071 H   0  0  0  0  0  0  0  0  0  0  0  0
   -5.5248   -2.0569    1.1103 H   0  0  0  0  0  0  0  0  0  0  0  0
   -6.0135   -1.1284    2.6170 H   0  0  0  0  0  0  0  0  0  0  0  0
   -8.8449   -0.7925    0.9909 H   0  0  0  0  0  0  0  0  0  0  0  0
  -10.4538    1.6981   -0.9730 H   0  0  0  0  0  0  0  0  0  0  0  0
   -5.7293    2.2879   -1.1718 H   0  0  0  0  0  0  0  0  0  0  0  0
   -4.1331    0.3824   -1.8438 H   0  0  0  0  0  0  0  0  0  0  0  0
   -1.7027    0.2727   -1.6859 H   0  0  0  0  0  0  0  0  0  0  0  0
   -1.9649    0.4910    3.5908 H   0  0  0  0  0  0  0  0  0  0  0  0
   -4.4430    0.5753    2.4229 H   0  0  0  0  0  0  0  0  0  0  0  0
    4.8738    0.9633    0.3486 H   0  0  0  0  0  0  0  0  0  0  0  0
    4.7732   -0.7987    0.6542 H   0  0  0  0  0  0  0  0  0  0  0  0
    4.4092   -1.7624   -2.5730 H   0  0  0  0  0  0  0  0  0  0  0  0
    5.2392   -0.4412   -3.4437 H   0  0  0  0  0  0  0  0  0  0  0  0
    3.3999    0.9980   -3.2079 H   0  0  0  0  0  0  0  0  0  0  0  0
    2.5986   -0.6110   -3.4807 H   0  0  0  0  0  0  0  0  0  0  0  0
    0.4538    0.1609   -2.0551 H   0  0  0  0  0  0  0  0  0  0  0  0
    7.6869    1.8920   -0.3464 H   0  0  0  0  0  0  0  0  0  0  0  0
   10.0558    1.1931    3.6367 H   0  0  0  0  0  0  0  0  0  0  0  0
    8.6906   -1.9749    2.4927 H   0  0  0  0  0  0  0  0  0  0  0  0
  1  2  1  0
  2  3  1  0
  3  4  2  0
  4  5  1  0
  5  6  1  0
  5  7  2  0
  7  8  1  0
  7  9  1  0
  9 10  2  0
 10 11  1  0
 11 12  2  0
 12 13  1  0
 13 14  2  0
 14 15  1  0
 15 16  2  0
 16 17  1  0
 17 18  1  0
 18 19  2  0
 15 20  1  0
 20 21  2  0
 21 22  1  0
 22 23  1  0
 23 24  1  0
 24 25  1  0
 25 26  1  0
 26 27  1  0
 27 28  1  0
 24 29  1  0
 29 30  2  0
 29 31  1  0
 31 32  2  0
 32 33  1  0
 33 34  1  0
 33 35  2  0
 35 36  1  0
 35 37  1  0
 37 38  2  0
 38 39  1  0
 10  3  1  0
 19 11  1  0
 28 20  1  0
 38 31  1  0
 18 14  1  0
 27 22  2  0
  1 40  1  0
  1 41  1  0
  1 42  1  0
  2 43  1  0
  2 44  1  0
  4 45  1  0
  6 46  1  0
  9 47  1  0
 12 48  1  0
 13 49  1  0
 17 50  1  0
 19 51  1  0
 23 52  1  0
 23 53  1  0
 25 54  1  0
 25 55  1  0
 26 56  1  0
 26 57  1  0
 28 58  1  0
 32 59  1  0
 36 60  1  0
 37 61  1  0
M  END
$$$$
[H]c1nc(N([H])[H])c2c(-c3c([H])c([H])c(Oc4c([H])c([H])c([H])c([H])c4[H])c([H])c3[H])c([H])n(C3([H])C([H])([H])C([H])([H])C([H])([H])C3([H])[H])c2n1
     RDKit          3D

 50 54  0  0  0  0  0  0  0  0999 V2000
   -0.2691   -3.7170    0.7737 N   0  0  0  0  0  0  0  0  0  0  0  0
   -1.5533   -3.1327    0.8918 C   0  0  0  0  0  0  0  0  0  0  0  0
   -2.6298   -3.8922    1.2460 N   0  0  0  0  0  0  0  0  0  0  0  0
   -3.8365   -3.3215    1.3258 C   0  0  0  0  0  0  0  0  0  0  0  0
   -4.0103   -2.0186    1.0648 N   0  0  0  0  0  0  0  0  0  0  0  0
   -2.9569   -1.2419    0.7110 C   0  0  0  0  0  0  0  0  0  0  0  0
   -2.8501    0.0626    0.3909 N   0  0  0  0  0  0  0  0  0  0  0  0
   -1.5794    0.3452    0.1050 C   0  0  0  0  0  0  0  0  0  0  0  0
   -0.7959   -0.8145    0.2377 C   0  0  0  0  0  0  0  0  0  0  0  0
    0.6506   -0.8766    0.0460 C   0  0  0  0  0  0  0  0  0  0  0  0
    1.5540   -1.2099    1.0252 C   0  0  0  0  0  0  0  0  0  0  0  0
    2.8996   -1.2579    0.7630 C   0  0  0  0  0  0  0  0  0  0  0  0
    3.3773   -0.9706   -0.4966 C   0  0  0  0  0  0  0  0  0  0  0  0
    4.7359   -1.0345   -0.7023 O   0  0  0  0  0  0  0  0  0  0  0  0
    5.5443    0.0990   -0.5048 C   0  0  0  0  0  0  0  0  0  0  0  0
    5.0098    1.3005   -0.1028 C   0  0  0  0  0  0  0  0  0  0  0  0
    5.7902    2.4228    0.0955 C   0  0  0  0  0  0  0  0  0  0  0  0
    7.1611    2.3503   -0.1143 C   0  0  0  0  0  0  0  0  0  0  0  0
    7.6941    1.1442   -0.5174 C   0  0  0  0  0  0  0  0  0  0  0  0
    6.8945    0.0366   -0.7090 C   0  0  0  0  0  0  0  0  0  0  0  0
    2.4945   -0.6324   -1.4999 C   0  0  0  0  0  0  0  0  0  0  0  0
    1.1552   -0.5908   -1.2160 C   0  0  0  0  0  0  0  0  0  0  0  0
   -1.6814   -1.7889    0.6150 C   0  0  0  0  0  0  0  0  0  0  0  0
   -4.0129    0.9317    0.3919 C   0  0  0  0  0  0  0  0  0  0  0  0
   -5.0568    0.4581   -0.6004 C   0  0  0  0  0  0  0  0  0  0  0  0
   -5.9758    1.6818   -0.6704 C   0  0  0  0  0  0  0  0  0  0  0  0
   -5.0932    2.8727   -0.3667 C   0  0  0  0  0  0  0  0  0  0  0  0
   -3.7068    2.3152   -0.0947 C   0  0  0  0  0  0  0  0  0  0  0  0
    0.1660   -3.8046   -0.1551 H   0  0  0  0  0  0  0  0  0  0  0  0
    0.2163   -4.0498    1.6297 H   0  0  0  0  0  0  0  0  0  0  0  0
   -4.7284   -3.9048    1.6093 H   0  0  0  0  0  0  0  0  0  0  0  0
   -1.1914    1.2933   -0.1819 H   0  0  0  0  0  0  0  0  0  0  0  0
    1.2067   -1.4341    2.0381 H   0  0  0  0  0  0  0  0  0  0  0  0
    3.6119   -1.5274    1.5594 H   0  0  0  0  0  0  0  0  0  0  0  0
    3.9499    1.4143    0.0751 H   0  0  0  0  0  0  0  0  0  0  0  0
    5.3744    3.3708    0.4119 H   0  0  0  0  0  0  0  0  0  0  0  0
    7.8051    3.2211    0.0342 H   0  0  0  0  0  0  0  0  0  0  0  0
    8.7739    1.1149   -0.6750 H   0  0  0  0  0  0  0  0  0  0  0  0
    7.3331   -0.8968   -1.0245 H   0  0  0  0  0  0  0  0  0  0  0  0
    2.8970   -0.4080   -2.4925 H   0  0  0  0  0  0  0  0  0  0  0  0
    0.4765   -0.3170   -2.0398 H   0  0  0  0  0  0  0  0  0  0  0  0
   -4.4969    0.9949    1.3760 H   0  0  0  0  0  0  0  0  0  0  0  0
   -4.5802    0.2889   -1.5824 H   0  0  0  0  0  0  0  0  0  0  0  0
   -5.6092   -0.4290   -0.2336 H   0  0  0  0  0  0  0  0  0  0  0  0
   -6.4398    1.7420   -1.6780 H   0  0  0  0  0  0  0  0  0  0  0  0
   -6.7949    1.5937    0.0863 H   0  0  0  0  0  0  0  0  0  0  0  0
   -5.0798    3.5510   -1.2626 H   0  0  0  0  0  0  0  0  0  0  0  0
   -5.4892    3.4534    0.4812 H   0  0  0  0  0  0  0  0  0  0  0  0
   -3.1641    2.9288    0.6419 H   0  0  0  0  0  0  0  0  0  0  0  0
   -3.1897    2.2834   -1.0908 H   0  0  0  0  0  0  0  0  0  0  0  0
  1  2  1  0
  2  3  2  0
  3  4  1  0
  4  5  2  0
  5  6  1  0
  6  7  1  0
  7  8  1  0
  8  9  2  0
  9 10  1  0
 10 11  2  0
 11 12  1  0
 12 13  2  0
 13 14  1  0
 14 15  1  0
 15 16  2  0
 16 17  1  0
 17 18  2  0
 18 19  1  0
 19 20  2  0
 13 21  1  0
 21 22  2  0
  9 23  1  0
  7 24  1  0
 24 25  1  0
 25 26  1  0
 26 27  1  0
 27 28  1  0
 23  2  1  0
 28 24  1  0
 23  6  2  0
 22 10  1  0
 20 15  1  0
  1 29  1  0
  1 30  1  0
  4 31  1  0
  8 32  1  0
 11 33  1  0
 12 34  1  0
 16 35  1  0
 17 36  1  0
 18 37  1  0
 19 38  1  0
 20 39  1  0
 21 40  1  0
 22 41  1  0
 24 42  1  0
 25 43  1  0
 25 44  1  0
 26 45  1  0
 26 46  1  0
 27 47  1  0
 27 48  1  0
 28 49  1  0
 28 50  1  0
M  END
$$$$
[H]c1nc2c([H])c([H])c([H])c(-c3c([H])nn4c([H])c(-c5c([H])nc(N6C([H])([H])C([H])([H])N([H])C([H])([H])C6([H])[H])c([H])c5[H])c([H])nc34)c2c([H])c1[H]
     RDKit          3D

 52 57  0  0  0  0  0  0  0  0999 V2000
   -7.5809   -1.5272    0.5485 C   0  0  0  0  0  0  0  0  0  0  0  0
   -6.1624   -1.3164    0.9606 C   0  0  0  0  0  0  0  0  0  0  0  0
   -5.6901   -0.0625    0.3729 N   0  0  0  0  0  0  0  0  0  0  0  0
   -6.6689    0.8795   -0.0215 C   0  0  0  0  0  0  0  0  0  0  0  0
   -7.6718    0.3105   -1.0107 C   0  0  0  0  0  0  0  0  0  0  0  0
   -7.8986   -1.1008   -0.7857 N   0  0  0  0  0  0  0  0  0  0  0  0
   -4.2944    0.1142    0.2419 C   0  0  0  0  0  0  0  0  0  0  0  0
   -3.7221    1.2392   -0.3018 C   0  0  0  0  0  0  0  0  0  0  0  0
   -2.3293    1.3483   -0.4031 C   0  0  0  0  0  0  0  0  0  0  0  0
   -1.4796    0.3539    0.0283 C   0  0  0  0  0  0  0  0  0  0  0  0
   -2.0995   -0.7547    0.5664 C   0  0  0  0  0  0  0  0  0  0  0  0
   -3.4305   -0.8527    0.6603 N   0  0  0  0  0  0  0  0  0  0  0  0
   -0.0352    0.4441   -0.0688 C   0  0  0  0  0  0  0  0  0  0  0  0
    0.7966   -0.1629    0.8509 C   0  0  0  0  0  0  0  0  0  0  0  0
    2.1399   -0.0782    0.7538 N   0  0  0  0  0  0  0  0  0  0  0  0
    2.6643    0.6104   -0.2581 C   0  0  0  0  0  0  0  0  0  0  0  0
    3.9990    0.8382   -0.5703 C   0  0  0  0  0  0  0  0  0  0  0  0
    3.9946    1.6073   -1.7137 C   0  0  0  0  0  0  0  0  0  0  0  0
    2.7215    1.8309   -2.0719 N   0  0  0  0  0  0  0  0  0  0  0  0
    1.9383    1.2314   -1.1962 N   0  0  0  0  0  0  0  0  0  0  0  0
    0.5820    1.1400   -1.0894 C   0  0  0  0  0  0  0  0  0  0  0  0
    5.1593    0.3866    0.1903 C   0  0  0  0  0  0  0  0  0  0  0  0
    5.1976    0.6665    1.5582 C   0  0  0  0  0  0  0  0  0  0  0  0
    6.2742    0.3026    2.3471 C   0  0  0  0  0  0  0  0  0  0  0  0
    7.3521   -0.3551    1.7951 C   0  0  0  0  0  0  0  0  0  0  0  0
    7.3284   -0.6397    0.4424 C   0  0  0  0  0  0  0  0  0  0  0  0
    8.3874   -1.2901   -0.0710 N   0  0  0  0  0  0  0  0  0  0  0  0
    8.4346   -1.6110   -1.3741 C   0  0  0  0  0  0  0  0  0  0  0  0
    7.3750   -1.2557   -2.1547 C   0  0  0  0  0  0  0  0  0  0  0  0
    6.2519   -0.5844   -1.6911 C   0  0  0  0  0  0  0  0  0  0  0  0
    6.2328   -0.2678   -0.3511 C   0  0  0  0  0  0  0  0  0  0  0  0
   -8.3149   -1.0970    1.2669 H   0  0  0  0  0  0  0  0  0  0  0  0
   -7.7707   -2.6339    0.5756 H   0  0  0  0  0  0  0  0  0  0  0  0
   -6.1267   -1.2038    2.0452 H   0  0  0  0  0  0  0  0  0  0  0  0
   -5.5600   -2.1831    0.6134 H   0  0  0  0  0  0  0  0  0  0  0  0
   -6.2830    1.7989   -0.4902 H   0  0  0  0  0  0  0  0  0  0  0  0
   -7.2556    1.2345    0.8687 H   0  0  0  0  0  0  0  0  0  0  0  0
   -7.3711    0.4687   -2.0477 H   0  0  0  0  0  0  0  0  0  0  0  0
   -8.6348    0.8307   -0.8436 H   0  0  0  0  0  0  0  0  0  0  0  0
   -8.9033   -1.3586   -0.9504 H   0  0  0  0  0  0  0  0  0  0  0  0
   -4.3519    2.0529   -0.6570 H   0  0  0  0  0  0  0  0  0  0  0  0
   -1.9562    2.2574   -0.8389 H   0  0  0  0  0  0  0  0  0  0  0  0
   -1.4514   -1.5580    0.9162 H   0  0  0  0  0  0  0  0  0  0  0  0
    0.3612   -0.7189    1.6681 H   0  0  0  0  0  0  0  0  0  0  0  0
    4.9002    1.9690   -2.2317 H   0  0  0  0  0  0  0  0  0  0  0  0
   -0.0391    1.6252   -1.8228 H   0  0  0  0  0  0  0  0  0  0  0  0
    4.3507    1.1852    2.0013 H   0  0  0  0  0  0  0  0  0  0  0  0
    6.3112    0.5182    3.4162 H   0  0  0  0  0  0  0  0  0  0  0  0
    8.2029   -0.6426    2.4119 H   0  0  0  0  0  0  0  0  0  0  0  0
    9.2669   -2.1265   -1.7984 H   0  0  0  0  0  0  0  0  0  0  0  0
    7.3971   -1.5110   -3.2235 H   0  0  0  0  0  0  0  0  0  0  0  0
    5.4623   -0.3520   -2.3581 H   0  0  0  0  0  0  0  0  0  0  0  0
  1  2  1  0
  2  3  1  0
  3  4  1  0
  4  5  1  0
  5  6  1  0
  3  7  1  0
  7  8  2  0
  8  9  1  0
  9 10  2  0
 10 11  1  0
 11 12  2  0
 10 13  1  0
 13 14  1  0
 14 15  2  0
 15 16  1  0
 16 17  2  0
 17 18  1  0
 18 19  2  0
 19 20  1  0
 20 21  1  0
 17 22  1  0
 22 23  2  0
 23 24  1  0
 24 25  2  0
 25 26  1  0
 26 27  2  0
 27 28  1  0
 28 29  2  0
 29 30  1  0
 30 31  2  0
  6  1  1  0
 12  7  1  0
 21 13  2  0
 31 22  1  0
 20 16  1  0
 31 26  1  0
  1 32  1  0
  1 33  1  0
  2 34  1  0
  2 35  1  0
  4 36  1  0
  4 37  1  0
  5 38  1  0
  5 39  1  0
  6 40  1  0
  8 41  1  0
  9 42  1  0
 11 43  1  0
 14 44  1  0
 18 45  1  0
 21 46  1  0
 23 47  1  0
 24 48  1  0
 25 49  1  0
 28 50  1  0
 29 51  1  0
 30 52  1  0
M  END
$$$$
[H]c1nc([H])c(-c2c(OC([H])(C([H])([H])[H])C([H])([H])[H])nc3sc(N([H])C(=O)N([H])C([H])([H])C([H])([H])[H])nc3c2[H])c([H])c1[H]
     RDKit          3D

 44 46  0  0  0  0  0  0  0  0999 V2000
    8.5370    0.1795    0.0749 C   0  0  0  0  0  0  0  0  0  0  0  0
    7.1107   -0.2122    0.3866 C   0  0  0  0  0  0  0  0  0  0  0  0
    6.2048    0.6006   -0.3728 N   0  0  0  0  0  0  0  0  0  0  0  0
    4.8146    0.4135   -0.2444 C   0  0  0  0  0  0  0  0  0  0  0  0
    4.3834   -0.4743    0.5437 O   0  0  0  0  0  0  0  0  0  0  0  0
    3.9247    1.2205   -0.9982 N   0  0  0  0  0  0  0  0  0  0  0  0
    2.4973    1.0526   -0.8882 C   0  0  0  0  0  0  0  0  0  0  0  0
    1.8212    0.2019   -0.1406 N   0  0  0  0  0  0  0  0  0  0  0  0
    0.5214    0.1948   -0.1720 C   0  0  0  0  0  0  0  0  0  0  0  0
   -0.3644   -0.6306    0.5466 C   0  0  0  0  0  0  0  0  0  0  0  0
   -1.7215   -0.5405    0.4258 C   0  0  0  0  0  0  0  0  0  0  0  0
   -2.5996   -1.4486    1.2111 C   0  0  0  0  0  0  0  0  0  0  0  0
   -2.3748   -1.6201    2.5424 C   0  0  0  0  0  0  0  0  0  0  0  0
   -3.1890   -2.4692    3.2686 C   0  0  0  0  0  0  0  0  0  0  0  0
   -4.2089   -3.1162    2.6060 C   0  0  0  0  0  0  0  0  0  0  0  0
   -4.4044   -2.9269    1.2964 N   0  0  0  0  0  0  0  0  0  0  0  0
   -3.6257   -2.1134    0.5962 C   0  0  0  0  0  0  0  0  0  0  0  0
   -2.2839    0.3864   -0.4262 C   0  0  0  0  0  0  0  0  0  0  0  0
   -3.6525    0.4531   -0.5249 O   0  0  0  0  0  0  0  0  0  0  0  0
   -4.2218    1.4006   -1.3947 C   0  0  0  0  0  0  0  0  0  0  0  0
   -5.2057    2.2583   -0.6557 C   0  0  0  0  0  0  0  0  0  0  0  0
   -4.9134    0.6148   -2.5060 C   0  0  0  0  0  0  0  0  0  0  0  0
   -1.4574    1.1874   -1.1246 N   0  0  0  0  0  0  0  0  0  0  0  0
   -0.0966    1.0949   -1.0018 C   0  0  0  0  0  0  0  0  0  0  0  0
    1.2475    1.9005   -1.6893 S   0  0  0  0  0  0  0  0  0  0  0  0
    8.7366    1.2124    0.3675 H   0  0  0  0  0  0  0  0  0  0  0  0
    9.2367   -0.4773    0.6532 H   0  0  0  0  0  0  0  0  0  0  0  0
    8.7491    0.0261   -1.0029 H   0  0  0  0  0  0  0  0  0  0  0  0
    6.9587   -0.0955    1.4889 H   0  0  0  0  0  0  0  0  0  0  0  0
    6.9815   -1.2757    0.0826 H   0  0  0  0  0  0  0  0  0  0  0  0
    6.5765    1.3228   -1.0133 H   0  0  0  0  0  0  0  0  0  0  0  0
    4.2853    1.9306   -1.6281 H   0  0  0  0  0  0  0  0  0  0  0  0
    0.0224   -1.3854    1.2385 H   0  0  0  0  0  0  0  0  0  0  0  0
   -1.5749   -1.1161    3.0751 H   0  0  0  0  0  0  0  0  0  0  0  0
   -3.0327   -2.6281    4.3440 H   0  0  0  0  0  0  0  0  0  0  0  0
   -4.8593   -3.7875    3.1602 H   0  0  0  0  0  0  0  0  0  0  0  0
   -3.8036   -1.9805   -0.4662 H   0  0  0  0  0  0  0  0  0  0  0  0
   -3.4334    2.0072   -1.9191 H   0  0  0  0  0  0  0  0  0  0  0  0
   -5.3776    1.8529    0.3737 H   0  0  0  0  0  0  0  0  0  0  0  0
   -6.2002    2.1815   -1.1789 H   0  0  0  0  0  0  0  0  0  0  0  0
   -4.8772    3.3261   -0.5927 H   0  0  0  0  0  0  0  0  0  0  0  0
   -5.6426   -0.1060   -2.0869 H   0  0  0  0  0  0  0  0  0  0  0  0
   -4.0877    0.0745   -3.0474 H   0  0  0  0  0  0  0  0  0  0  0  0
   -5.4004    1.3105   -3.2073 H   0  0  0  0  0  0  0  0  0  0  0  0
  1  2  1  0
  2  3  1  0
  3  4  1  0
  4  5  2  0
  4  6  1  0
  6  7  1  0
  7  8  2  0
  8  9  1  0
  9 10  2  0
 10 11  1  0
 11 12  1  0
 12 13  2  0
 13 14  1  0
 14 15  2  0
 15 16  1  0
 16 17  2  0
 11 18  2  0
 18 19  1  0
 19 20  1  0
 20 21  1  0
 20 22  1  0
 18 23  1  0
 23 24  2  0
 24 25  1  0
 25  7  1  0
 24  9  1  0
 17 12  1  0
  1 26  1  0
  1 27  1  0
  1 28  1  0
  2 29  1  0
  2 30  1  0
  3 31  1  0
  6 32  1  0
 10 33  1  0
 13 34  1  0
 14 35  1  0
 15 36  1  0
 17 37  1  0
 20 38  1  0
 21 39  1  0
 21 40  1  0
 21 41  1  0
 22 42  1  0
 22 43  1  0
 22 44  1  0
M  END
$$$$
[H]c1sc(-c2nc3c([H])c(N([H])C(=O)[C@@]([H])(Oc4c([H])c([H])c([H])c5c([H])c([H])c([H])c([H])c45)C([H])([H])[H])c([H])c([H])c3o2)c([H])c1[H]
     RDKit          3D

 48 52  0  0  0  0  0  0  0  0999 V2000
   -1.8477    3.2523    1.7968 C   0  0  0  0  0  0  0  0  0  0  0  0
   -1.9408    2.2735    0.6116 C   0  0  2  0  0  0  0  0  0  0  0  0
   -2.7778    1.3027    0.7188 O   0  0  0  0  0  0  0  0  0  0  0  0
   -3.6207    0.3251    0.8268 C   0  0  0  0  0  0  0  0  0  0  0  0
   -3.6696   -0.5772    1.8924 C   0  0  0  0  0  0  0  0  0  0  0  0
   -4.5737   -1.5918    1.9657 C   0  0  0  0  0  0  0  0  0  0  0  0
   -5.4790   -1.7335    0.9435 C   0  0  0  0  0  0  0  0  0  0  0  0
   -5.5030   -0.8886   -0.1468 C   0  0  0  0  0  0  0  0  0  0  0  0
   -6.4562   -1.0939   -1.1531 C   0  0  0  0  0  0  0  0  0  0  0  0
   -6.4441   -0.2292   -2.2211 C   0  0  0  0  0  0  0  0  0  0  0  0
   -5.5233    0.7928   -2.2815 C   0  0  0  0  0  0  0  0  0  0  0  0
   -4.6000    0.9707   -1.2804 C   0  0  0  0  0  0  0  0  0  0  0  0
   -4.5821    0.1127   -0.1812 C   0  0  0  0  0  0  0  0  0  0  0  0
   -0.5105    1.8142    0.4102 C   0  0  0  0  0  0  0  0  0  0  0  0
    0.3006    2.7783    0.3560 O   0  0  0  0  0  0  0  0  0  0  0  0
   -0.1881    0.4635    0.3031 N   0  0  0  0  0  0  0  0  0  0  0  0
    1.0597   -0.1144    0.1212 C   0  0  0  0  0  0  0  0  0  0  0  0
    1.1714   -1.5105    0.0146 C   0  0  0  0  0  0  0  0  0  0  0  0
    2.3889   -2.1187   -0.1649 C   0  0  0  0  0  0  0  0  0  0  0  0
    3.5617   -1.4045   -0.2504 C   0  0  0  0  0  0  0  0  0  0  0  0
    4.8191   -1.7562   -0.4173 O   0  0  0  0  0  0  0  0  0  0  0  0
    5.5262   -0.6540   -0.4238 C   0  0  0  0  0  0  0  0  0  0  0  0
    4.7262    0.4146   -0.2608 N   0  0  0  0  0  0  0  0  0  0  0  0
    3.4643   -0.0375   -0.1475 C   0  0  0  0  0  0  0  0  0  0  0  0
    2.2155    0.5829    0.0365 C   0  0  0  0  0  0  0  0  0  0  0  0
    6.9979   -0.5563   -0.5849 C   0  0  0  0  0  0  0  0  0  0  0  0
    7.8839   -1.5924   -0.7565 C   0  0  0  0  0  0  0  0  0  0  0  0
    9.1767   -1.2721   -0.8820 C   0  0  0  0  0  0  0  0  0  0  0  0
    9.5096    0.0528   -0.8295 C   0  0  0  0  0  0  0  0  0  0  0  0
    8.0018    0.8171   -0.6056 S   0  0  0  0  0  0  0  0  0  0  0  0
   -1.4001    2.7739    2.6693 H   0  0  0  0  0  0  0  0  0  0  0  0
   -1.1636    4.0649    1.4553 H   0  0  0  0  0  0  0  0  0  0  0  0
   -2.8265    3.7240    1.9994 H   0  0  0  0  0  0  0  0  0  0  0  0
   -2.1560    2.9960   -0.2634 H   0  0  0  0  0  0  0  0  0  0  0  0
   -2.9293   -0.4217    2.6786 H   0  0  0  0  0  0  0  0  0  0  0  0
   -4.5896   -2.2903    2.8198 H   0  0  0  0  0  0  0  0  0  0  0  0
   -6.2069   -2.5261    0.9722 H   0  0  0  0  0  0  0  0  0  0  0  0
   -7.1546   -1.9031   -1.0647 H   0  0  0  0  0  0  0  0  0  0  0  0
   -7.1812   -0.3726   -3.0184 H   0  0  0  0  0  0  0  0  0  0  0  0
   -5.5488    1.4499   -3.1390 H   0  0  0  0  0  0  0  0  0  0  0  0
   -3.8848    1.7670   -1.3314 H   0  0  0  0  0  0  0  0  0  0  0  0
   -1.0192   -0.2092    0.3653 H   0  0  0  0  0  0  0  0  0  0  0  0
    0.2588   -2.1258    0.0772 H   0  0  0  0  0  0  0  0  0  0  0  0
    2.4312   -3.2092   -0.2430 H   0  0  0  0  0  0  0  0  0  0  0  0
    2.2596    1.6427    0.1035 H   0  0  0  0  0  0  0  0  0  0  0  0
    7.5199   -2.6487   -0.7870 H   0  0  0  0  0  0  0  0  0  0  0  0
    9.9833   -2.0251   -1.0253 H   0  0  0  0  0  0  0  0  0  0  0  0
   10.5208    0.4907   -0.9149 H   0  0  0  0  0  0  0  0  0  0  0  0
  1  2  1  0
  2  3  1  0
  3  4  1  0
  4  5  2  0
  5  6  1  0
  6  7  2  0
  7  8  1  0
  8  9  2  0
  9 10  1  0
 10 11  2  0
 11 12  1  0
 12 13  2  0
  2 14  1  0
 14 15  2  0
 14 16  1  0
 16 17  1  0
 17 18  2  0
 18 19  1  0
 19 20  2  0
 20 21  1  0
 21 22  1  0
 22 23  2  0
 23 24  1  0
 24 25  2  0
 22 26  1  0
 26 27  2  0
 27 28  1  0
 28 29  2  0
 29 30  1  0
 13  4  1  0
 25 17  1  0
 30 26  1  0
 13  8  1  0
 24 20  1  0
  1 31  1  0
  1 32  1  0
  1 33  1  0
  2 34  1  6
  5 35  1  0
  6 36  1  0
  7 37  1  0
  9 38  1  0
 10 39  1  0
 11 40  1  0
 12 41  1  0
 16 42  1  0
 18 43  1  0
 19 44  1  0
 25 45  1  0
 27 46  1  0
 28 47  1  0
 29 48  1  0
M  END
$$$$
[H]OC(=O)c1[se]c(-c2c([H])c([H])c(C([H])([H])[H])c(C#N)c2[H])nc1C([H])([H])[H]
     RDKit          3D

 28 29  0  0  0  0  0  0  0  0999 V2000
   -4.0477   -1.5415   -0.8615 C   0  0  0  0  0  0  0  0  0  0  0  0
   -2.9491   -0.5809   -0.3175 C   0  0  0  0  0  0  0  0  0  0  0  0
   -1.7087   -0.7864   -0.4511 N   0  0  0  0  0  0  0  0  0  0  0  0
   -0.6488   -0.2520   -0.1535 C   0  0  0  0  0  0  0  0  0  0  0  0
   -1.7191    1.4328    0.8358 Se  0  0  0  0  0  2  0  0  0  0  0  0
   -3.4472    0.5252    0.3296 C   0  0  0  0  0  0  0  0  0  0  0  0
   -4.7880    0.9857    0.6124 C   0  0  0  0  0  0  0  0  0  0  0  0
   -5.0034    2.1592    1.2950 O   0  0  0  0  0  0  0  0  0  0  0  0
   -5.7576    0.3101    0.2325 O   0  0  0  0  0  0  0  0  0  0  0  0
    0.7736   -0.1741   -0.1248 C   0  0  0  0  0  0  0  0  0  0  0  0
    1.4737   -1.2097   -0.7334 C   0  0  0  0  0  0  0  0  0  0  0  0
    2.8439   -1.2347   -0.7638 C   0  0  0  0  0  0  0  0  0  0  0  0
    3.5429   -0.2025   -0.1734 C   0  0  0  0  0  0  0  0  0  0  0  0
    5.0352   -0.1823   -0.1789 C   0  0  0  0  0  0  0  0  0  0  0  0
    2.8777    0.8346    0.4357 C   0  0  0  0  0  0  0  0  0  0  0  0
    1.5107    0.8280    0.4476 C   0  0  0  0  0  0  0  0  0  0  0  0
    3.6278    1.9278    1.0608 C   0  0  0  0  0  0  0  0  0  0  0  0
    4.2256    2.7778    1.5442 N   0  0  0  0  0  0  0  0  0  0  0  0
   -3.5752   -2.3674   -1.4253 H   0  0  0  0  0  0  0  0  0  0  0  0
   -4.6688   -1.8822   -0.0090 H   0  0  0  0  0  0  0  0  0  0  0  0
   -4.6935   -1.0032   -1.5524 H   0  0  0  0  0  0  0  0  0  0  0  0
   -4.3897    2.4633    2.0432 H   0  0  0  0  0  0  0  0  0  0  0  0
    0.9373   -2.0226   -1.1984 H   0  0  0  0  0  0  0  0  0  0  0  0
    3.3929   -2.0381   -1.2359 H   0  0  0  0  0  0  0  0  0  0  0  0
    5.3558    0.6781   -0.8327 H   0  0  0  0  0  0  0  0  0  0  0  0
    5.4558   -1.1091   -0.6017 H   0  0  0  0  0  0  0  0  0  0  0  0
    5.3618    0.0116    0.8445 H   0  0  0  0  0  0  0  0  0  0  0  0
    0.9820    1.6526    0.9319 H   0  0  0  0  0  0  0  0  0  0  0  0
  1  2  1  0
  2  3  1  0
  3  4  2  0
  4  5  1  0
  5  6  1  0
  6  7  1  0
  7  8  1  0
  7  9  2  0
  4 10  1  0
 10 11  2  0
 11 12  1  0
 12 13  2  0
 13 14  1  0
 13 15  1  0
 15 16  2  0
 15 17  1  0
 17 18  3  0
  6  2  2  0
 16 10  1  0
  1 19  1  0
  1 20  1  0
  1 21  1  0
  8 22  1  0
 11 23  1  0
 12 24  1  0
 14 25  1  0
 14 26  1  0
 14 27  1  0
 16 28  1  0
M  END
$$$$
[H]c1c(OC([H])([H])[H])c(OC([H])([H])[H])c(OC([H])([H])[H])c([H])c1C(=O)N1C([H])([H])C([H])([H])C([H])([H])[C@]([H])(C(=O)N([H])c2nc3c([H])c([H])c([H])c([H])c3s2)C1([H])[H]
     RDKit          3D

 57 60  0  0  0  0  0  0  0  0999 V2000
   -4.9416   -2.2322   -2.4095 C   0  0  0  0  0  0  0  0  0  0  0  0
   -5.6788   -1.4513   -1.5019 O   0  0  0  0  0  0  0  0  0  0  0  0
   -5.0026   -0.5493   -0.6931 C   0  0  0  0  0  0  0  0  0  0  0  0
   -3.6102   -0.4129   -0.7729 C   0  0  0  0  0  0  0  0  0  0  0  0
   -2.8625    0.4455   -0.0222 C   0  0  0  0  0  0  0  0  0  0  0  0
   -3.6199    1.2252    0.8886 C   0  0  0  0  0  0  0  0  0  0  0  0
   -4.9786    1.1376    1.0139 C   0  0  0  0  0  0  0  0  0  0  0  0
   -5.6143    1.9502    1.9389 O   0  0  0  0  0  0  0  0  0  0  0  0
   -4.9404    2.8635    2.7595 C   0  0  0  0  0  0  0  0  0  0  0  0
   -5.6603    0.2447    0.2152 C   0  0  0  0  0  0  0  0  0  0  0  0
   -7.0315    0.1497    0.3337 O   0  0  0  0  0  0  0  0  0  0  0  0
   -7.6960   -0.7260    1.2115 C   0  0  0  0  0  0  0  0  0  0  0  0
   -1.4365    0.6762   -0.0915 C   0  0  0  0  0  0  0  0  0  0  0  0
   -0.9059    1.3642    0.8918 O   0  0  0  0  0  0  0  0  0  0  0  0
   -0.5562    0.2577   -1.0783 N   0  0  0  0  0  0  0  0  0  0  0  0
   -0.7592   -0.4366   -2.2977 C   0  0  0  0  0  0  0  0  0  0  0  0
   -0.2392   -1.8677   -2.2168 C   0  0  0  0  0  0  0  0  0  0  0  0
    0.9880   -1.8950   -1.3076 C   0  0  0  0  0  0  0  0  0  0  0  0
    1.7047   -0.5732   -1.4072 C   0  0  1  0  0  0  0  0  0  0  0  0
    0.9010    0.5421   -0.8098 C   0  0  0  0  0  0  0  0  0  0  0  0
    2.9867   -0.6678   -0.6686 C   0  0  0  0  0  0  0  0  0  0  0  0
    3.2769   -1.7471   -0.1066 O   0  0  0  0  0  0  0  0  0  0  0  0
    3.8358    0.4609   -0.6241 N   0  0  0  0  0  0  0  0  0  0  0  0
    5.0778    0.3761    0.0889 C   0  0  0  0  0  0  0  0  0  0  0  0
    6.0077    1.2964    0.2555 N   0  0  0  0  0  0  0  0  0  0  0  0
    7.0781    1.0317    0.9414 C   0  0  0  0  0  0  0  0  0  0  0  0
    8.1453    1.9225    1.1944 C   0  0  0  0  0  0  0  0  0  0  0  0
    9.2071    1.5074    1.9317 C   0  0  0  0  0  0  0  0  0  0  0  0
    9.3363    0.2534    2.4706 C   0  0  0  0  0  0  0  0  0  0  0  0
    8.3104   -0.6278    2.2367 C   0  0  0  0  0  0  0  0  0  0  0  0
    7.1987   -0.2232    1.4759 C   0  0  0  0  0  0  0  0  0  0  0  0
    5.7428   -0.9565    0.9510 S   0  0  0  0  0  0  0  0  0  0  0  0
   -5.5913   -2.7875   -3.1164 H   0  0  0  0  0  0  0  0  0  0  0  0
   -4.2872   -1.5895   -3.0673 H   0  0  0  0  0  0  0  0  0  0  0  0
   -4.2290   -2.9276   -1.8833 H   0  0  0  0  0  0  0  0  0  0  0  0
   -3.1443   -1.0761   -1.4578 H   0  0  0  0  0  0  0  0  0  0  0  0
   -3.0540    1.9223    1.5046 H   0  0  0  0  0  0  0  0  0  0  0  0
   -5.6971    3.4564    3.3131 H   0  0  0  0  0  0  0  0  0  0  0  0
   -4.3646    3.5687    2.1241 H   0  0  0  0  0  0  0  0  0  0  0  0
   -4.2030    2.3829    3.4358 H   0  0  0  0  0  0  0  0  0  0  0  0
   -8.2982   -0.2000    1.9800 H   0  0  0  0  0  0  0  0  0  0  0  0
   -7.0449   -1.4435    1.7156 H   0  0  0  0  0  0  0  0  0  0  0  0
   -8.4274   -1.3164    0.5910 H   0  0  0  0  0  0  0  0  0  0  0  0
   -1.6824   -0.3924   -2.8224 H   0  0  0  0  0  0  0  0  0  0  0  0
   -0.0215    0.0732   -3.0413 H   0  0  0  0  0  0  0  0  0  0  0  0
   -0.9623   -2.5879   -1.8515 H   0  0  0  0  0  0  0  0  0  0  0  0
    0.0917   -2.1512   -3.2294 H   0  0  0  0  0  0  0  0  0  0  0  0
    1.6798   -2.7053   -1.6003 H   0  0  0  0  0  0  0  0  0  0  0  0
    0.6905   -2.0387   -0.2620 H   0  0  0  0  0  0  0  0  0  0  0  0
    1.8810   -0.4051   -2.4995 H   0  0  0  0  0  0  0  0  0  0  0  0
    1.1430    1.4934   -1.3200 H   0  0  0  0  0  0  0  0  0  0  0  0
    1.0605    0.5665    0.2825 H   0  0  0  0  0  0  0  0  0  0  0  0
    3.5934    1.3418   -1.0858 H   0  0  0  0  0  0  0  0  0  0  0  0
    8.1333    2.9356    0.8097 H   0  0  0  0  0  0  0  0  0  0  0  0
   10.0144    2.2216    2.1080 H   0  0  0  0  0  0  0  0  0  0  0  0
   10.1782   -0.0459    3.0441 H   0  0  0  0  0  0  0  0  0  0  0  0
    8.2779   -1.6335    2.5942 H   0  0  0  0  0  0  0  0  0  0  0  0
  1  2  1  0
  2  3  1  0
  3  4  2  0
  4  5  1  0
  5  6  2  0
  6  7  1  0
  7  8  1  0
  8  9  1  0
  7 10  2  0
 10 11  1  0
 11 12  1  0
  5 13  1  0
 13 14  2  0
 13 15  1  0
 15 16  1  0
 16 17  1  0
 17 18  1  0
 18 19  1  0
 19 20  1  0
 19 21  1  0
 21 22  2  0
 21 23  1  0
 23 24  1  0
 24 25  2  0
 25 26  1  0
 26 27  2  0
 27 28  1  0
 28 29  2  0
 29 30  1  0
 30 31  2  0
 31 32  1  0
 10  3  1  0
 20 15  1  0
 32 24  1  0
 31 26  1  0
  1 33  1  0
  1 34  1  0
  1 35  1  0
  4 36  1  0
  6 37  1  0
  9 38  1  0
  9 39  1  0
  9 40  1  0
 12 41  1  0
 12 42  1  0
 12 43  1  0
 16 44  1  0
 16 45  1  0
 17 46  1  0
 17 47  1  0
 18 48  1  0
 18 49  1  0
 19 50  1  6
 20 51  1  0
 20 52  1  0
 23 53  1  0
 27 54  1  0
 28 55  1  0
 29 56  1  0
 30 57  1  0
M  END
$$$$
[H]OC(=O)C([H])([H])[C@@]([H])(C(=O)N([H])[H])N([H])C(=O)[C@@]([H])(N([H])C(=O)[C@@]([H])(N([H])C(=O)[C@@]([H])(N([H])C(=O)[C@@]([H])(N([H])C(=O)[C@@]([H])(N([H])C(=O)C([H])([H])[H])C([H])([H])c1c([H])c([H])c(O[H])c([H])c1[H])C([H])([H])c1c([H])c([H])c(O[H])c([H])c1[H])C([H])([H])c1c([H])c([H])c([H])c([H])c1[H])C([H])([H])C([H])(C([H])([H])[H])C([H])([H])[H])C([H])([H])C([H])(C([H])([H])[H])C([H])([H])[H]
     RDKit          3D

122124  0  0  0  0  0  0  0  0999 V2000
    7.7216   -1.8446    0.4752 C   0  0  0  0  0  0  0  0  0  0  0  0
    6.5184   -1.7456    1.3701 C   0  0  0  0  0  0  0  0  0  0  0  0
    5.4800   -2.7405    0.9725 C   0  0  0  0  0  0  0  0  0  0  0  0
    6.0491   -0.3751    1.6729 C   0  0  0  0  0  0  0  0  0  0  0  0
    5.6360    0.5094    0.5611 C   0  0  2  0  0  0  0  0  0  0  0  0
    4.5382   -0.0819   -0.1742 N   0  0  0  0  0  0  0  0  0  0  0  0
    3.2094    0.3983   -0.1059 C   0  0  0  0  0  0  0  0  0  0  0  0
    3.0956    1.4348    0.6765 O   0  0  0  0  0  0  0  0  0  0  0  0
    2.0509   -0.1261   -0.7685 C   0  0  2  0  0  0  0  0  0  0  0  0
    1.8593    0.0032   -2.2309 C   0  0  0  0  0  0  0  0  0  0  0  0
    2.8028   -0.5876   -3.1901 C   0  0  0  0  0  0  0  0  0  0  0  0
    2.9716   -2.0931   -3.0499 C   0  0  0  0  0  0  0  0  0  0  0  0
    4.0416    0.1624   -3.5192 C   0  0  0  0  0  0  0  0  0  0  0  0
    0.8476    0.5286   -0.1286 N   0  0  0  0  0  0  0  0  0  0  0  0
   -0.2019   -0.2544    0.3880 C   0  0  0  0  0  0  0  0  0  0  0  0
   -0.1062   -1.4933    0.3165 O   0  0  0  0  0  0  0  0  0  0  0  0
   -1.3788    0.3711    0.9826 C   0  0  2  0  0  0  0  0  0  0  0  0
   -1.1116    1.1363    2.2658 C   0  0  0  0  0  0  0  0  0  0  0  0
   -0.5855    0.3423    3.3662 C   0  0  0  0  0  0  0  0  0  0  0  0
    0.7667    0.2383    3.5704 C   0  0  0  0  0  0  0  0  0  0  0  0
    1.2664   -0.5180    4.6230 C   0  0  0  0  0  0  0  0  0  0  0  0
    0.4415   -1.1902    5.4985 C   0  0  0  0  0  0  0  0  0  0  0  0
   -0.9245   -1.0799    5.2846 C   0  0  0  0  0  0  0  0  0  0  0  0
   -1.4098   -0.3298    4.2416 C   0  0  0  0  0  0  0  0  0  0  0  0
   -2.4897   -0.5646    1.1963 N   0  0  0  0  0  0  0  0  0  0  0  0
   -3.7273   -0.3738    0.5636 C   0  0  0  0  0  0  0  0  0  0  0  0
   -3.8367    0.6365   -0.2036 O   0  0  0  0  0  0  0  0  0  0  0  0
   -4.8954   -1.2363    0.7168 C   0  0  2  0  0  0  0  0  0  0  0  0
   -4.6879   -2.6805    0.2903 C   0  0  0  0  0  0  0  0  0  0  0  0
   -4.3231   -2.8526   -1.1104 C   0  0  0  0  0  0  0  0  0  0  0  0
   -5.2591   -2.9230   -2.1125 C   0  0  0  0  0  0  0  0  0  0  0  0
   -4.8958   -3.1024   -3.4476 C   0  0  0  0  0  0  0  0  0  0  0  0
   -3.5670   -3.2157   -3.7997 C   0  0  0  0  0  0  0  0  0  0  0  0
   -3.1818   -3.3971   -5.1418 O   0  0  0  0  0  0  0  0  0  0  0  0
   -2.6281   -3.1462   -2.7937 C   0  0  0  0  0  0  0  0  0  0  0  0
   -3.0055   -2.9689   -1.4833 C   0  0  0  0  0  0  0  0  0  0  0  0
   -6.0456   -0.6902   -0.0331 N   0  0  0  0  0  0  0  0  0  0  0  0
   -7.3366   -0.5485    0.5265 C   0  0  0  0  0  0  0  0  0  0  0  0
   -7.5917   -0.8896    1.7295 O   0  0  0  0  0  0  0  0  0  0  0  0
   -8.4612   -0.0010   -0.2564 C   0  0  2  0  0  0  0  0  0  0  0  0
   -8.7106    1.4618   -0.0644 C   0  0  0  0  0  0  0  0  0  0  0  0
   -7.6042    2.3590   -0.3984 C   0  0  0  0  0  0  0  0  0  0  0  0
   -7.4379    2.8061   -1.6853 C   0  0  0  0  0  0  0  0  0  0  0  0
   -6.3995    3.6937   -2.0123 C   0  0  0  0  0  0  0  0  0  0  0  0
   -5.5361    4.1212   -1.0235 C   0  0  0  0  0  0  0  0  0  0  0  0
   -4.5234    4.9966   -1.3854 O   0  0  0  0  0  0  0  0  0  0  0  0
   -5.6950    3.6782    0.2733 C   0  0  0  0  0  0  0  0  0  0  0  0
   -6.7210    2.8054    0.5744 C   0  0  0  0  0  0  0  0  0  0  0  0
   -9.7003   -0.6546    0.2202 N   0  0  0  0  0  0  0  0  0  0  0  0
  -10.5413   -1.3444   -0.6622 C   0  0  0  0  0  0  0  0  0  0  0  0
  -11.7784   -1.9979   -0.1754 C   0  0  0  0  0  0  0  0  0  0  0  0
  -10.2383   -1.4101   -1.8956 O   0  0  0  0  0  0  0  0  0  0  0  0
    6.6863    1.1290   -0.2298 C   0  0  0  0  0  0  0  0  0  0  0  0
    6.7641    1.2027   -1.4798 O   0  0  0  0  0  0  0  0  0  0  0  0
    7.7756    1.7377    0.4784 N   0  0  0  0  0  0  0  0  0  0  0  0
    8.8847    2.3963   -0.2256 C   0  0  1  0  0  0  0  0  0  0  0  0
    8.9087    3.8390    0.1717 C   0  0  0  0  0  0  0  0  0  0  0  0
    9.9938    4.5597   -0.5076 C   0  0  0  0  0  0  0  0  0  0  0  0
    9.7612    4.9202   -1.8409 O   0  0  0  0  0  0  0  0  0  0  0  0
   11.0896    4.8565    0.0472 O   0  0  0  0  0  0  0  0  0  0  0  0
   10.1348    1.7315    0.1767 C   0  0  0  0  0  0  0  0  0  0  0  0
   11.4088    2.0087   -0.3738 N   0  0  0  0  0  0  0  0  0  0  0  0
   10.1009    0.8464    1.0698 O   0  0  0  0  0  0  0  0  0  0  0  0
    7.6409   -1.3452   -0.4870 H   0  0  0  0  0  0  0  0  0  0  0  0
    8.6378   -1.6331    1.0423 H   0  0  0  0  0  0  0  0  0  0  0  0
    7.8086   -2.9472    0.2151 H   0  0  0  0  0  0  0  0  0  0  0  0
    6.9117   -2.1314    2.3808 H   0  0  0  0  0  0  0  0  0  0  0  0
    4.4869   -2.4070    1.2833 H   0  0  0  0  0  0  0  0  0  0  0  0
    5.5483   -3.0383   -0.0995 H   0  0  0  0  0  0  0  0  0  0  0  0
    5.6816   -3.7006    1.5203 H   0  0  0  0  0  0  0  0  0  0  0  0
    6.8776    0.1342    2.2490 H   0  0  0  0  0  0  0  0  0  0  0  0
    5.2010   -0.4080    2.4009 H   0  0  0  0  0  0  0  0  0  0  0  0
    5.1287    1.4004    1.0938 H   0  0  0  0  0  0  0  0  0  0  0  0
    4.7514   -0.8992   -0.7670 H   0  0  0  0  0  0  0  0  0  0  0  0
    1.9195   -1.2123   -0.4551 H   0  0  0  0  0  0  0  0  0  0  0  0
    0.8360   -0.4781   -2.4356 H   0  0  0  0  0  0  0  0  0  0  0  0
    1.6513    1.0794   -2.5055 H   0  0  0  0  0  0  0  0  0  0  0  0
    2.2115   -0.5468   -4.2165 H   0  0  0  0  0  0  0  0  0  0  0  0
    3.4530   -2.4427   -3.9966 H   0  0  0  0  0  0  0  0  0  0  0  0
    3.6216   -2.4017   -2.2361 H   0  0  0  0  0  0  0  0  0  0  0  0
    1.9459   -2.5256   -3.0414 H   0  0  0  0  0  0  0  0  0  0  0  0
    3.9267    1.1983   -3.1411 H   0  0  0  0  0  0  0  0  0  0  0  0
    4.9871   -0.3226   -3.1701 H   0  0  0  0  0  0  0  0  0  0  0  0
    4.2247    0.2974   -4.6276 H   0  0  0  0  0  0  0  0  0  0  0  0
    0.8081    1.5622   -0.0758 H   0  0  0  0  0  0  0  0  0  0  0  0
   -1.7407    1.1432    0.2671 H   0  0  0  0  0  0  0  0  0  0  0  0
   -2.0275    1.6586    2.6089 H   0  0  0  0  0  0  0  0  0  0  0  0
   -0.4149    1.9762    1.9685 H   0  0  0  0  0  0  0  0  0  0  0  0
    1.4591    0.7532    2.9066 H   0  0  0  0  0  0  0  0  0  0  0  0
    2.3407   -0.5588    4.7271 H   0  0  0  0  0  0  0  0  0  0  0  0
    0.8596   -1.7835    6.3263 H   0  0  0  0  0  0  0  0  0  0  0  0
   -1.5667   -1.6104    5.9721 H   0  0  0  0  0  0  0  0  0  0  0  0
   -2.4760   -0.2603    4.0956 H   0  0  0  0  0  0  0  0  0  0  0  0
   -2.3646   -1.3780    1.8213 H   0  0  0  0  0  0  0  0  0  0  0  0
   -5.2453   -1.3050    1.7679 H   0  0  0  0  0  0  0  0  0  0  0  0
   -5.6576   -3.2020    0.5368 H   0  0  0  0  0  0  0  0  0  0  0  0
   -3.9583   -3.1205    1.0058 H   0  0  0  0  0  0  0  0  0  0  0  0
   -6.3255   -2.8447   -1.9192 H   0  0  0  0  0  0  0  0  0  0  0  0
   -5.6237   -3.1606   -4.2470 H   0  0  0  0  0  0  0  0  0  0  0  0
   -3.0793   -4.3263   -5.5575 H   0  0  0  0  0  0  0  0  0  0  0  0
   -1.5774   -3.2353   -3.0662 H   0  0  0  0  0  0  0  0  0  0  0  0
   -2.2742   -2.9266   -0.6962 H   0  0  0  0  0  0  0  0  0  0  0  0
   -5.9040   -0.3964   -1.0220 H   0  0  0  0  0  0  0  0  0  0  0  0
   -8.3834   -0.2180   -1.3213 H   0  0  0  0  0  0  0  0  0  0  0  0
   -9.5486    1.7199   -0.7806 H   0  0  0  0  0  0  0  0  0  0  0  0
   -9.1638    1.6889    0.9348 H   0  0  0  0  0  0  0  0  0  0  0  0
   -8.1046    2.4833   -2.4836 H   0  0  0  0  0  0  0  0  0  0  0  0
   -6.3019    4.0246   -3.0476 H   0  0  0  0  0  0  0  0  0  0  0  0
   -3.6048    4.6702   -1.6929 H   0  0  0  0  0  0  0  0  0  0  0  0
   -4.9957    4.0391    1.0193 H   0  0  0  0  0  0  0  0  0  0  0  0
   -6.8131    2.4803    1.6044 H   0  0  0  0  0  0  0  0  0  0  0  0
   -9.9392   -0.5940    1.2309 H   0  0  0  0  0  0  0  0  0  0  0  0
  -12.6588   -1.4235   -0.5837 H   0  0  0  0  0  0  0  0  0  0  0  0
  -11.8921   -3.0393   -0.5387 H   0  0  0  0  0  0  0  0  0  0  0  0
  -11.8506   -1.9655    0.9121 H   0  0  0  0  0  0  0  0  0  0  0  0
    7.8281    1.7434    1.5133 H   0  0  0  0  0  0  0  0  0  0  0  0
    8.6702    2.2957   -1.3062 H   0  0  0  0  0  0  0  0  0  0  0  0
    9.0660    3.9127    1.2794 H   0  0  0  0  0  0  0  0  0  0  0  0
    7.9377    4.3504   -0.0260 H   0  0  0  0  0  0  0  0  0  0  0  0
    9.0575    4.4945   -2.4191 H   0  0  0  0  0  0  0  0  0  0  0  0
   11.4676    2.2233   -1.3895 H   0  0  0  0  0  0  0  0  0  0  0  0
   12.2775    2.0057    0.1908 H   0  0  0  0  0  0  0  0  0  0  0  0
  1  2  1  0
  2  3  1  0
  2  4  1  0
  4  5  1  0
  5  6  1  0
  6  7  1  0
  7  8  2  0
  7  9  1  0
  9 10  1  0
 10 11  1  0
 11 12  1  0
 11 13  1  0
  9 14  1  0
 14 15  1  0
 15 16  2  0
 15 17  1  0
 17 18  1  0
 18 19  1  0
 19 20  2  0
 20 21  1  0
 21 22  2  0
 22 23  1  0
 23 24  2  0
 17 25  1  0
 25 26  1  0
 26 27  2  0
 26 28  1  0
 28 29  1  0
 29 30  1  0
 30 31  2  0
 31 32  1  0
 32 33  2  0
 33 34  1  0
 33 35  1  0
 35 36  2  0
 28 37  1  0
 37 38  1  0
 38 39  2  0
 38 40  1  0
 40 41  1  0
 41 42  1  0
 42 43  2  0
 43 44  1  0
 44 45  2  0
 45 46  1  0
 45 47  1  0
 47 48  2  0
 40 49  1  0
 49 50  1  0
 50 51  1  0
 50 52  2  0
  5 53  1  0
 53 54  2  0
 53 55  1  0
 55 56  1  0
 56 57  1  0
 57 58  1  0
 58 59  1  0
 58 60  2  0
 56 61  1  0
 61 62  1  0
 61 63  2  0
 24 19  1  0
 36 30  1  0
 48 42  1  0
  1 64  1  0
  1 65  1  0
  1 66  1  0
  2 67  1  0
  3 68  1  0
  3 69  1  0
  3 70  1  0
  4 71  1  0
  4 72  1  0
  5 73  1  1
  6 74  1  0
  9 75  1  6
 10 76  1  0
 10 77  1  0
 11 78  1  0
 12 79  1  0
 12 80  1  0
 12 81  1  0
 13 82  1  0
 13 83  1  0
 13 84  1  0
 14 85  1  0
 17 86  1  6
 18 87  1  0
 18 88  1  0
 20 89  1  0
 21 90  1  0
 22 91  1  0
 23 92  1  0
 24 93  1  0
 25 94  1  0
 28 95  1  1
 29 96  1  0
 29 97  1  0
 31 98  1  0
 32 99  1  0
 34100  1  0
 35101  1  0
 36102  1  0
 37103  1  0
 40104  1  6
 41105  1  0
 41106  1  0
 43107  1  0
 44108  1  0
 46109  1  0
 47110  1  0
 48111  1  0
 49112  1  0
 51113  1  0
 51114  1  0
 51115  1  0
 55116  1  0
 56117  1  6
 57118  1  0
 57119  1  0
 59120  1  0
 62121  1  0
 62122  1  0
M  END
$$$$
[H]c1c([H])c(N([H])C(=O)N([H])c2c([H])c([H])c(C(C([H])([H])[H])(C([H])([H])[H])C([H])([H])[H])c([H])c2[H])c([H])c([H])c1-c1nc(N2C([H])([H])C([H])([H])OC([H])([H])[C@@]2([H])C([H])([H])[H])nc(C2([H])C([H])([H])C([H])([H])OC([H])([H])C2([H])[H])n1
     RDKit          3D

 77 81  0  0  0  0  0  0  0  0999 V2000
   -6.1866    2.9447   -1.9219 C   0  0  0  0  0  0  0  0  0  0  0  0
   -6.5770    2.4097   -0.5366 C   0  0  2  0  0  0  0  0  0  0  0  0
   -7.1327    3.5824    0.2367 C   0  0  0  0  0  0  0  0  0  0  0  0
   -6.9650    3.4719    1.5935 O   0  0  0  0  0  0  0  0  0  0  0  0
   -5.6553    3.4079    2.0284 C   0  0  0  0  0  0  0  0  0  0  0  0
   -4.6704    3.1093    0.8820 C   0  0  0  0  0  0  0  0  0  0  0  0
   -5.3099    2.0617    0.1139 N   0  0  0  0  0  0  0  0  0  0  0  0
   -4.7797    0.7528   -0.0011 C   0  0  0  0  0  0  0  0  0  0  0  0
   -5.6233   -0.3219   -0.0989 N   0  0  0  0  0  0  0  0  0  0  0  0
   -5.1565   -1.5654   -0.2332 C   0  0  0  0  0  0  0  0  0  0  0  0
   -3.8237   -1.7304   -0.2711 N   0  0  0  0  0  0  0  0  0  0  0  0
   -2.9535   -0.7238   -0.1810 C   0  0  0  0  0  0  0  0  0  0  0  0
   -3.4485    0.5140   -0.0455 N   0  0  0  0  0  0  0  0  0  0  0  0
   -1.5161   -0.9377   -0.2441 C   0  0  0  0  0  0  0  0  0  0  0  0
   -0.6149    0.0978   -0.1371 C   0  0  0  0  0  0  0  0  0  0  0  0
    0.7661   -0.1363   -0.2200 C   0  0  0  0  0  0  0  0  0  0  0  0
    1.3084   -1.3723   -0.4064 C   0  0  0  0  0  0  0  0  0  0  0  0
    2.6809   -1.6703   -0.4859 N   0  0  0  0  0  0  0  0  0  0  0  0
    3.8000   -0.8664   -0.2610 C   0  0  0  0  0  0  0  0  0  0  0  0
    3.6218    0.3288    0.0710 O   0  0  0  0  0  0  0  0  0  0  0  0
    5.0969   -1.4203   -0.4106 N   0  0  0  0  0  0  0  0  0  0  0  0
    6.2811   -0.7176   -0.1996 C   0  0  0  0  0  0  0  0  0  0  0  0
    7.4524   -1.3313   -0.6846 C   0  0  0  0  0  0  0  0  0  0  0  0
    8.6595   -0.7268   -0.5012 C   0  0  0  0  0  0  0  0  0  0  0  0
    8.8089    0.4881    0.1504 C   0  0  0  0  0  0  0  0  0  0  0  0
    7.6912    1.0814    0.6164 C   0  0  0  0  0  0  0  0  0  0  0  0
    6.4407    0.4743    0.4380 C   0  0  0  0  0  0  0  0  0  0  0  0
   10.1795    1.0191    0.2817 C   0  0  0  0  0  0  0  0  0  0  0  0
   10.9410    0.0257    1.1693 C   0  0  0  0  0  0  0  0  0  0  0  0
   10.8118    1.0730   -1.0904 C   0  0  0  0  0  0  0  0  0  0  0  0
   10.2512    2.3496    0.9673 C   0  0  0  0  0  0  0  0  0  0  0  0
    0.3678   -2.4261   -0.5145 C   0  0  0  0  0  0  0  0  0  0  0  0
   -0.9779   -2.1903   -0.4327 C   0  0  0  0  0  0  0  0  0  0  0  0
   -5.9983   -2.7849   -0.3225 C   0  0  0  0  0  0  0  0  0  0  0  0
   -7.2526   -2.5943   -1.1042 C   0  0  0  0  0  0  0  0  0  0  0  0
   -8.3798   -3.3711   -0.4472 C   0  0  0  0  0  0  0  0  0  0  0  0
   -8.7208   -2.8584    0.8034 O   0  0  0  0  0  0  0  0  0  0  0  0
   -7.5945   -2.3933    1.4892 C   0  0  0  0  0  0  0  0  0  0  0  0
   -6.3577   -3.1490    1.1286 C   0  0  0  0  0  0  0  0  0  0  0  0
   -7.1362    3.1541   -2.4820 H   0  0  0  0  0  0  0  0  0  0  0  0
   -5.6845    3.9401   -1.7816 H   0  0  0  0  0  0  0  0  0  0  0  0
   -5.5331    2.2261   -2.4488 H   0  0  0  0  0  0  0  0  0  0  0  0
   -7.2620    1.5724   -0.6423 H   0  0  0  0  0  0  0  0  0  0  0  0
   -8.2400    3.6238    0.0420 H   0  0  0  0  0  0  0  0  0  0  0  0
   -6.6893    4.5193   -0.1638 H   0  0  0  0  0  0  0  0  0  0  0  0
   -5.3614    4.3014    2.6017 H   0  0  0  0  0  0  0  0  0  0  0  0
   -5.5893    2.5043    2.6931 H   0  0  0  0  0  0  0  0  0  0  0  0
   -3.7593    2.7030    1.3854 H   0  0  0  0  0  0  0  0  0  0  0  0
   -4.4101    4.0035    0.3104 H   0  0  0  0  0  0  0  0  0  0  0  0
   -0.9902    1.0895    0.0122 H   0  0  0  0  0  0  0  0  0  0  0  0
    1.4281    0.7382   -0.1316 H   0  0  0  0  0  0  0  0  0  0  0  0
    2.9177   -2.6812   -0.7742 H   0  0  0  0  0  0  0  0  0  0  0  0
    5.1288   -2.4628   -0.7006 H   0  0  0  0  0  0  0  0  0  0  0  0
    7.3608   -2.2815   -1.2003 H   0  0  0  0  0  0  0  0  0  0  0  0
    9.5527   -1.2385   -0.8908 H   0  0  0  0  0  0  0  0  0  0  0  0
    7.7389    2.0195    1.1279 H   0  0  0  0  0  0  0  0  0  0  0  0
    5.5842    0.9835    0.8409 H   0  0  0  0  0  0  0  0  0  0  0  0
   11.2556   -0.8384    0.5278 H   0  0  0  0  0  0  0  0  0  0  0  0
   10.2577   -0.3867    1.9470 H   0  0  0  0  0  0  0  0  0  0  0  0
   11.7810    0.4923    1.6965 H   0  0  0  0  0  0  0  0  0  0  0  0
   11.0655    2.1403   -1.2921 H   0  0  0  0  0  0  0  0  0  0  0  0
   10.1393    0.6924   -1.8865 H   0  0  0  0  0  0  0  0  0  0  0  0
   11.7491    0.4619   -1.0621 H   0  0  0  0  0  0  0  0  0  0  0  0
   10.1843    2.2419    2.0670 H   0  0  0  0  0  0  0  0  0  0  0  0
   11.2989    2.7325    0.7832 H   0  0  0  0  0  0  0  0  0  0  0  0
    9.5780    3.1096    0.5591 H   0  0  0  0  0  0  0  0  0  0  0  0
    0.7507   -3.4223   -0.6613 H   0  0  0  0  0  0  0  0  0  0  0  0
   -1.7051   -3.0172   -0.5151 H   0  0  0  0  0  0  0  0  0  0  0  0
   -5.4014   -3.6565   -0.6706 H   0  0  0  0  0  0  0  0  0  0  0  0
   -7.5251   -1.5333   -1.1836 H   0  0  0  0  0  0  0  0  0  0  0  0
   -7.1735   -2.9966   -2.1549 H   0  0  0  0  0  0  0  0  0  0  0  0
   -9.2593   -3.2946   -1.1053 H   0  0  0  0  0  0  0  0  0  0  0  0
   -8.0808   -4.4171   -0.3580 H   0  0  0  0  0  0  0  0  0  0  0  0
   -7.5328   -1.3126    1.3151 H   0  0  0  0  0  0  0  0  0  0  0  0
   -7.8054   -2.5058    2.5877 H   0  0  0  0  0  0  0  0  0  0  0  0
   -5.5430   -2.8810    1.8083 H   0  0  0  0  0  0  0  0  0  0  0  0
   -6.5539   -4.2278    1.2217 H   0  0  0  0  0  0  0  0  0  0  0  0
  1  2  1  0
  2  3  1  0
  3  4  1  0
  4  5  1  0
  5  6  1  0
  6  7  1  0
  7  8  1  0
  8  9  2  0
  9 10  1  0
 10 11  2  0
 11 12  1  0
 12 13  2  0
 12 14  1  0
 14 15  2  0
 15 16  1  0
 16 17  2  0
 17 18  1  0
 18 19  1  0
 19 20  2  0
 19 21  1  0
 21 22  1  0
 22 23  2  0
 23 24  1  0
 24 25  2  0
 25 26  1  0
 26 27  2  0
 25 28  1  0
 28 29  1  0
 28 30  1  0
 28 31  1  0
 17 32  1  0
 32 33  2  0
 10 34  1  0
 34 35  1  0
 35 36  1  0
 36 37  1  0
 37 38  1  0
 38 39  1  0
  7  2  1  0
 13  8  1  0
 33 14  1  0
 39 34  1  0
 27 22  1  0
  1 40  1  0
  1 41  1  0
  1 42  1  0
  2 43  1  6
  3 44  1  0
  3 45  1  0
  5 46  1  0
  5 47  1  0
  6 48  1  0
  6 49  1  0
 15 50  1  0
 16 51  1  0
 18 52  1  0
 21 53  1  0
 23 54  1  0
 24 55  1  0
 26 56  1  0
 27 57  1  0
 29 58  1  0
 29 59  1  0
 29 60  1  0
 30 61  1  0
 30 62  1  0
 30 63  1  0
 31 64  1  0
 31 65  1  0
 31 66  1  0
 32 67  1  0
 33 68  1  0
 34 69  1  0
 35 70  1  0
 35 71  1  0
 36 72  1  0
 36 73  1  0
 38 74  1  0
 38 75  1  0
 39 76  1  0
 39 77  1  0
M  END
$$$$
[H]N=C(N([H])[H])N([H])C([H])([H])C([H])([H])C([H])([H])[C@@]([H])(C(=O)O[H])N([H])C(=O)[C@@]([H])(N([H])C(=O)[C@]([H])(N([H])C(=O)[C@@]([H])(N([H])[H])C([H])([H])c1c(C([H])([H])[H])c([H])c(O[H])c([H])c1C([H])([H])[H])C([H])([H])C([H])([H])C([H])([H])N([H])C(=N[H])N([H])[H])C([H])([H])c1c([H])c([H])c([H])c([H])c1[H]
     RDKit          3D

 96 97  0  0  0  0  0  0  0  0999 V2000
   -8.3831   -0.5754    0.5311 C   0  0  0  0  0  0  0  0  0  0  0  0
   -7.8258   -1.9623    0.4370 C   0  0  0  0  0  0  0  0  0  0  0  0
   -8.7282   -3.0369    0.4377 C   0  0  0  0  0  0  0  0  0  0  0  0
   -8.2809   -4.3261    0.3075 C   0  0  0  0  0  0  0  0  0  0  0  0
   -9.1757   -5.3769    0.3088 O   0  0  0  0  0  0  0  0  0  0  0  0
   -6.9452   -4.5799    0.1752 C   0  0  0  0  0  0  0  0  0  0  0  0
   -6.0547   -3.5651    0.1720 C   0  0  0  0  0  0  0  0  0  0  0  0
   -4.5882   -3.8522    0.0112 C   0  0  0  0  0  0  0  0  0  0  0  0
   -6.4904   -2.2525    0.3037 C   0  0  0  0  0  0  0  0  0  0  0  0
   -5.4695   -1.1825    0.3419 C   0  0  0  0  0  0  0  0  0  0  0  0
   -5.0247   -0.7744    1.7180 C   0  0  2  0  0  0  0  0  0  0  0  0
   -6.0349   -0.2808    2.5918 N   0  0  0  0  0  0  0  0  0  0  0  0
   -4.0649    0.3754    1.5058 C   0  0  0  0  0  0  0  0  0  0  0  0
   -4.2389    1.4740    2.0575 O   0  0  0  0  0  0  0  0  0  0  0  0
   -2.9706    0.1538    0.6622 N   0  0  0  0  0  0  0  0  0  0  0  0
   -1.9482    1.2024    0.3666 C   0  0  2  0  0  0  0  0  0  0  0  0
   -1.9308    1.6059   -1.0383 C   0  0  0  0  0  0  0  0  0  0  0  0
   -1.0349    2.7522   -1.3415 C   0  0  0  0  0  0  0  0  0  0  0  0
   -1.5788    3.9806   -0.5650 C   0  0  0  0  0  0  0  0  0  0  0  0
   -0.6847    5.0780   -0.9186 N   0  0  0  0  0  0  0  0  0  0  0  0
   -0.6872    5.5783   -2.2478 C   0  0  0  0  0  0  0  0  0  0  0  0
   -1.7504    6.4142   -2.6537 N   0  0  0  0  0  0  0  0  0  0  0  0
    0.2472    5.2937   -3.0847 N   0  0  0  0  0  0  0  0  0  0  0  0
   -0.6601    0.5971    0.8099 C   0  0  0  0  0  0  0  0  0  0  0  0
   -0.7449    0.1046    2.0165 O   0  0  0  0  0  0  0  0  0  0  0  0
    0.5572    0.4765    0.1542 N   0  0  0  0  0  0  0  0  0  0  0  0
    1.6888   -0.1714    0.8370 C   0  0  1  0  0  0  0  0  0  0  0  0
    1.8281   -1.5320    0.2691 C   0  0  0  0  0  0  0  0  0  0  0  0
    2.0584   -1.6252   -1.1761 C   0  0  0  0  0  0  0  0  0  0  0  0
    0.9785   -1.5862   -2.0538 C   0  0  0  0  0  0  0  0  0  0  0  0
    1.1265   -1.6907   -3.4070 C   0  0  0  0  0  0  0  0  0  0  0  0
    2.3792   -1.8407   -3.9426 C   0  0  0  0  0  0  0  0  0  0  0  0
    3.4676   -1.8847   -3.1241 C   0  0  0  0  0  0  0  0  0  0  0  0
    3.2948   -1.7763   -1.7448 C   0  0  0  0  0  0  0  0  0  0  0  0
    2.8377    0.6852    0.9939 C   0  0  0  0  0  0  0  0  0  0  0  0
    2.7199    1.8856    0.5401 O   0  0  0  0  0  0  0  0  0  0  0  0
    4.0855    0.3862    1.5916 N   0  0  0  0  0  0  0  0  0  0  0  0
    5.1447    1.3192    1.7325 C   0  0  1  0  0  0  0  0  0  0  0  0
    5.7526    1.7528    0.4633 C   0  0  0  0  0  0  0  0  0  0  0  0
    6.3860    0.6747   -0.3732 C   0  0  0  0  0  0  0  0  0  0  0  0
    7.4924    0.0289    0.4076 C   0  0  0  0  0  0  0  0  0  0  0  0
    8.1551   -1.0162   -0.3568 N   0  0  0  0  0  0  0  0  0  0  0  0
    9.2333   -1.7088    0.2341 C   0  0  0  0  0  0  0  0  0  0  0  0
    9.7608   -1.3311    1.4912 N   0  0  0  0  0  0  0  0  0  0  0  0
    9.7920   -2.7311   -0.3614 N   0  0  0  0  0  0  0  0  0  0  0  0
    4.7701    2.4730    2.6141 C   0  0  0  0  0  0  0  0  0  0  0  0
    5.6855    3.4813    2.8413 O   0  0  0  0  0  0  0  0  0  0  0  0
    3.6420    2.5558    3.1587 O   0  0  0  0  0  0  0  0  0  0  0  0
   -7.7049    0.1853    0.1317 H   0  0  0  0  0  0  0  0  0  0  0  0
   -9.2792   -0.5908   -0.1737 H   0  0  0  0  0  0  0  0  0  0  0  0
   -8.8173   -0.3628    1.5113 H   0  0  0  0  0  0  0  0  0  0  0  0
   -9.7786   -2.7896    0.5455 H   0  0  0  0  0  0  0  0  0  0  0  0
   -8.9168   -6.3385    0.2178 H   0  0  0  0  0  0  0  0  0  0  0  0
   -6.5899   -5.6155    0.0710 H   0  0  0  0  0  0  0  0  0  0  0  0
   -4.4610   -4.9708   -0.0518 H   0  0  0  0  0  0  0  0  0  0  0  0
   -4.1896   -3.4446   -0.9375 H   0  0  0  0  0  0  0  0  0  0  0  0
   -4.0045   -3.5310    0.8847 H   0  0  0  0  0  0  0  0  0  0  0  0
   -5.8007   -0.2735   -0.2419 H   0  0  0  0  0  0  0  0  0  0  0  0
   -4.5783   -1.5800   -0.2391 H   0  0  0  0  0  0  0  0  0  0  0  0
   -4.4237   -1.6055    2.2011 H   0  0  0  0  0  0  0  0  0  0  0  0
   -6.1568    0.7370    2.6333 H   0  0  0  0  0  0  0  0  0  0  0  0
   -6.1019   -0.7715    3.5000 H   0  0  0  0  0  0  0  0  0  0  0  0
   -2.8110   -0.7523    0.2008 H   0  0  0  0  0  0  0  0  0  0  0  0
   -2.2404    2.0324    1.0242 H   0  0  0  0  0  0  0  0  0  0  0  0
   -1.7417    0.7401   -1.7391 H   0  0  0  0  0  0  0  0  0  0  0  0
   -2.9954    1.9106   -1.3332 H   0  0  0  0  0  0  0  0  0  0  0  0
   -0.0017    2.6920   -1.0167 H   0  0  0  0  0  0  0  0  0  0  0  0
   -1.0226    3.0118   -2.4329 H   0  0  0  0  0  0  0  0  0  0  0  0
   -2.6088    4.1355   -0.9054 H   0  0  0  0  0  0  0  0  0  0  0  0
   -1.5402    3.7555    0.4957 H   0  0  0  0  0  0  0  0  0  0  0  0
   -0.0762    5.4535   -0.1768 H   0  0  0  0  0  0  0  0  0  0  0  0
   -2.4583    6.0709   -3.3114 H   0  0  0  0  0  0  0  0  0  0  0  0
   -1.8052    7.3825   -2.2765 H   0  0  0  0  0  0  0  0  0  0  0  0
    1.0542    4.6987   -2.8784 H   0  0  0  0  0  0  0  0  0  0  0  0
    0.7470    0.7748   -0.8220 H   0  0  0  0  0  0  0  0  0  0  0  0
    1.2954   -0.3504    1.9021 H   0  0  0  0  0  0  0  0  0  0  0  0
    2.6060   -2.1372    0.8243 H   0  0  0  0  0  0  0  0  0  0  0  0
    0.8711   -2.0817    0.5462 H   0  0  0  0  0  0  0  0  0  0  0  0
   -0.0201   -1.4686   -1.6541 H   0  0  0  0  0  0  0  0  0  0  0  0
    0.2689   -1.6575   -4.0786 H   0  0  0  0  0  0  0  0  0  0  0  0
    2.5053   -1.9237   -5.0160 H   0  0  0  0  0  0  0  0  0  0  0  0
    4.4446   -2.0025   -3.5675 H   0  0  0  0  0  0  0  0  0  0  0  0
    4.2002   -1.8302   -1.1536 H   0  0  0  0  0  0  0  0  0  0  0  0
    4.2257   -0.6056    1.9538 H   0  0  0  0  0  0  0  0  0  0  0  0
    5.9761    0.8148    2.3296 H   0  0  0  0  0  0  0  0  0  0  0  0
    6.5206    2.5523    0.7078 H   0  0  0  0  0  0  0  0  0  0  0  0
    5.0108    2.2874   -0.2037 H   0  0  0  0  0  0  0  0  0  0  0  0
    6.7758    1.1052   -1.3298 H   0  0  0  0  0  0  0  0  0  0  0  0
    5.6327   -0.0604   -0.6477 H   0  0  0  0  0  0  0  0  0  0  0  0
    8.1705    0.7960    0.7772 H   0  0  0  0  0  0  0  0  0  0  0  0
    7.0307   -0.5099    1.2746 H   0  0  0  0  0  0  0  0  0  0  0  0
    7.8425   -1.2465   -1.3123 H   0  0  0  0  0  0  0  0  0  0  0  0
   10.7794   -1.3575    1.6415 H   0  0  0  0  0  0  0  0  0  0  0  0
    9.1283   -1.0335    2.2462 H   0  0  0  0  0  0  0  0  0  0  0  0
   10.5970   -3.2280    0.1087 H   0  0  0  0  0  0  0  0  0  0  0  0
    6.6538    3.3134    2.6396 H   0  0  0  0  0  0  0  0  0  0  0  0
  1  2  1  0
  2  3  2  0
  3  4  1  0
  4  5  1  0
  4  6  2  0
  6  7  1  0
  7  8  1  0
  7  9  2  0
  9 10  1  0
 10 11  1  0
 11 12  1  0
 11 13  1  0
 13 14  2  0
 13 15  1  0
 15 16  1  0
 16 17  1  0
 17 18  1  0
 18 19  1  0
 19 20  1  0
 20 21  1  0
 21 22  1  0
 21 23  2  3
 16 24  1  0
 24 25  2  0
 24 26  1  0
 26 27  1  0
 27 28  1  0
 28 29  1  0
 29 30  2  0
 30 31  1  0
 31 32  2  0
 32 33  1  0
 33 34  2  0
 27 35  1  0
 35 36  2  0
 35 37  1  0
 37 38  1  0
 38 39  1  0
 39 40  1  0
 40 41  1  0
 41 42  1  0
 42 43  1  0
 43 44  1  0
 43 45  2  3
 38 46  1  0
 46 47  1  0
 46 48  2  0
  9  2  1  0
 34 29  1  0
  1 49  1  0
  1 50  1  0
  1 51  1  0
  3 52  1  0
  5 53  1  0
  6 54  1  0
  8 55  1  0
  8 56  1  0
  8 57  1  0
 10 58  1  0
 10 59  1  0
 11 60  1  1
 12 61  1  0
 12 62  1  0
 15 63  1  0
 16 64  1  1
 17 65  1  0
 17 66  1  0
 18 67  1  0
 18 68  1  0
 19 69  1  0
 19 70  1  0
 20 71  1  0
 22 72  1  0
 22 73  1  0
 23 74  1  0
 26 75  1  0
 27 76  1  1
 28 77  1  0
 28 78  1  0
 30 79  1  0
 31 80  1  0
 32 81  1  0
 33 82  1  0
 34 83  1  0
 37 84  1  0
 38 85  1  1
 39 86  1  0
 39 87  1  0
 40 88  1  0
 40 89  1  0
 41 90  1  0
 41 91  1  0
 42 92  1  0
 44 93  1  0
 44 94  1  0
 45 95  1  0
 47 96  1  0
M  END
$$$$
[H]c1sc(N([H])C(=O)c2c([H])c([H])c(C(C([H])([H])[H])(C([H])([H])[H])C([H])([H])[H])c([H])c2[H])nc1-c1c([H])c([H])c(C(C([H])([H])[H])(C([H])([H])[H])C([H])([H])[H])c([H])c1[H]
     RDKit          3D

 56 58  0  0  0  0  0  0  0  0999 V2000
   -7.5395    1.3580    1.2657 C   0  0  0  0  0  0  0  0  0  0  0  0
   -7.2216    0.5578    0.0036 C   0  0  0  0  0  0  0  0  0  0  0  0
   -7.0875    1.5890   -1.0989 C   0  0  0  0  0  0  0  0  0  0  0  0
   -8.3871   -0.3506   -0.2614 C   0  0  0  0  0  0  0  0  0  0  0  0
   -5.9337   -0.1552    0.1083 C   0  0  0  0  0  0  0  0  0  0  0  0
   -5.6276   -0.8999    1.2394 C   0  0  0  0  0  0  0  0  0  0  0  0
   -4.4518   -1.5913    1.3658 C   0  0  0  0  0  0  0  0  0  0  0  0
   -3.4784   -1.5747    0.3249 C   0  0  0  0  0  0  0  0  0  0  0  0
   -3.7940   -0.8371   -0.7803 C   0  0  0  0  0  0  0  0  0  0  0  0
   -4.9913   -0.1350   -0.9025 C   0  0  0  0  0  0  0  0  0  0  0  0
   -2.3158   -2.3820    0.5568 C   0  0  0  0  0  0  0  0  0  0  0  0
   -2.6398   -3.6275    0.9650 O   0  0  0  0  0  0  0  0  0  0  0  0
   -0.9625   -2.1991    0.4641 N   0  0  0  0  0  0  0  0  0  0  0  0
   -0.2528   -1.0332    0.0582 C   0  0  0  0  0  0  0  0  0  0  0  0
    1.1115   -0.9835    0.0237 N   0  0  0  0  0  0  0  0  0  0  0  0
    1.6993    0.0714   -0.3859 C   0  0  0  0  0  0  0  0  0  0  0  0
    0.9180    1.1388   -0.7812 C   0  0  0  0  0  0  0  0  0  0  0  0
   -0.6390    0.5077   -0.5193 S   0  0  0  0  0  0  0  0  0  0  0  0
    3.1929    0.1702   -0.4134 C   0  0  0  0  0  0  0  0  0  0  0  0
    3.8060    1.1871   -1.0838 C   0  0  0  0  0  0  0  0  0  0  0  0
    5.1973    1.2793   -1.0633 C   0  0  0  0  0  0  0  0  0  0  0  0
    5.9632    0.3643   -0.3838 C   0  0  0  0  0  0  0  0  0  0  0  0
    5.3301   -0.6915    0.3100 C   0  0  0  0  0  0  0  0  0  0  0  0
    3.9708   -0.7464    0.2703 C   0  0  0  0  0  0  0  0  0  0  0  0
    7.4346    0.3494   -0.3038 C   0  0  0  0  0  0  0  0  0  0  0  0
    7.9100    0.4118    1.1558 C   0  0  0  0  0  0  0  0  0  0  0  0
    7.9010   -0.9931   -0.8275 C   0  0  0  0  0  0  0  0  0  0  0  0
    8.0579    1.4808   -1.0640 C   0  0  0  0  0  0  0  0  0  0  0  0
   -6.8067    2.1542    1.3897 H   0  0  0  0  0  0  0  0  0  0  0  0
   -7.5466    0.6829    2.1183 H   0  0  0  0  0  0  0  0  0  0  0  0
   -8.5755    1.7603    1.1558 H   0  0  0  0  0  0  0  0  0  0  0  0
   -7.9544    2.2612   -1.0559 H   0  0  0  0  0  0  0  0  0  0  0  0
   -7.0460    1.0935   -2.1076 H   0  0  0  0  0  0  0  0  0  0  0  0
   -6.1305    2.1301   -0.9438 H   0  0  0  0  0  0  0  0  0  0  0  0
   -8.5335   -0.5859   -1.3447 H   0  0  0  0  0  0  0  0  0  0  0  0
   -9.3107    0.1909    0.0884 H   0  0  0  0  0  0  0  0  0  0  0  0
   -8.3081   -1.2575    0.3636 H   0  0  0  0  0  0  0  0  0  0  0  0
   -6.3830   -0.9263    2.0356 H   0  0  0  0  0  0  0  0  0  0  0  0
   -4.2270   -2.1837    2.2601 H   0  0  0  0  0  0  0  0  0  0  0  0
   -3.0854   -0.8324   -1.6170 H   0  0  0  0  0  0  0  0  0  0  0  0
   -5.1628    0.4302   -1.8155 H   0  0  0  0  0  0  0  0  0  0  0  0
   -0.3168   -3.0624    0.7286 H   0  0  0  0  0  0  0  0  0  0  0  0
    1.2480    2.1252   -1.1537 H   0  0  0  0  0  0  0  0  0  0  0  0
    3.1924    1.9034   -1.6264 H   0  0  0  0  0  0  0  0  0  0  0  0
    5.6552    2.0724   -1.5971 H   0  0  0  0  0  0  0  0  0  0  0  0
    5.8897   -1.4210    0.8487 H   0  0  0  0  0  0  0  0  0  0  0  0
    3.4481   -1.5479    0.7907 H   0  0  0  0  0  0  0  0  0  0  0  0
    8.8792    0.9780    1.1953 H   0  0  0  0  0  0  0  0  0  0  0  0
    8.0750   -0.5901    1.5819 H   0  0  0  0  0  0  0  0  0  0  0  0
    7.1651    0.9523    1.7357 H   0  0  0  0  0  0  0  0  0  0  0  0
    8.7220   -0.8041   -1.5538 H   0  0  0  0  0  0  0  0  0  0  0  0
    8.2599   -1.6511   -0.0343 H   0  0  0  0  0  0  0  0  0  0  0  0
    7.0670   -1.5078   -1.3804 H   0  0  0  0  0  0  0  0  0  0  0  0
    7.4698    2.3981   -0.8566 H   0  0  0  0  0  0  0  0  0  0  0  0
    8.0266    1.3114   -2.1729 H   0  0  0  0  0  0  0  0  0  0  0  0
    9.1185    1.6603   -0.7283 H   0  0  0  0  0  0  0  0  0  0  0  0
  1  2  1  0
  2  3  1  0
  2  4  1  0
  2  5  1  0
  5  6  2  0
  6  7  1  0
  7  8  2  0
  8  9  1  0
  9 10  2  0
  8 11  1  0
 11 12  2  0
 11 13  1  0
 13 14  1  0
 14 15  2  0
 15 16  1  0
 16 17  2  0
 17 18  1  0
 16 19  1  0
 19 20  2  0
 20 21  1  0
 21 22  2  0
 22 23  1  0
 23 24  2  0
 22 25  1  0
 25 26  1  0
 25 27  1  0
 25 28  1  0
 10  5  1  0
 18 14  1  0
 24 19  1  0
  1 29  1  0
  1 30  1  0
  1 31  1  0
  3 32  1  0
  3 33  1  0
  3 34  1  0
  4 35  1  0
  4 36  1  0
  4 37  1  0
  6 38  1  0
  7 39  1  0
  9 40  1  0
 10 41  1  0
 13 42  1  0
 17 43  1  0
 20 44  1  0
 21 45  1  0
 23 46  1  0
 24 47  1  0
 26 48  1  0
 26 49  1  0
 26 50  1  0
 27 51  1  0
 27 52  1  0
 27 53  1  0
 28 54  1  0
 28 55  1  0
 28 56  1  0
M  END
$$$$
[H]C1=C([H])C([H])(F)C([H])([H])C([H])=C1N([H])C(=O)C1(C(=O)N([H])c2c([H])c([H])c(Oc3c([H])c([H])nc4c([H])c(OC([H])([H])C([H])([H])C([H])([H])N5C([H])([H])C([H])([H])N([H])C([H])([H])C5([H])[H])c(OC([H])([H])[H])c([H])c34)c(F)c2[H])C([H])([H])C1([H])[H]
     RDKit          3D

 83 88  0  0  0  0  0  0  0  0999 V2000
   -3.7302   -3.2797    0.3236 C   0  0  0  0  0  0  0  0  0  0  0  0
   -4.4274   -2.0605    0.4044 O   0  0  0  0  0  0  0  0  0  0  0  0
   -3.8510   -0.8092    0.5141 C   0  0  0  0  0  0  0  0  0  0  0  0
   -2.4853   -0.5738    0.5490 C   0  0  0  0  0  0  0  0  0  0  0  0
   -1.9193    0.6741    0.6649 C   0  0  0  0  0  0  0  0  0  0  0  0
   -0.5404    0.9312    0.7001 C   0  0  0  0  0  0  0  0  0  0  0  0
    0.3146   -0.1283    0.5776 O   0  0  0  0  0  0  0  0  0  0  0  0
    1.6149   -0.2073    0.1718 C   0  0  0  0  0  0  0  0  0  0  0  0
    2.2880    0.8100   -0.4564 C   0  0  0  0  0  0  0  0  0  0  0  0
    3.5776    0.6999   -0.8327 C   0  0  0  0  0  0  0  0  0  0  0  0
    4.3459   -0.4736   -0.6197 C   0  0  0  0  0  0  0  0  0  0  0  0
    5.6772   -0.3657   -1.0718 N   0  0  0  0  0  0  0  0  0  0  0  0
    6.4541   -1.3170   -1.7822 C   0  0  0  0  0  0  0  0  0  0  0  0
    6.0155   -2.4241   -2.1023 O   0  0  0  0  0  0  0  0  0  0  0  0
    7.8527   -0.9394   -2.1895 C   0  0  0  0  0  0  0  0  0  0  0  0
    7.8844   -0.1096   -3.4905 C   0  0  0  0  0  0  0  0  0  0  0  0
    8.3102   -1.5052   -3.5651 C   0  0  0  0  0  0  0  0  0  0  0  0
    8.9088   -0.5564   -1.2711 C   0  0  0  0  0  0  0  0  0  0  0  0
    9.8273    0.2523   -1.7883 O   0  0  0  0  0  0  0  0  0  0  0  0
    9.1739   -0.8802    0.0564 N   0  0  0  0  0  0  0  0  0  0  0  0
   10.3684   -0.2989    0.6934 C   0  0  0  0  0  0  0  0  0  0  0  0
   11.4922   -0.9889    0.7324 C   0  0  0  0  0  0  0  0  0  0  0  0
   12.7317   -0.4966    1.3386 C   0  0  0  0  0  0  0  0  0  0  0  0
   12.6883    0.8500    1.9608 C   0  0  0  0  0  0  0  0  0  0  0  0
   13.7096    1.6851    1.4383 F   0  0  0  0  0  0  0  0  0  0  0  0
   11.3997    1.5415    1.8917 C   0  0  0  0  0  0  0  0  0  0  0  0
   10.3391    1.0108    1.3032 C   0  0  0  0  0  0  0  0  0  0  0  0
    3.6764   -1.4679   -0.0066 C   0  0  0  0  0  0  0  0  0  0  0  0
    2.3535   -1.3720    0.3897 C   0  0  0  0  0  0  0  0  0  0  0  0
    1.7966   -2.4651    1.0099 F   0  0  0  0  0  0  0  0  0  0  0  0
   -0.1175    2.2478    0.8334 C   0  0  0  0  0  0  0  0  0  0  0  0
   -1.0569    3.2658    0.9185 C   0  0  0  0  0  0  0  0  0  0  0  0
   -2.3575    2.9963    0.8756 N   0  0  0  0  0  0  0  0  0  0  0  0
   -2.8244    1.7340    0.7492 C   0  0  0  0  0  0  0  0  0  0  0  0
   -4.1810    1.5222    0.7158 C   0  0  0  0  0  0  0  0  0  0  0  0
   -4.7178    0.2546    0.5969 C   0  0  0  0  0  0  0  0  0  0  0  0
   -6.1032    0.1299    0.5613 O   0  0  0  0  0  0  0  0  0  0  0  0
   -6.8839    1.2985    0.6538 C   0  0  0  0  0  0  0  0  0  0  0  0
   -8.3499    0.9916    0.6092 C   0  0  0  0  0  0  0  0  0  0  0  0
   -8.8354    0.3272   -0.6323 C   0  0  0  0  0  0  0  0  0  0  0  0
  -10.2294    0.0444   -0.6307 N   0  0  0  0  0  0  0  0  0  0  0  0
  -10.6910   -0.9351    0.2837 C   0  0  0  0  0  0  0  0  0  0  0  0
  -12.0285   -1.4691   -0.2549 C   0  0  0  0  0  0  0  0  0  0  0  0
  -12.9326   -0.3318   -0.2987 N   0  0  0  0  0  0  0  0  0  0  0  0
  -12.4451    0.6384   -1.2363 C   0  0  0  0  0  0  0  0  0  0  0  0
  -11.1032    1.1561   -0.7712 C   0  0  0  0  0  0  0  0  0  0  0  0
   -4.1898   -3.8755   -0.4900 H   0  0  0  0  0  0  0  0  0  0  0  0
   -3.8709   -3.8680    1.2751 H   0  0  0  0  0  0  0  0  0  0  0  0
   -2.6330   -3.1835    0.2299 H   0  0  0  0  0  0  0  0  0  0  0  0
   -1.8196   -1.3998    0.4930 H   0  0  0  0  0  0  0  0  0  0  0  0
    1.7934    1.7361   -0.7428 H   0  0  0  0  0  0  0  0  0  0  0  0
    4.1151    1.5392   -1.3418 H   0  0  0  0  0  0  0  0  0  0  0  0
    6.1956    0.5675   -0.8587 H   0  0  0  0  0  0  0  0  0  0  0  0
    8.5592    0.7548   -3.5243 H   0  0  0  0  0  0  0  0  0  0  0  0
    6.8843    0.1413   -3.9360 H   0  0  0  0  0  0  0  0  0  0  0  0
    7.6241   -2.2486   -4.0141 H   0  0  0  0  0  0  0  0  0  0  0  0
    9.3813   -1.7871   -3.6658 H   0  0  0  0  0  0  0  0  0  0  0  0
    8.6083   -1.5072    0.6078 H   0  0  0  0  0  0  0  0  0  0  0  0
   11.4714   -1.9805    0.2668 H   0  0  0  0  0  0  0  0  0  0  0  0
   13.0378   -1.2487    2.1228 H   0  0  0  0  0  0  0  0  0  0  0  0
   13.5441   -0.4592    0.5562 H   0  0  0  0  0  0  0  0  0  0  0  0
   12.9846    0.7573    3.0473 H   0  0  0  0  0  0  0  0  0  0  0  0
   11.3199    2.5471    2.3585 H   0  0  0  0  0  0  0  0  0  0  0  0
    9.4229    1.5780    1.2854 H   0  0  0  0  0  0  0  0  0  0  0  0
    4.2607   -2.3959    0.1602 H   0  0  0  0  0  0  0  0  0  0  0  0
    0.9164    2.4946    0.9446 H   0  0  0  0  0  0  0  0  0  0  0  0
   -0.6618    4.2877    1.0199 H   0  0  0  0  0  0  0  0  0  0  0  0
   -4.8457    2.3795    0.7770 H   0  0  0  0  0  0  0  0  0  0  0  0
   -6.6166    2.0206   -0.1739 H   0  0  0  0  0  0  0  0  0  0  0  0
   -6.6061    1.7659    1.6389 H   0  0  0  0  0  0  0  0  0  0  0  0
   -8.6416    0.3417    1.4942 H   0  0  0  0  0  0  0  0  0  0  0  0
   -8.9031    1.9465    0.8177 H   0  0  0  0  0  0  0  0  0  0  0  0
   -8.6683    1.0634   -1.4836 H   0  0  0  0  0  0  0  0  0  0  0  0
   -8.2409   -0.5551   -0.9029 H   0  0  0  0  0  0  0  0  0  0  0  0
   -9.9513   -1.7762    0.3250 H   0  0  0  0  0  0  0  0  0  0  0  0
  -10.8863   -0.5511    1.2997 H   0  0  0  0  0  0  0  0  0  0  0  0
  -11.8476   -1.9134   -1.2281 H   0  0  0  0  0  0  0  0  0  0  0  0
  -12.3732   -2.1852    0.5305 H   0  0  0  0  0  0  0  0  0  0  0  0
  -12.9361    0.1131    0.6404 H   0  0  0  0  0  0  0  0  0  0  0  0
  -13.1574    1.5080   -1.2366 H   0  0  0  0  0  0  0  0  0  0  0  0
  -12.3353    0.2335   -2.2549 H   0  0  0  0  0  0  0  0  0  0  0  0
  -11.2044    1.7210    0.1858 H   0  0  0  0  0  0  0  0  0  0  0  0
  -10.7200    1.8320   -1.5707 H   0  0  0  0  0  0  0  0  0  0  0  0
  1  2  1  0
  2  3  1  0
  3  4  2  0
  4  5  1  0
  5  6  2  0
  6  7  1  0
  7  8  1  0
  8  9  2  0
  9 10  1  0
 10 11  2  0
 11 12  1  0
 12 13  1  0
 13 14  2  0
 13 15  1  0
 15 16  1  0
 16 17  1  0
 15 18  1  0
 18 19  2  0
 18 20  1  0
 20 21  1  0
 21 22  2  0
 22 23  1  0
 23 24  1  0
 24 25  1  0
 24 26  1  0
 26 27  2  0
 11 28  1  0
 28 29  2  0
 29 30  1  0
  6 31  1  0
 31 32  2  0
 32 33  1  0
 33 34  2  0
 34 35  1  0
 35 36  2  0
 36 37  1  0
 37 38  1  0
 38 39  1  0
 39 40  1  0
 40 41  1  0
 41 42  1  0
 42 43  1  0
 43 44  1  0
 44 45  1  0
 45 46  1  0
 36  3  1  0
 46 41  1  0
 34  5  1  0
 29  8  1  0
 17 15  1  0
 27 21  1  0
  1 47  1  0
  1 48  1  0
  1 49  1  0
  4 50  1  0
  9 51  1  0
 10 52  1  0
 12 53  1  0
 16 54  1  0
 16 55  1  0
 17 56  1  0
 17 57  1  0
 20 58  1  0
 22 59  1  0
 23 60  1  0
 23 61  1  0
 24 62  1  0
 26 63  1  0
 27 64  1  0
 28 65  1  0
 31 66  1  0
 32 67  1  0
 35 68  1  0
 38 69  1  0
 38 70  1  0
 39 71  1  0
 39 72  1  0
 40 73  1  0
 40 74  1  0
 42 75  1  0
 42 76  1  0
 43 77  1  0
 43 78  1  0
 44 79  1  0
 45 80  1  0
 45 81  1  0
 46 82  1  0
 46 83  1  0
M  END
$$$$
[H]c1c(C(F)(F)F)c([H])c2c(c1[H])c(C1=C(c3c([H])n(C([H])([H])[H])c4c([H])c([H])c(Cl)c([H])c34)C(=O)N([H])C1=O)c([H])n2C([H])([H])[H]
     RDKit          3D

 47 51  0  0  0  0  0  0  0  0999 V2000
    5.7194   -1.2778   -0.1787 C   0  0  0  0  0  0  0  0  0  0  0  0
    4.3471   -0.7792    0.0676 N   0  0  0  0  0  0  0  0  0  0  0  0
    3.4133   -1.3980    0.8041 C   0  0  0  0  0  0  0  0  0  0  0  0
    2.2434   -0.6276    0.8332 C   0  0  0  0  0  0  0  0  0  0  0  0
    1.1004   -1.0030    1.6621 C   0  0  0  0  0  0  0  0  0  0  0  0
   -0.1617   -1.1133    1.4702 C   0  0  0  0  0  0  0  0  0  0  0  0
   -0.8180   -1.5418    2.7610 C   0  0  0  0  0  0  0  0  0  0  0  0
   -2.0404   -1.7351    2.8885 O   0  0  0  0  0  0  0  0  0  0  0  0
    0.1545   -1.6774    3.7540 N   0  0  0  0  0  0  0  0  0  0  0  0
    1.3687   -1.3546    3.1296 C   0  0  0  0  0  0  0  0  0  0  0  0
    2.5166   -1.3300    3.6299 O   0  0  0  0  0  0  0  0  0  0  0  0
   -1.0099   -0.9646    0.2701 C   0  0  0  0  0  0  0  0  0  0  0  0
   -1.0333   -1.5901   -0.9355 C   0  0  0  0  0  0  0  0  0  0  0  0
   -2.1159   -1.1597   -1.6460 N   0  0  0  0  0  0  0  0  0  0  0  0
   -2.4833   -1.6133   -2.9531 C   0  0  0  0  0  0  0  0  0  0  0  0
   -2.8083   -0.2570   -0.9393 C   0  0  0  0  0  0  0  0  0  0  0  0
   -3.9657    0.4697   -1.1964 C   0  0  0  0  0  0  0  0  0  0  0  0
   -4.4859    1.3521   -0.2776 C   0  0  0  0  0  0  0  0  0  0  0  0
   -3.8052    1.4958    0.9247 C   0  0  0  0  0  0  0  0  0  0  0  0
   -2.6555    0.7699    1.1744 C   0  0  0  0  0  0  0  0  0  0  0  0
   -2.1351   -0.1148    0.2652 C   0  0  0  0  0  0  0  0  0  0  0  0
   -5.7534    2.1015   -0.5496 C   0  0  0  0  0  0  0  0  0  0  0  0
   -5.7250    2.8309   -1.6972 F   0  0  0  0  0  0  0  0  0  0  0  0
   -6.8330    1.2184   -0.6107 F   0  0  0  0  0  0  0  0  0  0  0  0
   -6.0142    2.9777    0.4889 F   0  0  0  0  0  0  0  0  0  0  0  0
    2.5123    0.4884    0.0776 C   0  0  0  0  0  0  0  0  0  0  0  0
    1.7509    1.6235   -0.2462 C   0  0  0  0  0  0  0  0  0  0  0  0
    2.3591    2.5850   -1.0183 C   0  0  0  0  0  0  0  0  0  0  0  0
    1.4368    4.0414   -1.4473 Cl  0  0  0  0  0  0  0  0  0  0  0  0
    3.6633    2.4634   -1.4729 C   0  0  0  0  0  0  0  0  0  0  0  0
    4.4107    1.3591   -1.1621 C   0  0  0  0  0  0  0  0  0  0  0  0
    3.8041    0.3795   -0.3795 C   0  0  0  0  0  0  0  0  0  0  0  0
    6.1266   -0.9251   -1.1177 H   0  0  0  0  0  0  0  0  0  0  0  0
    5.6957   -2.3821   -0.0906 H   0  0  0  0  0  0  0  0  0  0  0  0
    6.3814   -0.9398    0.6513 H   0  0  0  0  0  0  0  0  0  0  0  0
    3.5320   -2.3498    1.3073 H   0  0  0  0  0  0  0  0  0  0  0  0
    0.0100   -1.9581    4.7759 H   0  0  0  0  0  0  0  0  0  0  0  0
   -0.2854   -2.3216   -1.2628 H   0  0  0  0  0  0  0  0  0  0  0  0
   -3.6202   -1.5886   -3.0637 H   0  0  0  0  0  0  0  0  0  0  0  0
   -2.0930   -1.0347   -3.7893 H   0  0  0  0  0  0  0  0  0  0  0  0
   -2.2572   -2.7000   -3.1312 H   0  0  0  0  0  0  0  0  0  0  0  0
   -4.5086    0.3446   -2.1282 H   0  0  0  0  0  0  0  0  0  0  0  0
   -4.1445    2.1827    1.6914 H   0  0  0  0  0  0  0  0  0  0  0  0
   -2.0967    0.9382    2.1027 H   0  0  0  0  0  0  0  0  0  0  0  0
    0.7476    1.6749    0.1287 H   0  0  0  0  0  0  0  0  0  0  0  0
    4.1355    3.2337   -2.0867 H   0  0  0  0  0  0  0  0  0  0  0  0
    5.4200    1.2067   -1.4779 H   0  0  0  0  0  0  0  0  0  0  0  0
  1  2  1  0
  2  3  1  0
  3  4  2  0
  4  5  1  0
  5  6  2  0
  6  7  1  0
  7  8  2  0
  7  9  1  0
  9 10  1  0
 10 11  2  0
  6 12  1  0
 12 13  2  0
 13 14  1  0
 14 15  1  0
 14 16  1  0
 16 17  2  0
 17 18  1  0
 18 19  2  0
 19 20  1  0
 20 21  2  0
 18 22  1  0
 22 23  1  0
 22 24  1  0
 22 25  1  0
  4 26  1  0
 26 27  2  0
 27 28  1  0
 28 29  1  0
 28 30  2  0
 30 31  1  0
 31 32  2  0
 32  2  1  0
 10  5  1  0
 21 12  1  0
 32 26  1  0
 21 16  1  0
  1 33  1  0
  1 34  1  0
  1 35  1  0
  3 36  1  0
  9 37  1  0
 13 38  1  0
 15 39  1  0
 15 40  1  0
 15 41  1  0
 17 42  1  0
 19 43  1  0
 20 44  1  0
 27 45  1  0
 30 46  1  0
 31 47  1  0
M  END
$$$$
[H]c1nc(N([H])c2c([H])c(N([H])C(=O)c3c([H])c([H])c(C([H])([H])N4C([H])([H])C([H])([H])N(C([H])([H])[H])C([H])([H])C4([H])[H])c(C(F)(F)F)c3[H])c([H])c([H])c2C([H])([H])[H])nc(-c2c([H])nc([H])c([H])c2[H])c1[H]
     RDKit          3D

 71 75  0  0  0  0  0  0  0  0999 V2000
   -9.9347    0.2361   -1.3530 C   0  0  0  0  0  0  0  0  0  0  0  0
   -8.7315   -0.2431   -2.0052 N   0  0  0  0  0  0  0  0  0  0  0  0
   -8.3643   -1.4998   -1.3435 C   0  0  0  0  0  0  0  0  0  0  0  0
   -7.7519   -1.1751   -0.0144 C   0  0  0  0  0  0  0  0  0  0  0  0
   -6.3847   -0.6145   -0.1490 N   0  0  0  0  0  0  0  0  0  0  0  0
   -5.4582   -1.7716   -0.2410 C   0  0  0  0  0  0  0  0  0  0  0  0
   -4.0923   -1.3053   -0.0157 C   0  0  0  0  0  0  0  0  0  0  0  0
   -3.8574   -0.0110    0.3758 C   0  0  0  0  0  0  0  0  0  0  0  0
   -2.5723    0.4484    0.6525 C   0  0  0  0  0  0  0  0  0  0  0  0
   -1.4841   -0.3764    0.5464 C   0  0  0  0  0  0  0  0  0  0  0  0
   -1.7408   -1.6721    0.1532 C   0  0  0  0  0  0  0  0  0  0  0  0
   -2.9957   -2.1554   -0.1275 C   0  0  0  0  0  0  0  0  0  0  0  0
   -3.2301   -3.5575   -0.5510 C   0  0  0  0  0  0  0  0  0  0  0  0
   -3.7929   -3.6608   -1.8005 F   0  0  0  0  0  0  0  0  0  0  0  0
   -1.9900   -4.1845   -0.5944 F   0  0  0  0  0  0  0  0  0  0  0  0
   -3.9703   -4.2573    0.3945 F   0  0  0  0  0  0  0  0  0  0  0  0
   -0.1205    0.0746    0.8363 C   0  0  0  0  0  0  0  0  0  0  0  0
    0.7874   -0.7156    0.5100 O   0  0  0  0  0  0  0  0  0  0  0  0
    0.1496    1.3030    1.4367 N   0  0  0  0  0  0  0  0  0  0  0  0
    1.3829    1.8862    1.7753 C   0  0  0  0  0  0  0  0  0  0  0  0
    1.3784    2.9682    2.6655 C   0  0  0  0  0  0  0  0  0  0  0  0
    2.5562    3.5802    3.0131 C   0  0  0  0  0  0  0  0  0  0  0  0
    3.7559    3.1427    2.4950 C   0  0  0  0  0  0  0  0  0  0  0  0
    5.0213    3.8036    2.8736 C   0  0  0  0  0  0  0  0  0  0  0  0
    3.8205    2.0721    1.6058 C   0  0  0  0  0  0  0  0  0  0  0  0
    5.0640    1.6812    1.1133 N   0  0  0  0  0  0  0  0  0  0  0  0
    5.4168    0.6392    0.2403 C   0  0  0  0  0  0  0  0  0  0  0  0
    4.5806   -0.2402   -0.3245 N   0  0  0  0  0  0  0  0  0  0  0  0
    4.9838   -1.2125   -1.1507 C   0  0  0  0  0  0  0  0  0  0  0  0
    6.3432   -1.3501   -1.4657 C   0  0  0  0  0  0  0  0  0  0  0  0
    7.2134   -0.4546   -0.8935 C   0  0  0  0  0  0  0  0  0  0  0  0
    6.7169    0.4847   -0.0790 N   0  0  0  0  0  0  0  0  0  0  0  0
    8.6702   -0.5095   -1.1601 C   0  0  0  0  0  0  0  0  0  0  0  0
    9.1974   -1.4582   -1.9850 C   0  0  0  0  0  0  0  0  0  0  0  0
   10.5790   -1.4717   -2.2091 C   0  0  0  0  0  0  0  0  0  0  0  0
   11.4031   -0.5478   -1.6125 C   0  0  0  0  0  0  0  0  0  0  0  0
   10.8420    0.3687   -0.8075 N   0  0  0  0  0  0  0  0  0  0  0  0
    9.5195    0.4071   -0.5731 C   0  0  0  0  0  0  0  0  0  0  0  0
    2.6286    1.4802    1.2763 C   0  0  0  0  0  0  0  0  0  0  0  0
   -6.3661    0.0487   -1.4754 C   0  0  0  0  0  0  0  0  0  0  0  0
   -7.6847    0.7475   -1.7423 C   0  0  0  0  0  0  0  0  0  0  0  0
  -10.8400    0.0820   -1.9782 H   0  0  0  0  0  0  0  0  0  0  0  0
  -10.1219   -0.3026   -0.4045 H   0  0  0  0  0  0  0  0  0  0  0  0
   -9.8649    1.3283   -1.1812 H   0  0  0  0  0  0  0  0  0  0  0  0
   -7.6639   -2.0729   -1.9562 H   0  0  0  0  0  0  0  0  0  0  0  0
   -9.2658   -2.1094   -1.1456 H   0  0  0  0  0  0  0  0  0  0  0  0
   -7.6343   -2.1192    0.5481 H   0  0  0  0  0  0  0  0  0  0  0  0
   -8.3505   -0.4856    0.5888 H   0  0  0  0  0  0  0  0  0  0  0  0
   -5.7781   -2.5230    0.4961 H   0  0  0  0  0  0  0  0  0  0  0  0
   -5.6613   -2.1828   -1.2517 H   0  0  0  0  0  0  0  0  0  0  0  0
   -4.6678    0.6957    0.5168 H   0  0  0  0  0  0  0  0  0  0  0  0
   -2.4771    1.4610    0.9446 H   0  0  0  0  0  0  0  0  0  0  0  0
   -0.9071   -2.3603    0.0566 H   0  0  0  0  0  0  0  0  0  0  0  0
   -0.7059    1.9212    1.6860 H   0  0  0  0  0  0  0  0  0  0  0  0
    0.4539    3.3373    3.0924 H   0  0  0  0  0  0  0  0  0  0  0  0
    2.5407    4.4303    3.7141 H   0  0  0  0  0  0  0  0  0  0  0  0
    5.7606    3.0867    3.2981 H   0  0  0  0  0  0  0  0  0  0  0  0
    4.8047    4.5194    3.6921 H   0  0  0  0  0  0  0  0  0  0  0  0
    5.4494    4.4108    2.0471 H   0  0  0  0  0  0  0  0  0  0  0  0
    5.9212    2.2641    1.4427 H   0  0  0  0  0  0  0  0  0  0  0  0
    4.2947   -1.9013   -1.5878 H   0  0  0  0  0  0  0  0  0  0  0  0
    6.6728   -2.1241   -2.1247 H   0  0  0  0  0  0  0  0  0  0  0  0
    8.6112   -2.2088   -2.4823 H   0  0  0  0  0  0  0  0  0  0  0  0
   11.0325   -2.2048   -2.8536 H   0  0  0  0  0  0  0  0  0  0  0  0
   12.4912   -0.5498   -1.7822 H   0  0  0  0  0  0  0  0  0  0  0  0
    9.0900    1.1545    0.0789 H   0  0  0  0  0  0  0  0  0  0  0  0
    2.6027    0.6574    0.5857 H   0  0  0  0  0  0  0  0  0  0  0  0
   -6.1870   -0.7063   -2.2777 H   0  0  0  0  0  0  0  0  0  0  0  0
   -5.5974    0.8055   -1.4807 H   0  0  0  0  0  0  0  0  0  0  0  0
   -7.5458    1.3496   -2.6604 H   0  0  0  0  0  0  0  0  0  0  0  0
   -7.9450    1.4195   -0.9167 H   0  0  0  0  0  0  0  0  0  0  0  0
  1  2  1  0
  2  3  1  0
  3  4  1  0
  4  5  1  0
  5  6  1  0
  6  7  1  0
  7  8  2  0
  8  9  1  0
  9 10  2  0
 10 11  1  0
 11 12  2  0
 12 13  1  0
 13 14  1  0
 13 15  1  0
 13 16  1  0
 10 17  1  0
 17 18  2  0
 17 19  1  0
 19 20  1  0
 20 21  2  0
 21 22  1  0
 22 23  2  0
 23 24  1  0
 23 25  1  0
 25 26  1  0
 26 27  1  0
 27 28  2  0
 28 29  1  0
 29 30  2  0
 30 31  1  0
 31 32  2  0
 31 33  1  0
 33 34  2  0
 34 35  1  0
 35 36  2  0
 36 37  1  0
 37 38  2  0
 25 39  2  0
  5 40  1  0
 40 41  1  0
 41  2  1  0
 12  7  1  0
 39 20  1  0
 32 27  1  0
 38 33  1  0
  1 42  1  0
  1 43  1  0
  1 44  1  0
  3 45  1  0
  3 46  1  0
  4 47  1  0
  4 48  1  0
  6 49  1  0
  6 50  1  0
  8 51  1  0
  9 52  1  0
 11 53  1  0
 19 54  1  0
 21 55  1  0
 22 56  1  0
 24 57  1  0
 24 58  1  0
 24 59  1  0
 26 60  1  0
 29 61  1  0
 30 62  1  0
 34 63  1  0
 35 64  1  0
 36 65  1  0
 38 66  1  0
 39 67  1  0
 40 68  1  0
 40 69  1  0
 41 70  1  0
 41 71  1  0
M  END
$$$$
[H]c1c([H])c([H])c(C([H])([H])OC(=O)N2C([H])([H])C([H])([H])C([H])(c3c([H])n([H])c4c([H])c([N+](=O)[O-])c([H])c([H])c34)C([H])([H])C2([H])[H])c([H])c1[H]
     RDKit          3D

 49 52  0  0  0  0  0  0  0  0999 V2000
    8.1488    3.3724   -0.9830 O   0  0  0  0  0  0  0  0  0  0  0  0
    7.9518    2.2759   -0.1860 N   0  0  0  0  0  0  0  0  0  0  0  0
    8.8603    1.7356    0.4348 O   0  0  0  0  0  0  0  0  0  0  0  0
    6.6215    1.7367   -0.0886 C   0  0  0  0  0  0  0  0  0  0  0  0
    5.5686    2.2862   -0.8487 C   0  0  0  0  0  0  0  0  0  0  0  0
    4.3061    1.7635   -0.8337 C   0  0  0  0  0  0  0  0  0  0  0  0
    4.1082    0.6524   -0.0275 C   0  0  0  0  0  0  0  0  0  0  0  0
    2.9634   -0.1235    0.0886 C   0  0  0  0  0  0  0  0  0  0  0  0
    3.2577   -1.1742    0.9404 C   0  0  0  0  0  0  0  0  0  0  0  0
    4.5472   -1.0279    1.3141 N   0  0  0  0  0  0  0  0  0  0  0  0
    5.0836    0.0816    0.7270 C   0  0  0  0  0  0  0  0  0  0  0  0
    6.3640    0.6431    0.6937 C   0  0  0  0  0  0  0  0  0  0  0  0
    1.6235    0.1166   -0.4656 C   0  0  0  0  0  0  0  0  0  0  0  0
    1.1720   -0.9085   -1.4391 C   0  0  0  0  0  0  0  0  0  0  0  0
    0.1870   -1.9534   -0.9663 C   0  0  0  0  0  0  0  0  0  0  0  0
   -1.0118   -1.2296   -0.5598 N   0  0  0  0  0  0  0  0  0  0  0  0
   -0.7739   -0.0652    0.2759 C   0  0  0  0  0  0  0  0  0  0  0  0
    0.6667   -0.0595    0.7390 C   0  0  0  0  0  0  0  0  0  0  0  0
   -2.3052   -1.5647   -0.9503 C   0  0  0  0  0  0  0  0  0  0  0  0
   -2.4167   -2.5487   -1.7558 O   0  0  0  0  0  0  0  0  0  0  0  0
   -3.4403   -0.9237   -0.5256 O   0  0  0  0  0  0  0  0  0  0  0  0
   -4.7315   -1.3083   -0.9770 C   0  0  0  0  0  0  0  0  0  0  0  0
   -5.6921   -0.4410   -0.2611 C   0  0  0  0  0  0  0  0  0  0  0  0
   -5.3093    0.5130    0.6480 C   0  0  0  0  0  0  0  0  0  0  0  0
   -6.2404    1.2788    1.2956 C   0  0  0  0  0  0  0  0  0  0  0  0
   -7.5861    1.1318    1.0771 C   0  0  0  0  0  0  0  0  0  0  0  0
   -8.0059    0.1646    0.1613 C   0  0  0  0  0  0  0  0  0  0  0  0
   -7.0554   -0.5946   -0.4835 C   0  0  0  0  0  0  0  0  0  0  0  0
    5.7926    3.1378   -1.4530 H   0  0  0  0  0  0  0  0  0  0  0  0
    3.4744    2.1591   -1.3849 H   0  0  0  0  0  0  0  0  0  0  0  0
    2.6593   -1.9948    1.2933 H   0  0  0  0  0  0  0  0  0  0  0  0
    5.0453   -1.6620    1.9631 H   0  0  0  0  0  0  0  0  0  0  0  0
    7.1106    0.1623    1.2950 H   0  0  0  0  0  0  0  0  0  0  0  0
    1.5241    1.1111   -0.8112 H   0  0  0  0  0  0  0  0  0  0  0  0
    0.5447   -0.3422   -2.2097 H   0  0  0  0  0  0  0  0  0  0  0  0
    1.9771   -1.3112   -2.1207 H   0  0  0  0  0  0  0  0  0  0  0  0
   -0.1232   -2.5325   -1.8635 H   0  0  0  0  0  0  0  0  0  0  0  0
    0.6039   -2.6183   -0.1772 H   0  0  0  0  0  0  0  0  0  0  0  0
   -1.4439   -0.1142    1.1840 H   0  0  0  0  0  0  0  0  0  0  0  0
   -1.0747    0.8648   -0.2571 H   0  0  0  0  0  0  0  0  0  0  0  0
    0.8491   -1.0625    1.2277 H   0  0  0  0  0  0  0  0  0  0  0  0
    0.8392    0.7544    1.4602 H   0  0  0  0  0  0  0  0  0  0  0  0
   -4.8959   -2.3875   -0.7060 H   0  0  0  0  0  0  0  0  0  0  0  0
   -4.7628   -1.1448   -2.0905 H   0  0  0  0  0  0  0  0  0  0  0  0
   -4.2440    0.6466    0.8297 H   0  0  0  0  0  0  0  0  0  0  0  0
   -5.9616    2.0300    2.0088 H   0  0  0  0  0  0  0  0  0  0  0  0
   -8.3347    1.7314    1.5908 H   0  0  0  0  0  0  0  0  0  0  0  0
   -9.0810    0.0751    0.0165 H   0  0  0  0  0  0  0  0  0  0  0  0
   -7.3600   -1.3318   -1.1808 H   0  0  0  0  0  0  0  0  0  0  0  0
  1  2  1  0
  2  3  2  0
  2  4  1  0
  4  5  2  0
  5  6  1  0
  6  7  2  0
  7  8  1  0
  8  9  2  0
  9 10  1  0
 10 11  1  0
 11 12  2  0
  8 13  1  0
 13 14  1  0
 14 15  1  0
 15 16  1  0
 16 17  1  0
 17 18  1  0
 16 19  1  0
 19 20  2  0
 19 21  1  0
 21 22  1  0
 22 23  1  0
 23 24  2  0
 24 25  1  0
 25 26  2  0
 26 27  1  0
 27 28  2  0
 12  4  1  0
 18 13  1  0
 28 23  1  0
 11  7  1  0
  5 29  1  0
  6 30  1  0
  9 31  1  0
 10 32  1  0
 12 33  1  0
 13 34  1  0
 14 35  1  0
 14 36  1  0
 15 37  1  0
 15 38  1  0
 17 39  1  0
 17 40  1  0
 18 41  1  0
 18 42  1  0
 22 43  1  0
 22 44  1  0
 24 45  1  0
 25 46  1  0
 26 47  1  0
 27 48  1  0
 28 49  1  0
M  CHG  2   1  -1   2   1
M  END
$$$$
