[H]c1c([H])c([H])c(-c2c([H])c([H])c([H])c([H])c2C([H])([H])N(C([H])([H])c2c([H])c([H])c([H])c([H])c2[H])S(=O)(=O)c2c([H])c([H])c(-c3c([H])c([H])c(Cl)c([H])c3[H])c([H])c2[H])c([H])c1[H]
     RDKit          3D

 63 67  0  0  0  0  0  0  0  0999 V2000
    8.7479    3.2964    1.1875 Cl  0  0  0  0  0  0  0  0  0  0  0  0
    7.2012    2.6276    0.6833 C   0  0  0  0  0  0  0  0  0  0  0  0
    7.2212    1.4417   -0.0458 C   0  0  0  0  0  0  0  0  0  0  0  0
    6.0248    0.8848   -0.4605 C   0  0  0  0  0  0  0  0  0  0  0  0
    4.8157    1.4795   -0.1670 C   0  0  0  0  0  0  0  0  0  0  0  0
    4.8413    2.6659    0.5651 C   0  0  0  0  0  0  0  0  0  0  0  0
    6.0077    3.2415    0.9896 C   0  0  0  0  0  0  0  0  0  0  0  0
    3.5504    0.8948   -0.6025 C   0  0  0  0  0  0  0  0  0  0  0  0
    3.4250   -0.4941   -0.7110 C   0  0  0  0  0  0  0  0  0  0  0  0
    2.2158   -1.0402   -1.1267 C   0  0  0  0  0  0  0  0  0  0  0  0
    1.1170   -0.2696   -1.4422 C   0  0  0  0  0  0  0  0  0  0  0  0
    1.2766    1.1001   -1.3239 C   0  0  0  0  0  0  0  0  0  0  0  0
    2.4600    1.6656   -0.9156 C   0  0  0  0  0  0  0  0  0  0  0  0
   -0.3806   -1.0002   -1.9656 S   0  0  0  0  0  0  0  0  0  0  0  0
   -1.1065    0.0546   -2.7910 O   0  0  0  0  0  0  0  0  0  0  0  0
   -0.1363   -2.1493   -2.8992 O   0  0  0  0  0  0  0  0  0  0  0  0
   -1.4131   -1.4289   -0.6607 N   0  0  0  0  0  0  0  0  0  0  0  0
   -1.7598   -0.2122    0.0550 C   0  0  0  0  0  0  0  0  0  0  0  0
   -3.0687    0.3206   -0.3750 C   0  0  0  0  0  0  0  0  0  0  0  0
   -3.7898   -0.3985   -1.3175 C   0  0  0  0  0  0  0  0  0  0  0  0
   -5.0159    0.0523   -1.6996 C   0  0  0  0  0  0  0  0  0  0  0  0
   -5.5160    1.2105   -1.1442 C   0  0  0  0  0  0  0  0  0  0  0  0
   -4.8160    1.9353   -0.2102 C   0  0  0  0  0  0  0  0  0  0  0  0
   -3.5493    1.4656    0.1807 C   0  0  0  0  0  0  0  0  0  0  0  0
   -2.8780    2.3104    1.1449 C   0  0  0  0  0  0  0  0  0  0  0  0
   -3.4881    2.5375    2.3845 C   0  0  0  0  0  0  0  0  0  0  0  0
   -2.9208    3.3548    3.3392 C   0  0  0  0  0  0  0  0  0  0  0  0
   -1.7188    3.9835    3.1015 C   0  0  0  0  0  0  0  0  0  0  0  0
   -1.1079    3.7705    1.8885 C   0  0  0  0  0  0  0  0  0  0  0  0
   -1.6842    2.9425    0.9229 C   0  0  0  0  0  0  0  0  0  0  0  0
   -0.7751   -2.3376    0.2571 C   0  0  0  0  0  0  0  0  0  0  0  0
   -0.9915   -3.7506   -0.0706 C   0  0  0  0  0  0  0  0  0  0  0  0
   -1.8002   -4.2233   -1.0494 C   0  0  0  0  0  0  0  0  0  0  0  0
   -1.9263   -5.5731   -1.2713 C   0  0  0  0  0  0  0  0  0  0  0  0
   -1.2417   -6.5025   -0.5151 C   0  0  0  0  0  0  0  0  0  0  0  0
   -0.4166   -6.0513    0.4819 C   0  0  0  0  0  0  0  0  0  0  0  0
   -0.3030   -4.6994    0.6893 C   0  0  0  0  0  0  0  0  0  0  0  0
    8.1574    0.9618   -0.2852 H   0  0  0  0  0  0  0  0  0  0  0  0
    6.0468   -0.0405   -1.0289 H   0  0  0  0  0  0  0  0  0  0  0  0
    3.9108    3.1534    0.8101 H   0  0  0  0  0  0  0  0  0  0  0  0
    6.0383    4.1582    1.5555 H   0  0  0  0  0  0  0  0  0  0  0  0
    4.2839   -1.1017   -0.4650 H   0  0  0  0  0  0  0  0  0  0  0  0
    2.1436   -2.1279   -1.2033 H   0  0  0  0  0  0  0  0  0  0  0  0
    0.4230    1.7398   -1.5701 H   0  0  0  0  0  0  0  0  0  0  0  0
    2.5305    2.7304   -0.8403 H   0  0  0  0  0  0  0  0  0  0  0  0
   -1.7745   -0.4470    1.1613 H   0  0  0  0  0  0  0  0  0  0  0  0
   -1.0020    0.5648   -0.0578 H   0  0  0  0  0  0  0  0  0  0  0  0
   -3.3833   -1.3050   -1.7325 H   0  0  0  0  0  0  0  0  0  0  0  0
   -5.5782   -0.5209   -2.4448 H   0  0  0  0  0  0  0  0  0  0  0  0
   -6.5043    1.5306   -1.4827 H   0  0  0  0  0  0  0  0  0  0  0  0
   -5.2462    2.8384    0.1988 H   0  0  0  0  0  0  0  0  0  0  0  0
   -4.4455    2.0510    2.6030 H   0  0  0  0  0  0  0  0  0  0  0  0
   -3.4168    3.5080    4.2831 H   0  0  0  0  0  0  0  0  0  0  0  0
   -1.2477    4.6362    3.8421 H   0  0  0  0  0  0  0  0  0  0  0  0
   -0.1736    4.2557    1.6975 H   0  0  0  0  0  0  0  0  0  0  0  0
   -1.1463    2.8523    0.0097 H   0  0  0  0  0  0  0  0  0  0  0  0
   -1.2495   -2.1651    1.2677 H   0  0  0  0  0  0  0  0  0  0  0  0
    0.3032   -2.1332    0.4005 H   0  0  0  0  0  0  0  0  0  0  0  0
   -2.3548   -3.5444   -1.6652 H   0  0  0  0  0  0  0  0  0  0  0  0
   -2.5689   -5.9827   -2.0508 H   0  0  0  0  0  0  0  0  0  0  0  0
   -1.3289   -7.5707   -0.6765 H   0  0  0  0  0  0  0  0  0  0  0  0
    0.1263   -6.7857    1.0827 H   0  0  0  0  0  0  0  0  0  0  0  0
    0.3565   -4.3614    1.4848 H   0  0  0  0  0  0  0  0  0  0  0  0
  1  2  1  0
  2  3  2  0
  3  4  1  0
  4  5  2  0
  5  6  1  0
  6  7  2  0
  5  8  1  0
  8  9  2  0
  9 10  1  0
 10 11  2  0
 11 12  1  0
 12 13  2  0
 11 14  1  0
 14 15  2  0
 14 16  2  0
 14 17  1  0
 17 18  1  0
 18 19  1  0
 19 20  2  0
 20 21  1  0
 21 22  2  0
 22 23  1  0
 23 24  2  0
 24 25  1  0
 25 26  2  0
 26 27  1  0
 27 28  2  0
 28 29  1  0
 29 30  2  0
 17 31  1  0
 31 32  1  0
 32 33  2  0
 33 34  1  0
 34 35  2  0
 35 36  1  0
 36 37  2  0
  7  2  1  0
 13  8  1  0
 24 19  1  0
 30 25  1  0
 37 32  1  0
  3 38  1  0
  4 39  1  0
  6 40  1  0
  7 41  1  0
  9 42  1  0
 10 43  1  0
 12 44  1  0
 13 45  1  0
 18 46  1  0
 18 47  1  0
 20 48  1  0
 21 49  1  0
 22 50  1  0
 23 51  1  0
 26 52  1  0
 27 53  1  0
 28 54  1  0
 29 55  1  0
 30 56  1  0
 31 57  1  0
 31 58  1  0
 33 59  1  0
 34 60  1  0
 35 61  1  0
 36 62  1  0
 37 63  1  0
M  END
$$$$
[H]/C(=C1/C([H])([H])c2c([H])c([H])c(F)c([H])c2S1(=O)=O)c1c(C([H])([H])[H])c(C([H])([H])[H])c([H])n1[H]
     RDKit          3D

 34 36  0  0  0  0  0  0  0  0999 V2000
   -4.7497   -0.4490    0.8435 C   0  0  0  0  0  0  0  0  0  0  0  0
   -3.6477    0.4567    0.4875 C   0  0  0  0  0  0  0  0  0  0  0  0
   -3.4868    1.7889    0.7760 C   0  0  0  0  0  0  0  0  0  0  0  0
   -2.3199    2.1843    0.2450 N   0  0  0  0  0  0  0  0  0  0  0  0
   -1.7201    1.1295   -0.3835 C   0  0  0  0  0  0  0  0  0  0  0  0
   -0.4600    1.2760   -1.0721 C   0  0  0  0  0  0  0  0  0  0  0  0
    0.6091    0.5615   -0.9356 C   0  0  0  0  0  0  0  0  0  0  0  0
    0.8907   -0.5722   -0.0851 C   0  0  0  0  0  0  0  0  0  0  0  0
    2.3215   -0.5923    0.2614 C   0  0  0  0  0  0  0  0  0  0  0  0
    2.9005   -1.2646    1.3420 C   0  0  0  0  0  0  0  0  0  0  0  0
    4.2404   -1.2229    1.5695 C   0  0  0  0  0  0  0  0  0  0  0  0
    5.0418   -0.4989    0.7112 C   0  0  0  0  0  0  0  0  0  0  0  0
    6.3868   -0.4448    0.9224 F   0  0  0  0  0  0  0  0  0  0  0  0
    4.5161    0.1733   -0.3574 C   0  0  0  0  0  0  0  0  0  0  0  0
    3.1539    0.1072   -0.5555 C   0  0  0  0  0  0  0  0  0  0  0  0
    2.1191    0.8357   -1.7948 S   0  0  0  0  0  0  0  0  0  0  0  0
    2.1377    0.0640   -3.0634 O   0  0  0  0  0  0  0  0  0  0  0  0
    2.4189    2.2916   -1.9633 O   0  0  0  0  0  0  0  0  0  0  0  0
   -2.5243    0.0549   -0.2462 C   0  0  0  0  0  0  0  0  0  0  0  0
   -2.3367   -1.3110   -0.7749 C   0  0  0  0  0  0  0  0  0  0  0  0
   -4.9925   -1.0919   -0.0347 H   0  0  0  0  0  0  0  0  0  0  0  0
   -5.6719    0.0820    1.1069 H   0  0  0  0  0  0  0  0  0  0  0  0
   -4.4285   -1.1565    1.6630 H   0  0  0  0  0  0  0  0  0  0  0  0
   -4.1832    2.3951    1.3319 H   0  0  0  0  0  0  0  0  0  0  0  0
   -1.9322    3.1459    0.3024 H   0  0  0  0  0  0  0  0  0  0  0  0
   -0.4209    2.1167   -1.8127 H   0  0  0  0  0  0  0  0  0  0  0  0
    0.7083   -1.5288   -0.6525 H   0  0  0  0  0  0  0  0  0  0  0  0
    0.2671   -0.6380    0.8278 H   0  0  0  0  0  0  0  0  0  0  0  0
    2.2997   -1.8497    2.0458 H   0  0  0  0  0  0  0  0  0  0  0  0
    4.6800   -1.7607    2.4290 H   0  0  0  0  0  0  0  0  0  0  0  0
    5.1237    0.7464   -1.0425 H   0  0  0  0  0  0  0  0  0  0  0  0
   -1.9193   -1.9407    0.0332 H   0  0  0  0  0  0  0  0  0  0  0  0
   -1.6822   -1.3652   -1.6664 H   0  0  0  0  0  0  0  0  0  0  0  0
   -3.3393   -1.7230   -1.0572 H   0  0  0  0  0  0  0  0  0  0  0  0
  1  2  1  0
  2  3  2  0
  3  4  1  0
  4  5  1  0
  5  6  1  0
  6  7  2  0
  7  8  1  0
  8  9  1  0
  9 10  2  0
 10 11  1  0
 11 12  2  0
 12 13  1  0
 12 14  1  0
 14 15  2  0
 15 16  1  0
 16 17  2  0
 16 18  2  0
  5 19  2  0
 19 20  1  0
 19  2  1  0
 16  7  1  0
 15  9  1  0
  1 21  1  0
  1 22  1  0
  1 23  1  0
  3 24  1  0
  4 25  1  0
  6 26  1  0
  8 27  1  0
  8 28  1  0
 10 29  1  0
 11 30  1  0
 14 31  1  0
 20 32  1  0
 20 33  1  0
 20 34  1  0
M  END
$$$$
[H]c1c([H])c([H])c(-c2c([H])c([H])c(C(=O)N([H])c3c([H])c([H])c(OC([H])([H])[H])c(F)c3[H])n2-c2c([H])c([H])c(F)c([H])c2OC([H])([H])C([H])([H])OC([H])([H])C([H])([H])OC([H])([H])C([H])([H])[H])c([H])c1[H]
     RDKit          3D

 69 72  0  0  0  0  0  0  0  0999 V2000
    6.6438    2.9116    1.2243 C   0  0  0  0  0  0  0  0  0  0  0  0
    5.3762    3.4527    0.5896 C   0  0  0  0  0  0  0  0  0  0  0  0
    5.4603    3.1688   -0.7605 O   0  0  0  0  0  0  0  0  0  0  0  0
    4.3702    3.6194   -1.4514 C   0  0  0  0  0  0  0  0  0  0  0  0
    3.0815    3.0021   -0.9707 C   0  0  0  0  0  0  0  0  0  0  0  0
    3.1744    1.6077   -1.1365 O   0  0  0  0  0  0  0  0  0  0  0  0
    1.9441    1.0906   -0.6719 C   0  0  0  0  0  0  0  0  0  0  0  0
    2.0157   -0.4056   -0.8298 C   0  0  0  0  0  0  0  0  0  0  0  0
    0.9375   -1.1212   -0.4426 O   0  0  0  0  0  0  0  0  0  0  0  0
    0.2955   -1.3386    0.7485 C   0  0  0  0  0  0  0  0  0  0  0  0
    0.7443   -0.7795    1.9214 C   0  0  0  0  0  0  0  0  0  0  0  0
    0.0968   -0.9960    3.1475 C   0  0  0  0  0  0  0  0  0  0  0  0
    0.5723   -0.4237    4.2839 F   0  0  0  0  0  0  0  0  0  0  0  0
   -1.0303   -1.8006    3.1736 C   0  0  0  0  0  0  0  0  0  0  0  0
   -1.4837   -2.3648    1.9975 C   0  0  0  0  0  0  0  0  0  0  0  0
   -0.8535   -2.1553    0.7943 C   0  0  0  0  0  0  0  0  0  0  0  0
   -1.3149   -2.7220   -0.4134 N   0  0  0  0  0  0  0  0  0  0  0  0
   -2.0090   -2.0058   -1.3318 C   0  0  0  0  0  0  0  0  0  0  0  0
   -2.2948   -2.9211   -2.3553 C   0  0  0  0  0  0  0  0  0  0  0  0
   -1.7646   -4.1286   -2.0061 C   0  0  0  0  0  0  0  0  0  0  0  0
   -1.1356   -4.0087   -0.7656 C   0  0  0  0  0  0  0  0  0  0  0  0
   -0.5125   -5.1564   -0.1112 C   0  0  0  0  0  0  0  0  0  0  0  0
   -0.8010   -6.4157   -0.6048 C   0  0  0  0  0  0  0  0  0  0  0  0
   -0.2530   -7.5810   -0.1237 C   0  0  0  0  0  0  0  0  0  0  0  0
    0.6380   -7.4926    0.9132 C   0  0  0  0  0  0  0  0  0  0  0  0
    0.9708   -6.2829    1.4507 C   0  0  0  0  0  0  0  0  0  0  0  0
    0.3838   -5.1295    0.9220 C   0  0  0  0  0  0  0  0  0  0  0  0
   -2.4689   -0.6387   -1.3849 C   0  0  0  0  0  0  0  0  0  0  0  0
   -2.8499   -0.2256   -2.5463 O   0  0  0  0  0  0  0  0  0  0  0  0
   -2.5822    0.3355   -0.3924 N   0  0  0  0  0  0  0  0  0  0  0  0
   -3.0402    1.6785   -0.5713 C   0  0  0  0  0  0  0  0  0  0  0  0
   -3.6764    2.2813    0.5253 C   0  0  0  0  0  0  0  0  0  0  0  0
   -4.1238    3.5792    0.4415 C   0  0  0  0  0  0  0  0  0  0  0  0
   -3.9528    4.3084   -0.7255 C   0  0  0  0  0  0  0  0  0  0  0  0
   -4.3960    5.6295   -0.8454 O   0  0  0  0  0  0  0  0  0  0  0  0
   -5.0401    6.2862    0.2209 C   0  0  0  0  0  0  0  0  0  0  0  0
   -3.3355    3.7563   -1.8202 C   0  0  0  0  0  0  0  0  0  0  0  0
   -3.1450    4.4239   -2.9779 F   0  0  0  0  0  0  0  0  0  0  0  0
   -2.8931    2.4335   -1.6971 C   0  0  0  0  0  0  0  0  0  0  0  0
    7.4622    2.9620    0.4848 H   0  0  0  0  0  0  0  0  0  0  0  0
    6.9124    3.5154    2.1144 H   0  0  0  0  0  0  0  0  0  0  0  0
    6.5057    1.8455    1.5361 H   0  0  0  0  0  0  0  0  0  0  0  0
    5.3212    4.5250    0.8125 H   0  0  0  0  0  0  0  0  0  0  0  0
    4.5202    2.9193    1.0796 H   0  0  0  0  0  0  0  0  0  0  0  0
    4.4775    3.3318   -2.5227 H   0  0  0  0  0  0  0  0  0  0  0  0
    4.2513    4.7222   -1.3778 H   0  0  0  0  0  0  0  0  0  0  0  0
    2.8074    3.2480    0.0588 H   0  0  0  0  0  0  0  0  0  0  0  0
    2.2733    3.3431   -1.6689 H   0  0  0  0  0  0  0  0  0  0  0  0
    1.1298    1.5223   -1.3354 H   0  0  0  0  0  0  0  0  0  0  0  0
    1.7145    1.4171    0.3261 H   0  0  0  0  0  0  0  0  0  0  0  0
    3.0005   -0.7727   -0.4286 H   0  0  0  0  0  0  0  0  0  0  0  0
    2.1492   -0.5672   -1.9515 H   0  0  0  0  0  0  0  0  0  0  0  0
    1.6240   -0.1678    1.9389 H   0  0  0  0  0  0  0  0  0  0  0  0
   -1.5063   -1.9485    4.1336 H   0  0  0  0  0  0  0  0  0  0  0  0
   -2.3709   -2.9864    2.0799 H   0  0  0  0  0  0  0  0  0  0  0  0
   -2.8499   -2.6920   -3.2691 H   0  0  0  0  0  0  0  0  0  0  0  0
   -1.8119   -5.0450   -2.5988 H   0  0  0  0  0  0  0  0  0  0  0  0
   -1.5151   -6.5649   -1.4323 H   0  0  0  0  0  0  0  0  0  0  0  0
   -0.5144   -8.5571   -0.5497 H   0  0  0  0  0  0  0  0  0  0  0  0
    1.0749   -8.3898    1.3019 H   0  0  0  0  0  0  0  0  0  0  0  0
    1.6615   -6.1791    2.2593 H   0  0  0  0  0  0  0  0  0  0  0  0
    0.7056   -4.2058    1.3639 H   0  0  0  0  0  0  0  0  0  0  0  0
   -2.3295    0.1054    0.5909 H   0  0  0  0  0  0  0  0  0  0  0  0
   -3.8015    1.7018    1.4225 H   0  0  0  0  0  0  0  0  0  0  0  0
   -4.6155    4.0627    1.2700 H   0  0  0  0  0  0  0  0  0  0  0  0
   -6.0507    5.8641    0.3327 H   0  0  0  0  0  0  0  0  0  0  0  0
   -4.5005    6.1664    1.1688 H   0  0  0  0  0  0  0  0  0  0  0  0
   -5.0950    7.3609    0.0024 H   0  0  0  0  0  0  0  0  0  0  0  0
   -2.3784    1.9921   -2.5598 H   0  0  0  0  0  0  0  0  0  0  0  0
  1  2  1  0
  2  3  1  0
  3  4  1  0
  4  5  1  0
  5  6  1  0
  6  7  1  0
  7  8  1  0
  8  9  1  0
  9 10  1  0
 10 11  2  0
 11 12  1  0
 12 13  1  0
 12 14  2  0
 14 15  1  0
 15 16  2  0
 16 17  1  0
 17 18  1  0
 18 19  2  0
 19 20  1  0
 20 21  2  0
 21 22  1  0
 22 23  2  0
 23 24  1  0
 24 25  2  0
 25 26  1  0
 26 27  2  0
 18 28  1  0
 28 29  2  0
 28 30  1  0
 30 31  1  0
 31 32  2  0
 32 33  1  0
 33 34  2  0
 34 35  1  0
 35 36  1  0
 34 37  1  0
 37 38  1  0
 37 39  2  0
 16 10  1  0
 21 17  1  0
 27 22  1  0
 39 31  1  0
  1 40  1  0
  1 41  1  0
  1 42  1  0
  2 43  1  0
  2 44  1  0
  4 45  1  0
  4 46  1  0
  5 47  1  0
  5 48  1  0
  7 49  1  0
  7 50  1  0
  8 51  1  0
  8 52  1  0
 11 53  1  0
 14 54  1  0
 15 55  1  0
 19 56  1  0
 20 57  1  0
 23 58  1  0
 24 59  1  0
 25 60  1  0
 26 61  1  0
 27 62  1  0
 30 63  1  0
 32 64  1  0
 33 65  1  0
 36 66  1  0
 36 67  1  0
 36 68  1  0
 39 69  1  0
M  END
$$$$
[H]Oc1c([H])c([H])c(C([H])([H])C([H])([H])N([H])C(=O)N([H])c2c([H])c([H])c([H])c(Cl)c2[H])c([H])c1-c1c([H])c([H])c(Oc2nnnn2C([H])([H])[H])c([H])c1Cl
     RDKit          3D

 54 57  0  0  0  0  0  0  0  0999 V2000
    9.1397   -0.0182    0.2698 C   0  0  0  0  0  0  0  0  0  0  0  0
    8.6942   -1.3813    0.3665 N   0  0  0  0  0  0  0  0  0  0  0  0
    9.3516   -2.4509   -0.0969 N   0  0  0  0  0  0  0  0  0  0  0  0
    8.6713   -3.5529    0.1532 N   0  0  0  0  0  0  0  0  0  0  0  0
    7.5711   -3.1654    0.7831 N   0  0  0  0  0  0  0  0  0  0  0  0
    7.5705   -1.8387    0.9211 C   0  0  0  0  0  0  0  0  0  0  0  0
    6.5956   -1.0903    1.5210 O   0  0  0  0  0  0  0  0  0  0  0  0
    5.4426   -0.6419    0.9052 C   0  0  0  0  0  0  0  0  0  0  0  0
    4.5459    0.1107    1.6317 C   0  0  0  0  0  0  0  0  0  0  0  0
    3.3733    0.5957    1.0933 C   0  0  0  0  0  0  0  0  0  0  0  0
    3.0472    0.3364   -0.2317 C   0  0  0  0  0  0  0  0  0  0  0  0
    3.9437   -0.4164   -0.9596 C   0  0  0  0  0  0  0  0  0  0  0  0
    3.5665   -0.7648   -2.6342 Cl  0  0  0  0  0  0  0  0  0  0  0  0
    5.1247   -0.9027   -0.4106 C   0  0  0  0  0  0  0  0  0  0  0  0
    1.7975    0.8553   -0.7844 C   0  0  0  0  0  0  0  0  0  0  0  0
    1.7955    1.8588   -1.7276 C   0  0  0  0  0  0  0  0  0  0  0  0
    3.0260    2.3749   -2.1513 O   0  0  0  0  0  0  0  0  0  0  0  0
    0.5994    2.3314   -2.2316 C   0  0  0  0  0  0  0  0  0  0  0  0
   -0.6055    1.7910   -1.7840 C   0  0  0  0  0  0  0  0  0  0  0  0
   -0.6128    0.7876   -0.8412 C   0  0  0  0  0  0  0  0  0  0  0  0
   -1.8535    0.1561   -0.3090 C   0  0  0  0  0  0  0  0  0  0  0  0
   -2.3424    0.8867    0.9034 C   0  0  0  0  0  0  0  0  0  0  0  0
   -3.5316    0.3468    1.4970 N   0  0  0  0  0  0  0  0  0  0  0  0
   -4.7887    0.2567    0.7974 C   0  0  0  0  0  0  0  0  0  0  0  0
   -4.7862    0.6947   -0.3961 O   0  0  0  0  0  0  0  0  0  0  0  0
   -5.8893   -0.2908    1.4625 N   0  0  0  0  0  0  0  0  0  0  0  0
   -7.2039   -0.4718    0.9789 C   0  0  0  0  0  0  0  0  0  0  0  0
   -8.1044   -1.1616    1.7832 C   0  0  0  0  0  0  0  0  0  0  0  0
   -9.3995   -1.3687    1.3790 C   0  0  0  0  0  0  0  0  0  0  0  0
   -9.8275   -0.8955    0.1690 C   0  0  0  0  0  0  0  0  0  0  0  0
   -8.9675   -0.2093   -0.6531 C   0  0  0  0  0  0  0  0  0  0  0  0
   -9.4749    0.4086   -2.1997 Cl  0  0  0  0  0  0  0  0  0  0  0  0
   -7.6582   -0.0180   -0.2091 C   0  0  0  0  0  0  0  0  0  0  0  0
    0.5874    0.3345   -0.3554 C   0  0  0  0  0  0  0  0  0  0  0  0
    9.2225    0.4557    1.2791 H   0  0  0  0  0  0  0  0  0  0  0  0
   10.1305    0.0355   -0.1820 H   0  0  0  0  0  0  0  0  0  0  0  0
    8.3891    0.5605   -0.3052 H   0  0  0  0  0  0  0  0  0  0  0  0
    4.7863    0.3238    2.6754 H   0  0  0  0  0  0  0  0  0  0  0  0
    2.6690    1.1872    1.6661 H   0  0  0  0  0  0  0  0  0  0  0  0
    5.8169   -1.4912   -0.9936 H   0  0  0  0  0  0  0  0  0  0  0  0
    3.1255    3.0995   -2.8284 H   0  0  0  0  0  0  0  0  0  0  0  0
    0.5977    3.1051   -2.9585 H   0  0  0  0  0  0  0  0  0  0  0  0
   -1.5539    2.1283   -2.1485 H   0  0  0  0  0  0  0  0  0  0  0  0
   -1.6277   -0.8986    0.0009 H   0  0  0  0  0  0  0  0  0  0  0  0
   -2.5566    0.1166   -1.1353 H   0  0  0  0  0  0  0  0  0  0  0  0
   -1.5371    0.9422    1.6724 H   0  0  0  0  0  0  0  0  0  0  0  0
   -2.5340    1.9605    0.6235 H   0  0  0  0  0  0  0  0  0  0  0  0
   -3.5021    0.0024    2.4694 H   0  0  0  0  0  0  0  0  0  0  0  0
   -5.6778   -0.6056    2.4761 H   0  0  0  0  0  0  0  0  0  0  0  0
   -7.7743   -1.5341    2.7310 H   0  0  0  0  0  0  0  0  0  0  0  0
  -10.0934   -1.9111    2.0188 H   0  0  0  0  0  0  0  0  0  0  0  0
  -10.8531   -1.0410   -0.1856 H   0  0  0  0  0  0  0  0  0  0  0  0
   -7.0256    0.5267   -0.8825 H   0  0  0  0  0  0  0  0  0  0  0  0
    0.6001   -0.4492    0.3821 H   0  0  0  0  0  0  0  0  0  0  0  0
  1  2  1  0
  2  3  1  0
  3  4  2  0
  4  5  1  0
  5  6  2  0
  6  7  1  0
  7  8  1  0
  8  9  2  0
  9 10  1  0
 10 11  2  0
 11 12  1  0
 12 13  1  0
 12 14  2  0
 11 15  1  0
 15 16  2  0
 16 17  1  0
 16 18  1  0
 18 19  2  0
 19 20  1  0
 20 21  1  0
 21 22  1  0
 22 23  1  0
 23 24  1  0
 24 25  2  0
 24 26  1  0
 26 27  1  0
 27 28  2  0
 28 29  1  0
 29 30  2  0
 30 31  1  0
 31 32  1  0
 31 33  2  0
 20 34  2  0
  6  2  1  0
 14  8  1  0
 34 15  1  0
 33 27  1  0
  1 35  1  0
  1 36  1  0
  1 37  1  0
  9 38  1  0
 10 39  1  0
 14 40  1  0
 17 41  1  0
 18 42  1  0
 19 43  1  0
 21 44  1  0
 21 45  1  0
 22 46  1  0
 22 47  1  0
 23 48  1  0
 26 49  1  0
 28 50  1  0
 29 51  1  0
 30 52  1  0
 33 53  1  0
 34 54  1  0
M  END
$$$$
[H]c1c([H])c([H])c([C@@]23C([H])([H])C(C([H])([H])[H])(C([H])([H])[H])O[C@@]2([H])[C@@]([H])(C([H])([H])c2nc4c([H])c([H])c([H])c([H])c4c([H])c2[H])C3([H])[H])c([H])c1[H]
     RDKit          3D

 51 55  0  0  0  0  0  0  0  0999 V2000
    2.4587   -3.2366   -1.4489 C   0  0  0  0  0  0  0  0  0  0  0  0
    2.7975   -1.9166   -0.7445 C   0  0  0  0  0  0  0  0  0  0  0  0
    4.1475   -2.0216   -0.1980 C   0  0  0  0  0  0  0  0  0  0  0  0
    1.8020   -1.6799    0.2632 O   0  0  0  0  0  0  0  0  0  0  0  0
    0.9190   -1.1516   -0.5320 C   0  0  1  0  0  0  0  0  0  0  0  0
   -0.3277   -0.4748   -0.5299 C   0  0  1  0  0  0  0  0  0  0  0  0
   -1.0638   -0.5310    0.7156 C   0  0  0  0  0  0  0  0  0  0  0  0
   -2.4071    0.0274    0.8295 C   0  0  0  0  0  0  0  0  0  0  0  0
   -2.9617    0.1002    2.1160 C   0  0  0  0  0  0  0  0  0  0  0  0
   -4.2445    0.5079    2.3750 C   0  0  0  0  0  0  0  0  0  0  0  0
   -5.0629    0.8777    1.3040 C   0  0  0  0  0  0  0  0  0  0  0  0
   -6.3684    1.2710    1.5288 C   0  0  0  0  0  0  0  0  0  0  0  0
   -7.1537    1.6057    0.4484 C   0  0  0  0  0  0  0  0  0  0  0  0
   -6.6236    1.5411   -0.8203 C   0  0  0  0  0  0  0  0  0  0  0  0
   -5.3204    1.1463   -1.0304 C   0  0  0  0  0  0  0  0  0  0  0  0
   -4.5036    0.8030    0.0525 C   0  0  0  0  0  0  0  0  0  0  0  0
   -3.2194    0.3918   -0.1722 N   0  0  0  0  0  0  0  0  0  0  0  0
    0.4494    0.6949   -1.0498 C   0  0  0  0  0  0  0  0  0  0  0  0
    1.7218    0.0687   -0.9249 C   0  0  2  0  0  0  0  0  0  0  0  0
    2.5713   -0.7776   -1.7795 C   0  0  0  0  0  0  0  0  0  0  0  0
    2.6497    0.7458   -0.0393 C   0  0  0  0  0  0  0  0  0  0  0  0
    3.8031    1.2885   -0.5774 C   0  0  0  0  0  0  0  0  0  0  0  0
    4.7633    1.9541    0.1952 C   0  0  0  0  0  0  0  0  0  0  0  0
    4.5856    2.0920    1.5329 C   0  0  0  0  0  0  0  0  0  0  0  0
    3.4545    1.5703    2.1089 C   0  0  0  0  0  0  0  0  0  0  0  0
    2.5235    0.9181    1.3253 C   0  0  0  0  0  0  0  0  0  0  0  0
    1.5949   -3.7508   -0.9375 H   0  0  0  0  0  0  0  0  0  0  0  0
    2.1766   -3.0531   -2.5022 H   0  0  0  0  0  0  0  0  0  0  0  0
    3.2914   -3.9391   -1.4120 H   0  0  0  0  0  0  0  0  0  0  0  0
    4.3610   -3.1254   -0.0149 H   0  0  0  0  0  0  0  0  0  0  0  0
    4.9477   -1.6796   -0.8560 H   0  0  0  0  0  0  0  0  0  0  0  0
    4.2203   -1.6192    0.8559 H   0  0  0  0  0  0  0  0  0  0  0  0
    0.7901   -1.9491   -1.3655 H   0  0  0  0  0  0  0  0  0  0  0  0
   -1.0634   -0.7338   -1.3421 H   0  0  0  0  0  0  0  0  0  0  0  0
   -1.2001   -1.6444    0.9296 H   0  0  0  0  0  0  0  0  0  0  0  0
   -0.5127   -0.2151    1.6484 H   0  0  0  0  0  0  0  0  0  0  0  0
   -2.3236   -0.1855    2.9599 H   0  0  0  0  0  0  0  0  0  0  0  0
   -4.6684    0.5635    3.3685 H   0  0  0  0  0  0  0  0  0  0  0  0
   -6.7529    1.3103    2.5552 H   0  0  0  0  0  0  0  0  0  0  0  0
   -8.1836    1.9167    0.6109 H   0  0  0  0  0  0  0  0  0  0  0  0
   -7.2423    1.8041   -1.6937 H   0  0  0  0  0  0  0  0  0  0  0  0
   -4.8824    1.0853   -2.0247 H   0  0  0  0  0  0  0  0  0  0  0  0
    0.2219    1.0510   -2.0855 H   0  0  0  0  0  0  0  0  0  0  0  0
    0.3317    1.5704   -0.3782 H   0  0  0  0  0  0  0  0  0  0  0  0
    3.5384   -0.4996   -2.1011 H   0  0  0  0  0  0  0  0  0  0  0  0
    1.9035   -1.1859   -2.5974 H   0  0  0  0  0  0  0  0  0  0  0  0
    4.0634    1.2652   -1.6509 H   0  0  0  0  0  0  0  0  0  0  0  0
    5.6629    2.3615   -0.2824 H   0  0  0  0  0  0  0  0  0  0  0  0
    5.3441    2.6116    2.1269 H   0  0  0  0  0  0  0  0  0  0  0  0
    3.3295    1.6912    3.1775 H   0  0  0  0  0  0  0  0  0  0  0  0
    1.6618    0.5351    1.8459 H   0  0  0  0  0  0  0  0  0  0  0  0
  1  2  1  0
  2  3  1  0
  2  4  1  0
  4  5  1  0
  5  6  1  0
  6  7  1  0
  7  8  1  0
  8  9  2  0
  9 10  1  0
 10 11  2  0
 11 12  1  0
 12 13  2  0
 13 14  1  0
 14 15  2  0
 15 16  1  0
 16 17  2  0
  6 18  1  0
 18 19  1  0
 19 20  1  0
 19 21  1  1
 21 22  2  0
 22 23  1  0
 23 24  2  0
 24 25  1  0
 25 26  2  0
 20  2  1  0
 26 21  1  0
 19  5  1  0
 17  8  1  0
 16 11  1  0
  1 27  1  0
  1 28  1  0
  1 29  1  0
  3 30  1  0
  3 31  1  0
  3 32  1  0
  5 33  1  6
  6 34  1  6
  7 35  1  0
  7 36  1  0
  9 37  1  0
 10 38  1  0
 12 39  1  0
 13 40  1  0
 14 41  1  0
 15 42  1  0
 18 43  1  0
 18 44  1  0
 20 45  1  0
 20 46  1  0
 22 47  1  0
 23 48  1  0
 24 49  1  0
 25 50  1  0
 26 51  1  0
M  END
$$$$
[H]c1c([H])c(N(C([H])([H])[H])C([H])([H])[H])c([H])c([H])c1-c1nc(C([H])([H])[H])c2c(n1)C([H])([H])C([H])([H])[C@@]([H])(C([H])([H])[H])N(C1([H])C([H])([H])C1([H])[H])C([H])([H])C2([H])[H]
     RDKit          3D

 56 59  0  0  0  0  0  0  0  0999 V2000
    7.4794   -0.9374    1.3388 C   0  0  0  0  0  0  0  0  0  0  0  0
    6.9068   -0.0059    0.3641 N   0  0  0  0  0  0  0  0  0  0  0  0
    7.7842    0.8426   -0.4452 C   0  0  0  0  0  0  0  0  0  0  0  0
    5.5108    0.0702    0.2084 C   0  0  0  0  0  0  0  0  0  0  0  0
    4.9731    0.9498   -0.7112 C   0  0  0  0  0  0  0  0  0  0  0  0
    3.5992    1.0148   -0.8546 C   0  0  0  0  0  0  0  0  0  0  0  0
    2.7583    0.2320   -0.1108 C   0  0  0  0  0  0  0  0  0  0  0  0
    3.3321   -0.6305    0.7935 C   0  0  0  0  0  0  0  0  0  0  0  0
    4.7024   -0.7362    0.9779 C   0  0  0  0  0  0  0  0  0  0  0  0
    1.3081    0.2892   -0.2511 C   0  0  0  0  0  0  0  0  0  0  0  0
    0.4978   -0.4770    0.4762 N   0  0  0  0  0  0  0  0  0  0  0  0
   -0.8378   -0.3930    0.3152 C   0  0  0  0  0  0  0  0  0  0  0  0
   -1.4394   -1.3644    1.2642 C   0  0  0  0  0  0  0  0  0  0  0  0
   -2.2837   -0.5428    2.2267 C   0  0  0  0  0  0  0  0  0  0  0  0
   -3.6428   -0.2834    1.5869 C   0  0  1  0  0  0  0  0  0  0  0  0
   -4.0081    1.1787    1.6731 C   0  0  0  0  0  0  0  0  0  0  0  0
   -3.7698   -0.8693    0.3137 N   0  0  0  0  0  0  0  0  0  0  0  0
   -3.7945   -0.0742   -0.8386 C   0  0  0  0  0  0  0  0  0  0  0  0
   -2.6933    0.8805   -1.0770 C   0  0  0  0  0  0  0  0  0  0  0  0
   -1.3609    0.5054   -0.6216 C   0  0  0  0  0  0  0  0  0  0  0  0
   -0.5181    1.2998   -1.3753 C   0  0  0  0  0  0  0  0  0  0  0  0
   -0.9835    2.2701   -2.3776 C   0  0  0  0  0  0  0  0  0  0  0  0
    0.8043    1.1573   -1.1562 N   0  0  0  0  0  0  0  0  0  0  0  0
   -4.8664   -1.8296    0.2439 C   0  0  0  0  0  0  0  0  0  0  0  0
   -6.2555   -1.3946    0.4611 C   0  0  0  0  0  0  0  0  0  0  0  0
   -5.7690   -1.8738   -0.9180 C   0  0  0  0  0  0  0  0  0  0  0  0
    7.2575   -1.9901    1.0828 H   0  0  0  0  0  0  0  0  0  0  0  0
    8.5801   -0.7550    1.4156 H   0  0  0  0  0  0  0  0  0  0  0  0
    7.0383   -0.6800    2.3140 H   0  0  0  0  0  0  0  0  0  0  0  0
    7.4158    1.8817   -0.3915 H   0  0  0  0  0  0  0  0  0  0  0  0
    8.8079    0.7618   -0.0288 H   0  0  0  0  0  0  0  0  0  0  0  0
    7.7756    0.4356   -1.4703 H   0  0  0  0  0  0  0  0  0  0  0  0
    5.6144    1.5638   -1.2950 H   0  0  0  0  0  0  0  0  0  0  0  0
    3.2224    1.7116   -1.5799 H   0  0  0  0  0  0  0  0  0  0  0  0
    2.6824   -1.2491    1.3825 H   0  0  0  0  0  0  0  0  0  0  0  0
    5.1356   -1.4232    1.6966 H   0  0  0  0  0  0  0  0  0  0  0  0
   -0.6347   -1.9144    1.7924 H   0  0  0  0  0  0  0  0  0  0  0  0
   -2.0518   -2.0695    0.6903 H   0  0  0  0  0  0  0  0  0  0  0  0
   -1.7770    0.4362    2.4321 H   0  0  0  0  0  0  0  0  0  0  0  0
   -2.3307   -1.0775    3.1715 H   0  0  0  0  0  0  0  0  0  0  0  0
   -4.3735   -0.8094    2.2749 H   0  0  0  0  0  0  0  0  0  0  0  0
   -3.0761    1.7847    1.6885 H   0  0  0  0  0  0  0  0  0  0  0  0
   -4.7300    1.4906    0.9151 H   0  0  0  0  0  0  0  0  0  0  0  0
   -4.4982    1.4041    2.6668 H   0  0  0  0  0  0  0  0  0  0  0  0
   -3.8129   -0.7957   -1.7152 H   0  0  0  0  0  0  0  0  0  0  0  0
   -4.7602    0.4988   -0.9866 H   0  0  0  0  0  0  0  0  0  0  0  0
   -3.0149    1.8930   -0.7083 H   0  0  0  0  0  0  0  0  0  0  0  0
   -2.6182    1.0338   -2.1966 H   0  0  0  0  0  0  0  0  0  0  0  0
   -1.8360    2.9018   -2.0313 H   0  0  0  0  0  0  0  0  0  0  0  0
   -0.1643    3.0264   -2.5727 H   0  0  0  0  0  0  0  0  0  0  0  0
   -1.1672    1.8199   -3.3845 H   0  0  0  0  0  0  0  0  0  0  0  0
   -4.5785   -2.8169    0.6660 H   0  0  0  0  0  0  0  0  0  0  0  0
   -6.9891   -2.0580    0.9859 H   0  0  0  0  0  0  0  0  0  0  0  0
   -6.5370   -0.3253    0.5613 H   0  0  0  0  0  0  0  0  0  0  0  0
   -5.8264   -1.1062   -1.6898 H   0  0  0  0  0  0  0  0  0  0  0  0
   -6.1871   -2.8519   -1.2310 H   0  0  0  0  0  0  0  0  0  0  0  0
  1  2  1  0
  2  3  1  0
  2  4  1  0
  4  5  2  0
  5  6  1  0
  6  7  2  0
  7  8  1  0
  8  9  2  0
  7 10  1  0
 10 11  2  0
 11 12  1  0
 12 13  1  0
 13 14  1  0
 14 15  1  0
 15 16  1  0
 15 17  1  0
 17 18  1  0
 18 19  1  0
 19 20  1  0
 20 21  1  0
 21 22  1  0
 21 23  2  0
 17 24  1  0
 24 25  1  0
 25 26  1  0
  9  4  1  0
 23 10  1  0
 26 24  1  0
 20 12  2  0
  1 27  1  0
  1 28  1  0
  1 29  1  0
  3 30  1  0
  3 31  1  0
  3 32  1  0
  5 33  1  0
  6 34  1  0
  8 35  1  0
  9 36  1  0
 13 37  1  0
 13 38  1  0
 14 39  1  0
 14 40  1  0
 15 41  1  1
 16 42  1  0
 16 43  1  0
 16 44  1  0
 18 45  1  0
 18 46  1  0
 19 47  1  0
 19 48  1  0
 22 49  1  0
 22 50  1  0
 22 51  1  0
 24 52  1  0
 25 53  1  0
 25 54  1  0
 26 55  1  0
 26 56  1  0
M  END
$$$$
[H]OC(=O)N(C([H])([H])c1c([H])c([H])c(-c2c([H])c([H])c(Cl)c([H])c2[H])c([H])c1[H])C([H])([H])c1c([H])c([H])c([H])c(OC([H])([H])[H])c1[H]
     RDKit          3D

 47 49  0  0  0  0  0  0  0  0999 V2000
   -7.5072   -1.7875    1.3217 C   0  0  0  0  0  0  0  0  0  0  0  0
   -6.2270   -1.9266    0.7621 O   0  0  0  0  0  0  0  0  0  0  0  0
   -5.3622   -0.8504    0.6483 C   0  0  0  0  0  0  0  0  0  0  0  0
   -5.7312    0.4030    1.0836 C   0  0  0  0  0  0  0  0  0  0  0  0
   -4.8870    1.4877    0.9802 C   0  0  0  0  0  0  0  0  0  0  0  0
   -3.6274    1.3388    0.4267 C   0  0  0  0  0  0  0  0  0  0  0  0
   -3.2401    0.0966   -0.0136 C   0  0  0  0  0  0  0  0  0  0  0  0
   -1.9079   -0.1124   -0.6120 C   0  0  0  0  0  0  0  0  0  0  0  0
   -1.1360    1.1111   -0.6854 N   0  0  0  0  0  0  0  0  0  0  0  0
   -0.2788    1.4752    0.4224 C   0  0  0  0  0  0  0  0  0  0  0  0
    1.0881    0.9279    0.2742 C   0  0  0  0  0  0  0  0  0  0  0  0
    1.4066    0.1392   -0.8122 C   0  0  0  0  0  0  0  0  0  0  0  0
    2.7009   -0.3672   -0.9358 C   0  0  0  0  0  0  0  0  0  0  0  0
    3.6896   -0.1116   -0.0085 C   0  0  0  0  0  0  0  0  0  0  0  0
    3.3358    0.6856    1.0727 C   0  0  0  0  0  0  0  0  0  0  0  0
    2.0610    1.1947    1.2109 C   0  0  0  0  0  0  0  0  0  0  0  0
    5.0474   -0.6319   -0.1208 C   0  0  0  0  0  0  0  0  0  0  0  0
    5.8323   -0.9364    0.9736 C   0  0  0  0  0  0  0  0  0  0  0  0
    7.1185   -1.4295    0.8390 C   0  0  0  0  0  0  0  0  0  0  0  0
    7.6632   -1.6346   -0.4210 C   0  0  0  0  0  0  0  0  0  0  0  0
    9.2917   -2.2593   -0.5898 Cl  0  0  0  0  0  0  0  0  0  0  0  0
    6.8922   -1.3354   -1.5195 C   0  0  0  0  0  0  0  0  0  0  0  0
    5.6121   -0.8448   -1.3620 C   0  0  0  0  0  0  0  0  0  0  0  0
   -1.2052    1.9495   -1.8131 C   0  0  0  0  0  0  0  0  0  0  0  0
   -2.0074    1.6565   -2.9076 O   0  0  0  0  0  0  0  0  0  0  0  0
   -0.5353    2.9969   -1.8595 O   0  0  0  0  0  0  0  0  0  0  0  0
   -4.0946   -0.9693    0.0984 C   0  0  0  0  0  0  0  0  0  0  0  0
   -7.4407   -1.3391    2.3354 H   0  0  0  0  0  0  0  0  0  0  0  0
   -8.0747   -1.0999    0.6335 H   0  0  0  0  0  0  0  0  0  0  0  0
   -8.0462   -2.7302    1.4193 H   0  0  0  0  0  0  0  0  0  0  0  0
   -6.7275    0.4896    1.5142 H   0  0  0  0  0  0  0  0  0  0  0  0
   -5.2162    2.4528    1.3339 H   0  0  0  0  0  0  0  0  0  0  0  0
   -2.9837    2.2018    0.3561 H   0  0  0  0  0  0  0  0  0  0  0  0
   -2.0268   -0.4950   -1.6513 H   0  0  0  0  0  0  0  0  0  0  0  0
   -1.3689   -0.8346    0.0361 H   0  0  0  0  0  0  0  0  0  0  0  0
   -0.2364    2.5858    0.5722 H   0  0  0  0  0  0  0  0  0  0  0  0
   -0.7060    1.0454    1.3509 H   0  0  0  0  0  0  0  0  0  0  0  0
    0.6815   -0.1087   -1.5881 H   0  0  0  0  0  0  0  0  0  0  0  0
    2.9460   -0.9897   -1.7966 H   0  0  0  0  0  0  0  0  0  0  0  0
    4.1207    0.8868    1.8064 H   0  0  0  0  0  0  0  0  0  0  0  0
    1.7954    1.8130    2.0542 H   0  0  0  0  0  0  0  0  0  0  0  0
    5.4145   -0.7791    1.9555 H   0  0  0  0  0  0  0  0  0  0  0  0
    7.7524   -1.6752    1.6847 H   0  0  0  0  0  0  0  0  0  0  0  0
    7.3272   -1.4995   -2.4956 H   0  0  0  0  0  0  0  0  0  0  0  0
    5.0256   -0.6172   -2.2390 H   0  0  0  0  0  0  0  0  0  0  0  0
   -2.4272    2.3630   -3.4939 H   0  0  0  0  0  0  0  0  0  0  0  0
   -3.8013   -1.9360   -0.2409 H   0  0  0  0  0  0  0  0  0  0  0  0
  1  2  1  0
  2  3  1  0
  3  4  2  0
  4  5  1  0
  5  6  2  0
  6  7  1  0
  7  8  1  0
  8  9  1  0
  9 10  1  0
 10 11  1  0
 11 12  2  0
 12 13  1  0
 13 14  2  0
 14 15  1  0
 15 16  2  0
 14 17  1  0
 17 18  2  0
 18 19  1  0
 19 20  2  0
 20 21  1  0
 20 22  1  0
 22 23  2  0
  9 24  1  0
 24 25  1  0
 24 26  2  0
  7 27  2  0
 27  3  1  0
 16 11  1  0
 23 17  1  0
  1 28  1  0
  1 29  1  0
  1 30  1  0
  4 31  1  0
  5 32  1  0
  6 33  1  0
  8 34  1  0
  8 35  1  0
 10 36  1  0
 10 37  1  0
 12 38  1  0
 13 39  1  0
 15 40  1  0
 16 41  1  0
 18 42  1  0
 19 43  1  0
 22 44  1  0
 23 45  1  0
 25 46  1  0
 27 47  1  0
M  END
$$$$
[H]c1nc2c(c(N([H])[H])n1)C([H])([H])C([H])([H])N(S(=O)(=O)c1c([H])c([H])c(C(F)(F)F)c([H])c1[H])c1c([H])c([H])c([H])c([H])c1-2
     RDKit          3D

 44 47  0  0  0  0  0  0  0  0999 V2000
    5.3207    2.6121   -2.5743 F   0  0  0  0  0  0  0  0  0  0  0  0
    5.8034    1.7028   -1.6598 C   0  0  0  0  0  0  0  0  0  0  0  0
    6.7566    2.3275   -0.8862 F   0  0  0  0  0  0  0  0  0  0  0  0
    6.4421    0.6409   -2.2685 F   0  0  0  0  0  0  0  0  0  0  0  0
    4.6649    1.2157   -0.7988 C   0  0  0  0  0  0  0  0  0  0  0  0
    4.1401    1.9993    0.2022 C   0  0  0  0  0  0  0  0  0  0  0  0
    3.0938    1.5613    0.9784 C   0  0  0  0  0  0  0  0  0  0  0  0
    2.5114    0.3187    0.8051 C   0  0  0  0  0  0  0  0  0  0  0  0
    3.0705   -0.4505   -0.2181 C   0  0  0  0  0  0  0  0  0  0  0  0
    4.1143   -0.0203   -0.9999 C   0  0  0  0  0  0  0  0  0  0  0  0
    1.1384   -0.2297    1.7579 S   0  0  0  0  0  0  0  0  0  0  0  0
    1.6183   -1.3864    2.4936 O   0  0  0  0  0  0  0  0  0  0  0  0
    0.9182    0.9483    2.7308 O   0  0  0  0  0  0  0  0  0  0  0  0
   -0.1736   -0.3308    0.6895 N   0  0  0  0  0  0  0  0  0  0  0  0
   -0.5840    0.9284    0.0193 C   0  0  0  0  0  0  0  0  0  0  0  0
   -1.8866    1.4600    0.5132 C   0  0  0  0  0  0  0  0  0  0  0  0
   -3.0737    0.6578    0.1130 C   0  0  0  0  0  0  0  0  0  0  0  0
   -4.1810    1.4484   -0.1436 C   0  0  0  0  0  0  0  0  0  0  0  0
   -3.9900    2.8508    0.0086 N   0  0  0  0  0  0  0  0  0  0  0  0
   -5.3632    0.9065   -0.5195 N   0  0  0  0  0  0  0  0  0  0  0  0
   -5.4863   -0.4090   -0.6509 C   0  0  0  0  0  0  0  0  0  0  0  0
   -4.4196   -1.1949   -0.4037 N   0  0  0  0  0  0  0  0  0  0  0  0
   -3.2398   -0.7011   -0.0317 C   0  0  0  0  0  0  0  0  0  0  0  0
   -2.2320   -1.7281    0.1824 C   0  0  0  0  0  0  0  0  0  0  0  0
   -2.7138   -3.0079    0.0548 C   0  0  0  0  0  0  0  0  0  0  0  0
   -1.8700   -4.0843    0.2310 C   0  0  0  0  0  0  0  0  0  0  0  0
   -0.5300   -3.8951    0.5360 C   0  0  0  0  0  0  0  0  0  0  0  0
   -0.0233   -2.6161    0.6675 C   0  0  0  0  0  0  0  0  0  0  0  0
   -0.8716   -1.5503    0.4921 C   0  0  0  0  0  0  0  0  0  0  0  0
    4.6078    2.9733    0.3484 H   0  0  0  0  0  0  0  0  0  0  0  0
    2.6968    2.1927    1.7637 H   0  0  0  0  0  0  0  0  0  0  0  0
    2.6690   -1.4529   -0.4350 H   0  0  0  0  0  0  0  0  0  0  0  0
    4.4976   -0.6612   -1.7683 H   0  0  0  0  0  0  0  0  0  0  0  0
    0.1925    1.6745    0.1769 H   0  0  0  0  0  0  0  0  0  0  0  0
   -0.6570    0.7622   -1.0776 H   0  0  0  0  0  0  0  0  0  0  0  0
   -1.8216    1.5891    1.6007 H   0  0  0  0  0  0  0  0  0  0  0  0
   -1.9975    2.4743    0.0608 H   0  0  0  0  0  0  0  0  0  0  0  0
   -4.0347    3.4131   -0.8635 H   0  0  0  0  0  0  0  0  0  0  0  0
   -3.8175    3.2057    0.9491 H   0  0  0  0  0  0  0  0  0  0  0  0
   -6.4522   -0.8070   -0.9592 H   0  0  0  0  0  0  0  0  0  0  0  0
   -3.7770   -3.1494   -0.1845 H   0  0  0  0  0  0  0  0  0  0  0  0
   -2.2245   -5.0903    0.1416 H   0  0  0  0  0  0  0  0  0  0  0  0
    0.1647   -4.6908    0.6777 H   0  0  0  0  0  0  0  0  0  0  0  0
    0.9995   -2.4072    0.8856 H   0  0  0  0  0  0  0  0  0  0  0  0
  1  2  1  0
  2  3  1  0
  2  4  1  0
  2  5  1  0
  5  6  2  0
  6  7  1  0
  7  8  2  0
  8  9  1  0
  9 10  2  0
  8 11  1  0
 11 12  2  0
 11 13  2  0
 11 14  1  0
 14 15  1  0
 15 16  1  0
 16 17  1  0
 17 18  2  0
 18 19  1  0
 18 20  1  0
 20 21  2  0
 21 22  1  0
 22 23  2  0
 23 24  1  0
 24 25  2  0
 25 26  1  0
 26 27  2  0
 27 28  1  0
 28 29  2  0
 10  5  1  0
 29 14  1  0
 23 17  1  0
 29 24  1  0
  6 30  1  0
  7 31  1  0
  9 32  1  0
 10 33  1  0
 15 34  1  0
 15 35  1  0
 16 36  1  0
 16 37  1  0
 19 38  1  0
 19 39  1  0
 21 40  1  0
 25 41  1  0
 26 42  1  0
 27 43  1  0
 28 44  1  0
M  END
$$$$
[H]C(=O)C1([H])c2c([H])c([H])c([H])c([H])c2[C@]2([H])C([H])([H])C([H])([H])[C@@]34C([H])([H])N(N([H])S(=O)(=O)C([H])([H])[H])C([H])([H])C([H])([H])C(=C([H])C(Br)=C([N+](=O)[O-])C([H])=C(C([H])([H])[H])C([H])(C1([H])[H])C([H])([H])C([H])([H])[C@]32[H])C([H])([H])C4([H])[H]
     RDKit          3D

 78 82  0  0  0  0  0  0  0  0999 V2000
   -4.8040    1.3889    1.6676 O   0  0  0  0  0  0  0  0  0  0  0  0
   -4.6339    0.4510    0.9217 C   0  0  0  0  0  0  0  0  0  0  0  0
   -3.2651   -0.0812    0.6177 C   0  0  0  0  0  0  0  0  0  0  0  0
   -2.9649    0.3118   -0.7875 C   0  0  0  0  0  0  0  0  0  0  0  0
   -1.8566    1.2858   -0.9287 C   0  0  0  0  0  0  0  0  0  0  0  0
   -0.9117    0.7575   -1.9767 C   0  0  0  0  0  0  0  0  0  0  0  0
   -0.4616   -0.6361   -1.7684 C   0  0  0  0  0  0  0  0  0  0  0  0
   -0.2540   -1.0122   -0.3244 C   0  0  1  0  0  0  0  0  0  0  0  0
   -0.8982   -2.3165   -0.1128 C   0  0  1  0  0  0  0  0  0  0  0  0
    0.1979   -3.2114    0.4440 C   0  0  0  0  0  0  0  0  0  0  0  0
    1.5096   -2.5435    0.2120 C   0  0  0  0  0  0  0  0  0  0  0  0
    1.2025   -1.0510    0.0643 C   0  0  1  0  0  0  0  0  0  0  0  0
    2.1612   -0.5448   -0.9597 C   0  0  0  0  0  0  0  0  0  0  0  0
    3.4830   -0.3315   -0.4185 N   0  0  0  0  0  0  0  0  0  0  0  0
    3.7739    0.9485    0.0916 C   0  0  0  0  0  0  0  0  0  0  0  0
    2.8424    2.0420   -0.1702 C   0  0  0  0  0  0  0  0  0  0  0  0
    1.5876    2.0438    0.7073 C   0  0  0  0  0  0  0  0  0  0  0  0
    1.0609    3.2368    0.5146 C   0  0  0  0  0  0  0  0  0  0  0  0
   -0.0718    4.0001    0.9371 C   0  0  0  0  0  0  0  0  0  0  0  0
    0.2687    5.1316    2.5819 Br  0  0  0  0  0  0  0  0  0  0  0  0
   -1.2670    4.2027    0.3913 C   0  0  0  0  0  0  0  0  0  0  0  0
   -1.9300    3.7860   -0.8048 C   0  0  0  0  0  0  0  0  0  0  0  0
   -2.2039    2.6515   -1.3971 C   0  0  0  0  0  0  0  0  0  0  0  0
   -2.9303    2.6270   -2.7355 C   0  0  0  0  0  0  0  0  0  0  0  0
   -2.1239    5.0561    1.2481 N   0  0  0  0  0  0  0  0  0  0  0  0
   -2.0964    6.3876    0.9528 O   0  0  0  0  0  0  0  0  0  0  0  0
   -2.8001    4.5975    2.1475 O   0  0  0  0  0  0  0  0  0  0  0  0
    4.4023   -0.7484   -1.3891 N   0  0  0  0  0  0  0  0  0  0  0  0
    5.8870   -1.2778   -0.7154 S   0  0  0  0  0  0  0  0  0  0  0  0
    5.9023   -2.9936   -0.3486 C   0  0  0  0  0  0  0  0  0  0  0  0
    6.2231   -0.5082    0.5097 O   0  0  0  0  0  0  0  0  0  0  0  0
    6.9706   -0.9729   -1.7386 O   0  0  0  0  0  0  0  0  0  0  0  0
    1.4863   -0.4050    1.3758 C   0  0  0  0  0  0  0  0  0  0  0  0
    1.1336    0.9740    1.5920 C   0  0  0  0  0  0  0  0  0  0  0  0
   -2.1389   -2.4040    0.6992 C   0  0  0  0  0  0  0  0  0  0  0  0
   -2.2843   -3.7158    1.2299 C   0  0  0  0  0  0  0  0  0  0  0  0
   -3.3192   -4.1197    2.0235 C   0  0  0  0  0  0  0  0  0  0  0  0
   -4.2843   -3.1971    2.3292 C   0  0  0  0  0  0  0  0  0  0  0  0
   -4.1493   -1.9312    1.8193 C   0  0  0  0  0  0  0  0  0  0  0  0
   -3.0869   -1.4956    0.9972 C   0  0  0  0  0  0  0  0  0  0  0  0
   -5.4808   -0.0276    0.4536 H   0  0  0  0  0  0  0  0  0  0  0  0
   -2.5938    0.5329    1.2771 H   0  0  0  0  0  0  0  0  0  0  0  0
   -3.8751    0.7537   -1.2392 H   0  0  0  0  0  0  0  0  0  0  0  0
   -2.8316   -0.6472   -1.3527 H   0  0  0  0  0  0  0  0  0  0  0  0
   -1.4478    1.4780    0.0591 H   0  0  0  0  0  0  0  0  0  0  0  0
   -0.0929    1.5005   -2.0514 H   0  0  0  0  0  0  0  0  0  0  0  0
   -1.4574    0.8533   -2.9495 H   0  0  0  0  0  0  0  0  0  0  0  0
    0.4621   -0.7732   -2.4002 H   0  0  0  0  0  0  0  0  0  0  0  0
   -1.1810   -1.3196   -2.2835 H   0  0  0  0  0  0  0  0  0  0  0  0
   -0.6719   -0.3347    0.4062 H   0  0  0  0  0  0  0  0  0  0  0  0
   -1.1842   -2.8241   -1.0915 H   0  0  0  0  0  0  0  0  0  0  0  0
   -0.0111   -3.3491    1.5461 H   0  0  0  0  0  0  0  0  0  0  0  0
    0.1944   -4.2184   -0.0038 H   0  0  0  0  0  0  0  0  0  0  0  0
    2.0213   -2.9517   -0.6668 H   0  0  0  0  0  0  0  0  0  0  0  0
    2.1556   -2.7363    1.0956 H   0  0  0  0  0  0  0  0  0  0  0  0
    2.2514   -1.3660   -1.7349 H   0  0  0  0  0  0  0  0  0  0  0  0
    1.8896    0.3549   -1.4929 H   0  0  0  0  0  0  0  0  0  0  0  0
    4.0444    0.9817    1.1906 H   0  0  0  0  0  0  0  0  0  0  0  0
    4.7604    1.2738   -0.3707 H   0  0  0  0  0  0  0  0  0  0  0  0
    2.5842    2.2513   -1.2064 H   0  0  0  0  0  0  0  0  0  0  0  0
    3.3524    2.9919    0.1860 H   0  0  0  0  0  0  0  0  0  0  0  0
    1.7559    3.8610   -0.1421 H   0  0  0  0  0  0  0  0  0  0  0  0
   -2.3697    4.6045   -1.4828 H   0  0  0  0  0  0  0  0  0  0  0  0
   -3.7736    3.3455   -2.5920 H   0  0  0  0  0  0  0  0  0  0  0  0
   -2.2486    2.9674   -3.5418 H   0  0  0  0  0  0  0  0  0  0  0  0
   -3.3327    1.6312   -2.9276 H   0  0  0  0  0  0  0  0  0  0  0  0
    3.9940   -1.3986   -2.0668 H   0  0  0  0  0  0  0  0  0  0  0  0
    5.7687   -3.1915    0.7428 H   0  0  0  0  0  0  0  0  0  0  0  0
    5.1376   -3.5156   -0.9629 H   0  0  0  0  0  0  0  0  0  0  0  0
    6.9077   -3.3918   -0.5997 H   0  0  0  0  0  0  0  0  0  0  0  0
    2.5022   -0.7533    1.7037 H   0  0  0  0  0  0  0  0  0  0  0  0
    0.8357   -0.9993    2.1057 H   0  0  0  0  0  0  0  0  0  0  0  0
    0.0504    1.1026    1.7874 H   0  0  0  0  0  0  0  0  0  0  0  0
    1.5768    1.2492    2.6173 H   0  0  0  0  0  0  0  0  0  0  0  0
   -1.5355   -4.4881    0.9979 H   0  0  0  0  0  0  0  0  0  0  0  0
   -3.4041   -5.1294    2.4152 H   0  0  0  0  0  0  0  0  0  0  0  0
   -5.1493   -3.4543    2.9660 H   0  0  0  0  0  0  0  0  0  0  0  0
   -4.9604   -1.2464    2.1098 H   0  0  0  0  0  0  0  0  0  0  0  0
  1  2  2  0
  2  3  1  0
  3  4  1  0
  4  5  1  0
  5  6  1  0
  6  7  1  0
  7  8  1  0
  8  9  1  0
  9 10  1  0
 10 11  1  0
 12 11  1  1
 12 13  1  0
 13 14  1  0
 14 15  1  0
 15 16  1  0
 16 17  1  0
 17 18  2  0
 18 19  1  0
 19 20  1  0
 19 21  2  0
 21 22  1  0
 22 23  2  0
 23 24  1  0
 21 25  1  0
 25 26  1  0
 25 27  2  0
 14 28  1  0
 28 29  1  0
 29 30  1  0
 29 31  2  0
 29 32  2  0
 12 33  1  0
 33 34  1  0
  9 35  1  0
 35 36  2  0
 36 37  1  0
 37 38  2  0
 38 39  1  0
 39 40  2  0
 40  3  1  0
 23  5  1  0
 40 35  1  0
 12  8  1  0
 34 17  1  0
  2 41  1  0
  3 42  1  0
  4 43  1  0
  4 44  1  0
  5 45  1  0
  6 46  1  0
  6 47  1  0
  7 48  1  0
  7 49  1  0
  8 50  1  1
  9 51  1  6
 10 52  1  0
 10 53  1  0
 11 54  1  0
 11 55  1  0
 13 56  1  0
 13 57  1  0
 15 58  1  0
 15 59  1  0
 16 60  1  0
 16 61  1  0
 18 62  1  0
 22 63  1  0
 24 64  1  0
 24 65  1  0
 24 66  1  0
 28 67  1  0
 30 68  1  0
 30 69  1  0
 30 70  1  0
 33 71  1  0
 33 72  1  0
 34 73  1  0
 34 74  1  0
 36 75  1  0
 37 76  1  0
 38 77  1  0
 39 78  1  0
M  CHG  2  25   1  26  -1
M  END
$$$$
[H]/C(=C(/[H])c1c([H])c([H])c(N([H])S(=O)(=O)c2c([H])c([H])c(-c3c([H])c(Cl)c(OC([H])([H])[H])c([H])c3C(=O)N([H])C([H])([H])[H])c([H])c2[H])c([H])c1[H])c1c([H])c([H])c([H])c([H])c1[H]
     RDKit          3D

 62 65  0  0  0  0  0  0  0  0999 V2000
   -7.5914    2.8496   -0.2937 C   0  0  0  0  0  0  0  0  0  0  0  0
   -7.0895    1.6137   -0.5021 N   0  0  0  0  0  0  0  0  0  0  0  0
   -6.5724    0.3385   -0.7212 C   0  0  0  0  0  0  0  0  0  0  0  0
   -6.4816   -0.2847   -1.7726 O   0  0  0  0  0  0  0  0  0  0  0  0
   -6.0719   -0.3807    0.4725 C   0  0  0  0  0  0  0  0  0  0  0  0
   -7.0678   -1.0494    1.2081 C   0  0  0  0  0  0  0  0  0  0  0  0
   -6.7835   -1.7407    2.3651 C   0  0  0  0  0  0  0  0  0  0  0  0
   -7.7054   -2.4213    3.1310 O   0  0  0  0  0  0  0  0  0  0  0  0
   -9.0564   -2.4606    2.7723 C   0  0  0  0  0  0  0  0  0  0  0  0
   -5.4516   -1.7563    2.7934 C   0  0  0  0  0  0  0  0  0  0  0  0
   -5.0503   -2.6304    4.2649 Cl  0  0  0  0  0  0  0  0  0  0  0  0
   -4.5110   -1.1017    2.0602 C   0  0  0  0  0  0  0  0  0  0  0  0
   -4.7835   -0.3971    0.8828 C   0  0  0  0  0  0  0  0  0  0  0  0
   -3.6261    0.1653    0.1915 C   0  0  0  0  0  0  0  0  0  0  0  0
   -3.5048    1.4442   -0.2456 C   0  0  0  0  0  0  0  0  0  0  0  0
   -2.3210    1.7970   -0.9181 C   0  0  0  0  0  0  0  0  0  0  0  0
   -1.3149    0.8840   -1.1290 C   0  0  0  0  0  0  0  0  0  0  0  0
   -1.4339   -0.4137   -0.6851 C   0  0  0  0  0  0  0  0  0  0  0  0
   -2.5712   -0.7613   -0.0367 C   0  0  0  0  0  0  0  0  0  0  0  0
    0.1296    1.3018   -1.9873 S   0  0  0  0  0  0  0  0  0  0  0  0
    0.9131    2.2423   -1.0973 O   0  0  0  0  0  0  0  0  0  0  0  0
   -0.1594    1.9356   -3.3067 O   0  0  0  0  0  0  0  0  0  0  0  0
    1.0972   -0.1186   -2.2679 N   0  0  0  0  0  0  0  0  0  0  0  0
    2.4007   -0.2626   -1.7581 C   0  0  0  0  0  0  0  0  0  0  0  0
    2.7814   -1.3872   -1.0743 C   0  0  0  0  0  0  0  0  0  0  0  0
    4.0773   -1.4734   -0.6293 C   0  0  0  0  0  0  0  0  0  0  0  0
    5.0124   -0.4645   -0.8473 C   0  0  0  0  0  0  0  0  0  0  0  0
    6.3522   -0.6386   -0.3365 C   0  0  0  0  0  0  0  0  0  0  0  0
    7.3333    0.2164   -0.5461 C   0  0  0  0  0  0  0  0  0  0  0  0
    8.6892    0.0669   -0.0381 C   0  0  0  0  0  0  0  0  0  0  0  0
    9.6395    1.0337   -0.3989 C   0  0  0  0  0  0  0  0  0  0  0  0
   10.9040    0.9674    0.0510 C   0  0  0  0  0  0  0  0  0  0  0  0
   11.3395   -0.0597    0.8929 C   0  0  0  0  0  0  0  0  0  0  0  0
   10.4098   -1.0202    1.2548 C   0  0  0  0  0  0  0  0  0  0  0  0
    9.1342   -0.9298    0.7870 C   0  0  0  0  0  0  0  0  0  0  0  0
    4.6145    0.6548   -1.5341 C   0  0  0  0  0  0  0  0  0  0  0  0
    3.3235    0.7627   -1.9862 C   0  0  0  0  0  0  0  0  0  0  0  0
   -7.6450    3.1524    0.8176 H   0  0  0  0  0  0  0  0  0  0  0  0
   -7.0369    3.7062   -0.7963 H   0  0  0  0  0  0  0  0  0  0  0  0
   -8.6817    2.9542   -0.6272 H   0  0  0  0  0  0  0  0  0  0  0  0
   -7.3056    1.7427   -1.8350 H   0  0  0  0  0  0  0  0  0  0  0  0
   -8.1044   -1.0177    0.8594 H   0  0  0  0  0  0  0  0  0  0  0  0
   -9.2293   -2.4802    1.6540 H   0  0  0  0  0  0  0  0  0  0  0  0
   -9.5616   -1.5567    3.1509 H   0  0  0  0  0  0  0  0  0  0  0  0
   -9.5511   -3.4046    3.1676 H   0  0  0  0  0  0  0  0  0  0  0  0
   -3.4812   -1.1329    2.4212 H   0  0  0  0  0  0  0  0  0  0  0  0
   -4.2722    2.1507   -0.0668 H   0  0  0  0  0  0  0  0  0  0  0  0
   -2.2477    2.8231   -1.2644 H   0  0  0  0  0  0  0  0  0  0  0  0
   -0.6391   -1.1679   -0.8403 H   0  0  0  0  0  0  0  0  0  0  0  0
   -2.6820   -1.7930    0.3315 H   0  0  0  0  0  0  0  0  0  0  0  0
    0.6411   -0.8591   -2.8390 H   0  0  0  0  0  0  0  0  0  0  0  0
    2.0822   -2.2003   -0.8793 H   0  0  0  0  0  0  0  0  0  0  0  0
    4.3761   -2.3734   -0.0741 H   0  0  0  0  0  0  0  0  0  0  0  0
    6.5804   -1.5240    0.2632 H   0  0  0  0  0  0  0  0  0  0  0  0
    7.0751    1.0906   -1.1526 H   0  0  0  0  0  0  0  0  0  0  0  0
    9.3427    1.8487   -1.0486 H   0  0  0  0  0  0  0  0  0  0  0  0
   11.6544    1.7108   -0.2220 H   0  0  0  0  0  0  0  0  0  0  0  0
   12.3518   -0.0825    1.2295 H   0  0  0  0  0  0  0  0  0  0  0  0
   10.6796   -1.8530    1.9146 H   0  0  0  0  0  0  0  0  0  0  0  0
    8.4261   -1.6999    1.0946 H   0  0  0  0  0  0  0  0  0  0  0  0
    5.2633    1.4875   -1.7525 H   0  0  0  0  0  0  0  0  0  0  0  0
    2.9612    1.6247   -2.5212 H   0  0  0  0  0  0  0  0  0  0  0  0
  1  2  1  0
  2  3  1  0
  3  4  2  0
  3  5  1  0
  5  6  2  0
  6  7  1  0
  7  8  1  0
  8  9  1  0
  7 10  2  0
 10 11  1  0
 10 12  1  0
 12 13  2  0
 13 14  1  0
 14 15  2  0
 15 16  1  0
 16 17  2  0
 17 18  1  0
 18 19  2  0
 17 20  1  0
 20 21  2  0
 20 22  2  0
 20 23  1  0
 23 24  1  0
 24 25  2  0
 25 26  1  0
 26 27  2  0
 27 28  1  0
 28 29  2  0
 29 30  1  0
 30 31  2  0
 31 32  1  0
 32 33  2  0
 33 34  1  0
 34 35  2  0
 27 36  1  0
 36 37  2  0
 13  5  1  0
 19 14  1  0
 37 24  1  0
 35 30  1  0
  1 38  1  0
  1 39  1  0
  1 40  1  0
  2 41  1  0
  6 42  1  0
  9 43  1  0
  9 44  1  0
  9 45  1  0
 12 46  1  0
 15 47  1  0
 16 48  1  0
 18 49  1  0
 19 50  1  0
 23 51  1  0
 25 52  1  0
 26 53  1  0
 28 54  1  0
 29 55  1  0
 31 56  1  0
 32 57  1  0
 33 58  1  0
 34 59  1  0
 35 60  1  0
 36 61  1  0
 37 62  1  0
M  END
$$$$
[H]OC1(C([H])([H])c2c([H])c([H])c([H])c([H])c2[H])N=C1c1c([H])c([H])c([H])c(OC([H])=O)c1[H]
     RDKit          3D

 33 35  0  0  0  0  0  0  0  0999 V2000
   -1.3913    0.9419   -1.7154 O   0  0  0  0  0  0  0  0  0  0  0  0
   -0.8488    0.7354   -0.4492 C   0  0  0  0  0  0  0  0  0  0  0  0
   -1.2936   -0.5059    0.3026 C   0  0  0  0  0  0  0  0  0  0  0  0
   -2.7543   -0.4405    0.4909 C   0  0  0  0  0  0  0  0  0  0  0  0
   -3.2622    0.1639    1.6206 C   0  0  0  0  0  0  0  0  0  0  0  0
   -4.6254    0.2356    1.8159 C   0  0  0  0  0  0  0  0  0  0  0  0
   -5.5139   -0.2869    0.9015 C   0  0  0  0  0  0  0  0  0  0  0  0
   -4.9986   -0.8875   -0.2216 C   0  0  0  0  0  0  0  0  0  0  0  0
   -3.6236   -0.9647   -0.4274 C   0  0  0  0  0  0  0  0  0  0  0  0
    0.5464    1.1349   -0.1743 C   0  0  0  0  0  0  0  0  0  0  0  0
   -0.5348    1.9325    0.2739 N   0  0  0  0  0  0  0  0  0  0  0  0
    1.9724    1.0366   -0.1958 C   0  0  0  0  0  0  0  0  0  0  0  0
    2.7727    1.9883    0.3933 C   0  0  0  0  0  0  0  0  0  0  0  0
    4.1407    1.8664    0.3561 C   0  0  0  0  0  0  0  0  0  0  0  0
    4.7488    0.7789   -0.2774 C   0  0  0  0  0  0  0  0  0  0  0  0
    3.9670   -0.1859   -0.8738 C   0  0  0  0  0  0  0  0  0  0  0  0
    4.5593   -1.2764   -1.5095 O   0  0  0  0  0  0  0  0  0  0  0  0
    4.8223   -2.4295   -0.7856 C   0  0  0  0  0  0  0  0  0  0  0  0
    4.5056   -2.4290    0.4306 O   0  0  0  0  0  0  0  0  0  0  0  0
    2.6035   -0.0442   -0.8247 C   0  0  0  0  0  0  0  0  0  0  0  0
   -1.0699    0.2999   -2.3842 H   0  0  0  0  0  0  0  0  0  0  0  0
   -0.9992   -1.3708   -0.3430 H   0  0  0  0  0  0  0  0  0  0  0  0
   -0.7274   -0.6369    1.2457 H   0  0  0  0  0  0  0  0  0  0  0  0
   -2.5785    0.5781    2.3465 H   0  0  0  0  0  0  0  0  0  0  0  0
   -5.0286    0.7065    2.6964 H   0  0  0  0  0  0  0  0  0  0  0  0
   -6.5842   -0.2436    1.0310 H   0  0  0  0  0  0  0  0  0  0  0  0
   -5.7029   -1.2971   -0.9379 H   0  0  0  0  0  0  0  0  0  0  0  0
   -3.2472   -1.4417   -1.3178 H   0  0  0  0  0  0  0  0  0  0  0  0
    2.2918    2.8209    0.8779 H   0  0  0  0  0  0  0  0  0  0  0  0
    4.7626    2.6238    0.8246 H   0  0  0  0  0  0  0  0  0  0  0  0
    5.8305    0.6889   -0.3029 H   0  0  0  0  0  0  0  0  0  0  0  0
    5.2887   -3.3077   -1.2567 H   0  0  0  0  0  0  0  0  0  0  0  0
    1.9722   -0.7842   -1.2830 H   0  0  0  0  0  0  0  0  0  0  0  0
  1  2  1  0
  2  3  1  0
  3  4  1  0
  4  5  2  0
  5  6  1  0
  6  7  2  0
  7  8  1  0
  8  9  2  0
  2 10  1  0
 10 11  2  0
 10 12  1  0
 12 13  2  0
 13 14  1  0
 14 15  2  0
 15 16  1  0
 16 17  1  0
 17 18  1  0
 18 19  2  0
 16 20  2  0
 11  2  1  0
 20 12  1  0
  9  4  1  0
  1 21  1  0
  3 22  1  0
  3 23  1  0
  5 24  1  0
  6 25  1  0
  7 26  1  0
  8 27  1  0
  9 28  1  0
 13 29  1  0
 14 30  1  0
 15 31  1  0
 18 32  1  0
 20 33  1  0
M  END
$$$$
[H]c1nc(N2C([H])([H])C([H])([H])C([H])(C([H])([H])C(=O)N3C([H])([H])C([H])([H])N(S(=O)(=O)c4c([H])c([H])c(OC([H])([H])[H])c([H])c4[H])C([H])([H])C3([H])[H])C([H])([H])C2([H])[H])c2c([H])c(F)c([H])c([H])c2n1
     RDKit          3D

 67 71  0  0  0  0  0  0  0  0999 V2000
    9.7949   -2.2394    1.6885 C   0  0  0  0  0  0  0  0  0  0  0  0
    9.3573   -0.9236    1.5456 O   0  0  0  0  0  0  0  0  0  0  0  0
    8.2927   -0.5717    0.7223 C   0  0  0  0  0  0  0  0  0  0  0  0
    7.5815   -1.4984   -0.0219 C   0  0  0  0  0  0  0  0  0  0  0  0
    6.5327   -1.1453   -0.8319 C   0  0  0  0  0  0  0  0  0  0  0  0
    6.1360    0.1687   -0.9411 C   0  0  0  0  0  0  0  0  0  0  0  0
    6.8433    1.0971   -0.1999 C   0  0  0  0  0  0  0  0  0  0  0  0
    7.9020    0.7469    0.6188 C   0  0  0  0  0  0  0  0  0  0  0  0
    4.8148    0.7107   -1.9441 S   0  0  0  0  0  0  0  0  0  0  0  0
    4.7135   -0.2400   -3.1012 O   0  0  0  0  0  0  0  0  0  0  0  0
    5.1897    2.0608   -2.4904 O   0  0  0  0  0  0  0  0  0  0  0  0
    3.3851    0.7459   -1.0259 N   0  0  0  0  0  0  0  0  0  0  0  0
    3.4391    1.6505    0.0920 C   0  0  0  0  0  0  0  0  0  0  0  0
    2.0121    1.9224    0.5156 C   0  0  0  0  0  0  0  0  0  0  0  0
    1.3219    0.6418    0.4961 N   0  0  0  0  0  0  0  0  0  0  0  0
    2.1714   -0.5277    0.6256 C   0  0  0  0  0  0  0  0  0  0  0  0
    3.0073   -0.5931   -0.6606 C   0  0  0  0  0  0  0  0  0  0  0  0
   -0.0902    0.5473    0.3602 C   0  0  0  0  0  0  0  0  0  0  0  0
   -0.6179   -0.5830    0.3504 O   0  0  0  0  0  0  0  0  0  0  0  0
   -0.8931    1.7449    0.2362 C   0  0  0  0  0  0  0  0  0  0  0  0
   -2.3665    1.5901    0.1163 C   0  0  0  0  0  0  0  0  0  0  0  0
   -2.8488    0.7961   -1.0574 C   0  0  0  0  0  0  0  0  0  0  0  0
   -4.3916    0.8553   -0.9540 C   0  0  0  0  0  0  0  0  0  0  0  0
   -4.6802   -0.1421    0.0851 N   0  0  0  0  0  0  0  0  0  0  0  0
   -3.8931   -0.0673    1.2940 C   0  0  0  0  0  0  0  0  0  0  0  0
   -3.0950    1.1998    1.3524 C   0  0  0  0  0  0  0  0  0  0  0  0
   -5.6784   -1.1385   -0.1075 C   0  0  0  0  0  0  0  0  0  0  0  0
   -5.3094   -2.4449   -0.2753 N   0  0  0  0  0  0  0  0  0  0  0  0
   -6.2352   -3.4068   -0.4849 C   0  0  0  0  0  0  0  0  0  0  0  0
   -7.5416   -3.0985   -0.5326 N   0  0  0  0  0  0  0  0  0  0  0  0
   -7.9865   -1.8247   -0.3744 C   0  0  0  0  0  0  0  0  0  0  0  0
   -9.3341   -1.5593   -0.4243 C   0  0  0  0  0  0  0  0  0  0  0  0
   -9.7692   -0.2683   -0.2546 C   0  0  0  0  0  0  0  0  0  0  0  0
   -8.8358    0.7191   -0.0392 C   0  0  0  0  0  0  0  0  0  0  0  0
   -9.2027    2.0191    0.1370 F   0  0  0  0  0  0  0  0  0  0  0  0
   -7.4851    0.4281    0.0068 C   0  0  0  0  0  0  0  0  0  0  0  0
   -7.0137   -0.8585   -0.1607 C   0  0  0  0  0  0  0  0  0  0  0  0
   10.2667   -2.6164    0.7595 H   0  0  0  0  0  0  0  0  0  0  0  0
   10.5541   -2.3037    2.4807 H   0  0  0  0  0  0  0  0  0  0  0  0
    8.9547   -2.9525    1.9163 H   0  0  0  0  0  0  0  0  0  0  0  0
    7.8949   -2.5285    0.0657 H   0  0  0  0  0  0  0  0  0  0  0  0
    6.0043   -1.9087   -1.3974 H   0  0  0  0  0  0  0  0  0  0  0  0
    6.5760    2.1493   -0.2457 H   0  0  0  0  0  0  0  0  0  0  0  0
    8.4391    1.4903    1.1881 H   0  0  0  0  0  0  0  0  0  0  0  0
    4.0571    1.2467    0.8922 H   0  0  0  0  0  0  0  0  0  0  0  0
    3.9361    2.5911   -0.2558 H   0  0  0  0  0  0  0  0  0  0  0  0
    1.5210    2.6922   -0.0750 H   0  0  0  0  0  0  0  0  0  0  0  0
    2.0505    2.2479    1.5751 H   0  0  0  0  0  0  0  0  0  0  0  0
    2.8965   -0.4175    1.4532 H   0  0  0  0  0  0  0  0  0  0  0  0
    1.5791   -1.4409    0.6645 H   0  0  0  0  0  0  0  0  0  0  0  0
    3.9071   -1.1952   -0.4736 H   0  0  0  0  0  0  0  0  0  0  0  0
    2.4307   -1.0865   -1.4711 H   0  0  0  0  0  0  0  0  0  0  0  0
   -0.5594    2.2733   -0.7101 H   0  0  0  0  0  0  0  0  0  0  0  0
   -0.7077    2.5071    1.0273 H   0  0  0  0  0  0  0  0  0  0  0  0
   -2.7330    2.6599   -0.1295 H   0  0  0  0  0  0  0  0  0  0  0  0
   -2.6072   -0.2780   -1.0370 H   0  0  0  0  0  0  0  0  0  0  0  0
   -2.5079    1.2959   -1.9822 H   0  0  0  0  0  0  0  0  0  0  0  0
   -4.6426    1.8448   -0.5536 H   0  0  0  0  0  0  0  0  0  0  0  0
   -4.8446    0.6044   -1.9126 H   0  0  0  0  0  0  0  0  0  0  0  0
   -3.2397   -0.9612    1.4105 H   0  0  0  0  0  0  0  0  0  0  0  0
   -4.6019   -0.0234    2.1807 H   0  0  0  0  0  0  0  0  0  0  0  0
   -2.4029    1.1815    2.2545 H   0  0  0  0  0  0  0  0  0  0  0  0
   -3.8429    2.0002    1.6590 H   0  0  0  0  0  0  0  0  0  0  0  0
   -5.9732   -4.4555   -0.6222 H   0  0  0  0  0  0  0  0  0  0  0  0
  -10.0380   -2.3471   -0.5932 H   0  0  0  0  0  0  0  0  0  0  0  0
  -10.8403   -0.0127   -0.2875 H   0  0  0  0  0  0  0  0  0  0  0  0
   -6.7538    1.2297    0.1899 H   0  0  0  0  0  0  0  0  0  0  0  0
  1  2  1  0
  2  3  1  0
  3  4  2  0
  4  5  1  0
  5  6  2  0
  6  7  1  0
  7  8  2  0
  6  9  1  0
  9 10  2  0
  9 11  2  0
  9 12  1  0
 12 13  1  0
 13 14  1  0
 14 15  1  0
 15 16  1  0
 16 17  1  0
 15 18  1  0
 18 19  2  0
 18 20  1  0
 20 21  1  0
 21 22  1  0
 22 23  1  0
 23 24  1  0
 24 25  1  0
 25 26  1  0
 24 27  1  0
 27 28  2  0
 28 29  1  0
 29 30  2  0
 30 31  1  0
 31 32  2  0
 32 33  1  0
 33 34  2  0
 34 35  1  0
 34 36  1  0
 36 37  2  0
  8  3  1  0
 17 12  1  0
 26 21  1  0
 37 27  1  0
 37 31  1  0
  1 38  1  0
  1 39  1  0
  1 40  1  0
  4 41  1  0
  5 42  1  0
  7 43  1  0
  8 44  1  0
 13 45  1  0
 13 46  1  0
 14 47  1  0
 14 48  1  0
 16 49  1  0
 16 50  1  0
 17 51  1  0
 17 52  1  0
 20 53  1  0
 20 54  1  0
 21 55  1  0
 22 56  1  0
 22 57  1  0
 23 58  1  0
 23 59  1  0
 25 60  1  0
 25 61  1  0
 26 62  1  0
 26 63  1  0
 29 64  1  0
 32 65  1  0
 33 66  1  0
 36 67  1  0
M  END
$$$$
