[H]c1nc(N2C([H])([H])C([H])([H])N(S(=O)(=O)c3c([H])c([H])c4c(c3[H])c([H])c(-c3c([H])nn(C([H])([H])[H])c3[H])n4[H])C([H])([H])C2([H])[H])sc1C(F)(F)F
     RDKit          3D

 52 56  0  0  0  0  0  0  0  0999 V2000
  -10.0378    0.0917   -0.7495 C   0  0  0  0  0  0  0  0  0  0  0  0
   -8.6317   -0.2566   -0.8371 N   0  0  0  0  0  0  0  0  0  0  0  0
   -7.5825    0.3766   -0.2914 C   0  0  0  0  0  0  0  0  0  0  0  0
   -6.4351   -0.3508   -0.6097 C   0  0  0  0  0  0  0  0  0  0  0  0
   -6.8556   -1.4324   -1.3663 C   0  0  0  0  0  0  0  0  0  0  0  0
   -8.1824   -1.3350   -1.4763 N   0  0  0  0  0  0  0  0  0  0  0  0
   -5.0428   -0.0285   -0.2771 C   0  0  0  0  0  0  0  0  0  0  0  0
   -4.2464    0.9160   -0.8916 C   0  0  0  0  0  0  0  0  0  0  0  0
   -2.9914    0.8592   -0.3425 C   0  0  0  0  0  0  0  0  0  0  0  0
   -1.8261    1.5422   -0.5800 C   0  0  0  0  0  0  0  0  0  0  0  0
   -0.6650    1.2469    0.1486 C   0  0  0  0  0  0  0  0  0  0  0  0
   -0.7536    0.2741    1.0833 C   0  0  0  0  0  0  0  0  0  0  0  0
   -1.9009   -0.4495    1.3643 C   0  0  0  0  0  0  0  0  0  0  0  0
   -3.0411   -0.1440    0.6286 C   0  0  0  0  0  0  0  0  0  0  0  0
   -4.2828   -0.6490    0.6367 N   0  0  0  0  0  0  0  0  0  0  0  0
    0.7735    2.1203   -0.2442 S   0  0  0  0  0  0  0  0  0  0  0  0
    0.6134    2.6953   -1.6565 O   0  0  0  0  0  0  0  0  0  0  0  0
    0.9042    3.3735    0.6294 O   0  0  0  0  0  0  0  0  0  0  0  0
    2.2393    1.3177   -0.1605 N   0  0  0  0  0  0  0  0  0  0  0  0
    2.6321    0.8225    1.1496 C   0  0  0  0  0  0  0  0  0  0  0  0
    4.1659    0.7997    1.0540 C   0  0  0  0  0  0  0  0  0  0  0  0
    4.4528   -0.3078    0.1380 N   0  0  0  0  0  0  0  0  0  0  0  0
    3.3739   -0.8241   -0.6774 C   0  0  0  0  0  0  0  0  0  0  0  0
    2.3776    0.2259   -1.1297 C   0  0  0  0  0  0  0  0  0  0  0  0
    5.7973   -0.7491    0.0904 C   0  0  0  0  0  0  0  0  0  0  0  0
    6.3119   -1.9034   -0.3176 N   0  0  0  0  0  0  0  0  0  0  0  0
    7.5955   -2.0907   -0.3252 C   0  0  0  0  0  0  0  0  0  0  0  0
    8.3911   -1.0607    0.1004 C   0  0  0  0  0  0  0  0  0  0  0  0
    7.2361    0.1325    0.4926 S   0  0  0  0  0  0  0  0  0  0  0  0
    9.8915   -1.0367    0.1773 C   0  0  0  0  0  0  0  0  0  0  0  0
   10.3290   -2.3367    0.0744 F   0  0  0  0  0  0  0  0  0  0  0  0
   10.3165   -0.4644    1.3409 F   0  0  0  0  0  0  0  0  0  0  0  0
   10.3668   -0.2466   -0.8635 F   0  0  0  0  0  0  0  0  0  0  0  0
  -10.3525    0.3975   -1.7306 H   0  0  0  0  0  0  0  0  0  0  0  0
  -10.6096   -0.8558   -0.5093 H   0  0  0  0  0  0  0  0  0  0  0  0
  -10.2016    0.8903   -0.0088 H   0  0  0  0  0  0  0  0  0  0  0  0
   -7.6336    1.2809    0.2947 H   0  0  0  0  0  0  0  0  0  0  0  0
   -6.1479   -2.1899   -1.7717 H   0  0  0  0  0  0  0  0  0  0  0  0
   -4.5747    1.5861   -1.6561 H   0  0  0  0  0  0  0  0  0  0  0  0
   -1.7742    2.3227   -1.3287 H   0  0  0  0  0  0  0  0  0  0  0  0
    0.1164    0.0387    1.6900 H   0  0  0  0  0  0  0  0  0  0  0  0
   -1.9456   -1.2418    2.1168 H   0  0  0  0  0  0  0  0  0  0  0  0
   -4.6855   -1.4314    1.2687 H   0  0  0  0  0  0  0  0  0  0  0  0
    2.3340    1.5593    1.8690 H   0  0  0  0  0  0  0  0  0  0  0  0
    2.3473   -0.1966    1.3391 H   0  0  0  0  0  0  0  0  0  0  0  0
    4.4732    1.7004    0.5138 H   0  0  0  0  0  0  0  0  0  0  0  0
    4.6283    0.5982    2.0112 H   0  0  0  0  0  0  0  0  0  0  0  0
    3.7200   -1.3538   -1.5691 H   0  0  0  0  0  0  0  0  0  0  0  0
    2.7864   -1.5749   -0.0737 H   0  0  0  0  0  0  0  0  0  0  0  0
    1.3942   -0.2319   -1.3260 H   0  0  0  0  0  0  0  0  0  0  0  0
    2.7786    0.6108   -2.0756 H   0  0  0  0  0  0  0  0  0  0  0  0
    8.0534   -3.0367   -0.6612 H   0  0  0  0  0  0  0  0  0  0  0  0
  1  2  1  0
  2  3  1  0
  3  4  2  0
  4  5  1  0
  5  6  2  0
  4  7  1  0
  7  8  2  0
  8  9  1  0
  9 10  2  0
 10 11  1  0
 11 12  2  0
 12 13  1  0
 13 14  2  0
 14 15  1  0
 11 16  1  0
 16 17  2  0
 16 18  2  0
 16 19  1  0
 19 20  1  0
 20 21  1  0
 21 22  1  0
 22 23  1  0
 23 24  1  0
 22 25  1  0
 25 26  2  0
 26 27  1  0
 27 28  2  0
 28 29  1  0
 28 30  1  0
 30 31  1  0
 30 32  1  0
 30 33  1  0
  6  2  1  0
 15  7  1  0
 24 19  1  0
 29 25  1  0
 14  9  1  0
  1 34  1  0
  1 35  1  0
  1 36  1  0
  3 37  1  0
  5 38  1  0
  8 39  1  0
 10 40  1  0
 12 41  1  0
 13 42  1  0
 15 43  1  0
 20 44  1  0
 20 45  1  0
 21 46  1  0
 21 47  1  0
 23 48  1  0
 23 49  1  0
 24 50  1  0
 24 51  1  0
 27 52  1  0
M  END
$$$$
[H]N=C(N([H])[H])N([H])C([H])([H])C([H])([H])C([H])([H])[C@@]([H])(C(=O)N([H])[C@]([H])(C(=O)N([H])[H])C([H])([H])c1c([H])c([H])c([H])c([H])c1[H])N([H])C(=O)[C@@]([H])(N([H])C(=O)[C@@]([H])(N([H])[H])C([H])([H])C([H])(C([H])([H])[H])C([H])([H])[H])C([H])([H])c1c([H])c([H])c([H])c([H])c1[H]
     RDKit          3D

 86 87  0  0  0  0  0  0  0  0999 V2000
    6.2049    1.9961   -3.3930 C   0  0  0  0  0  0  0  0  0  0  0  0
    5.8687    0.8443   -2.4340 C   0  0  0  0  0  0  0  0  0  0  0  0
    4.5717    0.2576   -2.8248 C   0  0  0  0  0  0  0  0  0  0  0  0
    6.0362    1.3843   -1.0615 C   0  0  0  0  0  0  0  0  0  0  0  0
    5.7473    0.4756    0.0785 C   0  0  2  0  0  0  0  0  0  0  0  0
    6.4622   -0.7426    0.1484 N   0  0  0  0  0  0  0  0  0  0  0  0
    4.3036    0.4441    0.3763 C   0  0  0  0  0  0  0  0  0  0  0  0
    3.6126    1.5057    0.1376 O   0  0  0  0  0  0  0  0  0  0  0  0
    3.6081   -0.6433    0.9120 N   0  0  0  0  0  0  0  0  0  0  0  0
    2.2476   -0.7777    1.2607 C   0  0  1  0  0  0  0  0  0  0  0  0
    2.0194    0.0067    2.5443 C   0  0  0  0  0  0  0  0  0  0  0  0
    2.8300   -0.4581    3.6755 C   0  0  0  0  0  0  0  0  0  0  0  0
    2.2891   -1.4403    4.5267 C   0  0  0  0  0  0  0  0  0  0  0  0
    3.0539   -1.8823    5.5871 C   0  0  0  0  0  0  0  0  0  0  0  0
    4.3009   -1.4180    5.8507 C   0  0  0  0  0  0  0  0  0  0  0  0
    4.8611   -0.4445    5.0244 C   0  0  0  0  0  0  0  0  0  0  0  0
    4.0801   -0.0030    3.9562 C   0  0  0  0  0  0  0  0  0  0  0  0
    1.2324   -0.3919    0.2728 C   0  0  0  0  0  0  0  0  0  0  0  0
    1.4732    0.0740   -0.8795 O   0  0  0  0  0  0  0  0  0  0  0  0
   -0.1401   -0.5401    0.5923 N   0  0  0  0  0  0  0  0  0  0  0  0
   -1.1802   -0.1732   -0.3341 C   0  0  1  0  0  0  0  0  0  0  0  0
   -1.2730   -1.3334   -1.3824 C   0  0  0  0  0  0  0  0  0  0  0  0
   -1.5997   -2.6114   -0.6933 C   0  0  0  0  0  0  0  0  0  0  0  0
   -1.6459   -3.7514   -1.7160 C   0  0  0  0  0  0  0  0  0  0  0  0
   -1.9547   -5.0056   -1.0437 N   0  0  0  0  0  0  0  0  0  0  0  0
   -2.0457   -6.2456   -1.7087 C   0  0  0  0  0  0  0  0  0  0  0  0
   -2.9279   -6.4289   -2.8226 N   0  0  0  0  0  0  0  0  0  0  0  0
   -1.3436   -7.2363   -1.3475 N   0  0  0  0  0  0  0  0  0  0  0  0
   -2.5055   -0.0958    0.3689 C   0  0  0  0  0  0  0  0  0  0  0  0
   -2.5937   -0.8920    1.3834 O   0  0  0  0  0  0  0  0  0  0  0  0
   -3.5118    0.7274   -0.0325 N   0  0  0  0  0  0  0  0  0  0  0  0
   -4.5437    1.5698   -0.4421 C   0  0  1  0  0  0  0  0  0  0  0  0
   -4.8230    2.6353    0.6328 C   0  0  0  0  0  0  0  0  0  0  0  0
   -5.9273    3.5192    0.2202 C   0  0  0  0  0  0  0  0  0  0  0  0
   -7.2376    3.0619    0.3427 C   0  0  0  0  0  0  0  0  0  0  0  0
   -8.3068    3.8677    0.0314 C   0  0  0  0  0  0  0  0  0  0  0  0
   -8.1364    5.1673   -0.4164 C   0  0  0  0  0  0  0  0  0  0  0  0
   -6.8463    5.6097   -0.5330 C   0  0  0  0  0  0  0  0  0  0  0  0
   -5.7661    4.8244   -0.2312 C   0  0  0  0  0  0  0  0  0  0  0  0
   -4.3588    2.1033   -1.7967 C   0  0  0  0  0  0  0  0  0  0  0  0
   -5.3055    2.8333   -2.5401 N   0  0  0  0  0  0  0  0  0  0  0  0
   -3.2360    1.8944   -2.3920 O   0  0  0  0  0  0  0  0  0  0  0  0
    5.9136    2.9754   -2.9433 H   0  0  0  0  0  0  0  0  0  0  0  0
    5.5573    1.8601   -4.2755 H   0  0  0  0  0  0  0  0  0  0  0  0
    7.2460    1.9543   -3.7465 H   0  0  0  0  0  0  0  0  0  0  0  0
    6.7162    0.1027   -2.6596 H   0  0  0  0  0  0  0  0  0  0  0  0
    4.8055   -0.4832   -3.6832 H   0  0  0  0  0  0  0  0  0  0  0  0
    4.0473   -0.3622   -2.0843 H   0  0  0  0  0  0  0  0  0  0  0  0
    3.8541    0.9585   -3.2626 H   0  0  0  0  0  0  0  0  0  0  0  0
    5.4635    2.3363   -1.0046 H   0  0  0  0  0  0  0  0  0  0  0  0
    7.1069    1.6988   -0.9478 H   0  0  0  0  0  0  0  0  0  0  0  0
    6.1514    1.0507    1.0442 H   0  0  0  0  0  0  0  0  0  0  0  0
    7.3770   -0.6365   -0.2940 H   0  0  0  0  0  0  0  0  0  0  0  0
    6.5594   -1.0554    1.1313 H   0  0  0  0  0  0  0  0  0  0  0  0
    4.2309   -1.5093    1.0805 H   0  0  0  0  0  0  0  0  0  0  0  0
    2.0141   -1.8687    1.4985 H   0  0  0  0  0  0  0  0  0  0  0  0
    0.9376   -0.0653    2.8342 H   0  0  0  0  0  0  0  0  0  0  0  0
    2.2220    1.0916    2.3792 H   0  0  0  0  0  0  0  0  0  0  0  0
    1.3135   -1.8368    4.3658 H   0  0  0  0  0  0  0  0  0  0  0  0
    2.6311   -2.6521    6.2556 H   0  0  0  0  0  0  0  0  0  0  0  0
    4.8502   -1.8235    6.7129 H   0  0  0  0  0  0  0  0  0  0  0  0
    5.8351   -0.0714    5.2081 H   0  0  0  0  0  0  0  0  0  0  0  0
    4.5608    0.7604    3.3671 H   0  0  0  0  0  0  0  0  0  0  0  0
   -0.3996   -0.9159    1.5162 H   0  0  0  0  0  0  0  0  0  0  0  0
   -0.8978    0.6718   -0.9227 H   0  0  0  0  0  0  0  0  0  0  0  0
   -1.9953   -1.0825   -2.1643 H   0  0  0  0  0  0  0  0  0  0  0  0
   -0.2641   -1.3956   -1.8152 H   0  0  0  0  0  0  0  0  0  0  0  0
   -2.6104   -2.6280   -0.2286 H   0  0  0  0  0  0  0  0  0  0  0  0
   -0.9100   -2.9361    0.0872 H   0  0  0  0  0  0  0  0  0  0  0  0
   -0.6933   -3.8239   -2.2636 H   0  0  0  0  0  0  0  0  0  0  0  0
   -2.5094   -3.5743   -2.4081 H   0  0  0  0  0  0  0  0  0  0  0  0
   -2.1127   -4.9463    0.0100 H   0  0  0  0  0  0  0  0  0  0  0  0
   -3.9112   -6.7771   -2.6112 H   0  0  0  0  0  0  0  0  0  0  0  0
   -2.5645   -6.2135   -3.7621 H   0  0  0  0  0  0  0  0  0  0  0  0
   -0.6828   -7.0884   -0.5217 H   0  0  0  0  0  0  0  0  0  0  0  0
   -4.2915    0.2846    0.9862 H   0  0  0  0  0  0  0  0  0  0  0  0
   -5.5483    1.0179   -0.4518 H   0  0  0  0  0  0  0  0  0  0  0  0
   -3.9276    3.2373    0.8696 H   0  0  0  0  0  0  0  0  0  0  0  0
   -5.1721    2.0454    1.5142 H   0  0  0  0  0  0  0  0  0  0  0  0
   -7.4512    2.0621    0.6853 H   0  0  0  0  0  0  0  0  0  0  0  0
   -9.3376    3.5351    0.1226 H   0  0  0  0  0  0  0  0  0  0  0  0
   -8.9570    5.7885   -0.6527 H   0  0  0  0  0  0  0  0  0  0  0  0
   -6.6435    6.6335   -0.8793 H   0  0  0  0  0  0  0  0  0  0  0  0
   -4.7265    5.1510   -0.3159 H   0  0  0  0  0  0  0  0  0  0  0  0
   -5.0868    3.7288   -3.0711 H   0  0  0  0  0  0  0  0  0  0  0  0
   -6.2939    2.5143   -2.5969 H   0  0  0  0  0  0  0  0  0  0  0  0
  1  2  1  0
  2  3  1  0
  2  4  1  0
  4  5  1  0
  5  6  1  0
  5  7  1  0
  7  8  2  0
  7  9  1  0
  9 10  1  0
 10 11  1  0
 11 12  1  0
 12 13  2  0
 13 14  1  0
 14 15  2  0
 15 16  1  0
 16 17  2  0
 10 18  1  0
 18 19  2  0
 18 20  1  0
 20 21  1  0
 21 22  1  0
 22 23  1  0
 23 24  1  0
 24 25  1  0
 25 26  1  0
 26 27  1  0
 26 28  2  3
 21 29  1  0
 29 30  2  0
 29 31  1  0
 31 32  1  0
 32 33  1  0
 33 34  1  0
 34 35  2  0
 35 36  1  0
 36 37  2  0
 37 38  1  0
 38 39  2  0
 32 40  1  0
 40 41  1  0
 40 42  2  0
 17 12  1  0
 39 34  1  0
  1 43  1  0
  1 44  1  0
  1 45  1  0
  2 46  1  0
  3 47  1  0
  3 48  1  0
  3 49  1  0
  4 50  1  0
  4 51  1  0
  5 52  1  1
  6 53  1  0
  6 54  1  0
  9 55  1  0
 10 56  1  1
 11 57  1  0
 11 58  1  0
 13 59  1  0
 14 60  1  0
 15 61  1  0
 16 62  1  0
 17 63  1  0
 20 64  1  0
 21 65  1  6
 22 66  1  0
 22 67  1  0
 23 68  1  0
 23 69  1  0
 24 70  1  0
 24 71  1  0
 25 72  1  0
 27 73  1  0
 27 74  1  0
 28 75  1  0
 31 76  1  0
 32 77  1  6
 33 78  1  0
 33 79  1  0
 35 80  1  0
 36 81  1  0
 37 82  1  0
 38 83  1  0
 39 84  1  0
 41 85  1  0
 41 86  1  0
M  END
$$$$
[H]OC1([H])C([H])([H])C([H])([H])N(c2c([H])c([H])c(N([H])c3nc([H])c(Cl)c(N([H])c4c([H])c([H])c([H])c([H])c4N(C([H])([H])[H])C([H])([H])[H])n3)c(OC([H])([H])[H])c2[H])C([H])([H])C1([H])[H]
     RDKit          3D

 62 65  0  0  0  0  0  0  0  0999 V2000
    3.7907   -3.5687   -2.6555 C   0  0  0  0  0  0  0  0  0  0  0  0
    2.4624   -3.1789   -2.3899 O   0  0  0  0  0  0  0  0  0  0  0  0
    2.1403   -2.2444   -1.4266 C   0  0  0  0  0  0  0  0  0  0  0  0
    3.1425   -1.6866   -0.7169 C   0  0  0  0  0  0  0  0  0  0  0  0
    2.9447   -0.7397    0.2742 C   0  0  0  0  0  0  0  0  0  0  0  0
    1.6513   -0.3865    0.5079 C   0  0  0  0  0  0  0  0  0  0  0  0
    0.6010   -0.9685   -0.2326 C   0  0  0  0  0  0  0  0  0  0  0  0
    0.8083   -1.8934   -1.2011 C   0  0  0  0  0  0  0  0  0  0  0  0
   -0.1955   -2.5295   -1.9376 N   0  0  0  0  0  0  0  0  0  0  0  0
   -1.5494   -2.2405   -2.0702 C   0  0  0  0  0  0  0  0  0  0  0  0
   -2.2610   -3.1252   -2.8464 N   0  0  0  0  0  0  0  0  0  0  0  0
   -3.5629   -2.9269   -3.0611 C   0  0  0  0  0  0  0  0  0  0  0  0
   -4.1849   -1.8431   -2.5085 C   0  0  0  0  0  0  0  0  0  0  0  0
   -5.8798   -1.6121   -2.8075 Cl  0  0  0  0  0  0  0  0  0  0  0  0
   -3.4953   -0.9017   -1.7022 C   0  0  0  0  0  0  0  0  0  0  0  0
   -4.2097    0.1628   -1.1386 N   0  0  0  0  0  0  0  0  0  0  0  0
   -3.7127    1.2255   -0.3958 C   0  0  0  0  0  0  0  0  0  0  0  0
   -2.3822    1.6438   -0.3565 C   0  0  0  0  0  0  0  0  0  0  0  0
   -1.9378    2.7446    0.3380 C   0  0  0  0  0  0  0  0  0  0  0  0
   -2.8606    3.4876    1.0420 C   0  0  0  0  0  0  0  0  0  0  0  0
   -4.1798    3.0868    1.0121 C   0  0  0  0  0  0  0  0  0  0  0  0
   -4.6356    1.9870    0.3217 C   0  0  0  0  0  0  0  0  0  0  0  0
   -5.9804    1.6100    0.3455 N   0  0  0  0  0  0  0  0  0  0  0  0
   -6.5436    0.4223    0.9245 C   0  0  0  0  0  0  0  0  0  0  0  0
   -6.9351    2.5315   -0.2947 C   0  0  0  0  0  0  0  0  0  0  0  0
   -2.1986   -1.2010   -1.5550 N   0  0  0  0  0  0  0  0  0  0  0  0
    4.0354   -0.1863    0.9930 N   0  0  0  0  0  0  0  0  0  0  0  0
    3.8732    0.8927    1.9321 C   0  0  0  0  0  0  0  0  0  0  0  0
    4.9884    1.9168    1.8265 C   0  0  0  0  0  0  0  0  0  0  0  0
    6.3398    1.2782    1.9062 C   0  0  0  0  0  0  0  0  0  0  0  0
    7.0852    1.7997    2.9562 O   0  0  0  0  0  0  0  0  0  0  0  0
    6.2311   -0.2394    1.9728 C   0  0  0  0  0  0  0  0  0  0  0  0
    5.3837   -0.6986    0.8155 C   0  0  0  0  0  0  0  0  0  0  0  0
    3.8095   -4.2851   -3.5004 H   0  0  0  0  0  0  0  0  0  0  0  0
    4.2172   -4.0224   -1.7307 H   0  0  0  0  0  0  0  0  0  0  0  0
    4.4217   -2.6715   -2.8607 H   0  0  0  0  0  0  0  0  0  0  0  0
    4.1734   -1.9742   -0.9096 H   0  0  0  0  0  0  0  0  0  0  0  0
    1.3690    0.3440    1.2656 H   0  0  0  0  0  0  0  0  0  0  0  0
   -0.3936   -0.6650    0.0181 H   0  0  0  0  0  0  0  0  0  0  0  0
    0.1402   -3.4000   -2.4999 H   0  0  0  0  0  0  0  0  0  0  0  0
   -4.1608   -3.6120   -3.6741 H   0  0  0  0  0  0  0  0  0  0  0  0
   -5.2589    0.1420   -1.3255 H   0  0  0  0  0  0  0  0  0  0  0  0
   -1.6473    1.0882   -0.9210 H   0  0  0  0  0  0  0  0  0  0  0  0
   -0.8820    3.0008    0.3167 H   0  0  0  0  0  0  0  0  0  0  0  0
   -2.5650    4.3536    1.5984 H   0  0  0  0  0  0  0  0  0  0  0  0
   -4.8811    3.7085    1.5869 H   0  0  0  0  0  0  0  0  0  0  0  0
   -7.0716    0.6612    1.8703 H   0  0  0  0  0  0  0  0  0  0  0  0
   -5.7194   -0.2853    1.2286 H   0  0  0  0  0  0  0  0  0  0  0  0
   -7.2882   -0.0865    0.2804 H   0  0  0  0  0  0  0  0  0  0  0  0
   -7.9367    2.1061   -0.3835 H   0  0  0  0  0  0  0  0  0  0  0  0
   -6.9710    3.4490    0.3561 H   0  0  0  0  0  0  0  0  0  0  0  0
   -6.4923    2.8359   -1.2660 H   0  0  0  0  0  0  0  0  0  0  0  0
    2.9313    1.4226    1.7257 H   0  0  0  0  0  0  0  0  0  0  0  0
    3.7956    0.5248    2.9804 H   0  0  0  0  0  0  0  0  0  0  0  0
    4.8836    2.5999    2.7105 H   0  0  0  0  0  0  0  0  0  0  0  0
    4.9127    2.5003    0.9007 H   0  0  0  0  0  0  0  0  0  0  0  0
    6.9017    1.4943    0.9713 H   0  0  0  0  0  0  0  0  0  0  0  0
    6.8629    1.4457    3.8348 H   0  0  0  0  0  0  0  0  0  0  0  0
    5.6935   -0.4615    2.9240 H   0  0  0  0  0  0  0  0  0  0  0  0
    7.2122   -0.7148    1.9633 H   0  0  0  0  0  0  0  0  0  0  0  0
    5.7678   -0.3114   -0.1484 H   0  0  0  0  0  0  0  0  0  0  0  0
    5.4025   -1.8053    0.7641 H   0  0  0  0  0  0  0  0  0  0  0  0
  1  2  1  0
  2  3  1  0
  3  4  2  0
  4  5  1  0
  5  6  2  0
  6  7  1  0
  7  8  2  0
  8  9  1  0
  9 10  1  0
 10 11  2  0
 11 12  1  0
 12 13  2  0
 13 14  1  0
 13 15  1  0
 15 16  1  0
 16 17  1  0
 17 18  2  0
 18 19  1  0
 19 20  2  0
 20 21  1  0
 21 22  2  0
 22 23  1  0
 23 24  1  0
 23 25  1  0
 15 26  2  0
  5 27  1  0
 27 28  1  0
 28 29  1  0
 29 30  1  0
 30 31  1  0
 30 32  1  0
 32 33  1  0
  8  3  1  0
 26 10  1  0
 33 27  1  0
 22 17  1  0
  1 34  1  0
  1 35  1  0
  1 36  1  0
  4 37  1  0
  6 38  1  0
  7 39  1  0
  9 40  1  0
 12 41  1  0
 16 42  1  0
 18 43  1  0
 19 44  1  0
 20 45  1  0
 21 46  1  0
 24 47  1  0
 24 48  1  0
 24 49  1  0
 25 50  1  0
 25 51  1  0
 25 52  1  0
 28 53  1  0
 28 54  1  0
 29 55  1  0
 29 56  1  0
 30 57  1  0
 31 58  1  0
 32 59  1  0
 32 60  1  0
 33 61  1  0
 33 62  1  0
M  END
$$$$
[H]O[C@]([H])(C([H])([H])[H])[C@@]([H])(C(=O)N([H])C([H])([H])C#N)N([H])C(=O)c1nc(-c2c([H])c([H])c(C(F)(F)F)c([H])c2[H])c([H])c(C(C([H])([H])[H])(C([H])([H])[H])C([H])([H])[H])c1[H]
     RDKit          3D

 58 59  0  0  0  0  0  0  0  0999 V2000
   -4.9020    0.2885    1.8008 C   0  0  0  0  0  0  0  0  0  0  0  0
   -3.7419    0.7467    1.0183 C   0  0  1  0  0  0  0  0  0  0  0  0
   -2.6176    0.0520    1.6225 O   0  0  0  0  0  0  0  0  0  0  0  0
   -3.6780    0.2235   -0.4687 C   0  0  2  0  0  0  0  0  0  0  0  0
   -2.2255    0.4762   -0.6844 N   0  0  0  0  0  0  0  0  0  0  0  0
   -1.4629   -0.7391   -0.8783 C   0  0  0  0  0  0  0  0  0  0  0  0
   -2.0796   -1.8082   -1.0408 O   0  0  0  0  0  0  0  0  0  0  0  0
   -0.0155   -0.6936   -0.8294 C   0  0  0  0  0  0  0  0  0  0  0  0
    0.5825   -1.9728   -0.6608 C   0  0  0  0  0  0  0  0  0  0  0  0
    1.8801   -2.0727   -0.2058 C   0  0  0  0  0  0  0  0  0  0  0  0
    2.5471   -0.9121    0.0505 C   0  0  0  0  0  0  0  0  0  0  0  0
    1.9530    0.3549   -0.1338 C   0  0  0  0  0  0  0  0  0  0  0  0
    0.6978    0.3997   -0.5668 N   0  0  0  0  0  0  0  0  0  0  0  0
    2.8425    1.5187   -0.0169 C   0  0  0  0  0  0  0  0  0  0  0  0
    2.7501    2.5617   -0.9013 C   0  0  0  0  0  0  0  0  0  0  0  0
    3.5919    3.6301   -0.8894 C   0  0  0  0  0  0  0  0  0  0  0  0
    4.5871    3.6330    0.0810 C   0  0  0  0  0  0  0  0  0  0  0  0
    4.7074    2.6063    0.9879 C   0  0  0  0  0  0  0  0  0  0  0  0
    3.8357    1.5355    0.9514 C   0  0  0  0  0  0  0  0  0  0  0  0
    5.5990    4.7290   -0.0225 C   0  0  0  0  0  0  0  0  0  0  0  0
    5.0317    5.9352   -0.3617 F   0  0  0  0  0  0  0  0  0  0  0  0
    6.4052    4.8129    1.0662 F   0  0  0  0  0  0  0  0  0  0  0  0
    6.3894    4.3603   -1.1496 F   0  0  0  0  0  0  0  0  0  0  0  0
    2.4178   -3.4309    0.0042 C   0  0  0  0  0  0  0  0  0  0  0  0
    2.8647   -3.9735   -1.3133 C   0  0  0  0  0  0  0  0  0  0  0  0
    1.3199   -4.3425    0.5492 C   0  0  0  0  0  0  0  0  0  0  0  0
    3.4962   -3.4898    1.0344 C   0  0  0  0  0  0  0  0  0  0  0  0
   -4.5679    0.9272   -1.2985 C   0  0  0  0  0  0  0  0  0  0  0  0
   -4.2457    1.8985   -2.0537 O   0  0  0  0  0  0  0  0  0  0  0  0
   -5.9573    0.5473   -1.3114 N   0  0  0  0  0  0  0  0  0  0  0  0
   -7.0282    1.1562   -2.0522 C   0  0  0  0  0  0  0  0  0  0  0  0
   -7.1740    2.5929   -1.6640 C   0  0  0  0  0  0  0  0  0  0  0  0
   -7.2884    3.7002   -1.4027 N   0  0  0  0  0  0  0  0  0  0  0  0
   -5.6899   -0.2738    1.3593 H   0  0  0  0  0  0  0  0  0  0  0  0
   -4.5475   -0.3367    2.7235 H   0  0  0  0  0  0  0  0  0  0  0  0
   -5.3419    1.1847    2.3566 H   0  0  0  0  0  0  0  0  0  0  0  0
   -3.4915    1.7981    1.0555 H   0  0  0  0  0  0  0  0  0  0  0  0
   -2.5408    0.4304    2.5672 H   0  0  0  0  0  0  0  0  0  0  0  0
   -3.8232   -0.8455   -0.4111 H   0  0  0  0  0  0  0  0  0  0  0  0
   -1.7633    1.3601   -0.6993 H   0  0  0  0  0  0  0  0  0  0  0  0
   -0.0308   -2.8303   -0.9936 H   0  0  0  0  0  0  0  0  0  0  0  0
    3.5347   -0.9193    0.4149 H   0  0  0  0  0  0  0  0  0  0  0  0
    1.9462    2.5241   -1.6560 H   0  0  0  0  0  0  0  0  0  0  0  0
    3.5565    4.4848   -1.5852 H   0  0  0  0  0  0  0  0  0  0  0  0
    5.4715    2.6654    1.7322 H   0  0  0  0  0  0  0  0  0  0  0  0
    3.9170    0.7293    1.6835 H   0  0  0  0  0  0  0  0  0  0  0  0
    2.0205   -4.1433   -2.0119 H   0  0  0  0  0  0  0  0  0  0  0  0
    3.5879   -3.2542   -1.8045 H   0  0  0  0  0  0  0  0  0  0  0  0
    3.3726   -4.9254   -1.1560 H   0  0  0  0  0  0  0  0  0  0  0  0
    0.3625   -3.9578    0.2153 H   0  0  0  0  0  0  0  0  0  0  0  0
    1.5093   -5.3791    0.2139 H   0  0  0  0  0  0  0  0  0  0  0  0
    1.3466   -4.2499    1.6784 H   0  0  0  0  0  0  0  0  0  0  0  0
    4.2871   -2.7488    0.9926 H   0  0  0  0  0  0  0  0  0  0  0  0
    2.9932   -3.5131    2.0509 H   0  0  0  0  0  0  0  0  0  0  0  0
    3.9764   -4.5145    0.9518 H   0  0  0  0  0  0  0  0  0  0  0  0
   -6.2081   -0.3084   -0.7168 H   0  0  0  0  0  0  0  0  0  0  0  0
   -8.0089    0.6665   -1.7283 H   0  0  0  0  0  0  0  0  0  0  0  0
   -6.9506    1.1053   -3.1346 H   0  0  0  0  0  0  0  0  0  0  0  0
  1  2  1  0
  2  3  1  0
  2  4  1  0
  4  5  1  0
  5  6  1  0
  6  7  2  0
  6  8  1  0
  8  9  2  0
  9 10  1  0
 10 11  2  0
 11 12  1  0
 12 13  2  0
 12 14  1  0
 14 15  2  0
 15 16  1  0
 16 17  2  0
 17 18  1  0
 18 19  2  0
 17 20  1  0
 20 21  1  0
 20 22  1  0
 20 23  1  0
 10 24  1  0
 24 25  1  0
 24 26  1  0
 24 27  1  0
  4 28  1  0
 28 29  2  0
 28 30  1  0
 30 31  1  0
 31 32  1  0
 32 33  3  0
 13  8  1  0
 19 14  1  0
  1 34  1  0
  1 35  1  0
  1 36  1  0
  2 37  1  6
  3 38  1  0
  4 39  1  1
  5 40  1  0
  9 41  1  0
 11 42  1  0
 15 43  1  0
 16 44  1  0
 18 45  1  0
 19 46  1  0
 25 47  1  0
 25 48  1  0
 25 49  1  0
 26 50  1  0
 26 51  1  0
 26 52  1  0
 27 53  1  0
 27 54  1  0
 27 55  1  0
 30 56  1  0
 31 57  1  0
 31 58  1  0
M  END
$$$$
[H]OC([H])([H])[C@@]1([H])O[C@@]([H])(n2c([H])nc3c(N([H])[H])nc([H])nc32)[C@]([H])(O[H])[C@@]([H])(O[H])[C@]1([H])O[H]
     RDKit          3D

 36 38  0  0  0  0  0  0  0  0999 V2000
    5.6762    0.6373   -0.0984 N   0  0  0  0  0  0  0  0  0  0  0  0
    4.4614   -0.0735   -0.2410 C   0  0  0  0  0  0  0  0  0  0  0  0
    4.4174   -1.3991   -0.5159 N   0  0  0  0  0  0  0  0  0  0  0  0
    3.2273   -2.0222   -0.6404 C   0  0  0  0  0  0  0  0  0  0  0  0
    2.0491   -1.3692   -0.5001 N   0  0  0  0  0  0  0  0  0  0  0  0
    2.0939   -0.0649   -0.2296 C   0  0  0  0  0  0  0  0  0  0  0  0
    1.1125    0.8312   -0.0393 N   0  0  0  0  0  0  0  0  0  0  0  0
    1.7023    2.0248    0.2062 C   0  0  0  0  0  0  0  0  0  0  0  0
    3.0201    1.8796    0.1705 N   0  0  0  0  0  0  0  0  0  0  0  0
    3.2776    0.5921   -0.0980 C   0  0  0  0  0  0  0  0  0  0  0  0
   -0.2985    0.6725   -0.0656 C   0  0  2  0  0  0  0  0  0  0  0  0
   -0.7585    0.5044    1.2336 O   0  0  0  0  0  0  0  0  0  0  0  0
   -2.1154    0.5067    1.3676 C   0  0  2  0  0  0  0  0  0  0  0  0
   -2.5147   -0.6883    2.2327 C   0  0  0  0  0  0  0  0  0  0  0  0
   -3.9058   -0.6816    2.3671 O   0  0  0  0  0  0  0  0  0  0  0  0
   -2.8997    0.4778    0.1152 C   0  0  1  0  0  0  0  0  0  0  0  0
   -3.2232    1.7974   -0.2777 O   0  0  0  0  0  0  0  0  0  0  0  0
   -2.3003   -0.3069   -1.0041 C   0  0  2  0  0  0  0  0  0  0  0  0
   -2.9314   -1.5465   -1.1518 O   0  0  0  0  0  0  0  0  0  0  0  0
   -0.7981   -0.4732   -0.8868 C   0  0  1  0  0  0  0  0  0  0  0  0
   -0.2921   -0.4917   -2.1830 O   0  0  0  0  0  0  0  0  0  0  0  0
    5.7344    1.6565   -0.3164 H   0  0  0  0  0  0  0  0  0  0  0  0
    6.5712    0.1897    0.2283 H   0  0  0  0  0  0  0  0  0  0  0  0
    3.2669   -3.0810   -0.8604 H   0  0  0  0  0  0  0  0  0  0  0  0
    1.2201    2.9880    0.4083 H   0  0  0  0  0  0  0  0  0  0  0  0
   -0.7606    1.5927   -0.4740 H   0  0  0  0  0  0  0  0  0  0  0  0
   -2.4173    1.4339    1.9389 H   0  0  0  0  0  0  0  0  0  0  0  0
   -2.1026   -0.5809    3.2619 H   0  0  0  0  0  0  0  0  0  0  0  0
   -2.1549   -1.6249    1.7576 H   0  0  0  0  0  0  0  0  0  0  0  0
   -4.2953   -1.3861    1.8033 H   0  0  0  0  0  0  0  0  0  0  0  0
   -3.8999    0.0065    0.3480 H   0  0  0  0  0  0  0  0  0  0  0  0
   -3.3079    2.3124    0.5561 H   0  0  0  0  0  0  0  0  0  0  0  0
   -2.5188    0.2545   -1.9503 H   0  0  0  0  0  0  0  0  0  0  0  0
   -3.2383   -1.7112   -2.0787 H   0  0  0  0  0  0  0  0  0  0  0  0
   -0.6169   -1.4679   -0.4301 H   0  0  0  0  0  0  0  0  0  0  0  0
   -0.4804   -1.3889   -2.5542 H   0  0  0  0  0  0  0  0  0  0  0  0
  1  2  1  0
  2  3  2  0
  3  4  1  0
  4  5  2  0
  5  6  1  0
  6  7  1  0
  7  8  1  0
  8  9  2  0
  9 10  1  0
  7 11  1  0
 11 12  1  0
 12 13  1  0
 13 14  1  0
 14 15  1  0
 13 16  1  0
 16 17  1  0
 16 18  1  0
 18 19  1  0
 18 20  1  0
 20 21  1  0
 10  2  1  0
 20 11  1  0
 10  6  2  0
  1 22  1  0
  1 23  1  0
  4 24  1  0
  8 25  1  0
 11 26  1  6
 13 27  1  1
 14 28  1  0
 14 29  1  0
 15 30  1  0
 16 31  1  1
 17 32  1  0
 18 33  1  6
 19 34  1  0
 20 35  1  1
 21 36  1  0
M  END
$$$$
[H]c1nc2c(nc(-c3c([H])c([H])c(N4C([H])([H])C([H])([H])N(C(=O)N([H])[H])C([H])([H])[C@@]4([H])C([H])([H])[H])c([H])c3[H])n2[H])c(-c2c([H])c([H])c(F)c([H])c2[H])c1[H]
     RDKit          3D

 55 59  0  0  0  0  0  0  0  0999 V2000
   -5.1028    0.5517   -2.0780 C   0  0  0  0  0  0  0  0  0  0  0  0
   -4.3631   -0.2776   -1.0437 C   0  0  2  0  0  0  0  0  0  0  0  0
   -5.2620   -0.5370    0.1710 C   0  0  0  0  0  0  0  0  0  0  0  0
   -5.8000    0.7658    0.5195 N   0  0  0  0  0  0  0  0  0  0  0  0
   -4.9056    1.8451    0.7863 C   0  0  0  0  0  0  0  0  0  0  0  0
   -3.7244    1.9178   -0.1884 C   0  0  0  0  0  0  0  0  0  0  0  0
   -3.3036    0.5746   -0.5393 N   0  0  0  0  0  0  0  0  0  0  0  0
   -1.9990    0.0657   -0.4136 C   0  0  0  0  0  0  0  0  0  0  0  0
   -1.6908   -1.2775   -0.4291 C   0  0  0  0  0  0  0  0  0  0  0  0
   -0.4017   -1.7529   -0.3166 C   0  0  0  0  0  0  0  0  0  0  0  0
    0.6611   -0.8913   -0.1803 C   0  0  0  0  0  0  0  0  0  0  0  0
    0.3979    0.4534   -0.1601 C   0  0  0  0  0  0  0  0  0  0  0  0
   -0.9044    0.9269   -0.2742 C   0  0  0  0  0  0  0  0  0  0  0  0
    2.0161   -1.4077   -0.0626 C   0  0  0  0  0  0  0  0  0  0  0  0
    3.1113   -0.6493    0.0734 N   0  0  0  0  0  0  0  0  0  0  0  0
    4.1977   -1.4299    0.1551 C   0  0  0  0  0  0  0  0  0  0  0  0
    5.5434   -1.1661    0.2990 C   0  0  0  0  0  0  0  0  0  0  0  0
    6.3848   -2.2642    0.3451 C   0  0  0  0  0  0  0  0  0  0  0  0
    5.9060   -3.5545    0.2524 C   0  0  0  0  0  0  0  0  0  0  0  0
    4.5884   -3.7814    0.1126 N   0  0  0  0  0  0  0  0  0  0  0  0
    3.7292   -2.7406    0.0627 C   0  0  0  0  0  0  0  0  0  0  0  0
    2.3815   -2.6962   -0.0707 N   0  0  0  0  0  0  0  0  0  0  0  0
    6.0564    0.1936    0.3975 C   0  0  0  0  0  0  0  0  0  0  0  0
    7.1587    0.6456   -0.2900 C   0  0  0  0  0  0  0  0  0  0  0  0
    7.6178    1.9432   -0.1724 C   0  0  0  0  0  0  0  0  0  0  0  0
    6.9539    2.8229    0.6611 C   0  0  0  0  0  0  0  0  0  0  0  0
    7.3942    4.0971    0.7847 F   0  0  0  0  0  0  0  0  0  0  0  0
    5.8480    2.3819    1.3554 C   0  0  0  0  0  0  0  0  0  0  0  0
    5.4060    1.0932    1.2278 C   0  0  0  0  0  0  0  0  0  0  0  0
   -7.2222    0.8870    0.5752 C   0  0  0  0  0  0  0  0  0  0  0  0
   -8.0814   -0.1980    0.3073 N   0  0  0  0  0  0  0  0  0  0  0  0
   -7.6987    2.0001    0.8732 O   0  0  0  0  0  0  0  0  0  0  0  0
   -5.8091    1.2673   -1.6626 H   0  0  0  0  0  0  0  0  0  0  0  0
   -4.3517    1.1092   -2.6746 H   0  0  0  0  0  0  0  0  0  0  0  0
   -5.5905   -0.1505   -2.8122 H   0  0  0  0  0  0  0  0  0  0  0  0
   -4.0418   -1.1877   -1.5326 H   0  0  0  0  0  0  0  0  0  0  0  0
   -4.5882   -0.8690    0.9977 H   0  0  0  0  0  0  0  0  0  0  0  0
   -6.0202   -1.2922   -0.0222 H   0  0  0  0  0  0  0  0  0  0  0  0
   -4.4356    1.6606    1.7929 H   0  0  0  0  0  0  0  0  0  0  0  0
   -5.4534    2.8038    0.8128 H   0  0  0  0  0  0  0  0  0  0  0  0
   -4.1160    2.3959   -1.1093 H   0  0  0  0  0  0  0  0  0  0  0  0
   -2.9289    2.5077    0.2922 H   0  0  0  0  0  0  0  0  0  0  0  0
   -2.5257   -1.9719   -0.5308 H   0  0  0  0  0  0  0  0  0  0  0  0
   -0.1980   -2.8085   -0.3328 H   0  0  0  0  0  0  0  0  0  0  0  0
    1.2321    1.1534   -0.0522 H   0  0  0  0  0  0  0  0  0  0  0  0
   -1.0835    1.9962   -0.2587 H   0  0  0  0  0  0  0  0  0  0  0  0
    7.4439   -2.0678    0.4580 H   0  0  0  0  0  0  0  0  0  0  0  0
    6.5551   -4.4165    0.2875 H   0  0  0  0  0  0  0  0  0  0  0  0
    1.7962   -3.5546   -0.1590 H   0  0  0  0  0  0  0  0  0  0  0  0
    7.6668   -0.0429   -0.9334 H   0  0  0  0  0  0  0  0  0  0  0  0
    8.5008    2.3000   -0.7250 H   0  0  0  0  0  0  0  0  0  0  0  0
    5.3561    3.1133    2.0019 H   0  0  0  0  0  0  0  0  0  0  0  0
    4.5405    0.7709    1.7795 H   0  0  0  0  0  0  0  0  0  0  0  0
   -7.9477   -0.8465   -0.5197 H   0  0  0  0  0  0  0  0  0  0  0  0
   -8.8939   -0.4119    0.9171 H   0  0  0  0  0  0  0  0  0  0  0  0
  1  2  1  0
  2  3  1  0
  3  4  1  0
  4  5  1  0
  5  6  1  0
  6  7  1  0
  7  8  1  0
  8  9  2  0
  9 10  1  0
 10 11  2  0
 11 12  1  0
 12 13  2  0
 11 14  1  0
 14 15  2  0
 15 16  1  0
 16 17  2  0
 17 18  1  0
 18 19  2  0
 19 20  1  0
 20 21  2  0
 21 22  1  0
 17 23  1  0
 23 24  2  0
 24 25  1  0
 25 26  2  0
 26 27  1  0
 26 28  1  0
 28 29  2  0
  4 30  1  0
 30 31  1  0
 30 32  2  0
  7  2  1  0
 13  8  1  0
 22 14  1  0
 29 23  1  0
 21 16  1  0
  1 33  1  0
  1 34  1  0
  1 35  1  0
  2 36  1  6
  3 37  1  0
  3 38  1  0
  5 39  1  0
  5 40  1  0
  6 41  1  0
  6 42  1  0
  9 43  1  0
 10 44  1  0
 12 45  1  0
 13 46  1  0
 18 47  1  0
 19 48  1  0
 22 49  1  0
 24 50  1  0
 25 51  1  0
 28 52  1  0
 29 53  1  0
 31 54  1  0
 31 55  1  0
M  END
$$$$
[H]c1c([H])c(N2C([H])([H])C([H])([H])N(c3c([H])c([H])c(C(F)(F)F)c([H])c3[H])[C@]([H])(C([H])([H])[H])C2([H])[H])c([H])c(C(F)(F)F)c1[H]
     RDKit          3D

 45 47  0  0  0  0  0  0  0  0999 V2000
    1.0312    2.6369    0.1102 C   0  0  0  0  0  0  0  0  0  0  0  0
    0.3288    1.4151   -0.3610 C   0  0  2  0  0  0  0  0  0  0  0  0
   -0.8260    0.9653    0.5625 C   0  0  0  0  0  0  0  0  0  0  0  0
   -1.5837    0.0575   -0.2303 N   0  0  0  0  0  0  0  0  0  0  0  0
   -0.9792   -0.8329   -1.2403 C   0  0  0  0  0  0  0  0  0  0  0  0
    0.4863   -0.9840   -0.9607 C   0  0  0  0  0  0  0  0  0  0  0  0
    1.1444    0.2590   -0.5347 N   0  0  0  0  0  0  0  0  0  0  0  0
    2.5465    0.1396   -0.3602 C   0  0  0  0  0  0  0  0  0  0  0  0
    3.1312   -0.2941    0.7980 C   0  0  0  0  0  0  0  0  0  0  0  0
    4.5156   -0.4622    0.8602 C   0  0  0  0  0  0  0  0  0  0  0  0
    5.2879   -0.1952   -0.2458 C   0  0  0  0  0  0  0  0  0  0  0  0
    4.6858    0.2432   -1.4108 C   0  0  0  0  0  0  0  0  0  0  0  0
    3.3191    0.4136   -1.4777 C   0  0  0  0  0  0  0  0  0  0  0  0
    6.7677   -0.3929   -0.2516 C   0  0  0  0  0  0  0  0  0  0  0  0
    7.0951   -1.7324   -0.4002 F   0  0  0  0  0  0  0  0  0  0  0  0
    7.3119    0.1093    0.9187 F   0  0  0  0  0  0  0  0  0  0  0  0
    7.3158    0.2934   -1.3055 F   0  0  0  0  0  0  0  0  0  0  0  0
   -2.9950   -0.0954   -0.1172 C   0  0  0  0  0  0  0  0  0  0  0  0
   -3.8256    0.2995   -1.1655 C   0  0  0  0  0  0  0  0  0  0  0  0
   -5.1704    0.1182   -1.1134 C   0  0  0  0  0  0  0  0  0  0  0  0
   -5.7360   -0.4771    0.0067 C   0  0  0  0  0  0  0  0  0  0  0  0
   -4.9327   -0.8844    1.0722 C   0  0  0  0  0  0  0  0  0  0  0  0
   -3.5812   -0.6790    0.9792 C   0  0  0  0  0  0  0  0  0  0  0  0
   -5.5799   -1.5524    2.2427 C   0  0  0  0  0  0  0  0  0  0  0  0
   -6.5786   -0.7908    2.7875 F   0  0  0  0  0  0  0  0  0  0  0  0
   -6.1045   -2.7711    1.8274 F   0  0  0  0  0  0  0  0  0  0  0  0
   -4.6456   -1.8126    3.2238 F   0  0  0  0  0  0  0  0  0  0  0  0
    0.7503    3.5305   -0.5191 H   0  0  0  0  0  0  0  0  0  0  0  0
    0.7821    2.9088    1.1437 H   0  0  0  0  0  0  0  0  0  0  0  0
    2.1420    2.5471    0.0028 H   0  0  0  0  0  0  0  0  0  0  0  0
   -0.1922    1.5847   -1.3590 H   0  0  0  0  0  0  0  0  0  0  0  0
   -0.3553    0.3681    1.4078 H   0  0  0  0  0  0  0  0  0  0  0  0
   -1.3694    1.8161    0.9577 H   0  0  0  0  0  0  0  0  0  0  0  0
   -1.1073   -0.3424   -2.2393 H   0  0  0  0  0  0  0  0  0  0  0  0
   -1.4730   -1.7982   -1.2183 H   0  0  0  0  0  0  0  0  0  0  0  0
    0.9980   -1.2765   -1.9360 H   0  0  0  0  0  0  0  0  0  0  0  0
    0.6834   -1.7830   -0.2142 H   0  0  0  0  0  0  0  0  0  0  0  0
    2.5284   -0.5154    1.6486 H   0  0  0  0  0  0  0  0  0  0  0  0
    4.9795   -0.7976    1.7640 H   0  0  0  0  0  0  0  0  0  0  0  0
    5.2566    0.4663   -2.3207 H   0  0  0  0  0  0  0  0  0  0  0  0
    2.8643    0.7500   -2.3939 H   0  0  0  0  0  0  0  0  0  0  0  0
   -3.3435    0.7542   -2.0337 H   0  0  0  0  0  0  0  0  0  0  0  0
   -5.7981    0.4413   -1.9559 H   0  0  0  0  0  0  0  0  0  0  0  0
   -6.7960   -0.6377    0.0343 H   0  0  0  0  0  0  0  0  0  0  0  0
   -2.9788   -1.0104    1.8193 H   0  0  0  0  0  0  0  0  0  0  0  0
  1  2  1  0
  2  3  1  0
  3  4  1  0
  4  5  1  0
  5  6  1  0
  6  7  1  0
  7  8  1  0
  8  9  2  0
  9 10  1  0
 10 11  2  0
 11 12  1  0
 12 13  2  0
 11 14  1  0
 14 15  1  0
 14 16  1  0
 14 17  1  0
  4 18  1  0
 18 19  2  0
 19 20  1  0
 20 21  2  0
 21 22  1  0
 22 23  2  0
 22 24  1  0
 24 25  1  0
 24 26  1  0
 24 27  1  0
  7  2  1  0
 13  8  1  0
 23 18  1  0
  1 28  1  0
  1 29  1  0
  1 30  1  0
  2 31  1  6
  3 32  1  0
  3 33  1  0
  5 34  1  0
  5 35  1  0
  6 36  1  0
  6 37  1  0
  9 38  1  0
 10 39  1  0
 12 40  1  0
 13 41  1  0
 19 42  1  0
 20 43  1  0
 21 44  1  0
 23 45  1  0
M  END
$$$$
[H]N=C(N([H])[H])N([H])C([H])([H])C([H])([H])C([H])([H])[C@]([H])(C(=O)N([H])[C@]([H])(C(=O)N([H])[C@]([H])(C(=O)N([H])[C@]([H])(C(=O)N([H])[C@]([H])(C(=O)N([H])[H])C([H])([H])C([H])(C([H])([H])[H])C([H])([H])[H])C([H])([H])c1c([H])c([H])c([H])c([H])c1[H])C([H])([H])c1c([H])c([H])c([H])c([H])c1[H])C([H])([H])c1c([H])c([H])c([H])c([H])c1[H])N([H])C(=O)[C@@]([H])(N([H])C(=O)[C@@]([H])(N([H])C(=O)OC([H])([H])c1c([H])c([H])c([H])c([H])c1[H])C([H])([H])c1c([H])c([H])c([H])c([H])c1[H])C([H])([H])c1c([H])c([H])c([H])c([H])c1[H]
     RDKit          3D

162167  0  0  0  0  0  0  0  0999 V2000
  -13.6368    1.5654   -1.9385 C   0  0  0  0  0  0  0  0  0  0  0  0
  -12.3647    1.3576   -2.6934 C   0  0  0  0  0  0  0  0  0  0  0  0
  -12.7653    1.0698   -4.1482 C   0  0  0  0  0  0  0  0  0  0  0  0
  -11.4249    2.5029   -2.7316 C   0  0  0  0  0  0  0  0  0  0  0  0
  -10.8902    2.9842   -1.4386 C   0  0  2  0  0  0  0  0  0  0  0  0
  -10.1456    2.0184   -0.6724 N   0  0  0  0  0  0  0  0  0  0  0  0
   -8.7941    2.2429   -0.2621 C   0  0  0  0  0  0  0  0  0  0  0  0
   -8.3069    3.3370   -0.6142 O   0  0  0  0  0  0  0  0  0  0  0  0
   -8.0131    1.2883    0.5088 C   0  0  2  0  0  0  0  0  0  0  0  0
   -8.8484    0.8977    1.7211 C   0  0  0  0  0  0  0  0  0  0  0  0
   -8.1659   -0.0716    2.5962 C   0  0  0  0  0  0  0  0  0  0  0  0
   -7.3431    0.3252    3.6327 C   0  0  0  0  0  0  0  0  0  0  0  0
   -6.7007   -0.5665    4.4564 C   0  0  0  0  0  0  0  0  0  0  0  0
   -6.8611   -1.9147    4.2695 C   0  0  0  0  0  0  0  0  0  0  0  0
   -7.6760   -2.3439    3.2434 C   0  0  0  0  0  0  0  0  0  0  0  0
   -8.3172   -1.4246    2.4209 C   0  0  0  0  0  0  0  0  0  0  0  0
   -6.6822    1.6312    0.8636 N   0  0  0  0  0  0  0  0  0  0  0  0
   -5.4964    1.0424    0.2777 C   0  0  0  0  0  0  0  0  0  0  0  0
   -5.7764    0.1987   -0.6265 O   0  0  0  0  0  0  0  0  0  0  0  0
   -4.1745    1.3998    0.7133 C   0  0  2  0  0  0  0  0  0  0  0  0
   -3.8024    2.8246    0.8893 C   0  0  0  0  0  0  0  0  0  0  0  0
   -3.8532    3.7198   -0.2534 C   0  0  0  0  0  0  0  0  0  0  0  0
   -2.7852    3.8691   -1.1275 C   0  0  0  0  0  0  0  0  0  0  0  0
   -2.8240    4.7448   -2.1937 C   0  0  0  0  0  0  0  0  0  0  0  0
   -3.9498    5.5171   -2.4327 C   0  0  0  0  0  0  0  0  0  0  0  0
   -5.0180    5.3889   -1.5854 C   0  0  0  0  0  0  0  0  0  0  0  0
   -4.9433    4.5080   -0.5339 C   0  0  0  0  0  0  0  0  0  0  0  0
   -3.0637    0.7279    0.0516 N   0  0  0  0  0  0  0  0  0  0  0  0
   -2.1953   -0.1749    0.6494 C   0  0  0  0  0  0  0  0  0  0  0  0
   -2.3842   -0.4621    1.8650 O   0  0  0  0  0  0  0  0  0  0  0  0
   -1.0745   -0.8056   -0.0327 C   0  0  2  0  0  0  0  0  0  0  0  0
   -1.2614   -1.3921   -1.3622 C   0  0  0  0  0  0  0  0  0  0  0  0
   -2.1860   -2.4614   -1.6150 C   0  0  0  0  0  0  0  0  0  0  0  0
   -3.4729   -2.1908   -2.0304 C   0  0  0  0  0  0  0  0  0  0  0  0
   -4.4038   -3.1790   -2.3028 C   0  0  0  0  0  0  0  0  0  0  0  0
   -4.0642   -4.5088   -2.1630 C   0  0  0  0  0  0  0  0  0  0  0  0
   -2.7716   -4.8283   -1.7440 C   0  0  0  0  0  0  0  0  0  0  0  0
   -1.8938   -3.8181   -1.4896 C   0  0  0  0  0  0  0  0  0  0  0  0
   -0.2798   -1.6382    0.8782 N   0  0  0  0  0  0  0  0  0  0  0  0
    1.0939   -1.3661    1.0258 C   0  0  0  0  0  0  0  0  0  0  0  0
    1.6102   -0.3986    0.3391 O   0  0  0  0  0  0  0  0  0  0  0  0
    2.0677   -2.0587    1.8886 C   0  0  1  0  0  0  0  0  0  0  0  0
    1.6830   -3.4573    2.3026 C   0  0  0  0  0  0  0  0  0  0  0  0
    1.5086   -4.4164    1.1750 C   0  0  0  0  0  0  0  0  0  0  0  0
    1.1445   -5.7698    1.8041 C   0  0  0  0  0  0  0  0  0  0  0  0
    0.9965   -6.6801    0.6873 N   0  0  0  0  0  0  0  0  0  0  0  0
    2.0879   -7.0915   -0.1150 C   0  0  0  0  0  0  0  0  0  0  0  0
    2.3229   -6.6005   -1.4273 N   0  0  0  0  0  0  0  0  0  0  0  0
    2.9152   -7.9510    0.3559 N   0  0  0  0  0  0  0  0  0  0  0  0
    3.3054   -2.1078    1.1469 N   0  0  0  0  0  0  0  0  0  0  0  0
    4.6026   -1.8058    1.5964 C   0  0  0  0  0  0  0  0  0  0  0  0
    4.7619   -1.4531    2.7814 O   0  0  0  0  0  0  0  0  0  0  0  0
    5.7605   -1.8993    0.6944 C   0  0  2  0  0  0  0  0  0  0  0  0
    5.7995   -3.1895   -0.0721 C   0  0  0  0  0  0  0  0  0  0  0  0
    6.9719   -3.2671   -0.9962 C   0  0  0  0  0  0  0  0  0  0  0  0
    8.1890   -3.7815   -0.6700 C   0  0  0  0  0  0  0  0  0  0  0  0
    9.2097   -3.8012   -1.6099 C   0  0  0  0  0  0  0  0  0  0  0  0
    9.0108   -3.3081   -2.8713 C   0  0  0  0  0  0  0  0  0  0  0  0
    7.7728   -2.7857   -3.2028 C   0  0  0  0  0  0  0  0  0  0  0  0
    6.7700   -2.7689   -2.2699 C   0  0  0  0  0  0  0  0  0  0  0  0
    7.0438   -1.5949    1.2147 N   0  0  0  0  0  0  0  0  0  0  0  0
    7.7700   -0.4309    0.9079 C   0  0  0  0  0  0  0  0  0  0  0  0
    7.1765    0.3942    0.1273 O   0  0  0  0  0  0  0  0  0  0  0  0
    9.1099   -0.0771    1.3727 C   0  0  2  0  0  0  0  0  0  0  0  0
    9.4229   -0.1399    2.8033 C   0  0  0  0  0  0  0  0  0  0  0  0
    8.6660    0.6983    3.7234 C   0  0  0  0  0  0  0  0  0  0  0  0
    7.5479    0.2151    4.3532 C   0  0  0  0  0  0  0  0  0  0  0  0
    6.8764    1.0587    5.2145 C   0  0  0  0  0  0  0  0  0  0  0  0
    7.3178    2.3528    5.4360 C   0  0  0  0  0  0  0  0  0  0  0  0
    8.4421    2.8522    4.8100 C   0  0  0  0  0  0  0  0  0  0  0  0
    9.1095    2.0024    3.9488 C   0  0  0  0  0  0  0  0  0  0  0  0
    9.4915    1.2319    0.8213 N   0  0  0  0  0  0  0  0  0  0  0  0
   10.3769    1.3871   -0.2671 C   0  0  0  0  0  0  0  0  0  0  0  0
   10.8666    0.3209   -0.7626 O   0  0  0  0  0  0  0  0  0  0  0  0
   10.7306    2.5843   -0.8148 O   0  0  0  0  0  0  0  0  0  0  0  0
   11.6225    2.6850   -1.9231 C   0  0  0  0  0  0  0  0  0  0  0  0
   11.7926    4.0983   -2.3329 C   0  0  0  0  0  0  0  0  0  0  0  0
   10.7860    4.6855   -3.0961 C   0  0  0  0  0  0  0  0  0  0  0  0
   10.8488    5.9862   -3.5283 C   0  0  0  0  0  0  0  0  0  0  0  0
   11.9458    6.7425   -3.1983 C   0  0  0  0  0  0  0  0  0  0  0  0
   12.9465    6.1640   -2.4417 C   0  0  0  0  0  0  0  0  0  0  0  0
   12.8831    4.8517   -2.0048 C   0  0  0  0  0  0  0  0  0  0  0  0
  -11.8432    3.7017   -0.5881 C   0  0  0  0  0  0  0  0  0  0  0  0
  -12.7059    4.7437   -1.0486 N   0  0  0  0  0  0  0  0  0  0  0  0
  -11.9274    3.4007    0.6444 O   0  0  0  0  0  0  0  0  0  0  0  0
  -14.1694    2.4790   -2.3285 H   0  0  0  0  0  0  0  0  0  0  0  0
  -14.2892    0.6755   -2.1974 H   0  0  0  0  0  0  0  0  0  0  0  0
  -13.5525    1.6201   -0.8502 H   0  0  0  0  0  0  0  0  0  0  0  0
  -11.8795    0.4481   -2.2647 H   0  0  0  0  0  0  0  0  0  0  0  0
  -13.7641    0.5897   -4.1750 H   0  0  0  0  0  0  0  0  0  0  0  0
  -12.7573    2.0303   -4.6892 H   0  0  0  0  0  0  0  0  0  0  0  0
  -11.9847    0.4123   -4.5835 H   0  0  0  0  0  0  0  0  0  0  0  0
  -11.9938    3.3779   -3.1834 H   0  0  0  0  0  0  0  0  0  0  0  0
  -10.5579    2.3111   -3.4167 H   0  0  0  0  0  0  0  0  0  0  0  0
  -10.1064    3.7857   -1.7092 H   0  0  0  0  0  0  0  0  0  0  0  0
  -10.5791    1.1171   -0.3954 H   0  0  0  0  0  0  0  0  0  0  0  0
   -7.9279    0.3653   -0.1453 H   0  0  0  0  0  0  0  0  0  0  0  0
   -9.8741    0.6007    1.4253 H   0  0  0  0  0  0  0  0  0  0  0  0
   -9.0013    1.8167    2.3666 H   0  0  0  0  0  0  0  0  0  0  0  0
   -7.1849    1.3771    3.8278 H   0  0  0  0  0  0  0  0  0  0  0  0
   -6.0631   -0.2206    5.2558 H   0  0  0  0  0  0  0  0  0  0  0  0
   -6.3535   -2.6508    4.9183 H   0  0  0  0  0  0  0  0  0  0  0  0
   -7.7780   -3.4095    3.1218 H   0  0  0  0  0  0  0  0  0  0  0  0
   -8.9444   -1.8264    1.6381 H   0  0  0  0  0  0  0  0  0  0  0  0
   -6.5078    2.3626    1.6093 H   0  0  0  0  0  0  0  0  0  0  0  0
   -4.1009    0.9639    1.7852 H   0  0  0  0  0  0  0  0  0  0  0  0
   -4.3797    3.3039    1.7526 H   0  0  0  0  0  0  0  0  0  0  0  0
   -2.7395    2.8870    1.2957 H   0  0  0  0  0  0  0  0  0  0  0  0
   -1.8879    3.2946   -0.9817 H   0  0  0  0  0  0  0  0  0  0  0  0
   -1.9729    4.8604   -2.8846 H   0  0  0  0  0  0  0  0  0  0  0  0
   -3.9782    6.2127   -3.2822 H   0  0  0  0  0  0  0  0  0  0  0  0
   -5.9239    5.9954   -1.7549 H   0  0  0  0  0  0  0  0  0  0  0  0
   -5.7944    4.4368    0.1216 H   0  0  0  0  0  0  0  0  0  0  0  0
   -2.9330    0.9628   -0.9592 H   0  0  0  0  0  0  0  0  0  0  0  0
   -0.3564    0.0847   -0.2382 H   0  0  0  0  0  0  0  0  0  0  0  0
   -0.2200   -1.5963   -1.7737 H   0  0  0  0  0  0  0  0  0  0  0  0
   -1.5760   -0.5279   -2.0404 H   0  0  0  0  0  0  0  0  0  0  0  0
   -3.8050   -1.1759   -2.1709 H   0  0  0  0  0  0  0  0  0  0  0  0
   -5.4021   -2.9199   -2.6290 H   0  0  0  0  0  0  0  0  0  0  0  0
   -4.7550   -5.3260   -2.3674 H   0  0  0  0  0  0  0  0  0  0  0  0
   -2.5152   -5.8761   -1.6376 H   0  0  0  0  0  0  0  0  0  0  0  0
   -0.8958   -4.0506   -1.1794 H   0  0  0  0  0  0  0  0  0  0  0  0
   -0.7874   -2.3965    1.3759 H   0  0  0  0  0  0  0  0  0  0  0  0
    2.2998   -1.5029    2.8322 H   0  0  0  0  0  0  0  0  0  0  0  0
    2.5024   -3.8401    2.9580 H   0  0  0  0  0  0  0  0  0  0  0  0
    0.7726   -3.4573    2.9100 H   0  0  0  0  0  0  0  0  0  0  0  0
    2.4336   -4.5954    0.5974 H   0  0  0  0  0  0  0  0  0  0  0  0
    0.6283   -4.1570    0.5613 H   0  0  0  0  0  0  0  0  0  0  0  0
    0.1886   -5.6942    2.3268 H   0  0  0  0  0  0  0  0  0  0  0  0
    1.9954   -6.0796    2.4456 H   0  0  0  0  0  0  0  0  0  0  0  0
    0.0502   -7.0485    0.4664 H   0  0  0  0  0  0  0  0  0  0  0  0
    1.9861   -5.6434   -1.6480 H   0  0  0  0  0  0  0  0  0  0  0  0
    2.8101   -7.1316   -2.1779 H   0  0  0  0  0  0  0  0  0  0  0  0
    2.7911   -8.3347    1.2949 H   0  0  0  0  0  0  0  0  0  0  0  0
    3.2053   -2.4123    0.1316 H   0  0  0  0  0  0  0  0  0  0  0  0
    5.5600   -1.1000   -0.0965 H   0  0  0  0  0  0  0  0  0  0  0  0
    5.8557   -4.0923    0.5657 H   0  0  0  0  0  0  0  0  0  0  0  0
    4.8561   -3.2824   -0.6622 H   0  0  0  0  0  0  0  0  0  0  0  0
    8.3459   -4.1743    0.3322 H   0  0  0  0  0  0  0  0  0  0  0  0
   10.1794   -4.2124   -1.3464 H   0  0  0  0  0  0  0  0  0  0  0  0
    9.8109   -3.3260   -3.5968 H   0  0  0  0  0  0  0  0  0  0  0  0
    7.6065   -2.4001   -4.1835 H   0  0  0  0  0  0  0  0  0  0  0  0
    5.8090   -2.3537   -2.5496 H   0  0  0  0  0  0  0  0  0  0  0  0
    7.4926   -2.2896    1.8806 H   0  0  0  0  0  0  0  0  0  0  0  0
    9.8615   -0.7784    0.8506 H   0  0  0  0  0  0  0  0  0  0  0  0
   10.5352    0.0131    2.9742 H   0  0  0  0  0  0  0  0  0  0  0  0
    9.2692   -1.2143    3.1481 H   0  0  0  0  0  0  0  0  0  0  0  0
    7.1873   -0.8095    4.1944 H   0  0  0  0  0  0  0  0  0  0  0  0
    5.9842    0.6652    5.7167 H   0  0  0  0  0  0  0  0  0  0  0  0
    6.7754    2.9899    6.1159 H   0  0  0  0  0  0  0  0  0  0  0  0
    8.7804    3.8646    4.9927 H   0  0  0  0  0  0  0  0  0  0  0  0
    9.9883    2.3757    3.4516 H   0  0  0  0  0  0  0  0  0  0  0  0
    9.0873    2.0864    1.2549 H   0  0  0  0  0  0  0  0  0  0  0  0
   12.6263    2.3432   -1.5532 H   0  0  0  0  0  0  0  0  0  0  0  0
   11.3333    2.0649   -2.7700 H   0  0  0  0  0  0  0  0  0  0  0  0
    9.9033    4.1081   -3.3725 H   0  0  0  0  0  0  0  0  0  0  0  0
   10.0612    6.4233   -4.1137 H   0  0  0  0  0  0  0  0  0  0  0  0
   12.0190    7.7843   -3.5298 H   0  0  0  0  0  0  0  0  0  0  0  0
   13.8100    6.7773   -2.1891 H   0  0  0  0  0  0  0  0  0  0  0  0
   13.6902    4.4190   -1.4039 H   0  0  0  0  0  0  0  0  0  0  0  0
  -12.3522    5.5095   -1.6577 H   0  0  0  0  0  0  0  0  0  0  0  0
  -13.7184    4.7734   -0.7867 H   0  0  0  0  0  0  0  0  0  0  0  0
  1  2  1  0
  2  3  1  0
  2  4  1  0
  4  5  1  0
  5  6  1  0
  6  7  1  0
  7  8  2  0
  7  9  1  0
  9 10  1  0
 10 11  1  0
 11 12  2  0
 12 13  1  0
 13 14  2  0
 14 15  1  0
 15 16  2  0
  9 17  1  0
 17 18  1  0
 18 19  2  0
 18 20  1  0
 20 21  1  0
 21 22  1  0
 22 23  2  0
 23 24  1  0
 24 25  2  0
 25 26  1  0
 26 27  2  0
 20 28  1  0
 28 29  1  0
 29 30  2  0
 29 31  1  0
 31 32  1  0
 32 33  1  0
 33 34  2  0
 34 35  1  0
 35 36  2  0
 36 37  1  0
 37 38  2  0
 31 39  1  0
 39 40  1  0
 40 41  2  0
 40 42  1  0
 42 43  1  0
 43 44  1  0
 44 45  1  0
 45 46  1  0
 46 47  1  0
 47 48  1  0
 47 49  2  3
 42 50  1  0
 50 51  1  0
 51 52  2  0
 51 53  1  0
 53 54  1  0
 54 55  1  0
 55 56  2  0
 56 57  1  0
 57 58  2  0
 58 59  1  0
 59 60  2  0
 53 61  1  0
 61 62  1  0
 62 63  2  0
 62 64  1  0
 64 65  1  0
 65 66  1  0
 66 67  2  0
 67 68  1  0
 68 69  2  0
 69 70  1  0
 70 71  2  0
 64 72  1  0
 72 73  1  0
 73 74  2  0
 73 75  1  0
 75 76  1  0
 76 77  1  0
 77 78  2  0
 78 79  1  0
 79 80  2  0
 80 81  1  0
 81 82  2  0
  5 83  1  0
 83 84  1  0
 83 85  2  0
 16 11  1  0
 27 22  1  0
 38 33  1  0
 60 55  1  0
 71 66  1  0
 82 77  1  0
  1 86  1  0
  1 87  1  0
  1 88  1  0
  2 89  1  0
  3 90  1  0
  3 91  1  0
  3 92  1  0
  4 93  1  0
  4 94  1  0
  5 95  1  6
  6 96  1  0
  9 97  1  6
 10 98  1  0
 10 99  1  0
 12100  1  0
 13101  1  0
 14102  1  0
 15103  1  0
 16104  1  0
 17105  1  0
 20106  1  1
 21107  1  0
 21108  1  0
 23109  1  0
 24110  1  0
 25111  1  0
 26112  1  0
 27113  1  0
 28114  1  0
 31115  1  6
 32116  1  0
 32117  1  0
 34118  1  0
 35119  1  0
 36120  1  0
 37121  1  0
 38122  1  0
 39123  1  0
 42124  1  1
 43125  1  0
 43126  1  0
 44127  1  0
 44128  1  0
 45129  1  0
 45130  1  0
 46131  1  0
 48132  1  0
 48133  1  0
 49134  1  0
 50135  1  0
 53136  1  6
 54137  1  0
 54138  1  0
 56139  1  0
 57140  1  0
 58141  1  0
 59142  1  0
 60143  1  0
 61144  1  0
 64145  1  6
 65146  1  0
 65147  1  0
 67148  1  0
 68149  1  0
 69150  1  0
 70151  1  0
 71152  1  0
 72153  1  0
 76154  1  0
 76155  1  0
 78156  1  0
 79157  1  0
 80158  1  0
 81159  1  0
 82160  1  0
 84161  1  0
 84162  1  0
M  END
$$$$
[H]O[C@@]1([H])C([H])([H])C([H])([H])[C@]2(C([H])([H])[H])[C@@]3([H])C([H])([H])C([H])([H])[C@]4(C([H])([H])[H])[C@@]([H])(OC(=O)C(C([H])([H])[H])(C([H])([H])[H])C([H])([H])[H])C([H])([H])C([H])([H])[C@@]4([H])[C@]3([H])C([H])([H])C([H])([H])[C@]2([H])C1([H])[H]
     RDKit          3D

 67 70  0  0  0  0  0  0  0  0999 V2000
   -1.2254   -1.4915    1.0590 C   0  0  0  0  0  0  0  0  0  0  0  0
   -1.0827   -0.0815    0.6125 C   0  0  2  0  0  0  0  0  0  0  0  0
   -0.5866    0.0096   -0.7878 C   0  0  0  0  0  0  0  0  0  0  0  0
    0.7611   -0.6424   -0.8655 C   0  0  0  0  0  0  0  0  0  0  0  0
    1.7517   -0.0090    0.0659 C   0  0  1  0  0  0  0  0  0  0  0  0
    1.2548    0.1031    1.4884 C   0  0  1  0  0  0  0  0  0  0  0  0
    2.1838    1.0518    2.2337 C   0  0  0  0  0  0  0  0  0  0  0  0
    3.4684    1.2931    1.5020 C   0  0  0  0  0  0  0  0  0  0  0  0
    3.9943   -0.0643    1.0529 C   0  0  2  0  0  0  0  0  0  0  0  0
    5.4080    0.0260    0.5495 C   0  0  0  0  0  0  0  0  0  0  0  0
    5.5280    0.7813   -0.7449 C   0  0  1  0  0  0  0  0  0  0  0  0
    6.6496    0.2416   -1.4174 O   0  0  0  0  0  0  0  0  0  0  0  0
    4.3280    0.5861   -1.6341 C   0  0  0  0  0  0  0  0  0  0  0  0
    3.7221   -0.7587   -1.2856 C   0  0  0  0  0  0  0  0  0  0  0  0
    3.0568   -0.7278    0.0819 C   0  0  2  0  0  0  0  0  0  0  0  0
    2.8518   -2.1834    0.4861 C   0  0  0  0  0  0  0  0  0  0  0  0
   -0.0942    0.7155    1.4740 C   0  0  2  0  0  0  0  0  0  0  0  0
   -0.8105    0.7651    2.7734 C   0  0  0  0  0  0  0  0  0  0  0  0
   -2.2844    0.8533    2.3983 C   0  0  0  0  0  0  0  0  0  0  0  0
   -2.3366    0.7205    0.8781 C   0  0  2  0  0  0  0  0  0  0  0  0
   -3.5013    0.0955    0.4382 O   0  0  0  0  0  0  0  0  0  0  0  0
   -4.3815    0.7081   -0.4413 C   0  0  0  0  0  0  0  0  0  0  0  0
   -4.0611    1.8692   -0.8190 O   0  0  0  0  0  0  0  0  0  0  0  0
   -5.6165    0.0992   -0.9347 C   0  0  0  0  0  0  0  0  0  0  0  0
   -6.5860   -0.2486    0.1762 C   0  0  0  0  0  0  0  0  0  0  0  0
   -6.3352    1.0567   -1.8610 C   0  0  0  0  0  0  0  0  0  0  0  0
   -5.3732   -1.1731   -1.7190 C   0  0  0  0  0  0  0  0  0  0  0  0
   -1.2853   -2.1354    0.1370 H   0  0  0  0  0  0  0  0  0  0  0  0
   -0.4207   -1.8874    1.6734 H   0  0  0  0  0  0  0  0  0  0  0  0
   -2.2063   -1.6700    1.5795 H   0  0  0  0  0  0  0  0  0  0  0  0
   -1.2778   -0.5872   -1.4327 H   0  0  0  0  0  0  0  0  0  0  0  0
   -0.5661    1.0712   -1.1059 H   0  0  0  0  0  0  0  0  0  0  0  0
    1.1387   -0.5126   -1.8938 H   0  0  0  0  0  0  0  0  0  0  0  0
    0.6194   -1.7251   -0.6893 H   0  0  0  0  0  0  0  0  0  0  0  0
    1.9226    1.0326   -0.3011 H   0  0  0  0  0  0  0  0  0  0  0  0
    1.3034   -0.8589    2.0294 H   0  0  0  0  0  0  0  0  0  0  0  0
    1.7043    2.0346    2.4140 H   0  0  0  0  0  0  0  0  0  0  0  0
    2.4460    0.6574    3.2464 H   0  0  0  0  0  0  0  0  0  0  0  0
    4.2227    1.6745    2.2345 H   0  0  0  0  0  0  0  0  0  0  0  0
    3.4064    2.0211    0.7004 H   0  0  0  0  0  0  0  0  0  0  0  0
    4.0268   -0.6839    1.9781 H   0  0  0  0  0  0  0  0  0  0  0  0
    5.8125   -1.0008    0.4908 H   0  0  0  0  0  0  0  0  0  0  0  0
    5.9982    0.5636    1.3082 H   0  0  0  0  0  0  0  0  0  0  0  0
    5.7708    1.8560   -0.6001 H   0  0  0  0  0  0  0  0  0  0  0  0
    7.2966   -0.1441   -0.7530 H   0  0  0  0  0  0  0  0  0  0  0  0
    4.6757    0.4968   -2.6948 H   0  0  0  0  0  0  0  0  0  0  0  0
    3.6114    1.4092   -1.6111 H   0  0  0  0  0  0  0  0  0  0  0  0
    4.5914   -1.4671   -1.1796 H   0  0  0  0  0  0  0  0  0  0  0  0
    3.0804   -1.1670   -2.0664 H   0  0  0  0  0  0  0  0  0  0  0  0
    3.5117   -2.4141    1.3718 H   0  0  0  0  0  0  0  0  0  0  0  0
    1.8332   -2.4012    0.8042 H   0  0  0  0  0  0  0  0  0  0  0  0
    3.1417   -2.8889   -0.2962 H   0  0  0  0  0  0  0  0  0  0  0  0
   -0.0276    1.7125    0.9911 H   0  0  0  0  0  0  0  0  0  0  0  0
   -0.5075    1.6082    3.4256 H   0  0  0  0  0  0  0  0  0  0  0  0
   -0.6070   -0.1965    3.3181 H   0  0  0  0  0  0  0  0  0  0  0  0
   -2.6968    1.8359    2.7304 H   0  0  0  0  0  0  0  0  0  0  0  0
   -2.8013   -0.0039    2.8329 H   0  0  0  0  0  0  0  0  0  0  0  0
   -2.1753    1.7293    0.4739 H   0  0  0  0  0  0  0  0  0  0  0  0
   -6.3331   -1.2169    0.6636 H   0  0  0  0  0  0  0  0  0  0  0  0
   -6.6296    0.5801    0.9219 H   0  0  0  0  0  0  0  0  0  0  0  0
   -7.5954   -0.2972   -0.2856 H   0  0  0  0  0  0  0  0  0  0  0  0
   -5.9547    0.9650   -2.8873 H   0  0  0  0  0  0  0  0  0  0  0  0
   -6.2437    2.1077   -1.4733 H   0  0  0  0  0  0  0  0  0  0  0  0
   -7.4352    0.8287   -1.8625 H   0  0  0  0  0  0  0  0  0  0  0  0
   -4.5142   -1.7465   -1.3559 H   0  0  0  0  0  0  0  0  0  0  0  0
   -6.2621   -1.8400   -1.6606 H   0  0  0  0  0  0  0  0  0  0  0  0
   -5.2577   -0.9349   -2.8105 H   0  0  0  0  0  0  0  0  0  0  0  0
  2  1  1  1
  2  3  1  0
  3  4  1  0
  4  5  1  0
  5  6  1  0
  6  7  1  0
  7  8  1  0
  8  9  1  0
  9 10  1  0
 10 11  1  0
 11 12  1  0
 11 13  1  0
 13 14  1  0
 14 15  1  0
 15 16  1  1
  6 17  1  0
 17 18  1  0
 18 19  1  0
 19 20  1  0
 20 21  1  0
 21 22  1  0
 22 23  2  0
 22 24  1  0
 24 25  1  0
 24 26  1  0
 24 27  1  0
 17  2  1  0
 20  2  1  0
 15  5  1  0
 15  9  1  0
  1 28  1  0
  1 29  1  0
  1 30  1  0
  3 31  1  0
  3 32  1  0
  4 33  1  0
  4 34  1  0
  5 35  1  6
  6 36  1  1
  7 37  1  0
  7 38  1  0
  8 39  1  0
  8 40  1  0
  9 41  1  1
 10 42  1  0
 10 43  1  0
 11 44  1  1
 12 45  1  0
 13 46  1  0
 13 47  1  0
 14 48  1  0
 14 49  1  0
 16 50  1  0
 16 51  1  0
 16 52  1  0
 17 53  1  6
 18 54  1  0
 18 55  1  0
 19 56  1  0
 19 57  1  0
 20 58  1  6
 25 59  1  0
 25 60  1  0
 25 61  1  0
 26 62  1  0
 26 63  1  0
 26 64  1  0
 27 65  1  0
 27 66  1  0
 27 67  1  0
M  END
$$$$
[H]c1c([H])c([H])c(C([H])([H])[C@@]([H])(C(=O)N([H])[C@]([H])(C(=O)N([H])[C@]([H])(C(=O)N([H])[C@]([H])(C(=O)N([H])[C@]([H])(C([H])([H])[H])C([H])(C([H])([H])[H])C([H])([H])[H])C([H])([H])[H])C([H])([H])c2c([H])c([H])c([H])c([H])c2[H])C([H])([H])[H])N([H])C(=O)[C@@]([H])(N([H])C(=O)[C@@]([H])(N([H])C(=O)[C@@]([H])(N([H])C(=O)[C@@]([H])(N([H])C(=O)[C@@]([H])(N([H])C(=O)[C@@]([H])(N([H])C(=O)C([H])(C([H])([H])[H])C([H])([H])[H])C([H])([H])[H])C([H])([H])[H])C([H])([H])[H])C([H])([H])[H])C([H])([H])[H])C([H])([H])[H])c([H])c1[H]
     RDKit          3D

150151  0  0  0  0  0  0  0  0999 V2000
  -16.1039   -2.4553    0.8011 C   0  0  0  0  0  0  0  0  0  0  0  0
  -15.2960   -2.6975    2.0589 C   0  0  0  0  0  0  0  0  0  0  0  0
  -14.8918   -4.1595    2.1952 C   0  0  0  0  0  0  0  0  0  0  0  0
  -14.0978   -1.8104    2.1032 C   0  0  2  0  0  0  0  0  0  0  0  0
  -13.2267   -1.9941    0.9690 N   0  0  0  0  0  0  0  0  0  0  0  0
  -12.3394   -0.9435    0.6072 C   0  0  0  0  0  0  0  0  0  0  0  0
  -12.3548    0.0806    1.3094 O   0  0  0  0  0  0  0  0  0  0  0  0
  -11.4815   -1.1328   -0.5542 C   0  0  2  0  0  0  0  0  0  0  0  0
  -11.1894   -2.5959   -0.7704 C   0  0  0  0  0  0  0  0  0  0  0  0
  -10.3311   -0.3642   -0.7748 N   0  0  0  0  0  0  0  0  0  0  0  0
   -9.6814    0.6399   -0.1466 C   0  0  0  0  0  0  0  0  0  0  0  0
  -10.0497    1.1069    0.9870 O   0  0  0  0  0  0  0  0  0  0  0  0
   -8.4438    1.3284   -0.6736 C   0  0  2  0  0  0  0  0  0  0  0  0
   -8.0900    1.1844   -2.0967 C   0  0  0  0  0  0  0  0  0  0  0  0
   -8.9271    1.6959   -3.1595 C   0  0  0  0  0  0  0  0  0  0  0  0
   -9.7486    0.9553   -3.9502 C   0  0  0  0  0  0  0  0  0  0  0  0
  -10.5179    1.4967   -4.9644 C   0  0  0  0  0  0  0  0  0  0  0  0
  -10.4464    2.8558   -5.1844 C   0  0  0  0  0  0  0  0  0  0  0  0
   -9.6207    3.6202   -4.3938 C   0  0  0  0  0  0  0  0  0  0  0  0
   -8.8693    3.0910   -3.4003 C   0  0  0  0  0  0  0  0  0  0  0  0
   -7.3476    1.2859    0.1367 N   0  0  0  0  0  0  0  0  0  0  0  0
   -6.2286    1.1505    0.9429 C   0  0  0  0  0  0  0  0  0  0  0  0
   -5.6824    0.0143    1.1675 O   0  0  0  0  0  0  0  0  0  0  0  0
   -5.4709    2.2464    1.6521 C   0  0  2  0  0  0  0  0  0  0  0  0
   -5.9158    3.6140    1.3623 C   0  0  0  0  0  0  0  0  0  0  0  0
   -4.0861    1.9754    1.2850 N   0  0  0  0  0  0  0  0  0  0  0  0
   -3.2220    1.1866    2.0616 C   0  0  0  0  0  0  0  0  0  0  0  0
   -3.5688    0.6482    3.1474 O   0  0  0  0  0  0  0  0  0  0  0  0
   -1.8690    0.9814    1.6116 C   0  0  2  0  0  0  0  0  0  0  0  0
   -1.5665   -0.1826    0.6810 C   0  0  0  0  0  0  0  0  0  0  0  0
   -2.2065   -0.1858   -0.6091 C   0  0  0  0  0  0  0  0  0  0  0  0
   -3.2820   -0.9604   -0.9180 C   0  0  0  0  0  0  0  0  0  0  0  0
   -3.8968   -0.9631   -2.1262 C   0  0  0  0  0  0  0  0  0  0  0  0
   -3.4547   -0.1401   -3.1673 C   0  0  0  0  0  0  0  0  0  0  0  0
   -2.3742    0.6535   -2.8891 C   0  0  0  0  0  0  0  0  0  0  0  0
   -1.7692    0.6344   -1.6545 C   0  0  0  0  0  0  0  0  0  0  0  0
   -0.9018    0.8960    2.7178 N   0  0  0  0  0  0  0  0  0  0  0  0
    0.3378    1.4729    2.4871 C   0  0  0  0  0  0  0  0  0  0  0  0
    0.4553    2.0451    1.3124 O   0  0  0  0  0  0  0  0  0  0  0  0
    1.5522    1.5266    3.3828 C   0  0  2  0  0  0  0  0  0  0  0  0
    1.3713    2.2233    4.6445 C   0  0  0  0  0  0  0  0  0  0  0  0
    2.5249    2.2203    2.4827 N   0  0  0  0  0  0  0  0  0  0  0  0
    3.0425    1.5158    1.3855 C   0  0  0  0  0  0  0  0  0  0  0  0
    2.6518    0.2706    1.2561 O   0  0  0  0  0  0  0  0  0  0  0  0
    3.9408    2.0311    0.3707 C   0  0  2  0  0  0  0  0  0  0  0  0
    3.4795    3.3981   -0.1552 C   0  0  0  0  0  0  0  0  0  0  0  0
    4.0459    1.0657   -0.7147 N   0  0  0  0  0  0  0  0  0  0  0  0
    5.2112    0.6873   -1.3902 C   0  0  0  0  0  0  0  0  0  0  0  0
    6.2831    1.2504   -1.0416 O   0  0  0  0  0  0  0  0  0  0  0  0
    5.2118   -0.3487   -2.4889 C   0  0  2  0  0  0  0  0  0  0  0  0
    3.8861   -0.8615   -2.8520 C   0  0  0  0  0  0  0  0  0  0  0  0
    6.2663   -1.3137   -2.3407 N   0  0  0  0  0  0  0  0  0  0  0  0
    7.0315   -1.6030   -1.2308 C   0  0  0  0  0  0  0  0  0  0  0  0
    6.8495   -1.0393   -0.1057 O   0  0  0  0  0  0  0  0  0  0  0  0
    8.1808   -2.6185   -1.2167 C   0  0  2  0  0  0  0  0  0  0  0  0
    7.6720   -3.8268   -0.5361 C   0  0  0  0  0  0  0  0  0  0  0  0
    9.1816   -1.9726   -0.3598 N   0  0  0  0  0  0  0  0  0  0  0  0
   10.3952   -1.5015   -0.8307 C   0  0  0  0  0  0  0  0  0  0  0  0
   10.7034   -1.6680   -2.0546 O   0  0  0  0  0  0  0  0  0  0  0  0
   11.3501   -0.7985    0.0420 C   0  0  2  0  0  0  0  0  0  0  0  0
   10.7216    0.5528    0.4487 C   0  0  0  0  0  0  0  0  0  0  0  0
   12.6093   -0.4570   -0.6091 N   0  0  0  0  0  0  0  0  0  0  0  0
   13.8582   -0.5960   -0.0277 C   0  0  0  0  0  0  0  0  0  0  0  0
   13.9067   -1.0723    1.1627 O   0  0  0  0  0  0  0  0  0  0  0  0
   15.1582   -0.2332   -0.6724 C   0  0  2  0  0  0  0  0  0  0  0  0
   15.3406   -0.7909   -2.0471 C   0  0  0  0  0  0  0  0  0  0  0  0
   16.2859   -0.4312    0.2000 N   0  0  0  0  0  0  0  0  0  0  0  0
   17.0674    0.6040    0.7623 C   0  0  0  0  0  0  0  0  0  0  0  0
   16.7849    1.7854    0.4936 O   0  0  0  0  0  0  0  0  0  0  0  0
   18.1993    0.3186    1.6565 C   0  0  0  0  0  0  0  0  0  0  0  0
   17.6833   -0.3954    2.8615 C   0  0  0  0  0  0  0  0  0  0  0  0
   19.2816   -0.5044    0.9495 C   0  0  0  0  0  0  0  0  0  0  0  0
  -13.2969   -2.0955    3.4133 C   0  0  0  0  0  0  0  0  0  0  0  0
  -15.7343   -1.4706    0.3728 H   0  0  0  0  0  0  0  0  0  0  0  0
  -17.1615   -2.3796    1.0080 H   0  0  0  0  0  0  0  0  0  0  0  0
  -15.9228   -3.2713    0.0633 H   0  0  0  0  0  0  0  0  0  0  0  0
  -15.9416   -2.4567    2.9327 H   0  0  0  0  0  0  0  0  0  0  0  0
  -15.2492   -4.5173    3.1574 H   0  0  0  0  0  0  0  0  0  0  0  0
  -15.3341   -4.6655    1.3259 H   0  0  0  0  0  0  0  0  0  0  0  0
  -13.7681   -4.1918    2.1206 H   0  0  0  0  0  0  0  0  0  0  0  0
  -14.4121   -0.7476    2.1143 H   0  0  0  0  0  0  0  0  0  0  0  0
  -13.2848   -2.8620    0.4364 H   0  0  0  0  0  0  0  0  0  0  0  0
  -12.2851   -0.8059   -1.4069 H   0  0  0  0  0  0  0  0  0  0  0  0
  -11.4059   -3.2153    0.1392 H   0  0  0  0  0  0  0  0  0  0  0  0
  -11.6970   -2.9432   -1.6823 H   0  0  0  0  0  0  0  0  0  0  0  0
  -10.0821   -2.7774   -0.9615 H   0  0  0  0  0  0  0  0  0  0  0  0
   -9.7687   -0.7356   -1.6736 H   0  0  0  0  0  0  0  0  0  0  0  0
   -8.8337    2.4841   -0.6723 H   0  0  0  0  0  0  0  0  0  0  0  0
   -7.0437    1.6316   -2.2900 H   0  0  0  0  0  0  0  0  0  0  0  0
   -7.8445    0.0754   -2.3095 H   0  0  0  0  0  0  0  0  0  0  0  0
   -9.8508   -0.1204   -3.8566 H   0  0  0  0  0  0  0  0  0  0  0  0
  -11.1709    0.8703   -5.5715 H   0  0  0  0  0  0  0  0  0  0  0  0
  -11.0281    3.3261   -5.9923 H   0  0  0  0  0  0  0  0  0  0  0  0
   -9.6045    4.7122   -4.6268 H   0  0  0  0  0  0  0  0  0  0  0  0
   -8.2277    3.7053   -2.7787 H   0  0  0  0  0  0  0  0  0  0  0  0
   -7.2851   -0.0754   -0.1270 H   0  0  0  0  0  0  0  0  0  0  0  0
   -5.5489    2.0194    2.7365 H   0  0  0  0  0  0  0  0  0  0  0  0
   -5.5154    4.0191    0.3888 H   0  0  0  0  0  0  0  0  0  0  0  0
   -5.5336    4.2847    2.1811 H   0  0  0  0  0  0  0  0  0  0  0  0
   -7.0164    3.7513    1.3368 H   0  0  0  0  0  0  0  0  0  0  0  0
   -3.6967    2.4034    0.3926 H   0  0  0  0  0  0  0  0  0  0  0  0
   -1.5068    1.8557    0.9862 H   0  0  0  0  0  0  0  0  0  0  0  0
   -0.4470   -0.1954    0.5260 H   0  0  0  0  0  0  0  0  0  0  0  0
   -1.7339   -1.1518    1.2188 H   0  0  0  0  0  0  0  0  0  0  0  0
   -3.7089   -1.6617   -0.1628 H   0  0  0  0  0  0  0  0  0  0  0  0
   -4.7541   -1.5886   -2.3114 H   0  0  0  0  0  0  0  0  0  0  0  0
   -3.8982   -0.1270   -4.1214 H   0  0  0  0  0  0  0  0  0  0  0  0
   -2.0253    1.3062   -3.7186 H   0  0  0  0  0  0  0  0  0  0  0  0
   -0.9134    1.3101   -1.5274 H   0  0  0  0  0  0  0  0  0  0  0  0
   -1.1635    0.4218    3.5799 H   0  0  0  0  0  0  0  0  0  0  0  0
    1.8709    0.4660    3.4800 H   0  0  0  0  0  0  0  0  0  0  0  0
    1.5561    3.3337    4.5670 H   0  0  0  0  0  0  0  0  0  0  0  0
    2.0974    1.8863    5.4207 H   0  0  0  0  0  0  0  0  0  0  0  0
    0.3557    2.0874    5.1185 H   0  0  0  0  0  0  0  0  0  0  0  0
    2.7546    3.1907    2.7241 H   0  0  0  0  0  0  0  0  0  0  0  0
    4.9626    2.1831    0.7651 H   0  0  0  0  0  0  0  0  0  0  0  0
    2.4030    3.4349   -0.3000 H   0  0  0  0  0  0  0  0  0  0  0  0
    3.9150    4.1926    0.4698 H   0  0  0  0  0  0  0  0  0  0  0  0
    3.9340    3.4934   -1.1722 H   0  0  0  0  0  0  0  0  0  0  0  0
    3.1288    0.5968   -1.0266 H   0  0  0  0  0  0  0  0  0  0  0  0
    5.5943    0.2956   -3.3947 H   0  0  0  0  0  0  0  0  0  0  0  0
    3.2110   -0.0062   -3.1429 H   0  0  0  0  0  0  0  0  0  0  0  0
    3.9478   -1.4706   -3.8025 H   0  0  0  0  0  0  0  0  0  0  0  0
    3.3916   -1.4533   -2.0512 H   0  0  0  0  0  0  0  0  0  0  0  0
    6.4698   -1.8727   -3.2472 H   0  0  0  0  0  0  0  0  0  0  0  0
    8.5551   -2.8055   -2.2071 H   0  0  0  0  0  0  0  0  0  0  0  0
    7.6309   -3.6130    0.5563 H   0  0  0  0  0  0  0  0  0  0  0  0
    6.6309   -4.0798   -0.8305 H   0  0  0  0  0  0  0  0  0  0  0  0
    8.3368   -4.7038   -0.6322 H   0  0  0  0  0  0  0  0  0  0  0  0
    8.9402   -1.8588    0.6797 H   0  0  0  0  0  0  0  0  0  0  0  0
   11.4829   -1.3412    0.9829 H   0  0  0  0  0  0  0  0  0  0  0  0
    9.7207    0.4429    0.8864 H   0  0  0  0  0  0  0  0  0  0  0  0
   11.4081    0.9933    1.1904 H   0  0  0  0  0  0  0  0  0  0  0  0
   10.6039    1.1843   -0.4704 H   0  0  0  0  0  0  0  0  0  0  0  0
   12.5367   -0.0733   -1.5872 H   0  0  0  0  0  0  0  0  0  0  0  0
   15.0982    0.9040   -0.7997 H   0  0  0  0  0  0  0  0  0  0  0  0
   15.9479   -0.0710   -2.6701 H   0  0  0  0  0  0  0  0  0  0  0  0
   14.3693   -0.8935   -2.5815 H   0  0  0  0  0  0  0  0  0  0  0  0
   15.9157   -1.7331   -2.0889 H   0  0  0  0  0  0  0  0  0  0  0  0
   16.5841   -1.4201    0.4699 H   0  0  0  0  0  0  0  0  0  0  0  0
   18.6757    1.2821    1.9669 H   0  0  0  0  0  0  0  0  0  0  0  0
   18.3369   -1.2471    3.1549 H   0  0  0  0  0  0  0  0  0  0  0  0
   16.6681   -0.8576    2.6549 H   0  0  0  0  0  0  0  0  0  0  0  0
   17.6261    0.3186    3.6968 H   0  0  0  0  0  0  0  0  0  0  0  0
   18.7160   -1.2335    0.3031 H   0  0  0  0  0  0  0  0  0  0  0  0
   19.8748    0.0942    0.2448 H   0  0  0  0  0  0  0  0  0  0  0  0
   19.8649   -1.0471    1.6675 H   0  0  0  0  0  0  0  0  0  0  0  0
  -12.8383   -1.1028    3.6627 H   0  0  0  0  0  0  0  0  0  0  0  0
  -12.5606   -2.8893    3.2437 H   0  0  0  0  0  0  0  0  0  0  0  0
  -13.9936   -2.4199    4.1738 H   0  0  0  0  0  0  0  0  0  0  0  0
  1  2  1  0
  2  3  1  0
  2  4  1  0
  4  5  1  0
  5  6  1  0
  6  7  2  0
  6  8  1  0
  8  9  1  0
  8 10  1  0
 10 11  1  0
 11 12  2  0
 11 13  1  0
 13 14  1  0
 14 15  1  0
 15 16  2  0
 16 17  1  0
 17 18  2  0
 18 19  1  0
 19 20  2  0
 13 21  1  0
 21 22  1  0
 22 23  2  0
 22 24  1  0
 24 25  1  0
 24 26  1  0
 26 27  1  0
 27 28  2  0
 27 29  1  0
 29 30  1  0
 30 31  1  0
 31 32  2  0
 32 33  1  0
 33 34  2  0
 34 35  1  0
 35 36  2  0
 29 37  1  0
 37 38  1  0
 38 39  2  0
 38 40  1  0
 40 41  1  0
 40 42  1  0
 42 43  1  0
 43 44  2  0
 43 45  1  0
 45 46  1  0
 45 47  1  0
 47 48  1  0
 48 49  2  0
 48 50  1  0
 50 51  1  0
 50 52  1  0
 52 53  1  0
 53 54  2  0
 53 55  1  0
 55 56  1  0
 55 57  1  0
 57 58  1  0
 58 59  2  0
 58 60  1  0
 60 61  1  0
 60 62  1  0
 62 63  1  0
 63 64  2  0
 63 65  1  0
 65 66  1  0
 65 67  1  0
 67 68  1  0
 68 69  2  0
 68 70  1  0
 70 71  1  0
 70 72  1  0
  4 73  1  0
 20 15  1  0
 36 31  1  0
  1 74  1  0
  1 75  1  0
  1 76  1  0
  2 77  1  0
  3 78  1  0
  3 79  1  0
  3 80  1  0
  4 81  1  1
  5 82  1  0
  8 83  1  6
  9 84  1  0
  9 85  1  0
  9 86  1  0
 10 87  1  0
 13 88  1  6
 14 89  1  0
 14 90  1  0
 16 91  1  0
 17 92  1  0
 18 93  1  0
 19 94  1  0
 20 95  1  0
 21 96  1  0
 24 97  1  1
 25 98  1  0
 25 99  1  0
 25100  1  0
 26101  1  0
 29102  1  6
 30103  1  0
 30104  1  0
 32105  1  0
 33106  1  0
 34107  1  0
 35108  1  0
 36109  1  0
 37110  1  0
 40111  1  1
 41112  1  0
 41113  1  0
 41114  1  0
 42115  1  0
 45116  1  1
 46117  1  0
 46118  1  0
 46119  1  0
 47120  1  0
 50121  1  6
 51122  1  0
 51123  1  0
 51124  1  0
 52125  1  0
 55126  1  6
 56127  1  0
 56128  1  0
 56129  1  0
 57130  1  0
 60131  1  1
 61132  1  0
 61133  1  0
 61134  1  0
 62135  1  0
 65136  1  6
 66137  1  0
 66138  1  0
 66139  1  0
 67140  1  0
 70141  1  0
 71142  1  0
 71143  1  0
 71144  1  0
 72145  1  0
 72146  1  0
 72147  1  0
 73148  1  0
 73149  1  0
 73150  1  0
M  END
$$$$
[H]c1c([H])c(OC([H])([H])[H])c([H])c(C(=O)N([H])c2c([H])c([H])c(OC([H])([H])[H])c(C(=O)N([H])c3c([H])c([H])c(OC([H])([H])[H])c(OC([H])([H])[H])c3[H])c2[H])c1F
     RDKit          3D

 56 58  0  0  0  0  0  0  0  0999 V2000
   -5.9519    4.2973    1.2148 C   0  0  0  0  0  0  0  0  0  0  0  0
   -6.9974    3.5656    0.5765 O   0  0  0  0  0  0  0  0  0  0  0  0
   -6.7214    2.2823    0.1183 C   0  0  0  0  0  0  0  0  0  0  0  0
   -7.7424    1.5920   -0.4948 C   0  0  0  0  0  0  0  0  0  0  0  0
   -7.5210    0.3158   -0.9675 C   0  0  0  0  0  0  0  0  0  0  0  0
   -6.2593   -0.2764   -0.8236 C   0  0  0  0  0  0  0  0  0  0  0  0
   -6.1648   -1.5153   -1.3410 F   0  0  0  0  0  0  0  0  0  0  0  0
   -5.2239    0.3829   -0.2183 C   0  0  0  0  0  0  0  0  0  0  0  0
   -5.5128    1.6771    0.2404 C   0  0  0  0  0  0  0  0  0  0  0  0
   -3.8995   -0.1719   -0.0099 C   0  0  0  0  0  0  0  0  0  0  0  0
   -3.0028    0.6832    0.3053 O   0  0  0  0  0  0  0  0  0  0  0  0
   -3.4994   -1.5050   -0.1096 N   0  0  0  0  0  0  0  0  0  0  0  0
   -2.1770   -1.9740    0.0936 C   0  0  0  0  0  0  0  0  0  0  0  0
   -2.0382   -3.2922    0.5566 C   0  0  0  0  0  0  0  0  0  0  0  0
   -0.8049   -3.8497    0.7566 C   0  0  0  0  0  0  0  0  0  0  0  0
    0.3246   -3.0583    0.4831 C   0  0  0  0  0  0  0  0  0  0  0  0
    1.5239   -3.6737    0.7038 O   0  0  0  0  0  0  0  0  0  0  0  0
    1.7052   -4.9772    1.1624 C   0  0  0  0  0  0  0  0  0  0  0  0
    0.2446   -1.7750    0.0322 C   0  0  0  0  0  0  0  0  0  0  0  0
   -1.0586   -1.2316   -0.1636 C   0  0  0  0  0  0  0  0  0  0  0  0
    1.3771   -0.9480   -0.2536 C   0  0  0  0  0  0  0  0  0  0  0  0
    1.1278    0.2376   -0.6699 O   0  0  0  0  0  0  0  0  0  0  0  0
    2.7190   -1.2825   -0.1316 N   0  0  0  0  0  0  0  0  0  0  0  0
    3.8397   -0.4244   -0.4151 C   0  0  0  0  0  0  0  0  0  0  0  0
    5.0727   -0.9715   -0.7652 C   0  0  0  0  0  0  0  0  0  0  0  0
    6.1727   -0.1826   -1.0149 C   0  0  0  0  0  0  0  0  0  0  0  0
    6.0984    1.2012   -0.9276 C   0  0  0  0  0  0  0  0  0  0  0  0
    7.1948    2.0149   -1.1756 O   0  0  0  0  0  0  0  0  0  0  0  0
    8.4123    1.3854   -1.5261 C   0  0  0  0  0  0  0  0  0  0  0  0
    4.8900    1.7437   -0.5838 C   0  0  0  0  0  0  0  0  0  0  0  0
    4.8138    3.1325   -0.4957 O   0  0  0  0  0  0  0  0  0  0  0  0
    3.5974    3.7404   -0.1466 C   0  0  0  0  0  0  0  0  0  0  0  0
    3.7677    0.9341   -0.3288 C   0  0  0  0  0  0  0  0  0  0  0  0
   -5.0346    4.2636    0.5888 H   0  0  0  0  0  0  0  0  0  0  0  0
   -5.7245    3.7888    2.1738 H   0  0  0  0  0  0  0  0  0  0  0  0
   -6.2503    5.3184    1.4494 H   0  0  0  0  0  0  0  0  0  0  0  0
   -8.7245    2.0279   -0.6174 H   0  0  0  0  0  0  0  0  0  0  0  0
   -8.3148   -0.2256   -1.4460 H   0  0  0  0  0  0  0  0  0  0  0  0
   -4.7294    2.2514    0.7300 H   0  0  0  0  0  0  0  0  0  0  0  0
   -4.2273   -2.2343   -0.3490 H   0  0  0  0  0  0  0  0  0  0  0  0
   -2.9633   -3.8247    0.7422 H   0  0  0  0  0  0  0  0  0  0  0  0
   -0.7217   -4.8571    1.1101 H   0  0  0  0  0  0  0  0  0  0  0  0
    1.4886   -5.7468    0.3913 H   0  0  0  0  0  0  0  0  0  0  0  0
    1.0538   -5.2248    2.0390 H   0  0  0  0  0  0  0  0  0  0  0  0
    2.7413   -5.1671    1.5099 H   0  0  0  0  0  0  0  0  0  0  0  0
   -1.1031   -0.2372   -0.5332 H   0  0  0  0  0  0  0  0  0  0  0  0
    3.0578   -2.2458    0.2004 H   0  0  0  0  0  0  0  0  0  0  0  0
    5.1571   -2.0331   -0.8392 H   0  0  0  0  0  0  0  0  0  0  0  0
    7.1381   -0.6176   -1.2893 H   0  0  0  0  0  0  0  0  0  0  0  0
    8.6628    0.6438   -0.7176 H   0  0  0  0  0  0  0  0  0  0  0  0
    9.2003    2.1398   -1.6554 H   0  0  0  0  0  0  0  0  0  0  0  0
    8.2889    0.7870   -2.4589 H   0  0  0  0  0  0  0  0  0  0  0  0
    2.7845    3.4481   -0.8492 H   0  0  0  0  0  0  0  0  0  0  0  0
    3.3108    3.3280    0.8576 H   0  0  0  0  0  0  0  0  0  0  0  0
    3.7060    4.8341   -0.1180 H   0  0  0  0  0  0  0  0  0  0  0  0
    2.8972    1.5067   -0.0534 H   0  0  0  0  0  0  0  0  0  0  0  0
  1  2  1  0
  2  3  1  0
  3  4  2  0
  4  5  1  0
  5  6  2  0
  6  7  1  0
  6  8  1  0
  8  9  2  0
  8 10  1  0
 10 11  2  0
 10 12  1  0
 12 13  1  0
 13 14  2  0
 14 15  1  0
 15 16  2  0
 16 17  1  0
 17 18  1  0
 16 19  1  0
 19 20  2  0
 19 21  1  0
 21 22  2  0
 21 23  1  0
 23 24  1  0
 24 25  2  0
 25 26  1  0
 26 27  2  0
 27 28  1  0
 28 29  1  0
 27 30  1  0
 30 31  1  0
 31 32  1  0
 30 33  2  0
  9  3  1  0
 20 13  1  0
 33 24  1  0
  1 34  1  0
  1 35  1  0
  1 36  1  0
  4 37  1  0
  5 38  1  0
  9 39  1  0
 12 40  1  0
 14 41  1  0
 15 42  1  0
 18 43  1  0
 18 44  1  0
 18 45  1  0
 20 46  1  0
 23 47  1  0
 25 48  1  0
 26 49  1  0
 29 50  1  0
 29 51  1  0
 29 52  1  0
 32 53  1  0
 32 54  1  0
 32 55  1  0
 33 56  1  0
M  END
$$$$
[H]O[C@]1([H])[C@@]([H])(C([H])([H])OP(=O)(O[H])O[H])O[C@@]([H])(n2c([H])nc3c(N([H])[H])nc([H])nc32)[C@]1([H])O[H]
     RDKit          3D

 37 39  0  0  0  0  0  0  0  0999 V2000
   -6.0211    1.9756    0.8594 N   0  0  0  0  0  0  0  0  0  0  0  0
   -5.0748    1.2538    0.0905 C   0  0  0  0  0  0  0  0  0  0  0  0
   -5.2578    0.8694   -1.1829 N   0  0  0  0  0  0  0  0  0  0  0  0
   -4.3488    0.1843   -1.8990 C   0  0  0  0  0  0  0  0  0  0  0  0
   -3.1811   -0.1473   -1.3304 N   0  0  0  0  0  0  0  0  0  0  0  0
   -2.9234    0.1947   -0.0778 C   0  0  0  0  0  0  0  0  0  0  0  0
   -1.8353   -0.0201    0.7075 N   0  0  0  0  0  0  0  0  0  0  0  0
   -2.1271    0.5505    1.8894 C   0  0  0  0  0  0  0  0  0  0  0  0
   -3.3371    1.1003    1.8596 N   0  0  0  0  0  0  0  0  0  0  0  0
   -3.8640    0.8989    0.6504 C   0  0  0  0  0  0  0  0  0  0  0  0
   -0.6097   -0.6937    0.4210 C   0  0  2  0  0  0  0  0  0  0  0  0
    0.4598   -0.0503    1.0874 O   0  0  0  0  0  0  0  0  0  0  0  0
    1.5661   -0.6828    0.5295 C   0  0  2  0  0  0  0  0  0  0  0  0
    2.8486    0.0646    0.8258 C   0  0  0  0  0  0  0  0  0  0  0  0
    3.9454   -0.5778    0.2633 O   0  0  0  0  0  0  0  0  0  0  0  0
    5.3855    0.2125    0.5649 P   0  0  0  0  0  0  0  0  0  0  0  0
    6.5219   -0.9206    1.1082 O   0  0  0  0  0  0  0  0  0  0  0  0
    5.9767    1.0314   -0.8005 O   0  0  0  0  0  0  0  0  0  0  0  0
    5.1458    1.2045    1.6953 O   0  0  0  0  0  0  0  0  0  0  0  0
    1.2859   -0.5111   -0.9565 C   0  0  1  0  0  0  0  0  0  0  0  0
    1.9509   -1.4725   -1.7109 O   0  0  0  0  0  0  0  0  0  0  0  0
   -0.2265   -0.7010   -1.0267 C   0  0  1  0  0  0  0  0  0  0  0  0
   -0.5054   -1.9497   -1.5787 O   0  0  0  0  0  0  0  0  0  0  0  0
   -5.7942    2.8708    1.2960 H   0  0  0  0  0  0  0  0  0  0  0  0
   -6.9716    1.5626    0.9701 H   0  0  0  0  0  0  0  0  0  0  0  0
   -4.5862   -0.0873   -2.9349 H   0  0  0  0  0  0  0  0  0  0  0  0
   -1.4686    0.5659    2.7594 H   0  0  0  0  0  0  0  0  0  0  0  0
   -0.5812   -1.7492    0.8005 H   0  0  0  0  0  0  0  0  0  0  0  0
    1.6094   -1.7330    0.8212 H   0  0  0  0  0  0  0  0  0  0  0  0
    2.8347    1.0906    0.4598 H   0  0  0  0  0  0  0  0  0  0  0  0
    3.0194    0.0832    1.9260 H   0  0  0  0  0  0  0  0  0  0  0  0
    6.3982   -1.8059    0.7185 H   0  0  0  0  0  0  0  0  0  0  0  0
    6.6715    0.5339   -1.2724 H   0  0  0  0  0  0  0  0  0  0  0  0
    1.5778    0.5232   -1.2172 H   0  0  0  0  0  0  0  0  0  0  0  0
    1.9513   -1.1771   -2.6417 H   0  0  0  0  0  0  0  0  0  0  0  0
   -0.6194    0.1289   -1.6139 H   0  0  0  0  0  0  0  0  0  0  0  0
    0.1847   -2.6206   -1.3308 H   0  0  0  0  0  0  0  0  0  0  0  0
  1  2  1  0
  2  3  2  0
  3  4  1  0
  4  5  2  0
  5  6  1  0
  6  7  1  0
  7  8  1  0
  8  9  2  0
  9 10  1  0
  7 11  1  0
 11 12  1  0
 12 13  1  0
 13 14  1  0
 14 15  1  0
 15 16  1  0
 16 17  1  0
 16 18  1  0
 16 19  2  0
 13 20  1  0
 20 21  1  0
 20 22  1  0
 22 23  1  0
 10  2  1  0
 22 11  1  0
 10  6  2  0
  1 24  1  0
  1 25  1  0
  4 26  1  0
  8 27  1  0
 11 28  1  1
 13 29  1  6
 14 30  1  0
 14 31  1  0
 17 32  1  0
 18 33  1  0
 20 34  1  6
 21 35  1  0
 22 36  1  6
 23 37  1  0
M  END
$$$$
[H]c1c([H])c([H])c(C(=O)[C@@]([H])(N([H])C(=O)[C@@]([H])(N([H])C(=O)[C@@]2([H])N(C(=O)[C@]([H])(N([H])C(=O)OC([H])([H])c3c([H])c([H])c([H])c([H])c3[H])C([H])([H])c3c([H])c([H])c([H])c([H])c3[H])C([H])([H])C([H])([H])C2([H])[H])C([H])([H])[H])C([H])([H])C([H])([H])C([H])([H])N=C(N([H])[H])N([H])[H])c([H])c1[H]
     RDKit          3D

 95 98  0  0  0  0  0  0  0  0999 V2000
   -2.0614   -1.5860    1.6784 C   0  0  0  0  0  0  0  0  0  0  0  0
   -1.8798   -0.7622    0.4549 C   0  0  2  0  0  0  0  0  0  0  0  0
   -0.6279   -0.0439    0.4495 N   0  0  0  0  0  0  0  0  0  0  0  0
    0.2701    0.0443   -0.6424 C   0  0  0  0  0  0  0  0  0  0  0  0
    0.0001   -0.5130   -1.7181 O   0  0  0  0  0  0  0  0  0  0  0  0
    1.5130    0.8078   -0.4558 C   0  0  2  0  0  0  0  0  0  0  0  0
    1.1189    2.2326   -0.0479 C   0  0  0  0  0  0  0  0  0  0  0  0
    0.6759    2.8138   -1.3688 C   0  0  0  0  0  0  0  0  0  0  0  0
    1.4985    2.0943   -2.3885 C   0  0  0  0  0  0  0  0  0  0  0  0
    2.2703    1.0799   -1.6449 N   0  0  0  0  0  0  0  0  0  0  0  0
    3.4981    0.5691   -2.1254 C   0  0  0  0  0  0  0  0  0  0  0  0
    3.9682    1.0449   -3.2046 O   0  0  0  0  0  0  0  0  0  0  0  0
    4.3109   -0.4887   -1.4782 C   0  0  1  0  0  0  0  0  0  0  0  0
    3.6177   -1.8412   -1.6619 C   0  0  0  0  0  0  0  0  0  0  0  0
    4.3685   -2.9559   -1.0589 C   0  0  0  0  0  0  0  0  0  0  0  0
    5.2885   -3.6317   -1.8288 C   0  0  0  0  0  0  0  0  0  0  0  0
    6.0027   -4.6876   -1.2917 C   0  0  0  0  0  0  0  0  0  0  0  0
    5.8273   -5.0956    0.0028 C   0  0  0  0  0  0  0  0  0  0  0  0
    4.9050   -4.4108    0.7588 C   0  0  0  0  0  0  0  0  0  0  0  0
    4.1881   -3.3680    0.2546 C   0  0  0  0  0  0  0  0  0  0  0  0
    5.6176   -0.5885   -2.0907 N   0  0  0  0  0  0  0  0  0  0  0  0
    6.7710   -0.5515   -1.2897 C   0  0  0  0  0  0  0  0  0  0  0  0
    6.6828   -0.4390   -0.0227 O   0  0  0  0  0  0  0  0  0  0  0  0
    8.0271   -0.6361   -1.8522 O   0  0  0  0  0  0  0  0  0  0  0  0
    9.2088   -0.6106   -1.0988 C   0  0  0  0  0  0  0  0  0  0  0  0
    9.3424    0.6343   -0.3309 C   0  0  0  0  0  0  0  0  0  0  0  0
   10.1754    0.6895    0.7876 C   0  0  0  0  0  0  0  0  0  0  0  0
   10.3186    1.8595    1.5218 C   0  0  0  0  0  0  0  0  0  0  0  0
    9.6389    2.9994    1.1634 C   0  0  0  0  0  0  0  0  0  0  0  0
    8.8156    2.9420    0.0571 C   0  0  0  0  0  0  0  0  0  0  0  0
    8.6796    1.7767   -0.6656 C   0  0  0  0  0  0  0  0  0  0  0  0
   -3.0248    0.1727    0.1784 C   0  0  0  0  0  0  0  0  0  0  0  0
   -2.8431    1.0866   -0.6570 O   0  0  0  0  0  0  0  0  0  0  0  0
   -4.2578    0.0525    0.8135 N   0  0  0  0  0  0  0  0  0  0  0  0
   -5.3891    0.9528    0.5370 C   0  0  1  0  0  0  0  0  0  0  0  0
   -6.6050    0.1187    0.3084 C   0  0  0  0  0  0  0  0  0  0  0  0
   -6.9936   -0.7518    1.4829 C   0  0  0  0  0  0  0  0  0  0  0  0
   -8.2426   -1.5516    1.0665 C   0  0  0  0  0  0  0  0  0  0  0  0
   -7.8517   -2.3282   -0.0696 N   0  0  0  0  0  0  0  0  0  0  0  0
   -8.4175   -3.4019   -0.4530 C   0  0  0  0  0  0  0  0  0  0  0  0
   -7.9457   -4.0934   -1.5967 N   0  0  0  0  0  0  0  0  0  0  0  0
   -9.5215   -3.9174    0.2536 N   0  0  0  0  0  0  0  0  0  0  0  0
   -5.4978    1.9882    1.5617 C   0  0  0  0  0  0  0  0  0  0  0  0
   -4.7403    1.8623    2.5859 O   0  0  0  0  0  0  0  0  0  0  0  0
   -6.3700    3.1485    1.5446 C   0  0  0  0  0  0  0  0  0  0  0  0
   -7.1789    3.4726    0.4906 C   0  0  0  0  0  0  0  0  0  0  0  0
   -7.9785    4.5891    0.5381 C   0  0  0  0  0  0  0  0  0  0  0  0
   -7.9890    5.4118    1.6443 C   0  0  0  0  0  0  0  0  0  0  0  0
   -7.1919    5.1255    2.7280 C   0  0  0  0  0  0  0  0  0  0  0  0
   -6.4072    4.0068    2.6495 C   0  0  0  0  0  0  0  0  0  0  0  0
   -2.6975   -1.1680    2.4648 H   0  0  0  0  0  0  0  0  0  0  0  0
   -1.0563   -1.7994    2.1498 H   0  0  0  0  0  0  0  0  0  0  0  0
   -2.4526   -2.6227    1.4570 H   0  0  0  0  0  0  0  0  0  0  0  0
   -1.7999   -1.4743   -0.4346 H   0  0  0  0  0  0  0  0  0  0  0  0
   -0.3597    0.4621    1.3518 H   0  0  0  0  0  0  0  0  0  0  0  0
    2.1560    0.3558    0.3478 H   0  0  0  0  0  0  0  0  0  0  0  0
    0.3425    2.2501    0.7155 H   0  0  0  0  0  0  0  0  0  0  0  0
    2.0504    2.7558    0.3207 H   0  0  0  0  0  0  0  0  0  0  0  0
   -0.4178    2.5802   -1.4645 H   0  0  0  0  0  0  0  0  0  0  0  0
    0.8052    3.9171   -1.3991 H   0  0  0  0  0  0  0  0  0  0  0  0
    0.8685    1.6011   -3.1630 H   0  0  0  0  0  0  0  0  0  0  0  0
    2.1896    2.8258   -2.8733 H   0  0  0  0  0  0  0  0  0  0  0  0
    4.4310   -0.2457   -0.4185 H   0  0  0  0  0  0  0  0  0  0  0  0
    2.5946   -1.8468   -1.2892 H   0  0  0  0  0  0  0  0  0  0  0  0
    3.5836   -2.0162   -2.7561 H   0  0  0  0  0  0  0  0  0  0  0  0
    5.4833   -3.3636   -2.8728 H   0  0  0  0  0  0  0  0  0  0  0  0
    6.7327   -5.2366   -1.8733 H   0  0  0  0  0  0  0  0  0  0  0  0
    6.3786   -5.9255    0.4417 H   0  0  0  0  0  0  0  0  0  0  0  0
    4.7360   -4.7081    1.8010 H   0  0  0  0  0  0  0  0  0  0  0  0
    3.4513   -2.8278    0.8719 H   0  0  0  0  0  0  0  0  0  0  0  0
    5.6918   -0.6871   -3.1132 H   0  0  0  0  0  0  0  0  0  0  0  0
   10.1117   -0.7004   -1.7627 H   0  0  0  0  0  0  0  0  0  0  0  0
    9.2887   -1.5064   -0.4199 H   0  0  0  0  0  0  0  0  0  0  0  0
   10.7157   -0.1812    1.0879 H   0  0  0  0  0  0  0  0  0  0  0  0
   10.9757    1.8790    2.3950 H   0  0  0  0  0  0  0  0  0  0  0  0
    9.7530    3.9187    1.7437 H   0  0  0  0  0  0  0  0  0  0  0  0
    8.2854    3.8265   -0.2253 H   0  0  0  0  0  0  0  0  0  0  0  0
    8.0001    1.8333   -1.5302 H   0  0  0  0  0  0  0  0  0  0  0  0
   -4.4244   -0.6810    1.5116 H   0  0  0  0  0  0  0  0  0  0  0  0
   -5.1149    1.4694   -0.4069 H   0  0  0  0  0  0  0  0  0  0  0  0
   -6.3811   -0.6203   -0.5247 H   0  0  0  0  0  0  0  0  0  0  0  0
   -7.4933    0.6448   -0.0138 H   0  0  0  0  0  0  0  0  0  0  0  0
   -7.2947   -0.1742    2.3724 H   0  0  0  0  0  0  0  0  0  0  0  0
   -6.2557   -1.4926    1.7764 H   0  0  0  0  0  0  0  0  0  0  0  0
   -8.5586   -2.1947    1.9173 H   0  0  0  0  0  0  0  0  0  0  0  0
   -9.0821   -0.8635    0.8473 H   0  0  0  0  0  0  0  0  0  0  0  0
   -6.9324   -4.3793   -1.6626 H   0  0  0  0  0  0  0  0  0  0  0  0
   -8.5706   -4.3363   -2.3912 H   0  0  0  0  0  0  0  0  0  0  0  0
  -10.4668   -3.9293   -0.2207 H   0  0  0  0  0  0  0  0  0  0  0  0
   -9.4214   -4.2758    1.2092 H   0  0  0  0  0  0  0  0  0  0  0  0
   -7.1997    2.8701   -0.4123 H   0  0  0  0  0  0  0  0  0  0  0  0
   -8.6315    4.8568   -0.3144 H   0  0  0  0  0  0  0  0  0  0  0  0
   -8.6287    6.3061    1.6829 H   0  0  0  0  0  0  0  0  0  0  0  0
   -7.1943    5.7761    3.6165 H   0  0  0  0  0  0  0  0  0  0  0  0
   -5.7758    3.8069    3.5303 H   0  0  0  0  0  0  0  0  0  0  0  0
  1  2  1  0
  2  3  1  0
  3  4  1  0
  4  5  2  0
  4  6  1  0
  6  7  1  0
  7  8  1  0
  8  9  1  0
  9 10  1  0
 10 11  1  0
 11 12  2  0
 11 13  1  0
 13 14  1  0
 14 15  1  0
 15 16  2  0
 16 17  1  0
 17 18  2  0
 18 19  1  0
 19 20  2  0
 13 21  1  0
 21 22  1  0
 22 23  2  0
 22 24  1  0
 24 25  1  0
 25 26  1  0
 26 27  2  0
 27 28  1  0
 28 29  2  0
 29 30  1  0
 30 31  2  0
  2 32  1  0
 32 33  2  0
 32 34  1  0
 34 35  1  0
 35 36  1  0
 36 37  1  0
 37 38  1  0
 38 39  1  0
 39 40  2  3
 40 41  1  0
 40 42  1  0
 35 43  1  0
 43 44  2  0
 43 45  1  0
 45 46  2  0
 46 47  1  0
 47 48  2  0
 48 49  1  0
 49 50  2  0
 10  6  1  0
 20 15  1  0
 31 26  1  0
 50 45  1  0
  1 51  1  0
  1 52  1  0
  1 53  1  0
  2 54  1  6
  3 55  1  0
  6 56  1  1
  7 57  1  0
  7 58  1  0
  8 59  1  0
  8 60  1  0
  9 61  1  0
  9 62  1  0
 13 63  1  1
 14 64  1  0
 14 65  1  0
 16 66  1  0
 17 67  1  0
 18 68  1  0
 19 69  1  0
 20 70  1  0
 21 71  1  0
 25 72  1  0
 25 73  1  0
 27 74  1  0
 28 75  1  0
 29 76  1  0
 30 77  1  0
 31 78  1  0
 34 79  1  0
 35 80  1  6
 36 81  1  0
 36 82  1  0
 37 83  1  0
 37 84  1  0
 38 85  1  0
 38 86  1  0
 41 87  1  0
 41 88  1  0
 42 89  1  0
 42 90  1  0
 46 91  1  0
 47 92  1  0
 48 93  1  0
 49 94  1  0
 50 95  1  0
M  END
$$$$
[H]OC([H])([H])[C@@]1([H])O[C@@]([H])(O[H])[C@@]([H])(O[H])[C@@]([H])(O[H])[C@]1([H])O[H]
     RDKit          3D

 24 24  0  0  0  0  0  0  0  0999 V2000
    3.2279    0.1282   -0.5157 O   0  0  0  0  0  0  0  0  0  0  0  0
    2.1897    1.0439   -0.5389 C   0  0  0  0  0  0  0  0  0  0  0  0
    0.9316    0.5128    0.1110 C   0  0  1  0  0  0  0  0  0  0  0  0
   -0.0299    1.4840    0.0386 O   0  0  0  0  0  0  0  0  0  0  0  0
   -1.2337    1.1511    0.6293 C   0  0  1  0  0  0  0  0  0  0  0  0
   -2.0939    2.2350    0.5407 O   0  0  0  0  0  0  0  0  0  0  0  0
   -1.7796   -0.0594   -0.1259 C   0  0  1  0  0  0  0  0  0  0  0  0
   -1.6018    0.1872   -1.4844 O   0  0  0  0  0  0  0  0  0  0  0  0
   -0.7983   -1.1826    0.2296 C   0  0  1  0  0  0  0  0  0  0  0  0
   -1.2563   -2.4175   -0.1192 O   0  0  0  0  0  0  0  0  0  0  0  0
    0.4967   -0.8010   -0.4993 C   0  0  2  0  0  0  0  0  0  0  0  0
    1.4061   -1.7930   -0.2433 O   0  0  0  0  0  0  0  0  0  0  0  0
    3.3793   -0.2533    0.3970 H   0  0  0  0  0  0  0  0  0  0  0  0
    2.0134    1.3086   -1.6023 H   0  0  0  0  0  0  0  0  0  0  0  0
    2.4877    1.9817   -0.0284 H   0  0  0  0  0  0  0  0  0  0  0  0
    1.1538    0.3187    1.1793 H   0  0  0  0  0  0  0  0  0  0  0  0
   -1.0745    0.9099    1.6979 H   0  0  0  0  0  0  0  0  0  0  0  0
   -1.8365    2.8788    1.2457 H   0  0  0  0  0  0  0  0  0  0  0  0
   -2.8063   -0.2998    0.1454 H   0  0  0  0  0  0  0  0  0  0  0  0
   -2.2931   -0.2317   -2.0509 H   0  0  0  0  0  0  0  0  0  0  0  0
   -0.5587   -1.0728    1.3154 H   0  0  0  0  0  0  0  0  0  0  0  0
   -1.3579   -2.9625    0.7231 H   0  0  0  0  0  0  0  0  0  0  0  0
    0.2640   -0.7087   -1.5719 H   0  0  0  0  0  0  0  0  0  0  0  0
    1.1704   -2.3573    0.5271 H   0  0  0  0  0  0  0  0  0  0  0  0
  1  2  1  0
  2  3  1  0
  3  4  1  0
  4  5  1  0
  5  6  1  0
  5  7  1  0
  7  8  1  0
  7  9  1  0
  9 10  1  0
  9 11  1  0
 11 12  1  0
 11  3  1  0
  1 13  1  0
  2 14  1  0
  2 15  1  0
  3 16  1  1
  5 17  1  1
  6 18  1  0
  7 19  1  6
  8 20  1  0
  9 21  1  1
 10 22  1  0
 11 23  1  6
 12 24  1  0
M  END
$$$$
[H]c1c(C(=O)N([H])c2c([H])c([H])c(C(F)(F)F)c([H])c2[H])nc(C(F)(F)F)nc1N1C([H])([H])C([H])([H])N(C(C([H])([H])[H])(C([H])([H])[H])C([H])([H])[H])C([H])([H])[C@@]1([H])C([H])([H])[H]
     RDKit          3D

 59 61  0  0  0  0  0  0  0  0999 V2000
   -1.8460   -1.7825    1.7260 C   0  0  0  0  0  0  0  0  0  0  0  0
   -1.9654   -0.3814    1.1360 C   0  0  2  0  0  0  0  0  0  0  0  0
   -3.2924    0.1815    1.5790 C   0  0  0  0  0  0  0  0  0  0  0  0
   -4.4206   -0.2561    0.8555 N   0  0  0  0  0  0  0  0  0  0  0  0
   -4.2322   -1.0540   -0.2678 C   0  0  0  0  0  0  0  0  0  0  0  0
   -3.0790   -0.5136   -1.0775 C   0  0  0  0  0  0  0  0  0  0  0  0
   -1.8841   -0.3521   -0.2828 N   0  0  0  0  0  0  0  0  0  0  0  0
   -0.6575   -0.1808   -0.9759 C   0  0  0  0  0  0  0  0  0  0  0  0
    0.5726   -0.2432   -0.3273 C   0  0  0  0  0  0  0  0  0  0  0  0
    1.7733   -0.0716   -0.9732 C   0  0  0  0  0  0  0  0  0  0  0  0
    1.7232    0.1699   -2.3056 N   0  0  0  0  0  0  0  0  0  0  0  0
    0.5562    0.2376   -2.9672 C   0  0  0  0  0  0  0  0  0  0  0  0
   -0.6010    0.0647   -2.3083 N   0  0  0  0  0  0  0  0  0  0  0  0
    0.5467    0.5008   -4.4231 C   0  0  0  0  0  0  0  0  0  0  0  0
    1.2472   -0.4906   -5.1205 F   0  0  0  0  0  0  0  0  0  0  0  0
   -0.7428    0.4446   -4.9405 F   0  0  0  0  0  0  0  0  0  0  0  0
    1.0908    1.7102   -4.7667 F   0  0  0  0  0  0  0  0  0  0  0  0
    3.0571   -0.1691   -0.2463 C   0  0  0  0  0  0  0  0  0  0  0  0
    3.0185   -0.4487    0.9463 O   0  0  0  0  0  0  0  0  0  0  0  0
    4.2250    0.0644   -0.9782 N   0  0  0  0  0  0  0  0  0  0  0  0
    5.5115   -0.0176   -0.4175 C   0  0  0  0  0  0  0  0  0  0  0  0
    6.5620    0.7265   -0.9739 C   0  0  0  0  0  0  0  0  0  0  0  0
    7.8539    0.6693   -0.5107 C   0  0  0  0  0  0  0  0  0  0  0  0
    8.1721   -0.1444    0.5466 C   0  0  0  0  0  0  0  0  0  0  0  0
    7.1712   -0.8938    1.1247 C   0  0  0  0  0  0  0  0  0  0  0  0
    5.8524   -0.8213    0.6353 C   0  0  0  0  0  0  0  0  0  0  0  0
    9.5339   -0.2909    1.1217 C   0  0  0  0  0  0  0  0  0  0  0  0
    9.4957    0.0717    2.4347 F   0  0  0  0  0  0  0  0  0  0  0  0
    9.8128   -1.6633    1.0532 F   0  0  0  0  0  0  0  0  0  0  0  0
   10.4753    0.4019    0.3973 F   0  0  0  0  0  0  0  0  0  0  0  0
   -5.6127    0.4822    1.0139 C   0  0  0  0  0  0  0  0  0  0  0  0
   -5.4206    1.9058    0.5195 C   0  0  0  0  0  0  0  0  0  0  0  0
   -5.9887    0.5044    2.4837 C   0  0  0  0  0  0  0  0  0  0  0  0
   -6.7433   -0.1938    0.2756 C   0  0  0  0  0  0  0  0  0  0  0  0
   -0.8518   -1.9370    2.2144 H   0  0  0  0  0  0  0  0  0  0  0  0
   -2.5878   -1.9125    2.5411 H   0  0  0  0  0  0  0  0  0  0  0  0
   -1.9121   -2.5749    0.9476 H   0  0  0  0  0  0  0  0  0  0  0  0
   -1.1436    0.2098    1.6211 H   0  0  0  0  0  0  0  0  0  0  0  0
   -3.2392    1.2918    1.5270 H   0  0  0  0  0  0  0  0  0  0  0  0
   -3.4239   -0.0433    2.6797 H   0  0  0  0  0  0  0  0  0  0  0  0
   -5.1127   -1.0238   -0.9375 H   0  0  0  0  0  0  0  0  0  0  0  0
   -4.0255   -2.1300   -0.0935 H   0  0  0  0  0  0  0  0  0  0  0  0
   -3.3069    0.4626   -1.5437 H   0  0  0  0  0  0  0  0  0  0  0  0
   -2.8020   -1.1922   -1.9122 H   0  0  0  0  0  0  0  0  0  0  0  0
    0.5566   -0.4368    0.7275 H   0  0  0  0  0  0  0  0  0  0  0  0
    4.1971    0.3168   -2.0128 H   0  0  0  0  0  0  0  0  0  0  0  0
    6.2914    1.3692   -1.8126 H   0  0  0  0  0  0  0  0  0  0  0  0
    8.6505    1.2584   -0.9571 H   0  0  0  0  0  0  0  0  0  0  0  0
    7.3922   -1.5489    1.9648 H   0  0  0  0  0  0  0  0  0  0  0  0
    5.1004   -1.4409    1.1116 H   0  0  0  0  0  0  0  0  0  0  0  0
   -5.2645    2.5416    1.4247 H   0  0  0  0  0  0  0  0  0  0  0  0
   -6.3259    2.2371   -0.0238 H   0  0  0  0  0  0  0  0  0  0  0  0
   -4.4996    1.9740   -0.1227 H   0  0  0  0  0  0  0  0  0  0  0  0
   -5.4946    1.3606    2.9491 H   0  0  0  0  0  0  0  0  0  0  0  0
   -5.7019   -0.4442    2.9419 H   0  0  0  0  0  0  0  0  0  0  0  0
   -7.0903    0.6591    2.5135 H   0  0  0  0  0  0  0  0  0  0  0  0
   -6.6746   -1.2988    0.3236 H   0  0  0  0  0  0  0  0  0  0  0  0
   -6.7669    0.1344   -0.8032 H   0  0  0  0  0  0  0  0  0  0  0  0
   -7.7294    0.0523    0.7454 H   0  0  0  0  0  0  0  0  0  0  0  0
  1  2  1  0
  2  3  1  0
  3  4  1  0
  4  5  1  0
  5  6  1  0
  6  7  1  0
  7  8  1  0
  8  9  2  0
  9 10  1  0
 10 11  2  0
 11 12  1  0
 12 13  2  0
 12 14  1  0
 14 15  1  0
 14 16  1  0
 14 17  1  0
 10 18  1  0
 18 19  2  0
 18 20  1  0
 20 21  1  0
 21 22  2  0
 22 23  1  0
 23 24  2  0
 24 25  1  0
 25 26  2  0
 24 27  1  0
 27 28  1  0
 27 29  1  0
 27 30  1  0
  4 31  1  0
 31 32  1  0
 31 33  1  0
 31 34  1  0
  7  2  1  0
 13  8  1  0
 26 21  1  0
  1 35  1  0
  1 36  1  0
  1 37  1  0
  2 38  1  1
  3 39  1  0
  3 40  1  0
  5 41  1  0
  5 42  1  0
  6 43  1  0
  6 44  1  0
  9 45  1  0
 20 46  1  0
 22 47  1  0
 23 48  1  0
 25 49  1  0
 26 50  1  0
 32 51  1  0
 32 52  1  0
 32 53  1  0
 33 54  1  0
 33 55  1  0
 33 56  1  0
 34 57  1  0
 34 58  1  0
 34 59  1  0
M  END
$$$$
[H]c1c([H])c(Cl)c([H])c(N2C([H])([H])C([H])([H])N(c3c([H])c([H])c(C#N)c([H])c3[H])C([H])([H])[C@@]2([H])C([H])([H])[H])c1[H]
     RDKit          3D

 40 42  0  0  0  0  0  0  0  0999 V2000
    1.0571   -1.0946   -1.7249 C   0  0  0  0  0  0  0  0  0  0  0  0
    0.9464   -0.9399   -0.2259 C   0  0  2  0  0  0  0  0  0  0  0  0
   -0.4794   -1.1397    0.1813 C   0  0  0  0  0  0  0  0  0  0  0  0
   -1.2742    0.0279    0.2997 N   0  0  0  0  0  0  0  0  0  0  0  0
   -0.6995    1.3230    0.4039 C   0  0  0  0  0  0  0  0  0  0  0  0
    0.7595    1.3980    0.6468 C   0  0  0  0  0  0  0  0  0  0  0  0
    1.5338    0.2662    0.2476 N   0  0  0  0  0  0  0  0  0  0  0  0
    2.9471    0.3589    0.3281 C   0  0  0  0  0  0  0  0  0  0  0  0
    3.5803    1.4985    0.8371 C   0  0  0  0  0  0  0  0  0  0  0  0
    4.9533    1.5789    0.9087 C   0  0  0  0  0  0  0  0  0  0  0  0
    5.7662    0.5568    0.4895 C   0  0  0  0  0  0  0  0  0  0  0  0
    5.1433   -0.5786   -0.0173 C   0  0  0  0  0  0  0  0  0  0  0  0
    6.1590   -1.9133   -0.5659 Cl  0  0  0  0  0  0  0  0  0  0  0  0
    3.7673   -0.6617   -0.0903 C   0  0  0  0  0  0  0  0  0  0  0  0
   -2.6902   -0.1026    0.3188 C   0  0  0  0  0  0  0  0  0  0  0  0
   -3.2860   -1.3250    0.3211 C   0  0  0  0  0  0  0  0  0  0  0  0
   -4.6536   -1.4659    0.3359 C   0  0  0  0  0  0  0  0  0  0  0  0
   -5.4771   -0.3652    0.3491 C   0  0  0  0  0  0  0  0  0  0  0  0
   -4.8975    0.8812    0.3471 C   0  0  0  0  0  0  0  0  0  0  0  0
   -3.5252    1.0110    0.3321 C   0  0  0  0  0  0  0  0  0  0  0  0
   -6.9079   -0.5232    0.3646 C   0  0  0  0  0  0  0  0  0  0  0  0
   -8.0664   -0.6565    0.3610 N   0  0  0  0  0  0  0  0  0  0  0  0
    0.0483   -0.8968   -2.1728 H   0  0  0  0  0  0  0  0  0  0  0  0
    1.7312   -0.3289   -2.1840 H   0  0  0  0  0  0  0  0  0  0  0  0
    1.3345   -2.1161   -2.0323 H   0  0  0  0  0  0  0  0  0  0  0  0
    1.5087   -1.8045    0.2367 H   0  0  0  0  0  0  0  0  0  0  0  0
   -0.9626   -1.7975   -0.5987 H   0  0  0  0  0  0  0  0  0  0  0  0
   -0.5835   -1.7234    1.1358 H   0  0  0  0  0  0  0  0  0  0  0  0
   -1.2354    1.9435    1.1841 H   0  0  0  0  0  0  0  0  0  0  0  0
   -0.9114    1.8734   -0.5586 H   0  0  0  0  0  0  0  0  0  0  0  0
    1.2284    2.3037    0.1587 H   0  0  0  0  0  0  0  0  0  0  0  0
    0.9612    1.5631    1.7442 H   0  0  0  0  0  0  0  0  0  0  0  0
    2.9832    2.3324    1.1818 H   0  0  0  0  0  0  0  0  0  0  0  0
    5.4132    2.4688    1.3051 H   0  0  0  0  0  0  0  0  0  0  0  0
    6.8545    0.6088    0.5413 H   0  0  0  0  0  0  0  0  0  0  0  0
    3.3825   -1.5929   -0.5035 H   0  0  0  0  0  0  0  0  0  0  0  0
   -2.7145   -2.2433    0.3127 H   0  0  0  0  0  0  0  0  0  0  0  0
   -5.1043   -2.4673    0.3372 H   0  0  0  0  0  0  0  0  0  0  0  0
   -5.5202    1.7662    0.3573 H   0  0  0  0  0  0  0  0  0  0  0  0
   -3.0699    1.9767    0.3291 H   0  0  0  0  0  0  0  0  0  0  0  0
  1  2  1  0
  2  3  1  0
  3  4  1  0
  4  5  1  0
  5  6  1  0
  6  7  1  0
  7  8  1  0
  8  9  2  0
  9 10  1  0
 10 11  2  0
 11 12  1  0
 12 13  1  0
 12 14  2  0
  4 15  1  0
 15 16  2  0
 16 17  1  0
 17 18  2  0
 18 19  1  0
 19 20  2  0
 18 21  1  0
 21 22  3  0
  7  2  1  0
 14  8  1  0
 20 15  1  0
  1 23  1  0
  1 24  1  0
  1 25  1  0
  2 26  1  1
  3 27  1  0
  3 28  1  0
  5 29  1  0
  5 30  1  0
  6 31  1  0
  6 32  1  0
  9 33  1  0
 10 34  1  0
 11 35  1  0
 14 36  1  0
 16 37  1  0
 17 38  1  0
 19 39  1  0
 20 40  1  0
M  END
$$$$
[H]c1c([H])c([H])c(C(=O)[C@@]([H])(N([H])C(=O)[C@@]([H])(N([H])C(=O)[C@@]([H])(N([H])C(=O)OC([H])([H])c2c([H])c([H])c([H])c([H])c2[H])C([H])([H])c2c([H])c([H])c([H])c([H])c2[H])C([H])([H])C([H])(C([H])([H])[H])C([H])([H])[H])C([H])([H])C([H])([H])C([H])([H])N=C(N([H])[H])N([H])[H])c([H])c1[H]
     RDKit          3D

 90 92  0  0  0  0  0  0  0  0999 V2000
   -1.1282   -3.8701   -3.4922 C   0  0  0  0  0  0  0  0  0  0  0  0
   -0.8641   -3.1261   -2.1662 C   0  0  0  0  0  0  0  0  0  0  0  0
    0.3275   -3.7812   -1.5576 C   0  0  0  0  0  0  0  0  0  0  0  0
   -0.7426   -1.6984   -2.5166 C   0  0  0  0  0  0  0  0  0  0  0  0
   -0.4953   -0.7155   -1.4322 C   0  0  2  0  0  0  0  0  0  0  0  0
    0.7197   -0.8964   -0.6804 N   0  0  0  0  0  0  0  0  0  0  0  0
    1.8128    0.0108   -0.7680 C   0  0  0  0  0  0  0  0  0  0  0  0
    1.6606    1.0023   -1.5633 O   0  0  0  0  0  0  0  0  0  0  0  0
    3.0763   -0.0846   -0.0396 C   0  0  2  0  0  0  0  0  0  0  0  0
    2.7721   -0.1549    1.4423 C   0  0  0  0  0  0  0  0  0  0  0  0
    3.9776   -0.2463    2.2890 C   0  0  0  0  0  0  0  0  0  0  0  0
    4.5924    0.8876    2.7612 C   0  0  0  0  0  0  0  0  0  0  0  0
    5.7096    0.7612    3.5437 C   0  0  0  0  0  0  0  0  0  0  0  0
    6.2527   -0.4772    3.8831 C   0  0  0  0  0  0  0  0  0  0  0  0
    5.5903   -1.6019    3.3776 C   0  0  0  0  0  0  0  0  0  0  0  0
    4.4678   -1.5123    2.5902 C   0  0  0  0  0  0  0  0  0  0  0  0
    3.9528    1.0022   -0.3632 N   0  0  0  0  0  0  0  0  0  0  0  0
    5.2677    0.8885   -0.8664 C   0  0  0  0  0  0  0  0  0  0  0  0
    5.7556   -0.2443   -1.0569 O   0  0  0  0  0  0  0  0  0  0  0  0
    6.0364    1.9982   -1.1565 O   0  0  0  0  0  0  0  0  0  0  0  0
    7.3667    1.9097   -1.6623 C   0  0  0  0  0  0  0  0  0  0  0  0
    8.2614    1.2052   -0.7343 C   0  0  0  0  0  0  0  0  0  0  0  0
    9.1303    0.2656   -1.1816 C   0  0  0  0  0  0  0  0  0  0  0  0
    9.9476   -0.3648   -0.2589 C   0  0  0  0  0  0  0  0  0  0  0  0
    9.8974   -0.0609    1.0904 C   0  0  0  0  0  0  0  0  0  0  0  0
    9.0091    0.8885    1.4868 C   0  0  0  0  0  0  0  0  0  0  0  0
    8.1888    1.5284    0.5982 C   0  0  0  0  0  0  0  0  0  0  0  0
   -1.6760   -0.5601   -0.5212 C   0  0  0  0  0  0  0  0  0  0  0  0
   -1.4941   -0.6948    0.7272 O   0  0  0  0  0  0  0  0  0  0  0  0
   -2.9827   -0.2706   -0.9454 N   0  0  0  0  0  0  0  0  0  0  0  0
   -4.1097   -0.1336    0.0079 C   0  0  1  0  0  0  0  0  0  0  0  0
   -4.1060    1.2507    0.5633 C   0  0  0  0  0  0  0  0  0  0  0  0
   -4.2142    2.3934   -0.3571 C   0  0  0  0  0  0  0  0  0  0  0  0
   -5.4960    2.5115   -1.1256 C   0  0  0  0  0  0  0  0  0  0  0  0
   -6.5692    2.6771   -0.1635 N   0  0  0  0  0  0  0  0  0  0  0  0
   -7.2882    3.7216   -0.1131 C   0  0  0  0  0  0  0  0  0  0  0  0
   -7.0424    4.7862   -1.0352 N   0  0  0  0  0  0  0  0  0  0  0  0
   -8.3420    3.9189    0.8205 N   0  0  0  0  0  0  0  0  0  0  0  0
   -5.3189   -0.7171   -0.4874 C   0  0  0  0  0  0  0  0  0  0  0  0
   -5.3331   -1.0532   -1.7381 O   0  0  0  0  0  0  0  0  0  0  0  0
   -6.5563   -1.0063    0.1921 C   0  0  0  0  0  0  0  0  0  0  0  0
   -7.6965   -1.4773   -0.4540 C   0  0  0  0  0  0  0  0  0  0  0  0
   -8.8661   -1.7889    0.1685 C   0  0  0  0  0  0  0  0  0  0  0  0
   -8.9632   -1.6393    1.5337 C   0  0  0  0  0  0  0  0  0  0  0  0
   -7.8713   -1.1817    2.2067 C   0  0  0  0  0  0  0  0  0  0  0  0
   -6.6761   -0.8657    1.5562 C   0  0  0  0  0  0  0  0  0  0  0  0
   -1.3696   -4.9101   -3.2129 H   0  0  0  0  0  0  0  0  0  0  0  0
   -1.9857   -3.4276   -4.0279 H   0  0  0  0  0  0  0  0  0  0  0  0
   -0.1926   -3.8872   -4.0831 H   0  0  0  0  0  0  0  0  0  0  0  0
   -1.7594   -3.3439   -1.5446 H   0  0  0  0  0  0  0  0  0  0  0  0
    0.1874   -3.9560   -0.4478 H   0  0  0  0  0  0  0  0  0  0  0  0
    0.4212   -4.8108   -1.9651 H   0  0  0  0  0  0  0  0  0  0  0  0
    1.3058   -3.2969   -1.7854 H   0  0  0  0  0  0  0  0  0  0  0  0
   -1.6705   -1.3903   -3.0444 H   0  0  0  0  0  0  0  0  0  0  0  0
    0.0683   -1.5696   -3.2676 H   0  0  0  0  0  0  0  0  0  0  0  0
   -0.3724    0.2745   -1.9776 H   0  0  0  0  0  0  0  0  0  0  0  0
    0.8307   -1.6973   -0.0399 H   0  0  0  0  0  0  0  0  0  0  0  0
    3.5825   -1.0324   -0.3191 H   0  0  0  0  0  0  0  0  0  0  0  0
    2.1809   -1.1071    1.5792 H   0  0  0  0  0  0  0  0  0  0  0  0
    2.1060    0.6519    1.8009 H   0  0  0  0  0  0  0  0  0  0  0  0
    4.1866    1.8447    2.5081 H   0  0  0  0  0  0  0  0  0  0  0  0
    6.1991    1.6724    3.9199 H   0  0  0  0  0  0  0  0  0  0  0  0
    7.1224   -0.5180    4.4937 H   0  0  0  0  0  0  0  0  0  0  0  0
    5.9983   -2.5822    3.6295 H   0  0  0  0  0  0  0  0  0  0  0  0
    3.9691   -2.4008    2.2083 H   0  0  0  0  0  0  0  0  0  0  0  0
    3.5465    1.9715   -0.1965 H   0  0  0  0  0  0  0  0  0  0  0  0
    7.7526    2.9184   -1.9271 H   0  0  0  0  0  0  0  0  0  0  0  0
    7.3368    1.3307   -2.6184 H   0  0  0  0  0  0  0  0  0  0  0  0
    9.2138   -0.0142   -2.2233 H   0  0  0  0  0  0  0  0  0  0  0  0
   10.6441   -1.1126   -0.5934 H   0  0  0  0  0  0  0  0  0  0  0  0
   10.5352   -0.5537    1.8119 H   0  0  0  0  0  0  0  0  0  0  0  0
    8.9073    1.1888    2.5393 H   0  0  0  0  0  0  0  0  0  0  0  0
    7.4777    2.2943    0.9318 H   0  0  0  0  0  0  0  0  0  0  0  0
   -3.2752   -0.1332   -1.9384 H   0  0  0  0  0  0  0  0  0  0  0  0
   -3.7290   -0.7662    0.8893 H   0  0  0  0  0  0  0  0  0  0  0  0
   -4.9016    1.3097    1.3625 H   0  0  0  0  0  0  0  0  0  0  0  0
   -3.1593    1.4298    1.1787 H   0  0  0  0  0  0  0  0  0  0  0  0
   -4.1185    3.3792    0.2047 H   0  0  0  0  0  0  0  0  0  0  0  0
   -3.3721    2.4604   -1.0924 H   0  0  0  0  0  0  0  0  0  0  0  0
   -5.6636    1.7478   -1.8794 H   0  0  0  0  0  0  0  0  0  0  0  0
   -5.4927    3.4863   -1.7196 H   0  0  0  0  0  0  0  0  0  0  0  0
   -6.7826    5.7530   -0.6936 H   0  0  0  0  0  0  0  0  0  0  0  0
   -7.1040    4.6783   -2.0686 H   0  0  0  0  0  0  0  0  0  0  0  0
   -8.1912    4.2235    1.7995 H   0  0  0  0  0  0  0  0  0  0  0  0
   -9.3206    3.7516    0.5128 H   0  0  0  0  0  0  0  0  0  0  0  0
   -7.6101   -1.5935   -1.5428 H   0  0  0  0  0  0  0  0  0  0  0  0
   -9.6804   -2.1482   -0.4582 H   0  0  0  0  0  0  0  0  0  0  0  0
   -9.8949   -1.8908    1.9941 H   0  0  0  0  0  0  0  0  0  0  0  0
   -7.9738   -1.0710    3.2896 H   0  0  0  0  0  0  0  0  0  0  0  0
   -5.8935   -0.5373    2.2069 H   0  0  0  0  0  0  0  0  0  0  0  0
  1  2  1  0
  2  3  1  0
  2  4  1  0
  4  5  1  0
  5  6  1  0
  6  7  1  0
  7  8  2  0
  7  9  1  0
  9 10  1  0
 10 11  1  0
 11 12  2  0
 12 13  1  0
 13 14  2  0
 14 15  1  0
 15 16  2  0
  9 17  1  0
 17 18  1  0
 18 19  2  0
 18 20  1  0
 20 21  1  0
 21 22  1  0
 22 23  2  0
 23 24  1  0
 24 25  2  0
 25 26  1  0
 26 27  2  0
  5 28  1  0
 28 29  2  0
 28 30  1  0
 30 31  1  0
 31 32  1  0
 32 33  1  0
 33 34  1  0
 34 35  1  0
 35 36  2  3
 36 37  1  0
 36 38  1  0
 31 39  1  0
 39 40  2  0
 39 41  1  0
 41 42  2  0
 42 43  1  0
 43 44  2  0
 44 45  1  0
 45 46  2  0
 16 11  1  0
 27 22  1  0
 46 41  1  0
  1 47  1  0
  1 48  1  0
  1 49  1  0
  2 50  1  0
  3 51  1  0
  3 52  1  0
  3 53  1  0
  4 54  1  0
  4 55  1  0
  5 56  1  6
  6 57  1  0
  9 58  1  6
 10 59  1  0
 10 60  1  0
 12 61  1  0
 13 62  1  0
 14 63  1  0
 15 64  1  0
 16 65  1  0
 17 66  1  0
 21 67  1  0
 21 68  1  0
 23 69  1  0
 24 70  1  0
 25 71  1  0
 26 72  1  0
 27 73  1  0
 30 74  1  0
 31 75  1  1
 32 76  1  0
 32 77  1  0
 33 78  1  0
 33 79  1  0
 34 80  1  0
 34 81  1  0
 37 82  1  0
 37 83  1  0
 38 84  1  0
 38 85  1  0
 42 86  1  0
 43 87  1  0
 44 88  1  0
 45 89  1  0
 46 90  1  0
M  END
$$$$
[H]c1c([H])c(-c2nc3c([H])c(-c4c([H])c([H])c(S(=O)(=O)N([H])[H])c([H])c4[H])c([H])c([H])c3n2[H])c([H])c([H])c1F
     RDKit          3D

 40 43  0  0  0  0  0  0  0  0999 V2000
   -6.9939    2.6713   -0.0443 N   0  0  0  0  0  0  0  0  0  0  0  0
   -6.8433    1.0171   -0.5216 S   0  0  0  0  0  0  0  0  0  0  0  0
   -7.8169    0.1988    0.2624 O   0  0  0  0  0  0  0  0  0  0  0  0
   -7.0890    0.9398   -1.9924 O   0  0  0  0  0  0  0  0  0  0  0  0
   -5.1932    0.5396   -0.2147 C   0  0  0  0  0  0  0  0  0  0  0  0
   -4.8276    0.0055    1.0148 C   0  0  0  0  0  0  0  0  0  0  0  0
   -3.5328   -0.3729    1.2714 C   0  0  0  0  0  0  0  0  0  0  0  0
   -2.5720   -0.2114    0.2654 C   0  0  0  0  0  0  0  0  0  0  0  0
   -2.9679    0.3250   -0.9520 C   0  0  0  0  0  0  0  0  0  0  0  0
   -4.2663    0.7068   -1.2166 C   0  0  0  0  0  0  0  0  0  0  0  0
   -1.1982   -0.6089    0.5259 C   0  0  0  0  0  0  0  0  0  0  0  0
   -0.9065   -1.6592    1.3604 C   0  0  0  0  0  0  0  0  0  0  0  0
    0.4282   -1.9889    1.5748 C   0  0  0  0  0  0  0  0  0  0  0  0
    1.4535   -1.2983    0.9796 C   0  0  0  0  0  0  0  0  0  0  0  0
    2.8113   -1.4298    1.0352 N   0  0  0  0  0  0  0  0  0  0  0  0
    3.3266   -0.4732    0.2463 C   0  0  0  0  0  0  0  0  0  0  0  0
    2.3141    0.2335   -0.2851 N   0  0  0  0  0  0  0  0  0  0  0  0
    1.1520   -0.2404    0.1393 C   0  0  0  0  0  0  0  0  0  0  0  0
   -0.1728    0.0837   -0.0712 C   0  0  0  0  0  0  0  0  0  0  0  0
    4.7371   -0.1902   -0.0308 C   0  0  0  0  0  0  0  0  0  0  0  0
    5.7092   -0.9658    0.5632 C   0  0  0  0  0  0  0  0  0  0  0  0
    7.0407   -0.7114    0.3133 C   0  0  0  0  0  0  0  0  0  0  0  0
    7.4510    0.3048   -0.5215 C   0  0  0  0  0  0  0  0  0  0  0  0
    8.7492    0.5747   -0.7842 F   0  0  0  0  0  0  0  0  0  0  0  0
    6.4496    1.0681   -1.1046 C   0  0  0  0  0  0  0  0  0  0  0  0
    5.1181    0.8325   -0.8696 C   0  0  0  0  0  0  0  0  0  0  0  0
   -6.4775    3.3204   -0.6632 H   0  0  0  0  0  0  0  0  0  0  0  0
   -6.6962    2.7527    0.9691 H   0  0  0  0  0  0  0  0  0  0  0  0
   -5.5718   -0.1182    1.7908 H   0  0  0  0  0  0  0  0  0  0  0  0
   -3.2137   -0.7963    2.2310 H   0  0  0  0  0  0  0  0  0  0  0  0
   -2.1658    0.4251   -1.6999 H   0  0  0  0  0  0  0  0  0  0  0  0
   -4.4943    1.1154   -2.1882 H   0  0  0  0  0  0  0  0  0  0  0  0
   -1.6973   -2.2395    1.8583 H   0  0  0  0  0  0  0  0  0  0  0  0
    0.6565   -2.8219    2.2369 H   0  0  0  0  0  0  0  0  0  0  0  0
    3.3562   -2.1374    1.5851 H   0  0  0  0  0  0  0  0  0  0  0  0
   -0.3448    0.9260   -0.7440 H   0  0  0  0  0  0  0  0  0  0  0  0
    5.4002   -1.7753    1.2288 H   0  0  0  0  0  0  0  0  0  0  0  0
    7.8036   -1.3239    0.7820 H   0  0  0  0  0  0  0  0  0  0  0  0
    6.7547    1.8777   -1.7703 H   0  0  0  0  0  0  0  0  0  0  0  0
    4.3298    1.4447   -1.3375 H   0  0  0  0  0  0  0  0  0  0  0  0
  1  2  1  0
  2  3  2  0
  2  4  2  0
  2  5  1  0
  5  6  2  0
  6  7  1  0
  7  8  2  0
  8  9  1  0
  9 10  2  0
  8 11  1  0
 11 12  2  0
 12 13  1  0
 13 14  2  0
 14 15  1  0
 15 16  1  0
 16 17  2  0
 17 18  1  0
 18 19  2  0
 16 20  1  0
 20 21  2  0
 21 22  1  0
 22 23  2  0
 23 24  1  0
 23 25  1  0
 25 26  2  0
 10  5  1  0
 19 11  1  0
 26 20  1  0
 18 14  1  0
  1 27  1  0
  1 28  1  0
  6 29  1  0
  7 30  1  0
  9 31  1  0
 10 32  1  0
 12 33  1  0
 13 34  1  0
 15 35  1  0
 19 36  1  0
 21 37  1  0
 22 38  1  0
 25 39  1  0
 26 40  1  0
M  END
$$$$
[H]c1nc(N([H])c2c([H])c([H])c(N3C([H])([H])C([H])([H])C([H])([H])[C@@]3([H])C#N)c([H])c2OC([H])([H])[H])nc(N([H])c2c([H])c([H])c([H])c([H])c2S(=O)(=O)C(F)(F)F)c1Cl
     RDKit          3D

 57 60  0  0  0  0  0  0  0  0999 V2000
   -1.7852    1.0328    3.8452 C   0  0  0  0  0  0  0  0  0  0  0  0
   -1.3311    0.6737    2.5625 O   0  0  0  0  0  0  0  0  0  0  0  0
   -2.1838    0.2960    1.5414 C   0  0  0  0  0  0  0  0  0  0  0  0
   -3.5478    0.2506    1.7307 C   0  0  0  0  0  0  0  0  0  0  0  0
   -4.4020   -0.1233    0.7201 C   0  0  0  0  0  0  0  0  0  0  0  0
   -3.8846   -0.4612   -0.5083 C   0  0  0  0  0  0  0  0  0  0  0  0
   -2.4940   -0.4064   -0.6720 C   0  0  0  0  0  0  0  0  0  0  0  0
   -1.6222   -0.0430    0.2974 C   0  0  0  0  0  0  0  0  0  0  0  0
   -0.2420    0.0273    0.1934 N   0  0  0  0  0  0  0  0  0  0  0  0
    0.5436   -0.2522   -0.9484 C   0  0  0  0  0  0  0  0  0  0  0  0
    0.0654   -0.6344   -2.1305 N   0  0  0  0  0  0  0  0  0  0  0  0
    0.8246   -0.8943   -3.2010 C   0  0  0  0  0  0  0  0  0  0  0  0
    2.1864   -0.7594   -3.0768 C   0  0  0  0  0  0  0  0  0  0  0  0
    3.2034   -1.0916   -4.4590 Cl  0  0  0  0  0  0  0  0  0  0  0  0
    2.7228   -0.3570   -1.8400 C   0  0  0  0  0  0  0  0  0  0  0  0
    4.1288   -0.2259   -1.7474 N   0  0  0  0  0  0  0  0  0  0  0  0
    4.9335    0.1460   -0.6713 C   0  0  0  0  0  0  0  0  0  0  0  0
    4.4492    0.4567    0.5796 C   0  0  0  0  0  0  0  0  0  0  0  0
    5.2843    0.8259    1.6449 C   0  0  0  0  0  0  0  0  0  0  0  0
    6.6382    0.8842    1.4487 C   0  0  0  0  0  0  0  0  0  0  0  0
    7.1433    0.5772    0.2047 C   0  0  0  0  0  0  0  0  0  0  0  0
    6.3297    0.2159   -0.8393 C   0  0  0  0  0  0  0  0  0  0  0  0
    7.0560   -0.1551   -2.3887 S   0  0  0  0  0  0  0  0  0  0  0  0
    6.7733   -1.5914   -2.7293 O   0  0  0  0  0  0  0  0  0  0  0  0
    6.5563    0.8018   -3.4447 O   0  0  0  0  0  0  0  0  0  0  0  0
    8.8227    0.0037   -2.3508 C   0  0  0  0  0  0  0  0  0  0  0  0
    9.3550   -0.3019   -3.6198 F   0  0  0  0  0  0  0  0  0  0  0  0
    9.4424   -0.8499   -1.4917 F   0  0  0  0  0  0  0  0  0  0  0  0
    9.2330    1.2959   -2.1013 F   0  0  0  0  0  0  0  0  0  0  0  0
    1.8800   -0.1320   -0.8679 N   0  0  0  0  0  0  0  0  0  0  0  0
   -5.7978   -0.1617    0.8620 N   0  0  0  0  0  0  0  0  0  0  0  0
   -6.5914   -1.3046    0.3508 C   0  0  0  0  0  0  0  0  0  0  0  0
   -7.8514   -1.2978    1.2255 C   0  0  0  0  0  0  0  0  0  0  0  0
   -7.6130   -0.2086    2.2255 C   0  0  0  0  0  0  0  0  0  0  0  0
   -6.7199    0.7581    1.4197 C   0  0  1  0  0  0  0  0  0  0  0  0
   -6.2282    1.8266    2.2277 C   0  0  0  0  0  0  0  0  0  0  0  0
   -5.8575    2.7056    2.8722 N   0  0  0  0  0  0  0  0  0  0  0  0
   -0.9083    1.0181    4.5239 H   0  0  0  0  0  0  0  0  0  0  0  0
   -2.5187    0.2745    4.1809 H   0  0  0  0  0  0  0  0  0  0  0  0
   -2.2020    2.0599    3.8767 H   0  0  0  0  0  0  0  0  0  0  0  0
   -3.9190    0.5058    2.7149 H   0  0  0  0  0  0  0  0  0  0  0  0
   -4.5231   -0.7568   -1.3139 H   0  0  0  0  0  0  0  0  0  0  0  0
   -2.1536   -0.6830   -1.6546 H   0  0  0  0  0  0  0  0  0  0  0  0
    0.3159    0.3231    1.0582 H   0  0  0  0  0  0  0  0  0  0  0  0
    0.3912   -1.2038   -4.1466 H   0  0  0  0  0  0  0  0  0  0  0  0
    4.6658   -0.4487   -2.6520 H   0  0  0  0  0  0  0  0  0  0  0  0
    3.3882    0.4369    0.8278 H   0  0  0  0  0  0  0  0  0  0  0  0
    4.8772    1.0647    2.6175 H   0  0  0  0  0  0  0  0  0  0  0  0
    7.3342    1.1671    2.2476 H   0  0  0  0  0  0  0  0  0  0  0  0
    8.2329    0.6196    0.0264 H   0  0  0  0  0  0  0  0  0  0  0  0
   -6.0410   -2.2488    0.4561 H   0  0  0  0  0  0  0  0  0  0  0  0
   -6.8342   -1.0703   -0.7060 H   0  0  0  0  0  0  0  0  0  0  0  0
   -8.7257   -1.1121    0.5604 H   0  0  0  0  0  0  0  0  0  0  0  0
   -7.9673   -2.3049    1.7228 H   0  0  0  0  0  0  0  0  0  0  0  0
   -8.5166    0.2857    2.5918 H   0  0  0  0  0  0  0  0  0  0  0  0
   -6.9755   -0.6071    3.0245 H   0  0  0  0  0  0  0  0  0  0  0  0
   -7.3406    1.1537    0.5498 H   0  0  0  0  0  0  0  0  0  0  0  0
  1  2  1  0
  2  3  1  0
  3  4  2  0
  4  5  1  0
  5  6  2  0
  6  7  1  0
  7  8  2  0
  8  9  1  0
  9 10  1  0
 10 11  2  0
 11 12  1  0
 12 13  2  0
 13 14  1  0
 13 15  1  0
 15 16  1  0
 16 17  1  0
 17 18  2  0
 18 19  1  0
 19 20  2  0
 20 21  1  0
 21 22  2  0
 22 23  1  0
 23 24  2  0
 23 25  2  0
 23 26  1  0
 26 27  1  0
 26 28  1  0
 26 29  1  0
 15 30  2  0
  5 31  1  0
 31 32  1  0
 32 33  1  0
 33 34  1  0
 34 35  1  0
 35 36  1  0
 36 37  3  0
  8  3  1  0
 30 10  1  0
 35 31  1  0
 22 17  1  0
  1 38  1  0
  1 39  1  0
  1 40  1  0
  4 41  1  0
  6 42  1  0
  7 43  1  0
  9 44  1  0
 12 45  1  0
 16 46  1  0
 18 47  1  0
 19 48  1  0
 20 49  1  0
 21 50  1  0
 32 51  1  0
 32 52  1  0
 33 53  1  0
 33 54  1  0
 34 55  1  0
 34 56  1  0
 35 57  1  6
M  END
$$$$
[H]c1c([H])c(S(=O)(=O)N2C([H])([H])C([H])([H])N(C(=O)c3c([H])c(Cl)c([H])c([H])c3C([H])([H])[H])C([H])([H])[C@@]2([H])C([H])([H])[H])c(Cl)c([H])c1Cl
     RDKit          3D

 47 49  0  0  0  0  0  0  0  0999 V2000
    0.6362    0.6320   -2.1346 C   0  0  0  0  0  0  0  0  0  0  0  0
    0.7476    0.4177   -0.6170 C   0  0  2  0  0  0  0  0  0  0  0  0
   -0.6455    0.0898   -0.0647 C   0  0  0  0  0  0  0  0  0  0  0  0
   -1.5048    1.2454   -0.1454 N   0  0  0  0  0  0  0  0  0  0  0  0
   -0.8977    2.5432   -0.3286 C   0  0  0  0  0  0  0  0  0  0  0  0
    0.4827    2.6562    0.2465 C   0  0  0  0  0  0  0  0  0  0  0  0
    1.3304    1.5382    0.0228 N   0  0  0  0  0  0  0  0  0  0  0  0
    2.3109    1.1048    1.3245 S   0  0  0  0  0  0  0  0  0  0  0  0
    2.7670    2.3059    2.1287 O   0  0  0  0  0  0  0  0  0  0  0  0
    1.4760    0.2933    2.3141 O   0  0  0  0  0  0  0  0  0  0  0  0
    3.6902    0.1236    0.9396 C   0  0  0  0  0  0  0  0  0  0  0  0
    4.0810   -0.2420   -0.3167 C   0  0  0  0  0  0  0  0  0  0  0  0
    5.2209   -1.0242   -0.5243 C   0  0  0  0  0  0  0  0  0  0  0  0
    5.9871   -1.4524    0.5149 C   0  0  0  0  0  0  0  0  0  0  0  0
    7.4085   -2.4327    0.1941 Cl  0  0  0  0  0  0  0  0  0  0  0  0
    5.6110   -1.0945    1.7911 C   0  0  0  0  0  0  0  0  0  0  0  0
    4.4866   -0.3239    1.9873 C   0  0  0  0  0  0  0  0  0  0  0  0
    4.0546    0.1016    3.6285 Cl  0  0  0  0  0  0  0  0  0  0  0  0
   -2.9040    1.0536   -0.0417 C   0  0  0  0  0  0  0  0  0  0  0  0
   -3.6565    2.0552   -0.1086 O   0  0  0  0  0  0  0  0  0  0  0  0
   -3.4930   -0.2596    0.1386 C   0  0  0  0  0  0  0  0  0  0  0  0
   -3.7109   -0.7996    1.4077 C   0  0  0  0  0  0  0  0  0  0  0  0
   -4.2660   -2.0437    1.5986 C   0  0  0  0  0  0  0  0  0  0  0  0
   -4.5248   -2.6905    3.2259 Cl  0  0  0  0  0  0  0  0  0  0  0  0
   -4.6160   -2.7750    0.4912 C   0  0  0  0  0  0  0  0  0  0  0  0
   -4.4079   -2.2577   -0.7510 C   0  0  0  0  0  0  0  0  0  0  0  0
   -3.8539   -1.0152   -0.9627 C   0  0  0  0  0  0  0  0  0  0  0  0
   -3.6501   -0.4946   -2.3452 C   0  0  0  0  0  0  0  0  0  0  0  0
    1.0617    1.6310   -2.3559 H   0  0  0  0  0  0  0  0  0  0  0  0
    1.2397   -0.1095   -2.6938 H   0  0  0  0  0  0  0  0  0  0  0  0
   -0.4159    0.5354   -2.4653 H   0  0  0  0  0  0  0  0  0  0  0  0
    1.3254   -0.5107   -0.4795 H   0  0  0  0  0  0  0  0  0  0  0  0
   -1.0061   -0.7673   -0.6716 H   0  0  0  0  0  0  0  0  0  0  0  0
   -0.5116   -0.1669    0.9932 H   0  0  0  0  0  0  0  0  0  0  0  0
   -0.9184    2.8436   -1.4173 H   0  0  0  0  0  0  0  0  0  0  0  0
   -1.5135    3.3487    0.1714 H   0  0  0  0  0  0  0  0  0  0  0  0
    0.3662    2.9113    1.3367 H   0  0  0  0  0  0  0  0  0  0  0  0
    0.9628    3.5435   -0.2627 H   0  0  0  0  0  0  0  0  0  0  0  0
    3.5076    0.0863   -1.1573 H   0  0  0  0  0  0  0  0  0  0  0  0
    5.4973   -1.2943   -1.5456 H   0  0  0  0  0  0  0  0  0  0  0  0
    6.2385   -1.4486    2.6000 H   0  0  0  0  0  0  0  0  0  0  0  0
   -3.4403   -0.2345    2.2703 H   0  0  0  0  0  0  0  0  0  0  0  0
   -5.0501   -3.7459    0.5919 H   0  0  0  0  0  0  0  0  0  0  0  0
   -4.6801   -2.8247   -1.6477 H   0  0  0  0  0  0  0  0  0  0  0  0
   -2.7526   -0.9226   -2.8290 H   0  0  0  0  0  0  0  0  0  0  0  0
   -4.5208   -0.7399   -2.9806 H   0  0  0  0  0  0  0  0  0  0  0  0
   -3.5497    0.6103   -2.3448 H   0  0  0  0  0  0  0  0  0  0  0  0
  1  2  1  0
  2  3  1  0
  3  4  1  0
  4  5  1  0
  5  6  1  0
  6  7  1  0
  7  8  1  0
  8  9  2  0
  8 10  2  0
  8 11  1  0
 11 12  2  0
 12 13  1  0
 13 14  2  0
 14 15  1  0
 14 16  1  0
 16 17  2  0
 17 18  1  0
  4 19  1  0
 19 20  2  0
 19 21  1  0
 21 22  2  0
 22 23  1  0
 23 24  1  0
 23 25  2  0
 25 26  1  0
 26 27  2  0
 27 28  1  0
  7  2  1  0
 17 11  1  0
 27 21  1  0
  1 29  1  0
  1 30  1  0
  1 31  1  0
  2 32  1  6
  3 33  1  0
  3 34  1  0
  5 35  1  0
  5 36  1  0
  6 37  1  0
  6 38  1  0
 12 39  1  0
 13 40  1  0
 16 41  1  0
 22 42  1  0
 25 43  1  0
 26 44  1  0
 28 45  1  0
 28 46  1  0
 28 47  1  0
M  END
$$$$
[H]ON([H])C(=O)[C@]1([H])N(S(=O)(=O)c2c([H])c([H])c(OC([H])([H])[H])c([H])c2[H])C([H])([H])[C@@]([H])(c2c([H])c([H])c([H])c([H])c2Cl)C1([H])[H]
     RDKit          3D

 46 48  0  0  0  0  0  0  0  0999 V2000
    6.9989    0.1966    1.1064 C   0  0  0  0  0  0  0  0  0  0  0  0
    6.3867   -0.4595    0.0017 O   0  0  0  0  0  0  0  0  0  0  0  0
    5.0660   -0.3184   -0.3349 C   0  0  0  0  0  0  0  0  0  0  0  0
    4.5180   -1.0018   -1.4179 C   0  0  0  0  0  0  0  0  0  0  0  0
    3.2107   -0.8801   -1.7620 C   0  0  0  0  0  0  0  0  0  0  0  0
    2.3147   -0.0804   -1.0891 C   0  0  0  0  0  0  0  0  0  0  0  0
    2.8845    0.6040    0.0043 C   0  0  0  0  0  0  0  0  0  0  0  0
    4.1970    0.4875    0.3564 C   0  0  0  0  0  0  0  0  0  0  0  0
    0.6295    0.1348   -1.4524 S   0  0  0  0  0  0  0  0  0  0  0  0
    0.3077    1.6217   -1.3439 O   0  0  0  0  0  0  0  0  0  0  0  0
    0.3087   -0.2893   -2.8637 O   0  0  0  0  0  0  0  0  0  0  0  0
   -0.3717   -0.6958   -0.3164 N   0  0  0  0  0  0  0  0  0  0  0  0
   -1.0301    0.2229    0.5344 C   0  0  0  0  0  0  0  0  0  0  0  0
   -2.5223   -0.0554    0.6028 C   0  0  2  0  0  0  0  0  0  0  0  0
   -2.7046   -0.8152   -0.7473 C   0  0  0  0  0  0  0  0  0  0  0  0
   -1.3819   -1.5042   -0.9467 C   0  0  2  0  0  0  0  0  0  0  0  0
   -1.4784   -2.9036   -0.4023 C   0  0  0  0  0  0  0  0  0  0  0  0
   -2.1397   -3.7274   -1.0706 O   0  0  0  0  0  0  0  0  0  0  0  0
   -0.8604   -3.2759    0.7993 N   0  0  0  0  0  0  0  0  0  0  0  0
   -0.9391   -4.5531    1.3087 O   0  0  0  0  0  0  0  0  0  0  0  0
   -3.3203    1.2081    0.4589 C   0  0  0  0  0  0  0  0  0  0  0  0
   -3.0649    2.0631   -0.6353 C   0  0  0  0  0  0  0  0  0  0  0  0
   -3.8185    3.1967   -0.7410 C   0  0  0  0  0  0  0  0  0  0  0  0
   -4.7975    3.4954    0.1735 C   0  0  0  0  0  0  0  0  0  0  0  0
   -5.0740    2.6408    1.2759 C   0  0  0  0  0  0  0  0  0  0  0  0
   -4.2944    1.5041    1.3658 C   0  0  0  0  0  0  0  0  0  0  0  0
   -4.5184    0.3833    2.7330 Cl  0  0  0  0  0  0  0  0  0  0  0  0
    7.0537    1.2855    0.9313 H   0  0  0  0  0  0  0  0  0  0  0  0
    6.3997    0.0146    2.0217 H   0  0  0  0  0  0  0  0  0  0  0  0
    8.0478   -0.1988    1.2585 H   0  0  0  0  0  0  0  0  0  0  0  0
    5.2211   -1.6601   -1.9752 H   0  0  0  0  0  0  0  0  0  0  0  0
    2.7889   -1.4199   -2.6290 H   0  0  0  0  0  0  0  0  0  0  0  0
    2.2075    1.2363    0.5951 H   0  0  0  0  0  0  0  0  0  0  0  0
    4.6267    1.0327    1.2057 H   0  0  0  0  0  0  0  0  0  0  0  0
   -0.6391   -0.0650    1.6069 H   0  0  0  0  0  0  0  0  0  0  0  0
   -0.7957    1.2937    0.4484 H   0  0  0  0  0  0  0  0  0  0  0  0
   -2.8746   -0.6663    1.4402 H   0  0  0  0  0  0  0  0  0  0  0  0
   -3.4671   -1.5896   -0.5115 H   0  0  0  0  0  0  0  0  0  0  0  0
   -3.0134   -0.1136   -1.5122 H   0  0  0  0  0  0  0  0  0  0  0  0
   -1.2172   -1.5341   -2.0401 H   0  0  0  0  0  0  0  0  0  0  0  0
   -0.3136   -2.6332    1.4130 H   0  0  0  0  0  0  0  0  0  0  0  0
   -1.4238   -5.0955    0.6347 H   0  0  0  0  0  0  0  0  0  0  0  0
   -2.3359    1.8280   -1.3938 H   0  0  0  0  0  0  0  0  0  0  0  0
   -3.6024    3.8552   -1.6110 H   0  0  0  0  0  0  0  0  0  0  0  0
   -5.3656    4.4041    0.0928 H   0  0  0  0  0  0  0  0  0  0  0  0
   -5.8030    2.8269    2.0061 H   0  0  0  0  0  0  0  0  0  0  0  0
  1  2  1  0
  2  3  1  0
  3  4  2  0
  4  5  1  0
  5  6  2  0
  6  7  1  0
  7  8  2  0
  6  9  1  0
  9 10  2  0
  9 11  2  0
  9 12  1  0
 12 13  1  0
 13 14  1  0
 14 15  1  0
 15 16  1  0
 16 17  1  0
 17 18  2  0
 17 19  1  0
 19 20  1  0
 14 21  1  0
 21 22  2  0
 22 23  1  0
 23 24  2  0
 24 25  1  0
 25 26  2  0
 26 27  1  0
  8  3  1  0
 16 12  1  0
 26 21  1  0
  1 28  1  0
  1 29  1  0
  1 30  1  0
  4 31  1  0
  5 32  1  0
  7 33  1  0
  8 34  1  0
 13 35  1  0
 13 36  1  0
 14 37  1  1
 15 38  1  0
 15 39  1  0
 16 40  1  6
 19 41  1  0
 20 42  1  0
 22 43  1  0
 23 44  1  0
 24 45  1  0
 25 46  1  0
M  END
$$$$
[H]c1c([H])c([H])c(C([H])([H])N([H])C(=O)[C@]2([H])C([H])([H])[C@@]3([H])N([H])[C@@]([H])(N([H])C(=O)c4c([H])c([H])c(C(F)(F)F)c([H])c4[H])C([H])([H])[C@]23[H])c([H])c1[H]
     RDKit          3D

 52 55  0  0  0  0  0  0  0  0999 V2000
    9.4115   -0.3909   -1.2183 F   0  0  0  0  0  0  0  0  0  0  0  0
    9.0715    0.8414   -0.6481 C   0  0  0  0  0  0  0  0  0  0  0  0
    9.4134    1.9010   -1.4122 F   0  0  0  0  0  0  0  0  0  0  0  0
    9.7615    0.9482    0.5728 F   0  0  0  0  0  0  0  0  0  0  0  0
    7.5998    0.7821   -0.3088 C   0  0  0  0  0  0  0  0  0  0  0  0
    6.8383    1.9026   -0.1507 C   0  0  0  0  0  0  0  0  0  0  0  0
    5.4830    1.7749    0.1803 C   0  0  0  0  0  0  0  0  0  0  0  0
    4.8989    0.5506    0.3450 C   0  0  0  0  0  0  0  0  0  0  0  0
    5.6834   -0.5660    0.1788 C   0  0  0  0  0  0  0  0  0  0  0  0
    7.0155   -0.4446   -0.1433 C   0  0  0  0  0  0  0  0  0  0  0  0
    3.5258    0.3615    0.7232 C   0  0  0  0  0  0  0  0  0  0  0  0
    3.1917    0.9032    1.8417 O   0  0  0  0  0  0  0  0  0  0  0  0
    2.5381   -0.3512   -0.0071 N   0  0  0  0  0  0  0  0  0  0  0  0
    1.1846   -0.4978    0.4848 C   0  0  1  0  0  0  0  0  0  0  0  0
    0.2050    0.3273   -0.3444 C   0  0  0  0  0  0  0  0  0  0  0  0
   -0.3944   -0.7384   -1.1205 C   0  0  2  0  0  0  0  0  0  0  0  0
   -1.7582   -1.0472   -1.4642 C   0  0  1  0  0  0  0  0  0  0  0  0
   -1.5550   -2.3589   -0.7355 C   0  0  0  0  0  0  0  0  0  0  0  0
   -0.6320   -1.6749    0.1124 C   0  0  1  0  0  0  0  0  0  0  0  0
    0.7572   -1.9088    0.3287 N   0  0  0  0  0  0  0  0  0  0  0  0
   -2.8603   -0.1879   -1.1542 C   0  0  0  0  0  0  0  0  0  0  0  0
   -3.5789    0.1917   -2.1815 O   0  0  0  0  0  0  0  0  0  0  0  0
   -3.3327    0.3541    0.0492 N   0  0  0  0  0  0  0  0  0  0  0  0
   -4.4431    1.2295    0.1581 C   0  0  0  0  0  0  0  0  0  0  0  0
   -5.7996    0.6707    0.2093 C   0  0  0  0  0  0  0  0  0  0  0  0
   -6.1334   -0.5888    0.5902 C   0  0  0  0  0  0  0  0  0  0  0  0
   -7.4540   -0.9745    0.6375 C   0  0  0  0  0  0  0  0  0  0  0  0
   -8.4431   -0.0971    0.3019 C   0  0  0  0  0  0  0  0  0  0  0  0
   -8.1255    1.1934   -0.0913 C   0  0  0  0  0  0  0  0  0  0  0  0
   -6.8086    1.5632   -0.1338 C   0  0  0  0  0  0  0  0  0  0  0  0
    7.3179    2.8699   -0.2870 H   0  0  0  0  0  0  0  0  0  0  0  0
    4.9387    2.6953    0.2891 H   0  0  0  0  0  0  0  0  0  0  0  0
    5.2707   -1.5394    0.2984 H   0  0  0  0  0  0  0  0  0  0  0  0
    7.5944   -1.3550   -0.2616 H   0  0  0  0  0  0  0  0  0  0  0  0
    2.8128   -0.7702   -0.9154 H   0  0  0  0  0  0  0  0  0  0  0  0
    1.1044   -0.2087    1.5570 H   0  0  0  0  0  0  0  0  0  0  0  0
    0.7701    1.1281   -0.8837 H   0  0  0  0  0  0  0  0  0  0  0  0
   -0.4917    0.8076    0.4084 H   0  0  0  0  0  0  0  0  0  0  0  0
    0.3543   -1.2332   -1.7961 H   0  0  0  0  0  0  0  0  0  0  0  0
   -1.8004   -1.3215   -2.5790 H   0  0  0  0  0  0  0  0  0  0  0  0
   -1.1716   -3.1861   -1.3841 H   0  0  0  0  0  0  0  0  0  0  0  0
   -2.5022   -2.7482   -0.2690 H   0  0  0  0  0  0  0  0  0  0  0  0
   -1.0672   -1.1377    0.9604 H   0  0  0  0  0  0  0  0  0  0  0  0
    1.2403   -2.4004   -0.4173 H   0  0  0  0  0  0  0  0  0  0  0  0
   -2.8505    0.1097    0.9373 H   0  0  0  0  0  0  0  0  0  0  0  0
   -4.3751    2.0370   -0.6471 H   0  0  0  0  0  0  0  0  0  0  0  0
   -4.3128    1.8284    1.1129 H   0  0  0  0  0  0  0  0  0  0  0  0
   -5.3435   -1.2753    0.8517 H   0  0  0  0  0  0  0  0  0  0  0  0
   -7.7591   -1.9769    0.9444 H   0  0  0  0  0  0  0  0  0  0  0  0
   -9.4757   -0.4111    0.3561 H   0  0  0  0  0  0  0  0  0  0  0  0
   -8.9318    1.8433   -0.3313 H   0  0  0  0  0  0  0  0  0  0  0  0
   -6.5823    2.5760   -0.4449 H   0  0  0  0  0  0  0  0  0  0  0  0
  1  2  1  0
  2  3  1  0
  2  4  1  0
  2  5  1  0
  5  6  2  0
  6  7  1  0
  7  8  2  0
  8  9  1  0
  9 10  2  0
  8 11  1  0
 11 12  2  0
 11 13  1  0
 13 14  1  0
 14 15  1  0
 15 16  1  0
 16 17  1  0
 17 18  1  0
 18 19  1  0
 19 20  1  0
 17 21  1  0
 21 22  2  0
 21 23  1  0
 23 24  1  0
 24 25  1  0
 25 26  2  0
 26 27  1  0
 27 28  2  0
 28 29  1  0
 29 30  2  0
 10  5  1  0
 20 14  1  0
 30 25  1  0
 19 16  1  0
  6 31  1  0
  7 32  1  0
  9 33  1  0
 10 34  1  0
 13 35  1  0
 14 36  1  1
 15 37  1  0
 15 38  1  0
 16 39  1  6
 17 40  1  6
 18 41  1  0
 18 42  1  0
 19 43  1  1
 20 44  1  0
 23 45  1  0
 24 46  1  0
 24 47  1  0
 26 48  1  0
 27 49  1  0
 28 50  1  0
 29 51  1  0
 30 52  1  0
M  END
$$$$
[H]c1c([H])c([H])c(C([H])([H])OC(=O)N2C([H])([H])C([H])([H])N([C@]3([H])C([H])([H])C([H])([H])[C@@]([H])(N([H])S(=O)(=O)c4c([H])c([H])c(OC([H])([H])[H])c([H])c4[H])C([H])([H])C3([H])[H])C([H])([H])C2([H])[H])c(Cl)c1[H]
     RDKit          3D

 67 70  0  0  0  0  0  0  0  0999 V2000
   -8.5449    2.3392   -1.6769 C   0  0  0  0  0  0  0  0  0  0  0  0
   -7.8152    2.3555   -0.4744 O   0  0  0  0  0  0  0  0  0  0  0  0
   -7.1292    1.1824   -0.1060 C   0  0  0  0  0  0  0  0  0  0  0  0
   -6.4159    1.2058    1.0734 C   0  0  0  0  0  0  0  0  0  0  0  0
   -5.7330    0.0793    1.4669 C   0  0  0  0  0  0  0  0  0  0  0  0
   -5.7704   -1.0435    0.6861 C   0  0  0  0  0  0  0  0  0  0  0  0
   -6.4823   -1.0719   -0.4941 C   0  0  0  0  0  0  0  0  0  0  0  0
   -7.1696    0.0512   -0.8965 C   0  0  0  0  0  0  0  0  0  0  0  0
   -4.8806   -2.4758    1.2047 S   0  0  0  0  0  0  0  0  0  0  0  0
   -5.6755   -3.6581    0.7324 O   0  0  0  0  0  0  0  0  0  0  0  0
   -4.8222   -2.5483    2.7033 O   0  0  0  0  0  0  0  0  0  0  0  0
   -3.3059   -2.4808    0.5062 N   0  0  0  0  0  0  0  0  0  0  0  0
   -2.5012   -1.3579    0.8972 C   0  0  1  0  0  0  0  0  0  0  0  0
   -1.2306   -1.7395    1.5768 C   0  0  0  0  0  0  0  0  0  0  0  0
   -0.1212   -0.7241    1.4785 C   0  0  0  0  0  0  0  0  0  0  0  0
    0.2589   -0.4207    0.0487 C   0  0  1  0  0  0  0  0  0  0  0  0
   -0.8039   -1.0545   -0.8151 C   0  0  0  0  0  0  0  0  0  0  0  0
   -2.1722   -0.5757   -0.3576 C   0  0  0  0  0  0  0  0  0  0  0  0
    0.2984    0.9860   -0.2120 N   0  0  0  0  0  0  0  0  0  0  0  0
    1.2993    1.6777    0.5769 C   0  0  0  0  0  0  0  0  0  0  0  0
    2.6667    1.7116   -0.0012 C   0  0  0  0  0  0  0  0  0  0  0  0
    2.8066    0.9388   -1.2014 N   0  0  0  0  0  0  0  0  0  0  0  0
    1.7366    0.8504   -2.1801 C   0  0  0  0  0  0  0  0  0  0  0  0
    0.4327    1.3289   -1.5767 C   0  0  0  0  0  0  0  0  0  0  0  0
    4.0068    0.2456   -1.4483 C   0  0  0  0  0  0  0  0  0  0  0  0
    4.1271   -0.4309   -2.4962 O   0  0  0  0  0  0  0  0  0  0  0  0
    5.0946    0.2601   -0.5895 O   0  0  0  0  0  0  0  0  0  0  0  0
    6.2928   -0.4572   -0.8782 C   0  0  0  0  0  0  0  0  0  0  0  0
    7.2776   -0.2678    0.1899 C   0  0  0  0  0  0  0  0  0  0  0  0
    6.9505    0.5266    1.2716 C   0  0  0  0  0  0  0  0  0  0  0  0
    7.8814    0.7025    2.2741 C   0  0  0  0  0  0  0  0  0  0  0  0
    9.1281    0.0887    2.1941 C   0  0  0  0  0  0  0  0  0  0  0  0
    9.4200   -0.7013    1.0929 C   0  0  0  0  0  0  0  0  0  0  0  0
    8.5059   -0.8902    0.0814 C   0  0  0  0  0  0  0  0  0  0  0  0
    8.8334   -1.8759   -1.3203 Cl  0  0  0  0  0  0  0  0  0  0  0  0
   -9.1382    3.2741   -1.7509 H   0  0  0  0  0  0  0  0  0  0  0  0
   -9.1944    1.4594   -1.6902 H   0  0  0  0  0  0  0  0  0  0  0  0
   -7.8680    2.2837   -2.5644 H   0  0  0  0  0  0  0  0  0  0  0  0
   -6.4036    2.1231    1.6811 H   0  0  0  0  0  0  0  0  0  0  0  0
   -5.1784    0.0933    2.3857 H   0  0  0  0  0  0  0  0  0  0  0  0
   -6.4973   -1.9741   -1.0956 H   0  0  0  0  0  0  0  0  0  0  0  0
   -7.7270    0.0367   -1.8164 H   0  0  0  0  0  0  0  0  0  0  0  0
   -3.4418   -2.5505   -0.5354 H   0  0  0  0  0  0  0  0  0  0  0  0
   -3.0652   -0.6886    1.6058 H   0  0  0  0  0  0  0  0  0  0  0  0
   -1.4019   -1.8876    2.6941 H   0  0  0  0  0  0  0  0  0  0  0  0
   -0.8164   -2.7380    1.2515 H   0  0  0  0  0  0  0  0  0  0  0  0
    0.7577   -1.1655    1.9831 H   0  0  0  0  0  0  0  0  0  0  0  0
   -0.3626    0.2025    2.0440 H   0  0  0  0  0  0  0  0  0  0  0  0
    1.2583   -0.8355   -0.1450 H   0  0  0  0  0  0  0  0  0  0  0  0
   -0.7238   -0.8124   -1.8917 H   0  0  0  0  0  0  0  0  0  0  0  0
   -0.7000   -2.1575   -0.6573 H   0  0  0  0  0  0  0  0  0  0  0  0
   -2.1405    0.5081   -0.1775 H   0  0  0  0  0  0  0  0  0  0  0  0
   -2.9257   -0.7553   -1.1583 H   0  0  0  0  0  0  0  0  0  0  0  0
    1.3023    1.2901    1.6321 H   0  0  0  0  0  0  0  0  0  0  0  0
    0.9335    2.7283    0.6768 H   0  0  0  0  0  0  0  0  0  0  0  0
    3.4628    1.4424    0.7460 H   0  0  0  0  0  0  0  0  0  0  0  0
    2.9535    2.7684   -0.2923 H   0  0  0  0  0  0  0  0  0  0  0  0
    1.6962   -0.2037   -2.5181 H   0  0  0  0  0  0  0  0  0  0  0  0
    2.0396    1.4736   -3.0444 H   0  0  0  0  0  0  0  0  0  0  0  0
   -0.3792    1.0678   -2.2442 H   0  0  0  0  0  0  0  0  0  0  0  0
    0.4862    2.4659   -1.6123 H   0  0  0  0  0  0  0  0  0  0  0  0
    6.0797   -1.5248   -1.0958 H   0  0  0  0  0  0  0  0  0  0  0  0
    6.6800   -0.0206   -1.8271 H   0  0  0  0  0  0  0  0  0  0  0  0
    5.9697    0.9915    1.3045 H   0  0  0  0  0  0  0  0  0  0  0  0
    7.6579    1.3245    3.1465 H   0  0  0  0  0  0  0  0  0  0  0  0
    9.8544    0.2275    2.9776 H   0  0  0  0  0  0  0  0  0  0  0  0
   10.3885   -1.2030    0.9887 H   0  0  0  0  0  0  0  0  0  0  0  0
  1  2  1  0
  2  3  1  0
  3  4  2  0
  4  5  1  0
  5  6  2  0
  6  7  1  0
  7  8  2  0
  6  9  1  0
  9 10  2  0
  9 11  2  0
  9 12  1  0
 12 13  1  0
 13 14  1  0
 14 15  1  0
 15 16  1  0
 16 17  1  0
 17 18  1  0
 16 19  1  0
 19 20  1  0
 20 21  1  0
 21 22  1  0
 22 23  1  0
 23 24  1  0
 22 25  1  0
 25 26  2  0
 25 27  1  0
 27 28  1  0
 28 29  1  0
 29 30  2  0
 30 31  1  0
 31 32  2  0
 32 33  1  0
 33 34  2  0
 34 35  1  0
  8  3  1  0
 18 13  1  0
 24 19  1  0
 34 29  1  0
  1 36  1  0
  1 37  1  0
  1 38  1  0
  4 39  1  0
  5 40  1  0
  7 41  1  0
  8 42  1  0
 12 43  1  0
 13 44  1  1
 14 45  1  0
 14 46  1  0
 15 47  1  0
 15 48  1  0
 16 49  1  6
 17 50  1  0
 17 51  1  0
 18 52  1  0
 18 53  1  0
 20 54  1  0
 20 55  1  0
 21 56  1  0
 21 57  1  0
 23 58  1  0
 23 59  1  0
 24 60  1  0
 24 61  1  0
 28 62  1  0
 28 63  1  0
 30 64  1  0
 31 65  1  0
 32 66  1  0
 33 67  1  0
M  END
$$$$
[H]c1c([H])c(C([H])([H])[C@@]([H])(C(=O)N([H])[H])N([H])C(=O)[C@@]([H])(N([H])C(=O)c2c([H])c([H])c(C(F)(F)F)c([H])c2[H])C([H])([H])C([H])(C([H])([H])[H])C([H])([H])[H])c([H])c([H])c1F
     RDKit          3D

 58 59  0  0  0  0  0  0  0  0999 V2000
   -0.6290   -5.0961   -0.7238 C   0  0  0  0  0  0  0  0  0  0  0  0
   -0.1972   -3.9128    0.1649 C   0  0  0  0  0  0  0  0  0  0  0  0
    1.2234   -3.6041   -0.2538 C   0  0  0  0  0  0  0  0  0  0  0  0
   -1.1503   -2.8157   -0.1356 C   0  0  0  0  0  0  0  0  0  0  0  0
   -1.0185   -1.5393    0.6049 C   0  0  2  0  0  0  0  0  0  0  0  0
   -2.1546   -0.6974    0.0371 N   0  0  0  0  0  0  0  0  0  0  0  0
   -3.0900   -0.1505    0.8905 C   0  0  0  0  0  0  0  0  0  0  0  0
   -3.0565   -0.3754    2.1671 O   0  0  0  0  0  0  0  0  0  0  0  0
   -4.1613    0.7076    0.4035 C   0  0  0  0  0  0  0  0  0  0  0  0
   -4.0928    1.2755   -0.8689 C   0  0  0  0  0  0  0  0  0  0  0  0
   -5.0754    2.1586   -1.3131 C   0  0  0  0  0  0  0  0  0  0  0  0
   -6.1544    2.5200   -0.5387 C   0  0  0  0  0  0  0  0  0  0  0  0
   -6.2159    1.9432    0.7245 C   0  0  0  0  0  0  0  0  0  0  0  0
   -5.2406    1.0590    1.1790 C   0  0  0  0  0  0  0  0  0  0  0  0
   -7.1820    3.4914   -0.9769 C   0  0  0  0  0  0  0  0  0  0  0  0
   -8.0802    2.9992   -1.8768 F   0  0  0  0  0  0  0  0  0  0  0  0
   -7.8643    3.9658    0.1272 F   0  0  0  0  0  0  0  0  0  0  0  0
   -6.5709    4.6249   -1.5377 F   0  0  0  0  0  0  0  0  0  0  0  0
    0.1543   -0.6822    0.1831 C   0  0  0  0  0  0  0  0  0  0  0  0
    0.2514   -0.2927   -0.9711 O   0  0  0  0  0  0  0  0  0  0  0  0
    1.1184   -0.3466    1.1633 N   0  0  0  0  0  0  0  0  0  0  0  0
    2.2776    0.5345    0.8484 C   0  0  1  0  0  0  0  0  0  0  0  0
    3.5467   -0.1859    0.7429 C   0  0  0  0  0  0  0  0  0  0  0  0
    4.7542    0.6059    0.4383 C   0  0  0  0  0  0  0  0  0  0  0  0
    5.3021    0.7704   -0.8006 C   0  0  0  0  0  0  0  0  0  0  0  0
    6.4232    1.5390   -1.0850 C   0  0  0  0  0  0  0  0  0  0  0  0
    7.0373    2.2039   -0.0153 C   0  0  0  0  0  0  0  0  0  0  0  0
    8.1059    2.9731   -0.2947 F   0  0  0  0  0  0  0  0  0  0  0  0
    6.5178    2.0616    1.2187 C   0  0  0  0  0  0  0  0  0  0  0  0
    5.4165    1.2967    1.4747 C   0  0  0  0  0  0  0  0  0  0  0  0
    1.8986    1.6000   -0.0690 C   0  0  0  0  0  0  0  0  0  0  0  0
    2.4346    2.3281   -1.0786 N   0  0  0  0  0  0  0  0  0  0  0  0
    0.5981    1.9843    0.1517 O   0  0  0  0  0  0  0  0  0  0  0  0
   -1.6746   -4.9774   -1.0569 H   0  0  0  0  0  0  0  0  0  0  0  0
    0.0162   -5.0854   -1.6136 H   0  0  0  0  0  0  0  0  0  0  0  0
   -0.4548   -6.0305   -0.1504 H   0  0  0  0  0  0  0  0  0  0  0  0
   -0.1751   -4.1710    1.2199 H   0  0  0  0  0  0  0  0  0  0  0  0
    1.2762   -3.2202   -1.2948 H   0  0  0  0  0  0  0  0  0  0  0  0
    1.8066   -3.0865    0.4911 H   0  0  0  0  0  0  0  0  0  0  0  0
    1.6936   -4.6533   -0.3233 H   0  0  0  0  0  0  0  0  0  0  0  0
   -2.2166   -3.1705    0.0092 H   0  0  0  0  0  0  0  0  0  0  0  0
   -1.1034   -2.5670   -1.2507 H   0  0  0  0  0  0  0  0  0  0  0  0
   -1.1493   -1.5390    1.6748 H   0  0  0  0  0  0  0  0  0  0  0  0
   -2.1412   -0.5956   -0.9768 H   0  0  0  0  0  0  0  0  0  0  0  0
   -3.2501    1.0179   -1.4928 H   0  0  0  0  0  0  0  0  0  0  0  0
   -4.9832    2.5843   -2.3180 H   0  0  0  0  0  0  0  0  0  0  0  0
   -7.0672    2.2140    1.3348 H   0  0  0  0  0  0  0  0  0  0  0  0
   -5.3007    0.6185    2.1770 H   0  0  0  0  0  0  0  0  0  0  0  0
    1.0053   -0.7359    2.1222 H   0  0  0  0  0  0  0  0  0  0  0  0
    2.3417    1.1332    1.8672 H   0  0  0  0  0  0  0  0  0  0  0  0
    3.5146   -1.0656    0.0452 H   0  0  0  0  0  0  0  0  0  0  0  0
    3.7730   -0.6779    1.7591 H   0  0  0  0  0  0  0  0  0  0  0  0
    4.8435    0.2528   -1.6571 H   0  0  0  0  0  0  0  0  0  0  0  0
    6.8097    1.6204   -2.0866 H   0  0  0  0  0  0  0  0  0  0  0  0
    6.9802    2.5629    2.0667 H   0  0  0  0  0  0  0  0  0  0  0  0
    5.0278    1.1765    2.4669 H   0  0  0  0  0  0  0  0  0  0  0  0
    2.8615    2.0354   -1.9954 H   0  0  0  0  0  0  0  0  0  0  0  0
    2.4402    3.4162   -0.9976 H   0  0  0  0  0  0  0  0  0  0  0  0
  1  2  1  0
  2  3  1  0
  2  4  1  0
  4  5  1  0
  5  6  1  0
  6  7  1  0
  7  8  2  0
  7  9  1  0
  9 10  2  0
 10 11  1  0
 11 12  2  0
 12 13  1  0
 13 14  2  0
 12 15  1  0
 15 16  1  0
 15 17  1  0
 15 18  1  0
  5 19  1  0
 19 20  2  0
 19 21  1  0
 21 22  1  0
 22 23  1  0
 23 24  1  0
 24 25  2  0
 25 26  1  0
 26 27  2  0
 27 28  1  0
 27 29  1  0
 29 30  2  0
 22 31  1  0
 31 32  1  0
 31 33  2  0
 14  9  1  0
 30 24  1  0
  1 34  1  0
  1 35  1  0
  1 36  1  0
  2 37  1  0
  3 38  1  0
  3 39  1  0
  3 40  1  0
  4 41  1  0
  4 42  1  0
  5 43  1  1
  6 44  1  0
 10 45  1  0
 11 46  1  0
 13 47  1  0
 14 48  1  0
 21 49  1  0
 22 50  1  1
 23 51  1  0
 23 52  1  0
 25 53  1  0
 26 54  1  0
 29 55  1  0
 30 56  1  0
 32 57  1  0
 32 58  1  0
M  END
$$$$
[H]c1c([H])c([H])c(C([H])([H])[C@@]([H])(C(=O)C(=O)N([H])[H])N([H])C(=O)[C@@]([H])(N([H])C(=O)[C@@]2([H])N(C(=O)[C@]([H])(N([H])C(=O)[C@@]([H])(N([H])C(=O)[C@@]([H])(N([H])C(=O)C([H])([H])[H])C([H])([H])c3c([H])c([H])c([H])c([H])c3[H])C([H])([H])c3c([H])c([H])c([H])c([H])c3[H])C([H])([H])c3c([H])c([H])c([H])c([H])c3[H])C([H])([H])C([H])([H])C2([H])[H])C([H])([H])[H])c([H])c1[H]
     RDKit          3D

115119  0  0  0  0  0  0  0  0999 V2000
    5.4053    2.3642   -0.0660 C   0  0  0  0  0  0  0  0  0  0  0  0
    4.9832    1.2868   -1.0851 C   0  0  2  0  0  0  0  0  0  0  0  0
    3.5866    1.2955   -1.3520 N   0  0  0  0  0  0  0  0  0  0  0  0
    2.5857    1.8787   -0.5347 C   0  0  0  0  0  0  0  0  0  0  0  0
    2.9406    2.4185    0.5372 O   0  0  0  0  0  0  0  0  0  0  0  0
    1.1701    1.8287   -0.9706 C   0  0  2  0  0  0  0  0  0  0  0  0
    0.8700    3.1190   -1.7863 C   0  0  0  0  0  0  0  0  0  0  0  0
    0.9736    4.1434   -0.6363 C   0  0  0  0  0  0  0  0  0  0  0  0
    0.4057    3.3756    0.5656 C   0  0  0  0  0  0  0  0  0  0  0  0
    0.2160    2.0290    0.0890 N   0  0  0  0  0  0  0  0  0  0  0  0
   -0.7437    1.1034    0.5344 C   0  0  0  0  0  0  0  0  0  0  0  0
   -1.4819    1.4822    1.5097 O   0  0  0  0  0  0  0  0  0  0  0  0
   -0.9819   -0.2305   -0.0123 C   0  0  1  0  0  0  0  0  0  0  0  0
    0.0900   -1.2413    0.1594 C   0  0  0  0  0  0  0  0  0  0  0  0
    0.4707   -1.5982    1.5158 C   0  0  0  0  0  0  0  0  0  0  0  0
    1.4433   -0.9098    2.1945 C   0  0  0  0  0  0  0  0  0  0  0  0
    1.8465   -1.2369    3.4946 C   0  0  0  0  0  0  0  0  0  0  0  0
    1.2430   -2.2975    4.1265 C   0  0  0  0  0  0  0  0  0  0  0  0
    0.2578   -3.0112    3.4673 C   0  0  0  0  0  0  0  0  0  0  0  0
   -0.1106   -2.6553    2.1847 C   0  0  0  0  0  0  0  0  0  0  0  0
   -2.2258   -0.7635    0.5707 N   0  0  0  0  0  0  0  0  0  0  0  0
   -3.4342   -0.7546   -0.1304 C   0  0  0  0  0  0  0  0  0  0  0  0
   -3.4058   -0.2512   -1.3014 O   0  0  0  0  0  0  0  0  0  0  0  0
   -4.7158   -1.2567    0.3427 C   0  0  2  0  0  0  0  0  0  0  0  0
   -4.7178   -2.7615    0.5895 C   0  0  0  0  0  0  0  0  0  0  0  0
   -4.3947   -3.5378   -0.6102 C   0  0  0  0  0  0  0  0  0  0  0  0
   -3.0884   -3.9353   -0.8296 C   0  0  0  0  0  0  0  0  0  0  0  0
   -2.7426   -4.6550   -1.9603 C   0  0  0  0  0  0  0  0  0  0  0  0
   -3.7113   -4.9771   -2.8739 C   0  0  0  0  0  0  0  0  0  0  0  0
   -5.0098   -4.5906   -2.6697 C   0  0  0  0  0  0  0  0  0  0  0  0
   -5.3405   -3.8696   -1.5313 C   0  0  0  0  0  0  0  0  0  0  0  0
   -5.8196   -0.9112   -0.5557 N   0  0  0  0  0  0  0  0  0  0  0  0
   -6.9650   -0.2242   -0.0449 C   0  0  0  0  0  0  0  0  0  0  0  0
   -6.9814    0.0575    1.1884 O   0  0  0  0  0  0  0  0  0  0  0  0
   -8.1177    0.1665   -0.8722 C   0  0  2  0  0  0  0  0  0  0  0  0
   -7.7786    1.2196   -1.9156 C   0  0  0  0  0  0  0  0  0  0  0  0
   -7.2852    2.4899   -1.3176 C   0  0  0  0  0  0  0  0  0  0  0  0
   -8.1735    3.4933   -0.9889 C   0  0  0  0  0  0  0  0  0  0  0  0
   -7.7541    4.6704   -0.4405 C   0  0  0  0  0  0  0  0  0  0  0  0
   -6.4025    4.8739   -0.2022 C   0  0  0  0  0  0  0  0  0  0  0  0
   -5.4916    3.8953   -0.5175 C   0  0  0  0  0  0  0  0  0  0  0  0
   -5.9490    2.7015   -1.0784 C   0  0  0  0  0  0  0  0  0  0  0  0
   -9.1281    0.7711    0.0185 N   0  0  0  0  0  0  0  0  0  0  0  0
  -10.4750    0.4009    0.0368 C   0  0  0  0  0  0  0  0  0  0  0  0
  -11.4103    1.0707    0.9707 C   0  0  0  0  0  0  0  0  0  0  0  0
  -10.9274   -0.4898   -0.7192 O   0  0  0  0  0  0  0  0  0  0  0  0
    5.5403    0.0329   -0.5705 C   0  0  0  0  0  0  0  0  0  0  0  0
    4.7993   -0.9655   -0.4187 O   0  0  0  0  0  0  0  0  0  0  0  0
    6.9136   -0.1043   -0.2209 N   0  0  0  0  0  0  0  0  0  0  0  0
    7.4807   -1.3301    0.3183 C   0  0  1  0  0  0  0  0  0  0  0  0
    8.5217   -1.8941   -0.6075 C   0  0  0  0  0  0  0  0  0  0  0  0
    9.6441   -0.9727   -0.8854 C   0  0  0  0  0  0  0  0  0  0  0  0
    9.5409   -0.1192   -1.9607 C   0  0  0  0  0  0  0  0  0  0  0  0
   10.5303    0.7709   -2.3051 C   0  0  0  0  0  0  0  0  0  0  0  0
   11.6816    0.8130   -1.5373 C   0  0  0  0  0  0  0  0  0  0  0  0
   11.8063   -0.0345   -0.4532 C   0  0  0  0  0  0  0  0  0  0  0  0
   10.7839   -0.9303   -0.1270 C   0  0  0  0  0  0  0  0  0  0  0  0
    8.0324   -1.1267    1.6649 C   0  0  0  0  0  0  0  0  0  0  0  0
    8.1103    0.0306    2.1877 O   0  0  0  0  0  0  0  0  0  0  0  0
    8.5088   -2.2374    2.4597 C   0  0  0  0  0  0  0  0  0  0  0  0
    9.0380   -2.0121    3.7444 N   0  0  0  0  0  0  0  0  0  0  0  0
    8.4407   -3.3957    1.9850 O   0  0  0  0  0  0  0  0  0  0  0  0
    5.0048    3.3436   -0.2791 H   0  0  0  0  0  0  0  0  0  0  0  0
    6.5254    2.4596   -0.2341 H   0  0  0  0  0  0  0  0  0  0  0  0
    5.2919    1.9398    0.9200 H   0  0  0  0  0  0  0  0  0  0  0  0
    5.5054    1.6000   -2.0357 H   0  0  0  0  0  0  0  0  0  0  0  0
    3.2728    0.8266   -2.2422 H   0  0  0  0  0  0  0  0  0  0  0  0
    0.9839    1.0218   -1.6576 H   0  0  0  0  0  0  0  0  0  0  0  0
    1.6561    3.3191   -2.5211 H   0  0  0  0  0  0  0  0  0  0  0  0
   -0.1367    3.0295   -2.1813 H   0  0  0  0  0  0  0  0  0  0  0  0
    2.0187    4.4446   -0.4739 H   0  0  0  0  0  0  0  0  0  0  0  0
    0.4074    5.0540   -0.8658 H   0  0  0  0  0  0  0  0  0  0  0  0
   -0.5634    3.8866    0.7764 H   0  0  0  0  0  0  0  0  0  0  0  0
    0.9984    3.4828    1.4699 H   0  0  0  0  0  0  0  0  0  0  0  0
   -1.1909   -0.1090   -1.1155 H   0  0  0  0  0  0  0  0  0  0  0  0
    0.9979   -1.0014   -0.4615 H   0  0  0  0  0  0  0  0  0  0  0  0
   -0.2788   -2.2050   -0.3289 H   0  0  0  0  0  0  0  0  0  0  0  0
    1.9689   -0.0651    1.7740 H   0  0  0  0  0  0  0  0  0  0  0  0
    2.6256   -0.6805    4.0212 H   0  0  0  0  0  0  0  0  0  0  0  0
    1.5186   -2.5909    5.1314 H   0  0  0  0  0  0  0  0  0  0  0  0
   -0.2235   -3.8604    3.9775 H   0  0  0  0  0  0  0  0  0  0  0  0
   -0.8897   -3.2658    1.7445 H   0  0  0  0  0  0  0  0  0  0  0  0
   -2.1684   -1.1430    1.5220 H   0  0  0  0  0  0  0  0  0  0  0  0
   -4.9551   -0.8093    1.3236 H   0  0  0  0  0  0  0  0  0  0  0  0
   -5.7478   -3.0202    0.9169 H   0  0  0  0  0  0  0  0  0  0  0  0
   -3.9945   -2.9543    1.3951 H   0  0  0  0  0  0  0  0  0  0  0  0
   -2.2993   -3.7050   -0.1319 H   0  0  0  0  0  0  0  0  0  0  0  0
   -1.7000   -4.9451   -2.0861 H   0  0  0  0  0  0  0  0  0  0  0  0
   -3.4299   -5.5428   -3.7614 H   0  0  0  0  0  0  0  0  0  0  0  0
   -5.7738   -4.8539   -3.4085 H   0  0  0  0  0  0  0  0  0  0  0  0
   -6.3826   -3.5957   -1.4307 H   0  0  0  0  0  0  0  0  0  0  0  0
   -5.7811   -1.1588   -1.5624 H   0  0  0  0  0  0  0  0  0  0  0  0
   -8.5446   -0.6897   -1.4310 H   0  0  0  0  0  0  0  0  0  0  0  0
   -6.9387    0.7947   -2.5160 H   0  0  0  0  0  0  0  0  0  0  0  0
   -8.6728    1.4210   -2.5076 H   0  0  0  0  0  0  0  0  0  0  0  0
   -9.2401    3.3549   -1.1689 H   0  0  0  0  0  0  0  0  0  0  0  0
   -8.4324    5.4780   -0.1743 H   0  0  0  0  0  0  0  0  0  0  0  0
   -6.0253    5.8057    0.2373 H   0  0  0  0  0  0  0  0  0  0  0  0
   -4.4414    4.0524   -0.3308 H   0  0  0  0  0  0  0  0  0  0  0  0
   -5.2304    1.9417   -1.3299 H   0  0  0  0  0  0  0  0  0  0  0  0
   -8.7665    1.5104    0.6589 H   0  0  0  0  0  0  0  0  0  0  0  0
  -12.2821    0.4172    1.1437 H   0  0  0  0  0  0  0  0  0  0  0  0
  -11.7360    2.0788    0.6003 H   0  0  0  0  0  0  0  0  0  0  0  0
  -10.9542    1.2589    1.9747 H   0  0  0  0  0  0  0  0  0  0  0  0
    7.5359    0.7117   -0.3592 H   0  0  0  0  0  0  0  0  0  0  0  0
    6.6546   -2.0671    0.3868 H   0  0  0  0  0  0  0  0  0  0  0  0
    8.9557   -2.8435   -0.2960 H   0  0  0  0  0  0  0  0  0  0  0  0
    8.0107   -2.1006   -1.5981 H   0  0  0  0  0  0  0  0  0  0  0  0
    8.6582   -0.1050   -2.6021 H   0  0  0  0  0  0  0  0  0  0  0  0
   10.4463    1.4433   -3.1564 H   0  0  0  0  0  0  0  0  0  0  0  0
   12.4727    1.5235   -1.8128 H   0  0  0  0  0  0  0  0  0  0  0  0
   12.7259    0.0359    0.1218 H   0  0  0  0  0  0  0  0  0  0  0  0
   10.9715   -1.5453    0.7212 H   0  0  0  0  0  0  0  0  0  0  0  0
    9.2709   -1.0541    4.0941 H   0  0  0  0  0  0  0  0  0  0  0  0
    9.2046   -2.8264    4.3724 H   0  0  0  0  0  0  0  0  0  0  0  0
  1  2  1  0
  2  3  1  0
  3  4  1  0
  4  5  2  0
  4  6  1  0
  6  7  1  0
  7  8  1  0
  8  9  1  0
  9 10  1  0
 10 11  1  0
 11 12  2  0
 11 13  1  0
 13 14  1  0
 14 15  1  0
 15 16  2  0
 16 17  1  0
 17 18  2  0
 18 19  1  0
 19 20  2  0
 13 21  1  0
 21 22  1  0
 22 23  2  0
 22 24  1  0
 24 25  1  0
 25 26  1  0
 26 27  2  0
 27 28  1  0
 28 29  2  0
 29 30  1  0
 30 31  2  0
 24 32  1  0
 32 33  1  0
 33 34  2  0
 33 35  1  0
 35 36  1  0
 36 37  1  0
 37 38  2  0
 38 39  1  0
 39 40  2  0
 40 41  1  0
 41 42  2  0
 35 43  1  0
 43 44  1  0
 44 45  1  0
 44 46  2  0
  2 47  1  0
 47 48  2  0
 47 49  1  0
 49 50  1  0
 50 51  1  0
 51 52  1  0
 52 53  2  0
 53 54  1  0
 54 55  2  0
 55 56  1  0
 56 57  2  0
 50 58  1  0
 58 59  2  0
 58 60  1  0
 60 61  1  0
 60 62  2  0
 10  6  1  0
 20 15  1  0
 31 26  1  0
 42 37  1  0
 57 52  1  0
  1 63  1  0
  1 64  1  0
  1 65  1  0
  2 66  1  6
  3 67  1  0
  6 68  1  6
  7 69  1  0
  7 70  1  0
  8 71  1  0
  8 72  1  0
  9 73  1  0
  9 74  1  0
 13 75  1  6
 14 76  1  0
 14 77  1  0
 16 78  1  0
 17 79  1  0
 18 80  1  0
 19 81  1  0
 20 82  1  0
 21 83  1  0
 24 84  1  1
 25 85  1  0
 25 86  1  0
 27 87  1  0
 28 88  1  0
 29 89  1  0
 30 90  1  0
 31 91  1  0
 32 92  1  0
 35 93  1  6
 36 94  1  0
 36 95  1  0
 38 96  1  0
 39 97  1  0
 40 98  1  0
 41 99  1  0
 42100  1  0
 43101  1  0
 45102  1  0
 45103  1  0
 45104  1  0
 49105  1  0
 50106  1  1
 51107  1  0
 51108  1  0
 53109  1  0
 54110  1  0
 55111  1  0
 56112  1  0
 57113  1  0
 61114  1  0
 61115  1  0
M  END
$$$$
[H]c1c([H])c([H])c(C([H])([H])OC(=O)N([H])[C@]([H])(C(=O)N([H])[C@]([H])(C(=O)N([H])[C@]([H])(C(=O)N([H])[H])C([H])([H])c2c([H])n([H])c3c([H])c([H])c([H])c([H])c23)C([H])([H])c2c([H])c([H])c([H])c([H])c2[H])C([H])([H])C([H])(C([H])([H])[H])C([H])([H])[H])c([H])c1[H]
     RDKit          3D

 83 86  0  0  0  0  0  0  0  0999 V2000
   -4.4399    3.4384    2.5732 C   0  0  0  0  0  0  0  0  0  0  0  0
   -3.5464    2.9759    1.3948 C   0  0  0  0  0  0  0  0  0  0  0  0
   -4.1613    3.6369    0.1889 C   0  0  0  0  0  0  0  0  0  0  0  0
   -3.6057    1.5151    1.4128 C   0  0  0  0  0  0  0  0  0  0  0  0
   -2.8476    0.7395    0.3758 C   0  0  2  0  0  0  0  0  0  0  0  0
   -3.1871   -0.6782    0.7031 N   0  0  0  0  0  0  0  0  0  0  0  0
   -4.1977   -1.3712   -0.0098 C   0  0  0  0  0  0  0  0  0  0  0  0
   -4.8529   -0.8400   -0.9442 O   0  0  0  0  0  0  0  0  0  0  0  0
   -4.5066   -2.6825    0.3056 O   0  0  0  0  0  0  0  0  0  0  0  0
   -5.5080   -3.4344   -0.3261 C   0  0  0  0  0  0  0  0  0  0  0  0
   -5.3589   -3.6188   -1.7720 C   0  0  0  0  0  0  0  0  0  0  0  0
   -6.4891   -3.9028   -2.5603 C   0  0  0  0  0  0  0  0  0  0  0  0
   -6.3472   -4.0824   -3.9188 C   0  0  0  0  0  0  0  0  0  0  0  0
   -5.1000   -3.9818   -4.4894 C   0  0  0  0  0  0  0  0  0  0  0  0
   -3.9770   -3.7004   -3.7129 C   0  0  0  0  0  0  0  0  0  0  0  0
   -4.1140   -3.5204   -2.3587 C   0  0  0  0  0  0  0  0  0  0  0  0
   -1.3841    0.8400    0.4720 C   0  0  0  0  0  0  0  0  0  0  0  0
   -0.7359   -0.2085    0.8436 O   0  0  0  0  0  0  0  0  0  0  0  0
   -0.5895    1.9757    0.1943 N   0  0  0  0  0  0  0  0  0  0  0  0
    0.8258    2.0484    0.2682 C   0  0  1  0  0  0  0  0  0  0  0  0
    1.4887    2.6395    1.4377 C   0  0  0  0  0  0  0  0  0  0  0  0
    1.1325    4.0540    1.6417 C   0  0  0  0  0  0  0  0  0  0  0  0
    0.1117    4.4596    2.4658 C   0  0  0  0  0  0  0  0  0  0  0  0
   -0.1576    5.8005    2.6157 C   0  0  0  0  0  0  0  0  0  0  0  0
    0.5802    6.7660    1.9499 C   0  0  0  0  0  0  0  0  0  0  0  0
    1.6066    6.3653    1.1201 C   0  0  0  0  0  0  0  0  0  0  0  0
    1.8576    5.0305    0.9857 C   0  0  0  0  0  0  0  0  0  0  0  0
    1.4818    0.7404   -0.0805 C   0  0  0  0  0  0  0  0  0  0  0  0
    1.1374    0.0526   -1.0881 O   0  0  0  0  0  0  0  0  0  0  0  0
    2.5105    0.2531    0.7328 N   0  0  0  0  0  0  0  0  0  0  0  0
    3.2167   -1.0119    0.4431 C   0  0  1  0  0  0  0  0  0  0  0  0
    4.6808   -0.7216    0.5414 C   0  0  0  0  0  0  0  0  0  0  0  0
    5.5926   -1.8320    0.2703 C   0  0  0  0  0  0  0  0  0  0  0  0
    6.3027   -2.6276    1.1662 C   0  0  0  0  0  0  0  0  0  0  0  0
    7.0239   -3.5206    0.4733 N   0  0  0  0  0  0  0  0  0  0  0  0
    6.8272   -3.3574   -0.8530 C   0  0  0  0  0  0  0  0  0  0  0  0
    7.3254   -3.9957   -1.9765 C   0  0  0  0  0  0  0  0  0  0  0  0
    6.9662   -3.6255   -3.2508 C   0  0  0  0  0  0  0  0  0  0  0  0
    6.0691   -2.5702   -3.3906 C   0  0  0  0  0  0  0  0  0  0  0  0
    5.5847   -1.9464   -2.2692 C   0  0  0  0  0  0  0  0  0  0  0  0
    5.9442   -2.3167   -0.9894 C   0  0  0  0  0  0  0  0  0  0  0  0
    2.7655   -1.9741    1.4734 C   0  0  0  0  0  0  0  0  0  0  0  0
    3.2103   -3.3171    1.3915 N   0  0  0  0  0  0  0  0  0  0  0  0
    2.0134   -1.6193    2.3882 O   0  0  0  0  0  0  0  0  0  0  0  0
   -5.4123    2.9165    2.4407 H   0  0  0  0  0  0  0  0  0  0  0  0
   -4.5741    4.5250    2.5574 H   0  0  0  0  0  0  0  0  0  0  0  0
   -4.0169    3.0580    3.5262 H   0  0  0  0  0  0  0  0  0  0  0  0
   -2.5626    3.3731    1.6292 H   0  0  0  0  0  0  0  0  0  0  0  0
   -5.2614    3.5689    0.1558 H   0  0  0  0  0  0  0  0  0  0  0  0
   -3.7518    3.3439   -0.7730 H   0  0  0  0  0  0  0  0  0  0  0  0
   -3.9485    4.7367    0.2911 H   0  0  0  0  0  0  0  0  0  0  0  0
   -3.2009    1.1701    2.4097 H   0  0  0  0  0  0  0  0  0  0  0  0
   -4.6790    1.1991    1.4500 H   0  0  0  0  0  0  0  0  0  0  0  0
   -3.1869    0.9267   -0.6361 H   0  0  0  0  0  0  0  0  0  0  0  0
   -2.6879   -1.1663    1.4668 H   0  0  0  0  0  0  0  0  0  0  0  0
   -6.4777   -2.8623   -0.1710 H   0  0  0  0  0  0  0  0  0  0  0  0
   -5.6960   -4.3977    0.2045 H   0  0  0  0  0  0  0  0  0  0  0  0
   -7.4550   -3.9673   -2.0579 H   0  0  0  0  0  0  0  0  0  0  0  0
   -7.2128   -4.2983   -4.5265 H   0  0  0  0  0  0  0  0  0  0  0  0
   -4.9559   -4.1225   -5.5443 H   0  0  0  0  0  0  0  0  0  0  0  0
   -2.9944   -3.6252   -4.1926 H   0  0  0  0  0  0  0  0  0  0  0  0
   -3.2552   -3.3037   -1.7383 H   0  0  0  0  0  0  0  0  0  0  0  0
   -1.1218    2.8471   -0.1091 H   0  0  0  0  0  0  0  0  0  0  0  0
    1.1545    2.6556   -0.6911 H   0  0  0  0  0  0  0  0  0  0  0  0
    1.3509    2.0598    2.3847 H   0  0  0  0  0  0  0  0  0  0  0  0
    2.6001    2.6388    1.2692 H   0  0  0  0  0  0  0  0  0  0  0  0
   -0.5016    3.7308    3.0174 H   0  0  0  0  0  0  0  0  0  0  0  0
   -0.9717    6.1104    3.2723 H   0  0  0  0  0  0  0  0  0  0  0  0
    0.3887    7.8127    2.0475 H   0  0  0  0  0  0  0  0  0  0  0  0
    2.2147    7.1011    0.5784 H   0  0  0  0  0  0  0  0  0  0  0  0
    2.6592    4.7187    0.3390 H   0  0  0  0  0  0  0  0  0  0  0  0
    2.8393    0.7390    1.5945 H   0  0  0  0  0  0  0  0  0  0  0  0
    2.9417   -1.3044   -0.5629 H   0  0  0  0  0  0  0  0  0  0  0  0
    4.8926   -0.3052    1.5707 H   0  0  0  0  0  0  0  0  0  0  0  0
    4.9672    0.1124   -0.1589 H   0  0  0  0  0  0  0  0  0  0  0  0
    6.2486   -2.5052    2.2618 H   0  0  0  0  0  0  0  0  0  0  0  0
    7.6442   -4.2412    0.8950 H   0  0  0  0  0  0  0  0  0  0  0  0
    8.0253   -4.8139   -1.8170 H   0  0  0  0  0  0  0  0  0  0  0  0
    7.3686   -4.1423   -4.1289 H   0  0  0  0  0  0  0  0  0  0  0  0
    5.8104   -2.3102   -4.4077 H   0  0  0  0  0  0  0  0  0  0  0  0
    4.8893   -1.1279   -2.3675 H   0  0  0  0  0  0  0  0  0  0  0  0
    3.2383   -3.8446    0.4735 H   0  0  0  0  0  0  0  0  0  0  0  0
    3.5415   -3.8807    2.2090 H   0  0  0  0  0  0  0  0  0  0  0  0
  1  2  1  0
  2  3  1  0
  2  4  1  0
  4  5  1  0
  5  6  1  0
  6  7  1  0
  7  8  2  0
  7  9  1  0
  9 10  1  0
 10 11  1  0
 11 12  2  0
 12 13  1  0
 13 14  2  0
 14 15  1  0
 15 16  2  0
  5 17  1  0
 17 18  2  0
 17 19  1  0
 19 20  1  0
 20 21  1  0
 21 22  1  0
 22 23  2  0
 23 24  1  0
 24 25  2  0
 25 26  1  0
 26 27  2  0
 20 28  1  0
 28 29  2  0
 28 30  1  0
 30 31  1  0
 31 32  1  0
 32 33  1  0
 33 34  2  0
 34 35  1  0
 35 36  1  0
 36 37  2  0
 37 38  1  0
 38 39  2  0
 39 40  1  0
 40 41  2  0
 31 42  1  0
 42 43  1  0
 42 44  2  0
 16 11  1  0
 27 22  1  0
 41 33  1  0
 41 36  1  0
  1 45  1  0
  1 46  1  0
  1 47  1  0
  2 48  1  0
  3 49  1  0
  3 50  1  0
  3 51  1  0
  4 52  1  0
  4 53  1  0
  5 54  1  6
  6 55  1  0
 10 56  1  0
 10 57  1  0
 12 58  1  0
 13 59  1  0
 14 60  1  0
 15 61  1  0
 16 62  1  0
 19 63  1  0
 20 64  1  6
 21 65  1  0
 21 66  1  0
 23 67  1  0
 24 68  1  0
 25 69  1  0
 26 70  1  0
 27 71  1  0
 30 72  1  0
 31 73  1  6
 32 74  1  0
 32 75  1  0
 34 76  1  0
 35 77  1  0
 37 78  1  0
 38 79  1  0
 39 80  1  0
 40 81  1  0
 43 82  1  0
 43 83  1  0
M  END
$$$$
[H]c1c([H])c([H])c(C([H])([H])OC(=O)N([H])[C@]([H])(C(=O)N([H])[C@]([H])(C(=O)N([H])[C@]([H])(C(=O)N([H])[C@]([H])(C(=O)N([H])[C@]([H])(C(=O)N2C([H])([H])C([H])([H])C([H])([H])[C@@]2([H])C(=O)N([H])[C@]([H])(C(=O)N2C([H])([H])C([H])([H])C([H])([H])[C@@]2([H])C(=O)N([H])[C@@]([H])(C(=O)N([H])[H])C([H])([H])[H])C([H])([H])c2c([H])c([H])c(Cl)c([H])c2[H])C([H])([H])c2c([H])c([H])c([H])c([H])c2[H])C([H])([H])c2c([H])c([H])c([H])c([H])c2[H])C([H])([H])c2c([H])c([H])c([H])c([H])c2[H])C([H])([H])c2c([H])c([H])c([H])c([H])c2[H])C([H])([H])c2c([H])c([H])c([H])c([H])c2[H])c([H])c1[H]
     RDKit          3D

178186  0  0  0  0  0  0  0  0999 V2000
   12.1078    1.4604   -0.4054 C   0  0  0  0  0  0  0  0  0  0  0  0
   12.8691    0.1562   -0.6036 C   0  0  1  0  0  0  0  0  0  0  0  0
   12.0218   -0.9911   -0.4209 N   0  0  0  0  0  0  0  0  0  0  0  0
   12.1412   -1.8486    0.6741 C   0  0  0  0  0  0  0  0  0  0  0  0
   13.0654   -1.5471    1.5370 O   0  0  0  0  0  0  0  0  0  0  0  0
   11.3764   -3.0405    0.9666 C   0  0  2  0  0  0  0  0  0  0  0  0
   11.9474   -4.1751    0.0112 C   0  0  0  0  0  0  0  0  0  0  0  0
   10.7649   -5.0489   -0.2764 C   0  0  0  0  0  0  0  0  0  0  0  0
    9.8115   -4.6690    0.8496 C   0  0  0  0  0  0  0  0  0  0  0  0
    9.9910   -3.1583    0.7141 N   0  0  0  0  0  0  0  0  0  0  0  0
    8.8409   -2.4070    0.4781 C   0  0  0  0  0  0  0  0  0  0  0  0
    7.7748   -3.1134    0.1993 O   0  0  0  0  0  0  0  0  0  0  0  0
    8.5720   -0.9650    0.4820 C   0  0  2  0  0  0  0  0  0  0  0  0
    8.0557   -0.4741    1.8154 C   0  0  0  0  0  0  0  0  0  0  0  0
    9.0206   -0.7022    2.9414 C   0  0  0  0  0  0  0  0  0  0  0  0
    8.9867   -1.8545    3.6888 C   0  0  0  0  0  0  0  0  0  0  0  0
    9.8613   -2.0755    4.7187 C   0  0  0  0  0  0  0  0  0  0  0  0
   10.8238   -1.1281    5.0426 C   0  0  0  0  0  0  0  0  0  0  0  0
   11.9584   -1.3986    6.3522 Cl  0  0  0  0  0  0  0  0  0  0  0  0
   10.8424    0.0298    4.2732 C   0  0  0  0  0  0  0  0  0  0  0  0
    9.9685    0.2496    3.2456 C   0  0  0  0  0  0  0  0  0  0  0  0
    7.4145   -0.6954   -0.4475 N   0  0  0  0  0  0  0  0  0  0  0  0
    7.6289    0.0680   -1.6035 C   0  0  0  0  0  0  0  0  0  0  0  0
    8.8604    0.4726   -1.7213 O   0  0  0  0  0  0  0  0  0  0  0  0
    6.6813    0.4090   -2.6072 C   0  0  2  0  0  0  0  0  0  0  0  0
    7.2060    1.4623   -3.6022 C   0  0  0  0  0  0  0  0  0  0  0  0
    5.9743    1.6140   -4.4954 C   0  0  0  0  0  0  0  0  0  0  0  0
    4.8644    0.8333   -3.8101 C   0  0  0  0  0  0  0  0  0  0  0  0
    5.3756    0.8928   -2.4075 N   0  0  0  0  0  0  0  0  0  0  0  0
    4.5572    1.3306   -1.3528 C   0  0  0  0  0  0  0  0  0  0  0  0
    5.0361    1.2396   -0.1821 O   0  0  0  0  0  0  0  0  0  0  0  0
    3.2233    1.8612   -1.6209 C   0  0  2  0  0  0  0  0  0  0  0  0
    3.2654    3.2752   -2.2056 C   0  0  0  0  0  0  0  0  0  0  0  0
    3.9233    4.2388   -1.2970 C   0  0  0  0  0  0  0  0  0  0  0  0
    5.2764    4.4894   -1.3891 C   0  0  0  0  0  0  0  0  0  0  0  0
    5.9231    5.3838   -0.5680 C   0  0  0  0  0  0  0  0  0  0  0  0
    5.2053    6.0516    0.3758 C   0  0  0  0  0  0  0  0  0  0  0  0
    3.8473    5.8137    0.4865 C   0  0  0  0  0  0  0  0  0  0  0  0
    3.1904    4.9015   -0.3536 C   0  0  0  0  0  0  0  0  0  0  0  0
    2.3841    2.0018   -0.4166 N   0  0  0  0  0  0  0  0  0  0  0  0
    1.0404    1.5731   -0.5469 C   0  0  0  0  0  0  0  0  0  0  0  0
    0.7009    1.0846   -1.6795 O   0  0  0  0  0  0  0  0  0  0  0  0
   -0.0090    1.6387    0.4991 C   0  0  2  0  0  0  0  0  0  0  0  0
    0.4271    0.7738    1.6604 C   0  0  0  0  0  0  0  0  0  0  0  0
    0.6079   -0.6441    1.3386 C   0  0  0  0  0  0  0  0  0  0  0  0
   -0.5248   -1.4520    1.4268 C   0  0  0  0  0  0  0  0  0  0  0  0
   -0.4070   -2.7932    1.1609 C   0  0  0  0  0  0  0  0  0  0  0  0
    0.7851   -3.4017    0.8049 C   0  0  0  0  0  0  0  0  0  0  0  0
    1.9086   -2.6034    0.7186 C   0  0  0  0  0  0  0  0  0  0  0  0
    1.7915   -1.2494    0.9866 C   0  0  0  0  0  0  0  0  0  0  0  0
   -1.2539    1.1249   -0.0080 N   0  0  0  0  0  0  0  0  0  0  0  0
   -2.5459    1.7299    0.1340 C   0  0  0  0  0  0  0  0  0  0  0  0
   -2.5596    2.8094    0.7871 O   0  0  0  0  0  0  0  0  0  0  0  0
   -3.7163    1.1110   -0.4423 C   0  0  2  0  0  0  0  0  0  0  0  0
   -3.6635    1.2168   -1.9809 C   0  0  0  0  0  0  0  0  0  0  0  0
   -3.6492    2.6291   -2.4491 C   0  0  0  0  0  0  0  0  0  0  0  0
   -4.8143    3.3205   -2.6757 C   0  0  0  0  0  0  0  0  0  0  0  0
   -4.7455    4.6220   -3.1222 C   0  0  0  0  0  0  0  0  0  0  0  0
   -3.5394    5.2504   -3.3444 C   0  0  0  0  0  0  0  0  0  0  0  0
   -2.3811    4.5768   -3.1204 C   0  0  0  0  0  0  0  0  0  0  0  0
   -2.4486    3.2682   -2.6755 C   0  0  0  0  0  0  0  0  0  0  0  0
   -5.0255    1.6589   -0.0943 N   0  0  0  0  0  0  0  0  0  0  0  0
   -6.1461    0.8438   -0.1220 C   0  0  0  0  0  0  0  0  0  0  0  0
   -5.8973   -0.3923   -0.4823 O   0  0  0  0  0  0  0  0  0  0  0  0
   -7.5390    1.0995    0.1694 C   0  0  2  0  0  0  0  0  0  0  0  0
   -7.8905    1.7946    1.4373 C   0  0  0  0  0  0  0  0  0  0  0  0
   -7.4674    1.1713    2.6786 C   0  0  0  0  0  0  0  0  0  0  0  0
   -8.2071    0.1652    3.2916 C   0  0  0  0  0  0  0  0  0  0  0  0
   -7.7950   -0.4065    4.4890 C   0  0  0  0  0  0  0  0  0  0  0  0
   -6.6477   -0.0077    5.1239 C   0  0  0  0  0  0  0  0  0  0  0  0
   -5.9064    1.0079    4.5049 C   0  0  0  0  0  0  0  0  0  0  0  0
   -6.3138    1.5701    3.3191 C   0  0  0  0  0  0  0  0  0  0  0  0
   -8.3278   -0.0790   -0.1129 N   0  0  0  0  0  0  0  0  0  0  0  0
   -9.6764   -0.0813   -0.4744 C   0  0  0  0  0  0  0  0  0  0  0  0
  -10.3401    0.9723   -0.5083 O   0  0  0  0  0  0  0  0  0  0  0  0
  -10.3173   -1.3690   -0.8324 C   0  0  2  0  0  0  0  0  0  0  0  0
  -10.4751   -1.5207   -2.3513 C   0  0  0  0  0  0  0  0  0  0  0  0
  -11.3032   -0.4786   -2.9644 C   0  0  0  0  0  0  0  0  0  0  0  0
  -12.6645   -0.6140   -3.0885 C   0  0  0  0  0  0  0  0  0  0  0  0
  -13.4444    0.3773   -3.6667 C   0  0  0  0  0  0  0  0  0  0  0  0
  -12.8514    1.5248   -4.1321 C   0  0  0  0  0  0  0  0  0  0  0  0
  -11.4937    1.6931   -4.0261 C   0  0  0  0  0  0  0  0  0  0  0  0
  -10.7414    0.6859   -3.4427 C   0  0  0  0  0  0  0  0  0  0  0  0
  -11.5831   -1.7031   -0.2722 N   0  0  0  0  0  0  0  0  0  0  0  0
  -11.6439   -2.6985    0.7437 C   0  0  0  0  0  0  0  0  0  0  0  0
  -10.5423   -3.1908    1.1616 O   0  0  0  0  0  0  0  0  0  0  0  0
  -12.7918   -3.2034    1.3267 O   0  0  0  0  0  0  0  0  0  0  0  0
  -12.6121   -4.1748    2.3623 C   0  0  0  0  0  0  0  0  0  0  0  0
  -13.8636   -4.7172    2.9012 C   0  0  0  0  0  0  0  0  0  0  0  0
  -14.2159   -4.5510    4.2162 C   0  0  0  0  0  0  0  0  0  0  0  0
  -15.3856   -5.0834    4.7109 C   0  0  0  0  0  0  0  0  0  0  0  0
  -16.2393   -5.8008    3.8976 C   0  0  0  0  0  0  0  0  0  0  0  0
  -15.8957   -5.9780    2.5590 C   0  0  0  0  0  0  0  0  0  0  0  0
  -14.7363   -5.4399    2.1019 C   0  0  0  0  0  0  0  0  0  0  0  0
   13.5772    0.1929   -1.8978 C   0  0  0  0  0  0  0  0  0  0  0  0
   14.4387    1.2758   -2.1953 N   0  0  0  0  0  0  0  0  0  0  0  0
   13.4489   -0.6958   -2.7555 O   0  0  0  0  0  0  0  0  0  0  0  0
   12.7296    2.2109    0.1387 H   0  0  0  0  0  0  0  0  0  0  0  0
   11.2113    1.2488    0.2056 H   0  0  0  0  0  0  0  0  0  0  0  0
   11.7668    1.8731   -1.3751 H   0  0  0  0  0  0  0  0  0  0  0  0
   13.6469    0.1496    0.2087 H   0  0  0  0  0  0  0  0  0  0  0  0
   11.2940   -1.1916   -1.1318 H   0  0  0  0  0  0  0  0  0  0  0  0
   11.6583   -3.4723    1.9764 H   0  0  0  0  0  0  0  0  0  0  0  0
   12.3259   -3.6567   -0.8855 H   0  0  0  0  0  0  0  0  0  0  0  0
   12.7855   -4.6715    0.4940 H   0  0  0  0  0  0  0  0  0  0  0  0
   10.2671   -4.6337   -1.2037 H   0  0  0  0  0  0  0  0  0  0  0  0
   10.9609   -6.1152   -0.3392 H   0  0  0  0  0  0  0  0  0  0  0  0
   10.2674   -4.9600    1.7938 H   0  0  0  0  0  0  0  0  0  0  0  0
    8.7877   -4.9536    0.6870 H   0  0  0  0  0  0  0  0  0  0  0  0
    9.4066   -0.3634    0.1834 H   0  0  0  0  0  0  0  0  0  0  0  0
    7.9053    0.6387    1.7377 H   0  0  0  0  0  0  0  0  0  0  0  0
    7.0924   -0.9901    2.0898 H   0  0  0  0  0  0  0  0  0  0  0  0
    8.2276   -2.6104    3.4347 H   0  0  0  0  0  0  0  0  0  0  0  0
    9.8191   -2.9992    5.3127 H   0  0  0  0  0  0  0  0  0  0  0  0
   11.6078    0.7710    4.5372 H   0  0  0  0  0  0  0  0  0  0  0  0
   10.0312    1.1672    2.6833 H   0  0  0  0  0  0  0  0  0  0  0  0
    6.5184   -1.1013   -0.1841 H   0  0  0  0  0  0  0  0  0  0  0  0
    6.5709   -0.5059   -3.3058 H   0  0  0  0  0  0  0  0  0  0  0  0
    7.4412    2.4113   -3.1178 H   0  0  0  0  0  0  0  0  0  0  0  0
    8.0859    1.1111   -4.1373 H   0  0  0  0  0  0  0  0  0  0  0  0
    6.1904    1.0962   -5.4360 H   0  0  0  0  0  0  0  0  0  0  0  0
    5.6620    2.6688   -4.6127 H   0  0  0  0  0  0  0  0  0  0  0  0
    3.8722    1.1878   -3.9436 H   0  0  0  0  0  0  0  0  0  0  0  0
    4.9817   -0.2712   -4.0541 H   0  0  0  0  0  0  0  0  0  0  0  0
    2.6831    1.2605   -2.3396 H   0  0  0  0  0  0  0  0  0  0  0  0
    3.7408    3.3255   -3.1882 H   0  0  0  0  0  0  0  0  0  0  0  0
    2.2058    3.5967   -2.3133 H   0  0  0  0  0  0  0  0  0  0  0  0
    5.9006    3.9796   -2.1333 H   0  0  0  0  0  0  0  0  0  0  0  0
    6.9901    5.5436   -0.6803 H   0  0  0  0  0  0  0  0  0  0  0  0
    5.7131    6.7673    1.0438 H   0  0  0  0  0  0  0  0  0  0  0  0
    3.3060    6.3612    1.2371 H   0  0  0  0  0  0  0  0  0  0  0  0
    2.1259    4.7793   -0.1779 H   0  0  0  0  0  0  0  0  0  0  0  0
    2.7290    2.3934    0.4747 H   0  0  0  0  0  0  0  0  0  0  0  0
   -0.0894    2.6579    0.8927 H   0  0  0  0  0  0  0  0  0  0  0  0
   -0.2028    0.9736    2.5382 H   0  0  0  0  0  0  0  0  0  0  0  0
    1.4665    1.1488    1.9091 H   0  0  0  0  0  0  0  0  0  0  0  0
   -1.4999   -1.0506    1.7010 H   0  0  0  0  0  0  0  0  0  0  0  0
   -1.2987   -3.4133    1.2404 H   0  0  0  0  0  0  0  0  0  0  0  0
    0.8273   -4.4662    0.6041 H   0  0  0  0  0  0  0  0  0  0  0  0
    2.8432   -3.0675    0.4446 H   0  0  0  0  0  0  0  0  0  0  0  0
    2.6934   -0.6481    0.9239 H   0  0  0  0  0  0  0  0  0  0  0  0
   -1.2132    0.2255   -0.5240 H   0  0  0  0  0  0  0  0  0  0  0  0
   -3.7739    0.0108   -0.2520 H   0  0  0  0  0  0  0  0  0  0  0  0
   -4.5938    0.7658   -2.3940 H   0  0  0  0  0  0  0  0  0  0  0  0
   -2.7824    0.7140   -2.3956 H   0  0  0  0  0  0  0  0  0  0  0  0
   -5.7681    2.8621   -2.5105 H   0  0  0  0  0  0  0  0  0  0  0  0
   -5.6477    5.2117   -3.3190 H   0  0  0  0  0  0  0  0  0  0  0  0
   -3.5107    6.2761   -3.6983 H   0  0  0  0  0  0  0  0  0  0  0  0
   -1.4011    5.0443   -3.2868 H   0  0  0  0  0  0  0  0  0  0  0  0
   -1.5010    2.7259   -2.5142 H   0  0  0  0  0  0  0  0  0  0  0  0
   -5.0782    2.6463    0.1717 H   0  0  0  0  0  0  0  0  0  0  0  0
   -7.9244    1.8447   -0.6476 H   0  0  0  0  0  0  0  0  0  0  0  0
   -9.0227    1.9274    1.4848 H   0  0  0  0  0  0  0  0  0  0  0  0
   -7.5256    2.8727    1.4033 H   0  0  0  0  0  0  0  0  0  0  0  0
   -9.1069   -0.1568    2.8083 H   0  0  0  0  0  0  0  0  0  0  0  0
   -8.3600   -1.1965    4.9612 H   0  0  0  0  0  0  0  0  0  0  0  0
   -6.3118   -0.4315    6.0579 H   0  0  0  0  0  0  0  0  0  0  0  0
   -4.9964    1.3507    4.9791 H   0  0  0  0  0  0  0  0  0  0  0  0
   -5.7478    2.3569    2.8268 H   0  0  0  0  0  0  0  0  0  0  0  0
   -7.8282   -0.9986   -0.0245 H   0  0  0  0  0  0  0  0  0  0  0  0
   -9.6166   -2.2185   -0.5622 H   0  0  0  0  0  0  0  0  0  0  0  0
   -9.4797   -1.4881   -2.8491 H   0  0  0  0  0  0  0  0  0  0  0  0
  -10.8701   -2.5547   -2.5104 H   0  0  0  0  0  0  0  0  0  0  0  0
  -13.1728   -1.4987   -2.7494 H   0  0  0  0  0  0  0  0  0  0  0  0
  -14.5199    0.2411   -3.7491 H   0  0  0  0  0  0  0  0  0  0  0  0
  -13.4726    2.2916   -4.5819 H   0  0  0  0  0  0  0  0  0  0  0  0
  -11.0377    2.5934   -4.3859 H   0  0  0  0  0  0  0  0  0  0  0  0
   -9.6688    0.8734   -3.3898 H   0  0  0  0  0  0  0  0  0  0  0  0
  -12.4671   -1.2607   -0.5402 H   0  0  0  0  0  0  0  0  0  0  0  0
  -11.9915   -3.7517    3.1779 H   0  0  0  0  0  0  0  0  0  0  0  0
  -12.0677   -5.0064    1.8767 H   0  0  0  0  0  0  0  0  0  0  0  0
  -13.5389   -3.9792    4.8730 H   0  0  0  0  0  0  0  0  0  0  0  0
  -15.6563   -4.9507    5.7354 H   0  0  0  0  0  0  0  0  0  0  0  0
  -17.1309   -6.2074    4.3047 H   0  0  0  0  0  0  0  0  0  0  0  0
  -16.5830   -6.5421    1.9607 H   0  0  0  0  0  0  0  0  0  0  0  0
  -14.4405   -5.5594    1.0572 H   0  0  0  0  0  0  0  0  0  0  0  0
   13.9945    2.2448   -2.1337 H   0  0  0  0  0  0  0  0  0  0  0  0
   15.4387    1.1653   -2.4567 H   0  0  0  0  0  0  0  0  0  0  0  0
  1  2  1  0
  2  3  1  0
  3  4  1  0
  4  5  2  0
  4  6  1  0
  6  7  1  0
  7  8  1  0
  8  9  1  0
  9 10  1  0
 10 11  1  0
 11 12  2  0
 11 13  1  0
 13 14  1  0
 14 15  1  0
 15 16  2  0
 16 17  1  0
 17 18  2  0
 18 19  1  0
 18 20  1  0
 20 21  2  0
 13 22  1  0
 22 23  1  0
 23 24  2  0
 23 25  1  0
 25 26  1  0
 26 27  1  0
 27 28  1  0
 28 29  1  0
 29 30  1  0
 30 31  2  0
 30 32  1  0
 32 33  1  0
 33 34  1  0
 34 35  2  0
 35 36  1  0
 36 37  2  0
 37 38  1  0
 38 39  2  0
 32 40  1  0
 40 41  1  0
 41 42  2  0
 41 43  1  0
 43 44  1  0
 44 45  1  0
 45 46  2  0
 46 47  1  0
 47 48  2  0
 48 49  1  0
 49 50  2  0
 43 51  1  0
 51 52  1  0
 52 53  2  0
 52 54  1  0
 54 55  1  0
 55 56  1  0
 56 57  2  0
 57 58  1  0
 58 59  2  0
 59 60  1  0
 60 61  2  0
 54 62  1  0
 62 63  1  0
 63 64  2  0
 63 65  1  0
 65 66  1  0
 66 67  1  0
 67 68  2  0
 68 69  1  0
 69 70  2  0
 70 71  1  0
 71 72  2  0
 65 73  1  0
 73 74  1  0
 74 75  2  0
 74 76  1  0
 76 77  1  0
 77 78  1  0
 78 79  2  0
 79 80  1  0
 80 81  2  0
 81 82  1  0
 82 83  2  0
 76 84  1  0
 84 85  1  0
 85 86  2  0
 85 87  1  0
 87 88  1  0
 88 89  1  0
 89 90  2  0
 90 91  1  0
 91 92  2  0
 92 93  1  0
 93 94  2  0
  2 95  1  0
 95 96  1  0
 95 97  2  0
 10  6  1  0
 21 15  1  0
 29 25  1  0
 39 34  1  0
 50 45  1  0
 61 56  1  0
 72 67  1  0
 83 78  1  0
 94 89  1  0
  1 98  1  0
  1 99  1  0
  1100  1  0
  2101  1  1
  3102  1  0
  6103  1  1
  7104  1  0
  7105  1  0
  8106  1  0
  8107  1  0
  9108  1  0
  9109  1  0
 13110  1  6
 14111  1  0
 14112  1  0
 16113  1  0
 17114  1  0
 20115  1  0
 21116  1  0
 22117  1  0
 25118  1  6
 26119  1  0
 26120  1  0
 27121  1  0
 27122  1  0
 28123  1  0
 28124  1  0
 32125  1  6
 33126  1  0
 33127  1  0
 35128  1  0
 36129  1  0
 37130  1  0
 38131  1  0
 39132  1  0
 40133  1  0
 43134  1  1
 44135  1  0
 44136  1  0
 46137  1  0
 47138  1  0
 48139  1  0
 49140  1  0
 50141  1  0
 51142  1  0
 54143  1  6
 55144  1  0
 55145  1  0
 57146  1  0
 58147  1  0
 59148  1  0
 60149  1  0
 61150  1  0
 62151  1  0
 65152  1  6
 66153  1  0
 66154  1  0
 68155  1  0
 69156  1  0
 70157  1  0
 71158  1  0
 72159  1  0
 73160  1  0
 76161  1  1
 77162  1  0
 77163  1  0
 79164  1  0
 80165  1  0
 81166  1  0
 82167  1  0
 83168  1  0
 84169  1  0
 88170  1  0
 88171  1  0
 90172  1  0
 91173  1  0
 92174  1  0
 93175  1  0
 94176  1  0
 96177  1  0
 96178  1  0
M  END
$$$$
[H]c1nc(C(=O)N([H])c2c([H])c([H])c(N3C([H])([H])C([H])([H])N(C([H])([H])[H])C([H])([H])C3([H])[H])c([H])c2S(=O)(=O)c2c([H])c([H])c([H])c([H])c2[H])n([H])c1C#N
     RDKit          3D

 54 57  0  0  0  0  0  0  0  0999 V2000
    6.5548    0.8712    0.8379 C   0  0  0  0  0  0  0  0  0  0  0  0
    6.1505    0.1271   -0.3370 N   0  0  0  0  0  0  0  0  0  0  0  0
    5.4463    1.0272   -1.2131 C   0  0  0  0  0  0  0  0  0  0  0  0
    4.2044    0.3603   -1.7895 C   0  0  0  0  0  0  0  0  0  0  0  0
    3.3586   -0.0572   -0.7215 N   0  0  0  0  0  0  0  0  0  0  0  0
    3.9963   -0.8766    0.3226 C   0  0  0  0  0  0  0  0  0  0  0  0
    5.4381   -1.0772   -0.0399 C   0  0  0  0  0  0  0  0  0  0  0  0
    1.9986    0.2806   -0.6501 C   0  0  0  0  0  0  0  0  0  0  0  0
    1.3910    1.0758   -1.5606 C   0  0  0  0  0  0  0  0  0  0  0  0
    0.0305    1.3682   -1.4209 C   0  0  0  0  0  0  0  0  0  0  0  0
   -0.7075    0.8614   -0.3719 C   0  0  0  0  0  0  0  0  0  0  0  0
   -2.0469    1.2476   -0.2170 N   0  0  0  0  0  0  0  0  0  0  0  0
   -2.9092    1.8849   -1.1161 C   0  0  0  0  0  0  0  0  0  0  0  0
   -2.5786    2.2098   -2.2605 O   0  0  0  0  0  0  0  0  0  0  0  0
   -4.3069    2.2172   -0.7395 C   0  0  0  0  0  0  0  0  0  0  0  0
   -5.2517    2.8015   -1.4860 N   0  0  0  0  0  0  0  0  0  0  0  0
   -6.3743    2.9292   -0.7813 C   0  0  0  0  0  0  0  0  0  0  0  0
   -6.1453    2.4085    0.4645 C   0  0  0  0  0  0  0  0  0  0  0  0
   -4.8745    1.9793    0.4673 N   0  0  0  0  0  0  0  0  0  0  0  0
   -7.1062    2.3442    1.5518 C   0  0  0  0  0  0  0  0  0  0  0  0
   -7.8549    2.2877    2.4269 N   0  0  0  0  0  0  0  0  0  0  0  0
   -0.0962    0.0349    0.5783 C   0  0  0  0  0  0  0  0  0  0  0  0
    1.2451   -0.2345    0.4158 C   0  0  0  0  0  0  0  0  0  0  0  0
   -0.9190   -0.7317    1.8778 S   0  0  0  0  0  0  0  0  0  0  0  0
    0.1156   -1.4753    2.7291 O   0  0  0  0  0  0  0  0  0  0  0  0
   -1.6185    0.2322    2.8068 O   0  0  0  0  0  0  0  0  0  0  0  0
   -2.0660   -1.9535    1.4032 C   0  0  0  0  0  0  0  0  0  0  0  0
   -3.4052   -1.7150    1.3647 C   0  0  0  0  0  0  0  0  0  0  0  0
   -4.3350   -2.6786    0.9815 C   0  0  0  0  0  0  0  0  0  0  0  0
   -3.9202   -3.9377    0.6193 C   0  0  0  0  0  0  0  0  0  0  0  0
   -2.5647   -4.1905    0.6549 C   0  0  0  0  0  0  0  0  0  0  0  0
   -1.6477   -3.2344    1.0347 C   0  0  0  0  0  0  0  0  0  0  0  0
    7.4916    0.5095    1.2817 H   0  0  0  0  0  0  0  0  0  0  0  0
    5.6977    0.8613    1.5645 H   0  0  0  0  0  0  0  0  0  0  0  0
    6.7078    1.9476    0.5803 H   0  0  0  0  0  0  0  0  0  0  0  0
    6.0671    1.3144   -2.0829 H   0  0  0  0  0  0  0  0  0  0  0  0
    5.1098    1.9408   -0.7018 H   0  0  0  0  0  0  0  0  0  0  0  0
    3.7814    1.0668   -2.5049 H   0  0  0  0  0  0  0  0  0  0  0  0
    4.5116   -0.5985   -2.3207 H   0  0  0  0  0  0  0  0  0  0  0  0
    3.5222   -1.8672    0.4009 H   0  0  0  0  0  0  0  0  0  0  0  0
    3.9555   -0.3468    1.3019 H   0  0  0  0  0  0  0  0  0  0  0  0
    5.9371   -1.5618    0.8235 H   0  0  0  0  0  0  0  0  0  0  0  0
    5.4765   -1.7467   -0.9322 H   0  0  0  0  0  0  0  0  0  0  0  0
    1.9269    1.5069   -2.4161 H   0  0  0  0  0  0  0  0  0  0  0  0
   -0.3562    2.0180   -2.1950 H   0  0  0  0  0  0  0  0  0  0  0  0
   -2.4713    1.0530    0.7443 H   0  0  0  0  0  0  0  0  0  0  0  0
   -7.3139    3.3596   -1.1017 H   0  0  0  0  0  0  0  0  0  0  0  0
   -4.4104    1.5365    1.2781 H   0  0  0  0  0  0  0  0  0  0  0  0
    1.7833   -0.8612    1.1083 H   0  0  0  0  0  0  0  0  0  0  0  0
   -3.7760   -0.7362    1.6452 H   0  0  0  0  0  0  0  0  0  0  0  0
   -5.4008   -2.4766    0.9554 H   0  0  0  0  0  0  0  0  0  0  0  0
   -4.6287   -4.7081    0.3156 H   0  0  0  0  0  0  0  0  0  0  0  0
   -2.2292   -5.1872    0.3680 H   0  0  0  0  0  0  0  0  0  0  0  0
   -0.5833   -3.4108    1.0702 H   0  0  0  0  0  0  0  0  0  0  0  0
  1  2  1  0
  2  3  1  0
  3  4  1  0
  4  5  1  0
  5  6  1  0
  6  7  1  0
  5  8  1  0
  8  9  2  0
  9 10  1  0
 10 11  2  0
 11 12  1  0
 12 13  1  0
 13 14  2  0
 13 15  1  0
 15 16  2  0
 16 17  1  0
 17 18  2  0
 18 19  1  0
 18 20  1  0
 20 21  3  0
 11 22  1  0
 22 23  2  0
 22 24  1  0
 24 25  2  0
 24 26  2  0
 24 27  1  0
 27 28  2  0
 28 29  1  0
 29 30  2  0
 30 31  1  0
 31 32  2  0
  7  2  1  0
 23  8  1  0
 32 27  1  0
 19 15  1  0
  1 33  1  0
  1 34  1  0
  1 35  1  0
  3 36  1  0
  3 37  1  0
  4 38  1  0
  4 39  1  0
  6 40  1  0
  6 41  1  0
  7 42  1  0
  7 43  1  0
  9 44  1  0
 10 45  1  0
 12 46  1  0
 17 47  1  0
 19 48  1  0
 23 49  1  0
 28 50  1  0
 29 51  1  0
 30 52  1  0
 31 53  1  0
 32 54  1  0
M  END
$$$$
[H]c1c([H])c([C@@]2([H])C([H])([H])N(S(=O)(=O)c3c([H])c([H])c(OC([H])([H])[H])c([H])c3[H])[C@]([H])(C(=O)N3C([H])([H])C([H])([H])N(C([H])([H])[H])C([H])([H])C3([H])[H])C2([H])[H])c([H])c([H])c1C#N
     RDKit          3D

 61 64  0  0  0  0  0  0  0  0999 V2000
    8.0052   -1.3429   -0.5407 C   0  0  0  0  0  0  0  0  0  0  0  0
    7.2524   -0.3914    0.1852 O   0  0  0  0  0  0  0  0  0  0  0  0
    5.8942   -0.5588    0.3968 C   0  0  0  0  0  0  0  0  0  0  0  0
    5.2787   -1.6791   -0.1156 C   0  0  0  0  0  0  0  0  0  0  0  0
    3.9098   -1.8484    0.0973 C   0  0  0  0  0  0  0  0  0  0  0  0
    3.1544   -0.9385    0.7991 C   0  0  0  0  0  0  0  0  0  0  0  0
    3.7977    0.1736    1.3005 C   0  0  0  0  0  0  0  0  0  0  0  0
    5.1558    0.3652    1.1030 C   0  0  0  0  0  0  0  0  0  0  0  0
    1.4190   -1.1819    1.0514 S   0  0  0  0  0  0  0  0  0  0  0  0
    1.0725   -0.4728    2.3233 O   0  0  0  0  0  0  0  0  0  0  0  0
    1.1955   -2.6529    1.1324 O   0  0  0  0  0  0  0  0  0  0  0  0
    0.6216   -0.4418   -0.2720 N   0  0  0  0  0  0  0  0  0  0  0  0
    0.9748    0.9688   -0.1982 C   0  0  0  0  0  0  0  0  0  0  0  0
    0.0057    1.6711   -1.1236 C   0  0  1  0  0  0  0  0  0  0  0  0
   -1.2188    0.8006   -0.9652 C   0  0  0  0  0  0  0  0  0  0  0  0
   -0.7942   -0.4252   -0.1830 C   0  0  1  0  0  0  0  0  0  0  0  0
   -1.4535   -1.6252   -0.7595 C   0  0  0  0  0  0  0  0  0  0  0  0
   -0.7315   -2.5224   -1.2607 O   0  0  0  0  0  0  0  0  0  0  0  0
   -2.8362   -1.8310   -0.7850 N   0  0  0  0  0  0  0  0  0  0  0  0
   -3.7498   -0.8581   -0.2343 C   0  0  0  0  0  0  0  0  0  0  0  0
   -5.1064   -1.5519   -0.0390 C   0  0  0  0  0  0  0  0  0  0  0  0
   -4.9494   -2.8824    0.4588 N   0  0  0  0  0  0  0  0  0  0  0  0
   -4.4797   -2.9195    1.8280 C   0  0  0  0  0  0  0  0  0  0  0  0
   -4.2183   -3.7797   -0.3733 C   0  0  0  0  0  0  0  0  0  0  0  0
   -3.3977   -3.0222   -1.3615 C   0  0  0  0  0  0  0  0  0  0  0  0
   -0.3326    3.0320   -0.6526 C   0  0  0  0  0  0  0  0  0  0  0  0
   -0.1337    4.1087   -1.4784 C   0  0  0  0  0  0  0  0  0  0  0  0
   -0.4420    5.3787   -1.0580 C   0  0  0  0  0  0  0  0  0  0  0  0
   -0.9619    5.5970    0.2129 C   0  0  0  0  0  0  0  0  0  0  0  0
   -1.1597    4.5162    1.0372 C   0  0  0  0  0  0  0  0  0  0  0  0
   -0.8424    3.2371    0.5965 C   0  0  0  0  0  0  0  0  0  0  0  0
   -1.2672    6.9420    0.6035 C   0  0  0  0  0  0  0  0  0  0  0  0
   -1.4944    8.0243    0.9260 N   0  0  0  0  0  0  0  0  0  0  0  0
    9.0774   -1.0770   -0.4932 H   0  0  0  0  0  0  0  0  0  0  0  0
    7.8409   -2.3679   -0.1706 H   0  0  0  0  0  0  0  0  0  0  0  0
    7.7287   -1.2877   -1.6207 H   0  0  0  0  0  0  0  0  0  0  0  0
    5.8637   -2.4018   -0.6697 H   0  0  0  0  0  0  0  0  0  0  0  0
    3.4582   -2.7280   -0.3121 H   0  0  0  0  0  0  0  0  0  0  0  0
    3.2491    0.9155    1.8573 H   0  0  0  0  0  0  0  0  0  0  0  0
    5.6712    1.2382    1.4941 H   0  0  0  0  0  0  0  0  0  0  0  0
    2.0224    1.1627   -0.4437 H   0  0  0  0  0  0  0  0  0  0  0  0
    0.7285    1.3013    0.8314 H   0  0  0  0  0  0  0  0  0  0  0  0
    0.3983    1.6937   -2.1434 H   0  0  0  0  0  0  0  0  0  0  0  0
   -2.0513    1.3376   -0.4660 H   0  0  0  0  0  0  0  0  0  0  0  0
   -1.5028    0.4598   -1.9821 H   0  0  0  0  0  0  0  0  0  0  0  0
   -1.0842   -0.3630    0.8839 H   0  0  0  0  0  0  0  0  0  0  0  0
   -3.9593   -0.0295   -0.9416 H   0  0  0  0  0  0  0  0  0  0  0  0
   -3.4458   -0.5013    0.7666 H   0  0  0  0  0  0  0  0  0  0  0  0
   -5.6626   -0.9674    0.7055 H   0  0  0  0  0  0  0  0  0  0  0  0
   -5.6446   -1.5484   -1.0064 H   0  0  0  0  0  0  0  0  0  0  0  0
   -4.7845   -2.0152    2.3944 H   0  0  0  0  0  0  0  0  0  0  0  0
   -3.3843   -3.0749    1.8699 H   0  0  0  0  0  0  0  0  0  0  0  0
   -4.9482   -3.8037    2.3498 H   0  0  0  0  0  0  0  0  0  0  0  0
   -4.9026   -4.4700   -0.9110 H   0  0  0  0  0  0  0  0  0  0  0  0
   -3.5057   -4.3573    0.2783 H   0  0  0  0  0  0  0  0  0  0  0  0
   -4.0931   -2.6641   -2.1785 H   0  0  0  0  0  0  0  0  0  0  0  0
   -2.6393   -3.6512   -1.8732 H   0  0  0  0  0  0  0  0  0  0  0  0
    0.2735    3.9933   -2.4900 H   0  0  0  0  0  0  0  0  0  0  0  0
   -0.2834    6.2239   -1.7127 H   0  0  0  0  0  0  0  0  0  0  0  0
   -1.5626    4.6597    2.0300 H   0  0  0  0  0  0  0  0  0  0  0  0
   -1.0256    2.4335    1.3024 H   0  0  0  0  0  0  0  0  0  0  0  0
  1  2  1  0
  2  3  1  0
  3  4  2  0
  4  5  1  0
  5  6  2  0
  6  7  1  0
  7  8  2  0
  6  9  1  0
  9 10  2  0
  9 11  2  0
  9 12  1  0
 12 13  1  0
 13 14  1  0
 14 15  1  0
 15 16  1  0
 16 17  1  0
 17 18  2  0
 17 19  1  0
 19 20  1  0
 20 21  1  0
 21 22  1  0
 22 23  1  0
 22 24  1  0
 24 25  1  0
 14 26  1  0
 26 27  2  0
 27 28  1  0
 28 29  2  0
 29 30  1  0
 30 31  2  0
 29 32  1  0
 32 33  3  0
  8  3  1  0
 16 12  1  0
 25 19  1  0
 31 26  1  0
  1 34  1  0
  1 35  1  0
  1 36  1  0
  4 37  1  0
  5 38  1  0
  7 39  1  0
  8 40  1  0
 13 41  1  0
 13 42  1  0
 14 43  1  6
 15 44  1  0
 15 45  1  0
 16 46  1  1
 20 47  1  0
 20 48  1  0
 21 49  1  0
 21 50  1  0
 23 51  1  0
 23 52  1  0
 23 53  1  0
 24 54  1  0
 24 55  1  0
 25 56  1  0
 25 57  1  0
 27 58  1  0
 28 59  1  0
 30 60  1  0
 31 61  1  0
M  END
$$$$
[H]C1=C2C([H])([H])C([H])([H])[C@@]3([H])[C@]4([H])C([H])([H])C([H])([H])C(C([H])([H])[H])(C([H])([H])[H])[C@@]4(C([H])([H])[H])C([H])([H])C([H])([H])[C@]3([H])[C@@]2(C([H])([H])[H])C([H])([H])C([H])([H])C1=O
     RDKit          3D

 54 57  0  0  0  0  0  0  0  0999 V2000
   -1.9234    1.3951   -1.0864 C   0  0  0  0  0  0  0  0  0  0  0  0
   -1.8603    0.5149    0.1170 C   0  0  2  0  0  0  0  0  0  0  0  0
   -1.1095    1.1672    1.2187 C   0  0  0  0  0  0  0  0  0  0  0  0
    0.3315    1.3167    0.8497 C   0  0  0  0  0  0  0  0  0  0  0  0
    0.9966    0.0800    0.3718 C   0  0  1  0  0  0  0  0  0  0  0  0
    0.1831   -0.6558   -0.7030 C   0  0  1  0  0  0  0  0  0  0  0  0
    0.7832   -2.0363   -0.8402 C   0  0  0  0  0  0  0  0  0  0  0  0
    2.2048   -1.9354   -1.3488 C   0  0  0  0  0  0  0  0  0  0  0  0
    2.9615   -0.9626   -0.5066 C   0  0  0  0  0  0  0  0  0  0  0  0
    4.1316   -1.3250   -0.0210 C   0  0  0  0  0  0  0  0  0  0  0  0
    4.9274   -0.4207    0.8157 C   0  0  0  0  0  0  0  0  0  0  0  0
    6.1498   -0.4998    0.9951 O   0  0  0  0  0  0  0  0  0  0  0  0
    4.1573    0.6659    1.4837 C   0  0  0  0  0  0  0  0  0  0  0  0
    3.2094    1.2960    0.4909 C   0  0  0  0  0  0  0  0  0  0  0  0
    2.3402    0.3618   -0.2615 C   0  0  2  0  0  0  0  0  0  0  0  0
    2.1384    1.0008   -1.6499 C   0  0  0  0  0  0  0  0  0  0  0  0
   -1.1750   -0.8163   -0.1212 C   0  0  2  0  0  0  0  0  0  0  0  0
   -2.1772   -1.5417   -0.9172 C   0  0  0  0  0  0  0  0  0  0  0  0
   -3.4034   -1.3599   -0.0405 C   0  0  0  0  0  0  0  0  0  0  0  0
   -3.2452    0.0520    0.4879 C   0  0  0  0  0  0  0  0  0  0  0  0
   -4.3347    0.8722   -0.1724 C   0  0  0  0  0  0  0  0  0  0  0  0
   -3.4943    0.1061    1.9780 C   0  0  0  0  0  0  0  0  0  0  0  0
   -2.0882    2.4469   -0.7095 H   0  0  0  0  0  0  0  0  0  0  0  0
   -2.8200    1.2016   -1.7342 H   0  0  0  0  0  0  0  0  0  0  0  0
   -1.0292    1.4346   -1.7042 H   0  0  0  0  0  0  0  0  0  0  0  0
   -1.4992    2.1778    1.4662 H   0  0  0  0  0  0  0  0  0  0  0  0
   -1.1858    0.5143    2.1215 H   0  0  0  0  0  0  0  0  0  0  0  0
    0.8520    1.5968    1.8171 H   0  0  0  0  0  0  0  0  0  0  0  0
    0.4678    2.1956    0.1922 H   0  0  0  0  0  0  0  0  0  0  0  0
    1.1622   -0.6187    1.1990 H   0  0  0  0  0  0  0  0  0  0  0  0
    0.2199   -0.1700   -1.6731 H   0  0  0  0  0  0  0  0  0  0  0  0
    0.1959   -2.6068   -1.5946 H   0  0  0  0  0  0  0  0  0  0  0  0
    0.7446   -2.5645    0.1363 H   0  0  0  0  0  0  0  0  0  0  0  0
    2.6295   -2.9672   -1.2231 H   0  0  0  0  0  0  0  0  0  0  0  0
    2.2148   -1.7214   -2.4131 H   0  0  0  0  0  0  0  0  0  0  0  0
    4.5609   -2.3068   -0.2172 H   0  0  0  0  0  0  0  0  0  0  0  0
    3.6663    0.3369    2.4124 H   0  0  0  0  0  0  0  0  0  0  0  0
    4.8859    1.4553    1.7565 H   0  0  0  0  0  0  0  0  0  0  0  0
    3.8927    1.8106   -0.2560 H   0  0  0  0  0  0  0  0  0  0  0  0
    2.6190    2.0712    0.9860 H   0  0  0  0  0  0  0  0  0  0  0  0
    3.0774    1.5827   -1.8986 H   0  0  0  0  0  0  0  0  0  0  0  0
    2.0365    0.2735   -2.4478 H   0  0  0  0  0  0  0  0  0  0  0  0
    1.3388    1.7386   -1.6489 H   0  0  0  0  0  0  0  0  0  0  0  0
   -1.0751   -1.2985    0.8710 H   0  0  0  0  0  0  0  0  0  0  0  0
   -1.9252   -2.6235   -0.9652 H   0  0  0  0  0  0  0  0  0  0  0  0
   -2.3554   -1.1198   -1.9202 H   0  0  0  0  0  0  0  0  0  0  0  0
   -4.3445   -1.5133   -0.5834 H   0  0  0  0  0  0  0  0  0  0  0  0
   -3.3113   -2.0875    0.8012 H   0  0  0  0  0  0  0  0  0  0  0  0
   -5.2665    0.7650    0.4512 H   0  0  0  0  0  0  0  0  0  0  0  0
   -4.6128    0.4139   -1.1579 H   0  0  0  0  0  0  0  0  0  0  0  0
   -4.0606    1.9317   -0.2880 H   0  0  0  0  0  0  0  0  0  0  0  0
   -3.0448   -0.7375    2.5213 H   0  0  0  0  0  0  0  0  0  0  0  0
   -3.1355    1.0358    2.4157 H   0  0  0  0  0  0  0  0  0  0  0  0
   -4.6019    0.0774    2.1477 H   0  0  0  0  0  0  0  0  0  0  0  0
  2  1  1  6
  2  3  1  0
  3  4  1  0
  4  5  1  0
  5  6  1  0
  6  7  1  0
  7  8  1  0
  8  9  1  0
  9 10  2  0
 10 11  1  0
 11 12  2  0
 11 13  1  0
 13 14  1  0
 14 15  1  0
 15 16  1  6
  6 17  1  0
 17 18  1  0
 18 19  1  0
 19 20  1  0
 20 21  1  0
 20 22  1  0
 17  2  1  0
 20  2  1  0
 15  5  1  0
 15  9  1  0
  1 23  1  0
  1 24  1  0
  1 25  1  0
  3 26  1  0
  3 27  1  0
  4 28  1  0
  4 29  1  0
  5 30  1  1
  6 31  1  6
  7 32  1  0
  7 33  1  0
  8 34  1  0
  8 35  1  0
 10 36  1  0
 13 37  1  0
 13 38  1  0
 14 39  1  0
 14 40  1  0
 16 41  1  0
 16 42  1  0
 16 43  1  0
 17 44  1  1
 18 45  1  0
 18 46  1  0
 19 47  1  0
 19 48  1  0
 21 49  1  0
 21 50  1  0
 21 51  1  0
 22 52  1  0
 22 53  1  0
 22 54  1  0
M  END
$$$$
[H]O[C@]1([H])[C@]([H])([C@]([H])(O[H])C([H])([H])[H])O[C@@]([H])(n2c([H])nc3c(N([H])[H])nc([H])nc32)[C@]1([H])O[H]
     RDKit          3D

 35 37  0  0  0  0  0  0  0  0999 V2000
   -3.6187   -0.5755   -1.4268 C   0  0  0  0  0  0  0  0  0  0  0  0
   -3.4783    0.5211   -0.4172 C   0  0  1  0  0  0  0  0  0  0  0  0
   -4.5011    0.5779    0.5030 O   0  0  0  0  0  0  0  0  0  0  0  0
   -2.1456    0.5136    0.2925 C   0  0  2  0  0  0  0  0  0  0  0  0
   -1.0760    0.4578   -0.5627 O   0  0  0  0  0  0  0  0  0  0  0  0
   -0.2588   -0.5768   -0.1996 C   0  0  2  0  0  0  0  0  0  0  0  0
   -0.4965   -0.7581    1.3058 C   0  0  2  0  0  0  0  0  0  0  0  0
   -0.1359   -2.0213    1.7281 O   0  0  0  0  0  0  0  0  0  0  0  0
   -2.0166   -0.6042    1.2879 C   0  0  2  0  0  0  0  0  0  0  0  0
   -2.5221   -1.8068    0.8076 O   0  0  0  0  0  0  0  0  0  0  0  0
    1.1280   -0.3827   -0.5028 N   0  0  0  0  0  0  0  0  0  0  0  0
    1.8746   -1.1483   -1.3159 C   0  0  0  0  0  0  0  0  0  0  0  0
    3.1341   -0.6829   -1.3753 N   0  0  0  0  0  0  0  0  0  0  0  0
    3.2336    0.3887   -0.6069 C   0  0  0  0  0  0  0  0  0  0  0  0
    4.2574    1.2611   -0.2861 C   0  0  0  0  0  0  0  0  0  0  0  0
    5.5396    1.0546   -0.8546 N   0  0  0  0  0  0  0  0  0  0  0  0
    3.9492    2.2576    0.5579 N   0  0  0  0  0  0  0  0  0  0  0  0
    2.7305    2.4488    1.0944 C   0  0  0  0  0  0  0  0  0  0  0  0
    1.7464    1.5943    0.7741 N   0  0  0  0  0  0  0  0  0  0  0  0
    1.9616    0.5800   -0.0530 C   0  0  0  0  0  0  0  0  0  0  0  0
   -4.2096   -1.4149   -1.0038 H   0  0  0  0  0  0  0  0  0  0  0  0
   -2.6553   -0.9359   -1.8188 H   0  0  0  0  0  0  0  0  0  0  0  0
   -4.2028   -0.2438   -2.3345 H   0  0  0  0  0  0  0  0  0  0  0  0
   -3.5131    1.4917   -0.9911 H   0  0  0  0  0  0  0  0  0  0  0  0
   -4.6661   -0.2731    0.9728 H   0  0  0  0  0  0  0  0  0  0  0  0
   -2.0737    1.4701    0.8611 H   0  0  0  0  0  0  0  0  0  0  0  0
   -0.6285   -1.5128   -0.6651 H   0  0  0  0  0  0  0  0  0  0  0  0
   -0.0603    0.0598    1.8819 H   0  0  0  0  0  0  0  0  0  0  0  0
    0.8529   -2.0572    1.7338 H   0  0  0  0  0  0  0  0  0  0  0  0
   -2.4112   -0.3417    2.2853 H   0  0  0  0  0  0  0  0  0  0  0  0
   -1.8665   -2.5370    0.8009 H   0  0  0  0  0  0  0  0  0  0  0  0
    1.5188   -2.0289   -1.8588 H   0  0  0  0  0  0  0  0  0  0  0  0
    6.2541    0.5566   -0.2909 H   0  0  0  0  0  0  0  0  0  0  0  0
    5.8081    1.3744   -1.8085 H   0  0  0  0  0  0  0  0  0  0  0  0
    2.5479    3.2935    1.7844 H   0  0  0  0  0  0  0  0  0  0  0  0
  1  2  1  0
  2  3  1  0
  2  4  1  0
  4  5  1  0
  5  6  1  0
  6  7  1  0
  7  8  1  0
  7  9  1  0
  9 10  1  0
  6 11  1  0
 11 12  1  0
 12 13  2  0
 13 14  1  0
 14 15  2  0
 15 16  1  0
 15 17  1  0
 17 18  2  0
 18 19  1  0
 19 20  2  0
  9  4  1  0
 20 11  1  0
 20 14  1  0
  1 21  1  0
  1 22  1  0
  1 23  1  0
  2 24  1  6
  3 25  1  0
  4 26  1  1
  6 27  1  6
  7 28  1  1
  8 29  1  0
  9 30  1  1
 10 31  1  0
 12 32  1  0
 16 33  1  0
 16 34  1  0
 18 35  1  0
M  END
$$$$
[H]c1c([H])c(N2C([H])([H])C([H])([H])N(C(=O)[C@]3([H])C([H])([H])[C@@]3([H])c3c([H])c([H])c(F)c([H])c3[H])[C@]([H])(C([H])([H])[H])C2([H])[H])c([H])c([H])c1F
     RDKit          3D

 48 51  0  0  0  0  0  0  0  0999 V2000
   -1.3134    3.1702   -1.5760 C   0  0  0  0  0  0  0  0  0  0  0  0
   -1.5372    1.7484   -1.2815 C   0  0  2  0  0  0  0  0  0  0  0  0
   -2.1457    1.4387    0.0753 C   0  0  0  0  0  0  0  0  0  0  0  0
   -2.5828    0.0576   -0.0082 N   0  0  0  0  0  0  0  0  0  0  0  0
   -2.0506   -0.8920   -0.9361 C   0  0  0  0  0  0  0  0  0  0  0  0
   -0.7450   -0.5099   -1.5967 C   0  0  0  0  0  0  0  0  0  0  0  0
   -0.3722    0.8580   -1.3588 N   0  0  0  0  0  0  0  0  0  0  0  0
    0.9384    1.3218   -1.1940 C   0  0  0  0  0  0  0  0  0  0  0  0
    1.0365    2.5994   -0.9162 O   0  0  0  0  0  0  0  0  0  0  0  0
    2.2337    0.6582   -1.2745 C   0  0  2  0  0  0  0  0  0  0  0  0
    2.5385   -0.5476   -2.0607 C   0  0  0  0  0  0  0  0  0  0  0  0
    2.5752   -0.6254   -0.5886 C   0  0  1  0  0  0  0  0  0  0  0  0
    3.9573   -0.7758    0.0130 C   0  0  0  0  0  0  0  0  0  0  0  0
    4.1238   -1.5429    1.1206 C   0  0  0  0  0  0  0  0  0  0  0  0
    5.4032   -1.6710    1.6606 C   0  0  0  0  0  0  0  0  0  0  0  0
    6.4533   -1.0200    1.0596 C   0  0  0  0  0  0  0  0  0  0  0  0
    7.7261   -1.1301    1.5678 F   0  0  0  0  0  0  0  0  0  0  0  0
    6.2895   -0.2407   -0.0634 C   0  0  0  0  0  0  0  0  0  0  0  0
    4.9965   -0.1212   -0.5961 C   0  0  0  0  0  0  0  0  0  0  0  0
   -3.5973   -0.3810    0.8743 C   0  0  0  0  0  0  0  0  0  0  0  0
   -4.1814   -1.6355    0.7800 C   0  0  0  0  0  0  0  0  0  0  0  0
   -5.1601   -1.9910    1.6695 C   0  0  0  0  0  0  0  0  0  0  0  0
   -5.5677   -1.1158    2.6539 C   0  0  0  0  0  0  0  0  0  0  0  0
   -6.5438   -1.5157    3.5132 F   0  0  0  0  0  0  0  0  0  0  0  0
   -5.0155    0.1409    2.7843 C   0  0  0  0  0  0  0  0  0  0  0  0
   -4.0222    0.4751    1.8664 C   0  0  0  0  0  0  0  0  0  0  0  0
   -1.0111    3.8309   -0.7688 H   0  0  0  0  0  0  0  0  0  0  0  0
   -2.2825    3.6365   -1.9604 H   0  0  0  0  0  0  0  0  0  0  0  0
   -0.6299    3.2674   -2.4602 H   0  0  0  0  0  0  0  0  0  0  0  0
   -2.2818    1.3359   -2.0215 H   0  0  0  0  0  0  0  0  0  0  0  0
   -1.4921    1.6567    0.9223 H   0  0  0  0  0  0  0  0  0  0  0  0
   -3.0205    2.1426    0.1470 H   0  0  0  0  0  0  0  0  0  0  0  0
   -1.9053   -1.8577   -0.3616 H   0  0  0  0  0  0  0  0  0  0  0  0
   -2.7840   -1.1338   -1.7375 H   0  0  0  0  0  0  0  0  0  0  0  0
   -0.8306   -0.5973   -2.7242 H   0  0  0  0  0  0  0  0  0  0  0  0
    0.0122   -1.2057   -1.2927 H   0  0  0  0  0  0  0  0  0  0  0  0
    3.1112    1.4017   -1.1642 H   0  0  0  0  0  0  0  0  0  0  0  0
    3.5415   -0.5184   -2.6096 H   0  0  0  0  0  0  0  0  0  0  0  0
    1.7613   -0.9986   -2.6879 H   0  0  0  0  0  0  0  0  0  0  0  0
    1.7995   -1.1906   -0.0621 H   0  0  0  0  0  0  0  0  0  0  0  0
    3.3281   -2.0558    1.6032 H   0  0  0  0  0  0  0  0  0  0  0  0
    5.5931   -2.2655    2.5377 H   0  0  0  0  0  0  0  0  0  0  0  0
    7.1288    0.2594   -0.5193 H   0  0  0  0  0  0  0  0  0  0  0  0
    4.9072    0.4982   -1.4761 H   0  0  0  0  0  0  0  0  0  0  0  0
   -3.8383   -2.2860   -0.0006 H   0  0  0  0  0  0  0  0  0  0  0  0
   -5.6396   -2.9763    1.6193 H   0  0  0  0  0  0  0  0  0  0  0  0
   -5.3288    0.8396    3.5501 H   0  0  0  0  0  0  0  0  0  0  0  0
   -3.5756    1.4641    1.9599 H   0  0  0  0  0  0  0  0  0  0  0  0
  1  2  1  0
  2  3  1  0
  3  4  1  0
  4  5  1  0
  5  6  1  0
  6  7  1  0
  7  8  1  0
  8  9  2  0
  8 10  1  0
 10 11  1  0
 11 12  1  0
 12 13  1  0
 13 14  2  0
 14 15  1  0
 15 16  2  0
 16 17  1  0
 16 18  1  0
 18 19  2  0
  4 20  1  0
 20 21  2  0
 21 22  1  0
 22 23  2  0
 23 24  1  0
 23 25  1  0
 25 26  2  0
  7  2  1  0
 12 10  1  0
 19 13  1  0
 26 20  1  0
  1 27  1  0
  1 28  1  0
  1 29  1  0
  2 30  1  6
  3 31  1  0
  3 32  1  0
  5 33  1  0
  5 34  1  0
  6 35  1  0
  6 36  1  0
 10 37  1  6
 11 38  1  0
 11 39  1  0
 12 40  1  1
 14 41  1  0
 15 42  1  0
 18 43  1  0
 19 44  1  0
 21 45  1  0
 22 46  1  0
 25 47  1  0
 26 48  1  0
M  END
$$$$
[H]c1nc(N2C([H])([H])C([H])([H])N(C(=O)c3c([H])c([H])c([H])c(-c4c([H])c([H])c([H])c(OC(F)(F)F)c4[H])c3[H])[C@]([H])(C([H])([H])[H])C2([H])[H])nc([H])c1C#N
     RDKit          3D

 54 57  0  0  0  0  0  0  0  0999 V2000
    2.4765    3.5099   -0.2685 C   0  0  0  0  0  0  0  0  0  0  0  0
    2.4540    1.9915   -0.1181 C   0  0  2  0  0  0  0  0  0  0  0  0
    3.9464    1.5992   -0.3099 C   0  0  0  0  0  0  0  0  0  0  0  0
    4.0768    0.2296   -0.7363 N   0  0  0  0  0  0  0  0  0  0  0  0
    3.4012   -0.1449   -1.9864 C   0  0  0  0  0  0  0  0  0  0  0  0
    2.4201    0.9662   -2.3428 C   0  0  0  0  0  0  0  0  0  0  0  0
    1.6680    1.3392   -1.1049 N   0  0  0  0  0  0  0  0  0  0  0  0
    0.3234    0.9980   -1.1259 C   0  0  0  0  0  0  0  0  0  0  0  0
   -0.0169    0.3708   -2.2422 O   0  0  0  0  0  0  0  0  0  0  0  0
   -0.7754    1.1742   -0.2061 C   0  0  0  0  0  0  0  0  0  0  0  0
   -0.6800    1.8629    0.9682 C   0  0  0  0  0  0  0  0  0  0  0  0
   -1.8043    1.9560    1.7992 C   0  0  0  0  0  0  0  0  0  0  0  0
   -2.9988    1.3681    1.4527 C   0  0  0  0  0  0  0  0  0  0  0  0
   -3.1302    0.6655    0.2735 C   0  0  0  0  0  0  0  0  0  0  0  0
   -2.0248    0.5863   -0.5205 C   0  0  0  0  0  0  0  0  0  0  0  0
   -4.3763    0.0263   -0.1357 C   0  0  0  0  0  0  0  0  0  0  0  0
   -4.7342   -0.1149   -1.4607 C   0  0  0  0  0  0  0  0  0  0  0  0
   -5.9159   -0.7205   -1.8512 C   0  0  0  0  0  0  0  0  0  0  0  0
   -6.7876   -1.2106   -0.9009 C   0  0  0  0  0  0  0  0  0  0  0  0
   -6.4510   -1.0816    0.4517 C   0  0  0  0  0  0  0  0  0  0  0  0
   -7.3379   -1.5795    1.3977 O   0  0  0  0  0  0  0  0  0  0  0  0
   -7.1696   -2.9423    1.8082 C   0  0  0  0  0  0  0  0  0  0  0  0
   -8.1369   -3.2629    2.7496 F   0  0  0  0  0  0  0  0  0  0  0  0
   -5.9072   -3.1813    2.2808 F   0  0  0  0  0  0  0  0  0  0  0  0
   -7.3922   -3.7739    0.7187 F   0  0  0  0  0  0  0  0  0  0  0  0
   -5.2567   -0.4681    0.8048 C   0  0  0  0  0  0  0  0  0  0  0  0
    4.8103   -0.7235   -0.0109 C   0  0  0  0  0  0  0  0  0  0  0  0
    4.9277   -2.0037   -0.4161 N   0  0  0  0  0  0  0  0  0  0  0  0
    5.6386   -2.8835    0.3046 C   0  0  0  0  0  0  0  0  0  0  0  0
    6.2789   -2.5418    1.4779 C   0  0  0  0  0  0  0  0  0  0  0  0
    6.1512   -1.2304    1.8814 C   0  0  0  0  0  0  0  0  0  0  0  0
    5.4333   -0.3797    1.1362 N   0  0  0  0  0  0  0  0  0  0  0  0
    7.0378   -3.5026    2.2376 C   0  0  0  0  0  0  0  0  0  0  0  0
    7.6592   -4.2883    2.8373 N   0  0  0  0  0  0  0  0  0  0  0  0
    1.5898    3.9885    0.1784 H   0  0  0  0  0  0  0  0  0  0  0  0
    2.6092    3.7285   -1.3384 H   0  0  0  0  0  0  0  0  0  0  0  0
    3.3617    3.8820    0.2914 H   0  0  0  0  0  0  0  0  0  0  0  0
    2.1954    1.7482    0.9178 H   0  0  0  0  0  0  0  0  0  0  0  0
    4.4317    1.7737    0.6500 H   0  0  0  0  0  0  0  0  0  0  0  0
    4.3154    2.2270   -1.1352 H   0  0  0  0  0  0  0  0  0  0  0  0
    2.8911   -1.1147   -1.9096 H   0  0  0  0  0  0  0  0  0  0  0  0
    4.1810   -0.2169   -2.7629 H   0  0  0  0  0  0  0  0  0  0  0  0
    3.0031    1.8451   -2.6476 H   0  0  0  0  0  0  0  0  0  0  0  0
    1.7802    0.6232   -3.1361 H   0  0  0  0  0  0  0  0  0  0  0  0
    0.1971    2.3604    1.3141 H   0  0  0  0  0  0  0  0  0  0  0  0
   -1.6941    2.5160    2.7357 H   0  0  0  0  0  0  0  0  0  0  0  0
   -3.8796    1.4381    2.0984 H   0  0  0  0  0  0  0  0  0  0  0  0
   -2.1341    0.0293   -1.4514 H   0  0  0  0  0  0  0  0  0  0  0  0
   -4.0631    0.2628   -2.2069 H   0  0  0  0  0  0  0  0  0  0  0  0
   -6.1978   -0.8317   -2.8947 H   0  0  0  0  0  0  0  0  0  0  0  0
   -7.7247   -1.6930   -1.1467 H   0  0  0  0  0  0  0  0  0  0  0  0
   -5.0033   -0.3727    1.8706 H   0  0  0  0  0  0  0  0  0  0  0  0
    5.6974   -3.8930   -0.0688 H   0  0  0  0  0  0  0  0  0  0  0  0
    6.6359   -0.9106    2.7978 H   0  0  0  0  0  0  0  0  0  0  0  0
  1  2  1  0
  2  3  1  0
  3  4  1  0
  4  5  1  0
  5  6  1  0
  6  7  1  0
  7  8  1  0
  8  9  2  0
  8 10  1  0
 10 11  2  0
 11 12  1  0
 12 13  2  0
 13 14  1  0
 14 15  2  0
 14 16  1  0
 16 17  2  0
 17 18  1  0
 18 19  2  0
 19 20  1  0
 20 21  1  0
 21 22  1  0
 22 23  1  0
 22 24  1  0
 22 25  1  0
 20 26  2  0
  4 27  1  0
 27 28  2  0
 28 29  1  0
 29 30  2  0
 30 31  1  0
 31 32  2  0
 30 33  1  0
 33 34  3  0
  7  2  1  0
 15 10  1  0
 26 16  1  0
 32 27  1  0
  1 35  1  0
  1 36  1  0
  1 37  1  0
  2 38  1  1
  3 39  1  0
  3 40  1  0
  5 41  1  0
  5 42  1  0
  6 43  1  0
  6 44  1  0
 11 45  1  0
 12 46  1  0
 13 47  1  0
 15 48  1  0
 17 49  1  0
 18 50  1  0
 19 51  1  0
 26 52  1  0
 29 53  1  0
 31 54  1  0
M  END
$$$$
[H]Oc1c([H])c([H])c(C([H])([H])[C@]([H])(C(=O)N2C([H])([H])C([H])([H])C([H])([H])[C@@]2([H])C(=O)N([H])[C@@]([H])(C([H])([H])[H])C(F)(F)F)N([H])C(=O)[C@@]2([H])N(C(=O)[C@@]([H])(N([H])[H])C([H])([H])c3c([H])c([H])c(C(C([H])([H])[H])(C([H])([H])[H])C([H])([H])[H])c([H])c3[H])C([H])([H])C([H])([H])C2([H])[H])c([H])c1[H]
     RDKit          3D

 94 97  0  0  0  0  0  0  0  0999 V2000
   -9.1179    2.7363   -1.6934 C   0  0  0  0  0  0  0  0  0  0  0  0
   -8.3609    1.9062   -0.6754 C   0  0  2  0  0  0  0  0  0  0  0  0
   -7.2737    1.1750   -1.2787 N   0  0  0  0  0  0  0  0  0  0  0  0
   -5.9619    1.2248   -0.7802 C   0  0  0  0  0  0  0  0  0  0  0  0
   -5.7851    1.9720    0.2442 O   0  0  0  0  0  0  0  0  0  0  0  0
   -4.7857    0.5134   -1.3144 C   0  0  2  0  0  0  0  0  0  0  0  0
   -4.9841    0.5016   -2.8360 C   0  0  0  0  0  0  0  0  0  0  0  0
   -5.5373   -0.8584   -3.1143 C   0  0  0  0  0  0  0  0  0  0  0  0
   -5.7275   -1.5157   -1.7789 C   0  0  0  0  0  0  0  0  0  0  0  0
   -4.6683   -0.8657   -0.9857 N   0  0  0  0  0  0  0  0  0  0  0  0
   -3.7691   -1.5684   -0.1862 C   0  0  0  0  0  0  0  0  0  0  0  0
   -3.9248   -2.8673   -0.0505 O   0  0  0  0  0  0  0  0  0  0  0  0
   -2.6027   -1.0751    0.5645 C   0  0  1  0  0  0  0  0  0  0  0  0
   -2.8193   -1.1258    2.0679 C   0  0  0  0  0  0  0  0  0  0  0  0
   -3.9134   -0.3274    2.6024 C   0  0  0  0  0  0  0  0  0  0  0  0
   -5.2090   -0.7732    2.7415 C   0  0  0  0  0  0  0  0  0  0  0  0
   -6.2044   -0.0093    3.3127 C   0  0  0  0  0  0  0  0  0  0  0  0
   -5.9522    1.2704    3.7855 C   0  0  0  0  0  0  0  0  0  0  0  0
   -6.9566    2.0359    4.3613 O   0  0  0  0  0  0  0  0  0  0  0  0
   -4.6596    1.7321    3.6520 C   0  0  0  0  0  0  0  0  0  0  0  0
   -3.6663    0.9713    3.0824 C   0  0  0  0  0  0  0  0  0  0  0  0
   -1.5133   -2.0405    0.2760 N   0  0  0  0  0  0  0  0  0  0  0  0
   -0.1891   -1.6625    0.0087 C   0  0  0  0  0  0  0  0  0  0  0  0
    0.1265   -0.4518    0.0110 O   0  0  0  0  0  0  0  0  0  0  0  0
    0.8788   -2.6582   -0.2815 C   0  0  2  0  0  0  0  0  0  0  0  0
    0.9006   -3.6577    0.8628 C   0  0  0  0  0  0  0  0  0  0  0  0
    1.8884   -3.0401    1.8234 C   0  0  0  0  0  0  0  0  0  0  0  0
    2.5452   -1.8832    1.1254 C   0  0  0  0  0  0  0  0  0  0  0  0
    2.2054   -2.0869   -0.2624 N   0  0  0  0  0  0  0  0  0  0  0  0
    3.0395   -1.7808   -1.3615 C   0  0  0  0  0  0  0  0  0  0  0  0
    2.6134   -2.0179   -2.5111 O   0  0  0  0  0  0  0  0  0  0  0  0
    4.3626   -1.2060   -1.1570 C   0  0  1  0  0  0  0  0  0  0  0  0
    5.0648   -1.1690   -2.4544 N   0  0  0  0  0  0  0  0  0  0  0  0
    4.3349    0.2466   -0.6596 C   0  0  0  0  0  0  0  0  0  0  0  0
    5.7625    0.6281   -0.5166 C   0  0  0  0  0  0  0  0  0  0  0  0
    6.4351    1.2061   -1.5649 C   0  0  0  0  0  0  0  0  0  0  0  0
    7.7886    1.5411   -1.4200 C   0  0  0  0  0  0  0  0  0  0  0  0
    8.4654    1.3012   -0.2398 C   0  0  0  0  0  0  0  0  0  0  0  0
    7.7892    0.7288    0.7929 C   0  0  0  0  0  0  0  0  0  0  0  0
    6.4669    0.4042    0.6453 C   0  0  0  0  0  0  0  0  0  0  0  0
    9.9051    1.6741   -0.1679 C   0  0  0  0  0  0  0  0  0  0  0  0
   10.0135    2.9845    0.5668 C   0  0  0  0  0  0  0  0  0  0  0  0
   10.7067    0.6053    0.5568 C   0  0  0  0  0  0  0  0  0  0  0  0
   10.4646    1.7415   -1.5721 C   0  0  0  0  0  0  0  0  0  0  0  0
   -9.3688    0.8421   -0.2068 C   0  0  0  0  0  0  0  0  0  0  0  0
  -10.4772    1.3959    0.3567 F   0  0  0  0  0  0  0  0  0  0  0  0
   -9.7053    0.0912   -1.3404 F   0  0  0  0  0  0  0  0  0  0  0  0
   -8.7068    0.0092    0.6576 F   0  0  0  0  0  0  0  0  0  0  0  0
   -8.7550    3.7789   -1.6833 H   0  0  0  0  0  0  0  0  0  0  0  0
  -10.1838    2.7570   -1.4120 H   0  0  0  0  0  0  0  0  0  0  0  0
   -9.0253    2.3263   -2.7216 H   0  0  0  0  0  0  0  0  0  0  0  0
   -8.0558    2.5318    0.1803 H   0  0  0  0  0  0  0  0  0  0  0  0
   -7.5012    0.6166   -2.1175 H   0  0  0  0  0  0  0  0  0  0  0  0
   -3.8875    1.1157   -1.1212 H   0  0  0  0  0  0  0  0  0  0  0  0
   -4.0123    0.6877   -3.3421 H   0  0  0  0  0  0  0  0  0  0  0  0
   -5.7378    1.2598   -3.1165 H   0  0  0  0  0  0  0  0  0  0  0  0
   -4.7483   -1.4472   -3.6467 H   0  0  0  0  0  0  0  0  0  0  0  0
   -6.4775   -0.8300   -3.7119 H   0  0  0  0  0  0  0  0  0  0  0  0
   -6.6982   -1.3663   -1.3008 H   0  0  0  0  0  0  0  0  0  0  0  0
   -5.5232   -2.6196   -1.8331 H   0  0  0  0  0  0  0  0  0  0  0  0
   -2.2377   -0.0925    0.3269 H   0  0  0  0  0  0  0  0  0  0  0  0
   -2.9713   -2.1872    2.4019 H   0  0  0  0  0  0  0  0  0  0  0  0
   -1.8791   -0.7748    2.5699 H   0  0  0  0  0  0  0  0  0  0  0  0
   -5.4199   -1.7802    2.3720 H   0  0  0  0  0  0  0  0  0  0  0  0
   -7.2354   -0.3790    3.4190 H   0  0  0  0  0  0  0  0  0  0  0  0
   -7.5181    2.6440    3.7693 H   0  0  0  0  0  0  0  0  0  0  0  0
   -4.4574    2.7338    4.0208 H   0  0  0  0  0  0  0  0  0  0  0  0
   -2.6394    1.3409    2.9753 H   0  0  0  0  0  0  0  0  0  0  0  0
   -1.7797   -3.0408    0.2803 H   0  0  0  0  0  0  0  0  0  0  0  0
    0.6903   -3.1813   -1.2480 H   0  0  0  0  0  0  0  0  0  0  0  0
    1.2522   -4.6642    0.5090 H   0  0  0  0  0  0  0  0  0  0  0  0
   -0.0968   -3.8183    1.3122 H   0  0  0  0  0  0  0  0  0  0  0  0
    2.6085   -3.7570    2.2475 H   0  0  0  0  0  0  0  0  0  0  0  0
    1.2918   -2.6265    2.6815 H   0  0  0  0  0  0  0  0  0  0  0  0
    2.0837   -0.9121    1.4273 H   0  0  0  0  0  0  0  0  0  0  0  0
    3.6443   -1.8581    1.3004 H   0  0  0  0  0  0  0  0  0  0  0  0
    5.0167   -1.7602   -0.4583 H   0  0  0  0  0  0  0  0  0  0  0  0
    4.5787   -0.5620   -3.1420 H   0  0  0  0  0  0  0  0  0  0  0  0
    5.1518   -2.1131   -2.8654 H   0  0  0  0  0  0  0  0  0  0  0  0
    3.8621    0.2831    0.3306 H   0  0  0  0  0  0  0  0  0  0  0  0
    3.8155    0.8939   -1.3991 H   0  0  0  0  0  0  0  0  0  0  0  0
    5.9277    1.4066   -2.5046 H   0  0  0  0  0  0  0  0  0  0  0  0
    8.2803    1.9926   -2.2552 H   0  0  0  0  0  0  0  0  0  0  0  0
    8.2850    0.5294    1.7201 H   0  0  0  0  0  0  0  0  0  0  0  0
    5.9330   -0.0508    1.4722 H   0  0  0  0  0  0  0  0  0  0  0  0
   11.0166    3.4588    0.4596 H   0  0  0  0  0  0  0  0  0  0  0  0
    9.2002    3.6410    0.1837 H   0  0  0  0  0  0  0  0  0  0  0  0
    9.7489    2.7832    1.6310 H   0  0  0  0  0  0  0  0  0  0  0  0
   10.3973   -0.3594    0.1215 H   0  0  0  0  0  0  0  0  0  0  0  0
   10.6092    0.6564    1.6392 H   0  0  0  0  0  0  0  0  0  0  0  0
   11.7682    0.7484    0.2491 H   0  0  0  0  0  0  0  0  0  0  0  0
   10.2034    2.6784   -2.0837 H   0  0  0  0  0  0  0  0  0  0  0  0
    9.9807    0.9086   -2.1535 H   0  0  0  0  0  0  0  0  0  0  0  0
   11.5774    1.6103   -1.5680 H   0  0  0  0  0  0  0  0  0  0  0  0
  1  2  1  0
  2  3  1  0
  3  4  1  0
  4  5  2  0
  4  6  1  0
  6  7  1  0
  7  8  1  0
  8  9  1  0
  9 10  1  0
 10 11  1  0
 11 12  2  0
 11 13  1  0
 13 14  1  0
 14 15  1  0
 15 16  2  0
 16 17  1  0
 17 18  2  0
 18 19  1  0
 18 20  1  0
 20 21  2  0
 13 22  1  0
 22 23  1  0
 23 24  2  0
 23 25  1  0
 25 26  1  0
 26 27  1  0
 27 28  1  0
 28 29  1  0
 29 30  1  0
 30 31  2  0
 30 32  1  0
 32 33  1  0
 32 34  1  0
 34 35  1  0
 35 36  2  0
 36 37  1  0
 37 38  2  0
 38 39  1  0
 39 40  2  0
 38 41  1  0
 41 42  1  0
 41 43  1  0
 41 44  1  0
  2 45  1  0
 45 46  1  0
 45 47  1  0
 45 48  1  0
 10  6  1  0
 21 15  1  0
 29 25  1  0
 40 35  1  0
  1 49  1  0
  1 50  1  0
  1 51  1  0
  2 52  1  1
  3 53  1  0
  6 54  1  6
  7 55  1  0
  7 56  1  0
  8 57  1  0
  8 58  1  0
  9 59  1  0
  9 60  1  0
 13 61  1  6
 14 62  1  0
 14 63  1  0
 16 64  1  0
 17 65  1  0
 19 66  1  0
 20 67  1  0
 21 68  1  0
 22 69  1  0
 25 70  1  6
 26 71  1  0
 26 72  1  0
 27 73  1  0
 27 74  1  0
 28 75  1  0
 28 76  1  0
 32 77  1  1
 33 78  1  0
 33 79  1  0
 34 80  1  0
 34 81  1  0
 36 82  1  0
 37 83  1  0
 39 84  1  0
 40 85  1  0
 42 86  1  0
 42 87  1  0
 42 88  1  0
 43 89  1  0
 43 90  1  0
 43 91  1  0
 44 92  1  0
 44 93  1  0
 44 94  1  0
M  END
$$$$
[H]C1=C2C([H])([H])C([H])([H])[C@@]3([H])[C@]4([H])C([H])([H])C([H])([H])[C@]([H])(OC(=O)N(C(=O)c5c([H])c([H])c(C#N)c([H])c5[H])C([H])([H])[H])[C@@]4(C([H])([H])[H])C([H])([H])C([H])([H])[C@]3([H])[C@@]2(C([H])([H])[H])C([H])([H])C([H])([H])C1=O
     RDKit          3D

 69 73  0  0  0  0  0  0  0  0999 V2000
   -0.2332   -1.4048   -0.8148 C   0  0  0  0  0  0  0  0  0  0  0  0
   -0.4344    0.0450   -0.5553 C   0  0  2  0  0  0  0  0  0  0  0  0
   -0.6924    0.4049    0.8671 C   0  0  0  0  0  0  0  0  0  0  0  0
   -1.9902   -0.1892    1.3372 C   0  0  0  0  0  0  0  0  0  0  0  0
   -3.1462    0.2719    0.4615 C   0  0  1  0  0  0  0  0  0  0  0  0
   -2.8154   -0.1552   -0.9528 C   0  0  1  0  0  0  0  0  0  0  0  0
   -3.9760    0.1242   -1.8814 C   0  0  0  0  0  0  0  0  0  0  0  0
   -5.0379   -0.9130   -1.4852 C   0  0  0  0  0  0  0  0  0  0  0  0
   -5.4262   -0.5445   -0.1006 C   0  0  0  0  0  0  0  0  0  0  0  0
   -6.7198   -0.5298    0.1734 C   0  0  0  0  0  0  0  0  0  0  0  0
   -7.2663   -0.1900    1.4810 C   0  0  0  0  0  0  0  0  0  0  0  0
   -8.4063   -0.5006    1.8293 O   0  0  0  0  0  0  0  0  0  0  0  0
   -6.3875    0.5603    2.4053 C   0  0  0  0  0  0  0  0  0  0  0  0
   -5.0704    0.9259    1.7770 C   0  0  0  0  0  0  0  0  0  0  0  0
   -4.4753   -0.2024    0.9602 C   0  0  2  0  0  0  0  0  0  0  0  0
   -4.3555   -1.4063    1.8725 C   0  0  0  0  0  0  0  0  0  0  0  0
   -1.6044    0.6342   -1.3581 C   0  0  2  0  0  0  0  0  0  0  0  0
   -1.1374    0.4550   -2.7437 C   0  0  0  0  0  0  0  0  0  0  0  0
    0.3465    0.7067   -2.6632 C   0  0  0  0  0  0  0  0  0  0  0  0
    0.7069    0.8019   -1.1809 C   0  0  2  0  0  0  0  0  0  0  0  0
    1.9476    0.1865   -1.0128 O   0  0  0  0  0  0  0  0  0  0  0  0
    3.0286    0.8343   -0.4317 C   0  0  0  0  0  0  0  0  0  0  0  0
    2.8379    2.0005   -0.0643 O   0  0  0  0  0  0  0  0  0  0  0  0
    4.3152    0.1670   -0.2677 N   0  0  0  0  0  0  0  0  0  0  0  0
    4.3678   -1.1850   -0.7475 C   0  0  0  0  0  0  0  0  0  0  0  0
    5.3415    0.8880    0.3226 C   0  0  0  0  0  0  0  0  0  0  0  0
    4.9793    2.1081    0.6601 O   0  0  0  0  0  0  0  0  0  0  0  0
    6.7137    0.5506    0.6304 C   0  0  0  0  0  0  0  0  0  0  0  0
    7.3181   -0.6399    0.3660 C   0  0  0  0  0  0  0  0  0  0  0  0
    8.6546   -0.8828    0.7031 C   0  0  0  0  0  0  0  0  0  0  0  0
    9.3793    0.0919    1.3126 C   0  0  0  0  0  0  0  0  0  0  0  0
    8.7814    1.2944    1.5836 C   0  0  0  0  0  0  0  0  0  0  0  0
    7.4716    1.5470    1.2588 C   0  0  0  0  0  0  0  0  0  0  0  0
   10.7504   -0.1453    1.6632 C   0  0  0  0  0  0  0  0  0  0  0  0
   11.8567   -0.3568    1.9506 N   0  0  0  0  0  0  0  0  0  0  0  0
    0.8186   -1.6543   -0.4990 H   0  0  0  0  0  0  0  0  0  0  0  0
   -0.2460   -1.5775   -1.9113 H   0  0  0  0  0  0  0  0  0  0  0  0
   -0.8833   -2.0914   -0.2785 H   0  0  0  0  0  0  0  0  0  0  0  0
    0.1110    0.0372    1.5423 H   0  0  0  0  0  0  0  0  0  0  0  0
   -0.6972    1.5229    0.9333 H   0  0  0  0  0  0  0  0  0  0  0  0
   -1.8612   -1.2903    1.3174 H   0  0  0  0  0  0  0  0  0  0  0  0
   -2.1807    0.2134    2.3535 H   0  0  0  0  0  0  0  0  0  0  0  0
   -3.0875    1.3930    0.4612 H   0  0  0  0  0  0  0  0  0  0  0  0
   -2.6001   -1.2559   -0.9937 H   0  0  0  0  0  0  0  0  0  0  0  0
   -4.3809    1.1406   -1.6965 H   0  0  0  0  0  0  0  0  0  0  0  0
   -3.6426   -0.0272   -2.9136 H   0  0  0  0  0  0  0  0  0  0  0  0
   -5.8454   -0.8077   -2.2045 H   0  0  0  0  0  0  0  0  0  0  0  0
   -4.5200   -1.8933   -1.5017 H   0  0  0  0  0  0  0  0  0  0  0  0
   -7.4425   -0.7863   -0.6195 H   0  0  0  0  0  0  0  0  0  0  0  0
   -6.9132    1.5170    2.6353 H   0  0  0  0  0  0  0  0  0  0  0  0
   -6.2556    0.0456    3.3844 H   0  0  0  0  0  0  0  0  0  0  0  0
   -4.3826    1.2546    2.5871 H   0  0  0  0  0  0  0  0  0  0  0  0
   -5.2033    1.7910    1.0845 H   0  0  0  0  0  0  0  0  0  0  0  0
   -4.2572   -2.3368    1.2641 H   0  0  0  0  0  0  0  0  0  0  0  0
   -5.2267   -1.5391    2.5375 H   0  0  0  0  0  0  0  0  0  0  0  0
   -3.4782   -1.3474    2.5450 H   0  0  0  0  0  0  0  0  0  0  0  0
   -1.7196    1.6658   -1.0190 H   0  0  0  0  0  0  0  0  0  0  0  0
   -1.6135    1.2500   -3.3899 H   0  0  0  0  0  0  0  0  0  0  0  0
   -1.4153   -0.4991   -3.1862 H   0  0  0  0  0  0  0  0  0  0  0  0
    0.8498   -0.1644   -3.1406 H   0  0  0  0  0  0  0  0  0  0  0  0
    0.6189    1.6602   -3.1604 H   0  0  0  0  0  0  0  0  0  0  0  0
    0.6588    1.8358   -0.8173 H   0  0  0  0  0  0  0  0  0  0  0  0
    4.5728   -1.8852    0.0815 H   0  0  0  0  0  0  0  0  0  0  0  0
    5.0581   -1.3617   -1.5763 H   0  0  0  0  0  0  0  0  0  0  0  0
    3.3362   -1.5150   -1.1103 H   0  0  0  0  0  0  0  0  0  0  0  0
    6.7899   -1.4369   -0.1137 H   0  0  0  0  0  0  0  0  0  0  0  0
    9.0699   -1.8286    0.4724 H   0  0  0  0  0  0  0  0  0  0  0  0
    9.3246    2.1094    2.0730 H   0  0  0  0  0  0  0  0  0  0  0  0
    7.0217    2.5089    1.4846 H   0  0  0  0  0  0  0  0  0  0  0  0
  2  1  1  1
  2  3  1  0
  3  4  1  0
  4  5  1  0
  5  6  1  0
  6  7  1  0
  7  8  1  0
  8  9  1  0
  9 10  2  0
 10 11  1  0
 11 12  2  0
 11 13  1  0
 13 14  1  0
 14 15  1  0
 15 16  1  1
  6 17  1  0
 17 18  1  0
 18 19  1  0
 19 20  1  0
 20 21  1  0
 21 22  1  0
 22 23  2  0
 22 24  1  0
 24 25  1  0
 24 26  1  0
 26 27  2  0
 26 28  1  0
 28 29  2  0
 29 30  1  0
 30 31  2  0
 31 32  1  0
 32 33  2  0
 31 34  1  0
 34 35  3  0
 17  2  1  0
 33 28  1  0
 20  2  1  0
 15  5  1  0
 15  9  1  0
  1 36  1  0
  1 37  1  0
  1 38  1  0
  3 39  1  0
  3 40  1  0
  4 41  1  0
  4 42  1  0
  5 43  1  6
  6 44  1  1
  7 45  1  0
  7 46  1  0
  8 47  1  0
  8 48  1  0
 10 49  1  0
 13 50  1  0
 13 51  1  0
 14 52  1  0
 14 53  1  0
 16 54  1  0
 16 55  1  0
 16 56  1  0
 17 57  1  1
 18 58  1  0
 18 59  1  0
 19 60  1  0
 19 61  1  0
 20 62  1  1
 25 63  1  0
 25 64  1  0
 25 65  1  0
 29 66  1  0
 30 67  1  0
 32 68  1  0
 33 69  1  0
M  END
$$$$
[H]c1c([H])c(F)c([H])c([C@@]2([H])C([H])([H])N(c3c([H])c([H])c(F)c([H])c3[H])C([H])([H])[C@@]2([H])C([H])([H])[H])c1[H]
     RDKit          3D

 37 39  0  0  0  0  0  0  0  0999 V2000
   -1.2024   -2.3493   -0.7914 C   0  0  0  0  0  0  0  0  0  0  0  0
   -0.6311   -1.0750   -1.2923 C   0  0  2  0  0  0  0  0  0  0  0  0
    0.8945   -1.0981   -1.2850 C   0  0  0  0  0  0  0  0  0  0  0  0
    1.2913   -0.2985   -0.1447 N   0  0  0  0  0  0  0  0  0  0  0  0
    0.1050   -0.0150    0.6376 C   0  0  0  0  0  0  0  0  0  0  0  0
   -0.9034    0.1447   -0.4799 C   0  0  2  0  0  0  0  0  0  0  0  0
   -2.2637    0.3808   -0.0544 C   0  0  0  0  0  0  0  0  0  0  0  0
   -2.9604   -0.4070    0.8333 C   0  0  0  0  0  0  0  0  0  0  0  0
   -4.2685   -0.1065    1.1827 C   0  0  0  0  0  0  0  0  0  0  0  0
   -4.9128    0.9876    0.6547 C   0  0  0  0  0  0  0  0  0  0  0  0
   -4.2464    1.7818   -0.2243 C   0  0  0  0  0  0  0  0  0  0  0  0
   -4.8799    2.8798   -0.7598 F   0  0  0  0  0  0  0  0  0  0  0  0
   -2.9485    1.4726   -0.5629 C   0  0  0  0  0  0  0  0  0  0  0  0
    2.5995    0.1459    0.1780 C   0  0  0  0  0  0  0  0  0  0  0  0
    2.8441    0.8923    1.3035 C   0  0  0  0  0  0  0  0  0  0  0  0
    4.1439    1.3192    1.5996 C   0  0  0  0  0  0  0  0  0  0  0  0
    5.2150    1.0157    0.7912 C   0  0  0  0  0  0  0  0  0  0  0  0
    6.4710    1.4357    1.0894 F   0  0  0  0  0  0  0  0  0  0  0  0
    4.9732    0.2692   -0.3354 C   0  0  0  0  0  0  0  0  0  0  0  0
    3.6930   -0.1501   -0.6250 C   0  0  0  0  0  0  0  0  0  0  0  0
   -0.8590   -2.6591    0.2010 H   0  0  0  0  0  0  0  0  0  0  0  0
   -0.8592   -3.1675   -1.4898 H   0  0  0  0  0  0  0  0  0  0  0  0
   -2.3066   -2.3902   -0.8402 H   0  0  0  0  0  0  0  0  0  0  0  0
   -1.0260   -0.9158   -2.3313 H   0  0  0  0  0  0  0  0  0  0  0  0
    1.2101   -0.6441   -2.2467 H   0  0  0  0  0  0  0  0  0  0  0  0
    1.3014   -2.1035   -1.1649 H   0  0  0  0  0  0  0  0  0  0  0  0
    0.1807    0.8678    1.2736 H   0  0  0  0  0  0  0  0  0  0  0  0
   -0.0952   -0.9505    1.2294 H   0  0  0  0  0  0  0  0  0  0  0  0
   -0.5120    1.0035   -1.1094 H   0  0  0  0  0  0  0  0  0  0  0  0
   -2.4915   -1.2733    1.2735 H   0  0  0  0  0  0  0  0  0  0  0  0
   -4.8054   -0.7469    1.8913 H   0  0  0  0  0  0  0  0  0  0  0  0
   -5.9370    1.2577    0.9026 H   0  0  0  0  0  0  0  0  0  0  0  0
   -2.4662    2.1492   -1.2745 H   0  0  0  0  0  0  0  0  0  0  0  0
    2.0545    1.1747    1.9944 H   0  0  0  0  0  0  0  0  0  0  0  0
    4.3250    1.9127    2.4985 H   0  0  0  0  0  0  0  0  0  0  0  0
    5.7896    0.0053   -1.0039 H   0  0  0  0  0  0  0  0  0  0  0  0
    3.4835   -0.7456   -1.5188 H   0  0  0  0  0  0  0  0  0  0  0  0
  1  2  1  0
  2  3  1  0
  3  4  1  0
  4  5  1  0
  5  6  1  0
  6  7  1  0
  7  8  2  0
  8  9  1  0
  9 10  2  0
 10 11  1  0
 11 12  1  0
 11 13  2  0
  4 14  1  0
 14 15  2  0
 15 16  1  0
 16 17  2  0
 17 18  1  0
 17 19  1  0
 19 20  2  0
  6  2  1  0
 13  7  1  0
 20 14  1  0
  1 21  1  0
  1 22  1  0
  1 23  1  0
  2 24  1  6
  3 25  1  0
  3 26  1  0
  5 27  1  0
  5 28  1  0
  6 29  1  6
  8 30  1  0
  9 31  1  0
 10 32  1  0
 13 33  1  0
 15 34  1  0
 16 35  1  0
 19 36  1  0
 20 37  1  0
M  END
$$$$
[H]c1c([H])c([H])c(N2C([H])([H])[C@]([H])(c3c([H])c([H])c(Cl)c([H])c3[H])[C@]([H])(C([H])([H])[H])C2([H])[H])c([H])c1[H]
     RDKit          3D

 37 39  0  0  0  0  0  0  0  0999 V2000
    1.3804   -2.4911   -0.2696 C   0  0  0  0  0  0  0  0  0  0  0  0
    0.3894   -1.5736    0.4083 C   0  0  2  0  0  0  0  0  0  0  0  0
   -0.7874   -1.2519   -0.4496 C   0  0  0  0  0  0  0  0  0  0  0  0
   -1.2762   -0.0140    0.1163 N   0  0  0  0  0  0  0  0  0  0  0  0
   -0.1208    0.7100    0.5862 C   0  0  0  0  0  0  0  0  0  0  0  0
    0.9766   -0.2773    0.8288 C   0  0  2  0  0  0  0  0  0  0  0  0
    2.2607    0.0762    0.2182 C   0  0  0  0  0  0  0  0  0  0  0  0
    2.3746    0.2395   -1.1429 C   0  0  0  0  0  0  0  0  0  0  0  0
    3.5865    0.5747   -1.7435 C   0  0  0  0  0  0  0  0  0  0  0  0
    4.7259    0.7564   -0.9892 C   0  0  0  0  0  0  0  0  0  0  0  0
    6.2495    1.1776   -1.7435 Cl  0  0  0  0  0  0  0  0  0  0  0  0
    4.6183    0.5940    0.3770 C   0  0  0  0  0  0  0  0  0  0  0  0
    3.4173    0.2622    0.9688 C   0  0  0  0  0  0  0  0  0  0  0  0
   -2.6229    0.4456    0.2137 C   0  0  0  0  0  0  0  0  0  0  0  0
   -2.9089    1.6751    0.7589 C   0  0  0  0  0  0  0  0  0  0  0  0
   -4.1971    2.1262    0.8586 C   0  0  0  0  0  0  0  0  0  0  0  0
   -5.2166    1.3402    0.4081 C   0  0  0  0  0  0  0  0  0  0  0  0
   -4.9446    0.1080   -0.1397 C   0  0  0  0  0  0  0  0  0  0  0  0
   -3.6468   -0.3404   -0.2373 C   0  0  0  0  0  0  0  0  0  0  0  0
    2.3168   -2.4538    0.2994 H   0  0  0  0  0  0  0  0  0  0  0  0
    0.9764   -3.5257   -0.1801 H   0  0  0  0  0  0  0  0  0  0  0  0
    1.4966   -2.2780   -1.3521 H   0  0  0  0  0  0  0  0  0  0  0  0
    0.0125   -2.1392    1.3008 H   0  0  0  0  0  0  0  0  0  0  0  0
   -1.5610   -2.0369   -0.2924 H   0  0  0  0  0  0  0  0  0  0  0  0
   -0.5165   -1.1534   -1.5217 H   0  0  0  0  0  0  0  0  0  0  0  0
    0.1256    1.4709   -0.1840 H   0  0  0  0  0  0  0  0  0  0  0  0
   -0.3705    1.3013    1.5094 H   0  0  0  0  0  0  0  0  0  0  0  0
    1.1231   -0.3164    1.9519 H   0  0  0  0  0  0  0  0  0  0  0  0
    1.5004    0.1048   -1.7613 H   0  0  0  0  0  0  0  0  0  0  0  0
    3.6338    0.6940   -2.8181 H   0  0  0  0  0  0  0  0  0  0  0  0
    5.5118    0.7369    0.9645 H   0  0  0  0  0  0  0  0  0  0  0  0
    3.3923    0.1486    2.0365 H   0  0  0  0  0  0  0  0  0  0  0  0
   -2.0811    2.3062    1.1201 H   0  0  0  0  0  0  0  0  0  0  0  0
   -4.3948    3.1144    1.2997 H   0  0  0  0  0  0  0  0  0  0  0  0
   -6.2287    1.7219    0.4990 H   0  0  0  0  0  0  0  0  0  0  0  0
   -5.7662   -0.5073   -0.4944 H   0  0  0  0  0  0  0  0  0  0  0  0
   -3.4285   -1.3255   -0.6754 H   0  0  0  0  0  0  0  0  0  0  0  0
  1  2  1  0
  2  3  1  0
  3  4  1  0
  4  5  1  0
  5  6  1  0
  6  7  1  0
  7  8  2  0
  8  9  1  0
  9 10  2  0
 10 11  1  0
 10 12  1  0
 12 13  2  0
  4 14  1  0
 14 15  2  0
 15 16  1  0
 16 17  2  0
 17 18  1  0
 18 19  2  0
  6  2  1  0
 13  7  1  0
 19 14  1  0
  1 20  1  0
  1 21  1  0
  1 22  1  0
  2 23  1  1
  3 24  1  0
  3 25  1  0
  5 26  1  0
  5 27  1  0
  6 28  1  1
  8 29  1  0
  9 30  1  0
 12 31  1  0
 13 32  1  0
 15 33  1  0
 16 34  1  0
 17 35  1  0
 18 36  1  0
 19 37  1  0
M  END
$$$$
[H]c1nc(N([H])c2c([H])c([H])c(N3C([H])([H])C([H])([H])N(C([H])([H])[H])C([H])([H])C3([H])[H])c([H])c2OC([H])([H])[H])nc(N([H])c2c([H])c([H])c([H])c([H])c2S(=O)(=O)C(C([H])([H])[H])(C([H])([H])[H])C([H])([H])[H])c1Cl
     RDKit          3D

 70 73  0  0  0  0  0  0  0  0999 V2000
    3.0951    3.7743   -0.5799 C   0  0  0  0  0  0  0  0  0  0  0  0
    2.3241    2.6075   -0.4260 O   0  0  0  0  0  0  0  0  0  0  0  0
    3.0066    1.3776   -0.3211 C   0  0  0  0  0  0  0  0  0  0  0  0
    4.3818    1.3415   -0.3707 C   0  0  0  0  0  0  0  0  0  0  0  0
    5.1026    0.1740   -0.2736 C   0  0  0  0  0  0  0  0  0  0  0  0
    4.3643   -0.9818   -0.1214 C   0  0  0  0  0  0  0  0  0  0  0  0
    2.9700   -0.9781   -0.0677 C   0  0  0  0  0  0  0  0  0  0  0  0
    2.2852    0.1878   -0.1657 C   0  0  0  0  0  0  0  0  0  0  0  0
    0.8908    0.3082   -0.1261 N   0  0  0  0  0  0  0  0  0  0  0  0
   -0.0859   -0.7078    0.0393 C   0  0  0  0  0  0  0  0  0  0  0  0
    0.2019   -2.0026    0.1901 N   0  0  0  0  0  0  0  0  0  0  0  0
   -0.7208   -2.9543    0.3459 C   0  0  0  0  0  0  0  0  0  0  0  0
   -2.0565   -2.6228    0.3571 C   0  0  0  0  0  0  0  0  0  0  0  0
   -3.3164   -3.8052    0.5546 Cl  0  0  0  0  0  0  0  0  0  0  0  0
   -2.4174   -1.2640    0.2013 C   0  0  0  0  0  0  0  0  0  0  0  0
   -3.7753   -0.9689    0.2200 N   0  0  0  0  0  0  0  0  0  0  0  0
   -4.3693    0.3027    0.0834 C   0  0  0  0  0  0  0  0  0  0  0  0
   -3.6956    1.4795   -0.1272 C   0  0  0  0  0  0  0  0  0  0  0  0
   -4.3461    2.7045   -0.2612 C   0  0  0  0  0  0  0  0  0  0  0  0
   -5.7039    2.7947   -0.1892 C   0  0  0  0  0  0  0  0  0  0  0  0
   -6.3896    1.6184    0.0219 C   0  0  0  0  0  0  0  0  0  0  0  0
   -5.7858    0.4038    0.1580 C   0  0  0  0  0  0  0  0  0  0  0  0
   -6.7168   -1.0294    0.4095 S   0  0  0  0  0  0  0  0  0  0  0  0
   -6.3550   -1.6788    1.7331 O   0  0  0  0  0  0  0  0  0  0  0  0
   -6.5512   -1.9623   -0.7523 O   0  0  0  0  0  0  0  0  0  0  0  0
   -8.4768   -0.7176    0.5334 C   0  0  0  0  0  0  0  0  0  0  0  0
   -8.7789    0.1659    1.6903 C   0  0  0  0  0  0  0  0  0  0  0  0
   -9.0513   -0.2425   -0.7804 C   0  0  0  0  0  0  0  0  0  0  0  0
   -9.1023   -2.0939    0.8096 C   0  0  0  0  0  0  0  0  0  0  0  0
   -1.4010   -0.4096    0.0539 N   0  0  0  0  0  0  0  0  0  0  0  0
    6.5160    0.1245   -0.3141 N   0  0  0  0  0  0  0  0  0  0  0  0
    7.1725   -1.1378   -0.3602 C   0  0  0  0  0  0  0  0  0  0  0  0
    8.6466   -1.1147   -0.5249 C   0  0  0  0  0  0  0  0  0  0  0  0
    9.3400   -0.0003   -0.0165 N   0  0  0  0  0  0  0  0  0  0  0  0
   10.6099    0.2675   -0.6033 C   0  0  0  0  0  0  0  0  0  0  0  0
    8.5965    1.1259    0.3889 C   0  0  0  0  0  0  0  0  0  0  0  0
    7.2759    1.3397   -0.3023 C   0  0  0  0  0  0  0  0  0  0  0  0
    3.8139    3.8162    0.2744 H   0  0  0  0  0  0  0  0  0  0  0  0
    2.4754    4.6762   -0.6620 H   0  0  0  0  0  0  0  0  0  0  0  0
    3.7307    3.6244   -1.4956 H   0  0  0  0  0  0  0  0  0  0  0  0
    4.9141    2.2838   -0.4961 H   0  0  0  0  0  0  0  0  0  0  0  0
    4.9008   -1.9086   -0.0428 H   0  0  0  0  0  0  0  0  0  0  0  0
    2.5220   -1.9453    0.0511 H   0  0  0  0  0  0  0  0  0  0  0  0
    0.4407    1.2910   -0.2314 H   0  0  0  0  0  0  0  0  0  0  0  0
   -0.4513   -4.0090    0.4669 H   0  0  0  0  0  0  0  0  0  0  0  0
   -4.4397   -1.7729    0.3453 H   0  0  0  0  0  0  0  0  0  0  0  0
   -2.6020    1.4780   -0.1975 H   0  0  0  0  0  0  0  0  0  0  0  0
   -3.7523    3.6039   -0.4274 H   0  0  0  0  0  0  0  0  0  0  0  0
   -6.2396    3.7501   -0.2924 H   0  0  0  0  0  0  0  0  0  0  0  0
   -7.4911    1.7342    0.0662 H   0  0  0  0  0  0  0  0  0  0  0  0
   -9.4447   -0.3869    2.4019 H   0  0  0  0  0  0  0  0  0  0  0  0
   -7.8752    0.5265    2.2389 H   0  0  0  0  0  0  0  0  0  0  0  0
   -9.3638    1.0643    1.3750 H   0  0  0  0  0  0  0  0  0  0  0  0
   -8.2083   -0.0456   -1.4813 H   0  0  0  0  0  0  0  0  0  0  0  0
   -9.6346    0.6977   -0.6229 H   0  0  0  0  0  0  0  0  0  0  0  0
   -9.6656   -1.0255   -1.2674 H   0  0  0  0  0  0  0  0  0  0  0  0
   -8.5510   -2.4988    1.6812 H   0  0  0  0  0  0  0  0  0  0  0  0
  -10.1921   -2.0127    0.9811 H   0  0  0  0  0  0  0  0  0  0  0  0
   -8.8467   -2.7503   -0.0517 H   0  0  0  0  0  0  0  0  0  0  0  0
    6.9551   -1.6492    0.6259 H   0  0  0  0  0  0  0  0  0  0  0  0
    6.6604   -1.7981   -1.1106 H   0  0  0  0  0  0  0  0  0  0  0  0
    8.8738   -1.2181   -1.6277 H   0  0  0  0  0  0  0  0  0  0  0  0
    9.1132   -2.0395   -0.0808 H   0  0  0  0  0  0  0  0  0  0  0  0
   11.2665    0.6975    0.1965 H   0  0  0  0  0  0  0  0  0  0  0  0
   10.5747    0.8994   -1.5103 H   0  0  0  0  0  0  0  0  0  0  0  0
   11.0812   -0.6908   -0.9036 H   0  0  0  0  0  0  0  0  0  0  0  0
    9.2131    2.0451    0.1629 H   0  0  0  0  0  0  0  0  0  0  0  0
    8.4448    1.1530    1.4882 H   0  0  0  0  0  0  0  0  0  0  0  0
    6.7267    2.0853    0.3446 H   0  0  0  0  0  0  0  0  0  0  0  0
    7.3665    1.7986   -1.3053 H   0  0  0  0  0  0  0  0  0  0  0  0
  1  2  1  0
  2  3  1  0
  3  4  2  0
  4  5  1  0
  5  6  2  0
  6  7  1  0
  7  8  2  0
  8  9  1  0
  9 10  1  0
 10 11  2  0
 11 12  1  0
 12 13  2  0
 13 14  1  0
 13 15  1  0
 15 16  1  0
 16 17  1  0
 17 18  2  0
 18 19  1  0
 19 20  2  0
 20 21  1  0
 21 22  2  0
 22 23  1  0
 23 24  2  0
 23 25  2  0
 23 26  1  0
 26 27  1  0
 26 28  1  0
 26 29  1  0
 15 30  2  0
  5 31  1  0
 31 32  1  0
 32 33  1  0
 33 34  1  0
 34 35  1  0
 34 36  1  0
 36 37  1  0
  8  3  1  0
 30 10  1  0
 37 31  1  0
 22 17  1  0
  1 38  1  0
  1 39  1  0
  1 40  1  0
  4 41  1  0
  6 42  1  0
  7 43  1  0
  9 44  1  0
 12 45  1  0
 16 46  1  0
 18 47  1  0
 19 48  1  0
 20 49  1  0
 21 50  1  0
 27 51  1  0
 27 52  1  0
 27 53  1  0
 28 54  1  0
 28 55  1  0
 28 56  1  0
 29 57  1  0
 29 58  1  0
 29 59  1  0
 32 60  1  0
 32 61  1  0
 33 62  1  0
 33 63  1  0
 35 64  1  0
 35 65  1  0
 35 66  1  0
 36 67  1  0
 36 68  1  0
 37 69  1  0
 37 70  1  0
M  END
$$$$
[H]OC(=O)C([H])([H])C([H])([H])[C@@]([H])(C(=O)N([H])[C@]([H])(C(=O)N([H])[C@]([H])(C(=O)O[H])C([H])([H])C(=O)O[H])C([H])([H])C(=O)O[H])N([H])C(=O)[C@@]([H])(N([H])C(=O)[C@@]([H])(N([H])C(=O)[C@@]([H])(N([H])C(=O)[C@@]([H])(N([H])[H])C([H])([H])C([H])(C([H])([H])[H])C([H])([H])[H])C([H])([H])c1c([H])c([H])c([H])c([H])c1[H])C([H])([H])C(=O)O[H])C([H])([H])C([H])(C([H])([H])[H])C([H])([H])[H]
     RDKit          3D

116116  0  0  0  0  0  0  0  0999 V2000
   12.7697    0.9321    0.8226 C   0  0  0  0  0  0  0  0  0  0  0  0
   11.8791   -0.1329    0.1760 C   0  0  0  0  0  0  0  0  0  0  0  0
   12.3692   -1.4894    0.6754 C   0  0  0  0  0  0  0  0  0  0  0  0
   10.4960    0.0987    0.6662 C   0  0  0  0  0  0  0  0  0  0  0  0
    9.4609   -0.8659    0.1329 C   0  0  2  0  0  0  0  0  0  0  0  0
    9.3606   -0.8122   -1.3276 N   0  0  0  0  0  0  0  0  0  0  0  0
    8.1440   -0.6504    0.7642 C   0  0  0  0  0  0  0  0  0  0  0  0
    8.0140   -0.7143    2.0024 O   0  0  0  0  0  0  0  0  0  0  0  0
    7.0108   -0.3665   -0.0277 N   0  0  0  0  0  0  0  0  0  0  0  0
    5.6961   -0.1433    0.5484 C   0  0  1  0  0  0  0  0  0  0  0  0
    5.3074    1.3373    0.3926 C   0  0  0  0  0  0  0  0  0  0  0  0
    6.2578    2.2388    1.0644 C   0  0  0  0  0  0  0  0  0  0  0  0
    6.0745    2.6150    2.3725 C   0  0  0  0  0  0  0  0  0  0  0  0
    6.9635    3.4567    2.9806 C   0  0  0  0  0  0  0  0  0  0  0  0
    8.0717    3.9626    2.3224 C   0  0  0  0  0  0  0  0  0  0  0  0
    8.2193    3.5602    1.0092 C   0  0  0  0  0  0  0  0  0  0  0  0
    7.3452    2.7174    0.3714 C   0  0  0  0  0  0  0  0  0  0  0  0
    4.6439   -1.0032   -0.0549 C   0  0  0  0  0  0  0  0  0  0  0  0
    4.9184   -1.7937   -1.0089 O   0  0  0  0  0  0  0  0  0  0  0  0
    3.3033   -0.9850    0.3933 N   0  0  0  0  0  0  0  0  0  0  0  0
    2.3154   -1.8108   -0.2140 C   0  0  1  0  0  0  0  0  0  0  0  0
    1.9329   -2.9938    0.6518 C   0  0  0  0  0  0  0  0  0  0  0  0
    1.3744   -2.6541    1.9507 C   0  0  0  0  0  0  0  0  0  0  0  0
    1.0087   -3.6214    2.8899 O   0  0  0  0  0  0  0  0  0  0  0  0
    1.1965   -1.4604    2.2832 O   0  0  0  0  0  0  0  0  0  0  0  0
    1.1436   -0.9945   -0.5798 C   0  0  0  0  0  0  0  0  0  0  0  0
    1.1582    0.2457   -0.2460 O   0  0  0  0  0  0  0  0  0  0  0  0
   -0.0031   -1.4636   -1.2725 N   0  0  0  0  0  0  0  0  0  0  0  0
   -1.0923   -0.5979   -1.5789 C   0  0  1  0  0  0  0  0  0  0  0  0
   -1.3191   -0.4396   -3.0671 C   0  0  0  0  0  0  0  0  0  0  0  0
   -0.1765    0.1284   -3.8313 C   0  0  0  0  0  0  0  0  0  0  0  0
   -0.5768    0.1994   -5.3182 C   0  0  0  0  0  0  0  0  0  0  0  0
    0.1042    1.5767   -3.4479 C   0  0  0  0  0  0  0  0  0  0  0  0
   -2.3787   -1.1332   -1.0373 C   0  0  0  0  0  0  0  0  0  0  0  0
   -2.5042   -2.3848   -0.9948 O   0  0  0  0  0  0  0  0  0  0  0  0
   -3.4177   -0.3220   -0.5914 N   0  0  0  0  0  0  0  0  0  0  0  0
   -4.6636   -0.8771   -0.0929 C   0  0  1  0  0  0  0  0  0  0  0  0
   -4.6956   -0.8272    1.4317 C   0  0  0  0  0  0  0  0  0  0  0  0
   -3.5553   -1.6194    2.0371 C   0  0  0  0  0  0  0  0  0  0  0  0
   -3.5705   -1.5697    3.5047 C   0  0  0  0  0  0  0  0  0  0  0  0
   -2.6027   -2.2212    4.2442 O   0  0  0  0  0  0  0  0  0  0  0  0
   -4.4616   -0.9352    4.1009 O   0  0  0  0  0  0  0  0  0  0  0  0
   -5.8211   -0.1226   -0.6037 C   0  0  0  0  0  0  0  0  0  0  0  0
   -5.5907    0.9282   -1.2817 O   0  0  0  0  0  0  0  0  0  0  0  0
   -7.1451   -0.5635   -0.3413 N   0  0  0  0  0  0  0  0  0  0  0  0
   -8.2570    0.2239   -0.8468 C   0  0  1  0  0  0  0  0  0  0  0  0
   -8.8305   -0.3526   -2.1300 C   0  0  0  0  0  0  0  0  0  0  0  0
   -9.3470   -1.7155   -2.0058 C   0  0  0  0  0  0  0  0  0  0  0  0
   -9.2759   -2.3997   -0.8184 O   0  0  0  0  0  0  0  0  0  0  0  0
   -9.8664   -2.2788   -2.9985 O   0  0  0  0  0  0  0  0  0  0  0  0
   -9.3358    0.2735    0.1381 C   0  0  0  0  0  0  0  0  0  0  0  0
   -9.2961   -0.3908    1.1905 O   0  0  0  0  0  0  0  0  0  0  0  0
  -10.4571    1.0992   -0.1091 N   0  0  0  0  0  0  0  0  0  0  0  0
  -11.5974    1.1740    0.8379 C   0  0  1  0  0  0  0  0  0  0  0  0
  -11.6140    2.5923    1.3209 C   0  0  0  0  0  0  0  0  0  0  0  0
  -12.6458    2.8534    2.3204 C   0  0  0  0  0  0  0  0  0  0  0  0
  -12.8330    4.1987    2.7031 O   0  0  0  0  0  0  0  0  0  0  0  0
  -13.3652    2.0079    2.8596 O   0  0  0  0  0  0  0  0  0  0  0  0
  -12.8041    0.8651   -0.0044 C   0  0  0  0  0  0  0  0  0  0  0  0
  -14.0579    0.7992    0.5408 O   0  0  0  0  0  0  0  0  0  0  0  0
  -12.6689    0.6536   -1.2692 O   0  0  0  0  0  0  0  0  0  0  0  0
   13.7631    0.4586    0.9941 H   0  0  0  0  0  0  0  0  0  0  0  0
   12.2911    1.2170    1.7738 H   0  0  0  0  0  0  0  0  0  0  0  0
   12.8041    1.7845    0.1374 H   0  0  0  0  0  0  0  0  0  0  0  0
   11.9911   -0.0565   -0.9027 H   0  0  0  0  0  0  0  0  0  0  0  0
   12.0971   -2.2839   -0.0520 H   0  0  0  0  0  0  0  0  0  0  0  0
   11.9540   -1.7329    1.6639 H   0  0  0  0  0  0  0  0  0  0  0  0
   13.4811   -1.4650    0.7728 H   0  0  0  0  0  0  0  0  0  0  0  0
   10.1982    1.1328    0.3811 H   0  0  0  0  0  0  0  0  0  0  0  0
   10.4179    0.0606    1.7636 H   0  0  0  0  0  0  0  0  0  0  0  0
    9.8800   -1.8932    0.3403 H   0  0  0  0  0  0  0  0  0  0  0  0
    8.9417   -1.6946   -1.6938 H   0  0  0  0  0  0  0  0  0  0  0  0
   10.2383   -0.5294   -1.7638 H   0  0  0  0  0  0  0  0  0  0  0  0
    7.1519   -0.3235   -1.0640 H   0  0  0  0  0  0  0  0  0  0  0  0
    5.7436   -0.3360    1.6219 H   0  0  0  0  0  0  0  0  0  0  0  0
    4.3239    1.4430    0.8895 H   0  0  0  0  0  0  0  0  0  0  0  0
    5.1519    1.5938   -0.6756 H   0  0  0  0  0  0  0  0  0  0  0  0
    5.2062    2.2403    2.9481 H   0  0  0  0  0  0  0  0  0  0  0  0
    6.7980    3.7390    4.0097 H   0  0  0  0  0  0  0  0  0  0  0  0
    8.7736    4.6285    2.8054 H   0  0  0  0  0  0  0  0  0  0  0  0
    9.0791    3.9303    0.4410 H   0  0  0  0  0  0  0  0  0  0  0  0
    7.4895    2.4145   -0.6760 H   0  0  0  0  0  0  0  0  0  0  0  0
    3.0567   -0.3513    1.1755 H   0  0  0  0  0  0  0  0  0  0  0  0
    2.7404   -2.2597   -1.1328 H   0  0  0  0  0  0  0  0  0  0  0  0
    2.8892   -3.5507    0.8347 H   0  0  0  0  0  0  0  0  0  0  0  0
    1.2975   -3.6485    0.0421 H   0  0  0  0  0  0  0  0  0  0  0  0
    0.9229   -4.5846    2.6616 H   0  0  0  0  0  0  0  0  0  0  0  0
   -0.0172   -2.4650   -1.5469 H   0  0  0  0  0  0  0  0  0  0  0  0
   -0.9414    0.4036   -1.1563 H   0  0  0  0  0  0  0  0  0  0  0  0
   -2.1884    0.2561   -3.1784 H   0  0  0  0  0  0  0  0  0  0  0  0
   -1.6025   -1.4192   -3.4992 H   0  0  0  0  0  0  0  0  0  0  0  0
    0.7555   -0.4215   -3.7703 H   0  0  0  0  0  0  0  0  0  0  0  0
    0.3447    0.3748   -5.8920 H   0  0  0  0  0  0  0  0  0  0  0  0
   -1.3142    1.0187   -5.4600 H   0  0  0  0  0  0  0  0  0  0  0  0
   -0.9594   -0.8007   -5.5694 H   0  0  0  0  0  0  0  0  0  0  0  0
    1.0005    1.5732   -2.7931 H   0  0  0  0  0  0  0  0  0  0  0  0
   -0.7776    2.0315   -2.9471 H   0  0  0  0  0  0  0  0  0  0  0  0
    0.3975    2.1266   -4.3625 H   0  0  0  0  0  0  0  0  0  0  0  0
   -3.2759    0.7297   -0.6256 H   0  0  0  0  0  0  0  0  0  0  0  0
   -4.7228   -1.9171   -0.3625 H   0  0  0  0  0  0  0  0  0  0  0  0
   -5.6342   -1.3230    1.7633 H   0  0  0  0  0  0  0  0  0  0  0  0
   -4.7067    0.1894    1.8260 H   0  0  0  0  0  0  0  0  0  0  0  0
   -3.5946   -2.6769    1.6545 H   0  0  0  0  0  0  0  0  0  0  0  0
   -2.6158   -1.1935    1.6406 H   0  0  0  0  0  0  0  0  0  0  0  0
   -2.1222   -3.0326    3.8610 H   0  0  0  0  0  0  0  0  0  0  0  0
   -7.2863   -1.4285    0.2026 H   0  0  0  0  0  0  0  0  0  0  0  0
   -7.8769    1.2556   -1.0359 H   0  0  0  0  0  0  0  0  0  0  0  0
   -8.0877   -0.3317   -2.9532 H   0  0  0  0  0  0  0  0  0  0  0  0
   -9.6208    0.3896   -2.4517 H   0  0  0  0  0  0  0  0  0  0  0  0
   -9.1866   -3.4219   -0.8381 H   0  0  0  0  0  0  0  0  0  0  0  0
  -10.5441    1.6911   -0.9560 H   0  0  0  0  0  0  0  0  0  0  0  0
  -11.5069    0.4901    1.6683 H   0  0  0  0  0  0  0  0  0  0  0  0
  -10.5802    2.7712    1.7567 H   0  0  0  0  0  0  0  0  0  0  0  0
  -11.7186    3.2610    0.4174 H   0  0  0  0  0  0  0  0  0  0  0  0
  -12.0968    4.8738    2.5734 H   0  0  0  0  0  0  0  0  0  0  0  0
  -14.9148    1.0303    0.0624 H   0  0  0  0  0  0  0  0  0  0  0  0
  1  2  1  0
  2  3  1  0
  2  4  1  0
  4  5  1  0
  5  6  1  0
  5  7  1  0
  7  8  2  0
  7  9  1  0
  9 10  1  0
 10 11  1  0
 11 12  1  0
 12 13  2  0
 13 14  1  0
 14 15  2  0
 15 16  1  0
 16 17  2  0
 10 18  1  0
 18 19  2  0
 18 20  1  0
 20 21  1  0
 21 22  1  0
 22 23  1  0
 23 24  1  0
 23 25  2  0
 21 26  1  0
 26 27  2  0
 26 28  1  0
 28 29  1  0
 29 30  1  0
 30 31  1  0
 31 32  1  0
 31 33  1  0
 29 34  1  0
 34 35  2  0
 34 36  1  0
 36 37  1  0
 37 38  1  0
 38 39  1  0
 39 40  1  0
 40 41  1  0
 40 42  2  0
 37 43  1  0
 43 44  2  0
 43 45  1  0
 45 46  1  0
 46 47  1  0
 47 48  1  0
 48 49  1  0
 48 50  2  0
 46 51  1  0
 51 52  2  0
 51 53  1  0
 53 54  1  0
 54 55  1  0
 55 56  1  0
 56 57  1  0
 56 58  2  0
 54 59  1  0
 59 60  1  0
 59 61  2  0
 17 12  1  0
  1 62  1  0
  1 63  1  0
  1 64  1  0
  2 65  1  0
  3 66  1  0
  3 67  1  0
  3 68  1  0
  4 69  1  0
  4 70  1  0
  5 71  1  6
  6 72  1  0
  6 73  1  0
  9 74  1  0
 10 75  1  1
 11 76  1  0
 11 77  1  0
 13 78  1  0
 14 79  1  0
 15 80  1  0
 16 81  1  0
 17 82  1  0
 20 83  1  0
 21 84  1  6
 22 85  1  0
 22 86  1  0
 24 87  1  0
 28 88  1  0
 29 89  1  1
 30 90  1  0
 30 91  1  0
 31 92  1  0
 32 93  1  0
 32 94  1  0
 32 95  1  0
 33 96  1  0
 33 97  1  0
 33 98  1  0
 36 99  1  0
 37100  1  1
 38101  1  0
 38102  1  0
 39103  1  0
 39104  1  0
 41105  1  0
 45106  1  0
 46107  1  6
 47108  1  0
 47109  1  0
 49110  1  0
 53111  1  0
 54112  1  1
 55113  1  0
 55114  1  0
 57115  1  0
 60116  1  0
M  END
$$$$
[H]c1nc(N([H])C(=O)c2nc(N3C([H])([H])C([H])([H])N(C(C([H])([H])[H])(C([H])([H])[H])C([H])([H])[H])C([H])([H])[C@@]3([H])C([H])([H])[H])nc(-c3c([H])c([H])c(F)c([H])c3[H])c2[H])c([H])c(C(=O)N([H])[H])c1[H]
     RDKit          3D

 66 69  0  0  0  0  0  0  0  0999 V2000
   -3.0443    1.5314    1.4320 C   0  0  0  0  0  0  0  0  0  0  0  0
   -3.2236    0.4447    0.4158 C   0  0  2  0  0  0  0  0  0  0  0  0
   -4.0963   -0.6472    1.0262 C   0  0  0  0  0  0  0  0  0  0  0  0
   -4.4848   -1.6444    0.0841 N   0  0  0  0  0  0  0  0  0  0  0  0
   -3.4919   -1.9630   -0.8945 C   0  0  0  0  0  0  0  0  0  0  0  0
   -2.1103   -1.5184   -0.5566 C   0  0  0  0  0  0  0  0  0  0  0  0
   -2.0051   -0.1940    0.0135 N   0  0  0  0  0  0  0  0  0  0  0  0
   -0.7014    0.3517    0.1067 C   0  0  0  0  0  0  0  0  0  0  0  0
    0.3853   -0.4301   -0.1098 N   0  0  0  0  0  0  0  0  0  0  0  0
    1.6507   -0.0126   -0.0543 C   0  0  0  0  0  0  0  0  0  0  0  0
    1.8443    1.3230    0.2487 C   0  0  0  0  0  0  0  0  0  0  0  0
    0.7760    2.1829    0.4825 C   0  0  0  0  0  0  0  0  0  0  0  0
   -0.4647    1.6348    0.3961 N   0  0  0  0  0  0  0  0  0  0  0  0
    0.9629    3.5932    0.7982 C   0  0  0  0  0  0  0  0  0  0  0  0
   -0.1192    4.4162    1.0066 C   0  0  0  0  0  0  0  0  0  0  0  0
    0.0321    5.7691    1.3121 C   0  0  0  0  0  0  0  0  0  0  0  0
    1.2679    6.3319    1.4166 C   0  0  0  0  0  0  0  0  0  0  0  0
    1.4300    7.6493    1.7140 F   0  0  0  0  0  0  0  0  0  0  0  0
    2.3632    5.5257    1.2118 C   0  0  0  0  0  0  0  0  0  0  0  0
    2.2014    4.1734    0.9067 C   0  0  0  0  0  0  0  0  0  0  0  0
    2.7597   -0.9271   -0.3017 C   0  0  0  0  0  0  0  0  0  0  0  0
    2.4781   -2.1155   -0.5744 O   0  0  0  0  0  0  0  0  0  0  0  0
    4.1196   -0.5405   -0.2488 N   0  0  0  0  0  0  0  0  0  0  0  0
    5.1314   -1.4934   -0.5012 C   0  0  0  0  0  0  0  0  0  0  0  0
    6.4509   -1.1263   -0.4500 C   0  0  0  0  0  0  0  0  0  0  0  0
    7.4355   -2.0670   -0.6979 C   0  0  0  0  0  0  0  0  0  0  0  0
    7.0494   -3.3595   -0.9922 C   0  0  0  0  0  0  0  0  0  0  0  0
    5.7172   -3.7139   -1.0402 C   0  0  0  0  0  0  0  0  0  0  0  0
    4.8122   -2.7547   -0.7900 N   0  0  0  0  0  0  0  0  0  0  0  0
    8.8446   -1.7035   -0.6500 C   0  0  0  0  0  0  0  0  0  0  0  0
    9.8261   -2.7186   -0.8694 N   0  0  0  0  0  0  0  0  0  0  0  0
    9.2361   -0.5368   -0.4240 O   0  0  0  0  0  0  0  0  0  0  0  0
   -5.8145   -1.4930   -0.4154 C   0  0  0  0  0  0  0  0  0  0  0  0
   -6.0600   -0.2247   -1.1818 C   0  0  0  0  0  0  0  0  0  0  0  0
   -6.7563   -1.4898    0.7793 C   0  0  0  0  0  0  0  0  0  0  0  0
   -6.2090   -2.6700   -1.2759 C   0  0  0  0  0  0  0  0  0  0  0  0
   -4.0336    1.6315    1.9584 H   0  0  0  0  0  0  0  0  0  0  0  0
   -2.8837    2.4817    0.8892 H   0  0  0  0  0  0  0  0  0  0  0  0
   -2.2650    1.3027    2.1814 H   0  0  0  0  0  0  0  0  0  0  0  0
   -3.6928    0.8315   -0.5310 H   0  0  0  0  0  0  0  0  0  0  0  0
   -5.0026   -0.2175    1.4911 H   0  0  0  0  0  0  0  0  0  0  0  0
   -3.4977   -1.1119    1.8355 H   0  0  0  0  0  0  0  0  0  0  0  0
   -3.8312   -1.5530   -1.8682 H   0  0  0  0  0  0  0  0  0  0  0  0
   -3.4748   -3.0670   -1.0086 H   0  0  0  0  0  0  0  0  0  0  0  0
   -1.5834   -2.2178    0.1207 H   0  0  0  0  0  0  0  0  0  0  0  0
   -1.5253   -1.4980   -1.5112 H   0  0  0  0  0  0  0  0  0  0  0  0
    2.8444    1.6947    0.3018 H   0  0  0  0  0  0  0  0  0  0  0  0
   -1.1030    4.0012    0.9298 H   0  0  0  0  0  0  0  0  0  0  0  0
   -0.8252    6.4072    1.4740 H   0  0  0  0  0  0  0  0  0  0  0  0
    3.3409    5.9807    1.2969 H   0  0  0  0  0  0  0  0  0  0  0  0
    3.0912    3.5976    0.7586 H   0  0  0  0  0  0  0  0  0  0  0  0
    4.3955    0.4599   -0.0204 H   0  0  0  0  0  0  0  0  0  0  0  0
    6.7936   -0.1155   -0.2210 H   0  0  0  0  0  0  0  0  0  0  0  0
    7.8006   -4.1302   -1.1937 H   0  0  0  0  0  0  0  0  0  0  0  0
    5.4832   -4.7399   -1.2763 H   0  0  0  0  0  0  0  0  0  0  0  0
   10.6018   -2.7785   -0.1720 H   0  0  0  0  0  0  0  0  0  0  0  0
    9.7197   -3.3321   -1.6943 H   0  0  0  0  0  0  0  0  0  0  0  0
   -5.3642   -0.1450   -2.0449 H   0  0  0  0  0  0  0  0  0  0  0  0
   -6.0957    0.6782   -0.5674 H   0  0  0  0  0  0  0  0  0  0  0  0
   -7.0887   -0.3340   -1.6355 H   0  0  0  0  0  0  0  0  0  0  0  0
   -7.6355   -2.1486    0.6023 H   0  0  0  0  0  0  0  0  0  0  0  0
   -7.1467   -0.4878    1.0029 H   0  0  0  0  0  0  0  0  0  0  0  0
   -6.2436   -1.8381    1.7056 H   0  0  0  0  0  0  0  0  0  0  0  0
   -5.9847   -2.4844   -2.3327 H   0  0  0  0  0  0  0  0  0  0  0  0
   -7.3033   -2.8649   -1.1899 H   0  0  0  0  0  0  0  0  0  0  0  0
   -5.6836   -3.5861   -0.9424 H   0  0  0  0  0  0  0  0  0  0  0  0
  1  2  1  0
  2  3  1  0
  3  4  1  0
  4  5  1  0
  5  6  1  0
  6  7  1  0
  7  8  1  0
  8  9  2  0
  9 10  1  0
 10 11  2  0
 11 12  1  0
 12 13  2  0
 12 14  1  0
 14 15  2  0
 15 16  1  0
 16 17  2  0
 17 18  1  0
 17 19  1  0
 19 20  2  0
 10 21  1  0
 21 22  2  0
 21 23  1  0
 23 24  1  0
 24 25  2  0
 25 26  1  0
 26 27  2  0
 27 28  1  0
 28 29  2  0
 26 30  1  0
 30 31  1  0
 30 32  2  0
  4 33  1  0
 33 34  1  0
 33 35  1  0
 33 36  1  0
  7  2  1  0
 13  8  1  0
 20 14  1  0
 29 24  1  0
  1 37  1  0
  1 38  1  0
  1 39  1  0
  2 40  1  6
  3 41  1  0
  3 42  1  0
  5 43  1  0
  5 44  1  0
  6 45  1  0
  6 46  1  0
 11 47  1  0
 15 48  1  0
 16 49  1  0
 19 50  1  0
 20 51  1  0
 23 52  1  0
 25 53  1  0
 27 54  1  0
 28 55  1  0
 31 56  1  0
 31 57  1  0
 34 58  1  0
 34 59  1  0
 34 60  1  0
 35 61  1  0
 35 62  1  0
 35 63  1  0
 36 64  1  0
 36 65  1  0
 36 66  1  0
M  END
$$$$
[H]N(C(=O)N1C([H])([H])C([H])([H])C([H])([H])[C@@]1([H])C#N)[C@]1([H])C([H])([H])C([H])([H])[C@@]([H])(N2C([H])([H])C([H])([H])C([H])([H])[C@@]2([H])C#N)C([H])([H])C1([H])[H]
     RDKit          3D

 48 50  0  0  0  0  0  0  0  0999 V2000
    2.5263    0.1663    1.8910 O   0  0  0  0  0  0  0  0  0  0  0  0
    2.8002   -0.0552    0.6728 C   0  0  0  0  0  0  0  0  0  0  0  0
    1.7173   -0.1966   -0.2494 N   0  0  0  0  0  0  0  0  0  0  0  0
    0.3516   -0.0890    0.2062 C   0  0  1  0  0  0  0  0  0  0  0  0
   -0.3783    1.0114   -0.4810 C   0  0  0  0  0  0  0  0  0  0  0  0
   -1.8552    0.9159   -0.5126 C   0  0  0  0  0  0  0  0  0  0  0  0
   -2.4132   -0.4773   -0.4739 C   0  0  1  0  0  0  0  0  0  0  0  0
   -1.6964   -1.3167    0.5700 C   0  0  0  0  0  0  0  0  0  0  0  0
   -0.2849   -1.4480    0.0241 C   0  0  0  0  0  0  0  0  0  0  0  0
   -3.8146   -0.5448   -0.3016 N   0  0  0  0  0  0  0  0  0  0  0  0
   -4.6003    0.0369   -1.3318 C   0  0  0  0  0  0  0  0  0  0  0  0
   -5.3082    1.2442   -0.7499 C   0  0  0  0  0  0  0  0  0  0  0  0
   -5.3096    0.9766    0.7377 C   0  0  0  0  0  0  0  0  0  0  0  0
   -4.3239   -0.1571    0.9638 C   0  0  1  0  0  0  0  0  0  0  0  0
   -5.0689   -1.2895    1.5267 C   0  0  0  0  0  0  0  0  0  0  0  0
   -5.6602   -2.2003    1.9664 N   0  0  0  0  0  0  0  0  0  0  0  0
    4.1490   -0.1493    0.2918 N   0  0  0  0  0  0  0  0  0  0  0  0
    5.2953   -0.0205    1.1422 C   0  0  0  0  0  0  0  0  0  0  0  0
    6.2317    0.8274    0.2794 C   0  0  0  0  0  0  0  0  0  0  0  0
    5.7616    0.6287   -1.1481 C   0  0  0  0  0  0  0  0  0  0  0  0
    4.6385   -0.3944   -1.0373 C   0  0  1  0  0  0  0  0  0  0  0  0
    5.2283   -1.7488   -1.1195 C   0  0  0  0  0  0  0  0  0  0  0  0
    5.7058   -2.8014   -1.1837 N   0  0  0  0  0  0  0  0  0  0  0  0
    1.9200   -0.3781   -1.2596 H   0  0  0  0  0  0  0  0  0  0  0  0
    0.3830    0.0931    1.2990 H   0  0  0  0  0  0  0  0  0  0  0  0
   -0.0010    1.0621   -1.5286 H   0  0  0  0  0  0  0  0  0  0  0  0
   -0.0791    1.9741   -0.0145 H   0  0  0  0  0  0  0  0  0  0  0  0
   -2.2670    1.4106   -1.4198 H   0  0  0  0  0  0  0  0  0  0  0  0
   -2.2999    1.4617    0.3505 H   0  0  0  0  0  0  0  0  0  0  0  0
   -2.1638   -0.9532   -1.4549 H   0  0  0  0  0  0  0  0  0  0  0  0
   -1.6086   -0.7989    1.5418 H   0  0  0  0  0  0  0  0  0  0  0  0
   -2.2034   -2.2988    0.6469 H   0  0  0  0  0  0  0  0  0  0  0  0
    0.2364   -2.1760    0.6478 H   0  0  0  0  0  0  0  0  0  0  0  0
   -0.3099   -1.7623   -1.0556 H   0  0  0  0  0  0  0  0  0  0  0  0
   -5.3899   -0.6841   -1.6286 H   0  0  0  0  0  0  0  0  0  0  0  0
   -4.0488    0.2996   -2.2537 H   0  0  0  0  0  0  0  0  0  0  0  0
   -6.3426    1.3508   -1.1350 H   0  0  0  0  0  0  0  0  0  0  0  0
   -4.7035    2.1339   -0.9890 H   0  0  0  0  0  0  0  0  0  0  0  0
   -6.3389    0.6870    1.0298 H   0  0  0  0  0  0  0  0  0  0  0  0
   -5.0100    1.9056    1.2380 H   0  0  0  0  0  0  0  0  0  0  0  0
   -3.5821    0.1975    1.6856 H   0  0  0  0  0  0  0  0  0  0  0  0
    5.8317   -0.9923    1.3014 H   0  0  0  0  0  0  0  0  0  0  0  0
    5.0793    0.4852    2.1045 H   0  0  0  0  0  0  0  0  0  0  0  0
    6.1570    1.9109    0.5855 H   0  0  0  0  0  0  0  0  0  0  0  0
    7.2752    0.5367    0.3982 H   0  0  0  0  0  0  0  0  0  0  0  0
    5.3083    1.5836   -1.4787 H   0  0  0  0  0  0  0  0  0  0  0  0
    6.5858    0.2915   -1.7958 H   0  0  0  0  0  0  0  0  0  0  0  0
    3.8800   -0.2585   -1.8180 H   0  0  0  0  0  0  0  0  0  0  0  0
  1  2  2  0
  2  3  1  0
  3  4  1  0
  4  5  1  0
  5  6  1  0
  6  7  1  0
  7  8  1  0
  8  9  1  0
  7 10  1  0
 10 11  1  0
 11 12  1  0
 12 13  1  0
 13 14  1  0
 14 15  1  0
 15 16  3  0
  2 17  1  0
 17 18  1  0
 18 19  1  0
 19 20  1  0
 20 21  1  0
 21 22  1  0
 22 23  3  0
  9  4  1  0
 14 10  1  0
 21 17  1  0
  3 24  1  0
  4 25  1  1
  5 26  1  0
  5 27  1  0
  6 28  1  0
  6 29  1  0
  7 30  1  6
  8 31  1  0
  8 32  1  0
  9 33  1  0
  9 34  1  0
 11 35  1  0
 11 36  1  0
 12 37  1  0
 12 38  1  0
 13 39  1  0
 13 40  1  0
 14 41  1  1
 18 42  1  0
 18 43  1  0
 19 44  1  0
 19 45  1  0
 20 46  1  0
 20 47  1  0
 21 48  1  6
M  END
$$$$
[H]c1c([H])c([N+](=O)[O-])c([H])c([H])c1N1C([H])([H])C([H])([H])N(C(=O)OC(C([H])([H])[H])(C([H])([H])[H])C([H])([H])[H])C([H])([H])C1([H])[H]
     RDKit          3D

 43 44  0  0  0  0  0  0  0  0999 V2000
   -5.1038    0.2769   -0.9334 C   0  0  0  0  0  0  0  0  0  0  0  0
   -4.5244   -0.6503    0.1335 C   0  0  0  0  0  0  0  0  0  0  0  0
   -5.0332   -2.0688   -0.1287 C   0  0  0  0  0  0  0  0  0  0  0  0
   -4.8966   -0.2160    1.5208 C   0  0  0  0  0  0  0  0  0  0  0  0
   -3.1344   -0.6752   -0.0413 O   0  0  0  0  0  0  0  0  0  0  0  0
   -2.4095    0.4949    0.0584 C   0  0  0  0  0  0  0  0  0  0  0  0
   -2.9598    1.6001    0.3043 O   0  0  0  0  0  0  0  0  0  0  0  0
   -1.0126    0.4495   -0.1206 N   0  0  0  0  0  0  0  0  0  0  0  0
   -0.3821   -0.8225   -0.4034 C   0  0  0  0  0  0  0  0  0  0  0  0
    1.0211   -0.8254    0.1707 C   0  0  0  0  0  0  0  0  0  0  0  0
    1.7814    0.3170   -0.2531 N   0  0  0  0  0  0  0  0  0  0  0  0
    1.1030    1.5393   -0.6779 C   0  0  0  0  0  0  0  0  0  0  0  0
   -0.2555    1.6798   -0.0151 C   0  0  0  0  0  0  0  0  0  0  0  0
    3.1962    0.2443   -0.2491 C   0  0  0  0  0  0  0  0  0  0  0  0
    3.9382    1.2798   -0.7743 C   0  0  0  0  0  0  0  0  0  0  0  0
    5.3155    1.2331   -0.7761 C   0  0  0  0  0  0  0  0  0  0  0  0
    5.9639    0.1409   -0.2480 C   0  0  0  0  0  0  0  0  0  0  0  0
    5.2094   -0.8878    0.2740 C   0  0  0  0  0  0  0  0  0  0  0  0
    3.8371   -0.8492    0.2798 C   0  0  0  0  0  0  0  0  0  0  0  0
    7.3925    0.0649   -0.2363 N   0  0  0  0  0  0  0  0  0  0  0  0
    8.0162   -1.0338    0.2954 O   0  0  0  0  0  0  0  0  0  0  0  0
    8.0847    0.9828   -0.7025 O   0  0  0  0  0  0  0  0  0  0  0  0
   -5.3618    1.2731   -0.4939 H   0  0  0  0  0  0  0  0  0  0  0  0
   -4.4183    0.3686   -1.8042 H   0  0  0  0  0  0  0  0  0  0  0  0
   -6.0700   -0.1781   -1.2459 H   0  0  0  0  0  0  0  0  0  0  0  0
   -5.8343   -2.2955    0.6012 H   0  0  0  0  0  0  0  0  0  0  0  0
   -5.3974   -2.1569   -1.1725 H   0  0  0  0  0  0  0  0  0  0  0  0
   -4.1951   -2.8047   -0.0311 H   0  0  0  0  0  0  0  0  0  0  0  0
   -4.9206    0.8714    1.6145 H   0  0  0  0  0  0  0  0  0  0  0  0
   -5.9374   -0.5764    1.7547 H   0  0  0  0  0  0  0  0  0  0  0  0
   -4.1668   -0.7051    2.2238 H   0  0  0  0  0  0  0  0  0  0  0  0
   -0.3912   -1.0033   -1.4999 H   0  0  0  0  0  0  0  0  0  0  0  0
   -0.9549   -1.6075    0.1380 H   0  0  0  0  0  0  0  0  0  0  0  0
    1.4754   -1.7856   -0.1960 H   0  0  0  0  0  0  0  0  0  0  0  0
    0.9303   -0.9202    1.2706 H   0  0  0  0  0  0  0  0  0  0  0  0
    1.6803    2.4364   -0.3416 H   0  0  0  0  0  0  0  0  0  0  0  0
    0.9589    1.5390   -1.7675 H   0  0  0  0  0  0  0  0  0  0  0  0
   -0.1494    1.9942    1.0483 H   0  0  0  0  0  0  0  0  0  0  0  0
   -0.7675    2.5180   -0.5586 H   0  0  0  0  0  0  0  0  0  0  0  0
    3.4829    2.1814   -1.2138 H   0  0  0  0  0  0  0  0  0  0  0  0
    5.8974    2.0275   -1.1791 H   0  0  0  0  0  0  0  0  0  0  0  0
    5.7128   -1.7570    0.6944 H   0  0  0  0  0  0  0  0  0  0  0  0
    3.2796   -1.6936    0.7091 H   0  0  0  0  0  0  0  0  0  0  0  0
  1  2  1  0
  2  3  1  0
  2  4  1  0
  2  5  1  0
  5  6  1  0
  6  7  2  0
  6  8  1  0
  8  9  1  0
  9 10  1  0
 10 11  1  0
 11 12  1  0
 12 13  1  0
 11 14  1  0
 14 15  2  0
 15 16  1  0
 16 17  2  0
 17 18  1  0
 18 19  2  0
 17 20  1  0
 20 21  1  0
 20 22  2  0
 13  8  1  0
 19 14  1  0
  1 23  1  0
  1 24  1  0
  1 25  1  0
  3 26  1  0
  3 27  1  0
  3 28  1  0
  4 29  1  0
  4 30  1  0
  4 31  1  0
  9 32  1  0
  9 33  1  0
 10 34  1  0
 10 35  1  0
 12 36  1  0
 12 37  1  0
 13 38  1  0
 13 39  1  0
 15 40  1  0
 16 41  1  0
 18 42  1  0
 19 43  1  0
M  CHG  2  20   1  21  -1
M  END
$$$$
[H]Oc1c([H])c([H])c(C([H])([H])[C@@]2([H])C(=O)N3C([H])([H])C([H])([H])C([H])([H])[C@@]3([H])C(=O)N([H])[C@@]([H])(C([H])([H])c3c([H])c([H])c([H])c([H])c3[H])C(=O)N([H])[C@@]([H])([C@@]([H])(C([H])([H])[H])C([H])([H])C([H])([H])[H])C(=O)N2[H])c([H])c1[H]
     RDKit          3D

 74 77  0  0  0  0  0  0  0  0999 V2000
    1.2260    5.1975    1.7055 C   0  0  0  0  0  0  0  0  0  0  0  0
    1.3535    3.7223    1.3130 C   0  0  0  0  0  0  0  0  0  0  0  0
    0.4003    3.4518    0.1925 C   0  0  2  0  0  0  0  0  0  0  0  0
   -0.9975    3.7339    0.6033 C   0  0  0  0  0  0  0  0  0  0  0  0
    0.5259    2.0204   -0.3258 C   0  0  2  0  0  0  0  0  0  0  0  0
    1.8533    1.7464   -0.8405 N   0  0  0  0  0  0  0  0  0  0  0  0
    2.3215    0.6469   -1.5422 C   0  0  0  0  0  0  0  0  0  0  0  0
    2.8907    0.8502   -2.6724 O   0  0  0  0  0  0  0  0  0  0  0  0
    2.2678   -0.7908   -1.1802 C   0  0  2  0  0  0  0  0  0  0  0  0
    3.6796   -1.3746   -1.0123 C   0  0  0  0  0  0  0  0  0  0  0  0
    4.4505   -0.7031    0.0424 C   0  0  0  0  0  0  0  0  0  0  0  0
    5.2628    0.3780   -0.1981 C   0  0  0  0  0  0  0  0  0  0  0  0
    5.9834    1.0103    0.7990 C   0  0  0  0  0  0  0  0  0  0  0  0
    5.9046    0.5599    2.0998 C   0  0  0  0  0  0  0  0  0  0  0  0
    5.0926   -0.5269    2.3612 C   0  0  0  0  0  0  0  0  0  0  0  0
    4.3774   -1.1514    1.3615 C   0  0  0  0  0  0  0  0  0  0  0  0
    1.6325   -1.6148   -2.1441 N   0  0  0  0  0  0  0  0  0  0  0  0
    0.7139   -2.6436   -1.8979 C   0  0  0  0  0  0  0  0  0  0  0  0
    0.3525   -3.3903   -2.8732 O   0  0  0  0  0  0  0  0  0  0  0  0
    0.0937   -2.9746   -0.5931 C   0  0  2  0  0  0  0  0  0  0  0  0
    0.3680   -4.4648   -0.3807 C   0  0  0  0  0  0  0  0  0  0  0  0
   -0.9040   -5.1017   -0.8934 C   0  0  0  0  0  0  0  0  0  0  0  0
   -1.9395   -4.1576   -0.4030 C   0  0  0  0  0  0  0  0  0  0  0  0
   -1.3524   -2.8486   -0.6049 N   0  0  0  0  0  0  0  0  0  0  0  0
   -1.9597   -1.5511   -0.7950 C   0  0  0  0  0  0  0  0  0  0  0  0
   -2.9070   -1.4516   -1.6140 O   0  0  0  0  0  0  0  0  0  0  0  0
   -1.5248   -0.3341   -0.0744 C   0  0  2  0  0  0  0  0  0  0  0  0
   -2.3272   -0.1677    1.2252 C   0  0  0  0  0  0  0  0  0  0  0  0
   -3.7602   -0.0425    1.0183 C   0  0  0  0  0  0  0  0  0  0  0  0
   -4.3508    1.1856    0.8499 C   0  0  0  0  0  0  0  0  0  0  0  0
   -5.7339    1.2954    0.6527 C   0  0  0  0  0  0  0  0  0  0  0  0
   -6.5158    0.1639    0.6262 C   0  0  0  0  0  0  0  0  0  0  0  0
   -7.9137    0.2629    0.4276 O   0  0  0  0  0  0  0  0  0  0  0  0
   -5.9148   -1.0578    0.7955 C   0  0  0  0  0  0  0  0  0  0  0  0
   -4.5608   -1.1536    0.9877 C   0  0  0  0  0  0  0  0  0  0  0  0
   -1.6784    0.8611   -0.8701 N   0  0  0  0  0  0  0  0  0  0  0  0
   -0.5706    1.6766   -1.2038 C   0  0  0  0  0  0  0  0  0  0  0  0
   -0.5546    2.1441   -2.3959 O   0  0  0  0  0  0  0  0  0  0  0  0
    0.8294    5.7917    0.8607 H   0  0  0  0  0  0  0  0  0  0  0  0
    2.2064    5.6344    1.9762 H   0  0  0  0  0  0  0  0  0  0  0  0
    0.5913    5.2958    2.6261 H   0  0  0  0  0  0  0  0  0  0  0  0
    1.1197    3.1418    2.2288 H   0  0  0  0  0  0  0  0  0  0  0  0
    2.4169    3.5900    1.0486 H   0  0  0  0  0  0  0  0  0  0  0  0
    0.7316    4.0816   -0.6802 H   0  0  0  0  0  0  0  0  0  0  0  0
   -1.5253    4.1751   -0.2932 H   0  0  0  0  0  0  0  0  0  0  0  0
   -1.5627    2.9121    1.0274 H   0  0  0  0  0  0  0  0  0  0  0  0
   -1.0272    4.5728    1.3587 H   0  0  0  0  0  0  0  0  0  0  0  0
    0.4039    1.3900    0.6084 H   0  0  0  0  0  0  0  0  0  0  0  0
    2.5339    2.5192   -0.6388 H   0  0  0  0  0  0  0  0  0  0  0  0
    1.8028   -0.9610   -0.1868 H   0  0  0  0  0  0  0  0  0  0  0  0
    3.5895   -2.4404   -0.7923 H   0  0  0  0  0  0  0  0  0  0  0  0
    4.2058   -1.2019   -1.9827 H   0  0  0  0  0  0  0  0  0  0  0  0
    5.3636    0.7696   -1.1977 H   0  0  0  0  0  0  0  0  0  0  0  0
    6.6227    1.8612    0.6102 H   0  0  0  0  0  0  0  0  0  0  0  0
    6.4554    1.0302    2.9088 H   0  0  0  0  0  0  0  0  0  0  0  0
    5.0062   -0.9077    3.3694 H   0  0  0  0  0  0  0  0  0  0  0  0
    3.7364   -2.0022    1.5418 H   0  0  0  0  0  0  0  0  0  0  0  0
    1.8858   -1.4239   -3.1610 H   0  0  0  0  0  0  0  0  0  0  0  0
    0.5343   -2.4692    0.2669 H   0  0  0  0  0  0  0  0  0  0  0  0
    1.1998   -4.8261   -1.0016 H   0  0  0  0  0  0  0  0  0  0  0  0
    0.5628   -4.7146    0.6612 H   0  0  0  0  0  0  0  0  0  0  0  0
   -1.0367   -6.0925   -0.3723 H   0  0  0  0  0  0  0  0  0  0  0  0
   -0.9376   -5.2660   -1.9680 H   0  0  0  0  0  0  0  0  0  0  0  0
   -2.8588   -4.3010   -1.0048 H   0  0  0  0  0  0  0  0  0  0  0  0
   -2.1233   -4.3554    0.6833 H   0  0  0  0  0  0  0  0  0  0  0  0
   -0.4697   -0.4341    0.2910 H   0  0  0  0  0  0  0  0  0  0  0  0
   -2.0466   -1.0726    1.8280 H   0  0  0  0  0  0  0  0  0  0  0  0
   -1.8545    0.6789    1.7641 H   0  0  0  0  0  0  0  0  0  0  0  0
   -3.8150    2.1149    0.8570 H   0  0  0  0  0  0  0  0  0  0  0  0
   -6.2256    2.2378    0.5180 H   0  0  0  0  0  0  0  0  0  0  0  0
   -8.3089    0.2373   -0.5018 H   0  0  0  0  0  0  0  0  0  0  0  0
   -6.5333   -1.9470    0.7742 H   0  0  0  0  0  0  0  0  0  0  0  0
   -4.0956   -2.1173    1.1205 H   0  0  0  0  0  0  0  0  0  0  0  0
   -2.6625    1.0923   -1.1933 H   0  0  0  0  0  0  0  0  0  0  0  0
  1  2  1  0
  2  3  1  0
  3  4  1  0
  3  5  1  0
  5  6  1  0
  6  7  1  0
  7  8  2  0
  7  9  1  0
  9 10  1  0
 10 11  1  0
 11 12  2  0
 12 13  1  0
 13 14  2  0
 14 15  1  0
 15 16  2  0
  9 17  1  0
 17 18  1  0
 18 19  2  0
 18 20  1  0
 20 21  1  0
 21 22  1  0
 22 23  1  0
 23 24  1  0
 24 25  1  0
 25 26  2  0
 25 27  1  0
 27 28  1  0
 28 29  1  0
 29 30  2  0
 30 31  1  0
 31 32  2  0
 32 33  1  0
 32 34  1  0
 34 35  2  0
 27 36  1  0
 36 37  1  0
 37 38  2  0
 37  5  1  0
 16 11  1  0
 24 20  1  0
 35 29  1  0
  1 39  1  0
  1 40  1  0
  1 41  1  0
  2 42  1  0
  2 43  1  0
  3 44  1  6
  4 45  1  0
  4 46  1  0
  4 47  1  0
  5 48  1  1
  6 49  1  0
  9 50  1  1
 10 51  1  0
 10 52  1  0
 12 53  1  0
 13 54  1  0
 14 55  1  0
 15 56  1  0
 16 57  1  0
 17 58  1  0
 20 59  1  1
 21 60  1  0
 21 61  1  0
 22 62  1  0
 22 63  1  0
 23 64  1  0
 23 65  1  0
 27 66  1  1
 28 67  1  0
 28 68  1  0
 30 69  1  0
 31 70  1  0
 33 71  1  0
 34 72  1  0
 35 73  1  0
 36 74  1  0
M  END
$$$$
[H]OC(=O)c1c([H])c([H])c(N([H])C(=O)/C([H])=C(\[H])c2c([H])c([H])c(-c3c([H])c([H])c(OC([H])([H])[H])c([H])c3[H])c([H])c2[H])c([H])c1[H]
     RDKit          3D

 47 49  0  0  0  0  0  0  0  0999 V2000
   -9.8473   -0.0690    0.1342 C   0  0  0  0  0  0  0  0  0  0  0  0
   -8.9347    0.9915   -0.0977 O   0  0  0  0  0  0  0  0  0  0  0  0
   -7.5716    0.6941   -0.1343 C   0  0  0  0  0  0  0  0  0  0  0  0
   -7.0973   -0.5879    0.0470 C   0  0  0  0  0  0  0  0  0  0  0  0
   -5.7482   -0.8713    0.0089 C   0  0  0  0  0  0  0  0  0  0  0  0
   -4.8094    0.1365   -0.2162 C   0  0  0  0  0  0  0  0  0  0  0  0
   -5.2982    1.4129   -0.3957 C   0  0  0  0  0  0  0  0  0  0  0  0
   -6.6479    1.6935   -0.3570 C   0  0  0  0  0  0  0  0  0  0  0  0
   -3.3839   -0.1450   -0.2605 C   0  0  0  0  0  0  0  0  0  0  0  0
   -2.4736    0.8041    0.1496 C   0  0  0  0  0  0  0  0  0  0  0  0
   -1.0977    0.5464    0.1120 C   0  0  0  0  0  0  0  0  0  0  0  0
   -0.5900   -0.6492   -0.3293 C   0  0  0  0  0  0  0  0  0  0  0  0
    0.8319   -0.9638   -0.3873 C   0  0  0  0  0  0  0  0  0  0  0  0
    1.7657   -0.1367   -0.0245 C   0  0  0  0  0  0  0  0  0  0  0  0
    3.2071   -0.5038   -0.1020 C   0  0  0  0  0  0  0  0  0  0  0  0
    3.4752   -1.6372   -0.5296 O   0  0  0  0  0  0  0  0  0  0  0  0
    4.1662    0.4084    0.2951 N   0  0  0  0  0  0  0  0  0  0  0  0
    5.5530    0.2018    0.2838 C   0  0  0  0  0  0  0  0  0  0  0  0
    6.1745   -1.0025    0.1269 C   0  0  0  0  0  0  0  0  0  0  0  0
    7.5669   -1.0930    0.1143 C   0  0  0  0  0  0  0  0  0  0  0  0
    8.3845    0.0032    0.2571 C   0  0  0  0  0  0  0  0  0  0  0  0
    7.7504    1.2151    0.4156 C   0  0  0  0  0  0  0  0  0  0  0  0
    6.3872    1.3279    0.4307 C   0  0  0  0  0  0  0  0  0  0  0  0
    9.8312   -0.1141    0.2410 C   0  0  0  0  0  0  0  0  0  0  0  0
   10.6078    1.0229    0.3884 O   0  0  0  0  0  0  0  0  0  0  0  0
   10.4296   -1.2081    0.0984 O   0  0  0  0  0  0  0  0  0  0  0  0
   -1.5219   -1.6076   -0.7439 C   0  0  0  0  0  0  0  0  0  0  0  0
   -2.8747   -1.3480   -0.7046 C   0  0  0  0  0  0  0  0  0  0  0  0
   -9.6440   -0.9346   -0.5386 H   0  0  0  0  0  0  0  0  0  0  0  0
  -10.8900    0.2619   -0.1236 H   0  0  0  0  0  0  0  0  0  0  0  0
   -9.7983   -0.4568    1.1707 H   0  0  0  0  0  0  0  0  0  0  0  0
   -7.8115   -1.3988    0.2257 H   0  0  0  0  0  0  0  0  0  0  0  0
   -5.3512   -1.8676    0.1481 H   0  0  0  0  0  0  0  0  0  0  0  0
   -4.5558    2.2034   -0.5725 H   0  0  0  0  0  0  0  0  0  0  0  0
   -6.9929    2.7065   -0.5020 H   0  0  0  0  0  0  0  0  0  0  0  0
   -2.8458    1.7552    0.5023 H   0  0  0  0  0  0  0  0  0  0  0  0
   -0.4248    1.3234    0.4441 H   0  0  0  0  0  0  0  0  0  0  0  0
    1.1779   -1.9448   -0.7520 H   0  0  0  0  0  0  0  0  0  0  0  0
    1.5142    0.8467    0.3456 H   0  0  0  0  0  0  0  0  0  0  0  0
    3.7849    1.3569    0.6440 H   0  0  0  0  0  0  0  0  0  0  0  0
    5.6419   -1.9346    0.0176 H   0  0  0  0  0  0  0  0  0  0  0  0
    8.0020   -2.0588   -0.0119 H   0  0  0  0  0  0  0  0  0  0  0  0
    8.3873    2.0922    0.5301 H   0  0  0  0  0  0  0  0  0  0  0  0
    5.9460    2.3228    0.5611 H   0  0  0  0  0  0  0  0  0  0  0  0
   10.3288    1.8728   -0.0569 H   0  0  0  0  0  0  0  0  0  0  0  0
   -1.1140   -2.5532   -1.0923 H   0  0  0  0  0  0  0  0  0  0  0  0
   -3.5894   -2.1136   -1.0346 H   0  0  0  0  0  0  0  0  0  0  0  0
  1  2  1  0
  2  3  1  0
  3  4  2  0
  4  5  1  0
  5  6  2  0
  6  7  1  0
  7  8  2  0
  6  9  1  0
  9 10  2  0
 10 11  1  0
 11 12  2  0
 12 13  1  0
 13 14  2  0
 14 15  1  0
 15 16  2  0
 15 17  1  0
 17 18  1  0
 18 19  2  0
 19 20  1  0
 20 21  2  0
 21 22  1  0
 22 23  2  0
 21 24  1  0
 24 25  1  0
 24 26  2  0
 12 27  1  0
 27 28  2  0
  8  3  1  0
 28  9  1  0
 23 18  1  0
  1 29  1  0
  1 30  1  0
  1 31  1  0
  4 32  1  0
  5 33  1  0
  7 34  1  0
  8 35  1  0
 10 36  1  0
 11 37  1  0
 13 38  1  0
 14 39  1  0
 17 40  1  0
 19 41  1  0
 20 42  1  0
 22 43  1  0
 23 44  1  0
 25 45  1  0
 27 46  1  0
 28 47  1  0
M  END
$$$$
[H]c1c([H])c([H])c(C([H])([H])[C@@]([H])(C(=O)N([H])[H])N([H])C(=O)[C@@]([H])(N([H])C(=O)[C@@]([H])(N([H])C(=O)[C@@]([H])(N([H])C(=O)[C@@]([H])(N([H])C(=O)C([H])([H])[H])C([H])([H])c2c([H])c([H])c([H])c([H])c2[H])C([H])([H])c2c([H])c([H])c([H])c([H])c2[H])C([H])([H])c2c([H])c([H])c([H])c([H])c2[H])C([H])([H])c2c([H])c([H])c([H])c([H])c2[H])c([H])c1[H]
     RDKit          3D

109113  0  0  0  0  0  0  0  0999 V2000
   -6.2843    1.3636    5.3136 C   0  0  0  0  0  0  0  0  0  0  0  0
   -6.0955    1.2519    3.8523 C   0  0  0  0  0  0  0  0  0  0  0  0
   -7.0683    1.2208    3.0487 O   0  0  0  0  0  0  0  0  0  0  0  0
   -4.8013    1.1763    3.3069 N   0  0  0  0  0  0  0  0  0  0  0  0
   -4.4879    1.0694    1.9111 C   0  0  1  0  0  0  0  0  0  0  0  0
   -3.6681    2.2315    1.4671 C   0  0  0  0  0  0  0  0  0  0  0  0
   -4.4884    3.4668    1.7115 C   0  0  0  0  0  0  0  0  0  0  0  0
   -4.3724    4.1884    2.8828 C   0  0  0  0  0  0  0  0  0  0  0  0
   -5.1523    5.3255    3.0730 C   0  0  0  0  0  0  0  0  0  0  0  0
   -6.0449    5.7523    2.1119 C   0  0  0  0  0  0  0  0  0  0  0  0
   -6.1474    5.0265    0.9593 C   0  0  0  0  0  0  0  0  0  0  0  0
   -5.3769    3.8893    0.7531 C   0  0  0  0  0  0  0  0  0  0  0  0
   -3.9551   -0.2572    1.5137 C   0  0  0  0  0  0  0  0  0  0  0  0
   -3.9324   -1.1622    2.3913 O   0  0  0  0  0  0  0  0  0  0  0  0
   -3.4839   -0.5406    0.2199 N   0  0  0  0  0  0  0  0  0  0  0  0
   -2.9724   -1.7556   -0.2935 C   0  0  1  0  0  0  0  0  0  0  0  0
   -3.3146   -2.0055   -1.7010 C   0  0  0  0  0  0  0  0  0  0  0  0
   -4.8031   -2.0807   -1.9287 C   0  0  0  0  0  0  0  0  0  0  0  0
   -5.5303   -0.9764   -2.3043 C   0  0  0  0  0  0  0  0  0  0  0  0
   -6.9017   -1.1038   -2.4881 C   0  0  0  0  0  0  0  0  0  0  0  0
   -7.5575   -2.3002   -2.3062 C   0  0  0  0  0  0  0  0  0  0  0  0
   -6.8266   -3.4081   -1.9291 C   0  0  0  0  0  0  0  0  0  0  0  0
   -5.4656   -3.2758   -1.7484 C   0  0  0  0  0  0  0  0  0  0  0  0
   -1.5650   -2.0746    0.0947 C   0  0  0  0  0  0  0  0  0  0  0  0
   -1.2621   -1.9432    1.3029 O   0  0  0  0  0  0  0  0  0  0  0  0
   -0.5971   -2.5035   -0.8251 N   0  0  0  0  0  0  0  0  0  0  0  0
    0.7504   -2.8636   -0.5325 C   0  0  1  0  0  0  0  0  0  0  0  0
    1.4138   -3.6899   -1.5651 C   0  0  0  0  0  0  0  0  0  0  0  0
    0.7185   -4.9742   -1.8231 C   0  0  0  0  0  0  0  0  0  0  0  0
    0.9922   -6.0879   -1.0906 C   0  0  0  0  0  0  0  0  0  0  0  0
    0.3602   -7.2995   -1.3113 C   0  0  0  0  0  0  0  0  0  0  0  0
   -0.5795   -7.3807   -2.3077 C   0  0  0  0  0  0  0  0  0  0  0  0
   -0.8778   -6.2818   -3.0614 C   0  0  0  0  0  0  0  0  0  0  0  0
   -0.2393   -5.0988   -2.8227 C   0  0  0  0  0  0  0  0  0  0  0  0
    1.5722   -1.7207   -0.0171 C   0  0  0  0  0  0  0  0  0  0  0  0
    1.0121   -0.6418    0.2053 O   0  0  0  0  0  0  0  0  0  0  0  0
    2.9403   -1.8877    0.2056 N   0  0  0  0  0  0  0  0  0  0  0  0
    3.8683   -0.9207    0.7246 C   0  0  1  0  0  0  0  0  0  0  0  0
    5.0766   -1.4372    1.3674 C   0  0  0  0  0  0  0  0  0  0  0  0
    5.9659   -2.3030    0.6027 C   0  0  0  0  0  0  0  0  0  0  0  0
    5.7698   -3.6687    0.6665 C   0  0  0  0  0  0  0  0  0  0  0  0
    6.5647   -4.5579   -0.0167 C   0  0  0  0  0  0  0  0  0  0  0  0
    7.6138   -4.1011   -0.8107 C   0  0  0  0  0  0  0  0  0  0  0  0
    7.8047   -2.7470   -0.8723 C   0  0  0  0  0  0  0  0  0  0  0  0
    6.9935   -1.8495   -0.1753 C   0  0  0  0  0  0  0  0  0  0  0  0
    3.9610    0.3024   -0.0993 C   0  0  0  0  0  0  0  0  0  0  0  0
    3.3000    0.3636   -1.1490 O   0  0  0  0  0  0  0  0  0  0  0  0
    4.7608    1.4043    0.2738 N   0  0  0  0  0  0  0  0  0  0  0  0
    4.8010    2.6636   -0.5176 C   0  0  1  0  0  0  0  0  0  0  0  0
    4.3699    3.7510    0.4425 C   0  0  0  0  0  0  0  0  0  0  0  0
    4.2927    5.1086   -0.0791 C   0  0  0  0  0  0  0  0  0  0  0  0
    5.3131    6.0312   -0.0369 C   0  0  0  0  0  0  0  0  0  0  0  0
    5.2004    7.3242   -0.5265 C   0  0  0  0  0  0  0  0  0  0  0  0
    3.9922    7.7297   -1.0967 C   0  0  0  0  0  0  0  0  0  0  0  0
    2.9601    6.8481   -1.1574 C   0  0  0  0  0  0  0  0  0  0  0  0
    3.1088    5.5787   -0.6637 C   0  0  0  0  0  0  0  0  0  0  0  0
    6.1644    2.8218   -1.0488 C   0  0  0  0  0  0  0  0  0  0  0  0
    6.5902    3.8463   -1.9240 N   0  0  0  0  0  0  0  0  0  0  0  0
    7.0969    1.9880   -0.7306 O   0  0  0  0  0  0  0  0  0  0  0  0
   -5.5642    2.1536    5.6636 H   0  0  0  0  0  0  0  0  0  0  0  0
   -5.9956    0.4284    5.8227 H   0  0  0  0  0  0  0  0  0  0  0  0
   -7.3049    1.6874    5.5627 H   0  0  0  0  0  0  0  0  0  0  0  0
   -3.9814    1.2019    3.9715 H   0  0  0  0  0  0  0  0  0  0  0  0
   -5.4831    1.1370    1.3467 H   0  0  0  0  0  0  0  0  0  0  0  0
   -3.3857    2.1713    0.3889 H   0  0  0  0  0  0  0  0  0  0  0  0
   -2.7797    2.3478    2.1262 H   0  0  0  0  0  0  0  0  0  0  0  0
   -3.6982    3.9136    3.6628 H   0  0  0  0  0  0  0  0  0  0  0  0
   -5.0599    5.8795    3.9840 H   0  0  0  0  0  0  0  0  0  0  0  0
   -6.6321    6.6326    2.2894 H   0  0  0  0  0  0  0  0  0  0  0  0
   -6.8489    5.3596    0.2025 H   0  0  0  0  0  0  0  0  0  0  0  0
   -5.4919    3.3455   -0.1773 H   0  0  0  0  0  0  0  0  0  0  0  0
   -3.5319    0.2955   -0.4559 H   0  0  0  0  0  0  0  0  0  0  0  0
   -3.5531   -2.5706    0.3211 H   0  0  0  0  0  0  0  0  0  0  0  0
   -2.9296   -1.2433   -2.3957 H   0  0  0  0  0  0  0  0  0  0  0  0
   -2.9179   -2.9964   -2.0666 H   0  0  0  0  0  0  0  0  0  0  0  0
   -5.0080   -0.0333   -2.4510 H   0  0  0  0  0  0  0  0  0  0  0  0
   -7.4664   -0.2063   -2.7917 H   0  0  0  0  0  0  0  0  0  0  0  0
   -8.6130   -2.4219   -2.4409 H   0  0  0  0  0  0  0  0  0  0  0  0
   -7.3383   -4.3602   -1.7863 H   0  0  0  0  0  0  0  0  0  0  0  0
   -4.8718   -4.1529   -1.4488 H   0  0  0  0  0  0  0  0  0  0  0  0
   -0.9212   -2.5564   -1.8346 H   0  0  0  0  0  0  0  0  0  0  0  0
    0.6660   -3.5005    0.4268 H   0  0  0  0  0  0  0  0  0  0  0  0
    2.4733   -3.8958   -1.4161 H   0  0  0  0  0  0  0  0  0  0  0  0
    1.3716   -3.1067   -2.5364 H   0  0  0  0  0  0  0  0  0  0  0  0
    1.7243   -6.0497   -0.3028 H   0  0  0  0  0  0  0  0  0  0  0  0
    0.5779   -8.1900   -0.7248 H   0  0  0  0  0  0  0  0  0  0  0  0
   -1.0924   -8.3070   -2.5077 H   0  0  0  0  0  0  0  0  0  0  0  0
   -1.6248   -6.3271   -3.8604 H   0  0  0  0  0  0  0  0  0  0  0  0
   -0.4874   -4.2565   -3.4289 H   0  0  0  0  0  0  0  0  0  0  0  0
    3.3564   -2.8281   -0.0230 H   0  0  0  0  0  0  0  0  0  0  0  0
    3.2336   -0.4720    1.6207 H   0  0  0  0  0  0  0  0  0  0  0  0
    4.7933   -1.8902    2.3682 H   0  0  0  0  0  0  0  0  0  0  0  0
    5.6916   -0.5431    1.6927 H   0  0  0  0  0  0  0  0  0  0  0  0
    4.9680   -4.0507    1.2755 H   0  0  0  0  0  0  0  0  0  0  0  0
    6.3517   -5.6169    0.0827 H   0  0  0  0  0  0  0  0  0  0  0  0
    8.2092   -4.8301   -1.3231 H   0  0  0  0  0  0  0  0  0  0  0  0
    8.6113   -2.3559   -1.4868 H   0  0  0  0  0  0  0  0  0  0  0  0
    7.2412   -0.8102   -0.2961 H   0  0  0  0  0  0  0  0  0  0  0  0
    5.3804    1.4201    1.1237 H   0  0  0  0  0  0  0  0  0  0  0  0
    4.1048    2.5602   -1.3636 H   0  0  0  0  0  0  0  0  0  0  0  0
    3.3356    3.4405    0.7809 H   0  0  0  0  0  0  0  0  0  0  0  0
    4.9898    3.6723    1.3710 H   0  0  0  0  0  0  0  0  0  0  0  0
    6.2649    5.7622    0.3946 H   0  0  0  0  0  0  0  0  0  0  0  0
    6.0000    8.0457   -0.4912 H   0  0  0  0  0  0  0  0  0  0  0  0
    3.9096    8.7366   -1.4755 H   0  0  0  0  0  0  0  0  0  0  0  0
    2.0080    7.1764   -1.6103 H   0  0  0  0  0  0  0  0  0  0  0  0
    2.2913    4.8636   -0.7014 H   0  0  0  0  0  0  0  0  0  0  0  0
    7.4429    4.4491   -1.7080 H   0  0  0  0  0  0  0  0  0  0  0  0
    6.1080    4.0669   -2.8155 H   0  0  0  0  0  0  0  0  0  0  0  0
  1  2  1  0
  2  3  2  0
  2  4  1  0
  4  5  1  0
  5  6  1  0
  6  7  1  0
  7  8  2  0
  8  9  1  0
  9 10  2  0
 10 11  1  0
 11 12  2  0
  5 13  1  0
 13 14  2  0
 13 15  1  0
 15 16  1  0
 16 17  1  0
 17 18  1  0
 18 19  2  0
 19 20  1  0
 20 21  2  0
 21 22  1  0
 22 23  2  0
 16 24  1  0
 24 25  2  0
 24 26  1  0
 26 27  1  0
 27 28  1  0
 28 29  1  0
 29 30  2  0
 30 31  1  0
 31 32  2  0
 32 33  1  0
 33 34  2  0
 27 35  1  0
 35 36  2  0
 35 37  1  0
 37 38  1  0
 38 39  1  0
 39 40  1  0
 40 41  2  0
 41 42  1  0
 42 43  2  0
 43 44  1  0
 44 45  2  0
 38 46  1  0
 46 47  2  0
 46 48  1  0
 48 49  1  0
 49 50  1  0
 50 51  1  0
 51 52  2  0
 52 53  1  0
 53 54  2  0
 54 55  1  0
 55 56  2  0
 49 57  1  0
 57 58  1  0
 57 59  2  0
 12  7  1  0
 23 18  1  0
 34 29  1  0
 45 40  1  0
 56 51  1  0
  1 60  1  0
  1 61  1  0
  1 62  1  0
  4 63  1  0
  5 64  1  6
  6 65  1  0
  6 66  1  0
  8 67  1  0
  9 68  1  0
 10 69  1  0
 11 70  1  0
 12 71  1  0
 15 72  1  0
 16 73  1  1
 17 74  1  0
 17 75  1  0
 19 76  1  0
 20 77  1  0
 21 78  1  0
 22 79  1  0
 23 80  1  0
 26 81  1  0
 27 82  1  1
 28 83  1  0
 28 84  1  0
 30 85  1  0
 31 86  1  0
 32 87  1  0
 33 88  1  0
 34 89  1  0
 37 90  1  0
 38 91  1  1
 39 92  1  0
 39 93  1  0
 41 94  1  0
 42 95  1  0
 43 96  1  0
 44 97  1  0
 45 98  1  0
 48 99  1  0
 49100  1  6
 50101  1  0
 50102  1  0
 52103  1  0
 53104  1  0
 54105  1  0
 55106  1  0
 56107  1  0
 58108  1  0
 58109  1  0
M  END
$$$$
[H]c1nc2c(c([H])c1C(=O)N([H])[C@]([H])(C(=O)N([H])[C@]1([H])C([H])([H])C([H])([H])[C@@]([H])(N3C([H])([H])C([H])([H])OC([H])([H])C3([H])[H])C([H])([H])C1([H])[H])C([H])([H])[H])c([H])c([H])n2[H]
     RDKit          3D

 58 61  0  0  0  0  0  0  0  0999 V2000
    2.3129    2.0890   -2.5004 C   0  0  0  0  0  0  0  0  0  0  0  0
    2.1226    2.0999   -1.0171 C   0  0  2  0  0  0  0  0  0  0  0  0
    3.2307    1.4854   -0.3441 N   0  0  0  0  0  0  0  0  0  0  0  0
    4.0053    2.0791    0.6571 C   0  0  0  0  0  0  0  0  0  0  0  0
    3.7005    3.2685    0.9983 O   0  0  0  0  0  0  0  0  0  0  0  0
    5.1176    1.4365    1.3205 C   0  0  0  0  0  0  0  0  0  0  0  0
    5.9409    2.1878    2.1490 C   0  0  0  0  0  0  0  0  0  0  0  0
    6.9858    1.6112    2.7835 N   0  0  0  0  0  0  0  0  0  0  0  0
    7.2445    0.3036    2.6218 C   0  0  0  0  0  0  0  0  0  0  0  0
    8.2214   -0.4468    3.1544 N   0  0  0  0  0  0  0  0  0  0  0  0
    8.0778   -1.7171    2.6988 C   0  0  0  0  0  0  0  0  0  0  0  0
    6.9878   -1.7465    1.8668 C   0  0  0  0  0  0  0  0  0  0  0  0
    6.4634   -0.4741    1.8181 C   0  0  0  0  0  0  0  0  0  0  0  0
    5.3834    0.0933    1.1555 C   0  0  0  0  0  0  0  0  0  0  0  0
    0.8695    1.3877   -0.6118 C   0  0  0  0  0  0  0  0  0  0  0  0
    0.8782    0.7971    0.4952 O   0  0  0  0  0  0  0  0  0  0  0  0
   -0.2948    1.3459   -1.4022 N   0  0  0  0  0  0  0  0  0  0  0  0
   -1.4745    0.6468   -0.9663 C   0  0  1  0  0  0  0  0  0  0  0  0
   -2.7599    1.3375   -1.3324 C   0  0  0  0  0  0  0  0  0  0  0  0
   -3.8573    0.5724   -0.6220 C   0  0  0  0  0  0  0  0  0  0  0  0
   -3.9118   -0.8065   -1.1583 C   0  0  1  0  0  0  0  0  0  0  0  0
   -2.6223   -1.5715   -1.1959 C   0  0  0  0  0  0  0  0  0  0  0  0
   -1.4269   -0.7571   -1.5574 C   0  0  0  0  0  0  0  0  0  0  0  0
   -4.8654   -1.5908   -0.4395 N   0  0  0  0  0  0  0  0  0  0  0  0
   -6.2261   -1.1945   -0.5202 C   0  0  0  0  0  0  0  0  0  0  0  0
   -7.0225   -2.2514    0.2690 C   0  0  0  0  0  0  0  0  0  0  0  0
   -6.8002   -2.0207    1.6138 O   0  0  0  0  0  0  0  0  0  0  0  0
   -5.5872   -1.3577    1.8317 C   0  0  0  0  0  0  0  0  0  0  0  0
   -4.4864   -1.8576    0.9236 C   0  0  0  0  0  0  0  0  0  0  0  0
    1.5853    2.7355   -3.0087 H   0  0  0  0  0  0  0  0  0  0  0  0
    3.3148    2.5271   -2.7286 H   0  0  0  0  0  0  0  0  0  0  0  0
    2.3368    1.0576   -2.9215 H   0  0  0  0  0  0  0  0  0  0  0  0
    1.9974    3.1728   -0.6997 H   0  0  0  0  0  0  0  0  0  0  0  0
    3.4791    0.4923   -0.6420 H   0  0  0  0  0  0  0  0  0  0  0  0
    5.7171    3.2507    2.2683 H   0  0  0  0  0  0  0  0  0  0  0  0
    8.9465   -0.0911    3.7977 H   0  0  0  0  0  0  0  0  0  0  0  0
    8.7328   -2.5366    2.9717 H   0  0  0  0  0  0  0  0  0  0  0  0
    6.5980   -2.6120    1.3354 H   0  0  0  0  0  0  0  0  0  0  0  0
    4.7773   -0.5251    0.5282 H   0  0  0  0  0  0  0  0  0  0  0  0
   -0.3271    1.8219   -2.3297 H   0  0  0  0  0  0  0  0  0  0  0  0
   -1.4395    0.4953    0.1258 H   0  0  0  0  0  0  0  0  0  0  0  0
   -2.6945    2.4014   -0.9725 H   0  0  0  0  0  0  0  0  0  0  0  0
   -2.9107    1.3078   -2.4400 H   0  0  0  0  0  0  0  0  0  0  0  0
   -4.8174    1.0737   -0.8281 H   0  0  0  0  0  0  0  0  0  0  0  0
   -3.5858    0.6098    0.4640 H   0  0  0  0  0  0  0  0  0  0  0  0
   -4.2941   -0.7228   -2.2230 H   0  0  0  0  0  0  0  0  0  0  0  0
   -2.4782   -2.1191   -0.2442 H   0  0  0  0  0  0  0  0  0  0  0  0
   -2.7357   -2.3470   -1.9867 H   0  0  0  0  0  0  0  0  0  0  0  0
   -0.5111   -1.2293   -1.1703 H   0  0  0  0  0  0  0  0  0  0  0  0
   -1.2951   -0.6301   -2.6491 H   0  0  0  0  0  0  0  0  0  0  0  0
   -6.4624   -0.2248   -0.0483 H   0  0  0  0  0  0  0  0  0  0  0  0
   -6.6315   -1.2170   -1.5589 H   0  0  0  0  0  0  0  0  0  0  0  0
   -6.5208   -3.2243    0.0231 H   0  0  0  0  0  0  0  0  0  0  0  0
   -8.0673   -2.2996   -0.0366 H   0  0  0  0  0  0  0  0  0  0  0  0
   -5.6946   -0.2622    1.8221 H   0  0  0  0  0  0  0  0  0  0  0  0
   -5.2930   -1.6363    2.8779 H   0  0  0  0  0  0  0  0  0  0  0  0
   -3.5813   -1.2798    1.2307 H   0  0  0  0  0  0  0  0  0  0  0  0
   -4.3520   -2.9380    1.0457 H   0  0  0  0  0  0  0  0  0  0  0  0
  1  2  1  0
  2  3  1  0
  3  4  1  0
  4  5  2  0
  4  6  1  0
  6  7  2  0
  7  8  1  0
  8  9  2  0
  9 10  1  0
 10 11  1  0
 11 12  2  0
 12 13  1  0
 13 14  2  0
  2 15  1  0
 15 16  2  0
 15 17  1  0
 17 18  1  0
 18 19  1  0
 19 20  1  0
 20 21  1  0
 21 22  1  0
 22 23  1  0
 21 24  1  0
 24 25  1  0
 25 26  1  0
 26 27  1  0
 27 28  1  0
 28 29  1  0
 14  6  1  0
 23 18  1  0
 29 24  1  0
 13  9  1  0
  1 30  1  0
  1 31  1  0
  1 32  1  0
  2 33  1  1
  3 34  1  0
  7 35  1  0
 10 36  1  0
 11 37  1  0
 12 38  1  0
 14 39  1  0
 17 40  1  0
 18 41  1  1
 19 42  1  0
 19 43  1  0
 20 44  1  0
 20 45  1  0
 21 46  1  6
 22 47  1  0
 22 48  1  0
 23 49  1  0
 23 50  1  0
 25 51  1  0
 25 52  1  0
 26 53  1  0
 26 54  1  0
 28 55  1  0
 28 56  1  0
 29 57  1  0
 29 58  1  0
M  END
$$$$
[H]c1c([H])c(C(F)(F)F)c([H])c([H])c1N([H])C(=O)c1oc2c([H])c([H])c([H])c([H])c2c1[H]
     RDKit          3D

 32 34  0  0  0  0  0  0  0  0999 V2000
    6.7521    1.4638   -1.2713 F   0  0  0  0  0  0  0  0  0  0  0  0
    6.3223    0.6623   -0.2368 C   0  0  0  0  0  0  0  0  0  0  0  0
    6.6905    1.2761    0.9703 F   0  0  0  0  0  0  0  0  0  0  0  0
    6.8928   -0.5860   -0.3024 F   0  0  0  0  0  0  0  0  0  0  0  0
    4.8562    0.5161   -0.2015 C   0  0  0  0  0  0  0  0  0  0  0  0
    4.0322    1.5001   -0.6876 C   0  0  0  0  0  0  0  0  0  0  0  0
    2.6660    1.3525   -0.6522 C   0  0  0  0  0  0  0  0  0  0  0  0
    2.0407    0.2125   -0.1280 C   0  0  0  0  0  0  0  0  0  0  0  0
    0.6229    0.1426   -0.1236 N   0  0  0  0  0  0  0  0  0  0  0  0
   -0.1942   -0.8680    0.3789 C   0  0  0  0  0  0  0  0  0  0  0  0
    0.1802   -1.9263    0.9275 O   0  0  0  0  0  0  0  0  0  0  0  0
   -1.6717   -0.6900    0.2640 C   0  0  0  0  0  0  0  0  0  0  0  0
   -2.6537   -1.5609    0.6372 C   0  0  0  0  0  0  0  0  0  0  0  0
   -3.8802   -0.9866    0.3487 C   0  0  0  0  0  0  0  0  0  0  0  0
   -5.1871   -1.3450    0.4818 C   0  0  0  0  0  0  0  0  0  0  0  0
   -6.1956   -0.4980    0.0759 C   0  0  0  0  0  0  0  0  0  0  0  0
   -5.8901    0.7169   -0.4671 C   0  0  0  0  0  0  0  0  0  0  0  0
   -4.5763    1.1048   -0.6131 C   0  0  0  0  0  0  0  0  0  0  0  0
   -3.5644    0.2497   -0.2045 C   0  0  0  0  0  0  0  0  0  0  0  0
   -2.2627    0.3729   -0.2316 O   0  0  0  0  0  0  0  0  0  0  0  0
    2.8886   -0.7508    0.3487 C   0  0  0  0  0  0  0  0  0  0  0  0
    4.2689   -0.6087    0.3158 C   0  0  0  0  0  0  0  0  0  0  0  0
    4.5162    2.3908   -1.0994 H   0  0  0  0  0  0  0  0  0  0  0  0
    2.0396    2.1261   -1.0380 H   0  0  0  0  0  0  0  0  0  0  0  0
    0.1022    0.9703   -0.5741 H   0  0  0  0  0  0  0  0  0  0  0  0
   -2.5002   -2.5332    1.0778 H   0  0  0  0  0  0  0  0  0  0  0  0
   -5.4188   -2.3245    0.9181 H   0  0  0  0  0  0  0  0  0  0  0  0
   -7.2430   -0.7888    0.1842 H   0  0  0  0  0  0  0  0  0  0  0  0
   -6.6991    1.3894   -0.7863 H   0  0  0  0  0  0  0  0  0  0  0  0
   -4.3193    2.0736   -1.0428 H   0  0  0  0  0  0  0  0  0  0  0  0
    2.5004   -1.6623    0.7686 H   0  0  0  0  0  0  0  0  0  0  0  0
    4.8843   -1.3913    0.7067 H   0  0  0  0  0  0  0  0  0  0  0  0
  1  2  1  0
  2  3  1  0
  2  4  1  0
  2  5  1  0
  5  6  2  0
  6  7  1  0
  7  8  2  0
  8  9  1  0
  9 10  1  0
 10 11  2  0
 10 12  1  0
 12 13  2  0
 13 14  1  0
 14 15  2  0
 15 16  1  0
 16 17  2  0
 17 18  1  0
 18 19  2  0
 19 20  1  0
  8 21  1  0
 21 22  2  0
 22  5  1  0
 20 12  1  0
 19 14  1  0
  6 23  1  0
  7 24  1  0
  9 25  1  0
 13 26  1  0
 15 27  1  0
 16 28  1  0
 17 29  1  0
 18 30  1  0
 21 31  1  0
 22 32  1  0
M  END
$$$$
[H]OC(=O)c1c([H])c([H])c([H])c(N([H])C(=O)c2c([H])c([H])c(-c3c([H])c([H])c(S(=O)(=O)C([H])([H])[H])c([H])c3[H])c([H])c2[H])c1[H]
     RDKit          3D

 45 47  0  0  0  0  0  0  0  0999 V2000
    8.5567   -0.9257    0.0051 C   0  0  0  0  0  0  0  0  0  0  0  0
    7.6947    0.4273    0.7389 S   0  0  0  0  0  0  0  0  0  0  0  0
    8.1320    1.6907    0.0600 O   0  0  0  0  0  0  0  0  0  0  0  0
    8.1138    0.5208    2.1887 O   0  0  0  0  0  0  0  0  0  0  0  0
    5.9538    0.2322    0.6115 C   0  0  0  0  0  0  0  0  0  0  0  0
    5.2158   -0.4115    1.5825 C   0  0  0  0  0  0  0  0  0  0  0  0
    3.8470   -0.5463    1.4488 C   0  0  0  0  0  0  0  0  0  0  0  0
    3.1592   -0.0546    0.3595 C   0  0  0  0  0  0  0  0  0  0  0  0
    3.8979    0.5897   -0.6122 C   0  0  0  0  0  0  0  0  0  0  0  0
    5.2745    0.7276   -0.4820 C   0  0  0  0  0  0  0  0  0  0  0  0
    1.7062   -0.1916    0.2070 C   0  0  0  0  0  0  0  0  0  0  0  0
    1.0335    0.7893   -0.4645 C   0  0  0  0  0  0  0  0  0  0  0  0
   -0.3464    0.6707   -0.6160 C   0  0  0  0  0  0  0  0  0  0  0  0
   -1.0397   -0.3952   -0.1128 C   0  0  0  0  0  0  0  0  0  0  0  0
   -0.3181   -1.3734    0.5648 C   0  0  0  0  0  0  0  0  0  0  0  0
    1.0265   -1.2637    0.7157 C   0  0  0  0  0  0  0  0  0  0  0  0
   -2.5044   -0.5662   -0.2374 C   0  0  0  0  0  0  0  0  0  0  0  0
   -2.9785   -1.7280   -0.0720 O   0  0  0  0  0  0  0  0  0  0  0  0
   -3.2947    0.5418   -0.5269 N   0  0  0  0  0  0  0  0  0  0  0  0
   -4.7025    0.6006   -0.6859 C   0  0  0  0  0  0  0  0  0  0  0  0
   -5.2692    1.7620   -1.2258 C   0  0  0  0  0  0  0  0  0  0  0  0
   -6.6186    1.9281   -1.4101 C   0  0  0  0  0  0  0  0  0  0  0  0
   -7.4874    0.9229   -1.0577 C   0  0  0  0  0  0  0  0  0  0  0  0
   -6.9486   -0.2180   -0.5287 C   0  0  0  0  0  0  0  0  0  0  0  0
   -5.5771   -0.3932   -0.3383 C   0  0  0  0  0  0  0  0  0  0  0  0
   -7.8438   -1.3006   -0.1460 C   0  0  0  0  0  0  0  0  0  0  0  0
   -9.2306   -1.1748   -0.3175 O   0  0  0  0  0  0  0  0  0  0  0  0
   -7.3804   -2.3523    0.3392 O   0  0  0  0  0  0  0  0  0  0  0  0
    9.5424   -0.6330   -0.4075 H   0  0  0  0  0  0  0  0  0  0  0  0
    7.9476   -1.2559   -0.8837 H   0  0  0  0  0  0  0  0  0  0  0  0
    8.6175   -1.8133    0.6654 H   0  0  0  0  0  0  0  0  0  0  0  0
    5.7435   -0.8106    2.4579 H   0  0  0  0  0  0  0  0  0  0  0  0
    3.2725   -1.0560    2.2202 H   0  0  0  0  0  0  0  0  0  0  0  0
    3.3913    0.9850   -1.4749 H   0  0  0  0  0  0  0  0  0  0  0  0
    5.8790    1.2335   -1.2384 H   0  0  0  0  0  0  0  0  0  0  0  0
    1.5192    1.6658   -0.8914 H   0  0  0  0  0  0  0  0  0  0  0  0
   -0.8828    1.4492   -1.1563 H   0  0  0  0  0  0  0  0  0  0  0  0
   -0.8371   -2.2379    0.9797 H   0  0  0  0  0  0  0  0  0  0  0  0
    1.5924   -2.0411    1.2531 H   0  0  0  0  0  0  0  0  0  0  0  0
   -2.7764    1.4751   -0.6343 H   0  0  0  0  0  0  0  0  0  0  0  0
   -4.5853    2.5625   -1.5086 H   0  0  0  0  0  0  0  0  0  0  0  0
   -7.0326    2.8540   -1.8373 H   0  0  0  0  0  0  0  0  0  0  0  0
   -8.5450    1.0320   -1.1934 H   0  0  0  0  0  0  0  0  0  0  0  0
   -5.2149   -1.3261    0.0971 H   0  0  0  0  0  0  0  0  0  0  0  0
   -9.7030   -0.5920    0.3669 H   0  0  0  0  0  0  0  0  0  0  0  0
  1  2  1  0
  2  3  2  0
  2  4  2  0
  2  5  1  0
  5  6  2  0
  6  7  1  0
  7  8  2  0
  8  9  1  0
  9 10  2  0
  8 11  1  0
 11 12  2  0
 12 13  1  0
 13 14  2  0
 14 15  1  0
 15 16  2  0
 14 17  1  0
 17 18  2  0
 17 19  1  0
 19 20  1  0
 20 21  2  0
 21 22  1  0
 22 23  2  0
 23 24  1  0
 24 25  2  0
 24 26  1  0
 26 27  1  0
 26 28  2  0
 10  5  1  0
 16 11  1  0
 25 20  1  0
  1 29  1  0
  1 30  1  0
  1 31  1  0
  6 32  1  0
  7 33  1  0
  9 34  1  0
 10 35  1  0
 12 36  1  0
 13 37  1  0
 15 38  1  0
 16 39  1  0
 19 40  1  0
 21 41  1  0
 22 42  1  0
 23 43  1  0
 25 44  1  0
 27 45  1  0
M  END
$$$$
[H]c1c([H])c([H])c(C([H])([H])C(=O)N([H])[C@]([H])(C(=O)N([H])[C@]([H])(C(=O)N([H])[C@]([H])(C(=O)N([H])[C@]([H])(C(=O)N([H])[C@]([H])(C(=O)N([H])[C@]([H])(C(=O)N([H])[H])C([H])([H])c2c([H])c([H])c([H])c([H])c2[H])C([H])([H])c2c([H])c([H])c([H])c([H])c2[H])C([H])([H])C([H])(C([H])([H])[H])C([H])([H])[H])C([H])([H])c2c([H])c([H])c([H])c([H])c2[H])C([H])([H])c2c([H])c([H])c([H])c([H])c2[H])C([H])([H])C([H])(C([H])([H])[H])C([H])([H])[H])c([H])c1[H]
     RDKit          3D

137141  0  0  0  0  0  0  0  0999 V2000
    8.9750   -2.3074   -1.2330 C   0  0  0  0  0  0  0  0  0  0  0  0
    8.2100   -2.3975    0.0784 C   0  0  0  0  0  0  0  0  0  0  0  0
    9.2020   -3.1941    0.9977 C   0  0  0  0  0  0  0  0  0  0  0  0
    8.0615   -1.0805    0.7369 C   0  0  0  0  0  0  0  0  0  0  0  0
    7.3809    0.0178    0.0266 C   0  0  2  0  0  0  0  0  0  0  0  0
    7.4778    1.1907    0.9445 N   0  0  0  0  0  0  0  0  0  0  0  0
    8.1463    2.3556    0.5319 C   0  0  0  0  0  0  0  0  0  0  0  0
    8.6666    2.4026   -0.6171 O   0  0  0  0  0  0  0  0  0  0  0  0
    8.2714    3.5550    1.3965 C   0  0  0  0  0  0  0  0  0  0  0  0
    8.9841    4.6124    0.6586 C   0  0  0  0  0  0  0  0  0  0  0  0
   10.3534    4.7949    0.6576 C   0  0  0  0  0  0  0  0  0  0  0  0
   10.9479    5.8144   -0.0521 C   0  0  0  0  0  0  0  0  0  0  0  0
   10.1647    6.7007   -0.7992 C   0  0  0  0  0  0  0  0  0  0  0  0
    8.8044    6.5270   -0.8029 C   0  0  0  0  0  0  0  0  0  0  0  0
    8.2316    5.5059   -0.0900 C   0  0  0  0  0  0  0  0  0  0  0  0
    5.9806   -0.0484   -0.3180 C   0  0  0  0  0  0  0  0  0  0  0  0
    5.3189    1.0725   -0.2392 O   0  0  0  0  0  0  0  0  0  0  0  0
    5.2100   -1.1301   -0.7272 N   0  0  0  0  0  0  0  0  0  0  0  0
    3.7934   -1.0099   -1.0578 C   0  0  1  0  0  0  0  0  0  0  0  0
    3.5135   -1.4983   -2.4727 C   0  0  0  0  0  0  0  0  0  0  0  0
    3.9025   -2.9291   -2.6283 C   0  0  0  0  0  0  0  0  0  0  0  0
    2.9930   -3.9153   -2.3303 C   0  0  0  0  0  0  0  0  0  0  0  0
    3.3698   -5.2273   -2.4758 C   0  0  0  0  0  0  0  0  0  0  0  0
    4.6224   -5.5881   -2.9073 C   0  0  0  0  0  0  0  0  0  0  0  0
    5.5587   -4.6231   -3.2158 C   0  0  0  0  0  0  0  0  0  0  0  0
    5.1554   -3.3034   -3.0613 C   0  0  0  0  0  0  0  0  0  0  0  0
    2.8738   -1.5700   -0.0615 C   0  0  0  0  0  0  0  0  0  0  0  0
    3.1115   -2.6214    0.6154 O   0  0  0  0  0  0  0  0  0  0  0  0
    1.6240   -0.9486    0.2188 N   0  0  0  0  0  0  0  0  0  0  0  0
    0.6349   -1.3713    1.1559 C   0  0  1  0  0  0  0  0  0  0  0  0
    0.5208   -0.4500    2.3617 C   0  0  0  0  0  0  0  0  0  0  0  0
    1.8140   -0.3744    3.0925 C   0  0  0  0  0  0  0  0  0  0  0  0
    2.7270    0.6084    2.7585 C   0  0  0  0  0  0  0  0  0  0  0  0
    3.9466    0.7154    3.4115 C   0  0  0  0  0  0  0  0  0  0  0  0
    4.2418   -0.1827    4.4132 C   0  0  0  0  0  0  0  0  0  0  0  0
    3.3375   -1.1768    4.7617 C   0  0  0  0  0  0  0  0  0  0  0  0
    2.1417   -1.2550    4.0962 C   0  0  0  0  0  0  0  0  0  0  0  0
   -0.6799   -1.4695    0.4984 C   0  0  0  0  0  0  0  0  0  0  0  0
   -0.7559   -1.3091   -0.7678 O   0  0  0  0  0  0  0  0  0  0  0  0
   -1.9099   -1.7316    1.1654 N   0  0  0  0  0  0  0  0  0  0  0  0
   -3.1709   -1.8238    0.4761 C   0  0  1  0  0  0  0  0  0  0  0  0
   -4.1139   -2.8323    0.9819 C   0  0  0  0  0  0  0  0  0  0  0  0
   -3.7063   -4.2536    0.9665 C   0  0  0  0  0  0  0  0  0  0  0  0
   -3.3851   -4.7829   -0.4022 C   0  0  0  0  0  0  0  0  0  0  0  0
   -2.5867   -4.5314    1.9368 C   0  0  0  0  0  0  0  0  0  0  0  0
   -3.8866   -0.4813    0.4567 C   0  0  0  0  0  0  0  0  0  0  0  0
   -3.3414    0.4851    1.0168 O   0  0  0  0  0  0  0  0  0  0  0  0
   -5.1205   -0.3410   -0.1788 N   0  0  0  0  0  0  0  0  0  0  0  0
   -5.9216    0.8536   -0.3164 C   0  0  1  0  0  0  0  0  0  0  0  0
   -6.0666    1.2707   -1.7386 C   0  0  0  0  0  0  0  0  0  0  0  0
   -6.6781    0.2808   -2.6289 C   0  0  0  0  0  0  0  0  0  0  0  0
   -8.0336    0.3344   -2.8663 C   0  0  0  0  0  0  0  0  0  0  0  0
   -8.6579   -0.6032   -3.6838 C   0  0  0  0  0  0  0  0  0  0  0  0
   -7.8890   -1.6097   -4.2678 C   0  0  0  0  0  0  0  0  0  0  0  0
   -6.5371   -1.6774   -4.0418 C   0  0  0  0  0  0  0  0  0  0  0  0
   -5.9619   -0.7280   -3.2257 C   0  0  0  0  0  0  0  0  0  0  0  0
   -7.1002    0.9162    0.5443 C   0  0  0  0  0  0  0  0  0  0  0  0
   -7.2605    0.0486    1.4403 O   0  0  0  0  0  0  0  0  0  0  0  0
   -8.1133    1.9064    0.4567 N   0  0  0  0  0  0  0  0  0  0  0  0
   -9.2428    1.9811    1.3293 C   0  0  1  0  0  0  0  0  0  0  0  0
   -9.4293    3.3859    1.8556 C   0  0  0  0  0  0  0  0  0  0  0  0
   -9.6246    4.3948    0.7681 C   0  0  0  0  0  0  0  0  0  0  0  0
   -8.5219    5.0669    0.3043 C   0  0  0  0  0  0  0  0  0  0  0  0
   -8.6124    5.9927   -0.7026 C   0  0  0  0  0  0  0  0  0  0  0  0
   -9.8318    6.2892   -1.2970 C   0  0  0  0  0  0  0  0  0  0  0  0
  -10.9257    5.5992   -0.8109 C   0  0  0  0  0  0  0  0  0  0  0  0
  -10.8415    4.6685    0.1999 C   0  0  0  0  0  0  0  0  0  0  0  0
  -10.5103    1.4405    0.7682 C   0  0  0  0  0  0  0  0  0  0  0  0
  -11.6983    1.3752    1.5381 N   0  0  0  0  0  0  0  0  0  0  0  0
  -10.5602    1.0269   -0.3976 O   0  0  0  0  0  0  0  0  0  0  0  0
   10.0062   -1.9161   -1.0902 H   0  0  0  0  0  0  0  0  0  0  0  0
    8.4218   -1.7325   -2.0136 H   0  0  0  0  0  0  0  0  0  0  0  0
    9.0941   -3.3335   -1.6218 H   0  0  0  0  0  0  0  0  0  0  0  0
    7.3783   -3.0561   -0.0177 H   0  0  0  0  0  0  0  0  0  0  0  0
   10.0846   -2.5691    1.1820 H   0  0  0  0  0  0  0  0  0  0  0  0
    8.6667   -3.5553    1.8731 H   0  0  0  0  0  0  0  0  0  0  0  0
    9.5304   -4.0377    0.3539 H   0  0  0  0  0  0  0  0  0  0  0  0
    9.1069   -0.7484    1.0235 H   0  0  0  0  0  0  0  0  0  0  0  0
    7.5936   -1.2750    1.7415 H   0  0  0  0  0  0  0  0  0  0  0  0
    7.9944    0.2896   -0.8972 H   0  0  0  0  0  0  0  0  0  0  0  0
    7.0361    1.1243    1.8711 H   0  0  0  0  0  0  0  0  0  0  0  0
    7.2836    3.9346    1.7303 H   0  0  0  0  0  0  0  0  0  0  0  0
    8.8270    3.3271    2.3307 H   0  0  0  0  0  0  0  0  0  0  0  0
   10.9518    4.1130    1.2331 H   0  0  0  0  0  0  0  0  0  0  0  0
   12.0130    5.9832   -0.0691 H   0  0  0  0  0  0  0  0  0  0  0  0
   10.6166    7.4946   -1.3541 H   0  0  0  0  0  0  0  0  0  0  0  0
    8.1384    7.1903   -1.3666 H   0  0  0  0  0  0  0  0  0  0  0  0
    7.1508    5.4020   -0.1279 H   0  0  0  0  0  0  0  0  0  0  0  0
    5.6003   -2.0740   -0.8149 H   0  0  0  0  0  0  0  0  0  0  0  0
    3.5712    0.0969   -1.0770 H   0  0  0  0  0  0  0  0  0  0  0  0
    2.4617   -1.3122   -2.7115 H   0  0  0  0  0  0  0  0  0  0  0  0
    4.1842   -0.9150   -3.1321 H   0  0  0  0  0  0  0  0  0  0  0  0
    1.9755   -3.6498   -1.9761 H   0  0  0  0  0  0  0  0  0  0  0  0
    2.6433   -6.0211   -2.2448 H   0  0  0  0  0  0  0  0  0  0  0  0
    4.9393   -6.6361   -3.0255 H   0  0  0  0  0  0  0  0  0  0  0  0
    6.5542   -4.8826   -3.5582 H   0  0  0  0  0  0  0  0  0  0  0  0
    5.8810   -2.5255   -3.3000 H   0  0  0  0  0  0  0  0  0  0  0  0
    1.4182   -0.0650   -0.3459 H   0  0  0  0  0  0  0  0  0  0  0  0
    0.9134   -2.4117    1.5109 H   0  0  0  0  0  0  0  0  0  0  0  0
   -0.2392   -0.8245    3.0775 H   0  0  0  0  0  0  0  0  0  0  0  0
    0.1916    0.5483    2.0210 H   0  0  0  0  0  0  0  0  0  0  0  0
    2.5138    1.3014    1.9889 H   0  0  0  0  0  0  0  0  0  0  0  0
    4.6226    1.5070    3.1103 H   0  0  0  0  0  0  0  0  0  0  0  0
    5.2048   -0.0712    4.9001 H   0  0  0  0  0  0  0  0  0  0  0  0
    3.6114   -1.8473    5.5374 H   0  0  0  0  0  0  0  0  0  0  0  0
    1.3985   -2.0249    4.3387 H   0  0  0  0  0  0  0  0  0  0  0  0
   -1.9328   -1.8695    2.2179 H   0  0  0  0  0  0  0  0  0  0  0  0
   -2.9020   -1.9400   -0.6117 H   0  0  0  0  0  0  0  0  0  0  0  0
   -4.3873   -2.5232    2.0369 H   0  0  0  0  0  0  0  0  0  0  0  0
   -5.1242   -2.7895    0.4658 H   0  0  0  0  0  0  0  0  0  0  0  0
   -4.5647   -4.9096    1.3299 H   0  0  0  0  0  0  0  0  0  0  0  0
   -4.1684   -4.3938   -1.0992 H   0  0  0  0  0  0  0  0  0  0  0  0
   -2.3593   -4.6016   -0.7451 H   0  0  0  0  0  0  0  0  0  0  0  0
   -3.5271   -5.8929   -0.3743 H   0  0  0  0  0  0  0  0  0  0  0  0
   -1.5875   -4.2760    1.5590 H   0  0  0  0  0  0  0  0  0  0  0  0
   -2.6232   -5.6454    2.1423 H   0  0  0  0  0  0  0  0  0  0  0  0
   -2.8214   -4.0619    2.9191 H   0  0  0  0  0  0  0  0  0  0  0  0
   -5.5636   -1.1978   -0.6407 H   0  0  0  0  0  0  0  0  0  0  0  0
   -5.2205    1.6610    0.1508 H   0  0  0  0  0  0  0  0  0  0  0  0
   -5.0462    1.5018   -2.1324 H   0  0  0  0  0  0  0  0  0  0  0  0
   -6.5910    2.2731   -1.7990 H   0  0  0  0  0  0  0  0  0  0  0  0
   -8.6467    1.1014   -2.4443 H   0  0  0  0  0  0  0  0  0  0  0  0
   -9.7170   -0.5848   -3.8827 H   0  0  0  0  0  0  0  0  0  0  0  0
   -8.3398   -2.3757   -4.9125 H   0  0  0  0  0  0  0  0  0  0  0  0
   -5.9298   -2.4630   -4.4970 H   0  0  0  0  0  0  0  0  0  0  0  0
   -4.9026   -0.7880   -3.0565 H   0  0  0  0  0  0  0  0  0  0  0  0
   -8.0017    2.6029   -0.3059 H   0  0  0  0  0  0  0  0  0  0  0  0
   -9.0378    1.3284    2.2367 H   0  0  0  0  0  0  0  0  0  0  0  0
   -8.6138    3.6980    2.5240 H   0  0  0  0  0  0  0  0  0  0  0  0
  -10.3552    3.4130    2.4826 H   0  0  0  0  0  0  0  0  0  0  0  0
   -7.5230    4.8663    0.7516 H   0  0  0  0  0  0  0  0  0  0  0  0
   -7.7079    6.5158   -1.0432 H   0  0  0  0  0  0  0  0  0  0  0  0
   -9.8752    7.0131   -2.0778 H   0  0  0  0  0  0  0  0  0  0  0  0
  -11.8791    5.8266   -1.2788 H   0  0  0  0  0  0  0  0  0  0  0  0
  -11.7281    4.1649    0.5405 H   0  0  0  0  0  0  0  0  0  0  0  0
  -12.1625    0.4689    1.7007 H   0  0  0  0  0  0  0  0  0  0  0  0
  -12.0941    2.2376    1.9330 H   0  0  0  0  0  0  0  0  0  0  0  0
  1  2  1  0
  2  3  1  0
  2  4  1  0
  4  5  1  0
  5  6  1  0
  6  7  1  0
  7  8  2  0
  7  9  1  0
  9 10  1  0
 10 11  2  0
 11 12  1  0
 12 13  2  0
 13 14  1  0
 14 15  2  0
  5 16  1  0
 16 17  2  0
 16 18  1  0
 18 19  1  0
 19 20  1  0
 20 21  1  0
 21 22  2  0
 22 23  1  0
 23 24  2  0
 24 25  1  0
 25 26  2  0
 19 27  1  0
 27 28  2  0
 27 29  1  0
 29 30  1  0
 30 31  1  0
 31 32  1  0
 32 33  2  0
 33 34  1  0
 34 35  2  0
 35 36  1  0
 36 37  2  0
 30 38  1  0
 38 39  2  0
 38 40  1  0
 40 41  1  0
 41 42  1  0
 42 43  1  0
 43 44  1  0
 43 45  1  0
 41 46  1  0
 46 47  2  0
 46 48  1  0
 48 49  1  0
 49 50  1  0
 50 51  1  0
 51 52  2  0
 52 53  1  0
 53 54  2  0
 54 55  1  0
 55 56  2  0
 49 57  1  0
 57 58  2  0
 57 59  1  0
 59 60  1  0
 60 61  1  0
 61 62  1  0
 62 63  2  0
 63 64  1  0
 64 65  2  0
 65 66  1  0
 66 67  2  0
 60 68  1  0
 68 69  1  0
 68 70  2  0
 15 10  1  0
 26 21  1  0
 37 32  1  0
 56 51  1  0
 67 62  1  0
  1 71  1  0
  1 72  1  0
  1 73  1  0
  2 74  1  0
  3 75  1  0
  3 76  1  0
  3 77  1  0
  4 78  1  0
  4 79  1  0
  5 80  1  6
  6 81  1  0
  9 82  1  0
  9 83  1  0
 11 84  1  0
 12 85  1  0
 13 86  1  0
 14 87  1  0
 15 88  1  0
 18 89  1  0
 19 90  1  6
 20 91  1  0
 20 92  1  0
 22 93  1  0
 23 94  1  0
 24 95  1  0
 25 96  1  0
 26 97  1  0
 29 98  1  0
 30 99  1  1
 31100  1  0
 31101  1  0
 33102  1  0
 34103  1  0
 35104  1  0
 36105  1  0
 37106  1  0
 40107  1  0
 41108  1  6
 42109  1  0
 42110  1  0
 43111  1  0
 44112  1  0
 44113  1  0
 44114  1  0
 45115  1  0
 45116  1  0
 45117  1  0
 48118  1  0
 49119  1  1
 50120  1  0
 50121  1  0
 52122  1  0
 53123  1  0
 54124  1  0
 55125  1  0
 56126  1  0
 59127  1  0
 60128  1  1
 61129  1  0
 61130  1  0
 63131  1  0
 64132  1  0
 65133  1  0
 66134  1  0
 67135  1  0
 69136  1  0
 69137  1  0
M  END
$$$$
[H]c1c([H])c(C(=O)N2C([H])([H])C([H])([H])N(S(=O)(=O)c3c([H])c([H])c(C#N)c([H])c3[H])C([H])([H])[C@@]2([H])C([H])([H])[H])c([H])c([H])c1Cl
     RDKit          3D

 45 47  0  0  0  0  0  0  0  0999 V2000
   -0.5400    2.5205    1.1389 C   0  0  0  0  0  0  0  0  0  0  0  0
   -0.4741    1.0290    1.0529 C   0  0  2  0  0  0  0  0  0  0  0  0
    0.8320    0.4829    0.5993 C   0  0  0  0  0  0  0  0  0  0  0  0
    1.1514    0.8468   -0.7638 N   0  0  0  0  0  0  0  0  0  0  0  0
    0.0032    1.2336   -1.5114 C   0  0  0  0  0  0  0  0  0  0  0  0
   -1.2454    0.4179   -1.1999 C   0  0  0  0  0  0  0  0  0  0  0  0
   -1.5560    0.4789    0.1775 N   0  0  0  0  0  0  0  0  0  0  0  0
   -2.7618    0.1201    0.7754 C   0  0  0  0  0  0  0  0  0  0  0  0
   -2.7832    0.3661    2.0784 O   0  0  0  0  0  0  0  0  0  0  0  0
   -3.9453   -0.4532    0.2151 C   0  0  0  0  0  0  0  0  0  0  0  0
   -4.0767   -0.9317   -1.0490 C   0  0  0  0  0  0  0  0  0  0  0  0
   -5.2849   -1.4537   -1.5745 C   0  0  0  0  0  0  0  0  0  0  0  0
   -6.3623   -1.4676   -0.7465 C   0  0  0  0  0  0  0  0  0  0  0  0
   -7.8729   -2.1132   -1.3834 Cl  0  0  0  0  0  0  0  0  0  0  0  0
   -6.2718   -0.9932    0.5430 C   0  0  0  0  0  0  0  0  0  0  0  0
   -5.1129   -0.4972    1.0315 C   0  0  0  0  0  0  0  0  0  0  0  0
    2.1207   -0.3430   -1.5412 S   0  0  0  0  0  0  0  0  0  0  0  0
    1.3745   -1.6528   -1.4520 O   0  0  0  0  0  0  0  0  0  0  0  0
    2.3346   -0.0437   -2.9754 O   0  0  0  0  0  0  0  0  0  0  0  0
    3.6288   -0.4610   -0.6421 C   0  0  0  0  0  0  0  0  0  0  0  0
    4.7189    0.3230   -0.9584 C   0  0  0  0  0  0  0  0  0  0  0  0
    5.9113    0.2481   -0.2680 C   0  0  0  0  0  0  0  0  0  0  0  0
    6.0598   -0.6336    0.7875 C   0  0  0  0  0  0  0  0  0  0  0  0
    4.9675   -1.4161    1.1009 C   0  0  0  0  0  0  0  0  0  0  0  0
    3.7756   -1.3403    0.4099 C   0  0  0  0  0  0  0  0  0  0  0  0
    7.2983   -0.7196    1.5137 C   0  0  0  0  0  0  0  0  0  0  0  0
    8.2908   -0.7725    2.1082 N   0  0  0  0  0  0  0  0  0  0  0  0
    0.4334    2.9550    0.8035 H   0  0  0  0  0  0  0  0  0  0  0  0
   -0.6684    2.8876    2.1905 H   0  0  0  0  0  0  0  0  0  0  0  0
   -1.3715    2.9595    0.5496 H   0  0  0  0  0  0  0  0  0  0  0  0
   -0.7086    0.6370    2.0637 H   0  0  0  0  0  0  0  0  0  0  0  0
    1.6274    0.9171    1.2395 H   0  0  0  0  0  0  0  0  0  0  0  0
    0.8497   -0.6145    0.7555 H   0  0  0  0  0  0  0  0  0  0  0  0
    0.2276    1.0044   -2.5945 H   0  0  0  0  0  0  0  0  0  0  0  0
   -0.1774    2.3121   -1.4748 H   0  0  0  0  0  0  0  0  0  0  0  0
   -1.0266   -0.6281   -1.4910 H   0  0  0  0  0  0  0  0  0  0  0  0
   -2.0378    0.9002   -1.8490 H   0  0  0  0  0  0  0  0  0  0  0  0
   -3.2451   -0.9656   -1.7204 H   0  0  0  0  0  0  0  0  0  0  0  0
   -5.2861   -1.8088   -2.5936 H   0  0  0  0  0  0  0  0  0  0  0  0
   -7.1865   -1.0408    1.1449 H   0  0  0  0  0  0  0  0  0  0  0  0
   -5.0228   -0.1236    2.0284 H   0  0  0  0  0  0  0  0  0  0  0  0
    4.6039    1.0244   -1.7964 H   0  0  0  0  0  0  0  0  0  0  0  0
    6.7703    0.8781   -0.5308 H   0  0  0  0  0  0  0  0  0  0  0  0
    5.1039   -2.1093    1.9408 H   0  0  0  0  0  0  0  0  0  0  0  0
    2.9346   -1.9595    0.6698 H   0  0  0  0  0  0  0  0  0  0  0  0
  1  2  1  0
  2  3  1  0
  3  4  1  0
  4  5  1  0
  5  6  1  0
  6  7  1  0
  7  8  1  0
  8  9  2  0
  8 10  1  0
 10 11  2  0
 11 12  1  0
 12 13  2  0
 13 14  1  0
 13 15  1  0
 15 16  2  0
  4 17  1  0
 17 18  2  0
 17 19  2  0
 17 20  1  0
 20 21  2  0
 21 22  1  0
 22 23  2  0
 23 24  1  0
 24 25  2  0
 23 26  1  0
 26 27  3  0
  7  2  1  0
 16 10  1  0
 25 20  1  0
  1 28  1  0
  1 29  1  0
  1 30  1  0
  2 31  1  1
  3 32  1  0
  3 33  1  0
  5 34  1  0
  5 35  1  0
  6 36  1  0
  6 37  1  0
 11 38  1  0
 12 39  1  0
 15 40  1  0
 16 41  1  0
 21 42  1  0
 22 43  1  0
 24 44  1  0
 25 45  1  0
M  END
$$$$
[H]N=C(N([H])[H])N([H])C([H])([H])C([H])([H])C([H])([H])[C@]([H])(C(=O)N([H])[C@]([H])(C(=O)N([H])[C@]([H])(C(=O)N1C([H])([H])C([H])([H])C([H])([H])[C@@]1([H])C(=O)N([H])[C@]([H])(C(=O)N([H])[H])C([H])([H])[H])C([H])([H])c1c([H])c([H])c([H])c([H])c1[H])C([H])([H])c1c([H])c([H])c([H])c([H])c1[H])N([H])C(=O)[C@@]([H])(N([H])C(=O)C([H])([H])[H])C([H])([H])c1c([H])c([H])c([H])c([H])c1[H]
     RDKit          3D

116119  0  0  0  0  0  0  0  0999 V2000
    6.6906   -3.3360   -0.3461 C   0  0  0  0  0  0  0  0  0  0  0  0
    6.5882   -1.9843   -1.0654 C   0  0  2  0  0  0  0  0  0  0  0  0
    6.2958   -1.0196   -0.0223 N   0  0  0  0  0  0  0  0  0  0  0  0
    7.0812    0.1077    0.2171 C   0  0  0  0  0  0  0  0  0  0  0  0
    8.0955    0.1995   -0.6148 O   0  0  0  0  0  0  0  0  0  0  0  0
    7.0290    1.1830    1.1827 C   0  0  2  0  0  0  0  0  0  0  0  0
    8.0373    0.7939    2.3099 C   0  0  0  0  0  0  0  0  0  0  0  0
    7.5152    1.5224    3.4961 C   0  0  0  0  0  0  0  0  0  0  0  0
    6.4989    2.4699    2.9834 C   0  0  0  0  0  0  0  0  0  0  0  0
    5.8934    1.6199    1.8512 N   0  0  0  0  0  0  0  0  0  0  0  0
    4.4764    1.6199    1.7513 C   0  0  0  0  0  0  0  0  0  0  0  0
    3.8816    2.0947    2.8139 O   0  0  0  0  0  0  0  0  0  0  0  0
    3.5796    1.2051    0.7097 C   0  0  2  0  0  0  0  0  0  0  0  0
    3.2565    2.3368   -0.2878 C   0  0  0  0  0  0  0  0  0  0  0  0
    4.4435    2.8861   -0.9761 C   0  0  0  0  0  0  0  0  0  0  0  0
    5.0898    3.9964   -0.4878 C   0  0  0  0  0  0  0  0  0  0  0  0
    6.1830    4.4998   -1.1308 C   0  0  0  0  0  0  0  0  0  0  0  0
    6.6957    3.9375   -2.2855 C   0  0  0  0  0  0  0  0  0  0  0  0
    6.0224    2.8264   -2.7450 C   0  0  0  0  0  0  0  0  0  0  0  0
    4.9231    2.2978   -2.1223 C   0  0  0  0  0  0  0  0  0  0  0  0
    2.2291    0.9927    1.3490 N   0  0  0  0  0  0  0  0  0  0  0  0
    1.3227    0.0621    0.8295 C   0  0  0  0  0  0  0  0  0  0  0  0
    1.6598   -0.5899   -0.1887 O   0  0  0  0  0  0  0  0  0  0  0  0
   -0.0016   -0.1544    1.4462 C   0  0  2  0  0  0  0  0  0  0  0  0
    0.0407   -1.0091    2.6847 C   0  0  0  0  0  0  0  0  0  0  0  0
    0.8443   -0.5504    3.7953 C   0  0  0  0  0  0  0  0  0  0  0  0
    0.3567    0.3108    4.7762 C   0  0  0  0  0  0  0  0  0  0  0  0
    1.2141    0.6419    5.8032 C   0  0  0  0  0  0  0  0  0  0  0  0
    2.4989    0.1646    5.8913 C   0  0  0  0  0  0  0  0  0  0  0  0
    2.9921   -0.6866    4.9283 C   0  0  0  0  0  0  0  0  0  0  0  0
    2.1571   -1.0291    3.8973 C   0  0  0  0  0  0  0  0  0  0  0  0
   -0.8028   -0.9715    0.4885 N   0  0  0  0  0  0  0  0  0  0  0  0
   -1.9378   -0.4353   -0.1389 C   0  0  0  0  0  0  0  0  0  0  0  0
   -2.2395    0.7764    0.1467 O   0  0  0  0  0  0  0  0  0  0  0  0
   -2.7736   -1.1901   -1.0867 C   0  0  1  0  0  0  0  0  0  0  0  0
   -3.2666   -2.4362   -0.3745 C   0  0  0  0  0  0  0  0  0  0  0  0
   -4.1412   -3.2861   -1.2418 C   0  0  0  0  0  0  0  0  0  0  0  0
   -4.5656   -4.4888   -0.4203 C   0  0  0  0  0  0  0  0  0  0  0  0
   -5.4138   -5.3817   -1.1607 N   0  0  0  0  0  0  0  0  0  0  0  0
   -5.8744   -6.5540   -0.5411 C   0  0  0  0  0  0  0  0  0  0  0  0
   -6.3019   -6.5210    0.8045 N   0  0  0  0  0  0  0  0  0  0  0  0
   -5.9102   -7.6530   -1.1844 N   0  0  0  0  0  0  0  0  0  0  0  0
   -3.8421   -0.3484   -1.5590 N   0  0  0  0  0  0  0  0  0  0  0  0
   -5.0834   -0.1101   -0.9547 C   0  0  0  0  0  0  0  0  0  0  0  0
   -5.3844   -0.6403    0.1303 O   0  0  0  0  0  0  0  0  0  0  0  0
   -6.0768    0.7862   -1.5927 C   0  0  2  0  0  0  0  0  0  0  0  0
   -5.4811    2.1171   -2.0150 C   0  0  0  0  0  0  0  0  0  0  0  0
   -6.5790    2.8868   -2.6285 C   0  0  0  0  0  0  0  0  0  0  0  0
   -7.3576    3.7213   -1.8665 C   0  0  0  0  0  0  0  0  0  0  0  0
   -8.3912    4.4388   -2.4414 C   0  0  0  0  0  0  0  0  0  0  0  0
   -8.6450    4.3178   -3.7895 C   0  0  0  0  0  0  0  0  0  0  0  0
   -7.8661    3.4866   -4.5357 C   0  0  0  0  0  0  0  0  0  0  0  0
   -6.8265    2.7556   -3.9966 C   0  0  0  0  0  0  0  0  0  0  0  0
   -7.2168    0.9531   -0.7273 N   0  0  0  0  0  0  0  0  0  0  0  0
   -8.5232    0.5072   -0.9978 C   0  0  0  0  0  0  0  0  0  0  0  0
   -9.6090    0.7529    0.0010 C   0  0  0  0  0  0  0  0  0  0  0  0
   -8.8090   -0.0994   -2.0662 O   0  0  0  0  0  0  0  0  0  0  0  0
    5.4880   -2.0960   -2.0135 C   0  0  0  0  0  0  0  0  0  0  0  0
    5.5484   -3.0066   -3.1386 N   0  0  0  0  0  0  0  0  0  0  0  0
    4.4442   -1.4321   -1.9229 O   0  0  0  0  0  0  0  0  0  0  0  0
    7.2084   -3.1402    0.6133 H   0  0  0  0  0  0  0  0  0  0  0  0
    5.6284   -3.6493   -0.1911 H   0  0  0  0  0  0  0  0  0  0  0  0
    7.1913   -4.0367   -1.0130 H   0  0  0  0  0  0  0  0  0  0  0  0
    7.5277   -1.7319   -1.6050 H   0  0  0  0  0  0  0  0  0  0  0  0
    5.4641   -1.2187    0.5655 H   0  0  0  0  0  0  0  0  0  0  0  0
    7.5606    2.0942    0.7252 H   0  0  0  0  0  0  0  0  0  0  0  0
    9.0581    1.0323    2.0160 H   0  0  0  0  0  0  0  0  0  0  0  0
    7.8585   -0.3021    2.4556 H   0  0  0  0  0  0  0  0  0  0  0  0
    7.0349    0.8593    4.2503 H   0  0  0  0  0  0  0  0  0  0  0  0
    8.3612    2.0985    3.9426 H   0  0  0  0  0  0  0  0  0  0  0  0
    6.9519    3.3058    2.4140 H   0  0  0  0  0  0  0  0  0  0  0  0
    5.7196    2.7470    3.6853 H   0  0  0  0  0  0  0  0  0  0  0  0
    3.7241    0.3151    0.1398 H   0  0  0  0  0  0  0  0  0  0  0  0
    2.5558    1.8972   -1.0241 H   0  0  0  0  0  0  0  0  0  0  0  0
    2.7335    3.1685    0.2117 H   0  0  0  0  0  0  0  0  0  0  0  0
    4.7321    4.4871    0.4220 H   0  0  0  0  0  0  0  0  0  0  0  0
    6.7260    5.3875   -0.7711 H   0  0  0  0  0  0  0  0  0  0  0  0
    7.5665    4.3473   -2.7885 H   0  0  0  0  0  0  0  0  0  0  0  0
    6.4260    2.3800   -3.6570 H   0  0  0  0  0  0  0  0  0  0  0  0
    4.4233    1.4060   -2.5331 H   0  0  0  0  0  0  0  0  0  0  0  0
    2.0365    1.5788    2.1724 H   0  0  0  0  0  0  0  0  0  0  0  0
   -0.4949    0.8049    1.5426 H   0  0  0  0  0  0  0  0  0  0  0  0
   -0.9819   -1.2585    3.0471 H   0  0  0  0  0  0  0  0  0  0  0  0
    0.4436   -2.0078    2.3353 H   0  0  0  0  0  0  0  0  0  0  0  0
   -0.6540    0.6790    4.6981 H   0  0  0  0  0  0  0  0  0  0  0  0
    0.7977    1.3211    6.5591 H   0  0  0  0  0  0  0  0  0  0  0  0
    3.1412    0.4617    6.7344 H   0  0  0  0  0  0  0  0  0  0  0  0
    4.0061   -1.0429    5.0279 H   0  0  0  0  0  0  0  0  0  0  0  0
    2.5664   -1.7044    3.1458 H   0  0  0  0  0  0  0  0  0  0  0  0
   -0.4640   -1.9408    0.3256 H   0  0  0  0  0  0  0  0  0  0  0  0
   -2.2000   -1.5189   -2.0120 H   0  0  0  0  0  0  0  0  0  0  0  0
   -2.3462   -3.0776   -0.1770 H   0  0  0  0  0  0  0  0  0  0  0  0
   -3.6915   -2.1894    0.5816 H   0  0  0  0  0  0  0  0  0  0  0  0
   -3.4935   -3.7036   -2.0765 H   0  0  0  0  0  0  0  0  0  0  0  0
   -4.9623   -2.7769   -1.7425 H   0  0  0  0  0  0  0  0  0  0  0  0
   -3.6611   -4.9701   -0.0243 H   0  0  0  0  0  0  0  0  0  0  0  0
   -5.1547   -4.0823    0.4475 H   0  0  0  0  0  0  0  0  0  0  0  0
   -5.6781   -5.1588   -2.1344 H   0  0  0  0  0  0  0  0  0  0  0  0
   -5.6871   -6.9991    1.5034 H   0  0  0  0  0  0  0  0  0  0  0  0
   -7.1809   -6.0524    1.1203 H   0  0  0  0  0  0  0  0  0  0  0  0
   -5.5943   -7.6761   -2.1763 H   0  0  0  0  0  0  0  0  0  0  0  0
   -3.7079    0.1849   -2.4955 H   0  0  0  0  0  0  0  0  0  0  0  0
   -6.4018    0.2762   -2.5360 H   0  0  0  0  0  0  0  0  0  0  0  0
   -5.0611    2.6286   -1.1134 H   0  0  0  0  0  0  0  0  0  0  0  0
   -4.6984    1.9389   -2.7569 H   0  0  0  0  0  0  0  0  0  0  0  0
   -7.2019    3.8523   -0.8068 H   0  0  0  0  0  0  0  0  0  0  0  0
   -8.9972    5.1012   -1.8052 H   0  0  0  0  0  0  0  0  0  0  0  0
   -9.4538    4.8812   -4.2272 H   0  0  0  0  0  0  0  0  0  0  0  0
   -8.0480    3.3721   -5.6059 H   0  0  0  0  0  0  0  0  0  0  0  0
   -6.2210    2.1051   -4.5946 H   0  0  0  0  0  0  0  0  0  0  0  0
   -7.0345    1.4541    0.1840 H   0  0  0  0  0  0  0  0  0  0  0  0
   -9.9958   -0.2017    0.3873 H   0  0  0  0  0  0  0  0  0  0  0  0
   -9.2132    1.3835    0.8274 H   0  0  0  0  0  0  0  0  0  0  0  0
  -10.4560    1.3192   -0.4250 H   0  0  0  0  0  0  0  0  0  0  0  0
    5.2940   -4.0111   -3.0174 H   0  0  0  0  0  0  0  0  0  0  0  0
    5.8450   -2.6760   -4.0782 H   0  0  0  0  0  0  0  0  0  0  0  0
  1  2  1  0
  2  3  1  0
  3  4  1  0
  4  5  2  0
  4  6  1  0
  6  7  1  0
  7  8  1  0
  8  9  1  0
  9 10  1  0
 10 11  1  0
 11 12  2  0
 11 13  1  0
 13 14  1  0
 14 15  1  0
 15 16  2  0
 16 17  1  0
 17 18  2  0
 18 19  1  0
 19 20  2  0
 13 21  1  0
 21 22  1  0
 22 23  2  0
 22 24  1  0
 24 25  1  0
 25 26  1  0
 26 27  2  0
 27 28  1  0
 28 29  2  0
 29 30  1  0
 30 31  2  0
 24 32  1  0
 32 33  1  0
 33 34  2  0
 33 35  1  0
 35 36  1  0
 36 37  1  0
 37 38  1  0
 38 39  1  0
 39 40  1  0
 40 41  1  0
 40 42  2  3
 35 43  1  0
 43 44  1  0
 44 45  2  0
 44 46  1  0
 46 47  1  0
 47 48  1  0
 48 49  2  0
 49 50  1  0
 50 51  2  0
 51 52  1  0
 52 53  2  0
 46 54  1  0
 54 55  1  0
 55 56  1  0
 55 57  2  0
  2 58  1  0
 58 59  1  0
 58 60  2  0
 10  6  1  0
 20 15  1  0
 31 26  1  0
 53 48  1  0
  1 61  1  0
  1 62  1  0
  1 63  1  0
  2 64  1  6
  3 65  1  0
  6 66  1  6
  7 67  1  0
  7 68  1  0
  8 69  1  0
  8 70  1  0
  9 71  1  0
  9 72  1  0
 13 73  1  6
 14 74  1  0
 14 75  1  0
 16 76  1  0
 17 77  1  0
 18 78  1  0
 19 79  1  0
 20 80  1  0
 21 81  1  0
 24 82  1  1
 25 83  1  0
 25 84  1  0
 27 85  1  0
 28 86  1  0
 29 87  1  0
 30 88  1  0
 31 89  1  0
 32 90  1  0
 35 91  1  6
 36 92  1  0
 36 93  1  0
 37 94  1  0
 37 95  1  0
 38 96  1  0
 38 97  1  0
 39 98  1  0
 41 99  1  0
 41100  1  0
 42101  1  0
 43102  1  0
 46103  1  6
 47104  1  0
 47105  1  0
 49106  1  0
 50107  1  0
 51108  1  0
 52109  1  0
 53110  1  0
 54111  1  0
 56112  1  0
 56113  1  0
 56114  1  0
 59115  1  0
 59116  1  0
M  END
$$$$
[H]c1nc(N([H])c2c([H])c([H])c(N3C([H])([H])C([H])([H])OC([H])([H])C3([H])[H])c([H])c2OC([H])([H])[H])nc(N([H])c2c([H])c([H])c([H])c([H])c2S(=O)(=O)C([H])(C([H])([H])[H])C([H])([H])[H])c1Cl
     RDKit          3D

 63 66  0  0  0  0  0  0  0  0999 V2000
    3.6437   -2.0120   -2.5675 C   0  0  0  0  0  0  0  0  0  0  0  0
    2.8669   -1.2961   -1.6426 O   0  0  0  0  0  0  0  0  0  0  0  0
    3.3871   -0.6019   -0.5867 C   0  0  0  0  0  0  0  0  0  0  0  0
    4.7411   -0.5811   -0.3889 C   0  0  0  0  0  0  0  0  0  0  0  0
    5.3376    0.0942    0.6493 C   0  0  0  0  0  0  0  0  0  0  0  0
    4.4934    0.7658    1.5037 C   0  0  0  0  0  0  0  0  0  0  0  0
    3.0990    0.7572    1.3183 C   0  0  0  0  0  0  0  0  0  0  0  0
    2.5112    0.0817    0.2806 C   0  0  0  0  0  0  0  0  0  0  0  0
    1.1323    0.0331    0.0429 N   0  0  0  0  0  0  0  0  0  0  0  0
    0.0772    0.6383    0.7645 C   0  0  0  0  0  0  0  0  0  0  0  0
    0.2179    1.4001    1.8494 N   0  0  0  0  0  0  0  0  0  0  0  0
   -0.7908    1.9640    2.5218 C   0  0  0  0  0  0  0  0  0  0  0  0
   -2.0564    1.7305    2.0458 C   0  0  0  0  0  0  0  0  0  0  0  0
   -3.4138    2.4314    2.8695 Cl  0  0  0  0  0  0  0  0  0  0  0  0
   -2.3023    0.9374    0.9046 C   0  0  0  0  0  0  0  0  0  0  0  0
   -3.6255    0.7548    0.5134 N   0  0  0  0  0  0  0  0  0  0  0  0
   -4.0700    0.0171   -0.5895 C   0  0  0  0  0  0  0  0  0  0  0  0
   -3.3018   -0.5769   -1.5571 C   0  0  0  0  0  0  0  0  0  0  0  0
   -3.8235   -1.2834   -2.6463 C   0  0  0  0  0  0  0  0  0  0  0  0
   -5.1784   -1.3982   -2.7697 C   0  0  0  0  0  0  0  0  0  0  0  0
   -6.0032   -0.8232   -1.8300 C   0  0  0  0  0  0  0  0  0  0  0  0
   -5.4661   -0.1344   -0.7678 C   0  0  0  0  0  0  0  0  0  0  0  0
   -6.5314    0.5722    0.4003 S   0  0  0  0  0  0  0  0  0  0  0  0
   -6.2858    0.0031    1.7748 O   0  0  0  0  0  0  0  0  0  0  0  0
   -6.4838    2.0804    0.3882 O   0  0  0  0  0  0  0  0  0  0  0  0
   -8.2264    0.1770   -0.0589 C   0  0  0  0  0  0  0  0  0  0  0  0
   -8.5676   -1.2538    0.1547 C   0  0  0  0  0  0  0  0  0  0  0  0
   -9.0737    1.0663    0.8814 C   0  0  0  0  0  0  0  0  0  0  0  0
   -1.2064    0.4429    0.3395 N   0  0  0  0  0  0  0  0  0  0  0  0
    6.7460    0.1002    0.8261 N   0  0  0  0  0  0  0  0  0  0  0  0
    7.2910    0.7873    1.9629 C   0  0  0  0  0  0  0  0  0  0  0  0
    8.7792    0.6290    2.0247 C   0  0  0  0  0  0  0  0  0  0  0  0
    9.2907    0.9121    0.7566 O   0  0  0  0  0  0  0  0  0  0  0  0
    9.0441   -0.2107   -0.0319 C   0  0  0  0  0  0  0  0  0  0  0  0
    7.6019   -0.5643   -0.1128 C   0  0  0  0  0  0  0  0  0  0  0  0
    4.2027   -2.7883   -1.9862 H   0  0  0  0  0  0  0  0  0  0  0  0
    4.3711   -1.3833   -3.1162 H   0  0  0  0  0  0  0  0  0  0  0  0
    3.0201   -2.5336   -3.3212 H   0  0  0  0  0  0  0  0  0  0  0  0
    5.4204   -1.1194   -1.0708 H   0  0  0  0  0  0  0  0  0  0  0  0
    4.9295    1.3128    2.3389 H   0  0  0  0  0  0  0  0  0  0  0  0
    2.5385    1.3094    2.0391 H   0  0  0  0  0  0  0  0  0  0  0  0
    0.8202   -0.5519   -0.8172 H   0  0  0  0  0  0  0  0  0  0  0  0
   -0.6285    2.5783    3.4023 H   0  0  0  0  0  0  0  0  0  0  0  0
   -4.3573    1.2212    1.0982 H   0  0  0  0  0  0  0  0  0  0  0  0
   -2.2238   -0.4938   -1.4844 H   0  0  0  0  0  0  0  0  0  0  0  0
   -3.1232   -1.7098   -3.3465 H   0  0  0  0  0  0  0  0  0  0  0  0
   -5.6265   -1.9476   -3.6132 H   0  0  0  0  0  0  0  0  0  0  0  0
   -7.0920   -0.9288   -1.9656 H   0  0  0  0  0  0  0  0  0  0  0  0
   -8.4110    0.5489   -1.0713 H   0  0  0  0  0  0  0  0  0  0  0  0
   -9.2714   -1.3415    1.0065 H   0  0  0  0  0  0  0  0  0  0  0  0
   -7.6703   -1.8914    0.2950 H   0  0  0  0  0  0  0  0  0  0  0  0
   -9.0847   -1.6751   -0.7504 H   0  0  0  0  0  0  0  0  0  0  0  0
   -9.0076    0.6112    1.8821 H   0  0  0  0  0  0  0  0  0  0  0  0
   -8.5582    2.0444    0.9180 H   0  0  0  0  0  0  0  0  0  0  0  0
  -10.0922    1.1558    0.5034 H   0  0  0  0  0  0  0  0  0  0  0  0
    6.8922    0.3054    2.9060 H   0  0  0  0  0  0  0  0  0  0  0  0
    7.0117    1.8662    1.9751 H   0  0  0  0  0  0  0  0  0  0  0  0
    9.1663    1.3638    2.7834 H   0  0  0  0  0  0  0  0  0  0  0  0
    9.0169   -0.4042    2.3636 H   0  0  0  0  0  0  0  0  0  0  0  0
    9.5239   -0.1191   -1.0341 H   0  0  0  0  0  0  0  0  0  0  0  0
    9.6039   -1.0477    0.4801 H   0  0  0  0  0  0  0  0  0  0  0  0
    7.2906   -0.3564   -1.1783 H   0  0  0  0  0  0  0  0  0  0  0  0
    7.4852   -1.6655    0.0961 H   0  0  0  0  0  0  0  0  0  0  0  0
  1  2  1  0
  2  3  1  0
  3  4  2  0
  4  5  1  0
  5  6  2  0
  6  7  1  0
  7  8  2  0
  8  9  1  0
  9 10  1  0
 10 11  2  0
 11 12  1  0
 12 13  2  0
 13 14  1  0
 13 15  1  0
 15 16  1  0
 16 17  1  0
 17 18  2  0
 18 19  1  0
 19 20  2  0
 20 21  1  0
 21 22  2  0
 22 23  1  0
 23 24  2  0
 23 25  2  0
 23 26  1  0
 26 27  1  0
 26 28  1  0
 15 29  2  0
  5 30  1  0
 30 31  1  0
 31 32  1  0
 32 33  1  0
 33 34  1  0
 34 35  1  0
  8  3  1  0
 29 10  1  0
 35 30  1  0
 22 17  1  0
  1 36  1  0
  1 37  1  0
  1 38  1  0
  4 39  1  0
  6 40  1  0
  7 41  1  0
  9 42  1  0
 12 43  1  0
 16 44  1  0
 18 45  1  0
 19 46  1  0
 20 47  1  0
 21 48  1  0
 26 49  1  0
 27 50  1  0
 27 51  1  0
 27 52  1  0
 28 53  1  0
 28 54  1  0
 28 55  1  0
 31 56  1  0
 31 57  1  0
 32 58  1  0
 32 59  1  0
 34 60  1  0
 34 61  1  0
 35 62  1  0
 35 63  1  0
M  END
$$$$
[H]OC(=O)[C@@]([H])(N([H])C(=O)[C@@]([H])(N([H])C(=O)[C@@]([H])(N([H])C(=O)[C@@]([H])(N([H])C(=O)[C@@]([H])(N([H])C(=O)[C@@]([H])(N([H])C(=O)[C@@]([H])(N([H])C(=O)OC([H])([H])c1c([H])c([H])c([H])c([H])c1[H])C([H])([H])c1c([H])c([H])c([H])c([H])c1[H])[C@@]([H])(C([H])([H])[H])C([H])([H])C([H])([H])[H])C([H])([H])c1c([H])c([H])c([H])c([H])c1[H])C([H])([H])c1c([H])c([H])c([H])c([H])c1[H])C([H])([H])[H])C([H])([H])[H])C([H])([H])c1c([H])c([H])c([H])c([H])c1[H]
     RDKit          3D

138142  0  0  0  0  0  0  0  0999 V2000
    2.6359    3.8185    0.5561 C   0  0  0  0  0  0  0  0  0  0  0  0
    3.3821    2.5633    0.2260 C   0  0  0  0  0  0  0  0  0  0  0  0
    3.9949    1.9390    1.4333 C   0  0  2  0  0  0  0  0  0  0  0  0
    4.9797    2.8083    2.1555 C   0  0  0  0  0  0  0  0  0  0  0  0
    4.6240    0.5605    1.1259 C   0  0  2  0  0  0  0  0  0  0  0  0
    5.6443    0.7022    0.1229 N   0  0  0  0  0  0  0  0  0  0  0  0
    7.0390    0.6277    0.3433 C   0  0  0  0  0  0  0  0  0  0  0  0
    7.3705    0.3901    1.5577 O   0  0  0  0  0  0  0  0  0  0  0  0
    8.0988    0.7984   -0.6384 C   0  0  2  0  0  0  0  0  0  0  0  0
    8.0104   -0.0894   -1.8314 C   0  0  0  0  0  0  0  0  0  0  0  0
    8.0759   -1.5212   -1.5954 C   0  0  0  0  0  0  0  0  0  0  0  0
    9.2730   -2.2197   -1.5232 C   0  0  0  0  0  0  0  0  0  0  0  0
    9.3744   -3.5656   -1.3176 C   0  0  0  0  0  0  0  0  0  0  0  0
    8.2462   -4.3230   -1.1667 C   0  0  0  0  0  0  0  0  0  0  0  0
    7.0170   -3.6605   -1.2332 C   0  0  0  0  0  0  0  0  0  0  0  0
    6.9364   -2.3022   -1.4414 C   0  0  0  0  0  0  0  0  0  0  0  0
    9.4329    0.7467   -0.0385 N   0  0  0  0  0  0  0  0  0  0  0  0
   10.2733    1.8528    0.1159 C   0  0  0  0  0  0  0  0  0  0  0  0
    9.9658    3.0225   -0.2520 O   0  0  0  0  0  0  0  0  0  0  0  0
   11.5141    1.6957    0.6972 O   0  0  0  0  0  0  0  0  0  0  0  0
   12.4746    2.6711    0.9261 C   0  0  0  0  0  0  0  0  0  0  0  0
   12.9028    3.2653   -0.3566 C   0  0  0  0  0  0  0  0  0  0  0  0
   12.5902    4.5464   -0.7352 C   0  0  0  0  0  0  0  0  0  0  0  0
   13.0171    5.0791   -1.9521 C   0  0  0  0  0  0  0  0  0  0  0  0
   13.7826    4.3019   -2.8170 C   0  0  0  0  0  0  0  0  0  0  0  0
   14.0956    3.0271   -2.4431 C   0  0  0  0  0  0  0  0  0  0  0  0
   13.6645    2.5294   -1.2462 C   0  0  0  0  0  0  0  0  0  0  0  0
    3.5966   -0.4311    0.8984 C   0  0  0  0  0  0  0  0  0  0  0  0
    3.6485   -1.1709   -0.1331 O   0  0  0  0  0  0  0  0  0  0  0  0
    2.4837   -0.6706    1.7485 N   0  0  0  0  0  0  0  0  0  0  0  0
    1.4840   -1.6831    1.4891 C   0  0  1  0  0  0  0  0  0  0  0  0
    0.9445   -2.2948    2.7327 C   0  0  0  0  0  0  0  0  0  0  0  0
    1.9312   -2.9750    3.5835 C   0  0  0  0  0  0  0  0  0  0  0  0
    2.6673   -2.3322    4.5759 C   0  0  0  0  0  0  0  0  0  0  0  0
    3.5523   -3.0870    5.2996 C   0  0  0  0  0  0  0  0  0  0  0  0
    3.7751   -4.4381    5.1256 C   0  0  0  0  0  0  0  0  0  0  0  0
    3.0297   -5.0713    4.1270 C   0  0  0  0  0  0  0  0  0  0  0  0
    2.1373   -4.3315    3.3902 C   0  0  0  0  0  0  0  0  0  0  0  0
    0.3036   -1.1344    0.7274 C   0  0  0  0  0  0  0  0  0  0  0  0
    0.3517    0.0875    0.4247 O   0  0  0  0  0  0  0  0  0  0  0  0
   -0.7615   -2.0009    0.4030 N   0  0  0  0  0  0  0  0  0  0  0  0
   -1.9586   -1.5698   -0.3557 C   0  0  1  0  0  0  0  0  0  0  0  0
   -1.9992   -2.4515   -1.5413 C   0  0  0  0  0  0  0  0  0  0  0  0
   -3.0551   -2.2892   -2.5183 C   0  0  0  0  0  0  0  0  0  0  0  0
   -4.1584   -3.0940   -2.5451 C   0  0  0  0  0  0  0  0  0  0  0  0
   -5.1756   -2.9518   -3.4560 C   0  0  0  0  0  0  0  0  0  0  0  0
   -5.1081   -1.9546   -4.4048 C   0  0  0  0  0  0  0  0  0  0  0  0
   -4.0011   -1.1350   -4.3915 C   0  0  0  0  0  0  0  0  0  0  0  0
   -2.9797   -1.2749   -3.4801 C   0  0  0  0  0  0  0  0  0  0  0  0
   -3.1053   -1.4655    0.5223 C   0  0  0  0  0  0  0  0  0  0  0  0
   -2.9915   -1.8461    1.7423 O   0  0  0  0  0  0  0  0  0  0  0  0
   -4.3673   -0.9600    0.1639 N   0  0  0  0  0  0  0  0  0  0  0  0
   -5.4608   -0.8399    1.0841 C   0  0  1  0  0  0  0  0  0  0  0  0
   -5.6004    0.6075    1.5716 C   0  0  0  0  0  0  0  0  0  0  0  0
   -6.7368   -1.3176    0.5485 C   0  0  0  0  0  0  0  0  0  0  0  0
   -6.7686   -2.2801   -0.2460 O   0  0  0  0  0  0  0  0  0  0  0  0
   -7.9759   -0.7264    0.8982 N   0  0  0  0  0  0  0  0  0  0  0  0
   -9.2854   -1.0811    0.4905 C   0  0  1  0  0  0  0  0  0  0  0  0
  -10.3302   -0.9643    1.5357 C   0  0  0  0  0  0  0  0  0  0  0  0
   -9.6664   -0.3003   -0.7079 C   0  0  0  0  0  0  0  0  0  0  0  0
   -8.8525   -0.1705   -1.6493 O   0  0  0  0  0  0  0  0  0  0  0  0
  -10.9449    0.3030   -0.7948 N   0  0  0  0  0  0  0  0  0  0  0  0
  -11.2740    1.0329   -2.0065 C   0  0  1  0  0  0  0  0  0  0  0  0
  -12.7220    1.0039   -2.3281 C   0  0  0  0  0  0  0  0  0  0  0  0
  -13.6198    1.6001   -1.3261 C   0  0  0  0  0  0  0  0  0  0  0  0
  -14.1584    0.8983   -0.2731 C   0  0  0  0  0  0  0  0  0  0  0  0
  -14.9847    1.5181    0.6128 C   0  0  0  0  0  0  0  0  0  0  0  0
  -15.3199    2.8538    0.5035 C   0  0  0  0  0  0  0  0  0  0  0  0
  -14.7838    3.5452   -0.5426 C   0  0  0  0  0  0  0  0  0  0  0  0
  -13.9432    2.9484   -1.4575 C   0  0  0  0  0  0  0  0  0  0  0  0
  -10.7201    2.4122   -1.8371 C   0  0  0  0  0  0  0  0  0  0  0  0
  -10.8306    3.3044   -2.8731 O   0  0  0  0  0  0  0  0  0  0  0  0
  -10.1708    2.7152   -0.7626 O   0  0  0  0  0  0  0  0  0  0  0  0
    1.7546    3.5295    1.1929 H   0  0  0  0  0  0  0  0  0  0  0  0
    2.2707    4.2565   -0.4056 H   0  0  0  0  0  0  0  0  0  0  0  0
    3.2843    4.5202    1.1275 H   0  0  0  0  0  0  0  0  0  0  0  0
    4.2260    2.8691   -0.4609 H   0  0  0  0  0  0  0  0  0  0  0  0
    2.7806    1.8404   -0.3478 H   0  0  0  0  0  0  0  0  0  0  0  0
    3.1481    1.7283    2.1461 H   0  0  0  0  0  0  0  0  0  0  0  0
    5.3637    2.1896    3.0119 H   0  0  0  0  0  0  0  0  0  0  0  0
    4.4901    3.7047    2.5742 H   0  0  0  0  0  0  0  0  0  0  0  0
    5.8161    3.0881    1.4862 H   0  0  0  0  0  0  0  0  0  0  0  0
    5.1675    0.2564    2.0821 H   0  0  0  0  0  0  0  0  0  0  0  0
    5.3415    0.8757   -0.8624 H   0  0  0  0  0  0  0  0  0  0  0  0
    8.0206    1.8685   -1.0007 H   0  0  0  0  0  0  0  0  0  0  0  0
    8.8144    0.1726   -2.5919 H   0  0  0  0  0  0  0  0  0  0  0  0
    7.0658    0.1845   -2.3860 H   0  0  0  0  0  0  0  0  0  0  0  0
   10.2141   -1.6512   -1.6430 H   0  0  0  0  0  0  0  0  0  0  0  0
   10.3288   -4.0998   -1.2700 H   0  0  0  0  0  0  0  0  0  0  0  0
    8.2619   -5.3928   -1.0032 H   0  0  0  0  0  0  0  0  0  0  0  0
    6.1369   -4.2922   -1.1150 H   0  0  0  0  0  0  0  0  0  0  0  0
    5.9580   -1.8727   -1.4895 H   0  0  0  0  0  0  0  0  0  0  0  0
    9.7513   -0.1896    0.2923 H   0  0  0  0  0  0  0  0  0  0  0  0
   12.1132    3.4786    1.6136 H   0  0  0  0  0  0  0  0  0  0  0  0
   13.3434    2.2167    1.4755 H   0  0  0  0  0  0  0  0  0  0  0  0
   12.0020    5.1521   -0.0681 H   0  0  0  0  0  0  0  0  0  0  0  0
   12.7737    6.0877   -2.2479 H   0  0  0  0  0  0  0  0  0  0  0  0
   14.0959    4.7458   -3.7537 H   0  0  0  0  0  0  0  0  0  0  0  0
   14.6820    2.4085   -3.0916 H   0  0  0  0  0  0  0  0  0  0  0  0
   13.9074    1.5006   -0.9238 H   0  0  0  0  0  0  0  0  0  0  0  0
    2.3867   -0.0905    2.6027 H   0  0  0  0  0  0  0  0  0  0  0  0
    1.9355   -2.3946    0.7558 H   0  0  0  0  0  0  0  0  0  0  0  0
    0.4372   -1.4460    3.3005 H   0  0  0  0  0  0  0  0  0  0  0  0
    0.1147   -3.0093    2.5651 H   0  0  0  0  0  0  0  0  0  0  0  0
    2.5078   -1.2959    4.7191 H   0  0  0  0  0  0  0  0  0  0  0  0
    4.1438   -2.5941    6.0902 H   0  0  0  0  0  0  0  0  0  0  0  0
    4.4556   -5.0453    5.6741 H   0  0  0  0  0  0  0  0  0  0  0  0
    3.1531   -6.1319    3.9335 H   0  0  0  0  0  0  0  0  0  0  0  0
    1.5644   -4.8394    2.6149 H   0  0  0  0  0  0  0  0  0  0  0  0
   -0.7110   -2.9948    0.7103 H   0  0  0  0  0  0  0  0  0  0  0  0
   -1.6589   -0.5153   -0.6872 H   0  0  0  0  0  0  0  0  0  0  0  0
   -1.0208   -2.2862   -2.0961 H   0  0  0  0  0  0  0  0  0  0  0  0
   -1.9050   -3.5282   -1.2135 H   0  0  0  0  0  0  0  0  0  0  0  0
   -4.2738   -3.9110   -1.8149 H   0  0  0  0  0  0  0  0  0  0  0  0
   -6.0256   -3.6142   -3.4288 H   0  0  0  0  0  0  0  0  0  0  0  0
   -5.8964   -1.8550   -5.1079 H   0  0  0  0  0  0  0  0  0  0  0  0
   -3.9313   -0.3482   -5.1274 H   0  0  0  0  0  0  0  0  0  0  0  0
   -2.1338   -0.6403   -3.4781 H   0  0  0  0  0  0  0  0  0  0  0  0
   -4.5326   -0.6363   -0.8125 H   0  0  0  0  0  0  0  0  0  0  0  0
   -5.1724   -1.3853    2.0465 H   0  0  0  0  0  0  0  0  0  0  0  0
   -4.5771    0.9971    1.8604 H   0  0  0  0  0  0  0  0  0  0  0  0
   -6.1864    0.6726    2.5054 H   0  0  0  0  0  0  0  0  0  0  0  0
   -5.9458    1.2795    0.7661 H   0  0  0  0  0  0  0  0  0  0  0  0
   -7.9003    0.1103    1.5691 H   0  0  0  0  0  0  0  0  0  0  0  0
   -9.2763   -2.1546    0.1252 H   0  0  0  0  0  0  0  0  0  0  0  0
  -11.3252   -1.3276    1.2464 H   0  0  0  0  0  0  0  0  0  0  0  0
  -10.0240   -1.6531    2.3884 H   0  0  0  0  0  0  0  0  0  0  0  0
  -10.3824    0.0383    2.0076 H   0  0  0  0  0  0  0  0  0  0  0  0
  -11.6174    0.2144    0.0105 H   0  0  0  0  0  0  0  0  0  0  0  0
  -10.7021    0.5465   -2.8544 H   0  0  0  0  0  0  0  0  0  0  0  0
  -12.9953   -0.0843   -2.4649 H   0  0  0  0  0  0  0  0  0  0  0  0
  -12.8511    1.4878   -3.3395 H   0  0  0  0  0  0  0  0  0  0  0  0
  -13.9315   -0.1493   -0.1481 H   0  0  0  0  0  0  0  0  0  0  0  0
  -15.4371    0.9969    1.4680 H   0  0  0  0  0  0  0  0  0  0  0  0
  -15.9785    3.3632    1.2022 H   0  0  0  0  0  0  0  0  0  0  0  0
  -15.0233    4.6142   -0.6647 H   0  0  0  0  0  0  0  0  0  0  0  0
  -13.5626    3.5662   -2.2707 H   0  0  0  0  0  0  0  0  0  0  0  0
  -11.3439    3.0663   -3.7204 H   0  0  0  0  0  0  0  0  0  0  0  0
  1  2  1  0
  2  3  1  0
  3  4  1  0
  3  5  1  0
  5  6  1  0
  6  7  1  0
  7  8  2  0
  7  9  1  0
  9 10  1  0
 10 11  1  0
 11 12  2  0
 12 13  1  0
 13 14  2  0
 14 15  1  0
 15 16  2  0
  9 17  1  0
 17 18  1  0
 18 19  2  0
 18 20  1  0
 20 21  1  0
 21 22  1  0
 22 23  2  0
 23 24  1  0
 24 25  2  0
 25 26  1  0
 26 27  2  0
  5 28  1  0
 28 29  2  0
 28 30  1  0
 30 31  1  0
 31 32  1  0
 32 33  1  0
 33 34  2  0
 34 35  1  0
 35 36  2  0
 36 37  1  0
 37 38  2  0
 31 39  1  0
 39 40  2  0
 39 41  1  0
 41 42  1  0
 42 43  1  0
 43 44  1  0
 44 45  2  0
 45 46  1  0
 46 47  2  0
 47 48  1  0
 48 49  2  0
 42 50  1  0
 50 51  2  0
 50 52  1  0
 52 53  1  0
 53 54  1  0
 53 55  1  0
 55 56  2  0
 55 57  1  0
 57 58  1  0
 58 59  1  0
 58 60  1  0
 60 61  2  0
 60 62  1  0
 62 63  1  0
 63 64  1  0
 64 65  1  0
 65 66  2  0
 66 67  1  0
 67 68  2  0
 68 69  1  0
 69 70  2  0
 63 71  1  0
 71 72  1  0
 71 73  2  0
 16 11  1  0
 27 22  1  0
 38 33  1  0
 49 44  1  0
 70 65  1  0
  1 74  1  0
  1 75  1  0
  1 76  1  0
  2 77  1  0
  2 78  1  0
  3 79  1  1
  4 80  1  0
  4 81  1  0
  4 82  1  0
  5 83  1  1
  6 84  1  0
  9 85  1  6
 10 86  1  0
 10 87  1  0
 12 88  1  0
 13 89  1  0
 14 90  1  0
 15 91  1  0
 16 92  1  0
 17 93  1  0
 21 94  1  0
 21 95  1  0
 23 96  1  0
 24 97  1  0
 25 98  1  0
 26 99  1  0
 27100  1  0
 30101  1  0
 31102  1  6
 32103  1  0
 32104  1  0
 34105  1  0
 35106  1  0
 36107  1  0
 37108  1  0
 38109  1  0
 41110  1  0
 42111  1  6
 43112  1  0
 43113  1  0
 45114  1  0
 46115  1  0
 47116  1  0
 48117  1  0
 49118  1  0
 52119  1  0
 53120  1  1
 54121  1  0
 54122  1  0
 54123  1  0
 57124  1  0
 58125  1  6
 59126  1  0
 59127  1  0
 59128  1  0
 62129  1  0
 63130  1  6
 64131  1  0
 64132  1  0
 66133  1  0
 67134  1  0
 68135  1  0
 69136  1  0
 70137  1  0
 72138  1  0
M  END
$$$$
[H]OC(=O)C([H])([H])[C@@]([H])(C(=O)N([H])[C@]([H])(C(=O)N1C([H])([H])C([H])([H])C([H])([H])[C@@]1([H])C(=O)N([H])[C@@]([H])(C(=O)N1C([H])([H])C([H])([H])C([H])([H])[C@@]1([H])C(=O)N([H])[C@@]([H])(C([H])([H])[H])C(C([H])([H])[H])(C([H])([H])[H])C([H])([H])[H])C([H])([H])c1c([H])c([H])c(O[H])c([H])c1[H])C([H])([H])c1c([H])c([H])c([H])c([H])c1[H])N([H])C(=O)[C@@]([H])(N([H])C(=O)OC([H])([H])c1c([H])c([H])c([H])c([H])c1[H])C([H])([H])c1c([H])c([H])c([H])c([H])c1[H]
     RDKit          3D

140145  0  0  0  0  0  0  0  0999 V2000
  -10.4591   -1.2686   -0.9704 C   0  0  0  0  0  0  0  0  0  0  0  0
  -10.0963   -0.0708   -1.8307 C   0  0  2  0  0  0  0  0  0  0  0  0
   -9.7328    1.0657   -1.0306 N   0  0  0  0  0  0  0  0  0  0  0  0
   -8.4195    1.5754   -1.0252 C   0  0  0  0  0  0  0  0  0  0  0  0
   -7.5583    1.0318   -1.7526 O   0  0  0  0  0  0  0  0  0  0  0  0
   -8.0578    2.7164   -0.1767 C   0  0  2  0  0  0  0  0  0  0  0  0
   -8.2856    3.9611   -1.0195 C   0  0  0  0  0  0  0  0  0  0  0  0
   -7.1333    4.8640   -0.7236 C   0  0  0  0  0  0  0  0  0  0  0  0
   -6.1935    4.1012    0.1637 C   0  0  0  0  0  0  0  0  0  0  0  0
   -6.6458    2.7256    0.2110 N   0  0  0  0  0  0  0  0  0  0  0  0
   -5.8587    1.6349    0.5818 C   0  0  0  0  0  0  0  0  0  0  0  0
   -6.4353    0.4751    0.6225 O   0  0  0  0  0  0  0  0  0  0  0  0
   -4.3954    1.6747    0.9355 C   0  0  1  0  0  0  0  0  0  0  0  0
   -4.1497    2.3710    2.2412 C   0  0  0  0  0  0  0  0  0  0  0  0
   -4.8132    1.7814    3.4045 C   0  0  0  0  0  0  0  0  0  0  0  0
   -4.1689    0.7781    4.0843 C   0  0  0  0  0  0  0  0  0  0  0  0
   -4.7278    0.1789    5.2144 C   0  0  0  0  0  0  0  0  0  0  0  0
   -5.9543    0.5918    5.6727 C   0  0  0  0  0  0  0  0  0  0  0  0
   -6.5289    0.0014    6.8087 O   0  0  0  0  0  0  0  0  0  0  0  0
   -6.6075    1.6060    4.9869 C   0  0  0  0  0  0  0  0  0  0  0  0
   -6.0450    2.1884    3.8728 C   0  0  0  0  0  0  0  0  0  0  0  0
   -3.9028    0.3146    0.9361 N   0  0  0  0  0  0  0  0  0  0  0  0
   -2.7975   -0.1432    0.1119 C   0  0  0  0  0  0  0  0  0  0  0  0
   -2.2832    0.7514   -0.5787 O   0  0  0  0  0  0  0  0  0  0  0  0
   -2.4664   -1.5091    0.1970 C   0  0  2  0  0  0  0  0  0  0  0  0
   -2.6252   -2.2272    1.5314 C   0  0  0  0  0  0  0  0  0  0  0  0
   -2.4327   -3.6676    1.0057 C   0  0  0  0  0  0  0  0  0  0  0  0
   -1.6644   -3.4924   -0.3398 C   0  0  0  0  0  0  0  0  0  0  0  0
   -1.2335   -2.1148   -0.2215 N   0  0  0  0  0  0  0  0  0  0  0  0
    0.0279   -1.5666   -0.3770 C   0  0  0  0  0  0  0  0  0  0  0  0
    0.1007   -0.3089   -0.0221 O   0  0  0  0  0  0  0  0  0  0  0  0
    1.3070   -2.1086   -0.8575 C   0  0  2  0  0  0  0  0  0  0  0  0
    1.3782   -3.5730   -1.0481 C   0  0  0  0  0  0  0  0  0  0  0  0
    2.6600   -4.0635   -1.5532 C   0  0  0  0  0  0  0  0  0  0  0  0
    3.6435   -4.4700   -0.6928 C   0  0  0  0  0  0  0  0  0  0  0  0
    4.8447   -4.9713   -1.1414 C   0  0  0  0  0  0  0  0  0  0  0  0
    5.0743   -5.0693   -2.4817 C   0  0  0  0  0  0  0  0  0  0  0  0
    4.0952   -4.6623   -3.3681 C   0  0  0  0  0  0  0  0  0  0  0  0
    2.8959   -4.1624   -2.9062 C   0  0  0  0  0  0  0  0  0  0  0  0
    2.3702   -1.6590    0.0418 N   0  0  0  0  0  0  0  0  0  0  0  0
    3.5869   -1.0996   -0.2937 C   0  0  0  0  0  0  0  0  0  0  0  0
    3.8255   -0.9535   -1.5518 O   0  0  0  0  0  0  0  0  0  0  0  0
    4.6421   -0.6569    0.5970 C   0  0  2  0  0  0  0  0  0  0  0  0
    4.2706    0.5416    1.4769 C   0  0  0  0  0  0  0  0  0  0  0  0
    3.1617    0.2577    2.3876 C   0  0  0  0  0  0  0  0  0  0  0  0
    3.3588   -0.7048    3.3849 O   0  0  0  0  0  0  0  0  0  0  0  0
    2.0737    0.8348    2.3043 O   0  0  0  0  0  0  0  0  0  0  0  0
    5.9127   -0.3271   -0.0700 N   0  0  0  0  0  0  0  0  0  0  0  0
    7.1361   -0.3639    0.6567 C   0  0  0  0  0  0  0  0  0  0  0  0
    7.0453   -0.7051    1.8924 O   0  0  0  0  0  0  0  0  0  0  0  0
    8.4585   -0.0441    0.1400 C   0  0  2  0  0  0  0  0  0  0  0  0
    9.4732   -1.1690    0.1378 C   0  0  0  0  0  0  0  0  0  0  0  0
    9.2196   -2.3717   -0.6070 C   0  0  0  0  0  0  0  0  0  0  0  0
    9.4796   -2.4690   -1.9380 C   0  0  0  0  0  0  0  0  0  0  0  0
    9.3349   -3.6431   -2.6117 C   0  0  0  0  0  0  0  0  0  0  0  0
    8.9185   -4.7576   -1.9426 C   0  0  0  0  0  0  0  0  0  0  0  0
    8.6478   -4.6887   -0.5964 C   0  0  0  0  0  0  0  0  0  0  0  0
    8.7943   -3.5025    0.0745 C   0  0  0  0  0  0  0  0  0  0  0  0
    9.0856    0.8801    1.1409 N   0  0  0  0  0  0  0  0  0  0  0  0
   10.0705    1.7848    0.7111 C   0  0  0  0  0  0  0  0  0  0  0  0
   10.3948    1.7791   -0.5340 O   0  0  0  0  0  0  0  0  0  0  0  0
   10.7392    2.6871    1.4871 O   0  0  0  0  0  0  0  0  0  0  0  0
   11.7381    3.5760    1.0993 C   0  0  0  0  0  0  0  0  0  0  0  0
   11.3746    4.5360    0.0464 C   0  0  0  0  0  0  0  0  0  0  0  0
   10.5440    5.6093    0.2382 C   0  0  0  0  0  0  0  0  0  0  0  0
   10.2753    6.4640   -0.7860 C   0  0  0  0  0  0  0  0  0  0  0  0
   10.8205    6.2958   -2.0588 C   0  0  0  0  0  0  0  0  0  0  0  0
   11.6565    5.2118   -2.2419 C   0  0  0  0  0  0  0  0  0  0  0  0
   11.9197    4.3605   -1.2115 C   0  0  0  0  0  0  0  0  0  0  0  0
  -11.2147    0.1677   -2.7861 C   0  0  0  0  0  0  0  0  0  0  0  0
  -11.0098    1.3264   -3.7056 C   0  0  0  0  0  0  0  0  0  0  0  0
  -11.3140   -1.1029   -3.6507 C   0  0  0  0  0  0  0  0  0  0  0  0
  -12.5558    0.3266   -2.0879 C   0  0  0  0  0  0  0  0  0  0  0  0
  -10.5926   -2.1663   -1.6027 H   0  0  0  0  0  0  0  0  0  0  0  0
  -11.3500   -1.1072   -0.3430 H   0  0  0  0  0  0  0  0  0  0  0  0
   -9.6128   -1.5080   -0.2660 H   0  0  0  0  0  0  0  0  0  0  0  0
   -9.2050   -0.4267   -2.4291 H   0  0  0  0  0  0  0  0  0  0  0  0
  -10.4821    1.5088   -0.4473 H   0  0  0  0  0  0  0  0  0  0  0  0
   -8.7101    2.7248    0.7207 H   0  0  0  0  0  0  0  0  0  0  0  0
   -9.2409    4.4505   -0.7669 H   0  0  0  0  0  0  0  0  0  0  0  0
   -8.2986    3.6837   -2.1175 H   0  0  0  0  0  0  0  0  0  0  0  0
   -7.4552    5.8136   -0.2589 H   0  0  0  0  0  0  0  0  0  0  0  0
   -6.5842    5.1456   -1.6527 H   0  0  0  0  0  0  0  0  0  0  0  0
   -6.2131    4.5443    1.2018 H   0  0  0  0  0  0  0  0  0  0  0  0
   -5.1459    4.2137   -0.1888 H   0  0  0  0  0  0  0  0  0  0  0  0
   -3.8878    2.2300    0.1471 H   0  0  0  0  0  0  0  0  0  0  0  0
   -3.0309    2.2855    2.4081 H   0  0  0  0  0  0  0  0  0  0  0  0
   -4.3242    3.4444    2.1118 H   0  0  0  0  0  0  0  0  0  0  0  0
   -3.1861    0.3900    3.7832 H   0  0  0  0  0  0  0  0  0  0  0  0
   -4.1773   -0.6199    5.7226 H   0  0  0  0  0  0  0  0  0  0  0  0
   -7.1301   -0.8183    6.6665 H   0  0  0  0  0  0  0  0  0  0  0  0
   -7.5842    1.9177    5.3790 H   0  0  0  0  0  0  0  0  0  0  0  0
   -6.5495    2.9667    3.3513 H   0  0  0  0  0  0  0  0  0  0  0  0
   -4.3560   -0.3696    1.5521 H   0  0  0  0  0  0  0  0  0  0  0  0
   -3.2626   -2.0982   -0.4472 H   0  0  0  0  0  0  0  0  0  0  0  0
   -1.8710   -1.9400    2.2572 H   0  0  0  0  0  0  0  0  0  0  0  0
   -3.6285   -2.1680    1.9493 H   0  0  0  0  0  0  0  0  0  0  0  0
   -3.3904   -4.1628    0.8556 H   0  0  0  0  0  0  0  0  0  0  0  0
   -1.7776   -4.1808    1.7214 H   0  0  0  0  0  0  0  0  0  0  0  0
   -0.9851   -4.2933   -0.3678 H   0  0  0  0  0  0  0  0  0  0  0  0
   -2.4296   -3.4846   -1.1608 H   0  0  0  0  0  0  0  0  0  0  0  0
    1.5904   -1.6266   -1.8568 H   0  0  0  0  0  0  0  0  0  0  0  0
    0.6219   -3.8728   -1.8157 H   0  0  0  0  0  0  0  0  0  0  0  0
    1.2113   -4.0444   -0.0469 H   0  0  0  0  0  0  0  0  0  0  0  0
    3.4877   -4.4000    0.3684 H   0  0  0  0  0  0  0  0  0  0  0  0
    5.5794   -5.2739   -0.3874 H   0  0  0  0  0  0  0  0  0  0  0  0
    6.0277   -5.4730   -2.8380 H   0  0  0  0  0  0  0  0  0  0  0  0
    4.3358   -4.7610   -4.4121 H   0  0  0  0  0  0  0  0  0  0  0  0
    2.1561   -3.8553   -3.6398 H   0  0  0  0  0  0  0  0  0  0  0  0
    2.1240   -1.8115    1.0685 H   0  0  0  0  0  0  0  0  0  0  0  0
    4.8998   -1.4701    1.3317 H   0  0  0  0  0  0  0  0  0  0  0  0
    5.1666    0.8023    2.0634 H   0  0  0  0  0  0  0  0  0  0  0  0
    4.0027    1.4129    0.8189 H   0  0  0  0  0  0  0  0  0  0  0  0
    4.1405   -1.3653    3.3365 H   0  0  0  0  0  0  0  0  0  0  0  0
    5.9092   -0.0732   -1.0695 H   0  0  0  0  0  0  0  0  0  0  0  0
    8.5097    0.5084   -0.8148 H   0  0  0  0  0  0  0  0  0  0  0  0
   10.4496   -0.7326   -0.2618 H   0  0  0  0  0  0  0  0  0  0  0  0
    9.7392   -1.3713    1.2138 H   0  0  0  0  0  0  0  0  0  0  0  0
    9.8159   -1.6161   -2.5436 H   0  0  0  0  0  0  0  0  0  0  0  0
    9.5339   -3.7465   -3.6664 H   0  0  0  0  0  0  0  0  0  0  0  0
    8.7870   -5.7144   -2.4197 H   0  0  0  0  0  0  0  0  0  0  0  0
    8.3192   -5.5514   -0.0399 H   0  0  0  0  0  0  0  0  0  0  0  0
    8.5728   -3.4803    1.1291 H   0  0  0  0  0  0  0  0  0  0  0  0
    8.7807    0.8266    2.1036 H   0  0  0  0  0  0  0  0  0  0  0  0
   12.6652    3.0081    0.8240 H   0  0  0  0  0  0  0  0  0  0  0  0
   12.0552    4.1866    1.9938 H   0  0  0  0  0  0  0  0  0  0  0  0
   10.1086    5.7674    1.2129 H   0  0  0  0  0  0  0  0  0  0  0  0
    9.6192    7.3157   -0.6359 H   0  0  0  0  0  0  0  0  0  0  0  0
   10.6144    6.9659   -2.8716 H   0  0  0  0  0  0  0  0  0  0  0  0
   12.0973    5.0608   -3.2272 H   0  0  0  0  0  0  0  0  0  0  0  0
   12.5751    3.5243   -1.3946 H   0  0  0  0  0  0  0  0  0  0  0  0
  -10.9840    2.2938   -3.2034 H   0  0  0  0  0  0  0  0  0  0  0  0
  -11.8809    1.3287   -4.4224 H   0  0  0  0  0  0  0  0  0  0  0  0
  -10.1030    1.1337   -4.3456 H   0  0  0  0  0  0  0  0  0  0  0  0
  -11.6192   -0.8430   -4.6581 H   0  0  0  0  0  0  0  0  0  0  0  0
  -10.3029   -1.5878   -3.7089 H   0  0  0  0  0  0  0  0  0  0  0  0
  -11.9676   -1.8301   -3.1214 H   0  0  0  0  0  0  0  0  0  0  0  0
  -12.8673   -0.6560   -1.6464 H   0  0  0  0  0  0  0  0  0  0  0  0
  -13.3505    0.5962   -2.8093 H   0  0  0  0  0  0  0  0  0  0  0  0
  -12.5489    1.0887   -1.3087 H   0  0  0  0  0  0  0  0  0  0  0  0
  1  2  1  0
  2  3  1  0
  3  4  1  0
  4  5  2  0
  4  6  1  0
  6  7  1  0
  7  8  1  0
  8  9  1  0
  9 10  1  0
 10 11  1  0
 11 12  2  0
 11 13  1  0
 13 14  1  0
 14 15  1  0
 15 16  2  0
 16 17  1  0
 17 18  2  0
 18 19  1  0
 18 20  1  0
 20 21  2  0
 13 22  1  0
 22 23  1  0
 23 24  2  0
 23 25  1  0
 25 26  1  0
 26 27  1  0
 27 28  1  0
 28 29  1  0
 29 30  1  0
 30 31  2  0
 30 32  1  0
 32 33  1  0
 33 34  1  0
 34 35  2  0
 35 36  1  0
 36 37  2  0
 37 38  1  0
 38 39  2  0
 32 40  1  0
 40 41  1  0
 41 42  2  0
 41 43  1  0
 43 44  1  0
 44 45  1  0
 45 46  1  0
 45 47  2  0
 43 48  1  0
 48 49  1  0
 49 50  2  0
 49 51  1  0
 51 52  1  0
 52 53  1  0
 53 54  2  0
 54 55  1  0
 55 56  2  0
 56 57  1  0
 57 58  2  0
 51 59  1  0
 59 60  1  0
 60 61  2  0
 60 62  1  0
 62 63  1  0
 63 64  1  0
 64 65  2  0
 65 66  1  0
 66 67  2  0
 67 68  1  0
 68 69  2  0
  2 70  1  0
 70 71  1  0
 70 72  1  0
 70 73  1  0
 10  6  1  0
 21 15  1  0
 29 25  1  0
 39 34  1  0
 58 53  1  0
 69 64  1  0
  1 74  1  0
  1 75  1  0
  1 76  1  0
  2 77  1  6
  3 78  1  0
  6 79  1  1
  7 80  1  0
  7 81  1  0
  8 82  1  0
  8 83  1  0
  9 84  1  0
  9 85  1  0
 13 86  1  6
 14 87  1  0
 14 88  1  0
 16 89  1  0
 17 90  1  0
 19 91  1  0
 20 92  1  0
 21 93  1  0
 22 94  1  0
 25 95  1  6
 26 96  1  0
 26 97  1  0
 27 98  1  0
 27 99  1  0
 28100  1  0
 28101  1  0
 32102  1  6
 33103  1  0
 33104  1  0
 35105  1  0
 36106  1  0
 37107  1  0
 38108  1  0
 39109  1  0
 40110  1  0
 43111  1  1
 44112  1  0
 44113  1  0
 46114  1  0
 48115  1  0
 51116  1  6
 52117  1  0
 52118  1  0
 54119  1  0
 55120  1  0
 56121  1  0
 57122  1  0
 58123  1  0
 59124  1  0
 63125  1  0
 63126  1  0
 65127  1  0
 66128  1  0
 67129  1  0
 68130  1  0
 69131  1  0
 71132  1  0
 71133  1  0
 71134  1  0
 72135  1  0
 72136  1  0
 72137  1  0
 73138  1  0
 73139  1  0
 73140  1  0
M  END
$$$$
[H]c1nc(N([H])[H])c(C(F)(F)F)nc1-c1c([H])c([H])c(S(=O)(=O)N([H])[C@]([H])(c2c([H])c([H])c([H])c([H])c2[H])C([H])(C([H])([H])[H])C([H])([H])[H])c([H])c1[H]
     RDKit          3D

 52 54  0  0  0  0  0  0  0  0999 V2000
   -4.6759    0.2149    2.5564 C   0  0  0  0  0  0  0  0  0  0  0  0
   -4.4922   -0.5391    1.2418 C   0  0  0  0  0  0  0  0  0  0  0  0
   -4.5330   -1.9957    1.6117 C   0  0  0  0  0  0  0  0  0  0  0  0
   -3.1651   -0.2046    0.5762 C   0  0  2  0  0  0  0  0  0  0  0  0
   -3.0581    1.1841    0.3088 N   0  0  0  0  0  0  0  0  0  0  0  0
   -1.8789    2.0807    1.1135 S   0  0  0  0  0  0  0  0  0  0  0  0
   -2.1442    2.0801    2.6200 O   0  0  0  0  0  0  0  0  0  0  0  0
   -1.9779    3.5597    0.6978 O   0  0  0  0  0  0  0  0  0  0  0  0
   -0.2268    1.6150    0.8223 C   0  0  0  0  0  0  0  0  0  0  0  0
    0.5346    2.2026   -0.1957 C   0  0  0  0  0  0  0  0  0  0  0  0
    1.8336    1.8358   -0.4207 C   0  0  0  0  0  0  0  0  0  0  0  0
    2.4670    0.8743    0.3335 C   0  0  0  0  0  0  0  0  0  0  0  0
    1.7334    0.2780    1.3460 C   0  0  0  0  0  0  0  0  0  0  0  0
    0.4207    0.6582    1.5644 C   0  0  0  0  0  0  0  0  0  0  0  0
    3.8724    0.5158    0.0601 C   0  0  0  0  0  0  0  0  0  0  0  0
    4.5748   -0.4325    0.7328 C   0  0  0  0  0  0  0  0  0  0  0  0
    5.8780   -0.7131    0.4227 N   0  0  0  0  0  0  0  0  0  0  0  0
    6.4821   -0.0193   -0.5897 C   0  0  0  0  0  0  0  0  0  0  0  0
    7.8374   -0.2938   -0.9329 N   0  0  0  0  0  0  0  0  0  0  0  0
    5.7662    0.9425   -1.2706 C   0  0  0  0  0  0  0  0  0  0  0  0
    4.4982    1.1878   -0.9395 N   0  0  0  0  0  0  0  0  0  0  0  0
    6.3826    1.7168   -2.3780 C   0  0  0  0  0  0  0  0  0  0  0  0
    5.4534    2.5957   -2.8825 F   0  0  0  0  0  0  0  0  0  0  0  0
    7.5358    2.3570   -1.9679 F   0  0  0  0  0  0  0  0  0  0  0  0
    6.7601    0.8550   -3.4075 F   0  0  0  0  0  0  0  0  0  0  0  0
   -3.0743   -0.9661   -0.6901 C   0  0  0  0  0  0  0  0  0  0  0  0
   -4.1230   -1.6024   -1.2914 C   0  0  0  0  0  0  0  0  0  0  0  0
   -4.0509   -2.3416   -2.4651 C   0  0  0  0  0  0  0  0  0  0  0  0
   -2.8398   -2.4644   -3.1024 C   0  0  0  0  0  0  0  0  0  0  0  0
   -1.7669   -1.8403   -2.5290 C   0  0  0  0  0  0  0  0  0  0  0  0
   -1.8455   -1.1123   -1.3693 C   0  0  0  0  0  0  0  0  0  0  0  0
   -4.8967    1.2683    2.4475 H   0  0  0  0  0  0  0  0  0  0  0  0
   -3.9005   -0.0650    3.2913 H   0  0  0  0  0  0  0  0  0  0  0  0
   -5.6232   -0.2399    2.9909 H   0  0  0  0  0  0  0  0  0  0  0  0
   -5.3070   -0.2549    0.5974 H   0  0  0  0  0  0  0  0  0  0  0  0
   -5.5755   -2.3581    1.4122 H   0  0  0  0  0  0  0  0  0  0  0  0
   -4.3717   -2.0865    2.7100 H   0  0  0  0  0  0  0  0  0  0  0  0
   -3.7793   -2.6243    1.1144 H   0  0  0  0  0  0  0  0  0  0  0  0
   -2.3352   -0.4855    1.2685 H   0  0  0  0  0  0  0  0  0  0  0  0
   -3.1201    1.4458   -0.7019 H   0  0  0  0  0  0  0  0  0  0  0  0
    0.0068    2.9574   -0.7761 H   0  0  0  0  0  0  0  0  0  0  0  0
    2.3971    2.3027   -1.2123 H   0  0  0  0  0  0  0  0  0  0  0  0
    2.2187   -0.4766    1.9381 H   0  0  0  0  0  0  0  0  0  0  0  0
   -0.1168    0.1521    2.3805 H   0  0  0  0  0  0  0  0  0  0  0  0
    4.1040   -0.9813    1.5339 H   0  0  0  0  0  0  0  0  0  0  0  0
    8.6129    0.0904   -0.3390 H   0  0  0  0  0  0  0  0  0  0  0  0
    8.1227   -0.8720   -1.7619 H   0  0  0  0  0  0  0  0  0  0  0  0
   -5.1243   -1.5299   -0.8348 H   0  0  0  0  0  0  0  0  0  0  0  0
   -4.9327   -2.8165   -2.8717 H   0  0  0  0  0  0  0  0  0  0  0  0
   -2.7743   -3.0392   -4.0201 H   0  0  0  0  0  0  0  0  0  0  0  0
   -0.8131   -1.9630   -3.0703 H   0  0  0  0  0  0  0  0  0  0  0  0
   -0.9695   -0.6530   -0.9674 H   0  0  0  0  0  0  0  0  0  0  0  0
  1  2  1  0
  2  3  1  0
  2  4  1  0
  4  5  1  0
  5  6  1  0
  6  7  2  0
  6  8  2  0
  6  9  1  0
  9 10  2  0
 10 11  1  0
 11 12  2  0
 12 13  1  0
 13 14  2  0
 12 15  1  0
 15 16  2  0
 16 17  1  0
 17 18  2  0
 18 19  1  0
 18 20  1  0
 20 21  2  0
 20 22  1  0
 22 23  1  0
 22 24  1  0
 22 25  1  0
  4 26  1  0
 26 27  2  0
 27 28  1  0
 28 29  2  0
 29 30  1  0
 30 31  2  0
 14  9  1  0
 21 15  1  0
 31 26  1  0
  1 32  1  0
  1 33  1  0
  1 34  1  0
  2 35  1  0
  3 36  1  0
  3 37  1  0
  3 38  1  0
  4 39  1  1
  5 40  1  0
 10 41  1  0
 11 42  1  0
 13 43  1  0
 14 44  1  0
 16 45  1  0
 19 46  1  0
 19 47  1  0
 27 48  1  0
 28 49  1  0
 29 50  1  0
 30 51  1  0
 31 52  1  0
M  END
$$$$
[H]c1nc(N2C([H])([H])C([H])([H])N(C(=O)OC(C([H])([H])[H])(C([H])([H])[H])C([H])([H])[H])C([H])([H])C2([H])[H])c([H])c([H])c1-c1c([H])nc2c(c1[H])c([H])c([H])n2[H]
     RDKit          3D

 53 56  0  0  0  0  0  0  0  0999 V2000
   -7.2878   -1.0594   -0.6135 C   0  0  0  0  0  0  0  0  0  0  0  0
   -6.5834   -0.1861    0.3826 C   0  0  0  0  0  0  0  0  0  0  0  0
   -7.0895   -0.5785    1.7720 C   0  0  0  0  0  0  0  0  0  0  0  0
   -6.9590    1.2694    0.1728 C   0  0  0  0  0  0  0  0  0  0  0  0
   -5.1889   -0.3653    0.4032 O   0  0  0  0  0  0  0  0  0  0  0  0
   -4.3456   -0.1662   -0.6547 C   0  0  0  0  0  0  0  0  0  0  0  0
   -4.8301    0.2090   -1.7511 O   0  0  0  0  0  0  0  0  0  0  0  0
   -2.9407   -0.3783   -0.5239 N   0  0  0  0  0  0  0  0  0  0  0  0
   -2.0756   -0.1503   -1.6916 C   0  0  0  0  0  0  0  0  0  0  0  0
   -1.1422    0.9894   -1.2399 C   0  0  0  0  0  0  0  0  0  0  0  0
   -0.3744    0.4275   -0.1589 N   0  0  0  0  0  0  0  0  0  0  0  0
   -1.0615   -0.0355    1.0412 C   0  0  0  0  0  0  0  0  0  0  0  0
   -2.3154   -0.8036    0.6888 C   0  0  0  0  0  0  0  0  0  0  0  0
    1.0423    0.2982   -0.2216 C   0  0  0  0  0  0  0  0  0  0  0  0
    1.7696    0.5503   -1.3376 C   0  0  0  0  0  0  0  0  0  0  0  0
    3.1532    0.3975   -1.2840 C   0  0  0  0  0  0  0  0  0  0  0  0
    3.8139   -0.0000   -0.1421 C   0  0  0  0  0  0  0  0  0  0  0  0
    3.0317   -0.2426    0.9588 C   0  0  0  0  0  0  0  0  0  0  0  0
    1.7070   -0.0921    0.8935 N   0  0  0  0  0  0  0  0  0  0  0  0
    5.2544   -0.1546   -0.0997 C   0  0  0  0  0  0  0  0  0  0  0  0
    5.8469   -1.1033    0.7334 C   0  0  0  0  0  0  0  0  0  0  0  0
    7.1735   -1.2503    0.7774 N   0  0  0  0  0  0  0  0  0  0  0  0
    8.0089   -0.5005    0.0292 C   0  0  0  0  0  0  0  0  0  0  0  0
    9.3679   -0.4879   -0.0760 N   0  0  0  0  0  0  0  0  0  0  0  0
    9.7448    0.4501   -0.9659 C   0  0  0  0  0  0  0  0  0  0  0  0
    8.5704    1.0402   -1.4287 C   0  0  0  0  0  0  0  0  0  0  0  0
    7.4820    0.4551   -0.8148 C   0  0  0  0  0  0  0  0  0  0  0  0
    6.1067    0.6183   -0.8703 C   0  0  0  0  0  0  0  0  0  0  0  0
   -6.5754   -1.5635   -1.3115 H   0  0  0  0  0  0  0  0  0  0  0  0
   -7.9359   -0.4198   -1.2584 H   0  0  0  0  0  0  0  0  0  0  0  0
   -7.9440   -1.8209   -0.1197 H   0  0  0  0  0  0  0  0  0  0  0  0
   -6.3821   -1.3175    2.2219 H   0  0  0  0  0  0  0  0  0  0  0  0
   -8.0695   -1.0608    1.6993 H   0  0  0  0  0  0  0  0  0  0  0  0
   -7.0860    0.3384    2.4030 H   0  0  0  0  0  0  0  0  0  0  0  0
   -7.8499    1.5458    0.8030 H   0  0  0  0  0  0  0  0  0  0  0  0
   -6.1358    1.9622    0.4298 H   0  0  0  0  0  0  0  0  0  0  0  0
   -7.2632    1.4349   -0.8760 H   0  0  0  0  0  0  0  0  0  0  0  0
   -1.4397   -1.0431   -1.7766 H   0  0  0  0  0  0  0  0  0  0  0  0
   -2.6395    0.1118   -2.5849 H   0  0  0  0  0  0  0  0  0  0  0  0
   -0.5570    1.4077   -2.0440 H   0  0  0  0  0  0  0  0  0  0  0  0
   -1.8613    1.7616   -0.8376 H   0  0  0  0  0  0  0  0  0  0  0  0
   -0.4161   -0.7120    1.6395 H   0  0  0  0  0  0  0  0  0  0  0  0
   -1.2694    0.8655    1.6539 H   0  0  0  0  0  0  0  0  0  0  0  0
   -3.0069   -0.7169    1.5639 H   0  0  0  0  0  0  0  0  0  0  0  0
   -2.0481   -1.8861    0.5749 H   0  0  0  0  0  0  0  0  0  0  0  0
    1.2904    0.8609   -2.2573 H   0  0  0  0  0  0  0  0  0  0  0  0
    3.6876    0.6111   -2.2008 H   0  0  0  0  0  0  0  0  0  0  0  0
    3.4533   -0.5590    1.9032 H   0  0  0  0  0  0  0  0  0  0  0  0
    5.1822   -1.7036    1.3322 H   0  0  0  0  0  0  0  0  0  0  0  0
   10.0134   -1.1257    0.4671 H   0  0  0  0  0  0  0  0  0  0  0  0
   10.7679    0.6736   -1.2423 H   0  0  0  0  0  0  0  0  0  0  0  0
    8.5112    1.8365   -2.1581 H   0  0  0  0  0  0  0  0  0  0  0  0
    5.6946    1.3685   -1.5329 H   0  0  0  0  0  0  0  0  0  0  0  0
  1  2  1  0
  2  3  1  0
  2  4  1  0
  2  5  1  0
  5  6  1  0
  6  7  2  0
  6  8  1  0
  8  9  1  0
  9 10  1  0
 10 11  1  0
 11 12  1  0
 12 13  1  0
 11 14  1  0
 14 15  2  0
 15 16  1  0
 16 17  2  0
 17 18  1  0
 18 19  2  0
 17 20  1  0
 20 21  2  0
 21 22  1  0
 22 23  2  0
 23 24  1  0
 24 25  1  0
 25 26  2  0
 26 27  1  0
 27 28  2  0
 13  8  1  0
 19 14  1  0
 28 20  1  0
 27 23  1  0
  1 29  1  0
  1 30  1  0
  1 31  1  0
  3 32  1  0
  3 33  1  0
  3 34  1  0
  4 35  1  0
  4 36  1  0
  4 37  1  0
  9 38  1  0
  9 39  1  0
 10 40  1  0
 10 41  1  0
 12 42  1  0
 12 43  1  0
 13 44  1  0
 13 45  1  0
 15 46  1  0
 16 47  1  0
 18 48  1  0
 21 49  1  0
 24 50  1  0
 25 51  1  0
 26 52  1  0
 28 53  1  0
M  END
$$$$
[H]c1c([H])c([H])c(C([H])([H])[C@@]([H])(C(=O)N([H])[C@]([H])(C(=O)N([H])[C@]([H])(C(=O)N([H])[C@]([H])(C(=O)N([H])[C@]([H])(C(=O)OC(C([H])([H])[H])(C([H])([H])[H])C([H])([H])[H])C([H])([H])C([H])(C([H])([H])[H])C([H])([H])[H])C([H])([H])C([H])(C([H])([H])[H])C([H])([H])[H])C([H])([H])C([H])(C([H])([H])[H])C([H])([H])[H])C([H])([H])C([H])(C([H])([H])[H])C([H])([H])[H])N([H])C(=O)OC(C([H])([H])[H])(C([H])([H])[H])C([H])([H])[H])c([H])c1[H]
     RDKit          3D

126126  0  0  0  0  0  0  0  0999 V2000
    2.0430    3.5028   -3.5401 C   0  0  0  0  0  0  0  0  0  0  0  0
    0.8835    2.6832   -2.9772 C   0  0  0  0  0  0  0  0  0  0  0  0
    0.2766    1.9810   -4.1652 C   0  0  0  0  0  0  0  0  0  0  0  0
    1.4507    1.7519   -1.9595 C   0  0  0  0  0  0  0  0  0  0  0  0
    0.4288    0.8709   -1.2850 C   0  0  2  0  0  0  0  0  0  0  0  0
   -0.5793    1.6271   -0.5745 N   0  0  0  0  0  0  0  0  0  0  0  0
   -1.9700    1.6033   -0.8496 C   0  0  0  0  0  0  0  0  0  0  0  0
   -2.3976    0.8822   -1.7739 O   0  0  0  0  0  0  0  0  0  0  0  0
   -2.8716    2.4436   -0.0163 C   0  0  2  0  0  0  0  0  0  0  0  0
   -2.6481    1.9999    1.4155 C   0  0  0  0  0  0  0  0  0  0  0  0
   -3.4978    2.6948    2.4151 C   0  0  0  0  0  0  0  0  0  0  0  0
   -3.1566    2.1687    3.8079 C   0  0  0  0  0  0  0  0  0  0  0  0
   -3.4358    4.1859    2.4090 C   0  0  0  0  0  0  0  0  0  0  0  0
   -4.2500    2.3658   -0.4035 N   0  0  0  0  0  0  0  0  0  0  0  0
   -5.0635    1.2341   -0.3486 C   0  0  0  0  0  0  0  0  0  0  0  0
   -4.5526    0.1324    0.0492 O   0  0  0  0  0  0  0  0  0  0  0  0
   -6.5174    1.1880   -0.7096 C   0  0  2  0  0  0  0  0  0  0  0  0
   -7.0977    2.3551    0.1655 C   0  0  0  0  0  0  0  0  0  0  0  0
   -8.5279    2.5166    0.0051 C   0  0  0  0  0  0  0  0  0  0  0  0
   -9.0284    3.0904   -1.1323 C   0  0  0  0  0  0  0  0  0  0  0  0
  -10.4025    3.3241   -1.2748 C   0  0  0  0  0  0  0  0  0  0  0  0
  -11.2629    2.9727   -0.2507 C   0  0  0  0  0  0  0  0  0  0  0  0
  -10.7702    2.4029    0.8852 C   0  0  0  0  0  0  0  0  0  0  0  0
   -9.4059    2.1763    1.0093 C   0  0  0  0  0  0  0  0  0  0  0  0
   -7.0450   -0.0414   -0.4239 N   0  0  0  0  0  0  0  0  0  0  0  0
   -7.5808   -1.2692   -0.1382 C   0  0  0  0  0  0  0  0  0  0  0  0
   -8.7738   -1.5667    0.0332 O   0  0  0  0  0  0  0  0  0  0  0  0
   -6.6982   -2.4030   -0.0182 O   0  0  0  0  0  0  0  0  0  0  0  0
   -7.2457   -3.6690    0.3069 C   0  0  0  0  0  0  0  0  0  0  0  0
   -8.4088   -4.0037   -0.6172 C   0  0  0  0  0  0  0  0  0  0  0  0
   -6.1945   -4.7577    0.0148 C   0  0  0  0  0  0  0  0  0  0  0  0
   -7.6005   -3.8037    1.7644 C   0  0  0  0  0  0  0  0  0  0  0  0
    1.1367   -0.0574   -0.3480 C   0  0  0  0  0  0  0  0  0  0  0  0
    0.6821   -0.1160    0.8401 O   0  0  0  0  0  0  0  0  0  0  0  0
    2.2342   -0.8548   -0.6506 N   0  0  0  0  0  0  0  0  0  0  0  0
    2.8746   -1.7667    0.3469 C   0  0  1  0  0  0  0  0  0  0  0  0
    2.8397   -3.1035   -0.2353 C   0  0  0  0  0  0  0  0  0  0  0  0
    3.3447   -4.2668    0.5435 C   0  0  0  0  0  0  0  0  0  0  0  0
    3.1302   -5.4965   -0.3678 C   0  0  0  0  0  0  0  0  0  0  0  0
    2.5684   -4.4513    1.8438 C   0  0  0  0  0  0  0  0  0  0  0  0
    4.1009   -1.1055    0.7255 C   0  0  0  0  0  0  0  0  0  0  0  0
    3.9966    0.1864    0.9977 O   0  0  0  0  0  0  0  0  0  0  0  0
    5.4193   -1.5580    0.8659 N   0  0  0  0  0  0  0  0  0  0  0  0
    6.4916   -0.6519    1.2996 C   0  0  1  0  0  0  0  0  0  0  0  0
    7.4829   -1.2502    2.2005 C   0  0  0  0  0  0  0  0  0  0  0  0
    8.2499   -2.4332    1.7526 C   0  0  0  0  0  0  0  0  0  0  0  0
    9.1901   -2.8379    2.8985 C   0  0  0  0  0  0  0  0  0  0  0  0
    9.1063   -2.2808    0.5425 C   0  0  0  0  0  0  0  0  0  0  0  0
    7.1140    0.0611    0.1581 C   0  0  0  0  0  0  0  0  0  0  0  0
    6.7550   -0.1318   -1.0272 O   0  0  0  0  0  0  0  0  0  0  0  0
    8.1243    0.9900    0.3467 O   0  0  0  0  0  0  0  0  0  0  0  0
    8.7633    1.7431   -0.6205 C   0  0  0  0  0  0  0  0  0  0  0  0
    9.8031    2.6001    0.1045 C   0  0  0  0  0  0  0  0  0  0  0  0
    9.4570    0.9922   -1.7087 C   0  0  0  0  0  0  0  0  0  0  0  0
    7.7388    2.7035   -1.2492 C   0  0  0  0  0  0  0  0  0  0  0  0
    1.5937    4.0550   -4.4130 H   0  0  0  0  0  0  0  0  0  0  0  0
    2.9004    2.8689   -3.8325 H   0  0  0  0  0  0  0  0  0  0  0  0
    2.2936    4.2910   -2.8201 H   0  0  0  0  0  0  0  0  0  0  0  0
    0.1618    3.3893   -2.5538 H   0  0  0  0  0  0  0  0  0  0  0  0
    1.0269    1.2263   -4.5010 H   0  0  0  0  0  0  0  0  0  0  0  0
   -0.7042    1.5655   -3.9581 H   0  0  0  0  0  0  0  0  0  0  0  0
    0.1641    2.7486   -4.9715 H   0  0  0  0  0  0  0  0  0  0  0  0
    1.9642    2.3834   -1.1814 H   0  0  0  0  0  0  0  0  0  0  0  0
    2.1902    1.0905   -2.4686 H   0  0  0  0  0  0  0  0  0  0  0  0
   -0.0499    0.2615   -2.1113 H   0  0  0  0  0  0  0  0  0  0  0  0
   -0.2373    2.2390    0.1905 H   0  0  0  0  0  0  0  0  0  0  0  0
   -2.4822    3.4974   -0.1018 H   0  0  0  0  0  0  0  0  0  0  0  0
   -2.7835    0.9126    1.4955 H   0  0  0  0  0  0  0  0  0  0  0  0
   -1.5764    2.1571    1.7080 H   0  0  0  0  0  0  0  0  0  0  0  0
   -4.5728    2.4132    2.2455 H   0  0  0  0  0  0  0  0  0  0  0  0
   -3.3500    2.9325    4.5652 H   0  0  0  0  0  0  0  0  0  0  0  0
   -2.0777    1.8468    3.8340 H   0  0  0  0  0  0  0  0  0  0  0  0
   -3.7422    1.2327    3.9488 H   0  0  0  0  0  0  0  0  0  0  0  0
   -4.0092    4.5289    1.4994 H   0  0  0  0  0  0  0  0  0  0  0  0
   -2.4313    4.6093    2.4910 H   0  0  0  0  0  0  0  0  0  0  0  0
   -4.0734    4.5670    3.2584 H   0  0  0  0  0  0  0  0  0  0  0  0
   -4.6903    3.2554   -0.7760 H   0  0  0  0  0  0  0  0  0  0  0  0
   -6.6838    1.5480   -1.7747 H   0  0  0  0  0  0  0  0  0  0  0  0
   -6.5560    3.2869   -0.1272 H   0  0  0  0  0  0  0  0  0  0  0  0
   -6.8047    2.0897    1.2000 H   0  0  0  0  0  0  0  0  0  0  0  0
   -8.3901    3.3981   -1.9853 H   0  0  0  0  0  0  0  0  0  0  0  0
  -10.8315    3.7741   -2.1636 H   0  0  0  0  0  0  0  0  0  0  0  0
  -12.3283    3.1242   -0.2985 H   0  0  0  0  0  0  0  0  0  0  0  0
  -11.4038    2.1159    1.7152 H   0  0  0  0  0  0  0  0  0  0  0  0
   -9.0545    1.7180    1.9353 H   0  0  0  0  0  0  0  0  0  0  0  0
   -8.3051    0.4836   -0.6505 H   0  0  0  0  0  0  0  0  0  0  0  0
   -8.4398   -3.4004   -1.5351 H   0  0  0  0  0  0  0  0  0  0  0  0
   -9.3636   -3.9438   -0.0065 H   0  0  0  0  0  0  0  0  0  0  0  0
   -8.3895   -5.0660   -0.9607 H   0  0  0  0  0  0  0  0  0  0  0  0
   -6.0188   -5.4078    0.8934 H   0  0  0  0  0  0  0  0  0  0  0  0
   -6.5963   -5.3935   -0.7973 H   0  0  0  0  0  0  0  0  0  0  0  0
   -5.2606   -4.2713   -0.3569 H   0  0  0  0  0  0  0  0  0  0  0  0
   -6.6690   -3.8039    2.3634 H   0  0  0  0  0  0  0  0  0  0  0  0
   -8.0812   -4.7917    1.8898 H   0  0  0  0  0  0  0  0  0  0  0  0
   -8.3054   -3.0161    2.0938 H   0  0  0  0  0  0  0  0  0  0  0  0
    2.6459   -0.8279   -1.6173 H   0  0  0  0  0  0  0  0  0  0  0  0
    2.1978   -1.6942    1.2735 H   0  0  0  0  0  0  0  0  0  0  0  0
    1.7865   -3.4022   -0.5538 H   0  0  0  0  0  0  0  0  0  0  0  0
    3.4195   -3.1021   -1.2049 H   0  0  0  0  0  0  0  0  0  0  0  0
    4.3922   -4.2427    0.7839 H   0  0  0  0  0  0  0  0  0  0  0  0
    3.0727   -5.1835   -1.4186 H   0  0  0  0  0  0  0  0  0  0  0  0
    3.9820   -6.1854   -0.2298 H   0  0  0  0  0  0  0  0  0  0  0  0
    2.1841   -5.9712    0.0021 H   0  0  0  0  0  0  0  0  0  0  0  0
    1.7591   -5.1826    1.6551 H   0  0  0  0  0  0  0  0  0  0  0  0
    3.2247   -4.8746    2.6479 H   0  0  0  0  0  0  0  0  0  0  0  0
    2.1704   -3.4748    2.2326 H   0  0  0  0  0  0  0  0  0  0  0  0
    5.7035   -2.5138    0.6700 H   0  0  0  0  0  0  0  0  0  0  0  0
    5.9573    0.2227    1.8579 H   0  0  0  0  0  0  0  0  0  0  0  0
    8.2375   -0.4873    2.5729 H   0  0  0  0  0  0  0  0  0  0  0  0
    6.9718   -1.5578    3.1744 H   0  0  0  0  0  0  0  0  0  0  0  0
    7.5321   -3.2743    1.5945 H   0  0  0  0  0  0  0  0  0  0  0  0
    9.7209   -3.7741    2.6194 H   0  0  0  0  0  0  0  0  0  0  0  0
    8.5787   -3.1261    3.7908 H   0  0  0  0  0  0  0  0  0  0  0  0
    9.9378   -2.0576    3.0825 H   0  0  0  0  0  0  0  0  0  0  0  0
    9.8600   -1.4578    0.6308 H   0  0  0  0  0  0  0  0  0  0  0  0
    9.7572   -3.2086    0.4129 H   0  0  0  0  0  0  0  0  0  0  0  0
    8.5305   -2.2266   -0.4009 H   0  0  0  0  0  0  0  0  0  0  0  0
   10.5130    1.9056    0.6251 H   0  0  0  0  0  0  0  0  0  0  0  0
   10.3870    3.2268   -0.5727 H   0  0  0  0  0  0  0  0  0  0  0  0
    9.2433    3.1407    0.8971 H   0  0  0  0  0  0  0  0  0  0  0  0
   10.2812    1.6348   -2.1436 H   0  0  0  0  0  0  0  0  0  0  0  0
    8.7549    0.7405   -2.5317 H   0  0  0  0  0  0  0  0  0  0  0  0
    9.9468    0.1032   -1.2818 H   0  0  0  0  0  0  0  0  0  0  0  0
    8.2901    3.4345   -1.8627 H   0  0  0  0  0  0  0  0  0  0  0  0
    7.0714    2.1251   -1.8984 H   0  0  0  0  0  0  0  0  0  0  0  0
    7.1544    3.2217   -0.4881 H   0  0  0  0  0  0  0  0  0  0  0  0
  1  2  1  0
  2  3  1  0
  2  4  1  0
  4  5  1  0
  5  6  1  0
  6  7  1  0
  7  8  2  0
  7  9  1  0
  9 10  1  0
 10 11  1  0
 11 12  1  0
 11 13  1  0
  9 14  1  0
 14 15  1  0
 15 16  2  0
 15 17  1  0
 17 18  1  0
 18 19  1  0
 19 20  2  0
 20 21  1  0
 21 22  2  0
 22 23  1  0
 23 24  2  0
 17 25  1  0
 25 26  1  0
 26 27  2  0
 26 28  1  0
 28 29  1  0
 29 30  1  0
 29 31  1  0
 29 32  1  0
  5 33  1  0
 33 34  2  0
 33 35  1  0
 35 36  1  0
 36 37  1  0
 37 38  1  0
 38 39  1  0
 38 40  1  0
 36 41  1  0
 41 42  2  0
 41 43  1  0
 43 44  1  0
 44 45  1  0
 45 46  1  0
 46 47  1  0
 46 48  1  0
 44 49  1  0
 49 50  2  0
 49 51  1  0
 51 52  1  0
 52 53  1  0
 52 54  1  0
 52 55  1  0
 24 19  1  0
  1 56  1  0
  1 57  1  0
  1 58  1  0
  2 59  1  0
  3 60  1  0
  3 61  1  0
  3 62  1  0
  4 63  1  0
  4 64  1  0
  5 65  1  6
  6 66  1  0
  9 67  1  1
 10 68  1  0
 10 69  1  0
 11 70  1  0
 12 71  1  0
 12 72  1  0
 12 73  1  0
 13 74  1  0
 13 75  1  0
 13 76  1  0
 14 77  1  0
 17 78  1  6
 18 79  1  0
 18 80  1  0
 20 81  1  0
 21 82  1  0
 22 83  1  0
 23 84  1  0
 24 85  1  0
 25 86  1  0
 30 87  1  0
 30 88  1  0
 30 89  1  0
 31 90  1  0
 31 91  1  0
 31 92  1  0
 32 93  1  0
 32 94  1  0
 32 95  1  0
 35 96  1  0
 36 97  1  1
 37 98  1  0
 37 99  1  0
 38100  1  0
 39101  1  0
 39102  1  0
 39103  1  0
 40104  1  0
 40105  1  0
 40106  1  0
 43107  1  0
 44108  1  1
 45109  1  0
 45110  1  0
 46111  1  0
 47112  1  0
 47113  1  0
 47114  1  0
 48115  1  0
 48116  1  0
 48117  1  0
 53118  1  0
 53119  1  0
 53120  1  0
 54121  1  0
 54122  1  0
 54123  1  0
 55124  1  0
 55125  1  0
 55126  1  0
M  END
$$$$
[H]OC(=O)c1c([H])c([H])c([H])c(C(=O)N([H])[C@]([H])(c2c([H])c([H])c(OC([H])([H])[H])c(OC([H])([H])[H])c2[H])C([H])([H])c2c([H])n([H])c3c([H])c([H])c([H])c([H])c23)c1[H]
     RDKit          3D

 57 60  0  0  0  0  0  0  0  0999 V2000
    4.5860   -3.4046    0.9897 C   0  0  0  0  0  0  0  0  0  0  0  0
    3.4869   -2.8044    1.6298 O   0  0  0  0  0  0  0  0  0  0  0  0
    2.6299   -1.9293    1.0072 C   0  0  0  0  0  0  0  0  0  0  0  0
    2.7269   -1.5340   -0.3085 C   0  0  0  0  0  0  0  0  0  0  0  0
    1.8006   -0.6409   -0.8442 C   0  0  0  0  0  0  0  0  0  0  0  0
    0.7772   -0.1341   -0.0896 C   0  0  0  0  0  0  0  0  0  0  0  0
    0.6611   -0.5143    1.2289 C   0  0  0  0  0  0  0  0  0  0  0  0
    1.5768   -1.3966    1.7594 C   0  0  0  0  0  0  0  0  0  0  0  0
    1.4804   -1.7910    3.0754 O   0  0  0  0  0  0  0  0  0  0  0  0
    0.4470   -1.2907    3.8827 C   0  0  0  0  0  0  0  0  0  0  0  0
   -0.2197    0.8447   -0.6726 C   0  0  2  0  0  0  0  0  0  0  0  0
   -0.0599    2.1923   -0.1041 C   0  0  0  0  0  0  0  0  0  0  0  0
    1.1911    2.8891   -0.3133 C   0  0  0  0  0  0  0  0  0  0  0  0
    2.3008    2.8489    0.4867 C   0  0  0  0  0  0  0  0  0  0  0  0
    3.2808    3.5695   -0.0393 N   0  0  0  0  0  0  0  0  0  0  0  0
    2.8819    4.1201   -1.1975 C   0  0  0  0  0  0  0  0  0  0  0  0
    3.5159    4.9526   -2.1095 C   0  0  0  0  0  0  0  0  0  0  0  0
    2.8645    5.3971   -3.2343 C   0  0  0  0  0  0  0  0  0  0  0  0
    1.5441    4.9760   -3.4213 C   0  0  0  0  0  0  0  0  0  0  0  0
    0.9184    4.1466   -2.5072 C   0  0  0  0  0  0  0  0  0  0  0  0
    1.5758    3.6984   -1.3737 C   0  0  0  0  0  0  0  0  0  0  0  0
   -1.5150    0.3247   -0.2747 N   0  0  0  0  0  0  0  0  0  0  0  0
   -1.8913   -0.9405   -0.8066 C   0  0  0  0  0  0  0  0  0  0  0  0
   -1.1311   -1.6051   -1.5710 O   0  0  0  0  0  0  0  0  0  0  0  0
   -3.1844   -1.5639   -0.5184 C   0  0  0  0  0  0  0  0  0  0  0  0
   -4.3134   -1.0421   -1.1554 C   0  0  0  0  0  0  0  0  0  0  0  0
   -5.5625   -1.5769   -0.9348 C   0  0  0  0  0  0  0  0  0  0  0  0
   -5.7265   -2.6416   -0.0805 C   0  0  0  0  0  0  0  0  0  0  0  0
   -4.6273   -3.1785    0.5670 C   0  0  0  0  0  0  0  0  0  0  0  0
   -3.3675   -2.6225    0.3313 C   0  0  0  0  0  0  0  0  0  0  0  0
   -4.7561   -4.2907    1.4845 C   0  0  0  0  0  0  0  0  0  0  0  0
   -6.0016   -4.8327    1.7232 O   0  0  0  0  0  0  0  0  0  0  0  0
   -3.7365   -4.7758    2.0745 O   0  0  0  0  0  0  0  0  0  0  0  0
    5.1249   -2.7038    0.2920 H   0  0  0  0  0  0  0  0  0  0  0  0
    4.3291   -4.2951    0.3874 H   0  0  0  0  0  0  0  0  0  0  0  0
    5.3044   -3.6916    1.8108 H   0  0  0  0  0  0  0  0  0  0  0  0
    3.5370   -1.9382   -0.9029 H   0  0  0  0  0  0  0  0  0  0  0  0
    1.9250   -0.3723   -1.8789 H   0  0  0  0  0  0  0  0  0  0  0  0
   -0.1157   -0.1485    1.8522 H   0  0  0  0  0  0  0  0  0  0  0  0
    0.6941   -1.5510    4.9469 H   0  0  0  0  0  0  0  0  0  0  0  0
    0.3091   -0.1928    3.8303 H   0  0  0  0  0  0  0  0  0  0  0  0
   -0.5495   -1.7573    3.6683 H   0  0  0  0  0  0  0  0  0  0  0  0
   -0.0902    0.6983   -1.7543 H   0  0  0  0  0  0  0  0  0  0  0  0
   -0.2933    2.1191    0.9950 H   0  0  0  0  0  0  0  0  0  0  0  0
   -0.9059    2.8345   -0.4948 H   0  0  0  0  0  0  0  0  0  0  0  0
    2.3560    2.2883    1.4252 H   0  0  0  0  0  0  0  0  0  0  0  0
    4.2419    3.6977    0.3823 H   0  0  0  0  0  0  0  0  0  0  0  0
    4.5408    5.2675   -1.9417 H   0  0  0  0  0  0  0  0  0  0  0  0
    3.3440    6.0529   -3.9665 H   0  0  0  0  0  0  0  0  0  0  0  0
    1.0080    5.3083   -4.2900 H   0  0  0  0  0  0  0  0  0  0  0  0
   -0.1030    3.8408   -2.6721 H   0  0  0  0  0  0  0  0  0  0  0  0
   -2.1552    0.8422    0.3607 H   0  0  0  0  0  0  0  0  0  0  0  0
   -4.1601   -0.2034   -1.8275 H   0  0  0  0  0  0  0  0  0  0  0  0
   -6.4580   -1.1663   -1.4329 H   0  0  0  0  0  0  0  0  0  0  0  0
   -6.7202   -3.0462    0.0636 H   0  0  0  0  0  0  0  0  0  0  0  0
   -2.4758   -3.0223    0.8254 H   0  0  0  0  0  0  0  0  0  0  0  0
   -6.8406   -4.3101    1.6381 H   0  0  0  0  0  0  0  0  0  0  0  0
  1  2  1  0
  2  3  1  0
  3  4  2  0
  4  5  1  0
  5  6  2  0
  6  7  1  0
  7  8  2  0
  8  9  1  0
  9 10  1  0
  6 11  1  0
 11 12  1  0
 12 13  1  0
 13 14  2  0
 14 15  1  0
 15 16  1  0
 16 17  2  0
 17 18  1  0
 18 19  2  0
 19 20  1  0
 20 21  2  0
 11 22  1  0
 22 23  1  0
 23 24  2  0
 23 25  1  0
 25 26  2  0
 26 27  1  0
 27 28  2  0
 28 29  1  0
 29 30  2  0
 29 31  1  0
 31 32  1  0
 31 33  2  0
  8  3  1  0
 21 13  1  0
 30 25  1  0
 21 16  1  0
  1 34  1  0
  1 35  1  0
  1 36  1  0
  4 37  1  0
  5 38  1  0
  7 39  1  0
 10 40  1  0
 10 41  1  0
 10 42  1  0
 11 43  1  6
 12 44  1  0
 12 45  1  0
 14 46  1  0
 15 47  1  0
 17 48  1  0
 18 49  1  0
 19 50  1  0
 20 51  1  0
 22 52  1  0
 26 53  1  0
 27 54  1  0
 28 55  1  0
 30 56  1  0
 32 57  1  0
M  END
$$$$
[H]c1c([H])c([H])c(C([H])([H])OC(=O)N([H])[C@@]([H])(C(=O)N([H])[C@]([H])(C(=O)N([H])[C@]([H])(C(=O)N([H])[C@]([H])(C(=O)N([H])[C@]([H])(C(=O)N([H])[H])C([H])([H])c2c([H])c([H])c([H])c([H])c2[H])C([H])([H])C([H])(C([H])([H])[H])C([H])([H])[H])C([H])([H])c2c([H])n([H])c3c([H])c([H])c([H])c([H])c23)C([H])(C([H])([H])[H])C([H])([H])[H])C([H])([H])c2c([H])c([H])c([H])c([H])c2[H])c([H])c1[H]
     RDKit          3D

119123  0  0  0  0  0  0  0  0999 V2000
    2.3390    1.5422   -1.2738 C   0  0  0  0  0  0  0  0  0  0  0  0
    2.5365    0.0953   -1.0778 C   0  0  0  0  0  0  0  0  0  0  0  0
    2.1932   -0.6494   -2.3419 C   0  0  0  0  0  0  0  0  0  0  0  0
    1.6216   -0.4730    0.0881 C   0  0  2  0  0  0  0  0  0  0  0  0
    2.0408   -1.8539    0.0993 N   0  0  0  0  0  0  0  0  0  0  0  0
    3.2272   -2.1912    0.6947 C   0  0  0  0  0  0  0  0  0  0  0  0
    3.7978   -1.0399    1.2425 O   0  0  0  0  0  0  0  0  0  0  0  0
    4.1328   -3.3091    0.9602 C   0  0  1  0  0  0  0  0  0  0  0  0
    4.0685   -4.2545   -0.1746 C   0  0  0  0  0  0  0  0  0  0  0  0
    4.9371   -5.4575   -0.1164 C   0  0  0  0  0  0  0  0  0  0  0  0
    4.5472   -6.6371    0.4413 C   0  0  0  0  0  0  0  0  0  0  0  0
    5.4382   -7.7627    0.3290 C   0  0  0  0  0  0  0  0  0  0  0  0
    6.6120   -7.5793   -0.3234 C   0  0  0  0  0  0  0  0  0  0  0  0
    7.0096   -6.4227   -0.8713 C   0  0  0  0  0  0  0  0  0  0  0  0
    6.1358   -5.3079   -0.7664 C   0  0  0  0  0  0  0  0  0  0  0  0
    5.4472   -2.7145    1.1150 N   0  0  0  0  0  0  0  0  0  0  0  0
    6.5865   -3.0664    1.8122 C   0  0  0  0  0  0  0  0  0  0  0  0
    6.9715   -3.9835    2.4752 O   0  0  0  0  0  0  0  0  0  0  0  0
    7.6173   -1.9882    1.7454 O   0  0  0  0  0  0  0  0  0  0  0  0
    8.8393   -2.0729    2.4033 C   0  0  0  0  0  0  0  0  0  0  0  0
    9.4681   -0.6933    2.1563 C   0  0  0  0  0  0  0  0  0  0  0  0
    8.9176    0.3440    2.8994 C   0  0  0  0  0  0  0  0  0  0  0  0
    9.4139    1.6631    2.7258 C   0  0  0  0  0  0  0  0  0  0  0  0
   10.4170    1.8295    1.8292 C   0  0  0  0  0  0  0  0  0  0  0  0
   10.9599    0.8086    1.0955 C   0  0  0  0  0  0  0  0  0  0  0  0
   10.4574   -0.5094    1.2756 C   0  0  0  0  0  0  0  0  0  0  0  0
    0.2421   -0.1862   -0.4659 C   0  0  0  0  0  0  0  0  0  0  0  0
   -0.1141   -1.1246   -1.2620 O   0  0  0  0  0  0  0  0  0  0  0  0
   -0.3900    0.8730   -0.1274 N   0  0  0  0  0  0  0  0  0  0  0  0
   -1.1516    2.0777    0.2340 C   0  0  1  0  0  0  0  0  0  0  0  0
   -0.9171    3.2698   -0.5468 C   0  0  0  0  0  0  0  0  0  0  0  0
   -1.1534    3.3471   -1.9703 C   0  0  0  0  0  0  0  0  0  0  0  0
   -1.5884    2.5402   -2.9669 C   0  0  0  0  0  0  0  0  0  0  0  0
   -1.6663    3.1956   -4.1150 N   0  0  0  0  0  0  0  0  0  0  0  0
   -1.2750    4.4845   -3.9319 C   0  0  0  0  0  0  0  0  0  0  0  0
   -1.1803    5.5759   -4.7801 C   0  0  0  0  0  0  0  0  0  0  0  0
   -0.7490    6.7905   -4.3047 C   0  0  0  0  0  0  0  0  0  0  0  0
   -0.4056    6.9472   -3.0002 C   0  0  0  0  0  0  0  0  0  0  0  0
   -0.5131    5.8293   -2.1623 C   0  0  0  0  0  0  0  0  0  0  0  0
   -0.9461    4.6040   -2.6061 C   0  0  0  0  0  0  0  0  0  0  0  0
   -2.5468    1.8079    0.5434 C   0  0  0  0  0  0  0  0  0  0  0  0
   -2.8891    0.5690    0.5945 O   0  0  0  0  0  0  0  0  0  0  0  0
   -3.5759    2.7583    0.7888 N   0  0  0  0  0  0  0  0  0  0  0  0
   -4.9282    2.2417    1.0477 C   0  0  1  0  0  0  0  0  0  0  0  0
   -5.9545    3.2991    1.0717 C   0  0  0  0  0  0  0  0  0  0  0  0
   -5.8645    4.3545    2.1355 C   0  0  0  0  0  0  0  0  0  0  0  0
   -5.9792    3.6435    3.4803 C   0  0  0  0  0  0  0  0  0  0  0  0
   -7.0519    5.2568    1.9682 C   0  0  0  0  0  0  0  0  0  0  0  0
   -5.2329    1.3852   -0.2014 C   0  0  0  0  0  0  0  0  0  0  0  0
   -4.9248    1.8698   -1.3153 O   0  0  0  0  0  0  0  0  0  0  0  0
   -5.8267    0.1324    0.0115 N   0  0  0  0  0  0  0  0  0  0  0  0
   -6.1085   -0.7189   -1.1793 C   0  0  1  0  0  0  0  0  0  0  0  0
   -5.5594   -2.0778   -0.9652 C   0  0  0  0  0  0  0  0  0  0  0  0
   -6.1412   -2.8018    0.1977 C   0  0  0  0  0  0  0  0  0  0  0  0
   -5.6077   -2.6685    1.4974 C   0  0  0  0  0  0  0  0  0  0  0  0
   -6.2099   -3.3230    2.5356 C   0  0  0  0  0  0  0  0  0  0  0  0
   -7.3150   -4.1032    2.3668 C   0  0  0  0  0  0  0  0  0  0  0  0
   -7.8287   -4.2303    1.1034 C   0  0  0  0  0  0  0  0  0  0  0  0
   -7.2339   -3.5740    0.0259 C   0  0  0  0  0  0  0  0  0  0  0  0
   -7.6051   -0.7034   -1.3270 C   0  0  0  0  0  0  0  0  0  0  0  0
   -8.2071   -1.2509   -2.4787 N   0  0  0  0  0  0  0  0  0  0  0  0
   -8.3316   -0.1884   -0.4234 O   0  0  0  0  0  0  0  0  0  0  0  0
    3.3129    2.0674   -1.4598 H   0  0  0  0  0  0  0  0  0  0  0  0
    1.9680    2.0010   -0.3085 H   0  0  0  0  0  0  0  0  0  0  0  0
    1.5963    1.8122   -2.0307 H   0  0  0  0  0  0  0  0  0  0  0  0
    3.5583   -0.1375   -0.8130 H   0  0  0  0  0  0  0  0  0  0  0  0
    3.0680   -0.5126   -3.0406 H   0  0  0  0  0  0  0  0  0  0  0  0
    2.0860   -1.7235   -2.2046 H   0  0  0  0  0  0  0  0  0  0  0  0
    1.3546   -0.1625   -2.9266 H   0  0  0  0  0  0  0  0  0  0  0  0
    1.9189    0.0749    0.9374 H   0  0  0  0  0  0  0  0  0  0  0  0
    1.3919   -2.5537   -0.3543 H   0  0  0  0  0  0  0  0  0  0  0  0
    3.9433   -3.8386    1.9357 H   0  0  0  0  0  0  0  0  0  0  0  0
    4.1551   -3.8010   -1.1778 H   0  0  0  0  0  0  0  0  0  0  0  0
    3.0118   -4.7048   -0.2000 H   0  0  0  0  0  0  0  0  0  0  0  0
    3.6432   -6.8040    0.9581 H   0  0  0  0  0  0  0  0  0  0  0  0
    5.1569   -8.6962    0.7399 H   0  0  0  0  0  0  0  0  0  0  0  0
    7.3007   -8.4782   -0.4274 H   0  0  0  0  0  0  0  0  0  0  0  0
    7.9476   -6.3574   -1.3838 H   0  0  0  0  0  0  0  0  0  0  0  0
    6.4763   -4.3950   -1.2121 H   0  0  0  0  0  0  0  0  0  0  0  0
    5.5247   -1.8053    0.5184 H   0  0  0  0  0  0  0  0  0  0  0  0
    8.6820   -2.1349    3.5188 H   0  0  0  0  0  0  0  0  0  0  0  0
    9.5175   -2.8381    2.0610 H   0  0  0  0  0  0  0  0  0  0  0  0
    8.1258    0.1852    3.6037 H   0  0  0  0  0  0  0  0  0  0  0  0
    9.0043    2.4615    3.2807 H   0  0  0  0  0  0  0  0  0  0  0  0
   10.8365    2.8539    1.6696 H   0  0  0  0  0  0  0  0  0  0  0  0
   11.7505    0.9646    0.3875 H   0  0  0  0  0  0  0  0  0  0  0  0
   10.9265   -1.2672    0.6662 H   0  0  0  0  0  0  0  0  0  0  0  0
   -1.4932    0.4805   -0.8157 H   0  0  0  0  0  0  0  0  0  0  0  0
   -0.6411    2.2931    1.2808 H   0  0  0  0  0  0  0  0  0  0  0  0
   -1.5171    4.1192   -0.0392 H   0  0  0  0  0  0  0  0  0  0  0  0
    0.1444    3.6417   -0.3680 H   0  0  0  0  0  0  0  0  0  0  0  0
   -1.8360    1.4899   -2.8376 H   0  0  0  0  0  0  0  0  0  0  0  0
   -1.9618    2.8747   -5.0602 H   0  0  0  0  0  0  0  0  0  0  0  0
   -1.4293    5.4586   -5.8019 H   0  0  0  0  0  0  0  0  0  0  0  0
   -0.6839    7.6575   -4.9964 H   0  0  0  0  0  0  0  0  0  0  0  0
   -0.0739    7.8673   -2.5818 H   0  0  0  0  0  0  0  0  0  0  0  0
   -0.2321    5.9528   -1.1237 H   0  0  0  0  0  0  0  0  0  0  0  0
   -3.4055    3.7448    0.8156 H   0  0  0  0  0  0  0  0  0  0  0  0
   -4.9151    1.5660    1.8749 H   0  0  0  0  0  0  0  0  0  0  0  0
   -6.9850    2.9255    0.8640 H   0  0  0  0  0  0  0  0  0  0  0  0
   -5.7475    3.9026    0.0842 H   0  0  0  0  0  0  0  0  0  0  0  0
   -4.9379    4.9398    2.0220 H   0  0  0  0  0  0  0  0  0  0  0  0
   -5.0197    3.1548    3.6594 H   0  0  0  0  0  0  0  0  0  0  0  0
   -6.8173    2.9144    3.3658 H   0  0  0  0  0  0  0  0  0  0  0  0
   -6.2583    4.3651    4.2526 H   0  0  0  0  0  0  0  0  0  0  0  0
   -7.3489    5.4245    0.9040 H   0  0  0  0  0  0  0  0  0  0  0  0
   -6.8844    6.2707    2.4231 H   0  0  0  0  0  0  0  0  0  0  0  0
   -7.9623    4.8335    2.4794 H   0  0  0  0  0  0  0  0  0  0  0  0
   -6.0551   -0.1983    0.9439 H   0  0  0  0  0  0  0  0  0  0  0  0
   -5.6230   -0.2512   -2.0369 H   0  0  0  0  0  0  0  0  0  0  0  0
   -5.4670   -2.7239   -1.8377 H   0  0  0  0  0  0  0  0  0  0  0  0
   -4.4793   -1.8976   -0.6125 H   0  0  0  0  0  0  0  0  0  0  0  0
   -4.7236   -2.0350    1.6039 H   0  0  0  0  0  0  0  0  0  0  0  0
   -5.7778   -3.1882    3.5299 H   0  0  0  0  0  0  0  0  0  0  0  0
   -7.8095   -4.6083    3.2162 H   0  0  0  0  0  0  0  0  0  0  0  0
   -8.7261   -4.8294    0.8986 H   0  0  0  0  0  0  0  0  0  0  0  0
   -7.7183   -3.7653   -0.9540 H   0  0  0  0  0  0  0  0  0  0  0  0
   -8.6257   -0.5662   -3.1571 H   0  0  0  0  0  0  0  0  0  0  0  0
   -8.2484   -2.2418   -2.6481 H   0  0  0  0  0  0  0  0  0  0  0  0
  1  2  1  0
  2  3  1  0
  2  4  1  0
  4  5  1  0
  5  6  1  0
  6  7  2  0
  6  8  1  0
  8  9  1  0
  9 10  1  0
 10 11  2  0
 11 12  1  0
 12 13  2  0
 13 14  1  0
 14 15  2  0
  8 16  1  0
 16 17  1  0
 17 18  2  0
 17 19  1  0
 19 20  1  0
 20 21  1  0
 21 22  2  0
 22 23  1  0
 23 24  2  0
 24 25  1  0
 25 26  2  0
  4 27  1  0
 27 28  2  0
 27 29  1  0
 29 30  1  0
 30 31  1  0
 31 32  1  0
 32 33  2  0
 33 34  1  0
 34 35  1  0
 35 36  2  0
 36 37  1  0
 37 38  2  0
 38 39  1  0
 39 40  2  0
 30 41  1  0
 41 42  2  0
 41 43  1  0
 43 44  1  0
 44 45  1  0
 45 46  1  0
 46 47  1  0
 46 48  1  0
 44 49  1  0
 49 50  2  0
 49 51  1  0
 51 52  1  0
 52 53  1  0
 53 54  1  0
 54 55  2  0
 55 56  1  0
 56 57  2  0
 57 58  1  0
 58 59  2  0
 52 60  1  0
 60 61  1  0
 60 62  2  0
 15 10  1  0
 26 21  1  0
 40 32  1  0
 59 54  1  0
 40 35  1  0
  1 63  1  0
  1 64  1  0
  1 65  1  0
  2 66  1  0
  3 67  1  0
  3 68  1  0
  3 69  1  0
  4 70  1  1
  5 71  1  0
  8 72  1  1
  9 73  1  0
  9 74  1  0
 11 75  1  0
 12 76  1  0
 13 77  1  0
 14 78  1  0
 15 79  1  0
 16 80  1  0
 20 81  1  0
 20 82  1  0
 22 83  1  0
 23 84  1  0
 24 85  1  0
 25 86  1  0
 26 87  1  0
 29 88  1  0
 30 89  1  1
 31 90  1  0
 31 91  1  0
 33 92  1  0
 34 93  1  0
 36 94  1  0
 37 95  1  0
 38 96  1  0
 39 97  1  0
 43 98  1  0
 44 99  1  1
 45100  1  0
 45101  1  0
 46102  1  0
 47103  1  0
 47104  1  0
 47105  1  0
 48106  1  0
 48107  1  0
 48108  1  0
 51109  1  0
 52110  1  6
 53111  1  0
 53112  1  0
 55113  1  0
 56114  1  0
 57115  1  0
 58116  1  0
 59117  1  0
 61118  1  0
 61119  1  0
M  END
$$$$
[H]OC(=O)[C@@]([H])(N([H])C(=O)[C@@]([H])(N([H])C(=O)[C@@]([H])(N([H])C(=O)[C@@]([H])(N([H])C(=O)[C@@]([H])(N([H])C(=O)[C@]([H])(N([H])C(=O)N([H])c1c([H])c([H])c(C(F)(F)F)c([H])c1F)C([H])([H])C([H])(C([H])([H])[H])C([H])([H])[H])C([H])(C([H])([H])[H])C([H])([H])[H])C([H])([H])[H])C([H])(C([H])([H])[H])C([H])([H])[H])C([H])([H])[H])C([H])(C([H])([H])[H])C([H])([H])[H]
     RDKit          3D

107107  0  0  0  0  0  0  0  0999 V2000
    7.5924    3.3266    1.5004 C   0  0  0  0  0  0  0  0  0  0  0  0
    6.1455    3.5568    1.1847 C   0  0  0  0  0  0  0  0  0  0  0  0
    5.5107    4.2681    2.3809 C   0  0  0  0  0  0  0  0  0  0  0  0
    5.3775    2.3295    0.8328 C   0  0  0  0  0  0  0  0  0  0  0  0
    5.8065    1.5816   -0.3500 C   0  0  1  0  0  0  0  0  0  0  0  0
    7.1139    1.0334   -0.3500 N   0  0  0  0  0  0  0  0  0  0  0  0
    8.3198    0.8128   -0.8293 C   0  0  0  0  0  0  0  0  0  0  0  0
    8.7137    1.3204   -1.9422 O   0  0  0  0  0  0  0  0  0  0  0  0
    9.2841   -0.0187   -0.1460 N   0  0  0  0  0  0  0  0  0  0  0  0
   10.5755   -0.3727   -0.4970 C   0  0  0  0  0  0  0  0  0  0  0  0
   11.3377    0.1579   -1.5067 C   0  0  0  0  0  0  0  0  0  0  0  0
   12.6406   -0.2843   -1.7554 C   0  0  0  0  0  0  0  0  0  0  0  0
   13.2331   -1.2706   -1.0100 C   0  0  0  0  0  0  0  0  0  0  0  0
   12.4796   -1.8114    0.0103 C   0  0  0  0  0  0  0  0  0  0  0  0
   11.2099   -1.3888    0.2636 C   0  0  0  0  0  0  0  0  0  0  0  0
   10.4980   -1.9523    1.2669 F   0  0  0  0  0  0  0  0  0  0  0  0
   14.6095   -1.7438   -1.2871 C   0  0  0  0  0  0  0  0  0  0  0  0
   15.3716   -1.6963   -0.1441 F   0  0  0  0  0  0  0  0  0  0  0  0
   15.2456   -0.9992   -2.2317 F   0  0  0  0  0  0  0  0  0  0  0  0
   14.4941   -3.0491   -1.7409 F   0  0  0  0  0  0  0  0  0  0  0  0
    4.8153    0.5546   -0.8398 C   0  0  0  0  0  0  0  0  0  0  0  0
    5.1735   -0.0634   -1.8619 O   0  0  0  0  0  0  0  0  0  0  0  0
    3.6030    0.3039   -0.2131 N   0  0  0  0  0  0  0  0  0  0  0  0
    2.6132   -0.6739   -0.6762 C   0  0  1  0  0  0  0  0  0  0  0  0
    2.8139   -1.9893    0.0879 C   0  0  0  0  0  0  0  0  0  0  0  0
    1.7815   -3.0071   -0.3728 C   0  0  0  0  0  0  0  0  0  0  0  0
    4.2058   -2.5523   -0.0967 C   0  0  0  0  0  0  0  0  0  0  0  0
    1.2594   -0.1764   -0.3977 C   0  0  0  0  0  0  0  0  0  0  0  0
    1.1299    0.6216    0.6092 O   0  0  0  0  0  0  0  0  0  0  0  0
    0.1359   -0.5187   -1.1566 N   0  0  0  0  0  0  0  0  0  0  0  0
   -1.1677    0.0136   -0.8023 C   0  0  1  0  0  0  0  0  0  0  0  0
   -1.5163    1.1030   -1.8112 C   0  0  0  0  0  0  0  0  0  0  0  0
   -2.1771   -1.0486   -0.7271 C   0  0  0  0  0  0  0  0  0  0  0  0
   -1.8365   -2.2193   -1.0742 O   0  0  0  0  0  0  0  0  0  0  0  0
   -3.4790   -0.7471   -0.2770 N   0  0  0  0  0  0  0  0  0  0  0  0
   -4.5714   -1.6769   -0.1536 C   0  0  1  0  0  0  0  0  0  0  0  0
   -4.8459   -2.1248    1.2363 C   0  0  0  0  0  0  0  0  0  0  0  0
   -3.6551   -2.8368    1.8725 C   0  0  0  0  0  0  0  0  0  0  0  0
   -5.2665   -1.0311    2.1875 C   0  0  0  0  0  0  0  0  0  0  0  0
   -5.7786   -1.1025   -0.7733 C   0  0  0  0  0  0  0  0  0  0  0  0
   -5.7495    0.0162   -1.3790 O   0  0  0  0  0  0  0  0  0  0  0  0
   -7.0003   -1.8048   -0.6999 N   0  0  0  0  0  0  0  0  0  0  0  0
   -8.1871   -1.2600   -1.3353 C   0  0  1  0  0  0  0  0  0  0  0  0
   -8.9483   -2.3831   -1.9489 C   0  0  0  0  0  0  0  0  0  0  0  0
   -8.9893   -0.5313   -0.3038 C   0  0  0  0  0  0  0  0  0  0  0  0
   -8.5900   -0.4860    0.8596 O   0  0  0  0  0  0  0  0  0  0  0  0
  -10.2132    0.1291   -0.6142 N   0  0  0  0  0  0  0  0  0  0  0  0
  -10.9710    0.8498    0.3891 C   0  0  1  0  0  0  0  0  0  0  0  0
  -11.2152    2.2370   -0.1829 C   0  0  0  0  0  0  0  0  0  0  0  0
   -9.9032    2.9225   -0.4779 C   0  0  0  0  0  0  0  0  0  0  0  0
  -12.0596    3.1172    0.6660 C   0  0  0  0  0  0  0  0  0  0  0  0
  -12.3076    0.2232    0.5541 C   0  0  0  0  0  0  0  0  0  0  0  0
  -13.1737    0.7350    1.4723 O   0  0  0  0  0  0  0  0  0  0  0  0
  -12.6451   -0.7751   -0.1500 O   0  0  0  0  0  0  0  0  0  0  0  0
    8.1999    3.5702    0.6004 H   0  0  0  0  0  0  0  0  0  0  0  0
    7.7864    2.3077    1.8337 H   0  0  0  0  0  0  0  0  0  0  0  0
    7.9557    3.9870    2.3528 H   0  0  0  0  0  0  0  0  0  0  0  0
    6.0576    4.2771    0.3246 H   0  0  0  0  0  0  0  0  0  0  0  0
    4.5239    4.6506    2.0470 H   0  0  0  0  0  0  0  0  0  0  0  0
    6.1629    5.1275    2.6934 H   0  0  0  0  0  0  0  0  0  0  0  0
    5.3399    3.6014    3.2360 H   0  0  0  0  0  0  0  0  0  0  0  0
    5.3928    1.6590    1.7281 H   0  0  0  0  0  0  0  0  0  0  0  0
    4.2815    2.6199    0.7502 H   0  0  0  0  0  0  0  0  0  0  0  0
    5.8274    2.3847   -1.2123 H   0  0  0  0  0  0  0  0  0  0  0  0
    7.0994    0.3668    0.7020 H   0  0  0  0  0  0  0  0  0  0  0  0
    8.9070   -0.3987    0.7921 H   0  0  0  0  0  0  0  0  0  0  0  0
   10.9365    0.9391   -2.1114 H   0  0  0  0  0  0  0  0  0  0  0  0
   13.2035    0.1664   -2.5636 H   0  0  0  0  0  0  0  0  0  0  0  0
   12.9635   -2.5882    0.6015 H   0  0  0  0  0  0  0  0  0  0  0  0
    3.3423    0.8274    0.6504 H   0  0  0  0  0  0  0  0  0  0  0  0
    2.7549   -0.9218   -1.7278 H   0  0  0  0  0  0  0  0  0  0  0  0
    2.6734   -1.8376    1.1680 H   0  0  0  0  0  0  0  0  0  0  0  0
    0.7853   -2.7720    0.0646 H   0  0  0  0  0  0  0  0  0  0  0  0
    1.6864   -2.9033   -1.4704 H   0  0  0  0  0  0  0  0  0  0  0  0
    2.1049   -4.0462   -0.1624 H   0  0  0  0  0  0  0  0  0  0  0  0
    4.4365   -2.7479   -1.1720 H   0  0  0  0  0  0  0  0  0  0  0  0
    4.9092   -1.8367    0.3532 H   0  0  0  0  0  0  0  0  0  0  0  0
    4.2675   -3.4716    0.5088 H   0  0  0  0  0  0  0  0  0  0  0  0
    0.2062   -1.1405   -1.9750 H   0  0  0  0  0  0  0  0  0  0  0  0
   -1.1454    0.5482    0.1786 H   0  0  0  0  0  0  0  0  0  0  0  0
   -2.3789    1.6587   -1.4035 H   0  0  0  0  0  0  0  0  0  0  0  0
   -0.6587    1.8322   -1.7360 H   0  0  0  0  0  0  0  0  0  0  0  0
   -1.6254    0.7284   -2.8331 H   0  0  0  0  0  0  0  0  0  0  0  0
   -3.6910    0.2412   -0.0069 H   0  0  0  0  0  0  0  0  0  0  0  0
   -4.2659   -2.6123   -0.7125 H   0  0  0  0  0  0  0  0  0  0  0  0
   -5.6594   -2.8789    1.2153 H   0  0  0  0  0  0  0  0  0  0  0  0
   -4.0753   -3.4464    2.7206 H   0  0  0  0  0  0  0  0  0  0  0  0
   -3.1743   -3.5380    1.1745 H   0  0  0  0  0  0  0  0  0  0  0  0
   -2.9731   -2.1252    2.3724 H   0  0  0  0  0  0  0  0  0  0  0  0
   -4.4588   -0.8422    2.9300 H   0  0  0  0  0  0  0  0  0  0  0  0
   -5.5458   -0.0999    1.6846 H   0  0  0  0  0  0  0  0  0  0  0  0
   -6.1519   -1.3446    2.8095 H   0  0  0  0  0  0  0  0  0  0  0  0
   -7.0406   -2.7157   -0.1890 H   0  0  0  0  0  0  0  0  0  0  0  0
   -7.9204   -0.4755   -2.0947 H   0  0  0  0  0  0  0  0  0  0  0  0
   -9.4761   -2.0536   -2.8423 H   0  0  0  0  0  0  0  0  0  0  0  0
   -9.6683   -2.7788   -1.1686 H   0  0  0  0  0  0  0  0  0  0  0  0
   -8.2523   -3.2421   -2.1491 H   0  0  0  0  0  0  0  0  0  0  0  0
  -10.5715    0.0913   -1.5848 H   0  0  0  0  0  0  0  0  0  0  0  0
  -10.3854    0.8594    1.3307 H   0  0  0  0  0  0  0  0  0  0  0  0
  -11.7197    2.0659   -1.1572 H   0  0  0  0  0  0  0  0  0  0  0  0
   -9.2909    3.0594    0.4182 H   0  0  0  0  0  0  0  0  0  0  0  0
  -10.1414    3.9417   -0.8612 H   0  0  0  0  0  0  0  0  0  0  0  0
   -9.3184    2.3911   -1.2611 H   0  0  0  0  0  0  0  0  0  0  0  0
  -11.8014    4.1926    0.4295 H   0  0  0  0  0  0  0  0  0  0  0  0
  -12.0189    2.9323    1.7464 H   0  0  0  0  0  0  0  0  0  0  0  0
  -13.1463    3.0595    0.3372 H   0  0  0  0  0  0  0  0  0  0  0  0
  -14.0925    1.1128    1.2885 H   0  0  0  0  0  0  0  0  0  0  0  0
  1  2  1  0
  2  3  1  0
  2  4  1  0
  4  5  1  0
  5  6  1  0
  6  7  1  0
  7  8  2  0
  7  9  1  0
  9 10  1  0
 10 11  2  0
 11 12  1  0
 12 13  2  0
 13 14  1  0
 14 15  2  0
 15 16  1  0
 13 17  1  0
 17 18  1  0
 17 19  1  0
 17 20  1  0
  5 21  1  0
 21 22  2  0
 21 23  1  0
 23 24  1  0
 24 25  1  0
 25 26  1  0
 25 27  1  0
 24 28  1  0
 28 29  2  0
 28 30  1  0
 30 31  1  0
 31 32  1  0
 31 33  1  0
 33 34  2  0
 33 35  1  0
 35 36  1  0
 36 37  1  0
 37 38  1  0
 37 39  1  0
 36 40  1  0
 40 41  2  0
 40 42  1  0
 42 43  1  0
 43 44  1  0
 43 45  1  0
 45 46  2  0
 45 47  1  0
 47 48  1  0
 48 49  1  0
 49 50  1  0
 49 51  1  0
 48 52  1  0
 52 53  1  0
 52 54  2  0
 15 10  1  0
  1 55  1  0
  1 56  1  0
  1 57  1  0
  2 58  1  0
  3 59  1  0
  3 60  1  0
  3 61  1  0
  4 62  1  0
  4 63  1  0
  5 64  1  6
  6 65  1  0
  9 66  1  0
 11 67  1  0
 12 68  1  0
 14 69  1  0
 23 70  1  0
 24 71  1  6
 25 72  1  0
 26 73  1  0
 26 74  1  0
 26 75  1  0
 27 76  1  0
 27 77  1  0
 27 78  1  0
 30 79  1  0
 31 80  1  1
 32 81  1  0
 32 82  1  0
 32 83  1  0
 35 84  1  0
 36 85  1  6
 37 86  1  0
 38 87  1  0
 38 88  1  0
 38 89  1  0
 39 90  1  0
 39 91  1  0
 39 92  1  0
 42 93  1  0
 43 94  1  6
 44 95  1  0
 44 96  1  0
 44 97  1  0
 47 98  1  0
 48 99  1  1
 49100  1  0
 50101  1  0
 50102  1  0
 50103  1  0
 51104  1  0
 51105  1  0
 51106  1  0
 53107  1  0
M  END
$$$$
[H]c1oc2c([H])c([H])c([H])c([H])c2c1C1([H])C([H])([H])C([H])([H])N(C([H])([H])C([H])([H])[C@]2([H])C([H])([H])C([H])([H])[C@@]([H])(N([H])C(=O)c3c([H])c([H])c([H])c([H])c3[H])C([H])([H])C2([H])[H])C([H])([H])C1([H])[H]
     RDKit          3D

 66 70  0  0  0  0  0  0  0  0999 V2000
    6.4796   -1.1835    1.4349 O   0  0  0  0  0  0  0  0  0  0  0  0
    6.5080   -0.5327    0.3527 C   0  0  0  0  0  0  0  0  0  0  0  0
    5.2553   -0.3029   -0.3238 N   0  0  0  0  0  0  0  0  0  0  0  0
    4.0746   -0.8305    0.3004 C   0  0  1  0  0  0  0  0  0  0  0  0
    3.6240    0.1620    1.3833 C   0  0  0  0  0  0  0  0  0  0  0  0
    2.1618   -0.1319    1.6406 C   0  0  0  0  0  0  0  0  0  0  0  0
    1.4257    0.4701    0.4459 C   0  0  2  0  0  0  0  0  0  0  0  0
   -0.0379    0.2309    0.6854 C   0  0  0  0  0  0  0  0  0  0  0  0
   -0.8437    0.7987   -0.4324 C   0  0  0  0  0  0  0  0  0  0  0  0
   -2.2722    0.5621   -0.2295 N   0  0  0  0  0  0  0  0  0  0  0  0
   -2.5420   -0.8849   -0.3740 C   0  0  0  0  0  0  0  0  0  0  0  0
   -4.0191   -0.9968   -0.5628 C   0  0  0  0  0  0  0  0  0  0  0  0
   -4.7744    0.2344   -0.0335 C   0  0  0  0  0  0  0  0  0  0  0  0
   -4.0445    0.4819    1.3327 C   0  0  0  0  0  0  0  0  0  0  0  0
   -2.6118    0.8060    1.1770 C   0  0  0  0  0  0  0  0  0  0  0  0
   -6.1376   -0.1476    0.3722 C   0  0  0  0  0  0  0  0  0  0  0  0
   -6.5473   -0.6436    1.5861 C   0  0  0  0  0  0  0  0  0  0  0  0
   -7.8601   -0.7491    1.5955 O   0  0  0  0  0  0  0  0  0  0  0  0
   -8.3645   -0.3483    0.4411 C   0  0  0  0  0  0  0  0  0  0  0  0
   -9.6662   -0.2784   -0.0359 C   0  0  0  0  0  0  0  0  0  0  0  0
   -9.8449    0.1843   -1.3269 C   0  0  0  0  0  0  0  0  0  0  0  0
   -8.8171    0.5748   -2.1520 C   0  0  0  0  0  0  0  0  0  0  0  0
   -7.5463    0.4911   -1.6261 C   0  0  0  0  0  0  0  0  0  0  0  0
   -7.3022    0.0333   -0.3363 C   0  0  0  0  0  0  0  0  0  0  0  0
    1.9604   -0.0936   -0.8401 C   0  0  0  0  0  0  0  0  0  0  0  0
    2.9686   -1.1994   -0.6007 C   0  0  0  0  0  0  0  0  0  0  0  0
    7.7865   -0.0616   -0.1446 C   0  0  0  0  0  0  0  0  0  0  0  0
    8.9412   -0.3688    0.5912 C   0  0  0  0  0  0  0  0  0  0  0  0
   10.1643    0.0929    0.1544 C   0  0  0  0  0  0  0  0  0  0  0  0
   10.3330    0.8523   -0.9899 C   0  0  0  0  0  0  0  0  0  0  0  0
    9.1829    1.1356   -1.6919 C   0  0  0  0  0  0  0  0  0  0  0  0
    7.9578    0.6845   -1.2690 C   0  0  0  0  0  0  0  0  0  0  0  0
    5.2855    0.2171   -1.2236 H   0  0  0  0  0  0  0  0  0  0  0  0
    4.3839   -1.7287    0.9058 H   0  0  0  0  0  0  0  0  0  0  0  0
    3.7134    1.2080    0.9749 H   0  0  0  0  0  0  0  0  0  0  0  0
    4.1825   -0.0190    2.2976 H   0  0  0  0  0  0  0  0  0  0  0  0
    2.0234   -1.2288    1.5454 H   0  0  0  0  0  0  0  0  0  0  0  0
    1.8012    0.2744    2.5811 H   0  0  0  0  0  0  0  0  0  0  0  0
    1.6173    1.5578    0.4590 H   0  0  0  0  0  0  0  0  0  0  0  0
   -0.2750    0.8732    1.5998 H   0  0  0  0  0  0  0  0  0  0  0  0
   -0.2842   -0.8104    0.9123 H   0  0  0  0  0  0  0  0  0  0  0  0
   -0.5761    0.4985   -1.4305 H   0  0  0  0  0  0  0  0  0  0  0  0
   -0.7396    1.9247   -0.3949 H   0  0  0  0  0  0  0  0  0  0  0  0
   -2.1707   -1.4350    0.4978 H   0  0  0  0  0  0  0  0  0  0  0  0
   -1.9955   -1.2143   -1.3045 H   0  0  0  0  0  0  0  0  0  0  0  0
   -4.1396   -0.8297   -1.7138 H   0  0  0  0  0  0  0  0  0  0  0  0
   -4.4698   -1.9315   -0.2627 H   0  0  0  0  0  0  0  0  0  0  0  0
   -4.7462    1.1051   -0.6455 H   0  0  0  0  0  0  0  0  0  0  0  0
   -4.1524   -0.5477    1.8151 H   0  0  0  0  0  0  0  0  0  0  0  0
   -4.5517    1.2305    1.9316 H   0  0  0  0  0  0  0  0  0  0  0  0
   -2.0405   -0.0278    1.7155 H   0  0  0  0  0  0  0  0  0  0  0  0
   -2.2447    1.7435    1.5699 H   0  0  0  0  0  0  0  0  0  0  0  0
   -5.9673   -0.9203    2.4483 H   0  0  0  0  0  0  0  0  0  0  0  0
  -10.4642   -0.5867    0.6225 H   0  0  0  0  0  0  0  0  0  0  0  0
  -10.8680    0.2287   -1.7554 H   0  0  0  0  0  0  0  0  0  0  0  0
   -9.0164    0.9039   -3.1615 H   0  0  0  0  0  0  0  0  0  0  0  0
   -6.6990    0.7733   -2.2045 H   0  0  0  0  0  0  0  0  0  0  0  0
    2.4114    0.6914   -1.4707 H   0  0  0  0  0  0  0  0  0  0  0  0
    1.1169   -0.5356   -1.4089 H   0  0  0  0  0  0  0  0  0  0  0  0
    3.3764   -1.4520   -1.6062 H   0  0  0  0  0  0  0  0  0  0  0  0
    2.3823   -2.1250   -0.2893 H   0  0  0  0  0  0  0  0  0  0  0  0
    8.8414   -0.9625    1.4820 H   0  0  0  0  0  0  0  0  0  0  0  0
   11.0643   -0.1558    0.7567 H   0  0  0  0  0  0  0  0  0  0  0  0
   11.3243    1.2042   -1.2865 H   0  0  0  0  0  0  0  0  0  0  0  0
    9.2258    1.7326   -2.6156 H   0  0  0  0  0  0  0  0  0  0  0  0
    7.0588    0.9209   -1.8652 H   0  0  0  0  0  0  0  0  0  0  0  0
  1  2  2  0
  2  3  1  0
  3  4  1  0
  4  5  1  0
  5  6  1  0
  6  7  1  0
  7  8  1  0
  8  9  1  0
  9 10  1  0
 10 11  1  0
 11 12  1  0
 12 13  1  0
 13 14  1  0
 14 15  1  0
 13 16  1  0
 16 17  2  0
 17 18  1  0
 18 19  1  0
 19 20  2  0
 20 21  1  0
 21 22  2  0
 22 23  1  0
 23 24  2  0
  7 25  1  0
 25 26  1  0
  2 27  1  0
 27 28  2  0
 28 29  1  0
 29 30  2  0
 30 31  1  0
 31 32  2  0
 26  4  1  0
 32 27  1  0
 15 10  1  0
 24 16  1  0
 24 19  1  0
  3 33  1  0
  4 34  1  1
  5 35  1  0
  5 36  1  0
  6 37  1  0
  6 38  1  0
  7 39  1  6
  8 40  1  0
  8 41  1  0
  9 42  1  0
  9 43  1  0
 11 44  1  0
 11 45  1  0
 12 46  1  0
 12 47  1  0
 13 48  1  0
 14 49  1  0
 14 50  1  0
 15 51  1  0
 15 52  1  0
 17 53  1  0
 20 54  1  0
 21 55  1  0
 22 56  1  0
 23 57  1  0
 25 58  1  0
 25 59  1  0
 26 60  1  0
 26 61  1  0
 28 62  1  0
 29 63  1  0
 30 64  1  0
 31 65  1  0
 32 66  1  0
M  END
$$$$
[H]c1nc(C(=O)N([H])c2c([H])c([H])c(N3C([H])([H])C([H])([H])N(C([H])([H])[H])C([H])([H])C3([H])[H])c([H])c2[H])n([H])c1C#Cc1c([H])c([H])c(F)c([H])c1[H]
     RDKit          3D

 52 55  0  0  0  0  0  0  0  0999 V2000
   -9.3146    0.5561   -0.7456 C   0  0  0  0  0  0  0  0  0  0  0  0
   -7.8916    0.6781   -0.8967 N   0  0  0  0  0  0  0  0  0  0  0  0
   -7.2797   -0.5545   -1.3308 C   0  0  0  0  0  0  0  0  0  0  0  0
   -6.2952   -1.0737   -0.2745 C   0  0  0  0  0  0  0  0  0  0  0  0
   -5.2804   -0.0739   -0.0789 N   0  0  0  0  0  0  0  0  0  0  0  0
   -5.7540    1.3076   -0.0022 C   0  0  0  0  0  0  0  0  0  0  0  0
   -7.2570    1.2276    0.2676 C   0  0  0  0  0  0  0  0  0  0  0  0
   -3.8979   -0.3157    0.0469 C   0  0  0  0  0  0  0  0  0  0  0  0
   -3.3941   -1.6105    0.0937 C   0  0  0  0  0  0  0  0  0  0  0  0
   -2.0593   -1.8541    0.2104 C   0  0  0  0  0  0  0  0  0  0  0  0
   -1.1725   -0.7685    0.2852 C   0  0  0  0  0  0  0  0  0  0  0  0
    0.1959   -1.0598    0.4332 N   0  0  0  0  0  0  0  0  0  0  0  0
    1.2382   -0.2198    0.0803 C   0  0  0  0  0  0  0  0  0  0  0  0
    1.0383    0.9130   -0.4298 O   0  0  0  0  0  0  0  0  0  0  0  0
    2.6269   -0.6649    0.3086 C   0  0  0  0  0  0  0  0  0  0  0  0
    2.9601   -1.8413    0.8420 N   0  0  0  0  0  0  0  0  0  0  0  0
    4.3287   -1.8675    0.8823 C   0  0  0  0  0  0  0  0  0  0  0  0
    4.8269   -0.6903    0.3660 C   0  0  0  0  0  0  0  0  0  0  0  0
    3.7281    0.0364    0.0179 N   0  0  0  0  0  0  0  0  0  0  0  0
    6.1922   -0.2874    0.2141 C   0  0  0  0  0  0  0  0  0  0  0  0
    7.3439    0.0436    0.0668 C   0  0  0  0  0  0  0  0  0  0  0  0
    8.7143    0.4267   -0.1315 C   0  0  0  0  0  0  0  0  0  0  0  0
    9.6005    0.5879    0.9199 C   0  0  0  0  0  0  0  0  0  0  0  0
   10.9150    0.9560    0.7208 C   0  0  0  0  0  0  0  0  0  0  0  0
   11.4007    1.1797   -0.5502 C   0  0  0  0  0  0  0  0  0  0  0  0
   12.7094    1.5464   -0.7523 F   0  0  0  0  0  0  0  0  0  0  0  0
   10.5323    1.0239   -1.6102 C   0  0  0  0  0  0  0  0  0  0  0  0
    9.2200    0.6555   -1.3968 C   0  0  0  0  0  0  0  0  0  0  0  0
   -1.6497    0.5046    0.2416 C   0  0  0  0  0  0  0  0  0  0  0  0
   -3.0171    0.7340    0.1216 C   0  0  0  0  0  0  0  0  0  0  0  0
   -9.6470    1.0714    0.1985 H   0  0  0  0  0  0  0  0  0  0  0  0
   -9.6292   -0.5140   -0.6579 H   0  0  0  0  0  0  0  0  0  0  0  0
   -9.8772    1.0385   -1.5672 H   0  0  0  0  0  0  0  0  0  0  0  0
   -8.0137   -1.3415   -1.4950 H   0  0  0  0  0  0  0  0  0  0  0  0
   -6.7153   -0.4026   -2.2735 H   0  0  0  0  0  0  0  0  0  0  0  0
   -5.8971   -2.0102   -0.6937 H   0  0  0  0  0  0  0  0  0  0  0  0
   -6.8665   -1.2443    0.6710 H   0  0  0  0  0  0  0  0  0  0  0  0
   -5.5658    1.8660   -0.9283 H   0  0  0  0  0  0  0  0  0  0  0  0
   -5.2478    1.7660    0.8953 H   0  0  0  0  0  0  0  0  0  0  0  0
   -7.4253    0.6461    1.1931 H   0  0  0  0  0  0  0  0  0  0  0  0
   -7.6287    2.2632    0.4253 H   0  0  0  0  0  0  0  0  0  0  0  0
   -4.0729   -2.4538    0.0380 H   0  0  0  0  0  0  0  0  0  0  0  0
   -1.6362   -2.8489    0.2490 H   0  0  0  0  0  0  0  0  0  0  0  0
    0.4538   -2.0096    0.8571 H   0  0  0  0  0  0  0  0  0  0  0  0
    4.9024   -2.6979    1.2658 H   0  0  0  0  0  0  0  0  0  0  0  0
    3.7535    0.9877   -0.4072 H   0  0  0  0  0  0  0  0  0  0  0  0
    9.2211    0.4121    1.9258 H   0  0  0  0  0  0  0  0  0  0  0  0
   11.6171    1.0845    1.5423 H   0  0  0  0  0  0  0  0  0  0  0  0
   10.8788    1.1914   -2.6237 H   0  0  0  0  0  0  0  0  0  0  0  0
    8.5173    0.5273   -2.2249 H   0  0  0  0  0  0  0  0  0  0  0  0
   -1.0399    1.4034    0.3102 H   0  0  0  0  0  0  0  0  0  0  0  0
   -3.3894    1.7703    0.0855 H   0  0  0  0  0  0  0  0  0  0  0  0
  1  2  1  0
  2  3  1  0
  3  4  1  0
  4  5  1  0
  5  6  1  0
  6  7  1  0
  5  8  1  0
  8  9  2  0
  9 10  1  0
 10 11  2  0
 11 12  1  0
 12 13  1  0
 13 14  2  0
 13 15  1  0
 15 16  2  0
 16 17  1  0
 17 18  2  0
 18 19  1  0
 18 20  1  0
 20 21  3  0
 21 22  1  0
 22 23  2  0
 23 24  1  0
 24 25  2  0
 25 26  1  0
 25 27  1  0
 27 28  2  0
 11 29  1  0
 29 30  2  0
  7  2  1  0
 30  8  1  0
 19 15  1  0
 28 22  1  0
  1 31  1  0
  1 32  1  0
  1 33  1  0
  3 34  1  0
  3 35  1  0
  4 36  1  0
  4 37  1  0
  6 38  1  0
  6 39  1  0
  7 40  1  0
  7 41  1  0
  9 42  1  0
 10 43  1  0
 12 44  1  0
 17 45  1  0
 19 46  1  0
 23 47  1  0
 24 48  1  0
 27 49  1  0
 28 50  1  0
 29 51  1  0
 30 52  1  0
M  END
$$$$
[H]c1c([H])c([H])c(C(=O)[C@@]([H])(N([H])C(=O)[C@@]([H])(N([H])C(=O)[C@@]([H])(N([H])C(=O)[C@@]([H])(N([H])C(=O)[C@@]([H])(N([H])C(=O)[C@@]([H])(N([H])C(=O)[C@@]([H])(N([H])C(=O)OC(C([H])([H])[H])(C([H])([H])[H])C([H])([H])[H])C([H])([H])c2c([H])c([H])c([H])c([H])c2[H])C([H])([H])C([H])(C([H])([H])[H])C([H])([H])[H])C([H])([H])C([H])(C([H])([H])[H])C([H])([H])[H])C([H])([H])C([H])(C([H])([H])[H])C([H])([H])[H])C([H])([H])C([H])(C([H])([H])[H])C([H])([H])[H])C([H])([H])C([H])(C([H])([H])[H])C([H])([H])[H])C([H])([H])C([H])(C([H])([H])[H])C([H])([H])[H])c([H])c1[H]
     RDKit          3D

161162  0  0  0  0  0  0  0  0999 V2000
    1.5218   -2.0125    4.4454 C   0  0  0  0  0  0  0  0  0  0  0  0
    1.1467   -0.6188    4.0323 C   0  0  0  0  0  0  0  0  0  0  0  0
   -0.0760   -0.2120    4.8426 C   0  0  0  0  0  0  0  0  0  0  0  0
    0.8414   -0.5088    2.5635 C   0  0  0  0  0  0  0  0  0  0  0  0
    1.9469   -0.8711    1.6652 C   0  0  2  0  0  0  0  0  0  0  0  0
    3.1357   -0.0597    1.8207 N   0  0  0  0  0  0  0  0  0  0  0  0
    4.4240   -0.5356    1.4655 C   0  0  0  0  0  0  0  0  0  0  0  0
    4.5125   -1.7083    0.9805 O   0  0  0  0  0  0  0  0  0  0  0  0
    5.6546    0.2276    1.6024 C   0  0  2  0  0  0  0  0  0  0  0  0
    5.5494    1.4834    2.3766 C   0  0  0  0  0  0  0  0  0  0  0  0
    5.1950    1.2380    3.8072 C   0  0  0  0  0  0  0  0  0  0  0  0
    5.0781    2.5520    4.5863 C   0  0  0  0  0  0  0  0  0  0  0  0
    6.3536    0.4735    4.4782 C   0  0  0  0  0  0  0  0  0  0  0  0
    6.3984    0.2542    0.3911 N   0  0  0  0  0  0  0  0  0  0  0  0
    7.7880    0.0237    0.3582 C   0  0  0  0  0  0  0  0  0  0  0  0
    8.4948   -0.2218    1.3580 O   0  0  0  0  0  0  0  0  0  0  0  0
    8.4946    0.0847   -0.9829 C   0  0  2  0  0  0  0  0  0  0  0  0
    8.2707   -1.2052   -1.7446 C   0  0  0  0  0  0  0  0  0  0  0  0
    8.7972   -2.3788   -1.0063 C   0  0  0  0  0  0  0  0  0  0  0  0
    8.0323   -3.0931   -0.1172 C   0  0  0  0  0  0  0  0  0  0  0  0
    8.5606   -4.1592    0.5357 C   0  0  0  0  0  0  0  0  0  0  0  0
    9.8574   -4.5865    0.3584 C   0  0  0  0  0  0  0  0  0  0  0  0
   10.6313   -3.8743   -0.5331 C   0  0  0  0  0  0  0  0  0  0  0  0
   10.1116   -2.7929   -1.2017 C   0  0  0  0  0  0  0  0  0  0  0  0
    9.8922    0.3485   -0.7482 N   0  0  0  0  0  0  0  0  0  0  0  0
   10.4111    1.5974   -1.1687 C   0  0  0  0  0  0  0  0  0  0  0  0
    9.6912    2.4687   -1.7390 O   0  0  0  0  0  0  0  0  0  0  0  0
   11.7357    1.9051   -0.9630 O   0  0  0  0  0  0  0  0  0  0  0  0
   12.2897    3.1531   -1.3667 C   0  0  0  0  0  0  0  0  0  0  0  0
   11.5352    4.2448   -0.6463 C   0  0  0  0  0  0  0  0  0  0  0  0
   12.2514    3.3416   -2.8563 C   0  0  0  0  0  0  0  0  0  0  0  0
   13.7359    3.2544   -0.9003 C   0  0  0  0  0  0  0  0  0  0  0  0
    1.5343   -0.7102    0.2277 C   0  0  0  0  0  0  0  0  0  0  0  0
    2.2465   -0.0390   -0.5539 O   0  0  0  0  0  0  0  0  0  0  0  0
    0.3291   -1.3385   -0.2051 N   0  0  0  0  0  0  0  0  0  0  0  0
   -0.1397   -1.2675   -1.5577 C   0  0  1  0  0  0  0  0  0  0  0  0
   -0.7133   -2.4962   -2.1449 C   0  0  0  0  0  0  0  0  0  0  0  0
    0.1471   -3.7012   -2.2390 C   0  0  0  0  0  0  0  0  0  0  0  0
    0.6067   -4.1928   -0.9055 C   0  0  0  0  0  0  0  0  0  0  0  0
   -0.6663   -4.8239   -2.9101 C   0  0  0  0  0  0  0  0  0  0  0  0
   -1.0941   -0.1039   -1.7144 C   0  0  0  0  0  0  0  0  0  0  0  0
   -0.7282    0.9401   -1.1079 O   0  0  0  0  0  0  0  0  0  0  0  0
   -2.2569   -0.2230   -2.4681 N   0  0  0  0  0  0  0  0  0  0  0  0
   -3.2089    0.9388   -2.6474 C   0  0  1  0  0  0  0  0  0  0  0  0
   -3.6690    0.8316   -4.0311 C   0  0  0  0  0  0  0  0  0  0  0  0
   -4.6201    1.7449   -4.6597 C   0  0  0  0  0  0  0  0  0  0  0  0
   -4.2824    3.1991   -4.6733 C   0  0  0  0  0  0  0  0  0  0  0  0
   -6.0563    1.4808   -4.4035 C   0  0  0  0  0  0  0  0  0  0  0  0
   -4.1434    0.8297   -1.5422 C   0  0  0  0  0  0  0  0  0  0  0  0
   -4.0263   -0.1938   -0.7648 O   0  0  0  0  0  0  0  0  0  0  0  0
   -5.1988    1.7016   -1.1565 N   0  0  0  0  0  0  0  0  0  0  0  0
   -6.0256    1.4429   -0.0063 C   0  0  1  0  0  0  0  0  0  0  0  0
   -6.1129    2.5038    1.0261 C   0  0  0  0  0  0  0  0  0  0  0  0
   -6.6515    3.8326    0.6631 C   0  0  0  0  0  0  0  0  0  0  0  0
   -6.6352    4.6553    1.9840 C   0  0  0  0  0  0  0  0  0  0  0  0
   -5.8322    4.6295   -0.2964 C   0  0  0  0  0  0  0  0  0  0  0  0
   -7.3929    0.9274   -0.3875 C   0  0  0  0  0  0  0  0  0  0  0  0
   -7.9591    1.3971   -1.3748 O   0  0  0  0  0  0  0  0  0  0  0  0
   -8.0168   -0.0788    0.3644 N   0  0  0  0  0  0  0  0  0  0  0  0
   -9.3250   -0.6692    0.0808 C   0  0  1  0  0  0  0  0  0  0  0  0
   -9.2184   -2.0884   -0.2369 C   0  0  0  0  0  0  0  0  0  0  0  0
   -8.3502   -2.4701   -1.4267 C   0  0  0  0  0  0  0  0  0  0  0  0
   -8.8188   -1.8506   -2.7143 C   0  0  0  0  0  0  0  0  0  0  0  0
   -6.8990   -2.3070   -1.2591 C   0  0  0  0  0  0  0  0  0  0  0  0
  -10.3133   -0.2912    1.0693 C   0  0  0  0  0  0  0  0  0  0  0  0
  -10.1517    0.9921    1.3940 O   0  0  0  0  0  0  0  0  0  0  0  0
  -11.3788   -0.9024    1.7623 C   0  0  0  0  0  0  0  0  0  0  0  0
  -12.2313   -0.1086    2.5442 C   0  0  0  0  0  0  0  0  0  0  0  0
  -13.2815   -0.5994    3.2752 C   0  0  0  0  0  0  0  0  0  0  0  0
  -13.5543   -1.9453    3.2722 C   0  0  0  0  0  0  0  0  0  0  0  0
  -12.7444   -2.7400    2.5247 C   0  0  0  0  0  0  0  0  0  0  0  0
  -11.6708   -2.2381    1.7780 C   0  0  0  0  0  0  0  0  0  0  0  0
    2.5496   -2.2908    4.1562 H   0  0  0  0  0  0  0  0  0  0  0  0
    0.7693   -2.7562    4.0687 H   0  0  0  0  0  0  0  0  0  0  0  0
    1.4626   -2.0582    5.5478 H   0  0  0  0  0  0  0  0  0  0  0  0
    1.9692    0.0617    4.3250 H   0  0  0  0  0  0  0  0  0  0  0  0
   -0.0991   -0.7898    5.7776 H   0  0  0  0  0  0  0  0  0  0  0  0
   -0.1185    0.8715    4.9612 H   0  0  0  0  0  0  0  0  0  0  0  0
   -0.9504   -0.5168    4.2044 H   0  0  0  0  0  0  0  0  0  0  0  0
    0.5741    0.5699    2.3722 H   0  0  0  0  0  0  0  0  0  0  0  0
   -0.0686   -1.0830    2.3535 H   0  0  0  0  0  0  0  0  0  0  0  0
    2.3106   -1.9282    1.7135 H   0  0  0  0  0  0  0  0  0  0  0  0
    3.0349    0.9059    2.1752 H   0  0  0  0  0  0  0  0  0  0  0  0
    6.3112   -0.4821    2.3128 H   0  0  0  0  0  0  0  0  0  0  0  0
    6.5423    1.9871    2.3631 H   0  0  0  0  0  0  0  0  0  0  0  0
    4.7921    2.1754    1.9282 H   0  0  0  0  0  0  0  0  0  0  0  0
    4.3209    0.6357    3.9630 H   0  0  0  0  0  0  0  0  0  0  0  0
    5.9531    2.7327    5.2260 H   0  0  0  0  0  0  0  0  0  0  0  0
    5.0120    3.3948    3.8445 H   0  0  0  0  0  0  0  0  0  0  0  0
    4.1480    2.5697    5.1728 H   0  0  0  0  0  0  0  0  0  0  0  0
    6.3239    0.7250    5.5559 H   0  0  0  0  0  0  0  0  0  0  0  0
    7.3115    0.7747    4.0260 H   0  0  0  0  0  0  0  0  0  0  0  0
    6.1745   -0.6101    4.3548 H   0  0  0  0  0  0  0  0  0  0  0  0
    5.8790    0.4568   -0.4914 H   0  0  0  0  0  0  0  0  0  0  0  0
    8.0205    0.9319   -1.5201 H   0  0  0  0  0  0  0  0  0  0  0  0
    7.1775   -1.3208   -1.8625 H   0  0  0  0  0  0  0  0  0  0  0  0
    8.7181   -1.1557   -2.7477 H   0  0  0  0  0  0  0  0  0  0  0  0
    6.9977   -2.7728    0.0346 H   0  0  0  0  0  0  0  0  0  0  0  0
    7.9557   -4.7232    1.2386 H   0  0  0  0  0  0  0  0  0  0  0  0
   10.2731   -5.4458    0.8908 H   0  0  0  0  0  0  0  0  0  0  0  0
   11.6534   -4.1582   -0.7136 H   0  0  0  0  0  0  0  0  0  0  0  0
   10.7335   -2.2399   -1.9013 H   0  0  0  0  0  0  0  0  0  0  0  0
   10.4844   -0.3456   -0.2888 H   0  0  0  0  0  0  0  0  0  0  0  0
   10.9888    3.8006    0.1931 H   0  0  0  0  0  0  0  0  0  0  0  0
   10.7655    4.6522   -1.3656 H   0  0  0  0  0  0  0  0  0  0  0  0
   12.2123    5.0670   -0.3158 H   0  0  0  0  0  0  0  0  0  0  0  0
   12.2290    2.4010   -3.4288 H   0  0  0  0  0  0  0  0  0  0  0  0
   11.3716    3.9805   -3.1243 H   0  0  0  0  0  0  0  0  0  0  0  0
   13.1670    3.9054   -3.1724 H   0  0  0  0  0  0  0  0  0  0  0  0
   14.1027    4.2608   -1.2236 H   0  0  0  0  0  0  0  0  0  0  0  0
   13.7038    3.2432    0.2273 H   0  0  0  0  0  0  0  0  0  0  0  0
   14.3802    2.4750   -1.3136 H   0  0  0  0  0  0  0  0  0  0  0  0
   -0.2317   -1.8481    0.4848 H   0  0  0  0  0  0  0  0  0  0  0  0
    0.7775   -0.9937   -2.1654 H   0  0  0  0  0  0  0  0  0  0  0  0
   -0.9853   -2.2184   -3.2333 H   0  0  0  0  0  0  0  0  0  0  0  0
   -1.7276   -2.7400   -1.7249 H   0  0  0  0  0  0  0  0  0  0  0  0
    1.0210   -3.5119   -2.9308 H   0  0  0  0  0  0  0  0  0  0  0  0
    1.4999   -3.6355   -0.5930 H   0  0  0  0  0  0  0  0  0  0  0  0
   -0.2182   -4.0553   -0.1713 H   0  0  0  0  0  0  0  0  0  0  0  0
    0.8669   -5.2957   -0.9640 H   0  0  0  0  0  0  0  0  0  0  0  0
   -0.6482   -4.6675   -3.9945 H   0  0  0  0  0  0  0  0  0  0  0  0
   -0.2734   -5.8003   -2.6255 H   0  0  0  0  0  0  0  0  0  0  0  0
   -1.7184   -4.6736   -2.5514 H   0  0  0  0  0  0  0  0  0  0  0  0
   -2.5332   -1.1113   -2.9322 H   0  0  0  0  0  0  0  0  0  0  0  0
   -2.5168    1.8107   -2.4337 H   0  0  0  0  0  0  0  0  0  0  0  0
   -4.0736   -0.2418   -4.1412 H   0  0  0  0  0  0  0  0  0  0  0  0
   -2.7426    0.7492   -4.7123 H   0  0  0  0  0  0  0  0  0  0  0  0
   -4.5376    1.4952   -5.8284 H   0  0  0  0  0  0  0  0  0  0  0  0
   -4.5222    3.7183   -3.7245 H   0  0  0  0  0  0  0  0  0  0  0  0
   -3.2416    3.3637   -5.0232 H   0  0  0  0  0  0  0  0  0  0  0  0
   -4.9367    3.6888   -5.4478 H   0  0  0  0  0  0  0  0  0  0  0  0
   -6.2032    0.5605   -3.8006 H   0  0  0  0  0  0  0  0  0  0  0  0
   -6.6799    1.3426   -5.3251 H   0  0  0  0  0  0  0  0  0  0  0  0
   -6.4969    2.3206   -3.8102 H   0  0  0  0  0  0  0  0  0  0  0  0
   -5.3497    2.5360   -1.7288 H   0  0  0  0  0  0  0  0  0  0  0  0
   -5.4847    0.5750    0.5251 H   0  0  0  0  0  0  0  0  0  0  0  0
   -5.0916    2.6971    1.4970 H   0  0  0  0  0  0  0  0  0  0  0  0
   -6.6837    2.0470    1.8933 H   0  0  0  0  0  0  0  0  0  0  0  0
   -7.7262    3.7993    0.3477 H   0  0  0  0  0  0  0  0  0  0  0  0
   -5.8152    5.3798    1.9855 H   0  0  0  0  0  0  0  0  0  0  0  0
   -7.6105    5.2028    2.0951 H   0  0  0  0  0  0  0  0  0  0  0  0
   -6.5399    4.0015    2.8625 H   0  0  0  0  0  0  0  0  0  0  0  0
   -4.7952    4.2809   -0.2714 H   0  0  0  0  0  0  0  0  0  0  0  0
   -5.8339    5.6994    0.0476 H   0  0  0  0  0  0  0  0  0  0  0  0
   -6.2930    4.6083   -1.3076 H   0  0  0  0  0  0  0  0  0  0  0  0
   -7.5064   -0.4411    1.2157 H   0  0  0  0  0  0  0  0  0  0  0  0
   -9.6378   -0.0812   -0.8667 H   0  0  0  0  0  0  0  0  0  0  0  0
   -8.9326   -2.7213    0.6177 H   0  0  0  0  0  0  0  0  0  0  0  0
  -10.2383   -2.4787   -0.5859 H   0  0  0  0  0  0  0  0  0  0  0  0
   -8.5510   -3.5904   -1.5643 H   0  0  0  0  0  0  0  0  0  0  0  0
   -8.1696   -1.0017   -3.0333 H   0  0  0  0  0  0  0  0  0  0  0  0
   -9.8553   -1.4523   -2.6463 H   0  0  0  0  0  0  0  0  0  0  0  0
   -8.8264   -2.5647   -3.5689 H   0  0  0  0  0  0  0  0  0  0  0  0
   -6.4289   -1.5985   -1.9943 H   0  0  0  0  0  0  0  0  0  0  0  0
   -6.3807   -3.2844   -1.4954 H   0  0  0  0  0  0  0  0  0  0  0  0
   -6.6130   -2.1012   -0.2223 H   0  0  0  0  0  0  0  0  0  0  0  0
  -12.0988    0.9802    2.6144 H   0  0  0  0  0  0  0  0  0  0  0  0
  -13.8958    0.0549    3.8490 H   0  0  0  0  0  0  0  0  0  0  0  0
  -14.3621   -2.3764    3.8246 H   0  0  0  0  0  0  0  0  0  0  0  0
  -12.9290   -3.8177    2.4981 H   0  0  0  0  0  0  0  0  0  0  0  0
  -11.1251   -2.9911    1.2709 H   0  0  0  0  0  0  0  0  0  0  0  0
  1  2  1  0
  2  3  1  0
  2  4  1  0
  4  5  1  0
  5  6  1  0
  6  7  1  0
  7  8  2  0
  7  9  1  0
  9 10  1  0
 10 11  1  0
 11 12  1  0
 11 13  1  0
  9 14  1  0
 14 15  1  0
 15 16  2  0
 15 17  1  0
 17 18  1  0
 18 19  1  0
 19 20  2  0
 20 21  1  0
 21 22  2  0
 22 23  1  0
 23 24  2  0
 17 25  1  0
 25 26  1  0
 26 27  2  0
 26 28  1  0
 28 29  1  0
 29 30  1  0
 29 31  1  0
 29 32  1  0
  5 33  1  0
 33 34  2  0
 33 35  1  0
 35 36  1  0
 36 37  1  0
 37 38  1  0
 38 39  1  0
 38 40  1  0
 36 41  1  0
 41 42  2  0
 41 43  1  0
 43 44  1  0
 44 45  1  0
 45 46  1  0
 46 47  1  0
 46 48  1  0
 44 49  1  0
 49 50  2  0
 49 51  1  0
 51 52  1  0
 52 53  1  0
 53 54  1  0
 54 55  1  0
 54 56  1  0
 52 57  1  0
 57 58  2  0
 57 59  1  0
 59 60  1  0
 60 61  1  0
 61 62  1  0
 62 63  1  0
 62 64  1  0
 60 65  1  0
 65 66  2  0
 65 67  1  0
 67 68  2  0
 68 69  1  0
 69 70  2  0
 70 71  1  0
 71 72  2  0
 24 19  1  0
 72 67  1  0
  1 73  1  0
  1 74  1  0
  1 75  1  0
  2 76  1  0
  3 77  1  0
  3 78  1  0
  3 79  1  0
  4 80  1  0
  4 81  1  0
  5 82  1  6
  6 83  1  0
  9 84  1  1
 10 85  1  0
 10 86  1  0
 11 87  1  0
 12 88  1  0
 12 89  1  0
 12 90  1  0
 13 91  1  0
 13 92  1  0
 13 93  1  0
 14 94  1  0
 17 95  1  6
 18 96  1  0
 18 97  1  0
 20 98  1  0
 21 99  1  0
 22100  1  0
 23101  1  0
 24102  1  0
 25103  1  0
 30104  1  0
 30105  1  0
 30106  1  0
 31107  1  0
 31108  1  0
 31109  1  0
 32110  1  0
 32111  1  0
 32112  1  0
 35113  1  0
 36114  1  6
 37115  1  0
 37116  1  0
 38117  1  0
 39118  1  0
 39119  1  0
 39120  1  0
 40121  1  0
 40122  1  0
 40123  1  0
 43124  1  0
 44125  1  6
 45126  1  0
 45127  1  0
 46128  1  0
 47129  1  0
 47130  1  0
 47131  1  0
 48132  1  0
 48133  1  0
 48134  1  0
 51135  1  0
 52136  1  1
 53137  1  0
 53138  1  0
 54139  1  0
 55140  1  0
 55141  1  0
 55142  1  0
 56143  1  0
 56144  1  0
 56145  1  0
 59146  1  0
 60147  1  6
 61148  1  0
 61149  1  0
 62150  1  0
 63151  1  0
 63152  1  0
 63153  1  0
 64154  1  0
 64155  1  0
 64156  1  0
 68157  1  0
 69158  1  0
 70159  1  0
 71160  1  0
 72161  1  0
M  END
$$$$
[H]c1c([H])c([H])c(N2C([H])([H])[C@]([H])(c3c([H])c([H])c(F)c([H])c3[H])[C@]([H])(C([H])([H])[H])C2([H])[H])c([H])c1[H]
     RDKit          3D

 37 39  0  0  0  0  0  0  0  0999 V2000
    1.4572   -2.3830   -0.0029 C   0  0  0  0  0  0  0  0  0  0  0  0
    0.4360   -1.4357    0.5113 C   0  0  2  0  0  0  0  0  0  0  0  0
   -0.7662   -1.2892   -0.4315 C   0  0  0  0  0  0  0  0  0  0  0  0
   -1.2889    0.0084   -0.0512 N   0  0  0  0  0  0  0  0  0  0  0  0
   -0.1347    0.8656    0.1124 C   0  0  0  0  0  0  0  0  0  0  0  0
    0.9100   -0.0229    0.6774 C   0  0  2  0  0  0  0  0  0  0  0  0
    2.2664    0.2168    0.1906 C   0  0  0  0  0  0  0  0  0  0  0  0
    2.5308    0.0968   -1.1575 C   0  0  0  0  0  0  0  0  0  0  0  0
    3.7818    0.3058   -1.6907 C   0  0  0  0  0  0  0  0  0  0  0  0
    4.8409    0.6508   -0.8780 C   0  0  0  0  0  0  0  0  0  0  0  0
    6.0825    0.8594   -1.3984 F   0  0  0  0  0  0  0  0  0  0  0  0
    4.6048    0.7777    0.4747 C   0  0  0  0  0  0  0  0  0  0  0  0
    3.3381    0.5628    0.9901 C   0  0  0  0  0  0  0  0  0  0  0  0
   -2.6438    0.3977    0.1330 C   0  0  0  0  0  0  0  0  0  0  0  0
   -3.0233    1.6719    0.4819 C   0  0  0  0  0  0  0  0  0  0  0  0
   -4.3378    2.0462    0.6603 C   0  0  0  0  0  0  0  0  0  0  0  0
   -5.3398    1.1061    0.4838 C   0  0  0  0  0  0  0  0  0  0  0  0
   -4.9766   -0.1725    0.1347 C   0  0  0  0  0  0  0  0  0  0  0  0
   -3.6612   -0.5483   -0.0441 C   0  0  0  0  0  0  0  0  0  0  0  0
    2.4644   -2.0789    0.4017 H   0  0  0  0  0  0  0  0  0  0  0  0
    1.2685   -3.3900    0.4230 H   0  0  0  0  0  0  0  0  0  0  0  0
    1.5168   -2.4510   -1.1082 H   0  0  0  0  0  0  0  0  0  0  0  0
    0.0076   -1.8536    1.4525 H   0  0  0  0  0  0  0  0  0  0  0  0
   -1.4893   -2.1063   -0.2692 H   0  0  0  0  0  0  0  0  0  0  0  0
   -0.4027   -1.2354   -1.4651 H   0  0  0  0  0  0  0  0  0  0  0  0
    0.0983    1.2698   -0.8922 H   0  0  0  0  0  0  0  0  0  0  0  0
   -0.3519    1.7487    0.7475 H   0  0  0  0  0  0  0  0  0  0  0  0
    0.9388    0.1636    1.7931 H   0  0  0  0  0  0  0  0  0  0  0  0
    1.7194   -0.1717   -1.8185 H   0  0  0  0  0  0  0  0  0  0  0  0
    3.9854    0.2105   -2.7509 H   0  0  0  0  0  0  0  0  0  0  0  0
    5.4525    1.0491    1.0900 H   0  0  0  0  0  0  0  0  0  0  0  0
    3.1843    0.6694    2.0516 H   0  0  0  0  0  0  0  0  0  0  0  0
   -2.2614    2.4218    0.6246 H   0  0  0  0  0  0  0  0  0  0  0  0
   -4.5867    3.0663    0.9362 H   0  0  0  0  0  0  0  0  0  0  0  0
   -6.3627    1.4156    0.6273 H   0  0  0  0  0  0  0  0  0  0  0  0
   -5.8022   -0.8825    0.0057 H   0  0  0  0  0  0  0  0  0  0  0  0
   -3.4553   -1.5596   -0.3151 H   0  0  0  0  0  0  0  0  0  0  0  0
  1  2  1  0
  2  3  1  0
  3  4  1  0
  4  5  1  0
  5  6  1  0
  6  7  1  0
  7  8  2  0
  8  9  1  0
  9 10  2  0
 10 11  1  0
 10 12  1  0
 12 13  2  0
  4 14  1  0
 14 15  2  0
 15 16  1  0
 16 17  2  0
 17 18  1  0
 18 19  2  0
  6  2  1  0
 13  7  1  0
 19 14  1  0
  1 20  1  0
  1 21  1  0
  1 22  1  0
  2 23  1  1
  3 24  1  0
  3 25  1  0
  5 26  1  0
  5 27  1  0
  6 28  1  1
  8 29  1  0
  9 30  1  0
 12 31  1  0
 13 32  1  0
 15 33  1  0
 16 34  1  0
 17 35  1  0
 18 36  1  0
 19 37  1  0
M  END
$$$$
[H]c1c([H])c([H])c([C@]2([H])C([H])([H])C([H])([H])[C@@]([H])(C(=O)N3C([H])([H])C([H])([H])N(c4c([H])c([H])c(C(F)(F)F)c([H])c4[H])C([H])([H])C3([H])[H])C([H])([H])C2([H])[H])c([H])c1[H]
     RDKit          3D

 57 60  0  0  0  0  0  0  0  0999 V2000
    7.7866    1.0831    2.1110 F   0  0  0  0  0  0  0  0  0  0  0  0
    8.1099    0.2912    0.9778 C   0  0  0  0  0  0  0  0  0  0  0  0
    8.6075   -0.9192    1.3913 F   0  0  0  0  0  0  0  0  0  0  0  0
    8.9838    0.9674    0.1407 F   0  0  0  0  0  0  0  0  0  0  0  0
    6.8271    0.0768    0.2877 C   0  0  0  0  0  0  0  0  0  0  0  0
    5.8850   -0.7249    0.8852 C   0  0  0  0  0  0  0  0  0  0  0  0
    4.6520   -0.8518    0.2483 C   0  0  0  0  0  0  0  0  0  0  0  0
    4.3475   -0.2183   -0.9298 C   0  0  0  0  0  0  0  0  0  0  0  0
    5.3499    0.5873   -1.5006 C   0  0  0  0  0  0  0  0  0  0  0  0
    6.5686    0.7376   -0.9077 C   0  0  0  0  0  0  0  0  0  0  0  0
    3.0957   -0.2851   -1.5487 N   0  0  0  0  0  0  0  0  0  0  0  0
    2.1887   -1.3661   -1.5444 C   0  0  0  0  0  0  0  0  0  0  0  0
    1.1856   -0.9736   -0.4308 C   0  0  0  0  0  0  0  0  0  0  0  0
    0.6340    0.3047   -0.7656 N   0  0  0  0  0  0  0  0  0  0  0  0
    1.0954    1.0603   -1.9066 C   0  0  0  0  0  0  0  0  0  0  0  0
    2.6032    0.9476   -2.1887 C   0  0  0  0  0  0  0  0  0  0  0  0
   -0.4443    0.8137    0.0494 C   0  0  0  0  0  0  0  0  0  0  0  0
   -0.8360    2.0021   -0.1270 O   0  0  0  0  0  0  0  0  0  0  0  0
   -1.0163   -0.1226    1.0393 C   0  0  1  0  0  0  0  0  0  0  0  0
   -1.8363    0.6020    2.1217 C   0  0  0  0  0  0  0  0  0  0  0  0
   -3.2984    0.3965    1.9711 C   0  0  0  0  0  0  0  0  0  0  0  0
   -3.7471    0.6717    0.5321 C   0  0  1  0  0  0  0  0  0  0  0  0
   -2.9258   -0.0754   -0.4609 C   0  0  0  0  0  0  0  0  0  0  0  0
   -1.9955   -1.0302    0.3346 C   0  0  0  0  0  0  0  0  0  0  0  0
   -5.1605    0.2360    0.4643 C   0  0  0  0  0  0  0  0  0  0  0  0
   -6.1461    1.1561    0.6432 C   0  0  0  0  0  0  0  0  0  0  0  0
   -7.4856    0.8105    0.5640 C   0  0  0  0  0  0  0  0  0  0  0  0
   -7.7813   -0.5016    0.2891 C   0  0  0  0  0  0  0  0  0  0  0  0
   -6.7900   -1.4729    0.0973 C   0  0  0  0  0  0  0  0  0  0  0  0
   -5.4702   -1.0704    0.1892 C   0  0  0  0  0  0  0  0  0  0  0  0
    6.0876   -1.2673    1.8368 H   0  0  0  0  0  0  0  0  0  0  0  0
    3.9267   -1.5009    0.7194 H   0  0  0  0  0  0  0  0  0  0  0  0
    5.0871    1.0734   -2.4538 H   0  0  0  0  0  0  0  0  0  0  0  0
    7.3286    1.3664   -1.3731 H   0  0  0  0  0  0  0  0  0  0  0  0
    1.5643   -1.3292   -2.4861 H   0  0  0  0  0  0  0  0  0  0  0  0
    2.5866   -2.3674   -1.3958 H   0  0  0  0  0  0  0  0  0  0  0  0
    1.7999   -0.7372    0.5198 H   0  0  0  0  0  0  0  0  0  0  0  0
    0.5513   -1.7944   -0.1553 H   0  0  0  0  0  0  0  0  0  0  0  0
    0.8664    2.1512   -1.8110 H   0  0  0  0  0  0  0  0  0  0  0  0
    0.5888    0.6199   -2.8084 H   0  0  0  0  0  0  0  0  0  0  0  0
    3.0349    1.8327   -1.6426 H   0  0  0  0  0  0  0  0  0  0  0  0
    2.7452    0.9884   -3.2660 H   0  0  0  0  0  0  0  0  0  0  0  0
   -0.2244   -0.7001    1.6042 H   0  0  0  0  0  0  0  0  0  0  0  0
   -1.5350    0.2211    3.1510 H   0  0  0  0  0  0  0  0  0  0  0  0
   -1.6036    1.7083    2.1251 H   0  0  0  0  0  0  0  0  0  0  0  0
   -3.6708   -0.5813    2.3524 H   0  0  0  0  0  0  0  0  0  0  0  0
   -3.7960    1.1771    2.5954 H   0  0  0  0  0  0  0  0  0  0  0  0
   -3.6182    1.7627    0.4061 H   0  0  0  0  0  0  0  0  0  0  0  0
   -3.5333   -0.7153   -1.1524 H   0  0  0  0  0  0  0  0  0  0  0  0
   -2.3366    0.5414   -1.1127 H   0  0  0  0  0  0  0  0  0  0  0  0
   -1.5987   -1.6791   -0.4267 H   0  0  0  0  0  0  0  0  0  0  0  0
   -2.5691   -1.6546    1.0322 H   0  0  0  0  0  0  0  0  0  0  0  0
   -5.8779    2.1941    0.8646 H   0  0  0  0  0  0  0  0  0  0  0  0
   -8.2064    1.5702    0.7135 H   0  0  0  0  0  0  0  0  0  0  0  0
   -8.8193   -0.8054    0.2215 H   0  0  0  0  0  0  0  0  0  0  0  0
   -7.0482   -2.4893   -0.1124 H   0  0  0  0  0  0  0  0  0  0  0  0
   -4.7168   -1.8509    0.0281 H   0  0  0  0  0  0  0  0  0  0  0  0
  1  2  1  0
  2  3  1  0
  2  4  1  0
  2  5  1  0
  5  6  2  0
  6  7  1  0
  7  8  2  0
  8  9  1  0
  9 10  2  0
  8 11  1  0
 11 12  1  0
 12 13  1  0
 13 14  1  0
 14 15  1  0
 15 16  1  0
 14 17  1  0
 17 18  2  0
 17 19  1  0
 19 20  1  0
 20 21  1  0
 21 22  1  0
 22 23  1  0
 23 24  1  0
 22 25  1  0
 25 26  2  0
 26 27  1  0
 27 28  2  0
 28 29  1  0
 29 30  2  0
 10  5  1  0
 16 11  1  0
 24 19  1  0
 30 25  1  0
  6 31  1  0
  7 32  1  0
  9 33  1  0
 10 34  1  0
 12 35  1  0
 12 36  1  0
 13 37  1  0
 13 38  1  0
 15 39  1  0
 15 40  1  0
 16 41  1  0
 16 42  1  0
 19 43  1  1
 20 44  1  0
 20 45  1  0
 21 46  1  0
 21 47  1  0
 22 48  1  6
 23 49  1  0
 23 50  1  0
 24 51  1  0
 24 52  1  0
 26 53  1  0
 27 54  1  0
 28 55  1  0
 29 56  1  0
 30 57  1  0
M  END
$$$$
[H]ON([H])C(=O)[C@]1([H])N(S(=O)(=O)c2c([H])c([H])c(OC([H])([H])[H])c([H])c2[H])C([H])([H])[C@@]([H])(c2c([H])c([H])c(F)c(F)c2[H])C1([H])[H]
     RDKit          3D

 46 48  0  0  0  0  0  0  0  0999 V2000
    4.6546   -3.6098   -0.2022 C   0  0  0  0  0  0  0  0  0  0  0  0
    4.5708   -2.5378    0.7053 O   0  0  0  0  0  0  0  0  0  0  0  0
    3.7967   -1.4314    0.3205 C   0  0  0  0  0  0  0  0  0  0  0  0
    3.6654   -0.3367    1.1591 C   0  0  0  0  0  0  0  0  0  0  0  0
    2.9106    0.7572    0.7991 C   0  0  0  0  0  0  0  0  0  0  0  0
    2.2587    0.7971   -0.4137 C   0  0  0  0  0  0  0  0  0  0  0  0
    2.3835   -0.2857   -1.2531 C   0  0  0  0  0  0  0  0  0  0  0  0
    3.1388   -1.3775   -0.8898 C   0  0  0  0  0  0  0  0  0  0  0  0
    1.2962    2.1805   -0.8870 S   0  0  0  0  0  0  0  0  0  0  0  0
    1.3142    2.2047   -2.4100 O   0  0  0  0  0  0  0  0  0  0  0  0
    1.9942    3.4013   -0.4304 O   0  0  0  0  0  0  0  0  0  0  0  0
   -0.2782    1.9772   -0.3766 N   0  0  0  0  0  0  0  0  0  0  0  0
   -0.8907    0.8319   -0.9656 C   0  0  0  0  0  0  0  0  0  0  0  0
   -2.1129    0.6308   -0.0597 C   0  0  2  0  0  0  0  0  0  0  0  0
   -1.4848    0.8649    1.2982 C   0  0  0  0  0  0  0  0  0  0  0  0
   -0.5840    2.0681    0.9863 C   0  0  2  0  0  0  0  0  0  0  0  0
   -1.1426    3.3159    1.4731 C   0  0  0  0  0  0  0  0  0  0  0  0
   -1.4359    3.4510    2.6878 O   0  0  0  0  0  0  0  0  0  0  0  0
   -1.3834    4.4295    0.6221 N   0  0  0  0  0  0  0  0  0  0  0  0
   -1.9037    5.5939    1.0719 O   0  0  0  0  0  0  0  0  0  0  0  0
   -2.6254   -0.7647   -0.2010 C   0  0  0  0  0  0  0  0  0  0  0  0
   -1.8391   -1.8608    0.0628 C   0  0  0  0  0  0  0  0  0  0  0  0
   -2.3492   -3.1561   -0.0791 C   0  0  0  0  0  0  0  0  0  0  0  0
   -3.6489   -3.3721   -0.4857 C   0  0  0  0  0  0  0  0  0  0  0  0
   -4.1503   -4.6365   -0.6254 F   0  0  0  0  0  0  0  0  0  0  0  0
   -4.4347   -2.2704   -0.7494 C   0  0  0  0  0  0  0  0  0  0  0  0
   -5.7182   -2.4320   -1.1515 F   0  0  0  0  0  0  0  0  0  0  0  0
   -3.9235   -0.9828   -0.6071 C   0  0  0  0  0  0  0  0  0  0  0  0
    3.6359   -4.0707   -0.2797 H   0  0  0  0  0  0  0  0  0  0  0  0
    5.3756   -4.3594    0.2009 H   0  0  0  0  0  0  0  0  0  0  0  0
    4.9541   -3.2518   -1.2147 H   0  0  0  0  0  0  0  0  0  0  0  0
    4.1786   -0.3605    2.1217 H   0  0  0  0  0  0  0  0  0  0  0  0
    2.8158    1.6135    1.4703 H   0  0  0  0  0  0  0  0  0  0  0  0
    1.8946   -0.3232   -2.2299 H   0  0  0  0  0  0  0  0  0  0  0  0
    3.2173   -2.2161   -1.5746 H   0  0  0  0  0  0  0  0  0  0  0  0
   -1.2122    1.0193   -2.0122 H   0  0  0  0  0  0  0  0  0  0  0  0
   -0.2523   -0.0548   -0.8617 H   0  0  0  0  0  0  0  0  0  0  0  0
   -2.8864    1.3542   -0.3157 H   0  0  0  0  0  0  0  0  0  0  0  0
   -0.8627   -0.0352    1.5136 H   0  0  0  0  0  0  0  0  0  0  0  0
   -2.1985    1.0703    2.0902 H   0  0  0  0  0  0  0  0  0  0  0  0
    0.3587    1.8582    1.5753 H   0  0  0  0  0  0  0  0  0  0  0  0
   -1.1671    4.4053   -0.4130 H   0  0  0  0  0  0  0  0  0  0  0  0
   -2.8128    5.7614    0.7183 H   0  0  0  0  0  0  0  0  0  0  0  0
   -0.8299   -1.7291    0.3788 H   0  0  0  0  0  0  0  0  0  0  0  0
   -1.7512   -4.0277    0.1221 H   0  0  0  0  0  0  0  0  0  0  0  0
   -4.5356   -0.1036   -0.8129 H   0  0  0  0  0  0  0  0  0  0  0  0
  1  2  1  0
  2  3  1  0
  3  4  2  0
  4  5  1  0
  5  6  2  0
  6  7  1  0
  7  8  2  0
  6  9  1  0
  9 10  2  0
  9 11  2  0
  9 12  1  0
 12 13  1  0
 13 14  1  0
 14 15  1  0
 15 16  1  0
 16 17  1  0
 17 18  2  0
 17 19  1  0
 19 20  1  0
 14 21  1  0
 21 22  2  0
 22 23  1  0
 23 24  2  0
 24 25  1  0
 24 26  1  0
 26 27  1  0
 26 28  2  0
  8  3  1  0
 16 12  1  0
 28 21  1  0
  1 29  1  0
  1 30  1  0
  1 31  1  0
  4 32  1  0
  5 33  1  0
  7 34  1  0
  8 35  1  0
 13 36  1  0
 13 37  1  0
 14 38  1  6
 15 39  1  0
 15 40  1  0
 16 41  1  1
 19 42  1  0
 20 43  1  0
 22 44  1  0
 23 45  1  0
 28 46  1  0
M  END
$$$$
[H]OC(=O)c1c([H])c([H])c(-c2c([H])c([H])c([H])c(C(=O)N([H])[C@]([H])(c3c([H])c([H])c(OC([H])([H])[H])c(OC([H])([H])[H])c3[H])C([H])([H])c3c([H])n([H])c4c([H])c([H])c([H])c([H])c34)c2[H])c([H])c1[H]
     RDKit          3D

 67 71  0  0  0  0  0  0  0  0999 V2000
   -4.3701   -5.3272   -1.3957 C   0  0  0  0  0  0  0  0  0  0  0  0
   -3.4903   -4.4167   -1.9807 O   0  0  0  0  0  0  0  0  0  0  0  0
   -3.1224   -3.2139   -1.3804 C   0  0  0  0  0  0  0  0  0  0  0  0
   -3.6554   -2.9183   -0.1543 C   0  0  0  0  0  0  0  0  0  0  0  0
   -3.3136   -1.7189    0.4889 C   0  0  0  0  0  0  0  0  0  0  0  0
   -2.4400   -0.8675   -0.1433 C   0  0  0  0  0  0  0  0  0  0  0  0
   -1.8842   -1.1284   -1.3720 C   0  0  0  0  0  0  0  0  0  0  0  0
   -2.2405   -2.3156   -1.9808 C   0  0  0  0  0  0  0  0  0  0  0  0
   -1.7254   -2.6291   -3.2066 O   0  0  0  0  0  0  0  0  0  0  0  0
   -0.8464   -1.7722   -3.8753 C   0  0  0  0  0  0  0  0  0  0  0  0
   -2.0741    0.4343    0.5431 C   0  0  2  0  0  0  0  0  0  0  0  0
   -2.6584    1.4986   -0.3411 C   0  0  0  0  0  0  0  0  0  0  0  0
   -2.4329    2.8687    0.0899 C   0  0  0  0  0  0  0  0  0  0  0  0
   -1.4709    3.7271   -0.3941 C   0  0  0  0  0  0  0  0  0  0  0  0
   -1.5211    4.9068    0.2269 N   0  0  0  0  0  0  0  0  0  0  0  0
   -2.5235    4.8220    1.1264 C   0  0  0  0  0  0  0  0  0  0  0  0
   -2.9944    5.7796    2.0265 C   0  0  0  0  0  0  0  0  0  0  0  0
   -4.0545    5.4948    2.8742 C   0  0  0  0  0  0  0  0  0  0  0  0
   -4.6356    4.2542    2.8157 C   0  0  0  0  0  0  0  0  0  0  0  0
   -4.1667    3.2933    1.9169 C   0  0  0  0  0  0  0  0  0  0  0  0
   -3.1095    3.5686    1.0670 C   0  0  0  0  0  0  0  0  0  0  0  0
   -0.6442    0.5420    0.6425 N   0  0  0  0  0  0  0  0  0  0  0  0
   -0.0090    0.1673    1.8829 C   0  0  0  0  0  0  0  0  0  0  0  0
   -0.7105   -0.2414    2.8255 O   0  0  0  0  0  0  0  0  0  0  0  0
    1.4319    0.2604    2.0584 C   0  0  0  0  0  0  0  0  0  0  0  0
    1.9704    0.9737    3.1177 C   0  0  0  0  0  0  0  0  0  0  0  0
    3.3330    1.0785    3.2515 C   0  0  0  0  0  0  0  0  0  0  0  0
    4.1912    0.4846    2.3489 C   0  0  0  0  0  0  0  0  0  0  0  0
    3.6737   -0.2268    1.2948 C   0  0  0  0  0  0  0  0  0  0  0  0
    2.3141   -0.3279    1.1667 C   0  0  0  0  0  0  0  0  0  0  0  0
    4.5597   -0.8403    0.3045 C   0  0  0  0  0  0  0  0  0  0  0  0
    5.8285   -1.2549    0.6855 C   0  0  0  0  0  0  0  0  0  0  0  0
    6.6705   -1.8484   -0.2489 C   0  0  0  0  0  0  0  0  0  0  0  0
    6.2818   -2.0439   -1.5622 C   0  0  0  0  0  0  0  0  0  0  0  0
    5.0165   -1.6297   -1.9278 C   0  0  0  0  0  0  0  0  0  0  0  0
    4.1960   -1.0480   -1.0071 C   0  0  0  0  0  0  0  0  0  0  0  0
    7.1356   -2.6361   -2.5542 C   0  0  0  0  0  0  0  0  0  0  0  0
    6.6954   -2.8392   -3.8394 O   0  0  0  0  0  0  0  0  0  0  0  0
    8.3010   -2.9787   -2.2543 O   0  0  0  0  0  0  0  0  0  0  0  0
   -4.7896   -5.9757   -2.2201 H   0  0  0  0  0  0  0  0  0  0  0  0
   -3.8912   -6.0256   -0.6663 H   0  0  0  0  0  0  0  0  0  0  0  0
   -5.2475   -4.8180   -0.9538 H   0  0  0  0  0  0  0  0  0  0  0  0
   -4.3415   -3.5685    0.3683 H   0  0  0  0  0  0  0  0  0  0  0  0
   -3.7582   -1.5126    1.4701 H   0  0  0  0  0  0  0  0  0  0  0  0
   -1.1849   -0.4201   -1.8510 H   0  0  0  0  0  0  0  0  0  0  0  0
   -0.8628   -2.0844   -4.9523 H   0  0  0  0  0  0  0  0  0  0  0  0
    0.1827   -1.8569   -3.4607 H   0  0  0  0  0  0  0  0  0  0  0  0
   -1.1183   -0.7074   -3.8744 H   0  0  0  0  0  0  0  0  0  0  0  0
   -2.5589    0.4369    1.5205 H   0  0  0  0  0  0  0  0  0  0  0  0
   -3.7828    1.3218   -0.2923 H   0  0  0  0  0  0  0  0  0  0  0  0
   -2.4391    1.3078   -1.4321 H   0  0  0  0  0  0  0  0  0  0  0  0
   -0.7718    3.4383   -1.1892 H   0  0  0  0  0  0  0  0  0  0  0  0
   -0.8911    5.7450    0.0482 H   0  0  0  0  0  0  0  0  0  0  0  0
   -2.5504    6.7503    2.0880 H   0  0  0  0  0  0  0  0  0  0  0  0
   -4.4495    6.2229    3.5889 H   0  0  0  0  0  0  0  0  0  0  0  0
   -5.4549    4.0198    3.4682 H   0  0  0  0  0  0  0  0  0  0  0  0
   -4.6202    2.2936    1.8502 H   0  0  0  0  0  0  0  0  0  0  0  0
   -0.0723    0.8854   -0.1373 H   0  0  0  0  0  0  0  0  0  0  0  0
    1.3216    1.4280    3.8149 H   0  0  0  0  0  0  0  0  0  0  0  0
    3.7407    1.6484    4.0907 H   0  0  0  0  0  0  0  0  0  0  0  0
    5.2840    0.5733    2.4566 H   0  0  0  0  0  0  0  0  0  0  0  0
    1.9136   -0.9016    0.3176 H   0  0  0  0  0  0  0  0  0  0  0  0
    6.1376   -1.1056    1.7062 H   0  0  0  0  0  0  0  0  0  0  0  0
    7.6597   -2.1727    0.0182 H   0  0  0  0  0  0  0  0  0  0  0  0
    4.7148   -1.7950   -2.9710 H   0  0  0  0  0  0  0  0  0  0  0  0
    3.2049   -0.7310   -1.3129 H   0  0  0  0  0  0  0  0  0  0  0  0
    7.1199   -2.3276   -4.6286 H   0  0  0  0  0  0  0  0  0  0  0  0
  1  2  1  0
  2  3  1  0
  3  4  2  0
  4  5  1  0
  5  6  2  0
  6  7  1  0
  7  8  2  0
  8  9  1  0
  9 10  1  0
  6 11  1  0
 11 12  1  0
 12 13  1  0
 13 14  2  0
 14 15  1  0
 15 16  1  0
 16 17  2  0
 17 18  1  0
 18 19  2  0
 19 20  1  0
 20 21  2  0
 11 22  1  0
 22 23  1  0
 23 24  2  0
 23 25  1  0
 25 26  2  0
 26 27  1  0
 27 28  2  0
 28 29  1  0
 29 30  2  0
 29 31  1  0
 31 32  2  0
 32 33  1  0
 33 34  2  0
 34 35  1  0
 35 36  2  0
 34 37  1  0
 37 38  1  0
 37 39  2  0
  8  3  1  0
 21 13  1  0
 30 25  1  0
 36 31  1  0
 21 16  1  0
  1 40  1  0
  1 41  1  0
  1 42  1  0
  4 43  1  0
  5 44  1  0
  7 45  1  0
 10 46  1  0
 10 47  1  0
 10 48  1  0
 11 49  1  1
 12 50  1  0
 12 51  1  0
 14 52  1  0
 15 53  1  0
 17 54  1  0
 18 55  1  0
 19 56  1  0
 20 57  1  0
 22 58  1  0
 26 59  1  0
 27 60  1  0
 28 61  1  0
 30 62  1  0
 32 63  1  0
 33 64  1  0
 35 65  1  0
 36 66  1  0
 38 67  1  0
M  END
$$$$
[H]c1nn(C([H])([H])[H])c([H])c1-c1nn([H])c2nc(N([H])c3c([H])c([H])c(N4C([H])([H])C([H])([H])N(C([H])([H])[H])C([H])([H])C4([H])[H])c([H])c3[H])nc([H])c12
     RDKit          3D

 52 56  0  0  0  0  0  0  0  0999 V2000
   -8.5252   -0.5477    0.4080 C   0  0  0  0  0  0  0  0  0  0  0  0
   -7.0889   -0.8137    0.2480 N   0  0  0  0  0  0  0  0  0  0  0  0
   -6.8176   -0.7627   -1.1698 C   0  0  0  0  0  0  0  0  0  0  0  0
   -5.3719   -0.8511   -1.5198 C   0  0  0  0  0  0  0  0  0  0  0  0
   -4.5300   -0.2764   -0.5244 N   0  0  0  0  0  0  0  0  0  0  0  0
   -4.9200    0.1867    0.7840 C   0  0  0  0  0  0  0  0  0  0  0  0
   -6.3974    0.2638    0.9372 C   0  0  0  0  0  0  0  0  0  0  0  0
   -3.1290   -0.1465   -0.8672 C   0  0  0  0  0  0  0  0  0  0  0  0
   -2.6421   -0.5562   -2.0870 C   0  0  0  0  0  0  0  0  0  0  0  0
   -1.3277   -0.4367   -2.4128 C   0  0  0  0  0  0  0  0  0  0  0  0
   -0.4133    0.1234   -1.4842 C   0  0  0  0  0  0  0  0  0  0  0  0
    0.9283    0.2583   -1.8737 N   0  0  0  0  0  0  0  0  0  0  0  0
    2.0209    0.2178   -0.9779 C   0  0  0  0  0  0  0  0  0  0  0  0
    3.2878    0.3858   -1.4901 N   0  0  0  0  0  0  0  0  0  0  0  0
    4.3785    0.3345   -0.7141 C   0  0  0  0  0  0  0  0  0  0  0  0
    4.2896    0.1100    0.6428 C   0  0  0  0  0  0  0  0  0  0  0  0
    5.1694   -0.0002    1.6964 C   0  0  0  0  0  0  0  0  0  0  0  0
    4.4413   -0.2280    2.8064 N   0  0  0  0  0  0  0  0  0  0  0  0
    3.1662   -0.2604    2.4726 N   0  0  0  0  0  0  0  0  0  0  0  0
    3.0203   -0.0579    1.1538 C   0  0  0  0  0  0  0  0  0  0  0  0
    1.9366    0.0017    0.3287 N   0  0  0  0  0  0  0  0  0  0  0  0
    6.6296    0.1177    1.5771 C   0  0  0  0  0  0  0  0  0  0  0  0
    7.4634    0.8402    2.4119 C   0  0  0  0  0  0  0  0  0  0  0  0
    8.7035    0.6845    1.9581 N   0  0  0  0  0  0  0  0  0  0  0  0
    8.7308   -0.0890    0.8870 N   0  0  0  0  0  0  0  0  0  0  0  0
    9.9177   -0.4655    0.1392 C   0  0  0  0  0  0  0  0  0  0  0  0
    7.4593   -0.4520    0.6321 C   0  0  0  0  0  0  0  0  0  0  0  0
   -0.8827    0.5348   -0.2709 C   0  0  0  0  0  0  0  0  0  0  0  0
   -2.2446    0.3946    0.0283 C   0  0  0  0  0  0  0  0  0  0  0  0
   -9.0839   -1.0132   -0.4331 H   0  0  0  0  0  0  0  0  0  0  0  0
   -8.6207    0.5658    0.2699 H   0  0  0  0  0  0  0  0  0  0  0  0
   -8.8771   -0.8703    1.3979 H   0  0  0  0  0  0  0  0  0  0  0  0
   -7.2821    0.1705   -1.5515 H   0  0  0  0  0  0  0  0  0  0  0  0
   -7.3490   -1.6241   -1.6303 H   0  0  0  0  0  0  0  0  0  0  0  0
   -5.1208   -1.9423   -1.6743 H   0  0  0  0  0  0  0  0  0  0  0  0
   -5.2302   -0.2870   -2.4683 H   0  0  0  0  0  0  0  0  0  0  0  0
   -4.5177    1.2172    0.8903 H   0  0  0  0  0  0  0  0  0  0  0  0
   -4.4890   -0.4793    1.5677 H   0  0  0  0  0  0  0  0  0  0  0  0
   -6.6350    0.1266    2.0258 H   0  0  0  0  0  0  0  0  0  0  0  0
   -6.7713    1.2542    0.6647 H   0  0  0  0  0  0  0  0  0  0  0  0
   -3.3495   -0.9882   -2.8011 H   0  0  0  0  0  0  0  0  0  0  0  0
   -0.9393   -0.7501   -3.3535 H   0  0  0  0  0  0  0  0  0  0  0  0
    1.1012    0.4003   -2.9181 H   0  0  0  0  0  0  0  0  0  0  0  0
    5.3872    0.4692   -1.1277 H   0  0  0  0  0  0  0  0  0  0  0  0
    2.3455   -0.4209    3.1253 H   0  0  0  0  0  0  0  0  0  0  0  0
    7.0984    1.4103    3.2678 H   0  0  0  0  0  0  0  0  0  0  0  0
   10.6743    0.3665    0.1701 H   0  0  0  0  0  0  0  0  0  0  0  0
    9.6900   -0.6244   -0.9338 H   0  0  0  0  0  0  0  0  0  0  0  0
   10.3545   -1.4190    0.5106 H   0  0  0  0  0  0  0  0  0  0  0  0
    7.1378   -1.0986   -0.1969 H   0  0  0  0  0  0  0  0  0  0  0  0
   -0.2328    0.9910    0.4717 H   0  0  0  0  0  0  0  0  0  0  0  0
   -2.5433    0.7407    1.0073 H   0  0  0  0  0  0  0  0  0  0  0  0
  1  2  1  0
  2  3  1  0
  3  4  1  0
  4  5  1  0
  5  6  1  0
  6  7  1  0
  5  8  1  0
  8  9  2  0
  9 10  1  0
 10 11  2  0
 11 12  1  0
 12 13  1  0
 13 14  2  0
 14 15  1  0
 15 16  2  0
 16 17  1  0
 17 18  2  0
 18 19  1  0
 19 20  1  0
 20 21  2  0
 17 22  1  0
 22 23  1  0
 23 24  2  0
 24 25  1  0
 25 26  1  0
 25 27  1  0
 11 28  1  0
 28 29  2  0
  7  2  1  0
 29  8  1  0
 21 13  1  0
 27 22  2  0
 20 16  1  0
  1 30  1  0
  1 31  1  0
  1 32  1  0
  3 33  1  0
  3 34  1  0
  4 35  1  0
  4 36  1  0
  6 37  1  0
  6 38  1  0
  7 39  1  0
  7 40  1  0
  9 41  1  0
 10 42  1  0
 12 43  1  0
 15 44  1  0
 19 45  1  0
 23 46  1  0
 26 47  1  0
 26 48  1  0
 26 49  1  0
 27 50  1  0
 28 51  1  0
 29 52  1  0
M  END
$$$$
[H]c1nc(N([H])c2c([H])c([H])c(N3C([H])([H])C([H])([H])OC([H])([H])C3([H])[H])c([H])c2OC([H])([H])[H])nc(N([H])c2c([H])c([H])c([H])c([H])c2S(=O)(=O)C(C([H])([H])[H])(C([H])([H])[H])C([H])([H])[H])c1Cl
     RDKit          3D

 66 69  0  0  0  0  0  0  0  0999 V2000
    3.3554    0.7312    3.9845 C   0  0  0  0  0  0  0  0  0  0  0  0
    2.7493    0.4500    2.7535 O   0  0  0  0  0  0  0  0  0  0  0  0
    3.5349    0.0918    1.6725 C   0  0  0  0  0  0  0  0  0  0  0  0
    4.8992    0.0058    1.7775 C   0  0  0  0  0  0  0  0  0  0  0  0
    5.7218   -0.3433    0.7420 C   0  0  0  0  0  0  0  0  0  0  0  0
    5.1000   -0.6177   -0.4628 C   0  0  0  0  0  0  0  0  0  0  0  0
    3.7121   -0.5393   -0.6030 C   0  0  0  0  0  0  0  0  0  0  0  0
    2.9028   -0.1884    0.4415 C   0  0  0  0  0  0  0  0  0  0  0  0
    1.5166   -0.0834    0.3840 N   0  0  0  0  0  0  0  0  0  0  0  0
    0.6885   -0.3114   -0.7308 C   0  0  0  0  0  0  0  0  0  0  0  0
    1.0830   -0.6758   -1.9501 N   0  0  0  0  0  0  0  0  0  0  0  0
    0.2101   -0.8571   -2.9226 C   0  0  0  0  0  0  0  0  0  0  0  0
   -1.1364   -0.6751   -2.7070 C   0  0  0  0  0  0  0  0  0  0  0  0
   -2.2467   -0.9185   -4.0001 Cl  0  0  0  0  0  0  0  0  0  0  0  0
   -1.6091   -0.2919   -1.4448 C   0  0  0  0  0  0  0  0  0  0  0  0
   -2.9908   -0.1215   -1.2866 N   0  0  0  0  0  0  0  0  0  0  0  0
   -3.7271    0.2591   -0.1346 C   0  0  0  0  0  0  0  0  0  0  0  0
   -3.1388    0.5354    1.0731 C   0  0  0  0  0  0  0  0  0  0  0  0
   -3.9257    0.9000    2.1435 C   0  0  0  0  0  0  0  0  0  0  0  0
   -5.2870    1.0036    2.0656 C   0  0  0  0  0  0  0  0  0  0  0  0
   -5.8655    0.7159    0.8193 C   0  0  0  0  0  0  0  0  0  0  0  0
   -5.1196    0.3492   -0.2713 C   0  0  0  0  0  0  0  0  0  0  0  0
   -5.9010    0.0103   -1.7983 S   0  0  0  0  0  0  0  0  0  0  0  0
   -5.4210    1.0037   -2.8373 O   0  0  0  0  0  0  0  0  0  0  0  0
   -5.6578   -1.4051   -2.2222 O   0  0  0  0  0  0  0  0  0  0  0  0
   -7.6739    0.1630   -1.7325 C   0  0  0  0  0  0  0  0  0  0  0  0
   -8.2467   -0.8096   -0.7311 C   0  0  0  0  0  0  0  0  0  0  0  0
   -8.2518   -0.2150   -3.0923 C   0  0  0  0  0  0  0  0  0  0  0  0
   -8.1476    1.5417   -1.4101 C   0  0  0  0  0  0  0  0  0  0  0  0
   -0.6450   -0.1374   -0.5408 N   0  0  0  0  0  0  0  0  0  0  0  0
    7.1407   -0.4086    0.8840 N   0  0  0  0  0  0  0  0  0  0  0  0
    7.9263   -1.0220   -0.1486 C   0  0  0  0  0  0  0  0  0  0  0  0
    9.4121   -0.8891    0.1290 C   0  0  0  0  0  0  0  0  0  0  0  0
    9.6892    0.3927    0.6334 O   0  0  0  0  0  0  0  0  0  0  0  0
    9.1659    0.5564    1.8860 C   0  0  0  0  0  0  0  0  0  0  0  0
    7.7478    0.1454    2.0516 C   0  0  0  0  0  0  0  0  0  0  0  0
    4.1303    1.4961    3.8850 H   0  0  0  0  0  0  0  0  0  0  0  0
    3.8279   -0.2133    4.3583 H   0  0  0  0  0  0  0  0  0  0  0  0
    2.6125    1.0533    4.7535 H   0  0  0  0  0  0  0  0  0  0  0  0
    5.3037    0.2339    2.7617 H   0  0  0  0  0  0  0  0  0  0  0  0
    5.7021   -0.8942   -1.2991 H   0  0  0  0  0  0  0  0  0  0  0  0
    3.3509   -0.7732   -1.5775 H   0  0  0  0  0  0  0  0  0  0  0  0
    1.0106    0.2041    1.2936 H   0  0  0  0  0  0  0  0  0  0  0  0
    0.5490   -1.1582   -3.9247 H   0  0  0  0  0  0  0  0  0  0  0  0
   -3.5692   -0.3050   -2.1589 H   0  0  0  0  0  0  0  0  0  0  0  0
   -2.0578    0.4719    1.2001 H   0  0  0  0  0  0  0  0  0  0  0  0
   -3.3988    1.1105    3.0890 H   0  0  0  0  0  0  0  0  0  0  0  0
   -5.8979    1.2918    2.9145 H   0  0  0  0  0  0  0  0  0  0  0  0
   -6.9480    0.8100    0.7836 H   0  0  0  0  0  0  0  0  0  0  0  0
   -7.4278   -1.3323   -0.1715 H   0  0  0  0  0  0  0  0  0  0  0  0
   -8.7796   -1.6096   -1.2748 H   0  0  0  0  0  0  0  0  0  0  0  0
   -8.9534   -0.3028   -0.0442 H   0  0  0  0  0  0  0  0  0  0  0  0
   -7.5563   -0.9294   -3.5736 H   0  0  0  0  0  0  0  0  0  0  0  0
   -9.2430   -0.6488   -2.9272 H   0  0  0  0  0  0  0  0  0  0  0  0
   -8.2712    0.6913   -3.7383 H   0  0  0  0  0  0  0  0  0  0  0  0
   -8.9647    1.5790   -0.6612 H   0  0  0  0  0  0  0  0  0  0  0  0
   -7.2918    2.1991   -1.1267 H   0  0  0  0  0  0  0  0  0  0  0  0
   -8.5536    1.9991   -2.3309 H   0  0  0  0  0  0  0  0  0  0  0  0
    7.7035   -0.6713   -1.1710 H   0  0  0  0  0  0  0  0  0  0  0  0
    7.6877   -2.1211   -0.1092 H   0  0  0  0  0  0  0  0  0  0  0  0
    9.7875   -1.6570    0.8343 H   0  0  0  0  0  0  0  0  0  0  0  0
    9.9626   -0.9922   -0.8250 H   0  0  0  0  0  0  0  0  0  0  0  0
    9.7817    0.0473    2.6813 H   0  0  0  0  0  0  0  0  0  0  0  0
    9.2336    1.6506    2.1301 H   0  0  0  0  0  0  0  0  0  0  0  0
    7.6082   -0.5932    2.8794 H   0  0  0  0  0  0  0  0  0  0  0  0
    7.0970    1.0182    2.3824 H   0  0  0  0  0  0  0  0  0  0  0  0
  1  2  1  0
  2  3  1  0
  3  4  2  0
  4  5  1  0
  5  6  2  0
  6  7  1  0
  7  8  2  0
  8  9  1  0
  9 10  1  0
 10 11  2  0
 11 12  1  0
 12 13  2  0
 13 14  1  0
 13 15  1  0
 15 16  1  0
 16 17  1  0
 17 18  2  0
 18 19  1  0
 19 20  2  0
 20 21  1  0
 21 22  2  0
 22 23  1  0
 23 24  2  0
 23 25  2  0
 23 26  1  0
 26 27  1  0
 26 28  1  0
 26 29  1  0
 15 30  2  0
  5 31  1  0
 31 32  1  0
 32 33  1  0
 33 34  1  0
 34 35  1  0
 35 36  1  0
  8  3  1  0
 30 10  1  0
 36 31  1  0
 22 17  1  0
  1 37  1  0
  1 38  1  0
  1 39  1  0
  4 40  1  0
  6 41  1  0
  7 42  1  0
  9 43  1  0
 12 44  1  0
 16 45  1  0
 18 46  1  0
 19 47  1  0
 20 48  1  0
 21 49  1  0
 27 50  1  0
 27 51  1  0
 27 52  1  0
 28 53  1  0
 28 54  1  0
 28 55  1  0
 29 56  1  0
 29 57  1  0
 29 58  1  0
 32 59  1  0
 32 60  1  0
 33 61  1  0
 33 62  1  0
 35 63  1  0
 35 64  1  0
 36 65  1  0
 36 66  1  0
M  END
$$$$
[H]c1nn(C([H])([H])[H])c([H])c1-c1c([H])c([H])c(N([H])[H])c(C(=O)N2C([H])([H])[C@@]3([H])C([H])([H])N(S(=O)(=O)c4c([H])c([H])c(OC([H])([H])[H])c([H])c4[H])C([H])([H])[C@@]23[H])c1[H]
     RDKit          3D

 58 62  0  0  0  0  0  0  0  0999 V2000
    8.7571    1.3683    1.3624 C   0  0  0  0  0  0  0  0  0  0  0  0
    8.1896    0.7501    0.2230 O   0  0  0  0  0  0  0  0  0  0  0  0
    6.9224    0.1843    0.3604 C   0  0  0  0  0  0  0  0  0  0  0  0
    6.2352    0.2182    1.5587 C   0  0  0  0  0  0  0  0  0  0  0  0
    4.9753   -0.3368    1.7196 C   0  0  0  0  0  0  0  0  0  0  0  0
    4.3792   -0.9460    0.6522 C   0  0  0  0  0  0  0  0  0  0  0  0
    5.0179   -1.0052   -0.5534 C   0  0  0  0  0  0  0  0  0  0  0  0
    6.2779   -0.4413   -0.6851 C   0  0  0  0  0  0  0  0  0  0  0  0
    2.8002   -1.6483    0.8366 S   0  0  0  0  0  0  0  0  0  0  0  0
    2.6620   -2.7826   -0.1375 O   0  0  0  0  0  0  0  0  0  0  0  0
    2.6047   -2.1640    2.2420 O   0  0  0  0  0  0  0  0  0  0  0  0
    1.6272   -0.4489    0.4574 N   0  0  0  0  0  0  0  0  0  0  0  0
    1.6997    0.6939    1.3469 C   0  0  0  0  0  0  0  0  0  0  0  0
    0.7472    1.6634    0.6704 C   0  0  1  0  0  0  0  0  0  0  0  0
    0.9089    1.3497   -0.7618 C   0  0  1  0  0  0  0  0  0  0  0  0
    1.7596    0.0904   -0.8569 C   0  0  0  0  0  0  0  0  0  0  0  0
   -0.4997    0.9261   -0.8634 N   0  0  0  0  0  0  0  0  0  0  0  0
   -0.6498    1.2118    0.5203 C   0  0  0  0  0  0  0  0  0  0  0  0
   -1.2223    0.4494   -2.0034 C   0  0  0  0  0  0  0  0  0  0  0  0
   -0.5979    0.3607   -3.1169 O   0  0  0  0  0  0  0  0  0  0  0  0
   -2.6062    0.0630   -1.9770 C   0  0  0  0  0  0  0  0  0  0  0  0
   -3.4438    0.0913   -0.8999 C   0  0  0  0  0  0  0  0  0  0  0  0
   -4.7889   -0.3029   -0.9576 C   0  0  0  0  0  0  0  0  0  0  0  0
   -5.3088   -0.7394   -2.1348 C   0  0  0  0  0  0  0  0  0  0  0  0
   -4.5025   -0.7829   -3.2377 C   0  0  0  0  0  0  0  0  0  0  0  0
   -3.1826   -0.3933   -3.1705 C   0  0  0  0  0  0  0  0  0  0  0  0
   -2.4015   -0.4638   -4.3433 N   0  0  0  0  0  0  0  0  0  0  0  0
   -5.5379   -0.2078    0.2891 C   0  0  0  0  0  0  0  0  0  0  0  0
   -5.3335    0.7280    1.2874 C   0  0  0  0  0  0  0  0  0  0  0  0
   -6.2246    0.4771    2.2666 N   0  0  0  0  0  0  0  0  0  0  0  0
   -6.9801   -0.5533    1.9587 N   0  0  0  0  0  0  0  0  0  0  0  0
   -8.0663   -1.1475    2.7530 C   0  0  0  0  0  0  0  0  0  0  0  0
   -6.5774   -0.9909    0.7492 C   0  0  0  0  0  0  0  0  0  0  0  0
    9.7580    1.7938    1.1514 H   0  0  0  0  0  0  0  0  0  0  0  0
    8.0364    2.1366    1.7134 H   0  0  0  0  0  0  0  0  0  0  0  0
    8.7949    0.5823    2.1641 H   0  0  0  0  0  0  0  0  0  0  0  0
    6.7359    0.7113    2.3976 H   0  0  0  0  0  0  0  0  0  0  0  0
    4.4940   -0.2698    2.7030 H   0  0  0  0  0  0  0  0  0  0  0  0
    4.5553   -1.4930   -1.4343 H   0  0  0  0  0  0  0  0  0  0  0  0
    6.7829   -0.4944   -1.6581 H   0  0  0  0  0  0  0  0  0  0  0  0
    2.7131    1.1243    1.2333 H   0  0  0  0  0  0  0  0  0  0  0  0
    1.4365    0.4728    2.3820 H   0  0  0  0  0  0  0  0  0  0  0  0
    0.9075    2.7188    0.9812 H   0  0  0  0  0  0  0  0  0  0  0  0
    1.1893    2.1536   -1.4498 H   0  0  0  0  0  0  0  0  0  0  0  0
    1.3784   -0.5903   -1.6516 H   0  0  0  0  0  0  0  0  0  0  0  0
    2.7996    0.4012   -1.0452 H   0  0  0  0  0  0  0  0  0  0  0  0
   -0.9432    0.3784    1.1949 H   0  0  0  0  0  0  0  0  0  0  0  0
   -1.3536    2.0762    0.6886 H   0  0  0  0  0  0  0  0  0  0  0  0
   -3.0430    0.4392    0.0486 H   0  0  0  0  0  0  0  0  0  0  0  0
   -6.3384   -1.0397   -2.1733 H   0  0  0  0  0  0  0  0  0  0  0  0
   -4.8878   -1.1277   -4.1958 H   0  0  0  0  0  0  0  0  0  0  0  0
   -1.7969   -1.3145   -4.4633 H   0  0  0  0  0  0  0  0  0  0  0  0
   -2.3701    0.2445   -5.0977 H   0  0  0  0  0  0  0  0  0  0  0  0
   -4.5768    1.5010    1.2362 H   0  0  0  0  0  0  0  0  0  0  0  0
   -7.8873   -0.9186    3.8388 H   0  0  0  0  0  0  0  0  0  0  0  0
   -9.0138   -0.6899    2.4672 H   0  0  0  0  0  0  0  0  0  0  0  0
   -8.0191   -2.2406    2.6564 H   0  0  0  0  0  0  0  0  0  0  0  0
   -6.9920   -1.8259    0.2053 H   0  0  0  0  0  0  0  0  0  0  0  0
  1  2  1  0
  2  3  1  0
  3  4  2  0
  4  5  1  0
  5  6  2  0
  6  7  1  0
  7  8  2  0
  6  9  1  0
  9 10  2  0
  9 11  2  0
  9 12  1  0
 12 13  1  0
 13 14  1  0
 14 15  1  0
 15 16  1  0
 15 17  1  0
 17 18  1  0
 17 19  1  0
 19 20  2  0
 19 21  1  0
 21 22  2  0
 22 23  1  0
 23 24  2  0
 24 25  1  0
 25 26  2  0
 26 27  1  0
 23 28  1  0
 28 29  1  0
 29 30  2  0
 30 31  1  0
 31 32  1  0
 31 33  1  0
  8  3  1  0
 16 12  1  0
 26 21  1  0
 33 28  2  0
 18 14  1  0
  1 34  1  0
  1 35  1  0
  1 36  1  0
  4 37  1  0
  5 38  1  0
  7 39  1  0
  8 40  1  0
 13 41  1  0
 13 42  1  0
 14 43  1  6
 15 44  1  6
 16 45  1  0
 16 46  1  0
 18 47  1  0
 18 48  1  0
 22 49  1  0
 24 50  1  0
 25 51  1  0
 27 52  1  0
 27 53  1  0
 29 54  1  0
 32 55  1  0
 32 56  1  0
 32 57  1  0
 33 58  1  0
M  END
$$$$
[H]OC(=O)C([H])([H])C([H])([H])[C@@]([H])(C(=O)N([H])[C@]([H])(C(=O)O[H])C([H])([H])C(=O)O[H])N([H])C(=O)[C@@]([H])(N([H])C(=O)[C@@]([H])(N([H])C(=O)[C@@]([H])(N([H])C(=O)[C@@]([H])(N([H])[H])C([H])([H])C([H])(C([H])([H])[H])C([H])([H])[H])C([H])([H])c1c([H])c([H])c([H])c([H])c1[H])C([H])([H])C([H])([H])C(=O)O[H])C([H])([H])C(=O)O[H]
     RDKit          3D

100100  0  0  0  0  0  0  0  0999 V2000
    9.2068   -0.8640    4.4306 C   0  0  0  0  0  0  0  0  0  0  0  0
    9.7306   -0.2216    3.1403 C   0  0  0  0  0  0  0  0  0  0  0  0
   10.7541    0.8230    3.6137 C   0  0  0  0  0  0  0  0  0  0  0  0
    8.6326    0.5436    2.4428 C   0  0  0  0  0  0  0  0  0  0  0  0
    7.4694   -0.3456    2.0726 C   0  0  2  0  0  0  0  0  0  0  0  0
    7.9141   -1.3708    1.1881 N   0  0  0  0  0  0  0  0  0  0  0  0
    6.3333    0.4601    1.5827 C   0  0  0  0  0  0  0  0  0  0  0  0
    5.9442    1.4465    2.2848 O   0  0  0  0  0  0  0  0  0  0  0  0
    5.6325    0.2149    0.3747 N   0  0  0  0  0  0  0  0  0  0  0  0
    4.5203    1.0671   -0.0242 C   0  0  1  0  0  0  0  0  0  0  0  0
    4.7528    1.7017   -1.3622 C   0  0  0  0  0  0  0  0  0  0  0  0
    4.9347    0.7231   -2.4620 C   0  0  0  0  0  0  0  0  0  0  0  0
    3.8734    0.2528   -3.2086 C   0  0  0  0  0  0  0  0  0  0  0  0
    4.0280   -0.6599   -4.2339 C   0  0  0  0  0  0  0  0  0  0  0  0
    5.2809   -1.1413   -4.5509 C   0  0  0  0  0  0  0  0  0  0  0  0
    6.3522   -0.6875   -3.8213 C   0  0  0  0  0  0  0  0  0  0  0  0
    6.1825    0.2235   -2.8006 C   0  0  0  0  0  0  0  0  0  0  0  0
    3.2307    0.3503    0.0935 C   0  0  0  0  0  0  0  0  0  0  0  0
    3.2565   -0.8581    0.4308 O   0  0  0  0  0  0  0  0  0  0  0  0
    1.9636    0.9422   -0.1474 N   0  0  0  0  0  0  0  0  0  0  0  0
    0.7256    0.2382   -0.0262 C   0  0  1  0  0  0  0  0  0  0  0  0
    0.0164    0.6187    1.2910 C   0  0  0  0  0  0  0  0  0  0  0  0
    0.9179    0.2461    2.4266 C   0  0  0  0  0  0  0  0  0  0  0  0
    0.2386    0.6176    3.6922 C   0  0  0  0  0  0  0  0  0  0  0  0
    0.8520    0.3574    4.9038 O   0  0  0  0  0  0  0  0  0  0  0  0
   -0.8885    1.1673    3.6992 O   0  0  0  0  0  0  0  0  0  0  0  0
   -0.2195    0.4136   -1.1500 C   0  0  0  0  0  0  0  0  0  0  0  0
    0.0830    1.1812   -2.0867 O   0  0  0  0  0  0  0  0  0  0  0  0
   -1.4485   -0.2738   -1.1689 N   0  0  0  0  0  0  0  0  0  0  0  0
   -2.3718   -0.0667   -2.2941 C   0  0  1  0  0  0  0  0  0  0  0  0
   -2.3596   -1.2947   -3.1255 C   0  0  0  0  0  0  0  0  0  0  0  0
   -3.1545   -1.2609   -4.3574 C   0  0  0  0  0  0  0  0  0  0  0  0
   -3.3885   -2.4551   -5.0268 O   0  0  0  0  0  0  0  0  0  0  0  0
   -3.6201   -0.1708   -4.8062 O   0  0  0  0  0  0  0  0  0  0  0  0
   -3.6881    0.3149   -1.7249 C   0  0  0  0  0  0  0  0  0  0  0  0
   -3.5789    1.1887   -0.7784 O   0  0  0  0  0  0  0  0  0  0  0  0
   -4.9576   -0.1297   -2.0555 N   0  0  0  0  0  0  0  0  0  0  0  0
   -6.1244    0.4269   -1.3086 C   0  0  1  0  0  0  0  0  0  0  0  0
   -6.9781    1.1516   -2.3087 C   0  0  0  0  0  0  0  0  0  0  0  0
   -8.2163    1.7835   -1.7914 C   0  0  0  0  0  0  0  0  0  0  0  0
   -8.9229    2.5066   -2.9016 C   0  0  0  0  0  0  0  0  0  0  0  0
   -9.9622    1.8678   -3.5402 O   0  0  0  0  0  0  0  0  0  0  0  0
   -8.5700    3.6653   -3.2360 O   0  0  0  0  0  0  0  0  0  0  0  0
   -6.7570   -0.6142   -0.5278 C   0  0  0  0  0  0  0  0  0  0  0  0
   -6.4096   -1.8246   -0.7041 O   0  0  0  0  0  0  0  0  0  0  0  0
   -7.7517   -0.3565    0.4407 N   0  0  0  0  0  0  0  0  0  0  0  0
   -8.3721   -1.4182    1.2162 C   0  0  1  0  0  0  0  0  0  0  0  0
   -7.9887   -1.3938    2.6724 C   0  0  0  0  0  0  0  0  0  0  0  0
   -8.3641   -0.1655    3.3760 C   0  0  0  0  0  0  0  0  0  0  0  0
   -8.0257   -0.0347    4.7267 O   0  0  0  0  0  0  0  0  0  0  0  0
   -8.9751    0.7708    2.8170 O   0  0  0  0  0  0  0  0  0  0  0  0
   -9.8238   -1.5276    1.0332 C   0  0  0  0  0  0  0  0  0  0  0  0
  -10.5270   -2.5002    1.7142 O   0  0  0  0  0  0  0  0  0  0  0  0
  -10.4304   -0.7555    0.2728 O   0  0  0  0  0  0  0  0  0  0  0  0
    9.9249   -0.7589    5.2624 H   0  0  0  0  0  0  0  0  0  0  0  0
    9.0196   -1.9280    4.2858 H   0  0  0  0  0  0  0  0  0  0  0  0
    8.3017   -0.2830    4.6965 H   0  0  0  0  0  0  0  0  0  0  0  0
   10.2566   -0.9162    2.4917 H   0  0  0  0  0  0  0  0  0  0  0  0
   11.2531    1.3127    2.7757 H   0  0  0  0  0  0  0  0  0  0  0  0
   10.1313    1.6078    4.1368 H   0  0  0  0  0  0  0  0  0  0  0  0
   11.4195    0.4064    4.3745 H   0  0  0  0  0  0  0  0  0  0  0  0
    8.2812    1.3809    3.0564 H   0  0  0  0  0  0  0  0  0  0  0  0
    9.0819    0.9481    1.5116 H   0  0  0  0  0  0  0  0  0  0  0  0
    7.1629   -0.8551    3.0348 H   0  0  0  0  0  0  0  0  0  0  0  0
    8.9256   -1.3767    1.0030 H   0  0  0  0  0  0  0  0  0  0  0  0
    7.4702   -2.2903    1.2946 H   0  0  0  0  0  0  0  0  0  0  0  0
    5.8760   -0.5703   -0.2694 H   0  0  0  0  0  0  0  0  0  0  0  0
    4.4624    1.8968    0.7308 H   0  0  0  0  0  0  0  0  0  0  0  0
    5.6116    2.4025   -1.3255 H   0  0  0  0  0  0  0  0  0  0  0  0
    3.8628    2.3655   -1.5583 H   0  0  0  0  0  0  0  0  0  0  0  0
    2.8599    0.5831   -3.0249 H   0  0  0  0  0  0  0  0  0  0  0  0
    3.1935   -1.0261   -4.8158 H   0  0  0  0  0  0  0  0  0  0  0  0
    5.4057   -1.8684   -5.3685 H   0  0  0  0  0  0  0  0  0  0  0  0
    7.3267   -1.0812   -4.0904 H   0  0  0  0  0  0  0  0  0  0  0  0
    7.0716    0.5347   -2.2719 H   0  0  0  0  0  0  0  0  0  0  0  0
    1.9939    1.9590   -0.4292 H   0  0  0  0  0  0  0  0  0  0  0  0
    0.9200   -0.8463    0.0925 H   0  0  0  0  0  0  0  0  0  0  0  0
   -0.3100    1.6559    1.2958 H   0  0  0  0  0  0  0  0  0  0  0  0
   -0.8770   -0.0203    1.3257 H   0  0  0  0  0  0  0  0  0  0  0  0
    1.1066   -0.8335    2.4734 H   0  0  0  0  0  0  0  0  0  0  0  0
    1.8573    0.8314    2.3461 H   0  0  0  0  0  0  0  0  0  0  0  0
    1.4986    1.0478    5.2531 H   0  0  0  0  0  0  0  0  0  0  0  0
   -1.6903   -0.9114   -0.4014 H   0  0  0  0  0  0  0  0  0  0  0  0
   -2.0222    0.7697   -2.9288 H   0  0  0  0  0  0  0  0  0  0  0  0
   -1.2943   -1.5819   -3.3828 H   0  0  0  0  0  0  0  0  0  0  0  0
   -2.7161   -2.2049   -2.5553 H   0  0  0  0  0  0  0  0  0  0  0  0
   -3.4037   -2.5303   -6.0377 H   0  0  0  0  0  0  0  0  0  0  0  0
   -5.2542   -0.8336   -2.7538 H   0  0  0  0  0  0  0  0  0  0  0  0
   -5.6958    1.1695   -0.6102 H   0  0  0  0  0  0  0  0  0  0  0  0
   -6.3390    1.9799   -2.7317 H   0  0  0  0  0  0  0  0  0  0  0  0
   -7.2719    0.4783   -3.1587 H   0  0  0  0  0  0  0  0  0  0  0  0
   -8.9675    1.0068   -1.4507 H   0  0  0  0  0  0  0  0  0  0  0  0
   -8.0881    2.4970   -0.9744 H   0  0  0  0  0  0  0  0  0  0  0  0
   -9.8502    1.2226   -4.3033 H   0  0  0  0  0  0  0  0  0  0  0  0
   -8.0263    0.6379    0.6037 H   0  0  0  0  0  0  0  0  0  0  0  0
   -7.9327   -2.3851    0.8207 H   0  0  0  0  0  0  0  0  0  0  0  0
   -8.3715   -2.3005    3.1982 H   0  0  0  0  0  0  0  0  0  0  0  0
   -6.8710   -1.5105    2.7013 H   0  0  0  0  0  0  0  0  0  0  0  0
   -8.7218    0.0943    5.4318 H   0  0  0  0  0  0  0  0  0  0  0  0
  -11.5236   -2.5233    1.8393 H   0  0  0  0  0  0  0  0  0  0  0  0
  1  2  1  0
  2  3  1  0
  2  4  1  0
  4  5  1  0
  5  6  1  0
  5  7  1  0
  7  8  2  0
  7  9  1  0
  9 10  1  0
 10 11  1  0
 11 12  1  0
 12 13  2  0
 13 14  1  0
 14 15  2  0
 15 16  1  0
 16 17  2  0
 10 18  1  0
 18 19  2  0
 18 20  1  0
 20 21  1  0
 21 22  1  0
 22 23  1  0
 23 24  1  0
 24 25  1  0
 24 26  2  0
 21 27  1  0
 27 28  2  0
 27 29  1  0
 29 30  1  0
 30 31  1  0
 31 32  1  0
 32 33  1  0
 32 34  2  0
 30 35  1  0
 35 36  2  0
 35 37  1  0
 37 38  1  0
 38 39  1  0
 39 40  1  0
 40 41  1  0
 41 42  1  0
 41 43  2  0
 38 44  1  0
 44 45  2  0
 44 46  1  0
 46 47  1  0
 47 48  1  0
 48 49  1  0
 49 50  1  0
 49 51  2  0
 47 52  1  0
 52 53  1  0
 52 54  2  0
 17 12  1  0
  1 55  1  0
  1 56  1  0
  1 57  1  0
  2 58  1  0
  3 59  1  0
  3 60  1  0
  3 61  1  0
  4 62  1  0
  4 63  1  0
  5 64  1  1
  6 65  1  0
  6 66  1  0
  9 67  1  0
 10 68  1  1
 11 69  1  0
 11 70  1  0
 13 71  1  0
 14 72  1  0
 15 73  1  0
 16 74  1  0
 17 75  1  0
 20 76  1  0
 21 77  1  1
 22 78  1  0
 22 79  1  0
 23 80  1  0
 23 81  1  0
 25 82  1  0
 29 83  1  0
 30 84  1  6
 31 85  1  0
 31 86  1  0
 33 87  1  0
 37 88  1  0
 38 89  1  1
 39 90  1  0
 39 91  1  0
 40 92  1  0
 40 93  1  0
 42 94  1  0
 46 95  1  0
 47 96  1  6
 48 97  1  0
 48 98  1  0
 50 99  1  0
 53100  1  0
M  END
$$$$
[H]Oc1c([H])c([H])c(C([H])([H])[C@@]([H])(C(=O)N([H])[C@]([H])(C(=O)N([H])[C@]([H])(C(=O)N([H])[H])C([H])([H])c2c([H])n([H])c3c([H])c([H])c([H])c([H])c23)[C@@]([H])(C([H])([H])[H])C([H])([H])C([H])([H])[H])N([H])[H])c([H])c1[H]
     RDKit          3D

 68 70  0  0  0  0  0  0  0  0999 V2000
    1.8934   -5.2361   -0.2262 C   0  0  0  0  0  0  0  0  0  0  0  0
    1.6008   -3.8353   -0.7184 C   0  0  0  0  0  0  0  0  0  0  0  0
    0.3503   -3.3571    0.0216 C   0  0  2  0  0  0  0  0  0  0  0  0
   -0.7270   -4.3441   -0.3541 C   0  0  0  0  0  0  0  0  0  0  0  0
    0.0290   -1.9283   -0.3613 C   0  0  2  0  0  0  0  0  0  0  0  0
    1.1738   -1.0786   -0.0272 N   0  0  0  0  0  0  0  0  0  0  0  0
    1.8820   -0.3939   -1.0490 C   0  0  0  0  0  0  0  0  0  0  0  0
    1.5201   -0.5209   -2.2469 O   0  0  0  0  0  0  0  0  0  0  0  0
    3.0465    0.4773   -0.7644 C   0  0  1  0  0  0  0  0  0  0  0  0
    3.5600    1.0296   -1.9858 N   0  0  0  0  0  0  0  0  0  0  0  0
    2.7089    1.5456    0.2536 C   0  0  0  0  0  0  0  0  0  0  0  0
    3.8858    2.4083    0.5299 C   0  0  0  0  0  0  0  0  0  0  0  0
    4.7897    2.0982    1.5423 C   0  0  0  0  0  0  0  0  0  0  0  0
    5.8861    2.8870    1.8138 C   0  0  0  0  0  0  0  0  0  0  0  0
    6.1297    4.0340    1.0761 C   0  0  0  0  0  0  0  0  0  0  0  0
    7.2286    4.8435    1.3325 O   0  0  0  0  0  0  0  0  0  0  0  0
    5.2415    4.3539    0.0686 C   0  0  0  0  0  0  0  0  0  0  0  0
    4.1479    3.5525   -0.1901 C   0  0  0  0  0  0  0  0  0  0  0  0
   -1.1815   -1.4763    0.3138 C   0  0  0  0  0  0  0  0  0  0  0  0
   -0.9915   -0.5054    1.1504 O   0  0  0  0  0  0  0  0  0  0  0  0
   -2.4960   -1.9072    0.2087 N   0  0  0  0  0  0  0  0  0  0  0  0
   -3.5841   -1.3178    0.9830 C   0  0  1  0  0  0  0  0  0  0  0  0
   -4.6418   -0.7115    0.0751 C   0  0  0  0  0  0  0  0  0  0  0  0
   -4.0826    0.3602   -0.7860 C   0  0  0  0  0  0  0  0  0  0  0  0
   -3.7794    0.2642   -2.1452 C   0  0  0  0  0  0  0  0  0  0  0  0
   -3.2960    1.4443   -2.5652 N   0  0  0  0  0  0  0  0  0  0  0  0
   -3.2684    2.3169   -1.5337 C   0  0  0  0  0  0  0  0  0  0  0  0
   -2.8665    3.6450   -1.4282 C   0  0  0  0  0  0  0  0  0  0  0  0
   -2.9496    4.3062   -0.2232 C   0  0  0  0  0  0  0  0  0  0  0  0
   -3.4363    3.6189    0.8559 C   0  0  0  0  0  0  0  0  0  0  0  0
   -3.8431    2.3026    0.7860 C   0  0  0  0  0  0  0  0  0  0  0  0
   -3.7524    1.6546   -0.4324 C   0  0  0  0  0  0  0  0  0  0  0  0
   -4.1910   -2.3470    1.8620 C   0  0  0  0  0  0  0  0  0  0  0  0
   -5.2818   -1.9909    2.7221 N   0  0  0  0  0  0  0  0  0  0  0  0
   -3.7910   -3.5359    1.8921 O   0  0  0  0  0  0  0  0  0  0  0  0
    1.3557   -5.4878    0.7055 H   0  0  0  0  0  0  0  0  0  0  0  0
    1.5970   -6.0073   -0.9777 H   0  0  0  0  0  0  0  0  0  0  0  0
    2.9882   -5.4007   -0.0629 H   0  0  0  0  0  0  0  0  0  0  0  0
    1.3983   -3.9047   -1.8073 H   0  0  0  0  0  0  0  0  0  0  0  0
    2.4509   -3.1963   -0.4629 H   0  0  0  0  0  0  0  0  0  0  0  0
    0.5682   -3.4532    1.1003 H   0  0  0  0  0  0  0  0  0  0  0  0
   -0.2851   -5.3736   -0.5016 H   0  0  0  0  0  0  0  0  0  0  0  0
   -1.1392   -4.0512   -1.3344 H   0  0  0  0  0  0  0  0  0  0  0  0
   -1.5216   -4.4617    0.3778 H   0  0  0  0  0  0  0  0  0  0  0  0
   -0.1056   -1.8870   -1.4484 H   0  0  0  0  0  0  0  0  0  0  0  0
    1.4523   -0.9889    0.9604 H   0  0  0  0  0  0  0  0  0  0  0  0
    3.8243   -0.1727   -0.2660 H   0  0  0  0  0  0  0  0  0  0  0  0
    2.9049    1.7788   -2.3091 H   0  0  0  0  0  0  0  0  0  0  0  0
    3.6318    0.2347   -2.6736 H   0  0  0  0  0  0  0  0  0  0  0  0
    2.2829    1.1095    1.1633 H   0  0  0  0  0  0  0  0  0  0  0  0
    1.9589    2.2170   -0.2535 H   0  0  0  0  0  0  0  0  0  0  0  0
    4.6069    1.2098    2.1181 H   0  0  0  0  0  0  0  0  0  0  0  0
    6.5983    2.6618    2.5966 H   0  0  0  0  0  0  0  0  0  0  0  0
    7.1898    5.6178    1.9906 H   0  0  0  0  0  0  0  0  0  0  0  0
    5.4522    5.2583   -0.4970 H   0  0  0  0  0  0  0  0  0  0  0  0
    3.4903    3.8632   -0.9964 H   0  0  0  0  0  0  0  0  0  0  0  0
   -2.7789   -2.6609   -0.4358 H   0  0  0  0  0  0  0  0  0  0  0  0
   -3.1709   -0.4890    1.6117 H   0  0  0  0  0  0  0  0  0  0  0  0
   -5.1298   -1.4825   -0.5445 H   0  0  0  0  0  0  0  0  0  0  0  0
   -5.4239   -0.2910    0.7329 H   0  0  0  0  0  0  0  0  0  0  0  0
   -3.9349   -0.6364   -2.6927 H   0  0  0  0  0  0  0  0  0  0  0  0
   -2.9783    1.6991   -3.5240 H   0  0  0  0  0  0  0  0  0  0  0  0
   -2.4924    4.1268   -2.3203 H   0  0  0  0  0  0  0  0  0  0  0  0
   -2.6281    5.3578   -0.1508 H   0  0  0  0  0  0  0  0  0  0  0  0
   -3.4951    4.1556    1.7987 H   0  0  0  0  0  0  0  0  0  0  0  0
   -4.2256    1.7513    1.6177 H   0  0  0  0  0  0  0  0  0  0  0  0
   -6.1878   -2.4793    2.5566 H   0  0  0  0  0  0  0  0  0  0  0  0
   -5.1679   -1.2736    3.4787 H   0  0  0  0  0  0  0  0  0  0  0  0
  1  2  1  0
  2  3  1  0
  3  4  1  0
  3  5  1  0
  5  6  1  0
  6  7  1  0
  7  8  2  0
  7  9  1  0
  9 10  1  0
  9 11  1  0
 11 12  1  0
 12 13  2  0
 13 14  1  0
 14 15  2  0
 15 16  1  0
 15 17  1  0
 17 18  2  0
  5 19  1  0
 19 20  2  0
 19 21  1  0
 21 22  1  0
 22 23  1  0
 23 24  1  0
 24 25  2  0
 25 26  1  0
 26 27  1  0
 27 28  2  0
 28 29  1  0
 29 30  2  0
 30 31  1  0
 31 32  2  0
 22 33  1  0
 33 34  1  0
 33 35  2  0
 18 12  1  0
 32 24  1  0
 32 27  1  0
  1 36  1  0
  1 37  1  0
  1 38  1  0
  2 39  1  0
  2 40  1  0
  3 41  1  1
  4 42  1  0
  4 43  1  0
  4 44  1  0
  5 45  1  6
  6 46  1  0
  9 47  1  1
 10 48  1  0
 10 49  1  0
 11 50  1  0
 11 51  1  0
 13 52  1  0
 14 53  1  0
 16 54  1  0
 17 55  1  0
 18 56  1  0
 21 57  1  0
 22 58  1  1
 23 59  1  0
 23 60  1  0
 25 61  1  0
 26 62  1  0
 28 63  1  0
 29 64  1  0
 30 65  1  0
 31 66  1  0
 34 67  1  0
 34 68  1  0
M  END
$$$$
[H]c1nc(N([H])c2c([H])c([H])c(N3C([H])([H])C([H])([H])C([H])(N4C([H])([H])C([H])([H])OC([H])([H])C4([H])[H])C([H])([H])C3([H])[H])c([H])c2OC([H])([H])[H])nc(N([H])c2c([H])c([H])c([H])c([H])c2S(=O)(=O)C([H])(C([H])([H])[H])C([H])([H])[H])c1Cl
     RDKit          3D

 78 82  0  0  0  0  0  0  0  0999 V2000
   -2.7990   -4.7366   -1.3510 C   0  0  0  0  0  0  0  0  0  0  0  0
   -1.4818   -4.2815   -1.0963 O   0  0  0  0  0  0  0  0  0  0  0  0
   -1.2626   -2.9268   -0.9115 C   0  0  0  0  0  0  0  0  0  0  0  0
   -2.2756   -1.9993   -0.9649 C   0  0  0  0  0  0  0  0  0  0  0  0
   -2.0617   -0.6368   -0.7804 C   0  0  0  0  0  0  0  0  0  0  0  0
   -0.7814   -0.2202   -0.5369 C   0  0  0  0  0  0  0  0  0  0  0  0
    0.2811   -1.1355   -0.4738 C   0  0  0  0  0  0  0  0  0  0  0  0
    0.0363   -2.4736   -0.6602 C   0  0  0  0  0  0  0  0  0  0  0  0
    1.0486   -3.4282   -0.5632 N   0  0  0  0  0  0  0  0  0  0  0  0
    2.4501   -3.2971   -0.5441 C   0  0  0  0  0  0  0  0  0  0  0  0
    3.1806   -4.4584   -0.3853 N   0  0  0  0  0  0  0  0  0  0  0  0
    4.4963   -4.5095   -0.3751 C   0  0  0  0  0  0  0  0  0  0  0  0
    5.2173   -3.3469   -0.5311 C   0  0  0  0  0  0  0  0  0  0  0  0
    6.9576   -3.3296   -0.5341 Cl  0  0  0  0  0  0  0  0  0  0  0  0
    4.5356   -2.1282   -0.6989 C   0  0  0  0  0  0  0  0  0  0  0  0
    5.3043   -0.9689   -0.8278 N   0  0  0  0  0  0  0  0  0  0  0  0
    4.9428    0.3708   -1.0715 C   0  0  0  0  0  0  0  0  0  0  0  0
    3.7071    0.7399   -1.5352 C   0  0  0  0  0  0  0  0  0  0  0  0
    3.4274    2.0598   -1.8188 C   0  0  0  0  0  0  0  0  0  0  0  0
    4.3635    3.0489   -1.6512 C   0  0  0  0  0  0  0  0  0  0  0  0
    5.6208    2.6944   -1.1820 C   0  0  0  0  0  0  0  0  0  0  0  0
    5.9101    1.3798   -0.8961 C   0  0  0  0  0  0  0  0  0  0  0  0
    7.5019    1.0371   -0.2945 S   0  0  0  0  0  0  0  0  0  0  0  0
    8.2978    0.1131   -1.1647 O   0  0  0  0  0  0  0  0  0  0  0  0
    8.2966    2.3490   -0.2987 O   0  0  0  0  0  0  0  0  0  0  0  0
    7.4681    0.4327    1.3549 C   0  0  0  0  0  0  0  0  0  0  0  0
    8.8634   -0.1388    1.7159 C   0  0  0  0  0  0  0  0  0  0  0  0
    7.0596    1.4683    2.3670 C   0  0  0  0  0  0  0  0  0  0  0  0
    3.1822   -2.2006   -0.6916 N   0  0  0  0  0  0  0  0  0  0  0  0
   -3.1115    0.3177   -0.8518 N   0  0  0  0  0  0  0  0  0  0  0  0
   -4.3569    0.0033   -1.5564 C   0  0  0  0  0  0  0  0  0  0  0  0
   -5.4456    0.9770   -1.1084 C   0  0  0  0  0  0  0  0  0  0  0  0
   -5.4163    1.0960    0.3875 C   0  0  0  0  0  0  0  0  0  0  0  0
   -4.1724    1.8834    0.7406 C   0  0  0  0  0  0  0  0  0  0  0  0
   -3.0537    1.6221   -0.2518 C   0  0  0  0  0  0  0  0  0  0  0  0
   -6.5566    1.8175    0.8825 N   0  0  0  0  0  0  0  0  0  0  0  0
   -6.4174    2.0469    2.3263 C   0  0  0  0  0  0  0  0  0  0  0  0
   -7.6213    2.8766    2.7374 C   0  0  0  0  0  0  0  0  0  0  0  0
   -8.8104    2.1862    2.5319 O   0  0  0  0  0  0  0  0  0  0  0  0
   -8.9221    1.9916    1.1601 C   0  0  0  0  0  0  0  0  0  0  0  0
   -7.7951    1.0731    0.7374 C   0  0  0  0  0  0  0  0  0  0  0  0
   -2.8361   -5.8616   -1.3099 H   0  0  0  0  0  0  0  0  0  0  0  0
   -3.1900   -4.3824   -2.3292 H   0  0  0  0  0  0  0  0  0  0  0  0
   -3.5377   -4.4041   -0.5867 H   0  0  0  0  0  0  0  0  0  0  0  0
   -3.2912   -2.3704   -1.1607 H   0  0  0  0  0  0  0  0  0  0  0  0
   -0.5304    0.8148   -0.3940 H   0  0  0  0  0  0  0  0  0  0  0  0
    1.2667   -0.7437   -0.2556 H   0  0  0  0  0  0  0  0  0  0  0  0
    0.7052   -4.4618   -0.4798 H   0  0  0  0  0  0  0  0  0  0  0  0
    5.0715   -5.4367   -0.2489 H   0  0  0  0  0  0  0  0  0  0  0  0
    6.3584   -1.1165   -0.7423 H   0  0  0  0  0  0  0  0  0  0  0  0
    2.9114   -0.0041   -1.7193 H   0  0  0  0  0  0  0  0  0  0  0  0
    2.4405    2.3544   -2.1905 H   0  0  0  0  0  0  0  0  0  0  0  0
    4.1803    4.0991   -1.8612 H   0  0  0  0  0  0  0  0  0  0  0  0
    6.3509    3.4879   -1.0554 H   0  0  0  0  0  0  0  0  0  0  0  0
    6.8109   -0.4447    1.4204 H   0  0  0  0  0  0  0  0  0  0  0  0
    8.9078   -1.1290    1.2165 H   0  0  0  0  0  0  0  0  0  0  0  0
    8.8703   -0.2948    2.7926 H   0  0  0  0  0  0  0  0  0  0  0  0
    9.6590    0.5303    1.3215 H   0  0  0  0  0  0  0  0  0  0  0  0
    6.3760    2.2282    1.9706 H   0  0  0  0  0  0  0  0  0  0  0  0
    8.0149    1.9242    2.7543 H   0  0  0  0  0  0  0  0  0  0  0  0
    6.5683    1.0168    3.2596 H   0  0  0  0  0  0  0  0  0  0  0  0
   -4.2295    0.1961   -2.6622 H   0  0  0  0  0  0  0  0  0  0  0  0
   -4.6789   -1.0320   -1.4555 H   0  0  0  0  0  0  0  0  0  0  0  0
   -6.3764    0.6017   -1.5329 H   0  0  0  0  0  0  0  0  0  0  0  0
   -5.2359    1.9773   -1.5346 H   0  0  0  0  0  0  0  0  0  0  0  0
   -5.4040    0.1109    0.8986 H   0  0  0  0  0  0  0  0  0  0  0  0
   -4.4001    2.9747    0.6779 H   0  0  0  0  0  0  0  0  0  0  0  0
   -3.8424    1.6927    1.7865 H   0  0  0  0  0  0  0  0  0  0  0  0
   -3.1634    2.3692   -1.0913 H   0  0  0  0  0  0  0  0  0  0  0  0
   -2.0806    1.8030    0.1914 H   0  0  0  0  0  0  0  0  0  0  0  0
   -6.4486    1.0642    2.8141 H   0  0  0  0  0  0  0  0  0  0  0  0
   -5.5199    2.6190    2.5767 H   0  0  0  0  0  0  0  0  0  0  0  0
   -7.6190    3.7806    2.0982 H   0  0  0  0  0  0  0  0  0  0  0  0
   -7.5723    3.1645    3.7921 H   0  0  0  0  0  0  0  0  0  0  0  0
   -8.6856    2.9938    0.6972 H   0  0  0  0  0  0  0  0  0  0  0  0
   -9.9176    1.6194    0.8580 H   0  0  0  0  0  0  0  0  0  0  0  0
   -7.9512    0.6460   -0.2539 H   0  0  0  0  0  0  0  0  0  0  0  0
   -7.7886    0.2449    1.4991 H   0  0  0  0  0  0  0  0  0  0  0  0
  1  2  1  0
  2  3  1  0
  3  4  2  0
  4  5  1  0
  5  6  2  0
  6  7  1  0
  7  8  2  0
  8  9  1  0
  9 10  1  0
 10 11  2  0
 11 12  1  0
 12 13  2  0
 13 14  1  0
 13 15  1  0
 15 16  1  0
 16 17  1  0
 17 18  2  0
 18 19  1  0
 19 20  2  0
 20 21  1  0
 21 22  2  0
 22 23  1  0
 23 24  2  0
 23 25  2  0
 23 26  1  0
 26 27  1  0
 26 28  1  0
 15 29  2  0
  5 30  1  0
 30 31  1  0
 31 32  1  0
 32 33  1  0
 33 34  1  0
 34 35  1  0
 33 36  1  0
 36 37  1  0
 37 38  1  0
 38 39  1  0
 39 40  1  0
 40 41  1  0
  8  3  1  0
 29 10  1  0
 35 30  1  0
 41 36  1  0
 22 17  1  0
  1 42  1  0
  1 43  1  0
  1 44  1  0
  4 45  1  0
  6 46  1  0
  7 47  1  0
  9 48  1  0
 12 49  1  0
 16 50  1  0
 18 51  1  0
 19 52  1  0
 20 53  1  0
 21 54  1  0
 26 55  1  0
 27 56  1  0
 27 57  1  0
 27 58  1  0
 28 59  1  0
 28 60  1  0
 28 61  1  0
 31 62  1  0
 31 63  1  0
 32 64  1  0
 32 65  1  0
 33 66  1  0
 34 67  1  0
 34 68  1  0
 35 69  1  0
 35 70  1  0
 37 71  1  0
 37 72  1  0
 38 73  1  0
 38 74  1  0
 40 75  1  0
 40 76  1  0
 41 77  1  0
 41 78  1  0
M  END
$$$$
[H]N(C(=O)[C@@]([H])(N([H])C(=O)[C@@]([H])(N([H])C(=O)[C@@]([H])(N([H])C(=O)[C@@]([H])(C(=O)C([H])([H])[H])C([H])([H])[H])C([H])([H])[H])C([H])([H])[H])C([H])([H])[H])[C@]([H])(C(=O)N([H])[C@]([H])(C(=O)N([H])[C@]([H])(C(=O)N([H])[C@]([H])(C(=O)N([H])[C@]([H])(C(=O)N1C([H])([H])C([H])([H])C([H])([H])[C@@]1([H])C(=O)N(C([H])([H])[H])C([H])([H])[H])C([H])([H])C([H])(C([H])([H])[H])C([H])([H])[H])C([H])([H])[H])C([H])([H])[H])C([H])([H])[H])C([H])([H])[H]
     RDKit          3D

126126  0  0  0  0  0  0  0  0999 V2000
  -10.8110   -2.7641   -2.8112 C   0  0  0  0  0  0  0  0  0  0  0  0
  -11.1767   -3.1702   -1.3912 C   0  0  0  0  0  0  0  0  0  0  0  0
  -10.1831   -4.1189   -0.8420 C   0  0  0  0  0  0  0  0  0  0  0  0
  -11.5748   -2.0125   -0.5489 C   0  0  0  0  0  0  0  0  0  0  0  0
  -10.6139   -0.9181   -0.3760 C   0  0  2  0  0  0  0  0  0  0  0  0
   -9.3851   -1.3842    0.2405 N   0  0  0  0  0  0  0  0  0  0  0  0
   -8.1210   -0.8941   -0.1695 C   0  0  0  0  0  0  0  0  0  0  0  0
   -8.1146   -0.0252   -1.1127 O   0  0  0  0  0  0  0  0  0  0  0  0
   -6.8444   -1.3308    0.4405 C   0  0  2  0  0  0  0  0  0  0  0  0
   -6.9684   -1.8162    1.8534 C   0  0  0  0  0  0  0  0  0  0  0  0
   -5.7916   -0.3605    0.2221 N   0  0  0  0  0  0  0  0  0  0  0  0
   -4.5066   -0.6146   -0.2674 C   0  0  0  0  0  0  0  0  0  0  0  0
   -4.1178   -1.7539   -0.5760 O   0  0  0  0  0  0  0  0  0  0  0  0
   -3.5008    0.4957   -0.4538 C   0  0  2  0  0  0  0  0  0  0  0  0
   -3.9996    1.4721   -1.4852 C   0  0  0  0  0  0  0  0  0  0  0  0
   -2.2466   -0.0503   -0.9221 N   0  0  0  0  0  0  0  0  0  0  0  0
   -1.0270    0.1248   -0.2279 C   0  0  0  0  0  0  0  0  0  0  0  0
   -1.1234    0.8205    0.8492 O   0  0  0  0  0  0  0  0  0  0  0  0
    0.2457   -0.4302   -0.6805 C   0  0  2  0  0  0  0  0  0  0  0  0
    0.1299   -1.9422   -0.9218 C   0  0  0  0  0  0  0  0  0  0  0  0
    1.3816   -0.1493    0.1545 N   0  0  0  0  0  0  0  0  0  0  0  0
    2.6673    0.1001   -0.3488 C   0  0  0  0  0  0  0  0  0  0  0  0
    2.8547    0.0519   -1.6073 O   0  0  0  0  0  0  0  0  0  0  0  0
    3.8376    0.4192    0.4805 C   0  0  2  0  0  0  0  0  0  0  0  0
    3.5798    1.8113    1.0636 C   0  0  0  0  0  0  0  0  0  0  0  0
    5.0698    0.4195   -0.2917 N   0  0  0  0  0  0  0  0  0  0  0  0
    6.2970   -0.1031    0.1955 C   0  0  0  0  0  0  0  0  0  0  0  0
    6.2678   -0.5663    1.3941 O   0  0  0  0  0  0  0  0  0  0  0  0
    7.5172   -0.1235   -0.5882 C   0  0  2  0  0  0  0  0  0  0  0  0
    7.3689   -1.1034   -1.7869 C   0  0  0  0  0  0  0  0  0  0  0  0
    8.6926   -0.5410    0.1625 N   0  0  0  0  0  0  0  0  0  0  0  0
    9.9565   -0.0386   -0.2115 C   0  0  0  0  0  0  0  0  0  0  0  0
   10.0123    0.7722   -1.2219 O   0  0  0  0  0  0  0  0  0  0  0  0
   11.2317   -0.3321    0.4209 C   0  0  2  0  0  0  0  0  0  0  0  0
   11.5697    0.8093    1.4168 C   0  0  0  0  0  0  0  0  0  0  0  0
   12.2994   -0.4041   -0.5608 N   0  0  0  0  0  0  0  0  0  0  0  0
   13.6545   -0.7642   -0.2476 C   0  0  0  0  0  0  0  0  0  0  0  0
   13.8940   -1.0032    0.9811 O   0  0  0  0  0  0  0  0  0  0  0  0
   14.6932   -0.8497   -1.2747 C   0  0  2  0  0  0  0  0  0  0  0  0
   14.8791   -2.3212   -1.7082 C   0  0  0  0  0  0  0  0  0  0  0  0
   15.9641   -0.3458   -0.7546 N   0  0  0  0  0  0  0  0  0  0  0  0
   16.8245    0.4482   -1.5322 C   0  0  0  0  0  0  0  0  0  0  0  0
   16.4938    0.7288   -2.7122 O   0  0  0  0  0  0  0  0  0  0  0  0
   18.1018    0.9330   -0.9340 C   0  0  2  0  0  0  0  0  0  0  0  0
   18.9408   -0.1802   -0.3597 C   0  0  0  0  0  0  0  0  0  0  0  0
   17.9605    2.0897   -0.0705 C   0  0  0  0  0  0  0  0  0  0  0  0
   17.1286    2.1573    1.1649 C   0  0  0  0  0  0  0  0  0  0  0  0
   18.5641    3.1406   -0.3414 O   0  0  0  0  0  0  0  0  0  0  0  0
  -11.1032    0.1880    0.5266 C   0  0  0  0  0  0  0  0  0  0  0  0
  -10.4078    0.4112    1.5657 O   0  0  0  0  0  0  0  0  0  0  0  0
  -12.2589    0.9667    0.2734 N   0  0  0  0  0  0  0  0  0  0  0  0
  -13.2059    0.9091   -0.8013 C   0  0  0  0  0  0  0  0  0  0  0  0
  -13.8589    2.2942   -0.8835 C   0  0  0  0  0  0  0  0  0  0  0  0
  -13.1474    3.0863    0.1694 C   0  0  0  0  0  0  0  0  0  0  0  0
  -12.7043    2.0624    1.1444 C   0  0  1  0  0  0  0  0  0  0  0  0
  -13.7303    1.6365    2.1214 C   0  0  0  0  0  0  0  0  0  0  0  0
  -14.1724    0.4533    2.0123 O   0  0  0  0  0  0  0  0  0  0  0  0
  -14.2298    2.4544    3.1433 N   0  0  0  0  0  0  0  0  0  0  0  0
  -13.7603    3.8256    3.3286 C   0  0  0  0  0  0  0  0  0  0  0  0
  -15.2355    1.9627    4.0440 C   0  0  0  0  0  0  0  0  0  0  0  0
  -10.3774   -3.5872   -3.4018 H   0  0  0  0  0  0  0  0  0  0  0  0
  -10.0160   -1.9819   -2.7309 H   0  0  0  0  0  0  0  0  0  0  0  0
  -11.6695   -2.3469   -3.3494 H   0  0  0  0  0  0  0  0  0  0  0  0
  -12.1297   -3.7867   -1.5385 H   0  0  0  0  0  0  0  0  0  0  0  0
  -10.1800   -5.0065   -1.5563 H   0  0  0  0  0  0  0  0  0  0  0  0
  -10.4732   -4.5399    0.1335 H   0  0  0  0  0  0  0  0  0  0  0  0
   -9.1328   -3.7610   -0.8964 H   0  0  0  0  0  0  0  0  0  0  0  0
  -11.9403   -2.4313    0.4388 H   0  0  0  0  0  0  0  0  0  0  0  0
  -12.5332   -1.6163   -1.0032 H   0  0  0  0  0  0  0  0  0  0  0  0
  -10.2919   -0.4095   -1.3150 H   0  0  0  0  0  0  0  0  0  0  0  0
   -9.3754   -2.0869    1.0176 H   0  0  0  0  0  0  0  0  0  0  0  0
   -6.5170   -2.2504   -0.1482 H   0  0  0  0  0  0  0  0  0  0  0  0
   -7.5186   -1.1402    2.5084 H   0  0  0  0  0  0  0  0  0  0  0  0
   -7.3332   -2.8699    1.8346 H   0  0  0  0  0  0  0  0  0  0  0  0
   -5.9128   -1.9015    2.2585 H   0  0  0  0  0  0  0  0  0  0  0  0
   -6.0203    0.6647    0.4470 H   0  0  0  0  0  0  0  0  0  0  0  0
   -3.4048    1.0233    0.5081 H   0  0  0  0  0  0  0  0  0  0  0  0
   -5.0907    1.6734   -1.4072 H   0  0  0  0  0  0  0  0  0  0  0  0
   -3.8145    1.0628   -2.4950 H   0  0  0  0  0  0  0  0  0  0  0  0
   -3.5060    2.4432   -1.3115 H   0  0  0  0  0  0  0  0  0  0  0  0
   -2.2841   -0.6009   -1.8308 H   0  0  0  0  0  0  0  0  0  0  0  0
    0.4776   -0.0263   -1.7103 H   0  0  0  0  0  0  0  0  0  0  0  0
   -0.7859   -2.0557   -1.5436 H   0  0  0  0  0  0  0  0  0  0  0  0
    0.9996   -2.2051   -1.5346 H   0  0  0  0  0  0  0  0  0  0  0  0
   -0.0227   -2.5177   -0.0165 H   0  0  0  0  0  0  0  0  0  0  0  0
    1.2221   -0.1259    1.1901 H   0  0  0  0  0  0  0  0  0  0  0  0
    4.0029   -0.2700    1.3420 H   0  0  0  0  0  0  0  0  0  0  0  0
    4.4760    2.2345    1.5042 H   0  0  0  0  0  0  0  0  0  0  0  0
    3.1403    2.5061    0.3463 H   0  0  0  0  0  0  0  0  0  0  0  0
    2.8357    1.6452    1.8789 H   0  0  0  0  0  0  0  0  0  0  0  0
    5.0326    0.8263   -1.2297 H   0  0  0  0  0  0  0  0  0  0  0  0
    7.7307    0.8323   -1.0731 H   0  0  0  0  0  0  0  0  0  0  0  0
    7.2519   -2.1171   -1.4004 H   0  0  0  0  0  0  0  0  0  0  0  0
    8.2615   -1.0151   -2.3987 H   0  0  0  0  0  0  0  0  0  0  0  0
    6.4983   -0.7359   -2.3490 H   0  0  0  0  0  0  0  0  0  0  0  0
    8.5513   -1.1902    0.9575 H   0  0  0  0  0  0  0  0  0  0  0  0
   11.2330   -1.2248    1.0376 H   0  0  0  0  0  0  0  0  0  0  0  0
   10.6130    1.2171    1.7505 H   0  0  0  0  0  0  0  0  0  0  0  0
   12.2788    1.5236    0.9741 H   0  0  0  0  0  0  0  0  0  0  0  0
   12.0544    0.3493    2.2802 H   0  0  0  0  0  0  0  0  0  0  0  0
   12.0807   -0.1919   -1.5653 H   0  0  0  0  0  0  0  0  0  0  0  0
   14.4892   -0.3175   -2.2155 H   0  0  0  0  0  0  0  0  0  0  0  0
   15.7083   -2.3327   -2.4262 H   0  0  0  0  0  0  0  0  0  0  0  0
   15.0748   -2.9606   -0.8286 H   0  0  0  0  0  0  0  0  0  0  0  0
   13.9512   -2.5902   -2.2580 H   0  0  0  0  0  0  0  0  0  0  0  0
   16.2326   -0.5845    0.2250 H   0  0  0  0  0  0  0  0  0  0  0  0
   18.6928    1.2896   -1.8498 H   0  0  0  0  0  0  0  0  0  0  0  0
   18.6151   -0.4604    0.6627 H   0  0  0  0  0  0  0  0  0  0  0  0
   18.8751   -1.1003   -1.0001 H   0  0  0  0  0  0  0  0  0  0  0  0
   20.0189    0.1308   -0.4142 H   0  0  0  0  0  0  0  0  0  0  0  0
   16.9044    3.2058    1.4507 H   0  0  0  0  0  0  0  0  0  0  0  0
   17.5140    1.5568    1.9822 H   0  0  0  0  0  0  0  0  0  0  0  0
   16.1291    1.7112    0.9053 H   0  0  0  0  0  0  0  0  0  0  0  0
  -12.7588    0.6271   -1.7588 H   0  0  0  0  0  0  0  0  0  0  0  0
  -13.9957    0.1629   -0.5328 H   0  0  0  0  0  0  0  0  0  0  0  0
  -13.6006    2.7009   -1.8942 H   0  0  0  0  0  0  0  0  0  0  0  0
  -14.9397    2.2288   -0.7496 H   0  0  0  0  0  0  0  0  0  0  0  0
  -13.7803    3.9080    0.5805 H   0  0  0  0  0  0  0  0  0  0  0  0
  -12.2493    3.5971   -0.2300 H   0  0  0  0  0  0  0  0  0  0  0  0
  -11.8419    2.4470    1.7589 H   0  0  0  0  0  0  0  0  0  0  0  0
  -13.5404    4.0191    4.4045 H   0  0  0  0  0  0  0  0  0  0  0  0
  -12.8717    4.0666    2.7261 H   0  0  0  0  0  0  0  0  0  0  0  0
  -14.5644    4.5285    3.0371 H   0  0  0  0  0  0  0  0  0  0  0  0
  -15.0646    0.9195    4.3804 H   0  0  0  0  0  0  0  0  0  0  0  0
  -16.2365    1.9821    3.5367 H   0  0  0  0  0  0  0  0  0  0  0  0
  -15.3296    2.6225    4.9512 H   0  0  0  0  0  0  0  0  0  0  0  0
  1  2  1  0
  2  3  1  0
  2  4  1  0
  4  5  1  0
  5  6  1  0
  6  7  1  0
  7  8  2  0
  7  9  1  0
  9 10  1  0
  9 11  1  0
 11 12  1  0
 12 13  2  0
 12 14  1  0
 14 15  1  0
 14 16  1  0
 16 17  1  0
 17 18  2  0
 17 19  1  0
 19 20  1  0
 19 21  1  0
 21 22  1  0
 22 23  2  0
 22 24  1  0
 24 25  1  0
 24 26  1  0
 26 27  1  0
 27 28  2  0
 27 29  1  0
 29 30  1  0
 29 31  1  0
 31 32  1  0
 32 33  2  0
 32 34  1  0
 34 35  1  0
 34 36  1  0
 36 37  1  0
 37 38  2  0
 37 39  1  0
 39 40  1  0
 39 41  1  0
 41 42  1  0
 42 43  2  0
 42 44  1  0
 44 45  1  0
 44 46  1  0
 46 47  1  0
 46 48  2  0
  5 49  1  0
 49 50  2  0
 49 51  1  0
 51 52  1  0
 52 53  1  0
 53 54  1  0
 54 55  1  0
 55 56  1  0
 56 57  2  0
 56 58  1  0
 58 59  1  0
 58 60  1  0
 55 51  1  0
  1 61  1  0
  1 62  1  0
  1 63  1  0
  2 64  1  0
  3 65  1  0
  3 66  1  0
  3 67  1  0
  4 68  1  0
  4 69  1  0
  5 70  1  6
  6 71  1  0
  9 72  1  6
 10 73  1  0
 10 74  1  0
 10 75  1  0
 11 76  1  0
 14 77  1  1
 15 78  1  0
 15 79  1  0
 15 80  1  0
 16 81  1  0
 19 82  1  6
 20 83  1  0
 20 84  1  0
 20 85  1  0
 21 86  1  0
 24 87  1  1
 25 88  1  0
 25 89  1  0
 25 90  1  0
 26 91  1  0
 29 92  1  6
 30 93  1  0
 30 94  1  0
 30 95  1  0
 31 96  1  0
 34 97  1  1
 35 98  1  0
 35 99  1  0
 35100  1  0
 36101  1  0
 39102  1  6
 40103  1  0
 40104  1  0
 40105  1  0
 41106  1  0
 44107  1  6
 45108  1  0
 45109  1  0
 45110  1  0
 47111  1  0
 47112  1  0
 47113  1  0
 52114  1  0
 52115  1  0
 53116  1  0
 53117  1  0
 54118  1  0
 54119  1  0
 55120  1  1
 59121  1  0
 59122  1  0
 59123  1  0
 60124  1  0
 60125  1  0
 60126  1  0
M  END
$$$$
[H]c1c([H])c(N([H])S(=O)(=O)c2c([H])c([H])c(N3C([H])([H])C([H])([H])N(C([H])([H])[H])C([H])([H])C3([H])[H])c([H])c2[H])c([H])c([H])c1-c1c([H])c([H])c(S(=O)(=O)C([H])([H])[H])c([H])c1[H]
     RDKit          3D

 60 63  0  0  0  0  0  0  0  0999 V2000
    7.8780   -0.7488   -2.4989 C   0  0  0  0  0  0  0  0  0  0  0  0
    7.0744    0.3921   -2.1635 N   0  0  0  0  0  0  0  0  0  0  0  0
    7.3408    0.7561   -0.7998 C   0  0  0  0  0  0  0  0  0  0  0  0
    6.2434    0.3582    0.1466 C   0  0  0  0  0  0  0  0  0  0  0  0
    4.9966    0.9730   -0.3157 N   0  0  0  0  0  0  0  0  0  0  0  0
    4.9658    1.3754   -1.7036 C   0  0  0  0  0  0  0  0  0  0  0  0
    5.6824    0.2405   -2.4594 C   0  0  0  0  0  0  0  0  0  0  0  0
    3.9581    1.1114    0.6068 C   0  0  0  0  0  0  0  0  0  0  0  0
    2.9236    1.9783    0.4288 C   0  0  0  0  0  0  0  0  0  0  0  0
    1.9012    2.0702    1.3982 C   0  0  0  0  0  0  0  0  0  0  0  0
    1.9131    1.3040    2.5213 C   0  0  0  0  0  0  0  0  0  0  0  0
    2.9861    0.4122    2.6920 C   0  0  0  0  0  0  0  0  0  0  0  0
    3.9933    0.3116    1.7616 C   0  0  0  0  0  0  0  0  0  0  0  0
    0.7365    1.3770    3.7742 S   0  0  0  0  0  0  0  0  0  0  0  0
    1.4264    1.3608    5.1262 O   0  0  0  0  0  0  0  0  0  0  0  0
    0.0668    2.7552    3.7367 O   0  0  0  0  0  0  0  0  0  0  0  0
   -0.4599    0.1868    3.6898 N   0  0  0  0  0  0  0  0  0  0  0  0
   -1.4386   -0.0806    2.7184 C   0  0  0  0  0  0  0  0  0  0  0  0
   -2.7391   -0.3783    3.1980 C   0  0  0  0  0  0  0  0  0  0  0  0
   -3.7776   -0.6419    2.3542 C   0  0  0  0  0  0  0  0  0  0  0  0
   -3.6178   -0.6329    0.9687 C   0  0  0  0  0  0  0  0  0  0  0  0
   -2.3606   -0.3500    0.4906 C   0  0  0  0  0  0  0  0  0  0  0  0
   -1.3007   -0.0789    1.3557 C   0  0  0  0  0  0  0  0  0  0  0  0
   -4.7817   -0.9104    0.1429 C   0  0  0  0  0  0  0  0  0  0  0  0
   -4.7275   -1.5099   -1.0904 C   0  0  0  0  0  0  0  0  0  0  0  0
   -5.8453   -1.7844   -1.8588 C   0  0  0  0  0  0  0  0  0  0  0  0
   -7.1108   -1.4437   -1.3785 C   0  0  0  0  0  0  0  0  0  0  0  0
   -7.1744   -0.8458   -0.1470 C   0  0  0  0  0  0  0  0  0  0  0  0
   -6.0619   -0.5738    0.6151 C   0  0  0  0  0  0  0  0  0  0  0  0
   -8.5476   -1.7606   -2.2896 S   0  0  0  0  0  0  0  0  0  0  0  0
   -9.0388   -0.3875   -3.2781 C   0  0  0  0  0  0  0  0  0  0  0  0
   -9.6764   -2.2357   -1.4167 O   0  0  0  0  0  0  0  0  0  0  0  0
   -8.2364   -2.9014   -3.2418 O   0  0  0  0  0  0  0  0  0  0  0  0
    7.8004   -1.5686   -1.7306 H   0  0  0  0  0  0  0  0  0  0  0  0
    8.9678   -0.4539   -2.5216 H   0  0  0  0  0  0  0  0  0  0  0  0
    7.6484   -1.1581   -3.5066 H   0  0  0  0  0  0  0  0  0  0  0  0
    8.2969    0.3048   -0.4295 H   0  0  0  0  0  0  0  0  0  0  0  0
    7.4473    1.8633   -0.7471 H   0  0  0  0  0  0  0  0  0  0  0  0
    6.0896   -0.7169    0.2521 H   0  0  0  0  0  0  0  0  0  0  0  0
    6.4714    0.7600    1.1556 H   0  0  0  0  0  0  0  0  0  0  0  0
    3.9497    1.4487   -2.0900 H   0  0  0  0  0  0  0  0  0  0  0  0
    5.5446    2.3080   -1.8964 H   0  0  0  0  0  0  0  0  0  0  0  0
    5.5423    0.3681   -3.5501 H   0  0  0  0  0  0  0  0  0  0  0  0
    5.2959   -0.7061   -2.0838 H   0  0  0  0  0  0  0  0  0  0  0  0
    2.8743    2.6081   -0.4521 H   0  0  0  0  0  0  0  0  0  0  0  0
    1.0775    2.7628    1.2406 H   0  0  0  0  0  0  0  0  0  0  0  0
    2.9921   -0.1858    3.5739 H   0  0  0  0  0  0  0  0  0  0  0  0
    4.8217   -0.3766    1.8838 H   0  0  0  0  0  0  0  0  0  0  0  0
   -0.4818   -0.5095    4.5297 H   0  0  0  0  0  0  0  0  0  0  0  0
   -2.8797   -0.3863    4.2612 H   0  0  0  0  0  0  0  0  0  0  0  0
   -4.7877   -0.8821    2.7316 H   0  0  0  0  0  0  0  0  0  0  0  0
   -2.2020   -0.3419   -0.5854 H   0  0  0  0  0  0  0  0  0  0  0  0
   -0.3384    0.1293    0.9492 H   0  0  0  0  0  0  0  0  0  0  0  0
   -3.7341   -1.7703   -1.4655 H   0  0  0  0  0  0  0  0  0  0  0  0
   -5.7751   -2.2572   -2.8280 H   0  0  0  0  0  0  0  0  0  0  0  0
   -8.1367   -0.5707    0.2646 H   0  0  0  0  0  0  0  0  0  0  0  0
   -6.1935   -0.0886    1.5781 H   0  0  0  0  0  0  0  0  0  0  0  0
  -10.1380   -0.4037   -3.4223 H   0  0  0  0  0  0  0  0  0  0  0  0
   -8.5743   -0.4663   -4.3033 H   0  0  0  0  0  0  0  0  0  0  0  0
   -8.7700    0.5911   -2.8844 H   0  0  0  0  0  0  0  0  0  0  0  0
  1  2  1  0
  2  3  1  0
  3  4  1  0
  4  5  1  0
  5  6  1  0
  6  7  1  0
  5  8  1  0
  8  9  2  0
  9 10  1  0
 10 11  2  0
 11 12  1  0
 12 13  2  0
 11 14  1  0
 14 15  2  0
 14 16  2  0
 14 17  1  0
 17 18  1  0
 18 19  2  0
 19 20  1  0
 20 21  2  0
 21 22  1  0
 22 23  2  0
 21 24  1  0
 24 25  2  0
 25 26  1  0
 26 27  2  0
 27 28  1  0
 28 29  2  0
 27 30  1  0
 30 31  1  0
 30 32  2  0
 30 33  2  0
  7  2  1  0
 13  8  1  0
 23 18  1  0
 29 24  1  0
  1 34  1  0
  1 35  1  0
  1 36  1  0
  3 37  1  0
  3 38  1  0
  4 39  1  0
  4 40  1  0
  6 41  1  0
  6 42  1  0
  7 43  1  0
  7 44  1  0
  9 45  1  0
 10 46  1  0
 12 47  1  0
 13 48  1  0
 17 49  1  0
 19 50  1  0
 20 51  1  0
 22 52  1  0
 23 53  1  0
 25 54  1  0
 26 55  1  0
 28 56  1  0
 29 57  1  0
 31 58  1  0
 31 59  1  0
 31 60  1  0
M  END
$$$$
[H]N=C(N([H])[H])N([H])C([H])([H])C([H])([H])C([H])([H])[C@@]([H])(C(=O)N([H])[C@]([H])(C(=O)N([H])[C@]([H])(C(=O)N([H])[H])C([H])([H])c1c([H])c([H])c([H])c([H])c1[H])C([H])([H])c1c([H])c([H])c([H])c([H])c1[H])N([H])C(=O)[C@@]([H])(N([H])C(=O)[C@@]([H])(N([H])C(=O)[C@@]([H])(N([H])[H])C([H])([H])c1c([H])c([H])c(O[H])c([H])c1[H])[C@@]([H])(C([H])([H])[H])C([H])([H])C([H])([H])[H])C([H])([H])c1c([H])c([H])c(O[H])c([H])c1[H]
     RDKit          3D

128131  0  0  0  0  0  0  0  0999 V2000
    3.2936   -1.0702   -3.2660 C   0  0  0  0  0  0  0  0  0  0  0  0
    4.1911    0.1181   -3.2911 C   0  0  0  0  0  0  0  0  0  0  0  0
    5.3298    0.1421   -2.3581 C   0  0  2  0  0  0  0  0  0  0  0  0
    6.2205   -1.0543   -2.6282 C   0  0  0  0  0  0  0  0  0  0  0  0
    5.0529    0.3693   -0.9007 C   0  0  2  0  0  0  0  0  0  0  0  0
    6.3850    0.3297   -0.2692 N   0  0  0  0  0  0  0  0  0  0  0  0
    6.9579    1.4562    0.3268 C   0  0  0  0  0  0  0  0  0  0  0  0
    6.3185    2.5341    0.3207 O   0  0  0  0  0  0  0  0  0  0  0  0
    8.2862    1.4086    0.9562 C   0  0  1  0  0  0  0  0  0  0  0  0
    8.8638    0.0874    0.9500 N   0  0  0  0  0  0  0  0  0  0  0  0
    9.1760    2.3661    0.1761 C   0  0  0  0  0  0  0  0  0  0  0  0
   10.5206    2.3715    0.7672 C   0  0  0  0  0  0  0  0  0  0  0  0
   11.4893    1.4725    0.3438 C   0  0  0  0  0  0  0  0  0  0  0  0
   12.7570    1.4641    0.8857 C   0  0  0  0  0  0  0  0  0  0  0  0
   13.1005    2.3757    1.8910 C   0  0  0  0  0  0  0  0  0  0  0  0
   14.3730    2.3808    2.4471 O   0  0  0  0  0  0  0  0  0  0  0  0
   12.1308    3.2586    2.2997 C   0  0  0  0  0  0  0  0  0  0  0  0
   10.8608    3.2759    1.7639 C   0  0  0  0  0  0  0  0  0  0  0  0
    4.0910   -0.5542   -0.3132 C   0  0  0  0  0  0  0  0  0  0  0  0
    4.4623   -1.7162   -0.0176 O   0  0  0  0  0  0  0  0  0  0  0  0
    2.7473   -0.2246   -0.0505 N   0  0  0  0  0  0  0  0  0  0  0  0
    1.7379   -1.1038    0.5050 C   0  0  1  0  0  0  0  0  0  0  0  0
    1.5578   -0.8347    2.0041 C   0  0  0  0  0  0  0  0  0  0  0  0
    2.8145   -1.0105    2.7743 C   0  0  0  0  0  0  0  0  0  0  0  0
    3.6567    0.0816    2.9805 C   0  0  0  0  0  0  0  0  0  0  0  0
    4.8090   -0.0495    3.6883 C   0  0  0  0  0  0  0  0  0  0  0  0
    5.1939   -1.2583    4.2301 C   0  0  0  0  0  0  0  0  0  0  0  0
    6.4010   -1.3414    4.9578 O   0  0  0  0  0  0  0  0  0  0  0  0
    4.3773   -2.3476    4.0387 C   0  0  0  0  0  0  0  0  0  0  0  0
    3.1924   -2.2151    3.3105 C   0  0  0  0  0  0  0  0  0  0  0  0
    0.4724   -0.7724   -0.1579 C   0  0  0  0  0  0  0  0  0  0  0  0
    0.4501    0.2789   -0.8952 O   0  0  0  0  0  0  0  0  0  0  0  0
   -0.7593   -1.4689   -0.0882 N   0  0  0  0  0  0  0  0  0  0  0  0
   -1.9376   -0.9527   -0.7736 C   0  0  1  0  0  0  0  0  0  0  0  0
   -1.9358   -1.1623   -2.2497 C   0  0  0  0  0  0  0  0  0  0  0  0
   -1.8983   -2.5295   -2.7868 C   0  0  0  0  0  0  0  0  0  0  0  0
   -0.7568   -3.4058   -2.4381 C   0  0  0  0  0  0  0  0  0  0  0  0
   -0.9486   -4.6762   -3.1562 N   0  0  0  0  0  0  0  0  0  0  0  0
   -1.9757   -5.5787   -2.8793 C   0  0  0  0  0  0  0  0  0  0  0  0
   -2.8559   -5.5231   -1.7547 N   0  0  0  0  0  0  0  0  0  0  0  0
   -2.1871   -6.5663   -3.6923 N   0  0  0  0  0  0  0  0  0  0  0  0
   -3.2042   -1.2891   -0.1326 C   0  0  0  0  0  0  0  0  0  0  0  0
   -3.4278   -2.4551    0.2580 O   0  0  0  0  0  0  0  0  0  0  0  0
   -4.1952   -0.3037    0.0620 N   0  0  0  0  0  0  0  0  0  0  0  0
   -5.5064   -0.5609    0.6755 C   0  0  1  0  0  0  0  0  0  0  0  0
   -5.2689   -0.5800    2.2010 C   0  0  0  0  0  0  0  0  0  0  0  0
   -6.5000   -0.8205    2.9589 C   0  0  0  0  0  0  0  0  0  0  0  0
   -7.1976    0.2742    3.4522 C   0  0  0  0  0  0  0  0  0  0  0  0
   -8.3716    0.0960    4.1642 C   0  0  0  0  0  0  0  0  0  0  0  0
   -8.8212   -1.2041    4.3627 C   0  0  0  0  0  0  0  0  0  0  0  0
   -8.1305   -2.2915    3.8736 C   0  0  0  0  0  0  0  0  0  0  0  0
   -6.9747   -2.1176    3.1741 C   0  0  0  0  0  0  0  0  0  0  0  0
   -6.3750    0.5648    0.3287 C   0  0  0  0  0  0  0  0  0  0  0  0
   -5.7910    1.7171    0.2903 O   0  0  0  0  0  0  0  0  0  0  0  0
   -7.7398    0.5486    0.0353 N   0  0  0  0  0  0  0  0  0  0  0  0
   -8.4040    1.8451   -0.2881 C   0  0  1  0  0  0  0  0  0  0  0  0
   -8.4925    1.9455   -1.7955 C   0  0  0  0  0  0  0  0  0  0  0  0
   -9.1018    3.1768   -2.2852 C   0  0  0  0  0  0  0  0  0  0  0  0
  -10.4203    3.3350   -2.6354 C   0  0  0  0  0  0  0  0  0  0  0  0
  -10.9368    4.5240   -3.1051 C   0  0  0  0  0  0  0  0  0  0  0  0
  -10.1341    5.6220   -3.2441 C   0  0  0  0  0  0  0  0  0  0  0  0
   -8.8020    5.5104   -2.9045 C   0  0  0  0  0  0  0  0  0  0  0  0
   -8.2991    4.3227   -2.4384 C   0  0  0  0  0  0  0  0  0  0  0  0
   -9.6845    1.8622    0.3986 C   0  0  0  0  0  0  0  0  0  0  0  0
  -10.5759    2.9733    0.4304 N   0  0  0  0  0  0  0  0  0  0  0  0
  -10.0956    0.8372    1.0438 O   0  0  0  0  0  0  0  0  0  0  0  0
    3.6151   -1.9200   -2.6686 H   0  0  0  0  0  0  0  0  0  0  0  0
    3.1458   -1.5139   -4.3062 H   0  0  0  0  0  0  0  0  0  0  0  0
    2.2491   -0.7064   -3.0210 H   0  0  0  0  0  0  0  0  0  0  0  0
    3.6070    1.0912   -3.3024 H   0  0  0  0  0  0  0  0  0  0  0  0
    4.6499    0.1356   -4.3335 H   0  0  0  0  0  0  0  0  0  0  0  0
    5.9752    1.0294   -2.6863 H   0  0  0  0  0  0  0  0  0  0  0  0
    6.0063   -1.8865   -1.8956 H   0  0  0  0  0  0  0  0  0  0  0  0
    5.9933   -1.4507   -3.6322 H   0  0  0  0  0  0  0  0  0  0  0  0
    7.3072   -0.7837   -2.5129 H   0  0  0  0  0  0  0  0  0  0  0  0
    4.6817    1.4105   -0.7482 H   0  0  0  0  0  0  0  0  0  0  0  0
    6.8805   -0.5731   -0.2859 H   0  0  0  0  0  0  0  0  0  0  0  0
    8.2731    1.7671    2.0125 H   0  0  0  0  0  0  0  0  0  0  0  0
    8.3351   -0.5826    1.5519 H   0  0  0  0  0  0  0  0  0  0  0  0
    8.9110   -0.3204   -0.0129 H   0  0  0  0  0  0  0  0  0  0  0  0
    9.2348    2.0245   -0.8759 H   0  0  0  0  0  0  0  0  0  0  0  0
    8.6875    3.3755    0.2027 H   0  0  0  0  0  0  0  0  0  0  0  0
   11.2406    0.7537   -0.4360 H   0  0  0  0  0  0  0  0  0  0  0  0
   13.5392    0.7738    0.5763 H   0  0  0  0  0  0  0  0  0  0  0  0
   15.0507    1.7112    2.1158 H   0  0  0  0  0  0  0  0  0  0  0  0
   12.3608    3.9826    3.0845 H   0  0  0  0  0  0  0  0  0  0  0  0
   10.0957    3.9742    2.0884 H   0  0  0  0  0  0  0  0  0  0  0  0
    2.4509    0.7753   -0.2863 H   0  0  0  0  0  0  0  0  0  0  0  0
    2.0252   -2.1303    0.3844 H   0  0  0  0  0  0  0  0  0  0  0  0
    1.0734    0.1367    2.2036 H   0  0  0  0  0  0  0  0  0  0  0  0
    0.8528   -1.6236    2.3501 H   0  0  0  0  0  0  0  0  0  0  0  0
    3.3621    1.0214    2.5623 H   0  0  0  0  0  0  0  0  0  0  0  0
    5.4916    0.8003    3.8676 H   0  0  0  0  0  0  0  0  0  0  0  0
    7.2163   -1.5733    4.3789 H   0  0  0  0  0  0  0  0  0  0  0  0
    4.6357   -3.3065    4.4391 H   0  0  0  0  0  0  0  0  0  0  0  0
    2.5472   -3.0986    3.1647 H   0  0  0  0  0  0  0  0  0  0  0  0
   -0.8235   -2.3348    0.4647 H   0  0  0  0  0  0  0  0  0  0  0  0
   -1.7946    0.1855   -0.6767 H   0  0  0  0  0  0  0  0  0  0  0  0
   -2.8758   -0.6539   -2.6281 H   0  0  0  0  0  0  0  0  0  0  0  0
   -1.1059   -0.5417   -2.6613 H   0  0  0  0  0  0  0  0  0  0  0  0
   -2.8393   -3.1089   -2.6086 H   0  0  0  0  0  0  0  0  0  0  0  0
   -1.8829   -2.4317   -3.9197 H   0  0  0  0  0  0  0  0  0  0  0  0
   -0.7426   -3.7248   -1.3651 H   0  0  0  0  0  0  0  0  0  0  0  0
    0.2171   -3.0088   -2.7655 H   0  0  0  0  0  0  0  0  0  0  0  0
   -0.2726   -4.9315   -3.9321 H   0  0  0  0  0  0  0  0  0  0  0  0
   -3.8788   -5.5699   -1.9410 H   0  0  0  0  0  0  0  0  0  0  0  0
   -2.5186   -5.4361   -0.7867 H   0  0  0  0  0  0  0  0  0  0  0  0
   -1.6033   -6.6966   -4.5499 H   0  0  0  0  0  0  0  0  0  0  0  0
   -3.9603    0.6820   -0.2673 H   0  0  0  0  0  0  0  0  0  0  0  0
   -5.9416   -1.5238    0.3855 H   0  0  0  0  0  0  0  0  0  0  0  0
   -4.5475   -1.3726    2.4751 H   0  0  0  0  0  0  0  0  0  0  0  0
   -4.8388    0.3865    2.5128 H   0  0  0  0  0  0  0  0  0  0  0  0
   -6.8568    1.2868    3.2993 H   0  0  0  0  0  0  0  0  0  0  0  0
   -8.9209    0.9364    4.5527 H   0  0  0  0  0  0  0  0  0  0  0  0
   -9.7345   -1.3593    4.9157 H   0  0  0  0  0  0  0  0  0  0  0  0
   -8.4881   -3.3092    4.0280 H   0  0  0  0  0  0  0  0  0  0  0  0
   -6.3705   -2.9135    2.7580 H   0  0  0  0  0  0  0  0  0  0  0  0
   -8.3055   -0.3053    0.0273 H   0  0  0  0  0  0  0  0  0  0  0  0
   -7.7058    2.6880    0.0025 H   0  0  0  0  0  0  0  0  0  0  0  0
   -7.4554    1.8397   -2.2366 H   0  0  0  0  0  0  0  0  0  0  0  0
   -9.0674    1.0858   -2.2142 H   0  0  0  0  0  0  0  0  0  0  0  0
  -11.0822    2.4708   -2.5320 H   0  0  0  0  0  0  0  0  0  0  0  0
  -11.9900    4.6269   -3.3794 H   0  0  0  0  0  0  0  0  0  0  0  0
  -10.5146    6.5711   -3.6133 H   0  0  0  0  0  0  0  0  0  0  0  0
   -8.1032    6.3309   -2.9884 H   0  0  0  0  0  0  0  0  0  0  0  0
   -7.2386    4.2510   -2.1752 H   0  0  0  0  0  0  0  0  0  0  0  0
  -10.2060    3.9182    0.5761 H   0  0  0  0  0  0  0  0  0  0  0  0
  -11.6116    2.7820    0.3051 H   0  0  0  0  0  0  0  0  0  0  0  0
  1  2  1  0
  2  3  1  0
  3  4  1  0
  3  5  1  0
  5  6  1  0
  6  7  1  0
  7  8  2  0
  7  9  1  0
  9 10  1  0
  9 11  1  0
 11 12  1  0
 12 13  2  0
 13 14  1  0
 14 15  2  0
 15 16  1  0
 15 17  1  0
 17 18  2  0
  5 19  1  0
 19 20  2  0
 19 21  1  0
 21 22  1  0
 22 23  1  0
 23 24  1  0
 24 25  2  0
 25 26  1  0
 26 27  2  0
 27 28  1  0
 27 29  1  0
 29 30  2  0
 22 31  1  0
 31 32  2  0
 31 33  1  0
 33 34  1  0
 34 35  1  0
 35 36  1  0
 36 37  1  0
 37 38  1  0
 38 39  1  0
 39 40  1  0
 39 41  2  3
 34 42  1  0
 42 43  2  0
 42 44  1  0
 44 45  1  0
 45 46  1  0
 46 47  1  0
 47 48  2  0
 48 49  1  0
 49 50  2  0
 50 51  1  0
 51 52  2  0
 45 53  1  0
 53 54  2  0
 53 55  1  0
 55 56  1  0
 56 57  1  0
 57 58  1  0
 58 59  2  0
 59 60  1  0
 60 61  2  0
 61 62  1  0
 62 63  2  0
 56 64  1  0
 64 65  1  0
 64 66  2  0
 18 12  1  0
 30 24  1  0
 52 47  1  0
 63 58  1  0
  1 67  1  0
  1 68  1  0
  1 69  1  0
  2 70  1  0
  2 71  1  0
  3 72  1  6
  4 73  1  0
  4 74  1  0
  4 75  1  0
  5 76  1  6
  6 77  1  0
  9 78  1  1
 10 79  1  0
 10 80  1  0
 11 81  1  0
 11 82  1  0
 13 83  1  0
 14 84  1  0
 16 85  1  0
 17 86  1  0
 18 87  1  0
 21 88  1  0
 22 89  1  1
 23 90  1  0
 23 91  1  0
 25 92  1  0
 26 93  1  0
 28 94  1  0
 29 95  1  0
 30 96  1  0
 33 97  1  0
 34 98  1  6
 35 99  1  0
 35100  1  0
 36101  1  0
 36102  1  0
 37103  1  0
 37104  1  0
 38105  1  0
 40106  1  0
 40107  1  0
 41108  1  0
 44109  1  0
 45110  1  6
 46111  1  0
 46112  1  0
 48113  1  0
 49114  1  0
 50115  1  0
 51116  1  0
 52117  1  0
 55118  1  0
 56119  1  1
 57120  1  0
 57121  1  0
 59122  1  0
 60123  1  0
 61124  1  0
 62125  1  0
 63126  1  0
 65127  1  0
 65128  1  0
M  END
$$$$
[H]c1c([H])c([H])c(-c2c([H])c([H])c(N([H])C(=O)c3c([H])c([H])c([H])c(C(F)(F)F)c3[H])c([H])c2-c2c([H])c([H])c([H])c(C(F)(F)F)c2[H])c([H])c1[H]
     RDKit          3D

 52 55  0  0  0  0  0  0  0  0999 V2000
   -3.0777    2.3059   -4.0018 F   0  0  0  0  0  0  0  0  0  0  0  0
   -4.2819    1.7300   -3.7373 C   0  0  0  0  0  0  0  0  0  0  0  0
   -4.4595    0.7702   -4.7713 F   0  0  0  0  0  0  0  0  0  0  0  0
   -5.3093    2.6181   -3.7780 F   0  0  0  0  0  0  0  0  0  0  0  0
   -4.1897    0.9568   -2.4516 C   0  0  0  0  0  0  0  0  0  0  0  0
   -5.3036    0.2039   -2.0422 C   0  0  0  0  0  0  0  0  0  0  0  0
   -5.2286   -0.5438   -0.8976 C   0  0  0  0  0  0  0  0  0  0  0  0
   -4.0662   -0.5914   -0.1075 C   0  0  0  0  0  0  0  0  0  0  0  0
   -2.9876    0.1447   -0.5246 C   0  0  0  0  0  0  0  0  0  0  0  0
   -3.0726    0.9061   -1.6860 C   0  0  0  0  0  0  0  0  0  0  0  0
   -1.6975    0.0186    0.1382 C   0  0  0  0  0  0  0  0  0  0  0  0
   -0.5489    0.1017   -0.7165 C   0  0  0  0  0  0  0  0  0  0  0  0
    0.7126   -0.0448   -0.2718 C   0  0  0  0  0  0  0  0  0  0  0  0
    1.9283   -0.1039   -1.0345 N   0  0  0  0  0  0  0  0  0  0  0  0
    3.1094    0.4523   -0.4378 C   0  0  0  0  0  0  0  0  0  0  0  0
    3.0474    1.0338    0.6424 O   0  0  0  0  0  0  0  0  0  0  0  0
    4.3993    0.2831   -1.1391 C   0  0  0  0  0  0  0  0  0  0  0  0
    4.5271    0.0417   -2.4572 C   0  0  0  0  0  0  0  0  0  0  0  0
    5.8046   -0.2523   -3.0198 C   0  0  0  0  0  0  0  0  0  0  0  0
    6.8716   -0.2766   -2.1610 C   0  0  0  0  0  0  0  0  0  0  0  0
    6.7394   -0.0290   -0.8185 C   0  0  0  0  0  0  0  0  0  0  0  0
    5.5107    0.2486   -0.3297 C   0  0  0  0  0  0  0  0  0  0  0  0
    7.8771   -0.1145    0.1296 C   0  0  0  0  0  0  0  0  0  0  0  0
    8.3932    1.1134    0.4821 F   0  0  0  0  0  0  0  0  0  0  0  0
    7.4983   -0.8140    1.2765 F   0  0  0  0  0  0  0  0  0  0  0  0
    8.8714   -0.8591   -0.4591 F   0  0  0  0  0  0  0  0  0  0  0  0
    0.8816   -0.2908    1.1147 C   0  0  0  0  0  0  0  0  0  0  0  0
   -0.1820   -0.3696    1.9218 C   0  0  0  0  0  0  0  0  0  0  0  0
   -1.5356   -0.2155    1.4512 C   0  0  0  0  0  0  0  0  0  0  0  0
   -2.4957   -0.3440    2.5204 C   0  0  0  0  0  0  0  0  0  0  0  0
   -3.1425    0.7171    3.0745 C   0  0  0  0  0  0  0  0  0  0  0  0
   -3.9347    0.5334    4.2288 C   0  0  0  0  0  0  0  0  0  0  0  0
   -4.0657   -0.7086    4.8011 C   0  0  0  0  0  0  0  0  0  0  0  0
   -3.4008   -1.8025    4.2284 C   0  0  0  0  0  0  0  0  0  0  0  0
   -2.6461   -1.5874    3.1155 C   0  0  0  0  0  0  0  0  0  0  0  0
   -6.1724    0.2441   -2.6449 H   0  0  0  0  0  0  0  0  0  0  0  0
   -6.0886   -1.1511   -0.5467 H   0  0  0  0  0  0  0  0  0  0  0  0
   -4.1316   -1.2165    0.7595 H   0  0  0  0  0  0  0  0  0  0  0  0
   -2.2333    1.5245   -2.0441 H   0  0  0  0  0  0  0  0  0  0  0  0
   -0.6800    0.2924   -1.7785 H   0  0  0  0  0  0  0  0  0  0  0  0
    1.9851   -0.5080   -1.9733 H   0  0  0  0  0  0  0  0  0  0  0  0
    3.7095    0.0666   -3.1250 H   0  0  0  0  0  0  0  0  0  0  0  0
    5.9142   -0.4328   -4.0565 H   0  0  0  0  0  0  0  0  0  0  0  0
    7.8547   -0.4870   -2.5337 H   0  0  0  0  0  0  0  0  0  0  0  0
    5.3629    0.4588    0.7388 H   0  0  0  0  0  0  0  0  0  0  0  0
    1.8747   -0.4630    1.5062 H   0  0  0  0  0  0  0  0  0  0  0  0
   -0.0830   -0.5618    2.9855 H   0  0  0  0  0  0  0  0  0  0  0  0
   -3.1020    1.7113    2.6930 H   0  0  0  0  0  0  0  0  0  0  0  0
   -4.4310    1.3953    4.6741 H   0  0  0  0  0  0  0  0  0  0  0  0
   -4.6557   -0.8820    5.6986 H   0  0  0  0  0  0  0  0  0  0  0  0
   -3.5227   -2.7555    4.6928 H   0  0  0  0  0  0  0  0  0  0  0  0
   -2.1464   -2.4669    2.6713 H   0  0  0  0  0  0  0  0  0  0  0  0
  1  2  1  0
  2  3  1  0
  2  4  1  0
  2  5  1  0
  5  6  2  0
  6  7  1  0
  7  8  2  0
  8  9  1  0
  9 10  2  0
  9 11  1  0
 11 12  2  0
 12 13  1  0
 13 14  1  0
 14 15  1  0
 15 16  2  0
 15 17  1  0
 17 18  2  0
 18 19  1  0
 19 20  2  0
 20 21  1  0
 21 22  2  0
 21 23  1  0
 23 24  1  0
 23 25  1  0
 23 26  1  0
 13 27  2  0
 27 28  1  0
 28 29  2  0
 29 30  1  0
 30 31  2  0
 31 32  1  0
 32 33  2  0
 33 34  1  0
 34 35  2  0
 10  5  1  0
 29 11  1  0
 35 30  1  0
 22 17  1  0
  6 36  1  0
  7 37  1  0
  8 38  1  0
 10 39  1  0
 12 40  1  0
 14 41  1  0
 18 42  1  0
 19 43  1  0
 20 44  1  0
 22 45  1  0
 27 46  1  0
 28 47  1  0
 31 48  1  0
 32 49  1  0
 33 50  1  0
 34 51  1  0
 35 52  1  0
M  END
$$$$
[H]OC(=O)[C@@]([H])(N([H])C(=O)[C@@]([H])(N([H])C(=O)[C@@]([H])(N([H])C(=O)[C@@]([H])(N([H])[H])C([H])([H])c1c([H])c([H])c(O[H])c([H])c1[H])C([H])([H])c1c([H])c([H])c([H])c([H])c1[H])C([H])([H])C([H])(C([H])([H])[H])C([H])([H])[H])C([H])([H])c1c([H])c([H])c(O[H])c([H])c1[H]
     RDKit          3D

 84 86  0  0  0  0  0  0  0  0999 V2000
   -2.5744   -4.0012   -0.4006 C   0  0  0  0  0  0  0  0  0  0  0  0
   -2.0661   -3.5064    0.9294 C   0  0  0  0  0  0  0  0  0  0  0  0
   -0.8763   -4.2320    1.4330 C   0  0  0  0  0  0  0  0  0  0  0  0
   -2.1126   -2.0323    1.1149 C   0  0  0  0  0  0  0  0  0  0  0  0
   -1.4436   -1.1380    0.2209 C   0  0  2  0  0  0  0  0  0  0  0  0
   -0.1188   -1.0217   -0.0618 N   0  0  0  0  0  0  0  0  0  0  0  0
    0.6282    0.0071   -0.6921 C   0  0  0  0  0  0  0  0  0  0  0  0
    0.0311    1.1140   -1.0119 O   0  0  0  0  0  0  0  0  0  0  0  0
    2.0433   -0.1276   -0.9896 C   0  0  2  0  0  0  0  0  0  0  0  0
    2.4716   -1.1360   -2.0088 C   0  0  0  0  0  0  0  0  0  0  0  0
    2.2063   -2.5374   -1.7534 C   0  0  0  0  0  0  0  0  0  0  0  0
    3.0847   -3.2697   -0.9413 C   0  0  0  0  0  0  0  0  0  0  0  0
    2.9189   -4.6019   -0.7135 C   0  0  0  0  0  0  0  0  0  0  0  0
    1.8471   -5.2615   -1.3011 C   0  0  0  0  0  0  0  0  0  0  0  0
    0.9640   -4.5490   -2.1088 C   0  0  0  0  0  0  0  0  0  0  0  0
    1.1621   -3.2225   -2.3119 C   0  0  0  0  0  0  0  0  0  0  0  0
    2.9708    0.0799    0.0465 N   0  0  0  0  0  0  0  0  0  0  0  0
    3.7862    1.2407    0.2983 C   0  0  0  0  0  0  0  0  0  0  0  0
    3.6592    2.2380   -0.4174 O   0  0  0  0  0  0  0  0  0  0  0  0
    4.7285    1.0808    1.4375 C   0  0  1  0  0  0  0  0  0  0  0  0
    5.6016   -0.0578    1.0143 N   0  0  0  0  0  0  0  0  0  0  0  0
    5.5375    2.2273    1.8561 C   0  0  0  0  0  0  0  0  0  0  0  0
    6.4551    2.7258    0.8338 C   0  0  0  0  0  0  0  0  0  0  0  0
    7.6685    2.0900    0.6845 C   0  0  0  0  0  0  0  0  0  0  0  0
    8.6109    2.5223   -0.2023 C   0  0  0  0  0  0  0  0  0  0  0  0
    8.3038    3.6485   -0.9778 C   0  0  0  0  0  0  0  0  0  0  0  0
    9.2826    4.0659   -1.8754 O   0  0  0  0  0  0  0  0  0  0  0  0
    7.1144    4.2668   -0.8299 C   0  0  0  0  0  0  0  0  0  0  0  0
    6.1656    3.8246    0.0741 C   0  0  0  0  0  0  0  0  0  0  0  0
   -2.1311    0.3190    0.5249 C   0  0  0  0  0  0  0  0  0  0  0  0
   -1.2109    0.9586    1.0848 O   0  0  0  0  0  0  0  0  0  0  0  0
   -3.3589    0.3511    0.0881 N   0  0  0  0  0  0  0  0  0  0  0  0
   -4.5277    1.1005   -0.1043 C   0  0  1  0  0  0  0  0  0  0  0  0
   -5.5005    1.0198    1.0111 C   0  0  0  0  0  0  0  0  0  0  0  0
   -6.7520    1.7782    0.6688 C   0  0  0  0  0  0  0  0  0  0  0  0
   -6.9933    3.0801    0.9256 C   0  0  0  0  0  0  0  0  0  0  0  0
   -8.1650    3.7109    0.5083 C   0  0  0  0  0  0  0  0  0  0  0  0
   -9.1103    2.9768   -0.1913 C   0  0  0  0  0  0  0  0  0  0  0  0
  -10.2881    3.6260   -0.6160 O   0  0  0  0  0  0  0  0  0  0  0  0
   -8.8699    1.6471   -0.4505 C   0  0  0  0  0  0  0  0  0  0  0  0
   -7.7168    1.0354   -0.0360 C   0  0  0  0  0  0  0  0  0  0  0  0
   -4.1008    2.5447   -0.3469 C   0  0  0  0  0  0  0  0  0  0  0  0
   -4.8818    3.2771   -1.2214 O   0  0  0  0  0  0  0  0  0  0  0  0
   -3.1290    3.0007    0.2081 O   0  0  0  0  0  0  0  0  0  0  0  0
   -2.1952   -5.0503   -0.5206 H   0  0  0  0  0  0  0  0  0  0  0  0
   -2.2105   -3.4305   -1.2736 H   0  0  0  0  0  0  0  0  0  0  0  0
   -3.6747   -4.1002   -0.4027 H   0  0  0  0  0  0  0  0  0  0  0  0
   -2.9063   -3.8769    1.6529 H   0  0  0  0  0  0  0  0  0  0  0  0
   -1.0196   -5.3253    1.1255 H   0  0  0  0  0  0  0  0  0  0  0  0
   -0.8574   -4.1843    2.5467 H   0  0  0  0  0  0  0  0  0  0  0  0
    0.0999   -3.9615    1.0705 H   0  0  0  0  0  0  0  0  0  0  0  0
   -1.7509   -1.8630    2.1886 H   0  0  0  0  0  0  0  0  0  0  0  0
   -3.2174   -1.7666    1.2015 H   0  0  0  0  0  0  0  0  0  0  0  0
   -1.9610   -1.2154   -0.8501 H   0  0  0  0  0  0  0  0  0  0  0  0
    0.5233   -1.8393    0.2650 H   0  0  0  0  0  0  0  0  0  0  0  0
    2.2041    0.8882   -1.6591 H   0  0  0  0  0  0  0  0  0  0  0  0
    2.0332   -0.8544   -3.0189 H   0  0  0  0  0  0  0  0  0  0  0  0
    3.5808   -0.9870   -2.1708 H   0  0  0  0  0  0  0  0  0  0  0  0
    3.9059   -2.7445   -0.4981 H   0  0  0  0  0  0  0  0  0  0  0  0
    3.5825   -5.1960   -0.0906 H   0  0  0  0  0  0  0  0  0  0  0  0
    1.7320   -6.3389   -1.1079 H   0  0  0  0  0  0  0  0  0  0  0  0
    0.1499   -5.1137   -2.5412 H   0  0  0  0  0  0  0  0  0  0  0  0
    0.4393   -2.7105   -2.9519 H   0  0  0  0  0  0  0  0  0  0  0  0
    3.0898   -0.7371    0.7427 H   0  0  0  0  0  0  0  0  0  0  0  0
    4.1448    0.6661    2.2988 H   0  0  0  0  0  0  0  0  0  0  0  0
    5.8990    0.1810    0.0327 H   0  0  0  0  0  0  0  0  0  0  0  0
    5.0650   -0.9287    1.0555 H   0  0  0  0  0  0  0  0  0  0  0  0
    6.1948    1.9567    2.7414 H   0  0  0  0  0  0  0  0  0  0  0  0
    4.9080    3.0950    2.2162 H   0  0  0  0  0  0  0  0  0  0  0  0
    7.8883    1.2101    1.2978 H   0  0  0  0  0  0  0  0  0  0  0  0
    9.5876    2.0406   -0.3488 H   0  0  0  0  0  0  0  0  0  0  0  0
    9.1352    4.8595   -2.4572 H   0  0  0  0  0  0  0  0  0  0  0  0
    6.9017    5.1477   -1.4565 H   0  0  0  0  0  0  0  0  0  0  0  0
    5.2534    4.3911    0.1417 H   0  0  0  0  0  0  0  0  0  0  0  0
   -3.6495   -0.7557   -0.3306 H   0  0  0  0  0  0  0  0  0  0  0  0
   -5.0499    0.8012   -1.1006 H   0  0  0  0  0  0  0  0  0  0  0  0
   -5.0841    1.4820    1.9400 H   0  0  0  0  0  0  0  0  0  0  0  0
   -5.7656   -0.0065    1.2862 H   0  0  0  0  0  0  0  0  0  0  0  0
   -6.2415    3.6536    1.4872 H   0  0  0  0  0  0  0  0  0  0  0  0
   -8.2916    4.7522    0.7470 H   0  0  0  0  0  0  0  0  0  0  0  0
  -10.9631    3.0412   -1.1271 H   0  0  0  0  0  0  0  0  0  0  0  0
   -9.6469    1.1223   -0.9905 H   0  0  0  0  0  0  0  0  0  0  0  0
   -7.5362    0.0057   -0.2249 H   0  0  0  0  0  0  0  0  0  0  0  0
   -5.6113    2.8295   -1.7817 H   0  0  0  0  0  0  0  0  0  0  0  0
  1  2  1  0
  2  3  1  0
  2  4  1  0
  4  5  1  0
  5  6  1  0
  6  7  1  0
  7  8  2  0
  7  9  1  0
  9 10  1  0
 10 11  1  0
 11 12  2  0
 12 13  1  0
 13 14  2  0
 14 15  1  0
 15 16  2  0
  9 17  1  0
 17 18  1  0
 18 19  2  0
 18 20  1  0
 20 21  1  0
 20 22  1  0
 22 23  1  0
 23 24  2  0
 24 25  1  0
 25 26  2  0
 26 27  1  0
 26 28  1  0
 28 29  2  0
  5 30  1  0
 30 31  2  0
 30 32  1  0
 32 33  1  0
 33 34  1  0
 34 35  1  0
 35 36  2  0
 36 37  1  0
 37 38  2  0
 38 39  1  0
 38 40  1  0
 40 41  2  0
 33 42  1  0
 42 43  1  0
 42 44  2  0
 16 11  1  0
 29 23  1  0
 41 35  1  0
  1 45  1  0
  1 46  1  0
  1 47  1  0
  2 48  1  0
  3 49  1  0
  3 50  1  0
  3 51  1  0
  4 52  1  0
  4 53  1  0
  5 54  1  6
  6 55  1  0
  9 56  1  6
 10 57  1  0
 10 58  1  0
 12 59  1  0
 13 60  1  0
 14 61  1  0
 15 62  1  0
 16 63  1  0
 17 64  1  0
 20 65  1  1
 21 66  1  0
 21 67  1  0
 22 68  1  0
 22 69  1  0
 24 70  1  0
 25 71  1  0
 27 72  1  0
 28 73  1  0
 29 74  1  0
 32 75  1  0
 33 76  1  6
 34 77  1  0
 34 78  1  0
 36 79  1  0
 37 80  1  0
 39 81  1  0
 40 82  1  0
 41 83  1  0
 43 84  1  0
M  END
$$$$
[H]N(C(=O)[C@]([H])(N([H])C(=O)[C@]([H])(N([H])C(=O)[C@@]([H])(C([H])([H])C([H])(C([H])([H])[H])C([H])([H])[H])C([H])(C([H])([H])[H])C([H])([H])[H])C([H])([H])C([H])(C([H])([H])[H])C([H])([H])[H])C([H])([H])C([H])(C([H])([H])[H])C([H])([H])[H])[C@]([H])(C(=O)N([H])[C@@]([H])(C(=O)N([H])[C@@]([H])(C([H])([H])C([H])(C([H])([H])[H])C([H])([H])[H])C([H])(C([H])([H])[H])C([H])([H])[H])C([H])([H])C([H])(C([H])([H])[H])C([H])([H])[H])C([H])([H])C([H])(C([H])([H])[H])C([H])([H])[H]
     RDKit          3D

130129  0  0  0  0  0  0  0  0999 V2000
    9.3805    3.5382   -0.5255 C   0  0  0  0  0  0  0  0  0  0  0  0
    9.9780    2.3405    0.1610 C   0  0  0  0  0  0  0  0  0  0  0  0
   10.2346    2.7539    1.6373 C   0  0  0  0  0  0  0  0  0  0  0  0
    9.0579    1.1835    0.2168 C   0  0  0  0  0  0  0  0  0  0  0  0
    8.5468    0.6078   -1.0541 C   0  0  2  0  0  0  0  0  0  0  0  0
    7.6657   -0.5281   -0.7180 N   0  0  0  0  0  0  0  0  0  0  0  0
    6.2825   -0.2504   -0.3727 C   0  0  0  0  0  0  0  0  0  0  0  0
    5.9739    0.9830   -0.3670 O   0  0  0  0  0  0  0  0  0  0  0  0
    5.2839   -1.2541   -0.0566 C   0  0  1  0  0  0  0  0  0  0  0  0
    5.6496   -2.2609    0.9757 C   0  0  0  0  0  0  0  0  0  0  0  0
    5.9284   -1.8220    2.3495 C   0  0  0  0  0  0  0  0  0  0  0  0
    7.0391   -0.8793    2.5878 C   0  0  0  0  0  0  0  0  0  0  0  0
    6.2144   -3.0926    3.1774 C   0  0  0  0  0  0  0  0  0  0  0  0
    4.0290   -0.5850    0.3208 N   0  0  0  0  0  0  0  0  0  0  0  0
    2.7445   -1.0394    0.0355 C   0  0  0  0  0  0  0  0  0  0  0  0
    2.5696   -2.1057   -0.5961 O   0  0  0  0  0  0  0  0  0  0  0  0
    1.5439   -0.2639    0.4886 C   0  0  2  0  0  0  0  0  0  0  0  0
    1.6970    0.0994    1.9545 C   0  0  0  0  0  0  0  0  0  0  0  0
    0.5071    0.9080    2.3869 C   0  0  0  0  0  0  0  0  0  0  0  0
    0.6646    1.2449    3.8669 C   0  0  0  0  0  0  0  0  0  0  0  0
    0.4995    2.2409    1.6326 C   0  0  0  0  0  0  0  0  0  0  0  0
    0.3849   -1.0672    0.3310 N   0  0  0  0  0  0  0  0  0  0  0  0
   -0.7876   -0.7543   -0.3407 C   0  0  0  0  0  0  0  0  0  0  0  0
   -1.0365    0.2968   -0.9529 O   0  0  0  0  0  0  0  0  0  0  0  0
   -1.9025   -1.8101   -0.3269 C   0  0  1  0  0  0  0  0  0  0  0  0
   -2.1514   -2.2128    1.0864 C   0  0  0  0  0  0  0  0  0  0  0  0
   -3.0840   -3.3245    1.3553 C   0  0  0  0  0  0  0  0  0  0  0  0
   -3.1256   -3.4782    2.9004 C   0  0  0  0  0  0  0  0  0  0  0  0
   -2.4722   -4.6630    0.8838 C   0  0  0  0  0  0  0  0  0  0  0  0
   -3.0024   -1.2426   -1.0484 N   0  0  0  0  0  0  0  0  0  0  0  0
   -4.2526   -0.7685   -0.6344 C   0  0  0  0  0  0  0  0  0  0  0  0
   -4.6348   -0.7831    0.5769 O   0  0  0  0  0  0  0  0  0  0  0  0
   -5.2207   -0.1987   -1.5948 C   0  0  1  0  0  0  0  0  0  0  0  0
   -5.5510   -1.0744   -2.7263 C   0  0  0  0  0  0  0  0  0  0  0  0
   -6.2205   -2.3601   -2.5208 C   0  0  0  0  0  0  0  0  0  0  0  0
   -5.5723   -3.4097   -1.7002 C   0  0  0  0  0  0  0  0  0  0  0  0
   -6.6020   -2.9076   -3.9057 C   0  0  0  0  0  0  0  0  0  0  0  0
   -6.4278    0.2352   -0.8864 N   0  0  0  0  0  0  0  0  0  0  0  0
   -6.7937    1.5634   -0.6859 C   0  0  0  0  0  0  0  0  0  0  0  0
   -5.9611    2.4243   -1.1879 O   0  0  0  0  0  0  0  0  0  0  0  0
   -7.9767    2.0777    0.0094 C   0  0  1  0  0  0  0  0  0  0  0  0
   -8.1578    3.5429   -0.0231 C   0  0  0  0  0  0  0  0  0  0  0  0
   -8.2951    4.2681   -1.2908 C   0  0  0  0  0  0  0  0  0  0  0  0
   -8.4176    5.7732   -0.8910 C   0  0  0  0  0  0  0  0  0  0  0  0
   -9.5900    4.0336   -2.0613 C   0  0  0  0  0  0  0  0  0  0  0  0
   -9.1805    1.1984    0.0557 C   0  0  0  0  0  0  0  0  0  0  0  0
   -9.7327    0.7383   -1.2389 C   0  0  0  0  0  0  0  0  0  0  0  0
   -9.0644    0.0213    0.9969 C   0  0  0  0  0  0  0  0  0  0  0  0
    9.5405    0.2077   -2.0728 C   0  0  0  0  0  0  0  0  0  0  0  0
   10.5387   -0.8194   -1.5582 C   0  0  0  0  0  0  0  0  0  0  0  0
   10.1583    1.2785   -2.9065 C   0  0  0  0  0  0  0  0  0  0  0  0
    9.1693    4.3378    0.2045 H   0  0  0  0  0  0  0  0  0  0  0  0
   10.1089    3.9726   -1.2605 H   0  0  0  0  0  0  0  0  0  0  0  0
    8.4153    3.3065   -1.0582 H   0  0  0  0  0  0  0  0  0  0  0  0
   10.9833    2.1397   -0.2309 H   0  0  0  0  0  0  0  0  0  0  0  0
   11.2693    3.1258    1.7596 H   0  0  0  0  0  0  0  0  0  0  0  0
    9.5638    3.5900    1.8987 H   0  0  0  0  0  0  0  0  0  0  0  0
   10.0946    1.8980    2.3144 H   0  0  0  0  0  0  0  0  0  0  0  0
    8.1337    1.5519    0.7748 H   0  0  0  0  0  0  0  0  0  0  0  0
    9.4589    0.4034    0.9140 H   0  0  0  0  0  0  0  0  0  0  0  0
    7.8493    1.3749   -1.4813 H   0  0  0  0  0  0  0  0  0  0  0  0
    7.9692   -1.5017   -0.7145 H   0  0  0  0  0  0  0  0  0  0  0  0
    5.0786   -1.8716   -0.9929 H   0  0  0  0  0  0  0  0  0  0  0  0
    6.5458   -2.8155    0.5908 H   0  0  0  0  0  0  0  0  0  0  0  0
    4.8366   -3.0317    1.0074 H   0  0  0  0  0  0  0  0  0  0  0  0
    5.0235   -1.3926    2.8610 H   0  0  0  0  0  0  0  0  0  0  0  0
    7.1832   -0.7432    3.7026 H   0  0  0  0  0  0  0  0  0  0  0  0
    7.9981   -1.3205    2.2463 H   0  0  0  0  0  0  0  0  0  0  0  0
    6.8637    0.1461    2.2083 H   0  0  0  0  0  0  0  0  0  0  0  0
    5.3667   -3.7986    3.0879 H   0  0  0  0  0  0  0  0  0  0  0  0
    7.1877   -3.5222    2.8838 H   0  0  0  0  0  0  0  0  0  0  0  0
    6.2356   -2.7405    4.2268 H   0  0  0  0  0  0  0  0  0  0  0  0
    4.1490    0.3128    0.8520 H   0  0  0  0  0  0  0  0  0  0  0  0
    1.5274    0.6759   -0.0854 H   0  0  0  0  0  0  0  0  0  0  0  0
    2.6003    0.7130    2.1459 H   0  0  0  0  0  0  0  0  0  0  0  0
    1.7652   -0.7961    2.6080 H   0  0  0  0  0  0  0  0  0  0  0  0
   -0.4319    0.3756    2.2278 H   0  0  0  0  0  0  0  0  0  0  0  0
    0.1602    2.2139    4.0569 H   0  0  0  0  0  0  0  0  0  0  0  0
    1.7379    1.3896    4.1115 H   0  0  0  0  0  0  0  0  0  0  0  0
    0.2026    0.4614    4.4732 H   0  0  0  0  0  0  0  0  0  0  0  0
    1.4323    2.3353    1.0537 H   0  0  0  0  0  0  0  0  0  0  0  0
   -0.4273    2.2938    1.0297 H   0  0  0  0  0  0  0  0  0  0  0  0
    0.4257    3.0954    2.3484 H   0  0  0  0  0  0  0  0  0  0  0  0
    0.4743   -2.0441    0.7840 H   0  0  0  0  0  0  0  0  0  0  0  0
   -1.5279   -2.6917   -0.8611 H   0  0  0  0  0  0  0  0  0  0  0  0
   -2.5316   -1.3210    1.6961 H   0  0  0  0  0  0  0  0  0  0  0  0
   -1.1829   -2.4560    1.6014 H   0  0  0  0  0  0  0  0  0  0  0  0
   -4.0916   -3.3071    1.0458 H   0  0  0  0  0  0  0  0  0  0  0  0
   -3.8330   -4.2679    3.1860 H   0  0  0  0  0  0  0  0  0  0  0  0
   -2.1056   -3.7379    3.2437 H   0  0  0  0  0  0  0  0  0  0  0  0
   -3.3901   -2.5202    3.3656 H   0  0  0  0  0  0  0  0  0  0  0  0
   -1.4523   -4.7820    1.3259 H   0  0  0  0  0  0  0  0  0  0  0  0
   -2.5120   -4.7677   -0.1970 H   0  0  0  0  0  0  0  0  0  0  0  0
   -3.1039   -5.4555    1.3300 H   0  0  0  0  0  0  0  0  0  0  0  0
   -2.8200   -1.1699   -2.1180 H   0  0  0  0  0  0  0  0  0  0  0  0
   -4.7462    0.7714   -1.9412 H   0  0  0  0  0  0  0  0  0  0  0  0
   -6.2048   -0.4718   -3.4340 H   0  0  0  0  0  0  0  0  0  0  0  0
   -4.6328   -1.2911   -3.3759 H   0  0  0  0  0  0  0  0  0  0  0  0
   -7.2232   -2.1527   -2.0086 H   0  0  0  0  0  0  0  0  0  0  0  0
   -5.6097   -3.2143   -0.6278 H   0  0  0  0  0  0  0  0  0  0  0  0
   -4.5397   -3.5897   -2.0416 H   0  0  0  0  0  0  0  0  0  0  0  0
   -6.0947   -4.4086   -1.8323 H   0  0  0  0  0  0  0  0  0  0  0  0
   -6.8081   -2.0676   -4.5748 H   0  0  0  0  0  0  0  0  0  0  0  0
   -5.7384   -3.5169   -4.2378 H   0  0  0  0  0  0  0  0  0  0  0  0
   -7.4926   -3.5471   -3.7752 H   0  0  0  0  0  0  0  0  0  0  0  0
   -7.0166   -0.5410   -0.5357 H   0  0  0  0  0  0  0  0  0  0  0  0
   -7.6142    1.9444    1.1525 H   0  0  0  0  0  0  0  0  0  0  0  0
   -9.0518    3.7907    0.6300 H   0  0  0  0  0  0  0  0  0  0  0  0
   -7.3069    4.0142    0.5651 H   0  0  0  0  0  0  0  0  0  0  0  0
   -7.4769    4.2219   -1.9967 H   0  0  0  0  0  0  0  0  0  0  0  0
   -9.2227    5.8018   -0.1290 H   0  0  0  0  0  0  0  0  0  0  0  0
   -8.7511    6.2823   -1.8152 H   0  0  0  0  0  0  0  0  0  0  0  0
   -7.4455    6.1392   -0.5526 H   0  0  0  0  0  0  0  0  0  0  0  0
   -9.9403    4.9881   -2.5370 H   0  0  0  0  0  0  0  0  0  0  0  0
  -10.3603    3.7345   -1.3290 H   0  0  0  0  0  0  0  0  0  0  0  0
   -9.4675    3.2983   -2.8783 H   0  0  0  0  0  0  0  0  0  0  0  0
  -10.0469    1.8037    0.5382 H   0  0  0  0  0  0  0  0  0  0  0  0
   -9.0616    0.9153   -2.1065 H   0  0  0  0  0  0  0  0  0  0  0  0
  -10.7358    1.1586   -1.4078 H   0  0  0  0  0  0  0  0  0  0  0  0
   -9.8731   -0.3811   -1.2324 H   0  0  0  0  0  0  0  0  0  0  0  0
   -8.0619    0.0636    1.4890 H   0  0  0  0  0  0  0  0  0  0  0  0
   -9.1139   -0.9655    0.4584 H   0  0  0  0  0  0  0  0  0  0  0  0
   -9.8184    0.0468    1.8194 H   0  0  0  0  0  0  0  0  0  0  0  0
    8.9316   -0.4180   -2.8391 H   0  0  0  0  0  0  0  0  0  0  0  0
   10.9272   -1.3668   -2.4339 H   0  0  0  0  0  0  0  0  0  0  0  0
   11.4034   -0.3356   -1.0635 H   0  0  0  0  0  0  0  0  0  0  0  0
    9.9939   -1.5120   -0.9103 H   0  0  0  0  0  0  0  0  0  0  0  0
    9.3340    1.9594   -3.2197 H   0  0  0  0  0  0  0  0  0  0  0  0
   10.5297    0.8041   -3.8821 H   0  0  0  0  0  0  0  0  0  0  0  0
   11.0363    1.7797   -2.5019 H   0  0  0  0  0  0  0  0  0  0  0  0
  1  2  1  0
  2  3  1  0
  2  4  1  0
  4  5  1  0
  5  6  1  0
  6  7  1  0
  7  8  2  0
  7  9  1  0
  9 10  1  0
 10 11  1  0
 11 12  1  0
 11 13  1  0
  9 14  1  0
 14 15  1  0
 15 16  2  0
 15 17  1  0
 17 18  1  0
 18 19  1  0
 19 20  1  0
 19 21  1  0
 17 22  1  0
 22 23  1  0
 23 24  2  0
 23 25  1  0
 25 26  1  0
 26 27  1  0
 27 28  1  0
 27 29  1  0
 25 30  1  0
 30 31  1  0
 31 32  2  0
 31 33  1  0
 33 34  1  0
 34 35  1  0
 35 36  1  0
 35 37  1  0
 33 38  1  0
 38 39  1  0
 39 40  2  0
 39 41  1  0
 41 42  1  0
 42 43  1  0
 43 44  1  0
 43 45  1  0
 41 46  1  0
 46 47  1  0
 46 48  1  0
  5 49  1  0
 49 50  1  0
 49 51  1  0
  1 52  1  0
  1 53  1  0
  1 54  1  0
  2 55  1  0
  3 56  1  0
  3 57  1  0
  3 58  1  0
  4 59  1  0
  4 60  1  0
  5 61  1  6
  6 62  1  0
  9 63  1  6
 10 64  1  0
 10 65  1  0
 11 66  1  0
 12 67  1  0
 12 68  1  0
 12 69  1  0
 13 70  1  0
 13 71  1  0
 13 72  1  0
 14 73  1  0
 17 74  1  6
 18 75  1  0
 18 76  1  0
 19 77  1  0
 20 78  1  0
 20 79  1  0
 20 80  1  0
 21 81  1  0
 21 82  1  0
 21 83  1  0
 22 84  1  0
 25 85  1  6
 26 86  1  0
 26 87  1  0
 27 88  1  0
 28 89  1  0
 28 90  1  0
 28 91  1  0
 29 92  1  0
 29 93  1  0
 29 94  1  0
 30 95  1  0
 33 96  1  6
 34 97  1  0
 34 98  1  0
 35 99  1  0
 36100  1  0
 36101  1  0
 36102  1  0
 37103  1  0
 37104  1  0
 37105  1  0
 38106  1  0
 41107  1  1
 42108  1  0
 42109  1  0
 43110  1  0
 44111  1  0
 44112  1  0
 44113  1  0
 45114  1  0
 45115  1  0
 45116  1  0
 46117  1  0
 47118  1  0
 47119  1  0
 47120  1  0
 48121  1  0
 48122  1  0
 48123  1  0
 49124  1  0
 50125  1  0
 50126  1  0
 50127  1  0
 51128  1  0
 51129  1  0
 51130  1  0
M  END
$$$$
[H]c1c([H])c(-c2c([H])c([H])c(C(=O)N3C([H])([H])C([H])([H])N(S(=O)(=O)c4c([H])c([H])c(N5C([H])([H])C([H])([H])OC([H])([H])C5([H])[H])c([H])c4[H])C([H])([H])[C@@]3([H])C([H])([H])[H])c([H])c2[H])c([H])c([H])c1C#N
     RDKit          3D

 68 72  0  0  0  0  0  0  0  0999 V2000
    0.9106    2.2876    0.1262 C   0  0  0  0  0  0  0  0  0  0  0  0
    0.7169    0.9875    0.9157 C   0  0  2  0  0  0  0  0  0  0  0  0
   -0.7248    1.0805    1.4460 C   0  0  0  0  0  0  0  0  0  0  0  0
   -1.0069    0.1864    2.5095 N   0  0  0  0  0  0  0  0  0  0  0  0
    0.0105    0.1465    3.5367 C   0  0  0  0  0  0  0  0  0  0  0  0
    1.0146    1.2762    3.3475 C   0  0  0  0  0  0  0  0  0  0  0  0
    1.6461    0.9708    2.0005 N   0  0  0  0  0  0  0  0  0  0  0  0
    3.0065    0.7179    2.0489 C   0  0  0  0  0  0  0  0  0  0  0  0
    3.4986    0.8386    3.2763 O   0  0  0  0  0  0  0  0  0  0  0  0
    3.9536    0.3600    1.0341 C   0  0  0  0  0  0  0  0  0  0  0  0
    5.3176    0.3307    1.4404 C   0  0  0  0  0  0  0  0  0  0  0  0
    6.3177   -0.0237    0.5669 C   0  0  0  0  0  0  0  0  0  0  0  0
    6.0428   -0.3668   -0.7426 C   0  0  0  0  0  0  0  0  0  0  0  0
    4.7248   -0.3302   -1.1042 C   0  0  0  0  0  0  0  0  0  0  0  0
    3.6773    0.0212   -0.2584 C   0  0  0  0  0  0  0  0  0  0  0  0
    7.1094   -0.7402   -1.6655 C   0  0  0  0  0  0  0  0  0  0  0  0
    8.3557   -0.1703   -1.5317 C   0  0  0  0  0  0  0  0  0  0  0  0
    9.3921   -0.5210   -2.4038 C   0  0  0  0  0  0  0  0  0  0  0  0
    9.1335   -1.4399   -3.3862 C   0  0  0  0  0  0  0  0  0  0  0  0
    7.9029   -2.0297   -3.5509 C   0  0  0  0  0  0  0  0  0  0  0  0
    6.9043   -1.6568   -2.6691 C   0  0  0  0  0  0  0  0  0  0  0  0
   10.1930   -1.8037   -4.2848 C   0  0  0  0  0  0  0  0  0  0  0  0
   11.0440   -2.0958   -5.0094 N   0  0  0  0  0  0  0  0  0  0  0  0
   -2.5578    0.4639    3.2061 S   0  0  0  0  0  0  0  0  0  0  0  0
   -2.7930   -0.4622    4.3595 O   0  0  0  0  0  0  0  0  0  0  0  0
   -2.6746    1.8896    3.7122 O   0  0  0  0  0  0  0  0  0  0  0  0
   -3.7632    0.2037    1.9660 C   0  0  0  0  0  0  0  0  0  0  0  0
   -4.2174    1.2137    1.1560 C   0  0  0  0  0  0  0  0  0  0  0  0
   -5.1696    0.9692    0.1997 C   0  0  0  0  0  0  0  0  0  0  0  0
   -5.7367   -0.2970   -0.0184 C   0  0  0  0  0  0  0  0  0  0  0  0
   -5.2696   -1.2945    0.8008 C   0  0  0  0  0  0  0  0  0  0  0  0
   -4.2985   -1.0502    1.7777 C   0  0  0  0  0  0  0  0  0  0  0  0
   -6.7148   -0.4792   -1.0196 N   0  0  0  0  0  0  0  0  0  0  0  0
   -7.3891   -1.7318   -1.1853 C   0  0  0  0  0  0  0  0  0  0  0  0
   -8.8842   -1.4372   -1.3214 C   0  0  0  0  0  0  0  0  0  0  0  0
   -9.1605   -0.4227   -2.2036 O   0  0  0  0  0  0  0  0  0  0  0  0
   -8.0758    0.0673   -2.8999 C   0  0  0  0  0  0  0  0  0  0  0  0
   -7.0473    0.6186   -1.9046 C   0  0  0  0  0  0  0  0  0  0  0  0
    0.2086    3.0707    0.4625 H   0  0  0  0  0  0  0  0  0  0  0  0
    0.7929    2.1439   -0.9541 H   0  0  0  0  0  0  0  0  0  0  0  0
    1.9311    2.6920    0.2856 H   0  0  0  0  0  0  0  0  0  0  0  0
    0.6969    0.1601    0.2253 H   0  0  0  0  0  0  0  0  0  0  0  0
   -1.4339    0.9155    0.6165 H   0  0  0  0  0  0  0  0  0  0  0  0
   -0.8514    2.1200    1.7940 H   0  0  0  0  0  0  0  0  0  0  0  0
   -0.4897    0.3506    4.5047 H   0  0  0  0  0  0  0  0  0  0  0  0
    0.5061   -0.8227    3.6137 H   0  0  0  0  0  0  0  0  0  0  0  0
    1.7696    1.2347    4.1095 H   0  0  0  0  0  0  0  0  0  0  0  0
    0.5405    2.2531    3.3098 H   0  0  0  0  0  0  0  0  0  0  0  0
    5.5711    0.5910    2.4409 H   0  0  0  0  0  0  0  0  0  0  0  0
    7.3583   -0.0429    0.8870 H   0  0  0  0  0  0  0  0  0  0  0  0
    4.4316   -0.5910   -2.1286 H   0  0  0  0  0  0  0  0  0  0  0  0
    2.6704    0.0114   -0.6117 H   0  0  0  0  0  0  0  0  0  0  0  0
    8.4953    0.5544   -0.7298 H   0  0  0  0  0  0  0  0  0  0  0  0
   10.3635   -0.0495   -2.2660 H   0  0  0  0  0  0  0  0  0  0  0  0
    7.7826   -2.7447   -4.3501 H   0  0  0  0  0  0  0  0  0  0  0  0
    5.9371   -2.1167   -2.7938 H   0  0  0  0  0  0  0  0  0  0  0  0
   -3.8077    2.2222    1.2841 H   0  0  0  0  0  0  0  0  0  0  0  0
   -5.5459    1.7620   -0.4568 H   0  0  0  0  0  0  0  0  0  0  0  0
   -5.6549   -2.3157    0.6971 H   0  0  0  0  0  0  0  0  0  0  0  0
   -3.9631   -1.8868    2.4033 H   0  0  0  0  0  0  0  0  0  0  0  0
   -7.3133   -2.4336   -0.3406 H   0  0  0  0  0  0  0  0  0  0  0  0
   -7.0406   -2.2930   -2.0826 H   0  0  0  0  0  0  0  0  0  0  0  0
   -9.2387   -1.1732   -0.3094 H   0  0  0  0  0  0  0  0  0  0  0  0
   -9.4058   -2.3947   -1.5807 H   0  0  0  0  0  0  0  0  0  0  0  0
   -7.5978   -0.7534   -3.5013 H   0  0  0  0  0  0  0  0  0  0  0  0
   -8.4203    0.8355   -3.5980 H   0  0  0  0  0  0  0  0  0  0  0  0
   -6.1698    0.9512   -2.5115 H   0  0  0  0  0  0  0  0  0  0  0  0
   -7.5116    1.4728   -1.3806 H   0  0  0  0  0  0  0  0  0  0  0  0
  1  2  1  0
  2  3  1  0
  3  4  1  0
  4  5  1  0
  5  6  1  0
  6  7  1  0
  7  8  1  0
  8  9  2  0
  8 10  1  0
 10 11  2  0
 11 12  1  0
 12 13  2  0
 13 14  1  0
 14 15  2  0
 13 16  1  0
 16 17  2  0
 17 18  1  0
 18 19  2  0
 19 20  1  0
 20 21  2  0
 19 22  1  0
 22 23  3  0
  4 24  1  0
 24 25  2  0
 24 26  2  0
 24 27  1  0
 27 28  2  0
 28 29  1  0
 29 30  2  0
 30 31  1  0
 31 32  2  0
 30 33  1  0
 33 34  1  0
 34 35  1  0
 35 36  1  0
 36 37  1  0
 37 38  1  0
  7  2  1  0
 15 10  1  0
 21 16  1  0
 32 27  1  0
 38 33  1  0
  1 39  1  0
  1 40  1  0
  1 41  1  0
  2 42  1  6
  3 43  1  0
  3 44  1  0
  5 45  1  0
  5 46  1  0
  6 47  1  0
  6 48  1  0
 11 49  1  0
 12 50  1  0
 14 51  1  0
 15 52  1  0
 17 53  1  0
 18 54  1  0
 20 55  1  0
 21 56  1  0
 28 57  1  0
 29 58  1  0
 31 59  1  0
 32 60  1  0
 34 61  1  0
 34 62  1  0
 35 63  1  0
 35 64  1  0
 37 65  1  0
 37 66  1  0
 38 67  1  0
 38 68  1  0
M  END
$$$$
[H]c1c([H])c([H])c2c(c1[H])c1c3c(c4c5c([H])c([H])c([H])c([H])c5n5c4c1n2[C@@]1(C([H])([H])[H])C([H])([H])[C@]([H])(C(=O)N([H])[H])O[C@]5([H])C([H])([H])[C@@]([H])(N([H])C([H])([H])[H])[C@@]1([H])OC([H])([H])[H])C(=O)N([H])C3([H])[H]
     RDKit          3D

 71 78  0  0  0  0  0  0  0  0999 V2000
   -3.3826    2.5924   -2.2821 C   0  0  0  0  0  0  0  0  0  0  0  0
   -2.4787    1.4828   -2.2022 N   0  0  0  0  0  0  0  0  0  0  0  0
   -2.5291    0.8695   -0.8763 C   0  0  2  0  0  0  0  0  0  0  0  0
   -2.0977    1.8235    0.1406 C   0  0  0  0  0  0  0  0  0  0  0  0
   -0.9613    1.5822    0.9794 C   0  0  1  0  0  0  0  0  0  0  0  0
   -0.8604    0.8926    2.1210 O   0  0  0  0  0  0  0  0  0  0  0  0
   -1.6078   -0.0821    2.5261 C   0  0  2  0  0  0  0  0  0  0  0  0
   -2.3286   -0.8402    1.4702 C   0  0  0  0  0  0  0  0  0  0  0  0
   -1.6098   -1.2301    0.2709 C   0  0  1  0  0  0  0  0  0  0  0  0
   -2.5154   -2.4339   -0.1714 C   0  0  0  0  0  0  0  0  0  0  0  0
   -1.7678   -0.3906   -1.0053 C   0  0  2  0  0  0  0  0  0  0  0  0
   -0.6584   -0.3774   -1.8214 O   0  0  0  0  0  0  0  0  0  0  0  0
   -0.7474   -0.9524   -3.0457 C   0  0  0  0  0  0  0  0  0  0  0  0
   -0.1837   -1.5761    0.3965 N   0  0  0  0  0  0  0  0  0  0  0  0
    0.2093   -2.9135    0.3763 C   0  0  0  0  0  0  0  0  0  0  0  0
   -0.4148   -4.1190    0.5905 C   0  0  0  0  0  0  0  0  0  0  0  0
    0.2794   -5.3279    0.5561 C   0  0  0  0  0  0  0  0  0  0  0  0
    1.6099   -5.3303    0.3093 C   0  0  0  0  0  0  0  0  0  0  0  0
    2.2828   -4.1485    0.0959 C   0  0  0  0  0  0  0  0  0  0  0  0
    1.5648   -2.9544    0.1376 C   0  0  0  0  0  0  0  0  0  0  0  0
    1.9832   -1.6322    0.0274 C   0  0  0  0  0  0  0  0  0  0  0  0
    3.2488   -1.1642   -0.2434 C   0  0  0  0  0  0  0  0  0  0  0  0
    4.5211   -1.9056   -0.4575 C   0  0  0  0  0  0  0  0  0  0  0  0
    5.5130   -0.9604   -0.7635 N   0  0  0  0  0  0  0  0  0  0  0  0
    4.9433    0.3517   -0.6760 C   0  0  0  0  0  0  0  0  0  0  0  0
    5.5954    1.3849   -0.8569 O   0  0  0  0  0  0  0  0  0  0  0  0
    3.5522    0.1762   -0.3553 C   0  0  0  0  0  0  0  0  0  0  0  0
    2.4523    1.0354   -0.1553 C   0  0  0  0  0  0  0  0  0  0  0  0
    2.4251    2.3932   -0.1000 C   0  0  0  0  0  0  0  0  0  0  0  0
    3.3324    3.4101   -0.3022 C   0  0  0  0  0  0  0  0  0  0  0  0
    2.9412    4.7500   -0.1757 C   0  0  0  0  0  0  0  0  0  0  0  0
    1.6542    5.0969    0.1506 C   0  0  0  0  0  0  0  0  0  0  0  0
    0.7550    4.0710    0.3510 C   0  0  0  0  0  0  0  0  0  0  0  0
    1.1312    2.7243    0.2287 C   0  0  0  0  0  0  0  0  0  0  0  0
    0.3822    1.6009    0.3749 N   0  0  0  0  0  0  0  0  0  0  0  0
    1.1595    0.5310    0.1314 C   0  0  0  0  0  0  0  0  0  0  0  0
    0.8598   -0.7992    0.2117 C   0  0  0  0  0  0  0  0  0  0  0  0
   -2.6645    0.4231    3.4445 C   0  0  0  0  0  0  0  0  0  0  0  0
   -2.7957    1.7827    3.8156 N   0  0  0  0  0  0  0  0  0  0  0  0
   -3.5233   -0.3725    3.9528 O   0  0  0  0  0  0  0  0  0  0  0  0
   -2.8347    3.5530   -2.4682 H   0  0  0  0  0  0  0  0  0  0  0  0
   -4.0758    2.4570   -3.1505 H   0  0  0  0  0  0  0  0  0  0  0  0
   -3.9376    2.6717   -1.3266 H   0  0  0  0  0  0  0  0  0  0  0  0
   -1.5045    1.6991   -2.4838 H   0  0  0  0  0  0  0  0  0  0  0  0
   -3.6130    0.6426   -0.7697 H   0  0  0  0  0  0  0  0  0  0  0  0
   -1.9363    2.8251   -0.3798 H   0  0  0  0  0  0  0  0  0  0  0  0
   -2.9822    2.0739    0.8016 H   0  0  0  0  0  0  0  0  0  0  0  0
   -0.9807    2.6320    1.5794 H   0  0  0  0  0  0  0  0  0  0  0  0
   -1.0463   -0.8123    3.1480 H   0  0  0  0  0  0  0  0  0  0  0  0
   -3.2497   -0.2823    1.2226 H   0  0  0  0  0  0  0  0  0  0  0  0
   -2.7615   -1.7203    2.0554 H   0  0  0  0  0  0  0  0  0  0  0  0
   -3.0597   -2.8817    0.6323 H   0  0  0  0  0  0  0  0  0  0  0  0
   -3.4122   -1.9260   -0.7393 H   0  0  0  0  0  0  0  0  0  0  0  0
   -2.0915   -2.9851   -0.9950 H   0  0  0  0  0  0  0  0  0  0  0  0
   -2.4966   -0.9581   -1.7150 H   0  0  0  0  0  0  0  0  0  0  0  0
    0.2362   -0.8418   -3.5443 H   0  0  0  0  0  0  0  0  0  0  0  0
   -1.4765   -0.4299   -3.7000 H   0  0  0  0  0  0  0  0  0  0  0  0
   -0.9545   -2.0419   -2.9771 H   0  0  0  0  0  0  0  0  0  0  0  0
   -1.4321   -4.1362    0.8629 H   0  0  0  0  0  0  0  0  0  0  0  0
   -0.2679   -6.2548    0.7300 H   0  0  0  0  0  0  0  0  0  0  0  0
    2.2176   -6.2486    0.2653 H   0  0  0  0  0  0  0  0  0  0  0  0
    3.3197   -4.1285   -0.0970 H   0  0  0  0  0  0  0  0  0  0  0  0
    4.7873   -2.5052    0.4447 H   0  0  0  0  0  0  0  0  0  0  0  0
    4.3419   -2.5581   -1.3667 H   0  0  0  0  0  0  0  0  0  0  0  0
    6.5009   -1.1320   -1.0161 H   0  0  0  0  0  0  0  0  0  0  0  0
    4.3302    3.1969   -0.5572 H   0  0  0  0  0  0  0  0  0  0  0  0
    3.7077    5.4926   -0.3489 H   0  0  0  0  0  0  0  0  0  0  0  0
    1.4051    6.1447    0.2349 H   0  0  0  0  0  0  0  0  0  0  0  0
   -0.2471    4.3816    0.6047 H   0  0  0  0  0  0  0  0  0  0  0  0
   -2.0853    2.3274    4.3427 H   0  0  0  0  0  0  0  0  0  0  0  0
   -3.6702    2.2815    3.5419 H   0  0  0  0  0  0  0  0  0  0  0  0
  1  2  1  0
  2  3  1  0
  3  4  1  0
  4  5  1  0
  5  6  1  0
  6  7  1  0
  7  8  1  0
  8  9  1  0
  9 10  1  6
  9 11  1  0
 11 12  1  0
 12 13  1  0
  9 14  1  0
 14 15  1  0
 15 16  2  0
 16 17  1  0
 17 18  2  0
 18 19  1  0
 19 20  2  0
 20 21  1  0
 21 22  2  0
 22 23  1  0
 23 24  1  0
 24 25  1  0
 25 26  2  0
 25 27  1  0
 27 28  2  0
 28 29  1  0
 29 30  2  0
 30 31  1  0
 31 32  2  0
 32 33  1  0
 33 34  2  0
 34 35  1  0
 35 36  1  0
 36 37  2  0
  7 38  1  0
 38 39  1  0
 38 40  2  0
 11  3  1  0
 37 14  1  0
 35  5  1  0
 20 15  1  0
 37 21  1  0
 27 22  1  0
 36 28  1  0
 34 29  1  0
  1 41  1  0
  1 42  1  0
  1 43  1  0
  2 44  1  0
  3 45  1  1
  4 46  1  0
  4 47  1  0
  5 48  1  1
  7 49  1  1
  8 50  1  0
  8 51  1  0
 10 52  1  0
 10 53  1  0
 10 54  1  0
 11 55  1  6
 13 56  1  0
 13 57  1  0
 13 58  1  0
 16 59  1  0
 17 60  1  0
 18 61  1  0
 19 62  1  0
 23 63  1  0
 23 64  1  0
 24 65  1  0
 30 66  1  0
 31 67  1  0
 32 68  1  0
 33 69  1  0
 39 70  1  0
 39 71  1  0
M  END
$$$$
[H]c1nn(C([H])([H])[H])c([H])c1-c1c([H])c([H])c2nc(N([H])c3c([H])c([H])c(N4C([H])([H])C([H])([H])N(C([H])([H])[H])C([H])([H])C4([H])[H])c([H])c3[H])nc([H])c2c1[H]
     RDKit          3D

 55 59  0  0  0  0  0  0  0  0999 V2000
   -6.9122    2.5704   -0.3755 C   0  0  0  0  0  0  0  0  0  0  0  0
   -7.4959    1.2588   -0.5398 N   0  0  0  0  0  0  0  0  0  0  0  0
   -7.0410    0.5859   -1.7157 C   0  0  0  0  0  0  0  0  0  0  0  0
   -5.5839    0.1735   -1.6244 C   0  0  0  0  0  0  0  0  0  0  0  0
   -5.4111   -0.5291   -0.3696 N   0  0  0  0  0  0  0  0  0  0  0  0
   -6.5775   -0.8076    0.3984 C   0  0  0  0  0  0  0  0  0  0  0  0
   -7.4231    0.4446    0.6286 C   0  0  0  0  0  0  0  0  0  0  0  0
   -4.1159   -0.9042    0.0311 C   0  0  0  0  0  0  0  0  0  0  0  0
   -3.0147   -0.6351   -0.7985 C   0  0  0  0  0  0  0  0  0  0  0  0
   -1.7256   -0.9717   -0.4688 C   0  0  0  0  0  0  0  0  0  0  0  0
   -1.4192   -1.5991    0.7041 C   0  0  0  0  0  0  0  0  0  0  0  0
   -0.1611   -1.9695    1.1764 N   0  0  0  0  0  0  0  0  0  0  0  0
    1.0507   -1.3832    0.7587 C   0  0  0  0  0  0  0  0  0  0  0  0
    1.1926   -0.3932   -0.1240 N   0  0  0  0  0  0  0  0  0  0  0  0
    2.3484    0.1526   -0.5095 C   0  0  0  0  0  0  0  0  0  0  0  0
    3.5183   -0.3151    0.0236 C   0  0  0  0  0  0  0  0  0  0  0  0
    4.7413    0.1939   -0.3220 C   0  0  0  0  0  0  0  0  0  0  0  0
    5.9121   -0.2967    0.2322 C   0  0  0  0  0  0  0  0  0  0  0  0
    5.7733   -1.3208    1.1460 C   0  0  0  0  0  0  0  0  0  0  0  0
    4.5696   -1.8508    1.5124 C   0  0  0  0  0  0  0  0  0  0  0  0
    3.4164   -1.3420    0.9434 C   0  0  0  0  0  0  0  0  0  0  0  0
    2.2345   -1.8498    1.2921 N   0  0  0  0  0  0  0  0  0  0  0  0
    7.2087    0.2488   -0.1393 C   0  0  0  0  0  0  0  0  0  0  0  0
    8.3756   -0.4831   -0.1639 C   0  0  0  0  0  0  0  0  0  0  0  0
    9.3614    0.3464   -0.5513 N   0  0  0  0  0  0  0  0  0  0  0  0
    8.9006    1.5614   -0.7760 N   0  0  0  0  0  0  0  0  0  0  0  0
    9.6441    2.7499   -1.2109 C   0  0  0  0  0  0  0  0  0  0  0  0
    7.5732    1.5195   -0.5266 C   0  0  0  0  0  0  0  0  0  0  0  0
   -2.5016   -1.8789    1.5489 C   0  0  0  0  0  0  0  0  0  0  0  0
   -3.7912   -1.5378    1.2096 C   0  0  0  0  0  0  0  0  0  0  0  0
   -6.0527    2.4987    0.3312 H   0  0  0  0  0  0  0  0  0  0  0  0
   -6.6395    2.9370   -1.3679 H   0  0  0  0  0  0  0  0  0  0  0  0
   -7.6744    3.2387    0.0796 H   0  0  0  0  0  0  0  0  0  0  0  0
   -7.6892   -0.2938   -1.8951 H   0  0  0  0  0  0  0  0  0  0  0  0
   -7.1748    1.2560   -2.6017 H   0  0  0  0  0  0  0  0  0  0  0  0
   -4.9067    1.0384   -1.7393 H   0  0  0  0  0  0  0  0  0  0  0  0
   -5.4156   -0.5748   -2.4285 H   0  0  0  0  0  0  0  0  0  0  0  0
   -7.2375   -1.4449   -0.2767 H   0  0  0  0  0  0  0  0  0  0  0  0
   -6.3702   -1.3180    1.3327 H   0  0  0  0  0  0  0  0  0  0  0  0
   -8.4644    0.1585    0.9144 H   0  0  0  0  0  0  0  0  0  0  0  0
   -6.9615    0.9884    1.4747 H   0  0  0  0  0  0  0  0  0  0  0  0
   -3.2417   -0.1293   -1.7488 H   0  0  0  0  0  0  0  0  0  0  0  0
   -0.9297   -0.7386   -1.1862 H   0  0  0  0  0  0  0  0  0  0  0  0
   -0.1021   -2.7512    1.8978 H   0  0  0  0  0  0  0  0  0  0  0  0
    2.4100    0.9578   -1.2324 H   0  0  0  0  0  0  0  0  0  0  0  0
    4.8273    0.9945   -1.0386 H   0  0  0  0  0  0  0  0  0  0  0  0
    6.6740   -1.7171    1.5897 H   0  0  0  0  0  0  0  0  0  0  0  0
    4.4542   -2.6529    2.2278 H   0  0  0  0  0  0  0  0  0  0  0  0
    8.5043   -1.5279    0.0777 H   0  0  0  0  0  0  0  0  0  0  0  0
    9.5511    2.9028   -2.3028 H   0  0  0  0  0  0  0  0  0  0  0  0
   10.6788    2.6680   -0.8746 H   0  0  0  0  0  0  0  0  0  0  0  0
    9.1495    3.6088   -0.7068 H   0  0  0  0  0  0  0  0  0  0  0  0
    6.8641    2.3300   -0.6045 H   0  0  0  0  0  0  0  0  0  0  0  0
   -2.3095   -2.3858    2.5115 H   0  0  0  0  0  0  0  0  0  0  0  0
   -4.5906   -1.7815    1.9099 H   0  0  0  0  0  0  0  0  0  0  0  0
  1  2  1  0
  2  3  1  0
  3  4  1  0
  4  5  1  0
  5  6  1  0
  6  7  1  0
  5  8  1  0
  8  9  2  0
  9 10  1  0
 10 11  2  0
 11 12  1  0
 12 13  1  0
 13 14  2  0
 14 15  1  0
 15 16  2  0
 16 17  1  0
 17 18  2  0
 18 19  1  0
 19 20  2  0
 20 21  1  0
 21 22  2  0
 18 23  1  0
 23 24  1  0
 24 25  2  0
 25 26  1  0
 26 27  1  0
 26 28  1  0
 11 29  1  0
 29 30  2  0
  7  2  1  0
 30  8  1  0
 22 13  1  0
 28 23  2  0
 21 16  1  0
  1 31  1  0
  1 32  1  0
  1 33  1  0
  3 34  1  0
  3 35  1  0
  4 36  1  0
  4 37  1  0
  6 38  1  0
  6 39  1  0
  7 40  1  0
  7 41  1  0
  9 42  1  0
 10 43  1  0
 12 44  1  0
 15 45  1  0
 17 46  1  0
 19 47  1  0
 20 48  1  0
 24 49  1  0
 27 50  1  0
 27 51  1  0
 27 52  1  0
 28 53  1  0
 29 54  1  0
 30 55  1  0
M  END
$$$$
