[H]C1=C([H])C(N2C([H])([H])C([H])([H])N(C(=O)C([H])([H])[H])C([H])([H])C2([H])[H])=C(Cl)c2c([H])c([H])c(c(N(C#N)C([H])([H])C(=O)N([H])c3nc4c([H])c([H])c([H])c([H])c4o3)c2[H])C(=O)N([H])C(c2c([H])c([H])c([H])c([H])c2[H])=C1[H]
     RDKit          3D

 77 82  0  0  0  0  0  0  0  0999 V2000
   -7.8847    3.2288   -0.6650 C   0  0  0  0  0  0  0  0  0  0  0  0
   -6.5062    3.7254   -0.9591 C   0  0  0  0  0  0  0  0  0  0  0  0
   -6.3081    4.3722   -2.0439 O   0  0  0  0  0  0  0  0  0  0  0  0
   -5.4385    3.5086   -0.0936 N   0  0  0  0  0  0  0  0  0  0  0  0
   -5.5563    2.7598    1.1370 C   0  0  0  0  0  0  0  0  0  0  0  0
   -4.5857    1.5885    1.0472 C   0  0  0  0  0  0  0  0  0  0  0  0
   -3.2590    2.1093    0.7471 N   0  0  0  0  0  0  0  0  0  0  0  0
   -3.1246    3.5424    0.6194 C   0  0  0  0  0  0  0  0  0  0  0  0
   -4.1313    4.0693   -0.3946 C   0  0  0  0  0  0  0  0  0  0  0  0
   -2.2036    1.1891    0.5734 C   0  0  0  0  0  0  0  0  0  0  0  0
   -2.1557    0.2491   -0.5571 C   0  0  0  0  0  0  0  0  0  0  0  0
   -1.9967   -0.8942   -1.1287 C   0  0  0  0  0  0  0  0  0  0  0  0
   -1.6802   -2.3606   -0.9800 C   0  0  0  0  0  0  0  0  0  0  0  0
   -0.9080   -3.3535   -0.8895 C   0  0  0  0  0  0  0  0  0  0  0  0
    0.4995   -3.7416   -0.8721 N   0  0  0  0  0  0  0  0  0  0  0  0
    1.6572   -3.2965   -0.0099 C   0  0  0  0  0  0  0  0  0  0  0  0
    2.6281   -4.0864    0.0760 O   0  0  0  0  0  0  0  0  0  0  0  0
    1.3899   -1.9015    0.5995 C   0  0  0  0  0  0  0  0  0  0  0  0
    0.5171   -1.9347    1.5537 C   0  0  0  0  0  0  0  0  0  0  0  0
   -0.2321   -0.7628    1.9593 C   0  0  0  0  0  0  0  0  0  0  0  0
   -0.0621    0.3713    1.3941 C   0  0  0  0  0  0  0  0  0  0  0  0
    0.8892    0.4632    0.3869 C   0  0  0  0  0  0  0  0  0  0  0  0
    1.6365   -0.7015   -0.0229 C   0  0  0  0  0  0  0  0  0  0  0  0
    2.5860   -0.2340   -1.0168 N   0  0  0  0  0  0  0  0  0  0  0  0
    3.9430    0.0888   -0.5724 C   0  0  0  0  0  0  0  0  0  0  0  0
    4.8660   -0.9338   -1.0765 C   0  0  0  0  0  0  0  0  0  0  0  0
    4.5121   -1.9330   -1.7756 O   0  0  0  0  0  0  0  0  0  0  0  0
    6.2718   -0.8550   -0.7858 N   0  0  0  0  0  0  0  0  0  0  0  0
    6.7881    0.2729   -0.0934 C   0  0  0  0  0  0  0  0  0  0  0  0
    8.0686    0.4366    0.3511 N   0  0  0  0  0  0  0  0  0  0  0  0
    8.0866    1.6544    0.9315 C   0  0  0  0  0  0  0  0  0  0  0  0
    9.0401    2.4397    1.5727 C   0  0  0  0  0  0  0  0  0  0  0  0
    8.7537    3.6959    2.0810 C   0  0  0  0  0  0  0  0  0  0  0  0
    7.4716    4.1874    1.9453 C   0  0  0  0  0  0  0  0  0  0  0  0
    6.5103    3.4277    1.3144 C   0  0  0  0  0  0  0  0  0  0  0  0
    6.8447    2.1784    0.8235 C   0  0  0  0  0  0  0  0  0  0  0  0
    6.0731    1.3285    0.2020 O   0  0  0  0  0  0  0  0  0  0  0  0
    2.3093   -0.0795   -2.3677 C   0  0  0  0  0  0  0  0  0  0  0  0
    2.0948    0.0299   -3.4961 N   0  0  0  0  0  0  0  0  0  0  0  0
   -1.2115    1.3855    1.5829 C   0  0  0  0  0  0  0  0  0  0  0  0
   -1.4203    2.7208    2.7002 Cl  0  0  0  0  0  0  0  0  0  0  0  0
   -1.6675   -4.7084   -0.9553 C   0  0  0  0  0  0  0  0  0  0  0  0
   -1.1657   -5.8421   -0.4294 C   0  0  0  0  0  0  0  0  0  0  0  0
   -1.8094   -7.0647   -0.5853 C   0  0  0  0  0  0  0  0  0  0  0  0
   -2.9881   -7.1535   -1.2875 C   0  0  0  0  0  0  0  0  0  0  0  0
   -3.5004   -6.0043   -1.8229 C   0  0  0  0  0  0  0  0  0  0  0  0
   -2.8405   -4.7926   -1.6554 C   0  0  0  0  0  0  0  0  0  0  0  0
   -8.4708    3.2113   -1.6006 H   0  0  0  0  0  0  0  0  0  0  0  0
   -8.3360    3.9692    0.0588 H   0  0  0  0  0  0  0  0  0  0  0  0
   -7.8088    2.2080   -0.2661 H   0  0  0  0  0  0  0  0  0  0  0  0
   -6.5710    2.3674    1.3342 H   0  0  0  0  0  0  0  0  0  0  0  0
   -5.2069    3.3625    2.0128 H   0  0  0  0  0  0  0  0  0  0  0  0
   -4.9122    1.0406    0.1196 H   0  0  0  0  0  0  0  0  0  0  0  0
   -4.6454    0.9771    1.9378 H   0  0  0  0  0  0  0  0  0  0  0  0
   -2.1217    3.7899    0.3010 H   0  0  0  0  0  0  0  0  0  0  0  0
   -3.3657    4.0005    1.5896 H   0  0  0  0  0  0  0  0  0  0  0  0
   -3.8121    3.8759   -1.4255 H   0  0  0  0  0  0  0  0  0  0  0  0
   -4.2010    5.1604   -0.2434 H   0  0  0  0  0  0  0  0  0  0  0  0
   -2.3646    1.0288   -1.4525 H   0  0  0  0  0  0  0  0  0  0  0  0
   -2.1886   -0.7148   -2.2857 H   0  0  0  0  0  0  0  0  0  0  0  0
   -2.8130   -2.7677   -0.8106 H   0  0  0  0  0  0  0  0  0  0  0  0
    0.8703   -4.4378   -1.5573 H   0  0  0  0  0  0  0  0  0  0  0  0
    0.2364   -2.8216    2.3385 H   0  0  0  0  0  0  0  0  0  0  0  0
   -0.9403   -1.1150    2.8857 H   0  0  0  0  0  0  0  0  0  0  0  0
    1.2586    1.2969   -0.2175 H   0  0  0  0  0  0  0  0  0  0  0  0
    4.1406    1.0817   -1.0905 H   0  0  0  0  0  0  0  0  0  0  0  0
    3.9408    0.1898    0.5288 H   0  0  0  0  0  0  0  0  0  0  0  0
    6.9517   -1.5771   -1.1150 H   0  0  0  0  0  0  0  0  0  0  0  0
   10.0380    2.0677    1.6912 H   0  0  0  0  0  0  0  0  0  0  0  0
    9.5480    4.2406    2.5634 H   0  0  0  0  0  0  0  0  0  0  0  0
    7.2255    5.1673    2.3313 H   0  0  0  0  0  0  0  0  0  0  0  0
    5.5053    3.8242    1.2117 H   0  0  0  0  0  0  0  0  0  0  0  0
   -0.2302   -5.7561    0.1404 H   0  0  0  0  0  0  0  0  0  0  0  0
   -1.3745   -7.9485   -0.1475 H   0  0  0  0  0  0  0  0  0  0  0  0
   -3.4547   -8.1188   -1.3878 H   0  0  0  0  0  0  0  0  0  0  0  0
   -4.4378   -6.0820   -2.3817 H   0  0  0  0  0  0  0  0  0  0  0  0
   -3.2613   -3.9097   -2.1252 H   0  0  0  0  0  0  0  0  0  0  0  0
  1  2  1  0
  2  3  2  0
  2  4  1  0
  4  5  1  0
  5  6  1  0
  6  7  1  0
  7  8  1  0
  8  9  1  0
  7 10  1  0
 10 11  1  0
 11 12  2  0
 12 13  1  0
 13 14  2  0
 14 15  1  0
 15 16  1  0
 16 17  2  0
 16 18  1  0
 18 19  2  0
 19 20  1  0
 20 21  2  0
 21 22  1  0
 22 23  2  0
 23 24  1  0
 24 25  1  0
 25 26  1  0
 26 27  2  0
 26 28  1  0
 28 29  1  0
 29 30  2  0
 30 31  1  0
 31 32  2  0
 32 33  1  0
 33 34  2  0
 34 35  1  0
 35 36  2  0
 36 37  1  0
 24 38  1  0
 38 39  3  0
 21 40  1  0
 40 41  1  0
 14 42  1  0
 42 43  2  0
 43 44  1  0
 44 45  2  0
 45 46  1  0
 46 47  2  0
  9  4  1  0
 40 10  2  0
 47 42  1  0
 23 18  1  0
 37 29  1  0
 36 31  1  0
  1 48  1  0
  1 49  1  0
  1 50  1  0
  5 51  1  0
  5 52  1  0
  6 53  1  0
  6 54  1  0
  8 55  1  0
  8 56  1  0
  9 57  1  0
  9 58  1  0
 11 59  1  0
 12 60  1  0
 13 61  1  0
 15 62  1  0
 19 63  1  0
 20 64  1  0
 22 65  1  0
 25 66  1  0
 25 67  1  0
 28 68  1  0
 32 69  1  0
 33 70  1  0
 34 71  1  0
 35 72  1  0
 43 73  1  0
 44 74  1  0
 45 75  1  0
 46 76  1  0
 47 77  1  0
M  END
$$$$
[H]c1c([H])c2c(c([H])c1F)N(S(=O)(=O)c1c([H])c([H])c(C([H])(C([H])([H])[H])C([H])([H])[H])c([H])c1[H])C([H])([H])C([H])([H])C2([H])[H]
     RDKit          3D

 43 45  0  0  0  0  0  0  0  0999 V2000
    4.9377    0.9231    1.4543 C   0  0  0  0  0  0  0  0  0  0  0  0
    4.8297   -0.3133    0.5944 C   0  0  0  0  0  0  0  0  0  0  0  0
    5.6969   -0.2067   -0.6526 C   0  0  0  0  0  0  0  0  0  0  0  0
    3.4340   -0.5026    0.1347 C   0  0  0  0  0  0  0  0  0  0  0  0
    2.7298   -1.6353    0.4438 C   0  0  0  0  0  0  0  0  0  0  0  0
    1.4443   -1.7794    0.0045 C   0  0  0  0  0  0  0  0  0  0  0  0
    0.7809   -0.8340   -0.7543 C   0  0  0  0  0  0  0  0  0  0  0  0
    1.5149    0.3007   -1.0525 C   0  0  0  0  0  0  0  0  0  0  0  0
    2.8127    0.4755   -0.6244 C   0  0  0  0  0  0  0  0  0  0  0  0
   -0.8441   -1.0909   -1.2706 S   0  0  0  0  0  0  0  0  0  0  0  0
   -1.0633   -2.6125   -1.2351 O   0  0  0  0  0  0  0  0  0  0  0  0
   -1.1356   -0.7284   -2.6731 O   0  0  0  0  0  0  0  0  0  0  0  0
   -2.0109   -0.5098   -0.1272 N   0  0  0  0  0  0  0  0  0  0  0  0
   -2.0823   -1.0610    1.2137 C   0  0  0  0  0  0  0  0  0  0  0  0
   -3.4355   -1.1096    1.8096 C   0  0  0  0  0  0  0  0  0  0  0  0
   -4.5548   -0.5547    1.0084 C   0  0  0  0  0  0  0  0  0  0  0  0
   -4.1795    0.5250    0.0702 C   0  0  0  0  0  0  0  0  0  0  0  0
   -5.0932    1.5044   -0.2394 C   0  0  0  0  0  0  0  0  0  0  0  0
   -4.6651    2.4917   -1.1349 C   0  0  0  0  0  0  0  0  0  0  0  0
   -3.3996    2.4930   -1.6830 C   0  0  0  0  0  0  0  0  0  0  0  0
   -3.0081    3.4646   -2.5513 F   0  0  0  0  0  0  0  0  0  0  0  0
   -2.4940    1.5041   -1.3630 C   0  0  0  0  0  0  0  0  0  0  0  0
   -2.9171    0.5231   -0.4744 C   0  0  0  0  0  0  0  0  0  0  0  0
    5.1074    1.8435    0.8477 H   0  0  0  0  0  0  0  0  0  0  0  0
    5.7607    0.8192    2.1846 H   0  0  0  0  0  0  0  0  0  0  0  0
    3.9551    1.0456    1.9953 H   0  0  0  0  0  0  0  0  0  0  0  0
    5.1575   -1.1822    1.1789 H   0  0  0  0  0  0  0  0  0  0  0  0
    6.7507   -0.4754   -0.4399 H   0  0  0  0  0  0  0  0  0  0  0  0
    5.6446    0.8231   -1.0798 H   0  0  0  0  0  0  0  0  0  0  0  0
    5.2632   -0.9436   -1.3798 H   0  0  0  0  0  0  0  0  0  0  0  0
    3.2458   -2.3943    1.0463 H   0  0  0  0  0  0  0  0  0  0  0  0
    0.9054   -2.7013    0.2698 H   0  0  0  0  0  0  0  0  0  0  0  0
    1.0410    1.0623   -1.6396 H   0  0  0  0  0  0  0  0  0  0  0  0
    3.3721    1.3757   -0.8702 H   0  0  0  0  0  0  0  0  0  0  0  0
   -1.4320   -0.4025    1.8520 H   0  0  0  0  0  0  0  0  0  0  0  0
   -1.5779   -2.0580    1.1636 H   0  0  0  0  0  0  0  0  0  0  0  0
   -3.4595   -0.5887    2.8127 H   0  0  0  0  0  0  0  0  0  0  0  0
   -3.6618   -2.1921    2.0390 H   0  0  0  0  0  0  0  0  0  0  0  0
   -5.0127   -1.3920    0.4210 H   0  0  0  0  0  0  0  0  0  0  0  0
   -5.3830   -0.1772    1.6775 H   0  0  0  0  0  0  0  0  0  0  0  0
   -6.0964    1.5510    0.1609 H   0  0  0  0  0  0  0  0  0  0  0  0
   -5.3888    3.2628   -1.3768 H   0  0  0  0  0  0  0  0  0  0  0  0
   -1.4895    1.4571   -1.7611 H   0  0  0  0  0  0  0  0  0  0  0  0
  1  2  1  0
  2  3  1  0
  2  4  1  0
  4  5  2  0
  5  6  1  0
  6  7  2  0
  7  8  1  0
  8  9  2  0
  7 10  1  0
 10 11  2  0
 10 12  2  0
 10 13  1  0
 13 14  1  0
 14 15  1  0
 15 16  1  0
 16 17  1  0
 17 18  2  0
 18 19  1  0
 19 20  2  0
 20 21  1  0
 20 22  1  0
 22 23  2  0
  9  4  1  0
 23 13  1  0
 23 17  1  0
  1 24  1  0
  1 25  1  0
  1 26  1  0
  2 27  1  0
  3 28  1  0
  3 29  1  0
  3 30  1  0
  5 31  1  0
  6 32  1  0
  8 33  1  0
  9 34  1  0
 14 35  1  0
 14 36  1  0
 15 37  1  0
 15 38  1  0
 16 39  1  0
 16 40  1  0
 18 41  1  0
 19 42  1  0
 22 43  1  0
M  END
$$$$
[H]c1nc([C@]2([H])C([H])([H])C([H])([H])[C@]([H])(N([H])c3c([H])c([H])c(F)c([H])c3[H])C([H])([H])C2([H])[H])c([H])c([H])c1-c1c([H])c([H])c([H])c([H])c1C([H])([H])C([H])([H])[H]
     RDKit          3D

 55 58  0  0  0  0  0  0  0  0999 V2000
   -5.0448   -2.0576   -0.2051 C   0  0  0  0  0  0  0  0  0  0  0  0
   -5.5787   -0.9577    0.6918 C   0  0  0  0  0  0  0  0  0  0  0  0
   -5.7726    0.3051   -0.0583 C   0  0  0  0  0  0  0  0  0  0  0  0
   -7.0680    0.6995   -0.4250 C   0  0  0  0  0  0  0  0  0  0  0  0
   -7.3199    1.8379   -1.1436 C   0  0  0  0  0  0  0  0  0  0  0  0
   -6.2291    2.5985   -1.5009 C   0  0  0  0  0  0  0  0  0  0  0  0
   -4.9556    2.2337   -1.1536 C   0  0  0  0  0  0  0  0  0  0  0  0
   -4.6908    1.0687   -0.4169 C   0  0  0  0  0  0  0  0  0  0  0  0
   -3.3113    0.7730   -0.0662 C   0  0  0  0  0  0  0  0  0  0  0  0
   -2.8936    0.7113    1.2328 C   0  0  0  0  0  0  0  0  0  0  0  0
   -1.5660    0.4005    1.5168 C   0  0  0  0  0  0  0  0  0  0  0  0
   -0.6709    0.1563    0.5142 C   0  0  0  0  0  0  0  0  0  0  0  0
   -1.0928    0.2209   -0.7555 N   0  0  0  0  0  0  0  0  0  0  0  0
   -2.3797    0.5207   -1.0621 C   0  0  0  0  0  0  0  0  0  0  0  0
    0.7648   -0.1825    0.7811 C   0  0  2  0  0  0  0  0  0  0  0  0
    1.5828    0.9159    0.2120 C   0  0  0  0  0  0  0  0  0  0  0  0
    2.9151    0.5352   -0.3497 C   0  0  0  0  0  0  0  0  0  0  0  0
    3.3083   -0.8717    0.0053 C   0  0  1  0  0  0  0  0  0  0  0  0
    2.2154   -1.7559   -0.5731 C   0  0  0  0  0  0  0  0  0  0  0  0
    0.9808   -1.5449    0.2273 C   0  0  0  0  0  0  0  0  0  0  0  0
    4.6010   -1.2054   -0.4973 N   0  0  0  0  0  0  0  0  0  0  0  0
    5.7847   -0.5887   -0.0330 C   0  0  0  0  0  0  0  0  0  0  0  0
    6.9762   -0.8244   -0.7191 C   0  0  0  0  0  0  0  0  0  0  0  0
    8.1377   -0.2594   -0.2957 C   0  0  0  0  0  0  0  0  0  0  0  0
    8.1263    0.5549    0.8265 C   0  0  0  0  0  0  0  0  0  0  0  0
    9.3207    1.0833    1.1894 F   0  0  0  0  0  0  0  0  0  0  0  0
    6.9549    0.7965    1.5147 C   0  0  0  0  0  0  0  0  0  0  0  0
    5.7849    0.2210    1.0799 C   0  0  0  0  0  0  0  0  0  0  0  0
   -5.4121   -3.0329    0.1659 H   0  0  0  0  0  0  0  0  0  0  0  0
   -5.3545   -1.9283   -1.2549 H   0  0  0  0  0  0  0  0  0  0  0  0
   -3.9193   -2.1156   -0.1552 H   0  0  0  0  0  0  0  0  0  0  0  0
   -6.6173   -1.3134    0.9895 H   0  0  0  0  0  0  0  0  0  0  0  0
   -4.9715   -0.8625    1.5986 H   0  0  0  0  0  0  0  0  0  0  0  0
   -7.9083    0.0868   -0.1340 H   0  0  0  0  0  0  0  0  0  0  0  0
   -8.3180    2.1522   -1.4326 H   0  0  0  0  0  0  0  0  0  0  0  0
   -6.3970    3.5029   -2.0697 H   0  0  0  0  0  0  0  0  0  0  0  0
   -4.0841    2.8338   -1.4348 H   0  0  0  0  0  0  0  0  0  0  0  0
   -3.5875    0.9202    2.0679 H   0  0  0  0  0  0  0  0  0  0  0  0
   -1.2734    0.3607    2.5686 H   0  0  0  0  0  0  0  0  0  0  0  0
   -2.6401    0.5525   -2.1161 H   0  0  0  0  0  0  0  0  0  0  0  0
    0.8564   -0.1819    1.9108 H   0  0  0  0  0  0  0  0  0  0  0  0
    0.9799    1.5270   -0.5231 H   0  0  0  0  0  0  0  0  0  0  0  0
    1.7903    1.6582    1.0388 H   0  0  0  0  0  0  0  0  0  0  0  0
    3.7058    1.2898   -0.2136 H   0  0  0  0  0  0  0  0  0  0  0  0
    2.7663    0.5120   -1.4771 H   0  0  0  0  0  0  0  0  0  0  0  0
    3.3143   -0.9341    1.1246 H   0  0  0  0  0  0  0  0  0  0  0  0
    2.0014   -1.3947   -1.6219 H   0  0  0  0  0  0  0  0  0  0  0  0
    2.4999   -2.8145   -0.5810 H   0  0  0  0  0  0  0  0  0  0  0  0
    0.1185   -1.9128   -0.4030 H   0  0  0  0  0  0  0  0  0  0  0  0
    1.0143   -2.2673    1.0924 H   0  0  0  0  0  0  0  0  0  0  0  0
    4.6953   -1.9375   -1.2420 H   0  0  0  0  0  0  0  0  0  0  0  0
    6.9598   -1.4685   -1.5993 H   0  0  0  0  0  0  0  0  0  0  0  0
    9.0353   -0.4744   -0.8639 H   0  0  0  0  0  0  0  0  0  0  0  0
    6.9930    1.4414    2.3902 H   0  0  0  0  0  0  0  0  0  0  0  0
    4.8729    0.4161    1.6382 H   0  0  0  0  0  0  0  0  0  0  0  0
  1  2  1  0
  2  3  1  0
  3  4  2  0
  4  5  1  0
  5  6  2  0
  6  7  1  0
  7  8  2  0
  8  9  1  0
  9 10  2  0
 10 11  1  0
 11 12  2  0
 12 13  1  0
 13 14  2  0
 12 15  1  0
 15 16  1  0
 16 17  1  0
 17 18  1  0
 18 19  1  0
 19 20  1  0
 18 21  1  0
 21 22  1  0
 22 23  2  0
 23 24  1  0
 24 25  2  0
 25 26  1  0
 25 27  1  0
 27 28  2  0
  8  3  1  0
 14  9  1  0
 20 15  1  0
 28 22  1  0
  1 29  1  0
  1 30  1  0
  1 31  1  0
  2 32  1  0
  2 33  1  0
  4 34  1  0
  5 35  1  0
  6 36  1  0
  7 37  1  0
 10 38  1  0
 11 39  1  0
 14 40  1  0
 15 41  1  1
 16 42  1  0
 16 43  1  0
 17 44  1  0
 17 45  1  0
 18 46  1  1
 19 47  1  0
 19 48  1  0
 20 49  1  0
 20 50  1  0
 21 51  1  0
 23 52  1  0
 24 53  1  0
 27 54  1  0
 28 55  1  0
M  END
$$$$
[H]c1c([H])c([H])c2c(c(C([H])([H])[H])nn2C([H])([H])[H])c1OC1([H])C([H])([H])C([H])([H])N(C([H])([H])[H])C([H])([H])C1([H])[H]
     RDKit          3D

 40 42  0  0  0  0  0  0  0  0999 V2000
   -5.8302    0.5361   -0.3526 C   0  0  0  0  0  0  0  0  0  0  0  0
   -4.4146    0.1851   -0.5076 N   0  0  0  0  0  0  0  0  0  0  0  0
   -3.8616   -0.6375   -1.3783 N   0  0  0  0  0  0  0  0  0  0  0  0
   -2.5291   -0.6874   -1.1928 C   0  0  0  0  0  0  0  0  0  0  0  0
   -1.5740   -1.5047   -1.9834 C   0  0  0  0  0  0  0  0  0  0  0  0
   -2.2794    0.1717   -0.1317 C   0  0  0  0  0  0  0  0  0  0  0  0
   -1.0882    0.5229    0.5018 C   0  0  0  0  0  0  0  0  0  0  0  0
    0.0536   -0.0653    0.0162 O   0  0  0  0  0  0  0  0  0  0  0  0
    1.3557    0.1450    0.5037 C   0  0  0  0  0  0  0  0  0  0  0  0
    1.8649   -1.1888    0.9889 C   0  0  0  0  0  0  0  0  0  0  0  0
    3.3071   -1.2402    1.2867 C   0  0  0  0  0  0  0  0  0  0  0  0
    4.1614   -0.3927    0.5588 N   0  0  0  0  0  0  0  0  0  0  0  0
    5.1210   -1.0181   -0.2849 C   0  0  0  0  0  0  0  0  0  0  0  0
    3.6454    0.8404    0.1051 C   0  0  0  0  0  0  0  0  0  0  0  0
    2.2970    0.6439   -0.5726 C   0  0  0  0  0  0  0  0  0  0  0  0
   -1.1403    1.4172    1.5492 C   0  0  0  0  0  0  0  0  0  0  0  0
   -2.3442    1.9750    1.9876 C   0  0  0  0  0  0  0  0  0  0  0  0
   -3.5178    1.6232    1.3565 C   0  0  0  0  0  0  0  0  0  0  0  0
   -3.4633    0.7281    0.3086 C   0  0  0  0  0  0  0  0  0  0  0  0
   -6.1865    0.0587    0.5822 H   0  0  0  0  0  0  0  0  0  0  0  0
   -6.4162    0.2603   -1.2389 H   0  0  0  0  0  0  0  0  0  0  0  0
   -5.9398    1.6361   -0.1909 H   0  0  0  0  0  0  0  0  0  0  0  0
   -2.1386   -2.3773   -2.4157 H   0  0  0  0  0  0  0  0  0  0  0  0
   -1.1941   -0.9511   -2.8830 H   0  0  0  0  0  0  0  0  0  0  0  0
   -0.7705   -1.9292   -1.3794 H   0  0  0  0  0  0  0  0  0  0  0  0
    1.4363    0.8424    1.3446 H   0  0  0  0  0  0  0  0  0  0  0  0
    1.5695   -1.9424    0.2117 H   0  0  0  0  0  0  0  0  0  0  0  0
    1.2913   -1.4482    1.9023 H   0  0  0  0  0  0  0  0  0  0  0  0
    3.4655   -1.0735    2.3808 H   0  0  0  0  0  0  0  0  0  0  0  0
    3.6541   -2.3044    1.1222 H   0  0  0  0  0  0  0  0  0  0  0  0
    4.7529   -1.9666   -0.7482 H   0  0  0  0  0  0  0  0  0  0  0  0
    5.4751   -0.3176   -1.0677 H   0  0  0  0  0  0  0  0  0  0  0  0
    6.0252   -1.2886    0.3200 H   0  0  0  0  0  0  0  0  0  0  0  0
    4.3781    1.2933   -0.6055 H   0  0  0  0  0  0  0  0  0  0  0  0
    3.5117    1.5481    0.9371 H   0  0  0  0  0  0  0  0  0  0  0  0
    2.4269   -0.0880   -1.3799 H   0  0  0  0  0  0  0  0  0  0  0  0
    1.9149    1.5971   -0.9509 H   0  0  0  0  0  0  0  0  0  0  0  0
   -0.2371    1.6973    2.0460 H   0  0  0  0  0  0  0  0  0  0  0  0
   -2.3134    2.6738    2.8188 H   0  0  0  0  0  0  0  0  0  0  0  0
   -4.4689    2.0256    1.6574 H   0  0  0  0  0  0  0  0  0  0  0  0
  1  2  1  0
  2  3  1  0
  3  4  2  0
  4  5  1  0
  4  6  1  0
  6  7  2  0
  7  8  1  0
  8  9  1  0
  9 10  1  0
 10 11  1  0
 11 12  1  0
 12 13  1  0
 12 14  1  0
 14 15  1  0
  7 16  1  0
 16 17  2  0
 17 18  1  0
 18 19  2  0
 19  2  1  0
 19  6  1  0
 15  9  1  0
  1 20  1  0
  1 21  1  0
  1 22  1  0
  5 23  1  0
  5 24  1  0
  5 25  1  0
  9 26  1  0
 10 27  1  0
 10 28  1  0
 11 29  1  0
 11 30  1  0
 13 31  1  0
 13 32  1  0
 13 33  1  0
 14 34  1  0
 14 35  1  0
 15 36  1  0
 15 37  1  0
 16 38  1  0
 17 39  1  0
 18 40  1  0
M  END
$$$$
[H]c1c([H])c([C@]23C([H])([H])[C@@]2([H])C([H])([H])[C@@]2(C([H])([H])[H])C(C([H])([H])[H])(C([H])([H])[H])C([H])([H])C(=O)N(F)C([H])([H])[C@]2([H])C3([H])[H])c([H])c(C(F)(F)F)c1F
     RDKit          3D

 52 55  0  0  0  0  0  0  0  0999 V2000
   -3.0068    0.5065   -1.8671 C   0  0  0  0  0  0  0  0  0  0  0  0
   -3.0281    0.2022   -0.3875 C   0  0  0  0  0  0  0  0  0  0  0  0
   -3.8241    1.3216    0.2623 C   0  0  0  0  0  0  0  0  0  0  0  0
   -3.8640   -1.0404   -0.2232 C   0  0  0  0  0  0  0  0  0  0  0  0
   -3.3295   -2.2466   -0.8325 C   0  0  0  0  0  0  0  0  0  0  0  0
   -3.9431   -2.7799   -1.8175 O   0  0  0  0  0  0  0  0  0  0  0  0
   -2.1513   -2.9243   -0.4372 N   0  0  0  0  0  0  0  0  0  0  0  0
   -2.1337   -4.2633   -0.6505 F   0  0  0  0  0  0  0  0  0  0  0  0
   -0.9710   -2.3247    0.1538 C   0  0  0  0  0  0  0  0  0  0  0  0
   -0.7513   -0.9006   -0.2778 C   0  0  2  0  0  0  0  0  0  0  0  0
    0.6502   -0.6036    0.2363 C   0  0  0  0  0  0  0  0  0  0  0  0
    1.2413    0.6401   -0.3456 C   0  0  1  0  0  0  0  0  0  0  0  0
    0.7470    1.1936   -1.6449 C   0  0  0  0  0  0  0  0  0  0  0  0
    0.2911    1.7070   -0.3214 C   0  0  1  0  0  0  0  0  0  0  0  0
   -1.0864    1.4949    0.1958 C   0  0  0  0  0  0  0  0  0  0  0  0
   -1.6574    0.1299    0.2542 C   0  0  1  0  0  0  0  0  0  0  0  0
   -1.9798   -0.2414    1.7226 C   0  0  0  0  0  0  0  0  0  0  0  0
    2.6862    0.8092   -0.0510 C   0  0  0  0  0  0  0  0  0  0  0  0
    3.2099    2.0047    0.3877 C   0  0  0  0  0  0  0  0  0  0  0  0
    4.5541    2.1489    0.6792 C   0  0  0  0  0  0  0  0  0  0  0  0
    5.4152    1.0629    0.5293 C   0  0  0  0  0  0  0  0  0  0  0  0
    6.7299    1.2126    0.8349 F   0  0  0  0  0  0  0  0  0  0  0  0
    4.9189   -0.1385    0.0951 C   0  0  0  0  0  0  0  0  0  0  0  0
    3.5837   -0.2440   -0.1847 C   0  0  0  0  0  0  0  0  0  0  0  0
    5.8472   -1.2946   -0.0826 C   0  0  0  0  0  0  0  0  0  0  0  0
    6.8299   -0.9537   -1.0107 F   0  0  0  0  0  0  0  0  0  0  0  0
    5.1012   -2.3788   -0.4937 F   0  0  0  0  0  0  0  0  0  0  0  0
    6.4625   -1.6508    1.1258 F   0  0  0  0  0  0  0  0  0  0  0  0
   -4.0151    0.2760   -2.2496 H   0  0  0  0  0  0  0  0  0  0  0  0
   -2.8393    1.5864   -2.0806 H   0  0  0  0  0  0  0  0  0  0  0  0
   -2.2925   -0.0926   -2.4364 H   0  0  0  0  0  0  0  0  0  0  0  0
   -4.6620    0.9247    0.9169 H   0  0  0  0  0  0  0  0  0  0  0  0
   -3.2634    1.9885    0.9003 H   0  0  0  0  0  0  0  0  0  0  0  0
   -4.3784    1.9204   -0.5069 H   0  0  0  0  0  0  0  0  0  0  0  0
   -4.8155   -0.7907   -0.7816 H   0  0  0  0  0  0  0  0  0  0  0  0
   -4.1572   -1.1503    0.8331 H   0  0  0  0  0  0  0  0  0  0  0  0
   -0.8840   -2.4883    1.2437 H   0  0  0  0  0  0  0  0  0  0  0  0
   -0.1108   -2.9082   -0.2833 H   0  0  0  0  0  0  0  0  0  0  0  0
   -0.7726   -0.9650   -1.4093 H   0  0  0  0  0  0  0  0  0  0  0  0
    1.2542   -1.4752   -0.0451 H   0  0  0  0  0  0  0  0  0  0  0  0
    0.5645   -0.4393    1.3220 H   0  0  0  0  0  0  0  0  0  0  0  0
    0.1209    0.6119   -2.3181 H   0  0  0  0  0  0  0  0  0  0  0  0
    1.5357    1.7717   -2.2143 H   0  0  0  0  0  0  0  0  0  0  0  0
    0.6247    2.7497   -0.1193 H   0  0  0  0  0  0  0  0  0  0  0  0
   -1.0982    1.9559    1.2388 H   0  0  0  0  0  0  0  0  0  0  0  0
   -1.7135    2.2212   -0.3978 H   0  0  0  0  0  0  0  0  0  0  0  0
   -2.8075    0.4104    2.0932 H   0  0  0  0  0  0  0  0  0  0  0  0
   -1.1196   -0.0337    2.3839 H   0  0  0  0  0  0  0  0  0  0  0  0
   -2.3799   -1.2732    1.7926 H   0  0  0  0  0  0  0  0  0  0  0  0
    2.5420    2.8530    0.5008 H   0  0  0  0  0  0  0  0  0  0  0  0
    4.9179    3.0878    0.9959 H   0  0  0  0  0  0  0  0  0  0  0  0
    3.2077   -1.1902   -0.5235 H   0  0  0  0  0  0  0  0  0  0  0  0
  1  2  1  0
  2  3  1  0
  2  4  1  0
  4  5  1  0
  5  6  2  0
  5  7  1  0
  7  8  1  0
  7  9  1  0
  9 10  1  0
 10 11  1  0
 11 12  1  0
 12 13  1  0
 13 14  1  0
 14 15  1  0
 15 16  1  0
 16 17  1  1
 12 18  1  6
 18 19  2  0
 19 20  1  0
 20 21  2  0
 21 22  1  0
 21 23  1  0
 23 24  2  0
 23 25  1  0
 25 26  1  0
 25 27  1  0
 25 28  1  0
 16  2  1  0
 24 18  1  0
 16 10  1  0
 14 12  1  0
  1 29  1  0
  1 30  1  0
  1 31  1  0
  3 32  1  0
  3 33  1  0
  3 34  1  0
  4 35  1  0
  4 36  1  0
  9 37  1  0
  9 38  1  0
 10 39  1  6
 11 40  1  0
 11 41  1  0
 13 42  1  0
 13 43  1  0
 14 44  1  6
 15 45  1  0
 15 46  1  0
 17 47  1  0
 17 48  1  0
 17 49  1  0
 19 50  1  0
 20 51  1  0
 24 52  1  0
M  END
$$$$
[H]N(C(=O)OC(C([H])([H])[H])(C([H])([H])[H])C([H])([H])[H])C(C([H])([H])[H])(C([H])([H])[H])C([H])([H])[H]
     RDKit          3D

 31 30  0  0  0  0  0  0  0  0999 V2000
   -2.6025    1.4740    0.4637 C   0  0  0  0  0  0  0  0  0  0  0  0
   -2.5205   -0.0191    0.2330 C   0  0  0  0  0  0  0  0  0  0  0  0
   -2.8746   -0.3896   -1.1782 C   0  0  0  0  0  0  0  0  0  0  0  0
   -3.5527   -0.6867    1.1477 C   0  0  0  0  0  0  0  0  0  0  0  0
   -1.2639   -0.4704    0.6392 O   0  0  0  0  0  0  0  0  0  0  0  0
   -0.0551   -0.0407    0.1152 C   0  0  0  0  0  0  0  0  0  0  0  0
   -0.1165    0.8231   -0.7961 O   0  0  0  0  0  0  0  0  0  0  0  0
    1.1578   -0.5678    0.6042 N   0  0  0  0  0  0  0  0  0  0  0  0
    2.4650   -0.2001    0.1401 C   0  0  0  0  0  0  0  0  0  0  0  0
    3.5467   -0.9538    0.8766 C   0  0  0  0  0  0  0  0  0  0  0  0
    2.6715   -0.4178   -1.3308 C   0  0  0  0  0  0  0  0  0  0  0  0
    2.6006    1.3046    0.3939 C   0  0  0  0  0  0  0  0  0  0  0  0
   -2.3232    2.0592   -0.4444 H   0  0  0  0  0  0  0  0  0  0  0  0
   -1.9307    1.7419    1.3266 H   0  0  0  0  0  0  0  0  0  0  0  0
   -3.6293    1.8017    0.7466 H   0  0  0  0  0  0  0  0  0  0  0  0
   -3.9813   -0.4958   -1.2263 H   0  0  0  0  0  0  0  0  0  0  0  0
   -2.4474   -1.3837   -1.4389 H   0  0  0  0  0  0  0  0  0  0  0  0
   -2.5857    0.3743   -1.9176 H   0  0  0  0  0  0  0  0  0  0  0  0
   -3.2187   -0.6050    2.2027 H   0  0  0  0  0  0  0  0  0  0  0  0
   -3.6070   -1.7775    0.9315 H   0  0  0  0  0  0  0  0  0  0  0  0
   -4.5319   -0.2222    0.9639 H   0  0  0  0  0  0  0  0  0  0  0  0
    1.1261   -1.2836    1.3639 H   0  0  0  0  0  0  0  0  0  0  0  0
    4.1540   -1.5893    0.1894 H   0  0  0  0  0  0  0  0  0  0  0  0
    3.0781   -1.6626    1.6012 H   0  0  0  0  0  0  0  0  0  0  0  0
    4.2426   -0.2450    1.3856 H   0  0  0  0  0  0  0  0  0  0  0  0
    2.3275    0.4248   -1.9482 H   0  0  0  0  0  0  0  0  0  0  0  0
    3.7678   -0.5030   -1.4963 H   0  0  0  0  0  0  0  0  0  0  0  0
    2.2509   -1.4026   -1.6710 H   0  0  0  0  0  0  0  0  0  0  0  0
    2.1207    1.8071   -0.4715 H   0  0  0  0  0  0  0  0  0  0  0  0
    3.6783    1.5572    0.4258 H   0  0  0  0  0  0  0  0  0  0  0  0
    2.0531    1.5486    1.3036 H   0  0  0  0  0  0  0  0  0  0  0  0
  1  2  1  0
  2  3  1  0
  2  4  1  0
  2  5  1  0
  5  6  1  0
  6  7  2  0
  6  8  1  0
  8  9  1  0
  9 10  1  0
  9 11  1  0
  9 12  1  0
  1 13  1  0
  1 14  1  0
  1 15  1  0
  3 16  1  0
  3 17  1  0
  3 18  1  0
  4 19  1  0
  4 20  1  0
  4 21  1  0
  8 22  1  0
 10 23  1  0
 10 24  1  0
 10 25  1  0
 11 26  1  0
 11 27  1  0
 11 28  1  0
 12 29  1  0
 12 30  1  0
 12 31  1  0
M  END
$$$$
[H]c1nc(N([H])[H])c2c([H])c(C3=c4nc([H])n(-c5c([H])c([H])c(F)c([H])c5[H])c4=N3)c([H])n2n1
     RDKit          3D

 34 38  0  0  0  0  0  0  0  0999 V2000
   -5.8324   -1.2905   -0.0120 N   0  0  0  0  0  0  0  0  0  0  0  0
   -5.4982    0.0868    0.0301 C   0  0  0  0  0  0  0  0  0  0  0  0
   -6.4047    1.0685    0.0572 N   0  0  0  0  0  0  0  0  0  0  0  0
   -6.0831    2.3748    0.0972 C   0  0  0  0  0  0  0  0  0  0  0  0
   -4.7730    2.6811    0.1097 N   0  0  0  0  0  0  0  0  0  0  0  0
   -3.8193    1.7463    0.0842 N   0  0  0  0  0  0  0  0  0  0  0  0
   -2.4668    1.8167    0.0898 C   0  0  0  0  0  0  0  0  0  0  0  0
   -1.9478    0.5333    0.0527 C   0  0  0  0  0  0  0  0  0  0  0  0
   -3.0173   -0.3373    0.0238 C   0  0  0  0  0  0  0  0  0  0  0  0
   -4.1476    0.4427    0.0443 C   0  0  0  0  0  0  0  0  0  0  0  0
   -0.5249    0.1850    0.0459 C   0  0  0  0  0  0  0  0  0  0  0  0
    0.1923   -0.8899    0.3427 C   0  0  0  0  0  0  0  0  0  0  0  0
    0.5829   -2.1186    0.7192 N   0  0  0  0  0  0  0  0  0  0  0  0
    1.9226   -2.1483    0.6132 C   0  0  0  0  0  0  0  0  0  0  0  0
    2.3785   -0.9670    0.1793 N   0  0  0  0  0  0  0  0  0  0  0  0
    3.7515   -0.5927   -0.0645 C   0  0  0  0  0  0  0  0  0  0  0  0
    4.3556    0.4297    0.6366 C   0  0  0  0  0  0  0  0  0  0  0  0
    5.6780    0.7937    0.4050 C   0  0  0  0  0  0  0  0  0  0  0  0
    6.4154    0.1262   -0.5444 C   0  0  0  0  0  0  0  0  0  0  0  0
    7.7035    0.4735   -0.7768 F   0  0  0  0  0  0  0  0  0  0  0  0
    5.8076   -0.8928   -1.2407 C   0  0  0  0  0  0  0  0  0  0  0  0
    4.4946   -1.2518   -1.0086 C   0  0  0  0  0  0  0  0  0  0  0  0
    1.3136   -0.1686    0.0049 C   0  0  0  0  0  0  0  0  0  0  0  0
    0.6558    0.9023   -0.2958 N   0  0  0  0  0  0  0  0  0  0  0  0
   -6.5040   -1.6509    0.6970 H   0  0  0  0  0  0  0  0  0  0  0  0
   -5.4194   -1.9219   -0.7291 H   0  0  0  0  0  0  0  0  0  0  0  0
   -6.8268    3.1675    0.1190 H   0  0  0  0  0  0  0  0  0  0  0  0
   -1.9146    2.7523    0.1192 H   0  0  0  0  0  0  0  0  0  0  0  0
   -2.9823   -1.4230   -0.0086 H   0  0  0  0  0  0  0  0  0  0  0  0
    2.6071   -2.9772    0.8307 H   0  0  0  0  0  0  0  0  0  0  0  0
    3.7390    0.9365    1.3820 H   0  0  0  0  0  0  0  0  0  0  0  0
    6.1246    1.5988    0.9697 H   0  0  0  0  0  0  0  0  0  0  0  0
    6.3836   -1.4254   -1.9930 H   0  0  0  0  0  0  0  0  0  0  0  0
    4.0557   -2.0597   -1.5793 H   0  0  0  0  0  0  0  0  0  0  0  0
  1  2  1  0
  2  3  2  0
  3  4  1  0
  4  5  2  0
  5  6  1  0
  6  7  1  0
  7  8  2  0
  8  9  1  0
  9 10  2  0
  8 11  1  0
 11 12  2  0
 12 13  1  0
 13 14  2  0
 14 15  1  0
 15 16  1  0
 16 17  2  0
 17 18  1  0
 18 19  2  0
 19 20  1  0
 19 21  1  0
 21 22  2  0
 15 23  1  0
 23 24  2  0
 10  2  1  0
 24 11  1  0
 10  6  1  0
 23 12  1  0
 22 16  1  0
  1 25  1  0
  1 26  1  0
  4 27  1  0
  7 28  1  0
  9 29  1  0
 14 30  1  0
 17 31  1  0
 18 32  1  0
 21 33  1  0
 22 34  1  0
M  END
$$$$
[H]c1nc(N([H])C2([H])C([H])([H])C([H])([H])N(c3c([H])c([H])c(-c4nc([H])c(OC(F)(F)F)c(C(=O)N([H])C5([H])C([H])([H])C6([H])C([H])([H])OC([H])([H])C5([H])C([H])([H])C6([H])[H])c4[H])c([H])c3[H])C([H])([H])C2([H])[H])c(F)c([H])c1F
     RDKit          3D

 76 81  0  0  0  0  0  0  0  0999 V2000
   12.5916   -0.2238   -2.2990 F   0  0  0  0  0  0  0  0  0  0  0  0
   11.5378   -0.1005   -1.4213 C   0  0  0  0  0  0  0  0  0  0  0  0
   10.7723    1.0400   -1.4983 C   0  0  0  0  0  0  0  0  0  0  0  0
    9.7364    1.1812   -0.6399 N   0  0  0  0  0  0  0  0  0  0  0  0
    9.4318    0.2623    0.2711 C   0  0  0  0  0  0  0  0  0  0  0  0
    8.3601    0.4454    1.1551 N   0  0  0  0  0  0  0  0  0  0  0  0
    7.5298    1.6270    1.0992 C   0  0  0  0  0  0  0  0  0  0  0  0
    6.7449    1.7573   -0.1744 C   0  0  0  0  0  0  0  0  0  0  0  0
    5.2711    2.0406    0.1077 C   0  0  0  0  0  0  0  0  0  0  0  0
    4.7056    1.0350    0.9505 N   0  0  0  0  0  0  0  0  0  0  0  0
    5.5209    0.5468    2.0530 C   0  0  0  0  0  0  0  0  0  0  0  0
    6.5719    1.6254    2.2994 C   0  0  0  0  0  0  0  0  0  0  0  0
    3.4077    0.5204    0.7940 C   0  0  0  0  0  0  0  0  0  0  0  0
    3.1585   -0.8488    0.9390 C   0  0  0  0  0  0  0  0  0  0  0  0
    1.8919   -1.3650    0.8221 C   0  0  0  0  0  0  0  0  0  0  0  0
    0.7923   -0.5609    0.5537 C   0  0  0  0  0  0  0  0  0  0  0  0
    1.0294    0.7753    0.4100 C   0  0  0  0  0  0  0  0  0  0  0  0
    2.3186    1.3192    0.5261 C   0  0  0  0  0  0  0  0  0  0  0  0
   -0.5418   -1.1488    0.4260 C   0  0  0  0  0  0  0  0  0  0  0  0
   -1.6849   -0.4080    0.3239 C   0  0  0  0  0  0  0  0  0  0  0  0
   -2.9656   -1.0013    0.2273 C   0  0  0  0  0  0  0  0  0  0  0  0
   -4.1084   -0.1564    0.0042 C   0  0  0  0  0  0  0  0  0  0  0  0
   -3.8780    1.1193    0.1070 O   0  0  0  0  0  0  0  0  0  0  0  0
   -5.4281   -0.4511   -0.2971 N   0  0  0  0  0  0  0  0  0  0  0  0
   -6.4771    0.5457   -0.4686 C   0  0  0  0  0  0  0  0  0  0  0  0
   -7.1743    0.5173   -1.7776 C   0  0  0  0  0  0  0  0  0  0  0  0
   -8.6642    0.7388   -1.6818 C   0  0  0  0  0  0  0  0  0  0  0  0
   -9.0546    1.8031   -0.6876 C   0  0  0  0  0  0  0  0  0  0  0  0
   -8.4356    1.5509    0.6483 C   0  0  0  0  0  0  0  0  0  0  0  0
   -7.5308    0.3366    0.6231 C   0  0  0  0  0  0  0  0  0  0  0  0
   -8.2918   -0.9364    0.4158 C   0  0  0  0  0  0  0  0  0  0  0  0
   -9.5803   -0.7103   -0.0791 O   0  0  0  0  0  0  0  0  0  0  0  0
   -9.4783   -0.4827   -1.4550 C   0  0  0  0  0  0  0  0  0  0  0  0
   -2.9567   -2.3690    0.2484 C   0  0  0  0  0  0  0  0  0  0  0  0
   -4.1482   -3.0779    0.1836 O   0  0  0  0  0  0  0  0  0  0  0  0
   -4.6348   -3.5258    1.4708 C   0  0  0  0  0  0  0  0  0  0  0  0
   -3.6956   -4.3921    2.0281 F   0  0  0  0  0  0  0  0  0  0  0  0
   -5.8138   -4.2283    1.3554 F   0  0  0  0  0  0  0  0  0  0  0  0
   -4.7958   -2.5085    2.3747 F   0  0  0  0  0  0  0  0  0  0  0  0
   -1.7941   -3.1188    0.3491 C   0  0  0  0  0  0  0  0  0  0  0  0
   -0.6299   -2.5157    0.4342 N   0  0  0  0  0  0  0  0  0  0  0  0
   10.1878   -0.9029    0.3740 C   0  0  0  0  0  0  0  0  0  0  0  0
    9.8734   -1.8476    1.3100 F   0  0  0  0  0  0  0  0  0  0  0  0
   11.2447   -1.0654   -0.4883 C   0  0  0  0  0  0  0  0  0  0  0  0
   10.9736    1.8312   -2.2273 H   0  0  0  0  0  0  0  0  0  0  0  0
    8.1607   -0.2993    1.8793 H   0  0  0  0  0  0  0  0  0  0  0  0
    8.1576    2.5377    1.2208 H   0  0  0  0  0  0  0  0  0  0  0  0
    6.7469    0.7308   -0.6512 H   0  0  0  0  0  0  0  0  0  0  0  0
    7.2091    2.5140   -0.8104 H   0  0  0  0  0  0  0  0  0  0  0  0
    4.7796    2.1499   -0.8740 H   0  0  0  0  0  0  0  0  0  0  0  0
    5.2513    3.0287    0.6017 H   0  0  0  0  0  0  0  0  0  0  0  0
    4.8993    0.4881    2.9687 H   0  0  0  0  0  0  0  0  0  0  0  0
    6.0449   -0.3745    1.7916 H   0  0  0  0  0  0  0  0  0  0  0  0
    7.0843    1.3377    3.2212 H   0  0  0  0  0  0  0  0  0  0  0  0
    6.1621    2.6316    2.3695 H   0  0  0  0  0  0  0  0  0  0  0  0
    4.0184   -1.4587    1.1463 H   0  0  0  0  0  0  0  0  0  0  0  0
    1.6966   -2.4260    0.9326 H   0  0  0  0  0  0  0  0  0  0  0  0
    0.1984    1.4495    0.1973 H   0  0  0  0  0  0  0  0  0  0  0  0
    2.4652    2.3797    0.4045 H   0  0  0  0  0  0  0  0  0  0  0  0
   -1.6323    0.6699    0.3148 H   0  0  0  0  0  0  0  0  0  0  0  0
   -5.7453   -1.4299   -0.4391 H   0  0  0  0  0  0  0  0  0  0  0  0
   -6.0055    1.5227   -0.2553 H   0  0  0  0  0  0  0  0  0  0  0  0
   -7.0027   -0.3918   -2.3871 H   0  0  0  0  0  0  0  0  0  0  0  0
   -6.7708    1.3717   -2.3878 H   0  0  0  0  0  0  0  0  0  0  0  0
   -8.9762    1.1429   -2.6898 H   0  0  0  0  0  0  0  0  0  0  0  0
  -10.1734    1.7036   -0.5697 H   0  0  0  0  0  0  0  0  0  0  0  0
   -8.8699    2.8170   -1.0867 H   0  0  0  0  0  0  0  0  0  0  0  0
   -7.7715    2.4249    0.8909 H   0  0  0  0  0  0  0  0  0  0  0  0
   -9.1854    1.4416    1.4337 H   0  0  0  0  0  0  0  0  0  0  0  0
   -7.0015    0.2842    1.5940 H   0  0  0  0  0  0  0  0  0  0  0  0
   -7.7595   -1.5933   -0.3130 H   0  0  0  0  0  0  0  0  0  0  0  0
   -8.3791   -1.4737    1.3728 H   0  0  0  0  0  0  0  0  0  0  0  0
  -10.5041   -0.3722   -1.8585 H   0  0  0  0  0  0  0  0  0  0  0  0
   -9.0047   -1.3381   -1.9740 H   0  0  0  0  0  0  0  0  0  0  0  0
   -1.8639   -4.1878    0.3510 H   0  0  0  0  0  0  0  0  0  0  0  0
   11.8819   -1.9535   -0.4671 H   0  0  0  0  0  0  0  0  0  0  0  0
  1  2  1  0
  2  3  2  0
  3  4  1  0
  4  5  2  0
  5  6  1  0
  6  7  1  0
  7  8  1  0
  8  9  1  0
  9 10  1  0
 10 11  1  0
 11 12  1  0
 10 13  1  0
 13 14  2  0
 14 15  1  0
 15 16  2  0
 16 17  1  0
 17 18  2  0
 16 19  1  0
 19 20  2  0
 20 21  1  0
 21 22  1  0
 22 23  2  0
 22 24  1  0
 24 25  1  0
 25 26  1  0
 26 27  1  0
 27 28  1  0
 28 29  1  0
 29 30  1  0
 30 31  1  0
 31 32  1  0
 32 33  1  0
 21 34  2  0
 34 35  1  0
 35 36  1  0
 36 37  1  0
 36 38  1  0
 36 39  1  0
 34 40  1  0
 40 41  2  0
  5 42  1  0
 42 43  1  0
 42 44  2  0
 44  2  1  0
 12  7  1  0
 18 13  1  0
 41 19  1  0
 30 25  1  0
 33 27  1  0
  3 45  1  0
  6 46  1  0
  7 47  1  0
  8 48  1  0
  8 49  1  0
  9 50  1  0
  9 51  1  0
 11 52  1  0
 11 53  1  0
 12 54  1  0
 12 55  1  0
 14 56  1  0
 15 57  1  0
 17 58  1  0
 18 59  1  0
 20 60  1  0
 24 61  1  0
 25 62  1  0
 26 63  1  0
 26 64  1  0
 27 65  1  0
 28 66  1  0
 28 67  1  0
 29 68  1  0
 29 69  1  0
 30 70  1  0
 31 71  1  0
 31 72  1  0
 33 73  1  0
 33 74  1  0
 40 75  1  0
 44 76  1  0
M  END
$$$$
[H]c1c([H])c(-c2c([H])c([H])c3c([H])c(N([H])C(=O)N([H])[C@]4([H])C([H])([H])C([H])([H])[C@]4([H])C#N)c([H])c([H])c3c2[H])c([H])c(S(=O)(=O)C([H])([H])[H])c1[H]
     RDKit          3D

 51 54  0  0  0  0  0  0  0  0999 V2000
    8.4480   -1.6170   -0.3982 C   0  0  0  0  0  0  0  0  0  0  0  0
    7.8322   -0.0274   -0.9191 S   0  0  0  0  0  0  0  0  0  0  0  0
    8.9116    0.9652   -1.1274 O   0  0  0  0  0  0  0  0  0  0  0  0
    7.0988   -0.2144   -2.2399 O   0  0  0  0  0  0  0  0  0  0  0  0
    6.6358    0.5902    0.2082 C   0  0  0  0  0  0  0  0  0  0  0  0
    6.9787    1.3777    1.2941 C   0  0  0  0  0  0  0  0  0  0  0  0
    6.0156    1.8498    2.1638 C   0  0  0  0  0  0  0  0  0  0  0  0
    4.6858    1.5326    1.9493 C   0  0  0  0  0  0  0  0  0  0  0  0
    4.3099    0.7606    0.8921 C   0  0  0  0  0  0  0  0  0  0  0  0
    5.2933    0.3015    0.0377 C   0  0  0  0  0  0  0  0  0  0  0  0
    2.9019    0.4056    0.6336 C   0  0  0  0  0  0  0  0  0  0  0  0
    2.6004   -0.7969    0.0356 C   0  0  0  0  0  0  0  0  0  0  0  0
    1.3201   -1.2014   -0.2406 C   0  0  0  0  0  0  0  0  0  0  0  0
    0.2655   -0.3410    0.1062 C   0  0  0  0  0  0  0  0  0  0  0  0
   -1.0314   -0.7136   -0.1567 C   0  0  0  0  0  0  0  0  0  0  0  0
   -2.0736    0.1461    0.1898 C   0  0  0  0  0  0  0  0  0  0  0  0
   -3.3743   -0.3227   -0.1010 N   0  0  0  0  0  0  0  0  0  0  0  0
   -4.5370    0.4281   -0.1377 C   0  0  0  0  0  0  0  0  0  0  0  0
   -4.5792    1.6472    0.0772 O   0  0  0  0  0  0  0  0  0  0  0  0
   -5.7972   -0.2017   -0.4393 N   0  0  0  0  0  0  0  0  0  0  0  0
   -7.0348    0.5528   -0.4869 C   0  0  2  0  0  0  0  0  0  0  0  0
   -8.1086   -0.1749    0.2941 C   0  0  0  0  0  0  0  0  0  0  0  0
   -8.4724   -0.8988   -0.9856 C   0  0  0  0  0  0  0  0  0  0  0  0
   -7.8304    0.2617   -1.7495 C   0  0  2  0  0  0  0  0  0  0  0  0
   -7.0254   -0.1745   -2.8828 C   0  0  0  0  0  0  0  0  0  0  0  0
   -6.3761   -0.5191   -3.7763 N   0  0  0  0  0  0  0  0  0  0  0  0
   -1.7981    1.3516    0.7882 C   0  0  0  0  0  0  0  0  0  0  0  0
   -0.4736    1.7128    1.0471 C   0  0  0  0  0  0  0  0  0  0  0  0
    0.5625    0.8642    0.7052 C   0  0  0  0  0  0  0  0  0  0  0  0
    1.8824    1.2304    0.9656 C   0  0  0  0  0  0  0  0  0  0  0  0
    7.7365   -2.0022    0.3591 H   0  0  0  0  0  0  0  0  0  0  0  0
    9.4198   -1.4199    0.1266 H   0  0  0  0  0  0  0  0  0  0  0  0
    8.5707   -2.2986   -1.2606 H   0  0  0  0  0  0  0  0  0  0  0  0
    8.0351    1.5994    1.4202 H   0  0  0  0  0  0  0  0  0  0  0  0
    6.3123    2.4744    3.0205 H   0  0  0  0  0  0  0  0  0  0  0  0
    3.9459    1.9078    2.6359 H   0  0  0  0  0  0  0  0  0  0  0  0
    5.0372   -0.3195   -0.8218 H   0  0  0  0  0  0  0  0  0  0  0  0
    3.4464   -1.4425   -0.2210 H   0  0  0  0  0  0  0  0  0  0  0  0
    1.0777   -2.1312   -0.7036 H   0  0  0  0  0  0  0  0  0  0  0  0
   -1.1967   -1.6749   -0.6302 H   0  0  0  0  0  0  0  0  0  0  0  0
   -3.4873   -1.3678   -0.3121 H   0  0  0  0  0  0  0  0  0  0  0  0
   -5.8063   -1.2094   -0.6230 H   0  0  0  0  0  0  0  0  0  0  0  0
   -6.9265    1.6286   -0.2755 H   0  0  0  0  0  0  0  0  0  0  0  0
   -7.7312   -0.8130    1.1103 H   0  0  0  0  0  0  0  0  0  0  0  0
   -8.9366    0.5032    0.5913 H   0  0  0  0  0  0  0  0  0  0  0  0
   -9.5469   -1.0188   -1.1815 H   0  0  0  0  0  0  0  0  0  0  0  0
   -7.8831   -1.8341   -1.0613 H   0  0  0  0  0  0  0  0  0  0  0  0
   -8.5724    1.0525   -1.9542 H   0  0  0  0  0  0  0  0  0  0  0  0
   -2.5785    2.0402    1.0821 H   0  0  0  0  0  0  0  0  0  0  0  0
   -0.2206    2.6561    1.5174 H   0  0  0  0  0  0  0  0  0  0  0  0
    2.0740    2.1803    1.4349 H   0  0  0  0  0  0  0  0  0  0  0  0
  1  2  1  0
  2  3  2  0
  2  4  2  0
  2  5  1  0
  5  6  2  0
  6  7  1  0
  7  8  2  0
  8  9  1  0
  9 10  2  0
  9 11  1  0
 11 12  2  0
 12 13  1  0
 13 14  2  0
 14 15  1  0
 15 16  2  0
 16 17  1  0
 17 18  1  0
 18 19  2  0
 18 20  1  0
 20 21  1  0
 21 22  1  0
 22 23  1  0
 23 24  1  0
 24 25  1  0
 25 26  3  0
 16 27  1  0
 27 28  2  0
 28 29  1  0
 29 30  2  0
 10  5  1  0
 30 11  1  0
 29 14  1  0
 24 21  1  0
  1 31  1  0
  1 32  1  0
  1 33  1  0
  6 34  1  0
  7 35  1  0
  8 36  1  0
 10 37  1  0
 12 38  1  0
 13 39  1  0
 15 40  1  0
 17 41  1  0
 20 42  1  0
 21 43  1  1
 22 44  1  0
 22 45  1  0
 23 46  1  0
 23 47  1  0
 24 48  1  6
 27 49  1  0
 28 50  1  0
 30 51  1  0
M  END
$$$$
[H]c1nc([H])c([H])c(-c2c([H])nc(N3C([H])([H])C([H])([H])N(c4nc(N([H])C(=O)C([H])([H])c5c([H])c([H])c([H])c([H])c5[H])c5c([H])c([H])c([H])c([H])c5n4)C([H])([H])C3([H])[H])c3c([H])c([H])c([H])c([H])c23)c1[H]
     RDKit          3D

 71 77  0  0  0  0  0  0  0  0999 V2000
   -6.6517    0.1782    1.0261 O   0  0  0  0  0  0  0  0  0  0  0  0
   -5.5207   -0.3032    0.7092 C   0  0  0  0  0  0  0  0  0  0  0  0
   -4.5947    0.5262   -0.0483 C   0  0  0  0  0  0  0  0  0  0  0  0
   -5.2180    1.8705   -0.2994 C   0  0  0  0  0  0  0  0  0  0  0  0
   -5.9981    2.1226   -1.3963 C   0  0  0  0  0  0  0  0  0  0  0  0
   -6.5554    3.3797   -1.5926 C   0  0  0  0  0  0  0  0  0  0  0  0
   -6.3380    4.3918   -0.6966 C   0  0  0  0  0  0  0  0  0  0  0  0
   -5.5519    4.1615    0.4216 C   0  0  0  0  0  0  0  0  0  0  0  0
   -5.0079    2.9067    0.5980 C   0  0  0  0  0  0  0  0  0  0  0  0
   -5.2378   -1.6345    1.1218 N   0  0  0  0  0  0  0  0  0  0  0  0
   -4.0325   -2.3238    0.8735 C   0  0  0  0  0  0  0  0  0  0  0  0
   -3.0089   -1.7110    0.2108 N   0  0  0  0  0  0  0  0  0  0  0  0
   -1.8411   -2.3031   -0.0462 C   0  0  0  0  0  0  0  0  0  0  0  0
   -1.7262   -3.5801    0.3992 N   0  0  0  0  0  0  0  0  0  0  0  0
   -2.6755   -4.2451    1.0511 C   0  0  0  0  0  0  0  0  0  0  0  0
   -2.4959   -5.5508    1.4803 C   0  0  0  0  0  0  0  0  0  0  0  0
   -3.4530   -6.2705    2.1565 C   0  0  0  0  0  0  0  0  0  0  0  0
   -4.6556   -5.6555    2.4196 C   0  0  0  0  0  0  0  0  0  0  0  0
   -4.8482   -4.3321    1.9887 C   0  0  0  0  0  0  0  0  0  0  0  0
   -3.8790   -3.6219    1.3112 C   0  0  0  0  0  0  0  0  0  0  0  0
   -0.7405   -1.6935   -0.7298 N   0  0  0  0  0  0  0  0  0  0  0  0
   -0.7795   -0.3491   -1.1893 C   0  0  0  0  0  0  0  0  0  0  0  0
    0.4533    0.3970   -0.6981 C   0  0  0  0  0  0  0  0  0  0  0  0
    1.6421   -0.3642   -0.9786 N   0  0  0  0  0  0  0  0  0  0  0  0
    1.4837   -1.6252   -1.6606 C   0  0  0  0  0  0  0  0  0  0  0  0
    0.4766   -2.4862   -0.9613 C   0  0  0  0  0  0  0  0  0  0  0  0
    2.9204    0.1038   -0.6076 C   0  0  0  0  0  0  0  0  0  0  0  0
    3.5336   -0.3734    0.5154 N   0  0  0  0  0  0  0  0  0  0  0  0
    4.7222    0.0625    0.9403 C   0  0  0  0  0  0  0  0  0  0  0  0
    5.4231    1.0544    0.2442 C   0  0  0  0  0  0  0  0  0  0  0  0
    6.7308    1.4629    0.7285 C   0  0  0  0  0  0  0  0  0  0  0  0
    7.8979    1.3951    0.0153 C   0  0  0  0  0  0  0  0  0  0  0  0
    9.0907    1.8059    0.5496 C   0  0  0  0  0  0  0  0  0  0  0  0
    9.1156    2.2908    1.8140 N   0  0  0  0  0  0  0  0  0  0  0  0
    7.9712    2.3638    2.5303 C   0  0  0  0  0  0  0  0  0  0  0  0
    6.7540    1.9652    2.0395 C   0  0  0  0  0  0  0  0  0  0  0  0
    4.8386    1.5550   -0.8853 C   0  0  0  0  0  0  0  0  0  0  0  0
    5.4661    2.5258   -1.6123 C   0  0  0  0  0  0  0  0  0  0  0  0
    4.8735    3.0327   -2.7618 C   0  0  0  0  0  0  0  0  0  0  0  0
    3.6486    2.5627   -3.1797 C   0  0  0  0  0  0  0  0  0  0  0  0
    2.9891    1.5823   -2.4642 C   0  0  0  0  0  0  0  0  0  0  0  0
    3.5815    1.0838   -1.3228 C   0  0  0  0  0  0  0  0  0  0  0  0
   -3.6719    0.7526    0.5460 H   0  0  0  0  0  0  0  0  0  0  0  0
   -4.3453    0.0897   -1.0413 H   0  0  0  0  0  0  0  0  0  0  0  0
   -6.1768    1.3166   -2.1180 H   0  0  0  0  0  0  0  0  0  0  0  0
   -7.1757    3.5894   -2.4596 H   0  0  0  0  0  0  0  0  0  0  0  0
   -6.7571    5.3989   -0.8117 H   0  0  0  0  0  0  0  0  0  0  0  0
   -5.3409    4.9141    1.1647 H   0  0  0  0  0  0  0  0  0  0  0  0
   -4.3932    2.7313    1.4749 H   0  0  0  0  0  0  0  0  0  0  0  0
   -5.9873   -2.1568    1.6718 H   0  0  0  0  0  0  0  0  0  0  0  0
   -1.5327   -5.9948    1.2499 H   0  0  0  0  0  0  0  0  0  0  0  0
   -3.2854   -7.3018    2.4851 H   0  0  0  0  0  0  0  0  0  0  0  0
   -5.4656   -6.1187    2.9361 H   0  0  0  0  0  0  0  0  0  0  0  0
   -5.7866   -3.8528    2.1928 H   0  0  0  0  0  0  0  0  0  0  0  0
   -0.7761   -0.2537   -2.2970 H   0  0  0  0  0  0  0  0  0  0  0  0
   -1.6381    0.2037   -0.7900 H   0  0  0  0  0  0  0  0  0  0  0  0
    0.3867    0.5724    0.4043 H   0  0  0  0  0  0  0  0  0  0  0  0
    0.4520    1.3863   -1.1654 H   0  0  0  0  0  0  0  0  0  0  0  0
    2.4375   -2.2059   -1.6851 H   0  0  0  0  0  0  0  0  0  0  0  0
    1.1652   -1.4253   -2.7139 H   0  0  0  0  0  0  0  0  0  0  0  0
    0.8817   -2.7415    0.0337 H   0  0  0  0  0  0  0  0  0  0  0  0
    0.2311   -3.3782   -1.5761 H   0  0  0  0  0  0  0  0  0  0  0  0
    5.2027   -0.3278    1.8410 H   0  0  0  0  0  0  0  0  0  0  0  0
    7.8633    1.0029   -1.0006 H   0  0  0  0  0  0  0  0  0  0  0  0
   10.0363    1.7584   -0.0085 H   0  0  0  0  0  0  0  0  0  0  0  0
    8.0136    2.7553    3.5385 H   0  0  0  0  0  0  0  0  0  0  0  0
    5.8253    2.0280    2.6286 H   0  0  0  0  0  0  0  0  0  0  0  0
    6.4052    2.9216   -1.3147 H   0  0  0  0  0  0  0  0  0  0  0  0
    5.4056    3.8005   -3.3075 H   0  0  0  0  0  0  0  0  0  0  0  0
    3.1795    2.9560   -4.0804 H   0  0  0  0  0  0  0  0  0  0  0  0
    2.0443    1.2223   -2.8167 H   0  0  0  0  0  0  0  0  0  0  0  0
  1  2  2  0
  2  3  1  0
  3  4  1  0
  4  5  2  0
  5  6  1  0
  6  7  2  0
  7  8  1  0
  8  9  2  0
  2 10  1  0
 10 11  1  0
 11 12  2  0
 12 13  1  0
 13 14  2  0
 14 15  1  0
 15 16  2  0
 16 17  1  0
 17 18  2  0
 18 19  1  0
 19 20  2  0
 13 21  1  0
 21 22  1  0
 22 23  1  0
 23 24  1  0
 24 25  1  0
 25 26  1  0
 24 27  1  0
 27 28  2  0
 28 29  1  0
 29 30  2  0
 30 31  1  0
 31 32  2  0
 32 33  1  0
 33 34  2  0
 34 35  1  0
 35 36  2  0
 30 37  1  0
 37 38  2  0
 38 39  1  0
 39 40  2  0
 40 41  1  0
 41 42  2  0
  9  4  1  0
 20 11  1  0
 26 21  1  0
 42 27  1  0
 20 15  1  0
 36 31  1  0
 42 37  1  0
  3 43  1  0
  3 44  1  0
  5 45  1  0
  6 46  1  0
  7 47  1  0
  8 48  1  0
  9 49  1  0
 10 50  1  0
 16 51  1  0
 17 52  1  0
 18 53  1  0
 19 54  1  0
 22 55  1  0
 22 56  1  0
 23 57  1  0
 23 58  1  0
 25 59  1  0
 25 60  1  0
 26 61  1  0
 26 62  1  0
 29 63  1  0
 32 64  1  0
 33 65  1  0
 35 66  1  0
 36 67  1  0
 38 68  1  0
 39 69  1  0
 40 70  1  0
 41 71  1  0
M  END
$$$$
[H]OC([H])([H])C1=C([H])C([H])([H])C([H])([H])N(C([H])(C([H])([H])[H])C([H])([H])[H])C([H])(C(=O)N2C([H])([H])C([H])([H])N(c3c([H])nc(N([H])c4nc([H])c(-c5nnc([H])n5C([H])([H])[H])s4)nc3[H])C([H])([H])C2([H])[H])C1([H])[H]
     RDKit          3D

 72 76  0  0  0  0  0  0  0  0999 V2000
   -7.2335    1.1703    1.7493 C   0  0  0  0  0  0  0  0  0  0  0  0
   -5.8719    1.3463    1.0721 C   0  0  0  0  0  0  0  0  0  0  0  0
   -5.7952    2.7845    0.6443 C   0  0  0  0  0  0  0  0  0  0  0  0
   -5.7025    0.3854    0.0853 N   0  0  0  0  0  0  0  0  0  0  0  0
   -6.5329    0.3157   -1.0346 C   0  0  0  0  0  0  0  0  0  0  0  0
   -7.5401   -0.8371   -0.9879 C   0  0  0  0  0  0  0  0  0  0  0  0
   -7.0141   -1.8161   -0.0156 C   0  0  0  0  0  0  0  0  0  0  0  0
   -5.7759   -2.1715    0.2216 C   0  0  0  0  0  0  0  0  0  0  0  0
   -5.6093   -3.1965    1.2818 C   0  0  0  0  0  0  0  0  0  0  0  0
   -6.8374   -3.5863    1.8300 O   0  0  0  0  0  0  0  0  0  0  0  0
   -4.5316   -1.6815   -0.4259 C   0  0  0  0  0  0  0  0  0  0  0  0
   -4.3986   -0.2261    0.0015 C   0  0  0  0  0  0  0  0  0  0  0  0
   -3.4905    0.5275   -0.8937 C   0  0  0  0  0  0  0  0  0  0  0  0
   -3.9871    1.4683   -1.6344 O   0  0  0  0  0  0  0  0  0  0  0  0
   -2.1034    0.3322   -1.0377 N   0  0  0  0  0  0  0  0  0  0  0  0
   -1.3055   -0.6003   -0.3013 C   0  0  0  0  0  0  0  0  0  0  0  0
    0.0688   -0.1336    0.0832 C   0  0  0  0  0  0  0  0  0  0  0  0
    0.6252    0.9009   -0.7495 N   0  0  0  0  0  0  0  0  0  0  0  0
   -0.2608    1.8577   -1.3588 C   0  0  0  0  0  0  0  0  0  0  0  0
   -1.4187    1.1412   -2.0553 C   0  0  0  0  0  0  0  0  0  0  0  0
    2.0242    0.9938   -0.9606 C   0  0  0  0  0  0  0  0  0  0  0  0
    2.9197    0.3655   -0.0841 C   0  0  0  0  0  0  0  0  0  0  0  0
    4.2482    0.4255   -0.2763 N   0  0  0  0  0  0  0  0  0  0  0  0
    4.7931    1.0850   -1.3087 C   0  0  0  0  0  0  0  0  0  0  0  0
    6.2028    1.1490   -1.5204 N   0  0  0  0  0  0  0  0  0  0  0  0
    7.1097    0.4964   -0.6126 C   0  0  0  0  0  0  0  0  0  0  0  0
    6.7995   -0.1872    0.4778 N   0  0  0  0  0  0  0  0  0  0  0  0
    7.7423   -0.7215    1.1887 C   0  0  0  0  0  0  0  0  0  0  0  0
    9.0362   -0.5458    0.7614 C   0  0  0  0  0  0  0  0  0  0  0  0
    8.8059    0.3888   -0.6502 S   0  0  0  0  0  0  0  0  0  0  0  0
   10.2660   -1.0505    1.3886 C   0  0  0  0  0  0  0  0  0  0  0  0
   10.3686   -1.7625    2.5073 N   0  0  0  0  0  0  0  0  0  0  0  0
   11.6636   -2.0007    2.6912 N   0  0  0  0  0  0  0  0  0  0  0  0
   12.3727   -1.4559    1.7147 C   0  0  0  0  0  0  0  0  0  0  0  0
   11.4898   -0.8473    0.8793 N   0  0  0  0  0  0  0  0  0  0  0  0
   11.8164   -0.1206   -0.3301 C   0  0  0  0  0  0  0  0  0  0  0  0
    3.9671    1.6980   -2.1663 N   0  0  0  0  0  0  0  0  0  0  0  0
    2.6090    1.6630   -2.0096 C   0  0  0  0  0  0  0  0  0  0  0  0
   -8.0560    1.0740    1.0261 H   0  0  0  0  0  0  0  0  0  0  0  0
   -7.1615    0.2419    2.3653 H   0  0  0  0  0  0  0  0  0  0  0  0
   -7.3604    2.0228    2.4583 H   0  0  0  0  0  0  0  0  0  0  0  0
   -5.1405    1.2299    1.9004 H   0  0  0  0  0  0  0  0  0  0  0  0
   -6.1383    2.9590   -0.3752 H   0  0  0  0  0  0  0  0  0  0  0  0
   -6.3954    3.4505    1.3140 H   0  0  0  0  0  0  0  0  0  0  0  0
   -4.7525    3.1175    0.7308 H   0  0  0  0  0  0  0  0  0  0  0  0
   -7.1766    1.2332   -1.1706 H   0  0  0  0  0  0  0  0  0  0  0  0
   -6.0085    0.2482   -2.0364 H   0  0  0  0  0  0  0  0  0  0  0  0
   -8.5509   -0.4754   -0.7211 H   0  0  0  0  0  0  0  0  0  0  0  0
   -7.5505   -1.3601   -1.9787 H   0  0  0  0  0  0  0  0  0  0  0  0
   -7.7606   -2.3050    0.5750 H   0  0  0  0  0  0  0  0  0  0  0  0
   -5.0909   -4.0925    0.9276 H   0  0  0  0  0  0  0  0  0  0  0  0
   -5.0186   -2.7661    2.1421 H   0  0  0  0  0  0  0  0  0  0  0  0
   -7.1749   -2.8758    2.4442 H   0  0  0  0  0  0  0  0  0  0  0  0
   -4.5226   -1.8111   -1.5251 H   0  0  0  0  0  0  0  0  0  0  0  0
   -3.6863   -2.2447   -0.0249 H   0  0  0  0  0  0  0  0  0  0  0  0
   -3.9739   -0.2458    1.0214 H   0  0  0  0  0  0  0  0  0  0  0  0
   -1.8190   -1.0232    0.5885 H   0  0  0  0  0  0  0  0  0  0  0  0
   -1.1417   -1.4782   -0.9927 H   0  0  0  0  0  0  0  0  0  0  0  0
    0.8043   -0.9954    0.0564 H   0  0  0  0  0  0  0  0  0  0  0  0
    0.0382    0.1726    1.1507 H   0  0  0  0  0  0  0  0  0  0  0  0
    0.1819    2.4985   -2.1283 H   0  0  0  0  0  0  0  0  0  0  0  0
   -0.6993    2.4475   -0.5177 H   0  0  0  0  0  0  0  0  0  0  0  0
   -2.0689    1.9166   -2.4678 H   0  0  0  0  0  0  0  0  0  0  0  0
   -0.9723    0.4553   -2.8019 H   0  0  0  0  0  0  0  0  0  0  0  0
    2.4799   -0.1667    0.7547 H   0  0  0  0  0  0  0  0  0  0  0  0
    6.5945    1.6652   -2.3291 H   0  0  0  0  0  0  0  0  0  0  0  0
    7.5261   -1.3034    2.1129 H   0  0  0  0  0  0  0  0  0  0  0  0
   13.4369   -1.4531    1.5467 H   0  0  0  0  0  0  0  0  0  0  0  0
   11.4844    0.9280   -0.2484 H   0  0  0  0  0  0  0  0  0  0  0  0
   12.8950   -0.2179   -0.5496 H   0  0  0  0  0  0  0  0  0  0  0  0
   11.2851   -0.5693   -1.2006 H   0  0  0  0  0  0  0  0  0  0  0  0
    1.9740    2.1693   -2.7340 H   0  0  0  0  0  0  0  0  0  0  0  0
  1  2  1  0
  2  3  1  0
  2  4  1  0
  4  5  1  0
  5  6  1  0
  6  7  1  0
  7  8  2  0
  8  9  1  0
  9 10  1  0
  8 11  1  0
 11 12  1  0
 12 13  1  0
 13 14  2  0
 13 15  1  0
 15 16  1  0
 16 17  1  0
 17 18  1  0
 18 19  1  0
 19 20  1  0
 18 21  1  0
 21 22  2  0
 22 23  1  0
 23 24  2  0
 24 25  1  0
 25 26  1  0
 26 27  2  0
 27 28  1  0
 28 29  2  0
 29 30  1  0
 29 31  1  0
 31 32  2  0
 32 33  1  0
 33 34  2  0
 34 35  1  0
 35 36  1  0
 24 37  1  0
 37 38  2  0
 12  4  1  0
 20 15  1  0
 38 21  1  0
 30 26  1  0
 35 31  1  0
  1 39  1  0
  1 40  1  0
  1 41  1  0
  2 42  1  0
  3 43  1  0
  3 44  1  0
  3 45  1  0
  5 46  1  0
  5 47  1  0
  6 48  1  0
  6 49  1  0
  7 50  1  0
  9 51  1  0
  9 52  1  0
 10 53  1  0
 11 54  1  0
 11 55  1  0
 12 56  1  0
 16 57  1  0
 16 58  1  0
 17 59  1  0
 17 60  1  0
 19 61  1  0
 19 62  1  0
 20 63  1  0
 20 64  1  0
 22 65  1  0
 25 66  1  0
 28 67  1  0
 34 68  1  0
 36 69  1  0
 36 70  1  0
 36 71  1  0
 38 72  1  0
M  END
$$$$
[H]c1nc(N([H])C(=O)N([H])c2c([H])c([H])c(S(=O)(=O)N3C([H])([H])C([H])([H])C([H])(c4c([H])c([H])c(F)c([H])c4C(F)(F)F)C([H])([H])C3([H])[H])c(Cl)c2[H])c(Br)c([H])c1[H]
     RDKit          3D

 58 61  0  0  0  0  0  0  0  0999 V2000
   -8.8260    1.0139    1.9518 F   0  0  0  0  0  0  0  0  0  0  0  0
   -7.4430    0.6257    1.9122 C   0  0  0  0  0  0  0  0  0  0  0  0
   -6.8892    1.5101    2.7598 F   0  0  0  0  0  0  0  0  0  0  0  0
   -7.5172   -0.7057    2.4185 F   0  0  0  0  0  0  0  0  0  0  0  0
   -7.0829    0.5843    0.4882 C   0  0  0  0  0  0  0  0  0  0  0  0
   -8.0340    1.1047   -0.4317 C   0  0  0  0  0  0  0  0  0  0  0  0
   -7.8838    1.0604   -1.7799 C   0  0  0  0  0  0  0  0  0  0  0  0
   -8.7651    1.5400   -2.6667 F   0  0  0  0  0  0  0  0  0  0  0  0
   -6.7004    0.4539   -2.2776 C   0  0  0  0  0  0  0  0  0  0  0  0
   -5.7719   -0.0488   -1.3793 C   0  0  0  0  0  0  0  0  0  0  0  0
   -5.9543    0.0139    0.0222 C   0  0  0  0  0  0  0  0  0  0  0  0
   -4.8738   -0.3835    0.9595 C   0  0  0  0  0  0  0  0  0  0  0  0
   -4.0826   -1.6245    0.5696 C   0  0  0  0  0  0  0  0  0  0  0  0
   -2.7341   -1.5818    1.3665 C   0  0  0  0  0  0  0  0  0  0  0  0
   -1.8428   -0.7395    0.5781 N   0  0  0  0  0  0  0  0  0  0  0  0
   -2.6589    0.2348   -0.0763 C   0  0  0  0  0  0  0  0  0  0  0  0
   -3.7418    0.6991    0.7988 C   0  0  0  0  0  0  0  0  0  0  0  0
   -0.8468   -1.6686   -0.4551 S   0  0  0  0  0  0  0  0  0  0  0  0
   -1.1082   -1.4543   -1.9071 O   0  0  0  0  0  0  0  0  0  0  0  0
   -1.0830   -3.1774   -0.1865 O   0  0  0  0  0  0  0  0  0  0  0  0
    0.8401   -1.3615   -0.1396 C   0  0  0  0  0  0  0  0  0  0  0  0
    1.2134   -0.3467    0.7428 C   0  0  0  0  0  0  0  0  0  0  0  0
    2.5208    0.0185    0.8874 C   0  0  0  0  0  0  0  0  0  0  0  0
    3.5662   -0.6108    0.1593 C   0  0  0  0  0  0  0  0  0  0  0  0
    4.8512   -0.0872    0.1806 N   0  0  0  0  0  0  0  0  0  0  0  0
    6.0665    0.4406    0.2316 C   0  0  0  0  0  0  0  0  0  0  0  0
    6.4049    1.4868    0.9278 O   0  0  0  0  0  0  0  0  0  0  0  0
    7.1908   -0.1201   -0.5211 N   0  0  0  0  0  0  0  0  0  0  0  0
    8.3752    0.7112   -0.6938 C   0  0  0  0  0  0  0  0  0  0  0  0
    8.1522    2.0498   -0.5763 N   0  0  0  0  0  0  0  0  0  0  0  0
    9.1499    2.9141   -0.9736 C   0  0  0  0  0  0  0  0  0  0  0  0
   10.3382    2.4257   -1.4688 C   0  0  0  0  0  0  0  0  0  0  0  0
   10.5841    1.0359   -1.5919 C   0  0  0  0  0  0  0  0  0  0  0  0
    9.5483    0.2000   -1.1820 C   0  0  0  0  0  0  0  0  0  0  0  0
    9.8441   -1.6998   -1.3625 Br  0  0  0  0  0  0  0  0  0  0  0  0
    3.1434   -1.6109   -0.6767 C   0  0  0  0  0  0  0  0  0  0  0  0
    1.8294   -1.9886   -0.8338 C   0  0  0  0  0  0  0  0  0  0  0  0
    1.4114   -3.3047   -1.9402 Cl  0  0  0  0  0  0  0  0  0  0  0  0
   -8.9541    1.5785   -0.0402 H   0  0  0  0  0  0  0  0  0  0  0  0
   -6.5394    0.4013   -3.3444 H   0  0  0  0  0  0  0  0  0  0  0  0
   -4.9037   -0.5239   -1.7458 H   0  0  0  0  0  0  0  0  0  0  0  0
   -5.1233   -0.3137    2.0178 H   0  0  0  0  0  0  0  0  0  0  0  0
   -3.8452   -1.7513   -0.4621 H   0  0  0  0  0  0  0  0  0  0  0  0
   -4.5703   -2.5118    1.0539 H   0  0  0  0  0  0  0  0  0  0  0  0
   -2.3704   -2.5817    1.4331 H   0  0  0  0  0  0  0  0  0  0  0  0
   -2.9259   -1.1385    2.3527 H   0  0  0  0  0  0  0  0  0  0  0  0
   -2.8890   -0.1922   -1.0763 H   0  0  0  0  0  0  0  0  0  0  0  0
   -1.9818    1.1277   -0.3798 H   0  0  0  0  0  0  0  0  0  0  0  0
   -3.4272    0.9775    1.8079 H   0  0  0  0  0  0  0  0  0  0  0  0
   -4.2507    1.6371    0.4093 H   0  0  0  0  0  0  0  0  0  0  0  0
    0.4461    0.1050    1.3240 H   0  0  0  0  0  0  0  0  0  0  0  0
    2.7813    0.8100    1.5727 H   0  0  0  0  0  0  0  0  0  0  0  0
    4.7500    0.1035    1.5456 H   0  0  0  0  0  0  0  0  0  0  0  0
    7.0787   -0.9817   -1.0756 H   0  0  0  0  0  0  0  0  0  0  0  0
    8.9215    3.9683   -0.8666 H   0  0  0  0  0  0  0  0  0  0  0  0
   11.1337    3.1181   -1.7896 H   0  0  0  0  0  0  0  0  0  0  0  0
   11.5357    0.6747   -1.9559 H   0  0  0  0  0  0  0  0  0  0  0  0
    3.9437   -2.1162   -1.2565 H   0  0  0  0  0  0  0  0  0  0  0  0
  1  2  1  0
  2  3  1  0
  2  4  1  0
  2  5  1  0
  5  6  2  0
  6  7  1  0
  7  8  1  0
  7  9  2  0
  9 10  1  0
 10 11  2  0
 11 12  1  0
 12 13  1  0
 13 14  1  0
 14 15  1  0
 15 16  1  0
 16 17  1  0
 15 18  1  0
 18 19  2  0
 18 20  2  0
 18 21  1  0
 21 22  2  0
 22 23  1  0
 23 24  2  0
 24 25  1  0
 25 26  1  0
 26 27  2  0
 26 28  1  0
 28 29  1  0
 29 30  2  0
 30 31  1  0
 31 32  2  0
 32 33  1  0
 33 34  2  0
 34 35  1  0
 24 36  1  0
 36 37  2  0
 37 38  1  0
 11  5  1  0
 17 12  1  0
 37 21  1  0
 34 29  1  0
  6 39  1  0
  9 40  1  0
 10 41  1  0
 12 42  1  0
 13 43  1  0
 13 44  1  0
 14 45  1  0
 14 46  1  0
 16 47  1  0
 16 48  1  0
 17 49  1  0
 17 50  1  0
 22 51  1  0
 23 52  1  0
 25 53  1  0
 28 54  1  0
 31 55  1  0
 32 56  1  0
 33 57  1  0
 36 58  1  0
M  END
$$$$
[H]c1c([H])c([H])c(-c2c([H])c([H])c(C([H])([H])C([H])([H])N([H])C(=O)c3c([H])c([H])c(-c4c([H])c([H])c([H])c([H])c4C([H])([H])[H])c(C([H])([H])C([H])([H])[H])c3[H])c([H])c2[H])c(OC(F)(F)F)c1[H]
     RDKit          3D

 65 68  0  0  0  0  0  0  0  0999 V2000
   -4.0392    2.2657   -1.3077 C   0  0  0  0  0  0  0  0  0  0  0  0
   -3.0369    1.9294   -0.1902 C   0  0  0  0  0  0  0  0  0  0  0  0
   -3.0426    0.4660   -0.0547 C   0  0  0  0  0  0  0  0  0  0  0  0
   -1.9555   -0.2094   -0.6513 C   0  0  0  0  0  0  0  0  0  0  0  0
   -1.8674   -1.5724   -0.6367 C   0  0  0  0  0  0  0  0  0  0  0  0
   -2.9011   -2.2475   -0.0045 C   0  0  0  0  0  0  0  0  0  0  0  0
   -3.9695   -1.6195    0.5850 C   0  0  0  0  0  0  0  0  0  0  0  0
   -4.0454   -0.2107    0.5603 C   0  0  0  0  0  0  0  0  0  0  0  0
   -5.1457    0.4563    1.2313 C   0  0  0  0  0  0  0  0  0  0  0  0
   -5.0113    1.3188    2.2983 C   0  0  0  0  0  0  0  0  0  0  0  0
   -6.0840    1.8812    2.9475 C   0  0  0  0  0  0  0  0  0  0  0  0
   -7.3706    1.5959    2.5465 C   0  0  0  0  0  0  0  0  0  0  0  0
   -7.5463    0.7228    1.4666 C   0  0  0  0  0  0  0  0  0  0  0  0
   -6.4634    0.1715    0.8297 C   0  0  0  0  0  0  0  0  0  0  0  0
   -6.6157   -0.7449   -0.3305 C   0  0  0  0  0  0  0  0  0  0  0  0
   -0.7936   -2.3338   -1.2557 C   0  0  0  0  0  0  0  0  0  0  0  0
   -0.6200   -3.5476   -0.9011 O   0  0  0  0  0  0  0  0  0  0  0  0
    0.0900   -1.8260   -2.2446 N   0  0  0  0  0  0  0  0  0  0  0  0
    1.1382   -2.6090   -2.8395 C   0  0  0  0  0  0  0  0  0  0  0  0
    2.1953   -3.0945   -1.9089 C   0  0  0  0  0  0  0  0  0  0  0  0
    2.9316   -1.9865   -1.2600 C   0  0  0  0  0  0  0  0  0  0  0  0
    4.0431   -1.4492   -1.9153 C   0  0  0  0  0  0  0  0  0  0  0  0
    4.7834   -0.4241   -1.3765 C   0  0  0  0  0  0  0  0  0  0  0  0
    4.4070    0.0936   -0.1330 C   0  0  0  0  0  0  0  0  0  0  0  0
    3.3213   -0.4057    0.5437 C   0  0  0  0  0  0  0  0  0  0  0  0
    2.6094   -1.4454   -0.0531 C   0  0  0  0  0  0  0  0  0  0  0  0
    5.1779    1.1884    0.4619 C   0  0  0  0  0  0  0  0  0  0  0  0
    4.4730    2.2678    0.9482 C   0  0  0  0  0  0  0  0  0  0  0  0
    5.1264    3.3779    1.5068 C   0  0  0  0  0  0  0  0  0  0  0  0
    6.5043    3.3747    1.5636 C   0  0  0  0  0  0  0  0  0  0  0  0
    7.2116    2.2999    1.0802 C   0  0  0  0  0  0  0  0  0  0  0  0
    6.5523    1.1984    0.5259 C   0  0  0  0  0  0  0  0  0  0  0  0
    7.2542    0.1150    0.0429 O   0  0  0  0  0  0  0  0  0  0  0  0
    7.6619   -0.9926    0.7855 C   0  0  0  0  0  0  0  0  0  0  0  0
    8.3197   -1.8749   -0.0705 F   0  0  0  0  0  0  0  0  0  0  0  0
    8.6632   -0.6018    1.6988 F   0  0  0  0  0  0  0  0  0  0  0  0
    6.6658   -1.6243    1.4719 F   0  0  0  0  0  0  0  0  0  0  0  0
   -5.0461    2.4825   -0.8444 H   0  0  0  0  0  0  0  0  0  0  0  0
   -4.0787    1.4172   -1.9905 H   0  0  0  0  0  0  0  0  0  0  0  0
   -3.6279    3.1604   -1.8242 H   0  0  0  0  0  0  0  0  0  0  0  0
   -3.3227    2.4903    0.6809 H   0  0  0  0  0  0  0  0  0  0  0  0
   -2.0315    2.3171   -0.4984 H   0  0  0  0  0  0  0  0  0  0  0  0
   -1.1741    0.3563   -1.1314 H   0  0  0  0  0  0  0  0  0  0  0  0
   -2.8319   -3.3426    0.0093 H   0  0  0  0  0  0  0  0  0  0  0  0
   -4.7648   -2.1618    1.0763 H   0  0  0  0  0  0  0  0  0  0  0  0
   -4.0001    1.5299    2.6342 H   0  0  0  0  0  0  0  0  0  0  0  0
   -5.9039    2.5412    3.7687 H   0  0  0  0  0  0  0  0  0  0  0  0
   -8.2313    2.0307    3.0484 H   0  0  0  0  0  0  0  0  0  0  0  0
   -8.5408    0.4771    1.1255 H   0  0  0  0  0  0  0  0  0  0  0  0
   -7.5475   -0.4065   -0.8734 H   0  0  0  0  0  0  0  0  0  0  0  0
   -6.8464   -1.7743   -0.0084 H   0  0  0  0  0  0  0  0  0  0  0  0
   -5.8094   -0.6568   -1.0799 H   0  0  0  0  0  0  0  0  0  0  0  0
   -0.0546   -0.8206   -2.5323 H   0  0  0  0  0  0  0  0  0  0  0  0
    0.7262   -3.4632   -3.4443 H   0  0  0  0  0  0  0  0  0  0  0  0
    1.6531   -1.9734   -3.6092 H   0  0  0  0  0  0  0  0  0  0  0  0
    2.9499   -3.6503   -2.5378 H   0  0  0  0  0  0  0  0  0  0  0  0
    1.8115   -3.8006   -1.1307 H   0  0  0  0  0  0  0  0  0  0  0  0
    4.3115   -1.8709   -2.8754 H   0  0  0  0  0  0  0  0  0  0  0  0
    5.6412    0.0220   -1.8357 H   0  0  0  0  0  0  0  0  0  0  0  0
    3.0406    0.0032    1.5040 H   0  0  0  0  0  0  0  0  0  0  0  0
    1.7556   -1.8273    0.4978 H   0  0  0  0  0  0  0  0  0  0  0  0
    3.3842    2.3034    0.9206 H   0  0  0  0  0  0  0  0  0  0  0  0
    4.5594    4.2167    1.8835 H   0  0  0  0  0  0  0  0  0  0  0  0
    7.0516    4.2153    1.9875 H   0  0  0  0  0  0  0  0  0  0  0  0
    8.3057    2.2815    1.1182 H   0  0  0  0  0  0  0  0  0  0  0  0
  1  2  1  0
  2  3  1  0
  3  4  2  0
  4  5  1  0
  5  6  2  0
  6  7  1  0
  7  8  2  0
  8  9  1  0
  9 10  2  0
 10 11  1  0
 11 12  2  0
 12 13  1  0
 13 14  2  0
 14 15  1  0
  5 16  1  0
 16 17  2  0
 16 18  1  0
 18 19  1  0
 19 20  1  0
 20 21  1  0
 21 22  2  0
 22 23  1  0
 23 24  2  0
 24 25  1  0
 25 26  2  0
 24 27  1  0
 27 28  2  0
 28 29  1  0
 29 30  2  0
 30 31  1  0
 31 32  2  0
 32 33  1  0
 33 34  1  0
 34 35  1  0
 34 36  1  0
 34 37  1  0
  8  3  1  0
 14  9  1  0
 26 21  1  0
 32 27  1  0
  1 38  1  0
  1 39  1  0
  1 40  1  0
  2 41  1  0
  2 42  1  0
  4 43  1  0
  6 44  1  0
  7 45  1  0
 10 46  1  0
 11 47  1  0
 12 48  1  0
 13 49  1  0
 15 50  1  0
 15 51  1  0
 15 52  1  0
 18 53  1  0
 19 54  1  0
 19 55  1  0
 20 56  1  0
 20 57  1  0
 22 58  1  0
 23 59  1  0
 25 60  1  0
 26 61  1  0
 28 62  1  0
 29 63  1  0
 30 64  1  0
 31 65  1  0
M  END
$$$$
[H]c1c([H])c([H])c2c(nc(N([H])C([H])(C([H])([H])[H])C([H])([H])[H])n2[H])c1[H]
     RDKit          3D

 26 27  0  0  0  0  0  0  0  0999 V2000
   -2.6480   -0.3578   -0.8829 C   0  0  0  0  0  0  0  0  0  0  0  0
   -2.4603    0.8714   -0.0437 C   0  0  0  0  0  0  0  0  0  0  0  0
   -3.7276    1.3994    0.5392 C   0  0  0  0  0  0  0  0  0  0  0  0
   -1.4750    0.5863    0.9849 N   0  0  0  0  0  0  0  0  0  0  0  0
   -0.1548    0.2092    0.6460 C   0  0  0  0  0  0  0  0  0  0  0  0
    0.8175   -0.0722    1.5209 N   0  0  0  0  0  0  0  0  0  0  0  0
    1.9564   -0.3955    0.8925 C   0  0  0  0  0  0  0  0  0  0  0  0
    3.1960   -0.7518    1.3522 C   0  0  0  0  0  0  0  0  0  0  0  0
    4.1801   -1.0298    0.4318 C   0  0  0  0  0  0  0  0  0  0  0  0
    3.9522   -0.9596   -0.9241 C   0  0  0  0  0  0  0  0  0  0  0  0
    2.6859   -0.5957   -1.3602 C   0  0  0  0  0  0  0  0  0  0  0  0
    1.6742   -0.3098   -0.4648 C   0  0  0  0  0  0  0  0  0  0  0  0
    0.3802    0.0608   -0.5707 N   0  0  0  0  0  0  0  0  0  0  0  0
   -2.5041   -0.1602   -1.9808 H   0  0  0  0  0  0  0  0  0  0  0  0
   -1.9135   -1.1468   -0.6133 H   0  0  0  0  0  0  0  0  0  0  0  0
   -3.6526   -0.8070   -0.6873 H   0  0  0  0  0  0  0  0  0  0  0  0
   -2.0339    1.6924   -0.6909 H   0  0  0  0  0  0  0  0  0  0  0  0
   -3.5024    1.9386    1.5057 H   0  0  0  0  0  0  0  0  0  0  0  0
   -4.4790    0.6321    0.7850 H   0  0  0  0  0  0  0  0  0  0  0  0
   -4.1989    2.1663   -0.1430 H   0  0  0  0  0  0  0  0  0  0  0  0
   -1.7862    0.6725    1.9799 H   0  0  0  0  0  0  0  0  0  0  0  0
    3.3828   -0.8091    2.4053 H   0  0  0  0  0  0  0  0  0  0  0  0
    5.1673   -1.3136    0.8112 H   0  0  0  0  0  0  0  0  0  0  0  0
    4.7417   -1.1828   -1.6004 H   0  0  0  0  0  0  0  0  0  0  0  0
    2.5037   -0.5397   -2.4199 H   0  0  0  0  0  0  0  0  0  0  0  0
   -0.1017    0.2023   -1.4727 H   0  0  0  0  0  0  0  0  0  0  0  0
  1  2  1  0
  2  3  1  0
  2  4  1  0
  4  5  1  0
  5  6  2  0
  6  7  1  0
  7  8  2  0
  8  9  1  0
  9 10  2  0
 10 11  1  0
 11 12  2  0
 12 13  1  0
 13  5  1  0
 12  7  1  0
  1 14  1  0
  1 15  1  0
  1 16  1  0
  2 17  1  0
  3 18  1  0
  3 19  1  0
  3 20  1  0
  4 21  1  0
  8 22  1  0
  9 23  1  0
 10 24  1  0
 11 25  1  0
 13 26  1  0
M  END
$$$$
[H]c1c([H])c(C(F)(F)F)c([H])c([H])c1N([H])C(=O)c1onc(C([H])([H])[H])c1C([H])([H])N1C([H])([H])C([H])([H])C2(C1([H])[H])C([H])([H])C([H])([H])N(C(=O)OC([H])([H])[H])C([H])([H])C2([H])[H]
     RDKit          3D

 61 64  0  0  0  0  0  0  0  0999 V2000
    0.0882   -4.5640    2.3651 C   0  0  0  0  0  0  0  0  0  0  0  0
   -1.1552   -3.7918    2.1186 C   0  0  0  0  0  0  0  0  0  0  0  0
   -2.3930   -3.9912    2.5149 N   0  0  0  0  0  0  0  0  0  0  0  0
   -3.1730   -3.0788    2.0689 O   0  0  0  0  0  0  0  0  0  0  0  0
   -2.4732   -2.2024    1.3342 C   0  0  0  0  0  0  0  0  0  0  0  0
   -3.1477   -1.0748    0.7234 C   0  0  0  0  0  0  0  0  0  0  0  0
   -2.6331   -0.2053   -0.0061 O   0  0  0  0  0  0  0  0  0  0  0  0
   -4.5580   -0.9433    0.9849 N   0  0  0  0  0  0  0  0  0  0  0  0
   -5.2885    0.1190    0.4154 C   0  0  0  0  0  0  0  0  0  0  0  0
   -5.1170    0.6372   -0.8407 C   0  0  0  0  0  0  0  0  0  0  0  0
   -5.8703    1.7215   -1.3124 C   0  0  0  0  0  0  0  0  0  0  0  0
   -6.8282    2.3248   -0.5340 C   0  0  0  0  0  0  0  0  0  0  0  0
   -7.0138    1.8086    0.7431 C   0  0  0  0  0  0  0  0  0  0  0  0
   -6.2747    0.7470    1.2033 C   0  0  0  0  0  0  0  0  0  0  0  0
   -7.6266    3.4719   -1.0342 C   0  0  0  0  0  0  0  0  0  0  0  0
   -8.4533    3.9152   -0.0471 F   0  0  0  0  0  0  0  0  0  0  0  0
   -8.3300    3.1153   -2.1763 F   0  0  0  0  0  0  0  0  0  0  0  0
   -6.7555    4.5098   -1.3684 F   0  0  0  0  0  0  0  0  0  0  0  0
   -1.2002   -2.5939    1.3263 C   0  0  0  0  0  0  0  0  0  0  0  0
    0.0166   -2.0823    0.7057 C   0  0  0  0  0  0  0  0  0  0  0  0
    0.0057   -0.9027   -0.0450 N   0  0  0  0  0  0  0  0  0  0  0  0
    0.5611   -1.0931   -1.3999 C   0  0  0  0  0  0  0  0  0  0  0  0
    2.0342   -1.1229   -1.1465 C   0  0  0  0  0  0  0  0  0  0  0  0
    2.2338   -0.0176   -0.1338 C   0  0  0  0  0  0  0  0  0  0  0  0
    0.9080    0.1239    0.5187 C   0  0  0  0  0  0  0  0  0  0  0  0
    2.6305    1.2330   -0.8699 C   0  0  0  0  0  0  0  0  0  0  0  0
    3.9096    1.8604   -0.4199 C   0  0  0  0  0  0  0  0  0  0  0  0
    4.9633    0.9511   -0.0986 N   0  0  0  0  0  0  0  0  0  0  0  0
    4.6416   -0.4167    0.2457 C   0  0  0  0  0  0  0  0  0  0  0  0
    3.2730   -0.4121    0.9022 C   0  0  0  0  0  0  0  0  0  0  0  0
    6.3325    1.3198   -0.0932 C   0  0  0  0  0  0  0  0  0  0  0  0
    7.2398    0.5131    0.1958 O   0  0  0  0  0  0  0  0  0  0  0  0
    6.7470    2.6229   -0.4149 O   0  0  0  0  0  0  0  0  0  0  0  0
    8.1404    2.9575   -0.3976 C   0  0  0  0  0  0  0  0  0  0  0  0
    0.4484   -4.9932    1.3829 H   0  0  0  0  0  0  0  0  0  0  0  0
   -0.0884   -5.3852    3.0817 H   0  0  0  0  0  0  0  0  0  0  0  0
    0.8624   -3.8506    2.7180 H   0  0  0  0  0  0  0  0  0  0  0  0
   -4.9975   -1.6534    1.5928 H   0  0  0  0  0  0  0  0  0  0  0  0
   -4.3800    0.1739   -1.5022 H   0  0  0  0  0  0  0  0  0  0  0  0
   -5.6971    2.0974   -2.3177 H   0  0  0  0  0  0  0  0  0  0  0  0
   -7.7695    2.2884    1.3467 H   0  0  0  0  0  0  0  0  0  0  0  0
   -6.4195    0.3425    2.2070 H   0  0  0  0  0  0  0  0  0  0  0  0
    0.7457   -1.8867    1.5839 H   0  0  0  0  0  0  0  0  0  0  0  0
    0.5443   -2.9395    0.1788 H   0  0  0  0  0  0  0  0  0  0  0  0
    0.3307   -0.1477   -1.9481 H   0  0  0  0  0  0  0  0  0  0  0  0
    0.1711   -1.9848   -1.8896 H   0  0  0  0  0  0  0  0  0  0  0  0
    2.3739   -2.1074   -0.7548 H   0  0  0  0  0  0  0  0  0  0  0  0
    2.5665   -0.8378   -2.0709 H   0  0  0  0  0  0  0  0  0  0  0  0
    0.9974   -0.0479    1.6211 H   0  0  0  0  0  0  0  0  0  0  0  0
    0.4342    1.0971    0.3376 H   0  0  0  0  0  0  0  0  0  0  0  0
    2.7065    1.0252   -1.9558 H   0  0  0  0  0  0  0  0  0  0  0  0
    1.8373    1.9994   -0.7633 H   0  0  0  0  0  0  0  0  0  0  0  0
    3.7495    2.6196    0.4039 H   0  0  0  0  0  0  0  0  0  0  0  0
    4.2733    2.4912   -1.2748 H   0  0  0  0  0  0  0  0  0  0  0  0
    5.3634   -0.7886    1.0151 H   0  0  0  0  0  0  0  0  0  0  0  0
    4.6799   -1.0170   -0.6818 H   0  0  0  0  0  0  0  0  0  0  0  0
    3.2745    0.3608    1.6792 H   0  0  0  0  0  0  0  0  0  0  0  0
    3.0532   -1.3979    1.3437 H   0  0  0  0  0  0  0  0  0  0  0  0
    8.2635    4.0263   -0.0820 H   0  0  0  0  0  0  0  0  0  0  0  0
    8.5417    2.7810   -1.4053 H   0  0  0  0  0  0  0  0  0  0  0  0
    8.7006    2.2761    0.2970 H   0  0  0  0  0  0  0  0  0  0  0  0
  1  2  1  0
  2  3  2  0
  3  4  1  0
  4  5  1  0
  5  6  1  0
  6  7  2  0
  6  8  1  0
  8  9  1  0
  9 10  2  0
 10 11  1  0
 11 12  2  0
 12 13  1  0
 13 14  2  0
 12 15  1  0
 15 16  1  0
 15 17  1  0
 15 18  1  0
  5 19  2  0
 19 20  1  0
 20 21  1  0
 21 22  1  0
 22 23  1  0
 23 24  1  0
 24 25  1  0
 24 26  1  0
 26 27  1  0
 27 28  1  0
 28 29  1  0
 29 30  1  0
 28 31  1  0
 31 32  2  0
 31 33  1  0
 33 34  1  0
 19  2  1  0
 25 21  1  0
 14  9  1  0
 30 24  1  0
  1 35  1  0
  1 36  1  0
  1 37  1  0
  8 38  1  0
 10 39  1  0
 11 40  1  0
 13 41  1  0
 14 42  1  0
 20 43  1  0
 20 44  1  0
 22 45  1  0
 22 46  1  0
 23 47  1  0
 23 48  1  0
 25 49  1  0
 25 50  1  0
 26 51  1  0
 26 52  1  0
 27 53  1  0
 27 54  1  0
 29 55  1  0
 29 56  1  0
 30 57  1  0
 30 58  1  0
 34 59  1  0
 34 60  1  0
 34 61  1  0
M  END
$$$$
[H]OC([H])([H])[C@@]1(N(C([H])([H])[H])C([H])([H])[H])C([H])([H])[C@]1([H])N([H])c1c([H])c(N([H])[H])nc([H])c1F
     RDKit          3D

 34 35  0  0  0  0  0  0  0  0999 V2000
   -0.8169   -0.7711    1.9217 C   0  0  0  0  0  0  0  0  0  0  0  0
   -1.4937   -0.8839    0.7034 N   0  0  0  0  0  0  0  0  0  0  0  0
   -1.4292   -2.1440    0.0776 C   0  0  0  0  0  0  0  0  0  0  0  0
   -1.7688    0.2588   -0.0633 C   0  0  2  0  0  0  0  0  0  0  0  0
   -2.6539    1.2993    0.6383 C   0  0  0  0  0  0  0  0  0  0  0  0
   -3.8510    0.6691    0.9272 O   0  0  0  0  0  0  0  0  0  0  0  0
   -2.1905    0.0824   -1.4982 C   0  0  0  0  0  0  0  0  0  0  0  0
   -0.8631    0.6785   -1.1751 C   0  0  2  0  0  0  0  0  0  0  0  0
    0.2898   -0.0614   -1.5508 N   0  0  0  0  0  0  0  0  0  0  0  0
    1.5592   -0.0072   -0.9814 C   0  0  0  0  0  0  0  0  0  0  0  0
    2.5613   -0.8869   -1.3747 C   0  0  0  0  0  0  0  0  0  0  0  0
    2.2266   -1.8190   -2.3042 F   0  0  0  0  0  0  0  0  0  0  0  0
    3.8432   -0.8351   -0.8582 C   0  0  0  0  0  0  0  0  0  0  0  0
    4.1159    0.1063    0.0576 N   0  0  0  0  0  0  0  0  0  0  0  0
    3.1761    0.9877    0.4752 C   0  0  0  0  0  0  0  0  0  0  0  0
    3.5539    1.9464    1.4435 N   0  0  0  0  0  0  0  0  0  0  0  0
    1.9002    0.9439   -0.0322 C   0  0  0  0  0  0  0  0  0  0  0  0
    0.0572   -1.4661    1.9312 H   0  0  0  0  0  0  0  0  0  0  0  0
   -0.3683    0.2455    2.0927 H   0  0  0  0  0  0  0  0  0  0  0  0
   -1.4475   -1.0704    2.7992 H   0  0  0  0  0  0  0  0  0  0  0  0
   -1.2610   -2.9094    0.8943 H   0  0  0  0  0  0  0  0  0  0  0  0
   -0.5915   -2.2904   -0.6127 H   0  0  0  0  0  0  0  0  0  0  0  0
   -2.3663   -2.4225   -0.4593 H   0  0  0  0  0  0  0  0  0  0  0  0
   -2.1527    1.6873    1.5449 H   0  0  0  0  0  0  0  0  0  0  0  0
   -2.8223    2.1084   -0.0951 H   0  0  0  0  0  0  0  0  0  0  0  0
   -4.5273    0.9564    0.2760 H   0  0  0  0  0  0  0  0  0  0  0  0
   -2.2408   -0.9291   -1.9368 H   0  0  0  0  0  0  0  0  0  0  0  0
   -2.9117    0.7819   -1.9277 H   0  0  0  0  0  0  0  0  0  0  0  0
   -0.7676    1.8087   -1.2001 H   0  0  0  0  0  0  0  0  0  0  0  0
    0.1632   -0.7382   -2.3723 H   0  0  0  0  0  0  0  0  0  0  0  0
    4.5727   -1.5518   -1.2102 H   0  0  0  0  0  0  0  0  0  0  0  0
    3.7978    2.9048    1.1295 H   0  0  0  0  0  0  0  0  0  0  0  0
    3.5768    1.6659    2.4395 H   0  0  0  0  0  0  0  0  0  0  0  0
    1.1301    1.6553    0.3008 H   0  0  0  0  0  0  0  0  0  0  0  0
  1  2  1  0
  2  3  1  0
  4  2  1  1
  4  5  1  0
  5  6  1  0
  4  7  1  0
  7  8  1  0
  8  9  1  0
  9 10  1  0
 10 11  2  0
 11 12  1  0
 11 13  1  0
 13 14  2  0
 14 15  1  0
 15 16  1  0
 15 17  2  0
  8  4  1  0
 17 10  1  0
  1 18  1  0
  1 19  1  0
  1 20  1  0
  3 21  1  0
  3 22  1  0
  3 23  1  0
  5 24  1  0
  5 25  1  0
  6 26  1  0
  7 27  1  0
  7 28  1  0
  8 29  1  1
  9 30  1  0
 13 31  1  0
 16 32  1  0
 16 33  1  0
 17 34  1  0
M  END
$$$$
[H]OC([H])([H])C([H])([H])N([H])C(=O)O[C@]1([H])C([H])([H])OC([H])([H])C([H])([H])[C@]1([H])Oc1c([H])c([H])c(S(=O)(=O)N([H])[H])c([H])c1[H]
     RDKit          3D

 44 45  0  0  0  0  0  0  0  0999 V2000
    6.0530   -1.2567    0.3184 O   0  0  0  0  0  0  0  0  0  0  0  0
    5.7631   -1.5973    1.6039 C   0  0  0  0  0  0  0  0  0  0  0  0
    4.3749   -2.0838    1.8536 C   0  0  0  0  0  0  0  0  0  0  0  0
    3.2979   -1.2211    1.5688 N   0  0  0  0  0  0  0  0  0  0  0  0
    2.9220   -0.6980    0.3287 C   0  0  0  0  0  0  0  0  0  0  0  0
    3.5459   -0.9728   -0.7250 O   0  0  0  0  0  0  0  0  0  0  0  0
    1.8066    0.1716    0.2277 O   0  0  0  0  0  0  0  0  0  0  0  0
    1.4715    0.6643   -1.0161 C   0  0  2  0  0  0  0  0  0  0  0  0
    1.5398    2.1747   -1.1075 C   0  0  0  0  0  0  0  0  0  0  0  0
    0.8681    2.6149   -2.2117 O   0  0  0  0  0  0  0  0  0  0  0  0
    0.8476    1.7460   -3.2753 C   0  0  0  0  0  0  0  0  0  0  0  0
    0.1126    0.4635   -2.9890 C   0  0  0  0  0  0  0  0  0  0  0  0
    0.0621    0.2860   -1.4617 C   0  0  2  0  0  0  0  0  0  0  0  0
   -0.9129    1.0637   -0.8765 O   0  0  0  0  0  0  0  0  0  0  0  0
   -2.0095    0.6641   -0.1165 C   0  0  0  0  0  0  0  0  0  0  0  0
   -2.2849   -0.6395    0.1706 C   0  0  0  0  0  0  0  0  0  0  0  0
   -3.3778   -0.9774    0.9233 C   0  0  0  0  0  0  0  0  0  0  0  0
   -4.2487   -0.0183    1.4249 C   0  0  0  0  0  0  0  0  0  0  0  0
   -3.9420    1.2902    1.1166 C   0  0  0  0  0  0  0  0  0  0  0  0
   -2.8539    1.6326    0.3668 C   0  0  0  0  0  0  0  0  0  0  0  0
   -5.6521   -0.4103    2.3880 S   0  0  0  0  0  0  0  0  0  0  0  0
   -7.0282   -0.6527    1.3774 N   0  0  0  0  0  0  0  0  0  0  0  0
   -5.9675    0.7065    3.3542 O   0  0  0  0  0  0  0  0  0  0  0  0
   -5.4560   -1.6713    3.1830 O   0  0  0  0  0  0  0  0  0  0  0  0
    6.3982   -0.3276    0.2526 H   0  0  0  0  0  0  0  0  0  0  0  0
    6.0541   -0.7699    2.2982 H   0  0  0  0  0  0  0  0  0  0  0  0
    6.4606   -2.4388    1.8879 H   0  0  0  0  0  0  0  0  0  0  0  0
    4.3319   -2.5362    2.8765 H   0  0  0  0  0  0  0  0  0  0  0  0
    4.2522   -2.9924    1.1797 H   0  0  0  0  0  0  0  0  0  0  0  0
    2.7003   -0.9391    2.4247 H   0  0  0  0  0  0  0  0  0  0  0  0
    2.1751    0.2723   -1.7736 H   0  0  0  0  0  0  0  0  0  0  0  0
    1.0885    2.5692   -0.1655 H   0  0  0  0  0  0  0  0  0  0  0  0
    2.6048    2.4500   -1.0772 H   0  0  0  0  0  0  0  0  0  0  0  0
    1.8702    1.6013   -3.6488 H   0  0  0  0  0  0  0  0  0  0  0  0
    0.2864    2.2538   -4.1018 H   0  0  0  0  0  0  0  0  0  0  0  0
   -0.8657    0.3852   -3.4487 H   0  0  0  0  0  0  0  0  0  0  0  0
    0.7448   -0.3722   -3.3536 H   0  0  0  0  0  0  0  0  0  0  0  0
   -0.1297   -0.7824   -1.2491 H   0  0  0  0  0  0  0  0  0  0  0  0
   -1.6656   -1.4442   -0.1763 H   0  0  0  0  0  0  0  0  0  0  0  0
   -3.6338   -2.0147    1.1762 H   0  0  0  0  0  0  0  0  0  0  0  0
   -4.6100    2.0797    1.4970 H   0  0  0  0  0  0  0  0  0  0  0  0
   -2.6856    2.6905    0.1704 H   0  0  0  0  0  0  0  0  0  0  0  0
   -6.7923   -1.2049    0.5161 H   0  0  0  0  0  0  0  0  0  0  0  0
   -7.5160    0.2416    1.1557 H   0  0  0  0  0  0  0  0  0  0  0  0
  1  2  1  0
  2  3  1  0
  3  4  1  0
  4  5  1  0
  5  6  2  0
  5  7  1  0
  7  8  1  0
  8  9  1  0
  9 10  1  0
 10 11  1  0
 11 12  1  0
 12 13  1  0
 13 14  1  0
 14 15  1  0
 15 16  2  0
 16 17  1  0
 17 18  2  0
 18 19  1  0
 19 20  2  0
 18 21  1  0
 21 22  1  0
 21 23  2  0
 21 24  2  0
 13  8  1  0
 20 15  1  0
  1 25  1  0
  2 26  1  0
  2 27  1  0
  3 28  1  0
  3 29  1  0
  4 30  1  0
  8 31  1  6
  9 32  1  0
  9 33  1  0
 11 34  1  0
 11 35  1  0
 12 36  1  0
 12 37  1  0
 13 38  1  6
 16 39  1  0
 17 40  1  0
 19 41  1  0
 20 42  1  0
 22 43  1  0
 22 44  1  0
M  END
$$$$
[H]c1nc(N2C([H])([H])C([H])([H])N(C([H])([H])C([H])([H])C(=O)N([H])C3([H])C([H])([H])C([H])([H])N(C(=O)C([H])([H])C([H])([H])[H])C([H])([H])C3([H])[H])C([H])([H])C2([H])[H])c2c([H])c([H])n([H])c2n1
     RDKit          3D

 61 64  0  0  0  0  0  0  0  0999 V2000
   -8.2597   -1.8369    1.6468 C   0  0  0  0  0  0  0  0  0  0  0  0
   -8.1012   -0.6830    0.6837 C   0  0  0  0  0  0  0  0  0  0  0  0
   -7.0545   -1.0552   -0.3058 C   0  0  0  0  0  0  0  0  0  0  0  0
   -7.3138   -1.9438   -1.1825 O   0  0  0  0  0  0  0  0  0  0  0  0
   -5.7678   -0.4637   -0.3247 N   0  0  0  0  0  0  0  0  0  0  0  0
   -4.8233   -0.8735   -1.3315 C   0  0  0  0  0  0  0  0  0  0  0  0
   -3.9198    0.3511   -1.5629 C   0  0  0  0  0  0  0  0  0  0  0  0
   -3.1268    0.4685   -0.2479 C   0  0  0  0  0  0  0  0  0  0  0  0
   -4.0636    0.9441    0.8003 C   0  0  0  0  0  0  0  0  0  0  0  0
   -5.4819    0.5259    0.6841 C   0  0  0  0  0  0  0  0  0  0  0  0
   -2.0649    1.4201   -0.3883 N   0  0  0  0  0  0  0  0  0  0  0  0
   -0.6892    0.9528   -0.4830 C   0  0  0  0  0  0  0  0  0  0  0  0
   -0.5612   -0.2777   -0.4370 O   0  0  0  0  0  0  0  0  0  0  0  0
    0.3398    1.9846   -0.6184 C   0  0  0  0  0  0  0  0  0  0  0  0
    1.7639    1.5952   -0.6254 C   0  0  0  0  0  0  0  0  0  0  0  0
    2.2917    1.0269    0.5040 N   0  0  0  0  0  0  0  0  0  0  0  0
    2.0957   -0.2129    1.0443 C   0  0  0  0  0  0  0  0  0  0  0  0
    3.3493   -0.6827    1.8170 C   0  0  0  0  0  0  0  0  0  0  0  0
    4.5047   -0.1331    1.0855 N   0  0  0  0  0  0  0  0  0  0  0  0
    4.6151    1.2902    1.1422 C   0  0  0  0  0  0  0  0  0  0  0  0
    3.1822    1.8783    1.2258 C   0  0  0  0  0  0  0  0  0  0  0  0
    5.3238   -1.0303    0.3946 C   0  0  0  0  0  0  0  0  0  0  0  0
    4.8485   -2.2565    0.0181 N   0  0  0  0  0  0  0  0  0  0  0  0
    5.5417   -3.1556   -0.6827 C   0  0  0  0  0  0  0  0  0  0  0  0
    6.7906   -2.8375   -1.0441 N   0  0  0  0  0  0  0  0  0  0  0  0
    7.3154   -1.6246   -0.6923 C   0  0  0  0  0  0  0  0  0  0  0  0
    8.5350   -1.0984   -0.9300 N   0  0  0  0  0  0  0  0  0  0  0  0
    8.6349    0.1178   -0.3936 C   0  0  0  0  0  0  0  0  0  0  0  0
    7.4329    0.3904    0.2155 C   0  0  0  0  0  0  0  0  0  0  0  0
    6.6104   -0.6888    0.0309 C   0  0  0  0  0  0  0  0  0  0  0  0
   -7.3608   -1.9635    2.2907 H   0  0  0  0  0  0  0  0  0  0  0  0
   -9.0994   -1.6486    2.3516 H   0  0  0  0  0  0  0  0  0  0  0  0
   -8.4474   -2.7944    1.0802 H   0  0  0  0  0  0  0  0  0  0  0  0
   -9.0490   -0.6015    0.1142 H   0  0  0  0  0  0  0  0  0  0  0  0
   -7.8700    0.2301    1.2364 H   0  0  0  0  0  0  0  0  0  0  0  0
   -4.1296   -1.6752   -0.9688 H   0  0  0  0  0  0  0  0  0  0  0  0
   -5.3106   -1.1409   -2.2744 H   0  0  0  0  0  0  0  0  0  0  0  0
   -3.2660    0.2146   -2.4348 H   0  0  0  0  0  0  0  0  0  0  0  0
   -4.5821    1.2275   -1.5966 H   0  0  0  0  0  0  0  0  0  0  0  0
   -2.7398   -0.5608   -0.0822 H   0  0  0  0  0  0  0  0  0  0  0  0
   -3.6782    0.6371    1.8169 H   0  0  0  0  0  0  0  0  0  0  0  0
   -3.9785    2.0739    0.8234 H   0  0  0  0  0  0  0  0  0  0  0  0
   -6.0913    1.4325    0.3945 H   0  0  0  0  0  0  0  0  0  0  0  0
   -5.8857    0.2304    1.6933 H   0  0  0  0  0  0  0  0  0  0  0  0
   -2.3164    2.4165   -0.4189 H   0  0  0  0  0  0  0  0  0  0  0  0
    0.1519    2.6899    0.2719 H   0  0  0  0  0  0  0  0  0  0  0  0
    0.1022    2.6377   -1.5224 H   0  0  0  0  0  0  0  0  0  0  0  0
    1.8864    0.8833   -1.5342 H   0  0  0  0  0  0  0  0  0  0  0  0
    2.3476    2.5382   -0.9349 H   0  0  0  0  0  0  0  0  0  0  0  0
    1.2111   -0.3310    1.7272 H   0  0  0  0  0  0  0  0  0  0  0  0
    2.0487   -0.9905    0.2117 H   0  0  0  0  0  0  0  0  0  0  0  0
    3.3869   -1.7799    1.8635 H   0  0  0  0  0  0  0  0  0  0  0  0
    3.2668   -0.2424    2.8327 H   0  0  0  0  0  0  0  0  0  0  0  0
    5.0004    1.7173    0.1996 H   0  0  0  0  0  0  0  0  0  0  0  0
    5.2210    1.6482    1.9798 H   0  0  0  0  0  0  0  0  0  0  0  0
    3.1806    2.8833    0.8190 H   0  0  0  0  0  0  0  0  0  0  0  0
    2.9302    1.8259    2.3007 H   0  0  0  0  0  0  0  0  0  0  0  0
    5.0980   -4.1290   -0.9566 H   0  0  0  0  0  0  0  0  0  0  0  0
    9.3054   -1.5934   -1.4722 H   0  0  0  0  0  0  0  0  0  0  0  0
    9.5220    0.7746   -0.4352 H   0  0  0  0  0  0  0  0  0  0  0  0
    7.1974    1.2984    0.7523 H   0  0  0  0  0  0  0  0  0  0  0  0
  1  2  1  0
  2  3  1  0
  3  4  2  0
  3  5  1  0
  5  6  1  0
  6  7  1  0
  7  8  1  0
  8  9  1  0
  9 10  1  0
  8 11  1  0
 11 12  1  0
 12 13  2  0
 12 14  1  0
 14 15  1  0
 15 16  1  0
 16 17  1  0
 17 18  1  0
 18 19  1  0
 19 20  1  0
 20 21  1  0
 19 22  1  0
 22 23  2  0
 23 24  1  0
 24 25  2  0
 25 26  1  0
 26 27  1  0
 27 28  1  0
 28 29  2  0
 29 30  1  0
 10  5  1  0
 21 16  1  0
 30 22  1  0
 30 26  2  0
  1 31  1  0
  1 32  1  0
  1 33  1  0
  2 34  1  0
  2 35  1  0
  6 36  1  0
  6 37  1  0
  7 38  1  0
  7 39  1  0
  8 40  1  0
  9 41  1  0
  9 42  1  0
 10 43  1  0
 10 44  1  0
 11 45  1  0
 14 46  1  0
 14 47  1  0
 15 48  1  0
 15 49  1  0
 17 50  1  0
 17 51  1  0
 18 52  1  0
 18 53  1  0
 20 54  1  0
 20 55  1  0
 21 56  1  0
 21 57  1  0
 24 58  1  0
 27 59  1  0
 28 60  1  0
 29 61  1  0
M  END
$$$$
[H]N=C([H])N1[C@@]2([H])C([H])([H])N(C(=O)c3nc([H])c([H])c([H])c3-c3c([H])nn(C([H])([H])[H])c3[H])C([H])([H])[C@@]1([H])C([H])([H])C2([H])[H]
     RDKit          2D

 44 47  0  0  0  0  0  0  0  0999 V2000
   -9.7111    4.1883    0.0000 C   0  0  0  0  0  0  0  0  0  0  0  0
   -8.2439    3.8764    0.0000 N   0  0  0  0  0  0  0  0  0  0  0  0
   -7.1292    4.8801    0.0000 C   0  0  0  0  0  0  0  0  0  0  0  0
   -5.8301    4.1301    0.0000 C   0  0  0  0  0  0  0  0  0  0  0  0
   -6.1420    2.6629    0.0000 C   0  0  0  0  0  0  0  0  0  0  0  0
   -7.6338    2.5061    0.0000 N   0  0  0  0  0  0  0  0  0  0  0  0
   -4.4598    4.7402    0.0000 C   0  0  0  0  0  0  0  0  0  0  0  0
   -4.3030    6.2320    0.0000 C   0  0  0  0  0  0  0  0  0  0  0  0
   -2.9327    6.8421    0.0000 C   0  0  0  0  0  0  0  0  0  0  0  0
   -1.7192    5.9604    0.0000 C   0  0  0  0  0  0  0  0  0  0  0  0
   -1.8760    4.4687    0.0000 N   0  0  0  0  0  0  0  0  0  0  0  0
   -3.2463    3.8586    0.0000 C   0  0  0  0  0  0  0  0  0  0  0  0
   -3.4031    2.3668    0.0000 C   0  0  0  0  0  0  0  0  0  0  0  0
   -4.7734    1.7567    0.0000 O   0  0  0  0  0  0  0  0  0  0  0  0
   -2.1895    1.4851    0.0000 N   0  0  0  0  0  0  0  0  0  0  0  0
   -2.3463   -0.0067    0.0000 C   0  0  0  0  0  0  0  0  0  0  0  0
   -1.1328   -0.8884    0.0000 C   0  0  0  0  0  0  0  0  0  0  0  0
    0.2938   -1.3519    0.0000 C   0  0  0  0  0  0  0  0  0  0  0  0
    1.1755   -0.1384    0.0000 C   0  0  0  0  0  0  0  0  0  0  0  0
    0.2938    1.0752    0.0000 C   0  0  0  0  0  0  0  0  0  0  0  0
   -0.8192    2.0952    0.0000 C   0  0  0  0  0  0  0  0  0  0  0  0
   -1.1328    0.6116    0.0000 N   0  0  0  0  0  0  0  0  0  0  0  0
   -2.3463    1.4933    0.0000 C   0  0  0  0  0  0  0  0  0  0  0  0
   -3.7167    0.8832    0.0000 N   0  0  0  0  0  0  0  0  0  0  0  0
  -11.1783    4.5002    0.0000 H   0  0  0  0  0  0  0  0  0  0  0  0
   -9.3992    5.6555    0.0000 H   0  0  0  0  0  0  0  0  0  0  0  0
  -10.0230    2.7211    0.0000 H   0  0  0  0  0  0  0  0  0  0  0  0
   -7.2860    6.3719    0.0000 H   0  0  0  0  0  0  0  0  0  0  0  0
   -5.4379    1.3385    0.0000 H   0  0  0  0  0  0  0  0  0  0  0  0
   -5.5165    7.1137    0.0000 H   0  0  0  0  0  0  0  0  0  0  0  0
   -2.7759    8.3339    0.0000 H   0  0  0  0  0  0  0  0  0  0  0  0
   -0.3488    6.5706    0.0000 H   0  0  0  0  0  0  0  0  0  0  0  0
   -3.1633   -1.2647    0.0000 H   0  0  0  0  0  0  0  0  0  0  0  0
   -3.8454    0.0456    0.0000 H   0  0  0  0  0  0  0  0  0  0  0  0
   -2.2298   -1.9114    0.0000 H   0  0  0  0  0  0  0  0  0  0  0  0
   -0.3163   -2.7222    0.0000 H   0  0  0  0  0  0  0  0  0  0  0  0
    1.5928   -2.1019    0.0000 H   0  0  0  0  0  0  0  0  0  0  0  0
    2.2902   -1.1421    0.0000 H   0  0  0  0  0  0  0  0  0  0  0  0
    2.2902    0.8653    0.0000 H   0  0  0  0  0  0  0  0  0  0  0  0
    0.9277    2.4346    0.0000 H   0  0  0  0  0  0  0  0  0  0  0  0
   -1.5002    3.4317    0.0000 H   0  0  0  0  0  0  0  0  0  0  0  0
    0.1247    3.2609    0.0000 H   0  0  0  0  0  0  0  0  0  0  0  0
   -2.3726    2.9931    0.0000 H   0  0  0  0  0  0  0  0  0  0  0  0
   -5.1075    1.4450    0.0000 H   0  0  0  0  0  0  0  0  0  0  0  0
  1  2  1  0
  2  3  1  0
  3  4  2  0
  4  5  1  0
  5  6  2  0
  4  7  1  0
  7  8  2  0
  8  9  1  0
  9 10  2  0
 10 11  1  0
 11 12  2  0
 12 13  1  0
 13 14  2  0
 13 15  1  0
 15 16  1  0
 16 17  1  0
 17 18  1  0
 18 19  1  0
 19 20  1  0
 20 21  1  0
 20 22  1  0
 22 23  1  0
 23 24  2  3
  6  2  1  0
 12  7  1  0
 21 15  1  0
 22 17  1  0
  1 25  1  0
  1 26  1  0
  1 27  1  0
  3 28  1  0
  5 29  1  0
  8 30  1  0
  9 31  1  0
 10 32  1  0
 16 33  1  0
 16 34  1  0
 17 35  1  1
 18 36  1  0
 18 37  1  0
 19 38  1  0
 19 39  1  0
 20 40  1  6
 21 41  1  0
 21 42  1  0
 23 43  1  0
 24 44  1  0
M  END
$$$$
[H]c1c([H])c(Cl)c([H])c(C#Cc2c([H])c([H])c(C([H])([H])[C@@]([H])(C(=O)N([H])[H])N([H])C(=O)N([H])c3c([H])c([H])c(C([H])([H])C([H])([H])C([H])([H])C([H])([H])[H])c([H])c3[H])c([H])c2[H])c1[H]
     RDKit          3D

 62 64  0  0  0  0  0  0  0  0999 V2000
  -10.9736    1.4070    0.1483 C   0  0  0  0  0  0  0  0  0  0  0  0
   -9.8632    2.4302    0.1311 C   0  0  0  0  0  0  0  0  0  0  0  0
   -8.5277    1.8052    0.4228 C   0  0  0  0  0  0  0  0  0  0  0  0
   -8.2051    0.7418   -0.6227 C   0  0  0  0  0  0  0  0  0  0  0  0
   -6.8810    0.1601   -0.2869 C   0  0  0  0  0  0  0  0  0  0  0  0
   -6.7967   -0.9380    0.5451 C   0  0  0  0  0  0  0  0  0  0  0  0
   -5.5779   -1.4523    0.8377 C   0  0  0  0  0  0  0  0  0  0  0  0
   -4.3948   -0.8930    0.3131 C   0  0  0  0  0  0  0  0  0  0  0  0
   -3.1483   -1.4512    0.6507 N   0  0  0  0  0  0  0  0  0  0  0  0
   -1.8835   -1.1753    0.1208 C   0  0  0  0  0  0  0  0  0  0  0  0
   -1.6557   -0.3498   -0.7875 O   0  0  0  0  0  0  0  0  0  0  0  0
   -0.7094   -1.8567    0.6113 N   0  0  0  0  0  0  0  0  0  0  0  0
    0.6265   -1.5840    0.0709 C   0  0  1  0  0  0  0  0  0  0  0  0
    1.4589   -1.0449    1.1826 C   0  0  0  0  0  0  0  0  0  0  0  0
    2.8387   -0.6970    0.8941 C   0  0  0  0  0  0  0  0  0  0  0  0
    3.1439    0.5462    0.3801 C   0  0  0  0  0  0  0  0  0  0  0  0
    4.4657    0.8843    0.1357 C   0  0  0  0  0  0  0  0  0  0  0  0
    5.5121    0.0376    0.3800 C   0  0  0  0  0  0  0  0  0  0  0  0
    5.2045   -1.2120    0.8967 C   0  0  0  0  0  0  0  0  0  0  0  0
    3.8922   -1.5561    1.1426 C   0  0  0  0  0  0  0  0  0  0  0  0
    6.8871    0.3701    0.1335 C   0  0  0  0  0  0  0  0  0  0  0  0
    8.0470    0.6482   -0.0534 C   0  0  0  0  0  0  0  0  0  0  0  0
    9.4249    0.9853   -0.2813 C   0  0  0  0  0  0  0  0  0  0  0  0
    9.8586    2.3052   -0.3085 C   0  0  0  0  0  0  0  0  0  0  0  0
   11.1767    2.6342   -0.5263 C   0  0  0  0  0  0  0  0  0  0  0  0
   12.1286    1.6628   -0.7279 C   0  0  0  0  0  0  0  0  0  0  0  0
   11.7193    0.3460   -0.7049 C   0  0  0  0  0  0  0  0  0  0  0  0
   12.9351   -0.8886   -0.9624 Cl  0  0  0  0  0  0  0  0  0  0  0  0
   10.3954    0.0259   -0.4858 C   0  0  0  0  0  0  0  0  0  0  0  0
    1.1517   -2.7586   -0.6344 C   0  0  0  0  0  0  0  0  0  0  0  0
    2.3821   -2.7377   -1.3180 N   0  0  0  0  0  0  0  0  0  0  0  0
    0.4818   -3.8207   -0.6332 O   0  0  0  0  0  0  0  0  0  0  0  0
   -4.5177    0.1939   -0.5069 C   0  0  0  0  0  0  0  0  0  0  0  0
   -5.7623    0.7347   -0.8178 C   0  0  0  0  0  0  0  0  0  0  0  0
  -11.1609    0.9788   -0.8701 H   0  0  0  0  0  0  0  0  0  0  0  0
  -10.7634    0.5675    0.8536 H   0  0  0  0  0  0  0  0  0  0  0  0
  -11.9322    1.8612    0.4985 H   0  0  0  0  0  0  0  0  0  0  0  0
  -10.0775    3.1816    0.9137 H   0  0  0  0  0  0  0  0  0  0  0  0
   -9.8395    2.9392   -0.8582 H   0  0  0  0  0  0  0  0  0  0  0  0
   -7.7601    2.5995    0.3943 H   0  0  0  0  0  0  0  0  0  0  0  0
   -8.5721    1.2783    1.3990 H   0  0  0  0  0  0  0  0  0  0  0  0
   -9.0198   -0.0092   -0.6260 H   0  0  0  0  0  0  0  0  0  0  0  0
   -8.1641    1.2823   -1.5993 H   0  0  0  0  0  0  0  0  0  0  0  0
   -7.6960   -1.4023    0.9736 H   0  0  0  0  0  0  0  0  0  0  0  0
   -5.4736   -2.3264    1.4961 H   0  0  0  0  0  0  0  0  0  0  0  0
   -3.1773   -2.1918    1.4282 H   0  0  0  0  0  0  0  0  0  0  0  0
   -0.8328   -2.5490    1.3604 H   0  0  0  0  0  0  0  0  0  0  0  0
    0.4649   -0.7987   -0.7270 H   0  0  0  0  0  0  0  0  0  0  0  0
    0.8767   -0.1726    1.6193 H   0  0  0  0  0  0  0  0  0  0  0  0
    1.4782   -1.7652    2.0586 H   0  0  0  0  0  0  0  0  0  0  0  0
    2.3146    1.2110    0.1888 H   0  0  0  0  0  0  0  0  0  0  0  0
    4.6765    1.8703   -0.2695 H   0  0  0  0  0  0  0  0  0  0  0  0
    6.0309   -1.8854    1.0916 H   0  0  0  0  0  0  0  0  0  0  0  0
    3.7066   -2.5579    1.5515 H   0  0  0  0  0  0  0  0  0  0  0  0
    9.0882    3.0666   -0.1464 H   0  0  0  0  0  0  0  0  0  0  0  0
   11.4913    3.6642   -0.5435 H   0  0  0  0  0  0  0  0  0  0  0  0
   13.1855    1.9199   -0.9028 H   0  0  0  0  0  0  0  0  0  0  0  0
   10.0651   -1.0231   -0.4666 H   0  0  0  0  0  0  0  0  0  0  0  0
    3.0343   -3.5420   -1.1465 H   0  0  0  0  0  0  0  0  0  0  0  0
    2.6995   -1.9996   -1.9743 H   0  0  0  0  0  0  0  0  0  0  0  0
   -3.6738    0.6960   -0.9516 H   0  0  0  0  0  0  0  0  0  0  0  0
   -5.8029    1.6038   -1.4784 H   0  0  0  0  0  0  0  0  0  0  0  0
  1  2  1  0
  2  3  1  0
  3  4  1  0
  4  5  1  0
  5  6  2  0
  6  7  1  0
  7  8  2  0
  8  9  1  0
  9 10  1  0
 10 11  2  0
 10 12  1  0
 12 13  1  0
 13 14  1  0
 14 15  1  0
 15 16  2  0
 16 17  1  0
 17 18  2  0
 18 19  1  0
 19 20  2  0
 18 21  1  0
 21 22  3  0
 22 23  1  0
 23 24  2  0
 24 25  1  0
 25 26  2  0
 26 27  1  0
 27 28  1  0
 27 29  2  0
 13 30  1  0
 30 31  1  0
 30 32  2  0
  8 33  1  0
 33 34  2  0
 34  5  1  0
 20 15  1  0
 29 23  1  0
  1 35  1  0
  1 36  1  0
  1 37  1  0
  2 38  1  0
  2 39  1  0
  3 40  1  0
  3 41  1  0
  4 42  1  0
  4 43  1  0
  6 44  1  0
  7 45  1  0
  9 46  1  0
 12 47  1  0
 13 48  1  6
 14 49  1  0
 14 50  1  0
 16 51  1  0
 17 52  1  0
 19 53  1  0
 20 54  1  0
 24 55  1  0
 25 56  1  0
 26 57  1  0
 29 58  1  0
 31 59  1  0
 31 60  1  0
 33 61  1  0
 34 62  1  0
M  END
$$$$
[H]c1c([H])c([H])c(C([H])([H])N2C([H])([H])C([H])([H])N(C(=O)Oc3c([H])c([H])c(OC([H])([H])[H])c(Br)c3[H])C([H])([H])C2([H])[H])c(OC(F)(F)F)c1[H]
     RDKit          3D

 50 52  0  0  0  0  0  0  0  0999 V2000
    9.1594   -0.1676   -0.5152 C   0  0  0  0  0  0  0  0  0  0  0  0
    8.3589    0.5294    0.4193 O   0  0  0  0  0  0  0  0  0  0  0  0
    6.9830    0.6073    0.2355 C   0  0  0  0  0  0  0  0  0  0  0  0
    6.3231    0.0344   -0.8269 C   0  0  0  0  0  0  0  0  0  0  0  0
    4.9332    0.1645   -0.9299 C   0  0  0  0  0  0  0  0  0  0  0  0
    4.2271    0.8606    0.0235 C   0  0  0  0  0  0  0  0  0  0  0  0
    2.8508    0.9751   -0.0999 O   0  0  0  0  0  0  0  0  0  0  0  0
    1.9856    0.0836    0.5329 C   0  0  0  0  0  0  0  0  0  0  0  0
    2.5236   -0.8281    1.2216 O   0  0  0  0  0  0  0  0  0  0  0  0
    0.5889    0.2117    0.3980 N   0  0  0  0  0  0  0  0  0  0  0  0
   -0.2698   -0.7311    1.0773 C   0  0  0  0  0  0  0  0  0  0  0  0
   -1.6699   -0.1771    1.1894 C   0  0  0  0  0  0  0  0  0  0  0  0
   -2.1866    0.2693   -0.0457 N   0  0  0  0  0  0  0  0  0  0  0  0
   -3.5491    0.5988   -0.1400 C   0  0  0  0  0  0  0  0  0  0  0  0
   -4.4105   -0.6091   -0.1727 C   0  0  0  0  0  0  0  0  0  0  0  0
   -3.8364   -1.8759   -0.2431 C   0  0  0  0  0  0  0  0  0  0  0  0
   -4.5860   -3.0132   -0.2772 C   0  0  0  0  0  0  0  0  0  0  0  0
   -5.9525   -2.8794   -0.2411 C   0  0  0  0  0  0  0  0  0  0  0  0
   -6.5557   -1.6579   -0.1745 C   0  0  0  0  0  0  0  0  0  0  0  0
   -5.7917   -0.4856   -0.1396 C   0  0  0  0  0  0  0  0  0  0  0  0
   -6.4382    0.7247   -0.0803 O   0  0  0  0  0  0  0  0  0  0  0  0
   -6.9684    1.3782   -1.1904 C   0  0  0  0  0  0  0  0  0  0  0  0
   -7.9563    0.5815   -1.8068 F   0  0  0  0  0  0  0  0  0  0  0  0
   -7.6230    2.5598   -0.7847 F   0  0  0  0  0  0  0  0  0  0  0  0
   -6.1292    1.7340   -2.1927 F   0  0  0  0  0  0  0  0  0  0  0  0
   -1.2757    0.8358   -0.9613 C   0  0  0  0  0  0  0  0  0  0  0  0
    0.0404    1.2671   -0.4062 C   0  0  0  0  0  0  0  0  0  0  0  0
    4.8989    1.4288    1.0808 C   0  0  0  0  0  0  0  0  0  0  0  0
    6.2834    1.3064    1.1953 C   0  0  0  0  0  0  0  0  0  0  0  0
    7.1101    2.1282    2.6965 Br  0  0  0  0  0  0  0  0  0  0  0  0
    8.7092   -1.0864   -0.9002 H   0  0  0  0  0  0  0  0  0  0  0  0
    9.3709    0.4983   -1.3902 H   0  0  0  0  0  0  0  0  0  0  0  0
   10.1555   -0.4190   -0.0687 H   0  0  0  0  0  0  0  0  0  0  0  0
    6.8789   -0.5112   -1.5749 H   0  0  0  0  0  0  0  0  0  0  0  0
    4.4026   -0.2696   -1.7425 H   0  0  0  0  0  0  0  0  0  0  0  0
    0.1182   -0.8082    2.1126 H   0  0  0  0  0  0  0  0  0  0  0  0
   -0.2294   -1.7559    0.6601 H   0  0  0  0  0  0  0  0  0  0  0  0
   -2.2992   -0.9220    1.6891 H   0  0  0  0  0  0  0  0  0  0  0  0
   -1.5881    0.6597    1.9555 H   0  0  0  0  0  0  0  0  0  0  0  0
   -3.8668    1.2009    0.7685 H   0  0  0  0  0  0  0  0  0  0  0  0
   -3.7568    1.3165   -0.9785 H   0  0  0  0  0  0  0  0  0  0  0  0
   -2.7400   -1.9932   -0.3064 H   0  0  0  0  0  0  0  0  0  0  0  0
   -4.0864   -3.9687   -0.3307 H   0  0  0  0  0  0  0  0  0  0  0  0
   -6.5381   -3.7884   -0.2675 H   0  0  0  0  0  0  0  0  0  0  0  0
   -7.6394   -1.5338   -0.1459 H   0  0  0  0  0  0  0  0  0  0  0  0
   -1.1482    0.1280   -1.8323 H   0  0  0  0  0  0  0  0  0  0  0  0
   -1.7502    1.7470   -1.4256 H   0  0  0  0  0  0  0  0  0  0  0  0
   -0.1155    2.1558    0.2261 H   0  0  0  0  0  0  0  0  0  0  0  0
    0.7074    1.5204   -1.2578 H   0  0  0  0  0  0  0  0  0  0  0  0
    4.3483    1.9755    1.8307 H   0  0  0  0  0  0  0  0  0  0  0  0
  1  2  1  0
  2  3  1  0
  3  4  2  0
  4  5  1  0
  5  6  2  0
  6  7  1  0
  7  8  1  0
  8  9  2  0
  8 10  1  0
 10 11  1  0
 11 12  1  0
 12 13  1  0
 13 14  1  0
 14 15  1  0
 15 16  2  0
 16 17  1  0
 17 18  2  0
 18 19  1  0
 19 20  2  0
 20 21  1  0
 21 22  1  0
 22 23  1  0
 22 24  1  0
 22 25  1  0
 13 26  1  0
 26 27  1  0
  6 28  1  0
 28 29  2  0
 29 30  1  0
 29  3  1  0
 27 10  1  0
 20 15  1  0
  1 31  1  0
  1 32  1  0
  1 33  1  0
  4 34  1  0
  5 35  1  0
 11 36  1  0
 11 37  1  0
 12 38  1  0
 12 39  1  0
 14 40  1  0
 14 41  1  0
 16 42  1  0
 17 43  1  0
 18 44  1  0
 19 45  1  0
 26 46  1  0
 26 47  1  0
 27 48  1  0
 27 49  1  0
 28 50  1  0
M  END
$$$$
[H]OC(C([H])([H])[H])(C([H])([H])[H])C([H])([H])N([H])c1c([H])c([H])c([H])c(-c2nn([H])c3c([H])c(N([H])C(=O)C([H])([H])c4nc([H])c([H])c([H])c4F)c([H])c([H])c23)c1[H]
     RDKit          3D

 56 59  0  0  0  0  0  0  0  0999 V2000
   -5.2626    1.6784    0.4240 C   0  0  0  0  0  0  0  0  0  0  0  0
   -4.4238    1.1854    1.4555 N   0  0  0  0  0  0  0  0  0  0  0  0
   -3.7899   -0.0754    1.4109 C   0  0  0  0  0  0  0  0  0  0  0  0
   -4.1995   -1.1014    2.2562 C   0  0  0  0  0  0  0  0  0  0  0  0
   -3.5598   -2.3212    2.2821 C   0  0  0  0  0  0  0  0  0  0  0  0
   -2.4799   -2.5393    1.4503 C   0  0  0  0  0  0  0  0  0  0  0  0
   -2.0241   -1.5384    0.5791 C   0  0  0  0  0  0  0  0  0  0  0  0
   -2.7025   -0.3484    0.5966 C   0  0  0  0  0  0  0  0  0  0  0  0
   -0.8513   -1.7915   -0.2468 C   0  0  0  0  0  0  0  0  0  0  0  0
   -0.5014   -2.8274   -1.0109 N   0  0  0  0  0  0  0  0  0  0  0  0
    0.7106   -2.6263   -1.5333 N   0  0  0  0  0  0  0  0  0  0  0  0
    1.2061   -1.4402   -1.1291 C   0  0  0  0  0  0  0  0  0  0  0  0
    2.4128   -0.8054   -1.3845 C   0  0  0  0  0  0  0  0  0  0  0  0
    2.6921    0.4122   -0.8298 C   0  0  0  0  0  0  0  0  0  0  0  0
    3.9001    1.1144   -0.9773 N   0  0  0  0  0  0  0  0  0  0  0  0
    4.9234    0.8521   -1.8595 C   0  0  0  0  0  0  0  0  0  0  0  0
    4.8434   -0.1119   -2.7096 O   0  0  0  0  0  0  0  0  0  0  0  0
    6.1838    1.6580   -1.8764 C   0  0  0  0  0  0  0  0  0  0  0  0
    7.1821    0.8281   -1.1000 C   0  0  0  0  0  0  0  0  0  0  0  0
    7.4089    1.2315    0.1643 N   0  0  0  0  0  0  0  0  0  0  0  0
    8.2371    0.5755    0.9664 C   0  0  0  0  0  0  0  0  0  0  0  0
    8.8688   -0.5489    0.4631 C   0  0  0  0  0  0  0  0  0  0  0  0
    8.6705   -0.9978   -0.8134 C   0  0  0  0  0  0  0  0  0  0  0  0
    7.7915   -0.2795   -1.6322 C   0  0  0  0  0  0  0  0  0  0  0  0
    7.6071   -0.7016   -2.8821 F   0  0  0  0  0  0  0  0  0  0  0  0
    1.6863    0.9579   -0.0071 C   0  0  0  0  0  0  0  0  0  0  0  0
    0.5097    0.3242    0.2342 C   0  0  0  0  0  0  0  0  0  0  0  0
    0.2293   -0.9128   -0.3236 C   0  0  0  0  0  0  0  0  0  0  0  0
   -6.5825    0.9727    0.2690 C   0  0  0  0  0  0  0  0  0  0  0  0
   -7.3667    1.7894   -0.7682 C   0  0  0  0  0  0  0  0  0  0  0  0
   -6.5160   -0.4327   -0.1977 C   0  0  0  0  0  0  0  0  0  0  0  0
   -7.3071    1.0689    1.4609 O   0  0  0  0  0  0  0  0  0  0  0  0
   -5.5331    2.7496    0.6636 H   0  0  0  0  0  0  0  0  0  0  0  0
   -4.7507    1.7614   -0.5687 H   0  0  0  0  0  0  0  0  0  0  0  0
   -4.2472    1.7777    2.3223 H   0  0  0  0  0  0  0  0  0  0  0  0
   -5.0482   -0.9226    2.9046 H   0  0  0  0  0  0  0  0  0  0  0  0
   -3.8613   -3.1414    2.9380 H   0  0  0  0  0  0  0  0  0  0  0  0
   -1.9446   -3.4707    1.4298 H   0  0  0  0  0  0  0  0  0  0  0  0
   -2.4014    0.4701   -0.0741 H   0  0  0  0  0  0  0  0  0  0  0  0
    1.2191   -3.2780   -2.1600 H   0  0  0  0  0  0  0  0  0  0  0  0
    3.0958   -1.3094   -2.0126 H   0  0  0  0  0  0  0  0  0  0  0  0
    4.0461    1.9528   -0.3220 H   0  0  0  0  0  0  0  0  0  0  0  0
    6.0481    2.6563   -1.4455 H   0  0  0  0  0  0  0  0  0  0  0  0
    6.5308    1.7042   -2.9392 H   0  0  0  0  0  0  0  0  0  0  0  0
    8.3884    0.9378    1.9705 H   0  0  0  0  0  0  0  0  0  0  0  0
    9.5368   -1.0713    1.1291 H   0  0  0  0  0  0  0  0  0  0  0  0
    9.1775   -1.8998   -1.2000 H   0  0  0  0  0  0  0  0  0  0  0  0
    1.8869    1.9118    0.4277 H   0  0  0  0  0  0  0  0  0  0  0  0
   -0.2520    0.7475    0.8683 H   0  0  0  0  0  0  0  0  0  0  0  0
   -7.2129    2.8679   -0.5625 H   0  0  0  0  0  0  0  0  0  0  0  0
   -6.9740    1.4630   -1.7581 H   0  0  0  0  0  0  0  0  0  0  0  0
   -8.4198    1.4819   -0.7058 H   0  0  0  0  0  0  0  0  0  0  0  0
   -7.2577   -0.6210   -1.0381 H   0  0  0  0  0  0  0  0  0  0  0  0
   -6.8622   -1.1609    0.5955 H   0  0  0  0  0  0  0  0  0  0  0  0
   -5.5615   -0.7904   -0.5775 H   0  0  0  0  0  0  0  0  0  0  0  0
   -7.0987    1.9347    1.9303 H   0  0  0  0  0  0  0  0  0  0  0  0
  1  2  1  0
  2  3  1  0
  3  4  2  0
  4  5  1  0
  5  6  2  0
  6  7  1  0
  7  8  2  0
  7  9  1  0
  9 10  2  0
 10 11  1  0
 11 12  1  0
 12 13  2  0
 13 14  1  0
 14 15  1  0
 15 16  1  0
 16 17  2  0
 16 18  1  0
 18 19  1  0
 19 20  2  0
 20 21  1  0
 21 22  2  0
 22 23  1  0
 23 24  2  0
 24 25  1  0
 14 26  2  0
 26 27  1  0
 27 28  2  0
  1 29  1  0
 29 30  1  0
 29 31  1  0
 29 32  1  0
  8  3  1  0
 28  9  1  0
 28 12  1  0
 24 19  1  0
  1 33  1  0
  1 34  1  0
  2 35  1  0
  4 36  1  0
  5 37  1  0
  6 38  1  0
  8 39  1  0
 11 40  1  0
 13 41  1  0
 15 42  1  0
 18 43  1  0
 18 44  1  0
 21 45  1  0
 22 46  1  0
 23 47  1  0
 26 48  1  0
 27 49  1  0
 30 50  1  0
 30 51  1  0
 30 52  1  0
 31 53  1  0
 31 54  1  0
 31 55  1  0
 32 56  1  0
M  END
$$$$
[H]c1c([H])c(N2C([H])([H])C([H])([H])N(C([H])([H])[H])C([H])([H])C([H])([H])C([H])(C(F)(F)F)C([H])([H])C2([H])[H])c([H])c([H])c1OC(F)(F)F
     RDKit          3D

 45 46  0  0  0  0  0  0  0  0999 V2000
   -3.0621   -2.7958   -0.4291 C   0  0  0  0  0  0  0  0  0  0  0  0
   -2.7424   -1.4296   -0.7328 N   0  0  0  0  0  0  0  0  0  0  0  0
   -1.3518   -1.1614   -0.8888 C   0  0  0  0  0  0  0  0  0  0  0  0
   -0.5705   -1.1698    0.3926 C   0  0  0  0  0  0  0  0  0  0  0  0
    0.3393   -0.0586    0.5193 N   0  0  0  0  0  0  0  0  0  0  0  0
   -0.0494    1.1472    1.1961 C   0  0  0  0  0  0  0  0  0  0  0  0
   -1.5293    1.3210    1.4195 C   0  0  0  0  0  0  0  0  0  0  0  0
   -2.2807    1.7742    0.2356 C   0  0  0  0  0  0  0  0  0  0  0  0
   -3.2679    0.9094   -0.4004 C   0  0  0  0  0  0  0  0  0  0  0  0
   -3.4632   -0.4793    0.0728 C   0  0  0  0  0  0  0  0  0  0  0  0
   -2.9099    3.1526    0.5121 C   0  0  0  0  0  0  0  0  0  0  0  0
   -3.7410    2.9808    1.5828 F   0  0  0  0  0  0  0  0  0  0  0  0
   -3.7128    3.5122   -0.5714 F   0  0  0  0  0  0  0  0  0  0  0  0
   -1.9268    4.0894    0.7377 F   0  0  0  0  0  0  0  0  0  0  0  0
    1.6515   -0.0964   -0.0181 C   0  0  0  0  0  0  0  0  0  0  0  0
    2.5778    0.9050    0.1914 C   0  0  0  0  0  0  0  0  0  0  0  0
    3.8563    0.8861   -0.3281 C   0  0  0  0  0  0  0  0  0  0  0  0
    4.2511   -0.1851   -1.1035 C   0  0  0  0  0  0  0  0  0  0  0  0
    5.5337   -0.2158   -1.6315 O   0  0  0  0  0  0  0  0  0  0  0  0
    6.5821   -0.8149   -0.8874 C   0  0  0  0  0  0  0  0  0  0  0  0
    7.7650   -0.7353   -1.5925 F   0  0  0  0  0  0  0  0  0  0  0  0
    6.3137   -2.1818   -0.7334 F   0  0  0  0  0  0  0  0  0  0  0  0
    6.6624   -0.2851    0.3735 F   0  0  0  0  0  0  0  0  0  0  0  0
    3.3625   -1.2206   -1.3477 C   0  0  0  0  0  0  0  0  0  0  0  0
    2.0962   -1.1568   -0.8070 C   0  0  0  0  0  0  0  0  0  0  0  0
   -2.2384   -3.3644    0.0416 H   0  0  0  0  0  0  0  0  0  0  0  0
   -3.9109   -2.7732    0.3025 H   0  0  0  0  0  0  0  0  0  0  0  0
   -3.4478   -3.2606   -1.3602 H   0  0  0  0  0  0  0  0  0  0  0  0
   -0.9421   -1.9048   -1.6065 H   0  0  0  0  0  0  0  0  0  0  0  0
   -1.2570   -0.1748   -1.4101 H   0  0  0  0  0  0  0  0  0  0  0  0
    0.0283   -2.1299    0.4208 H   0  0  0  0  0  0  0  0  0  0  0  0
   -1.2412   -1.2863    1.2910 H   0  0  0  0  0  0  0  0  0  0  0  0
    0.4238    1.1217    2.2076 H   0  0  0  0  0  0  0  0  0  0  0  0
    0.3373    2.0503    0.6680 H   0  0  0  0  0  0  0  0  0  0  0  0
   -1.9148    0.4878    2.0005 H   0  0  0  0  0  0  0  0  0  0  0  0
   -1.5665    2.1797    2.1634 H   0  0  0  0  0  0  0  0  0  0  0  0
   -1.4823    2.0435   -0.5338 H   0  0  0  0  0  0  0  0  0  0  0  0
   -3.0967    0.9023   -1.5211 H   0  0  0  0  0  0  0  0  0  0  0  0
   -4.2766    1.4261   -0.3447 H   0  0  0  0  0  0  0  0  0  0  0  0
   -4.5519   -0.7739   -0.0771 H   0  0  0  0  0  0  0  0  0  0  0  0
   -3.2798   -0.6935    1.1198 H   0  0  0  0  0  0  0  0  0  0  0  0
    2.3336    1.7712    0.7907 H   0  0  0  0  0  0  0  0  0  0  0  0
    4.5546    1.7082   -0.1319 H   0  0  0  0  0  0  0  0  0  0  0  0
    3.7011   -2.0459   -1.9589 H   0  0  0  0  0  0  0  0  0  0  0  0
    1.4432   -1.9750   -1.0209 H   0  0  0  0  0  0  0  0  0  0  0  0
  1  2  1  0
  2  3  1  0
  3  4  1  0
  4  5  1  0
  5  6  1  0
  6  7  1  0
  7  8  1  0
  8  9  1  0
  9 10  1  0
  8 11  1  0
 11 12  1  0
 11 13  1  0
 11 14  1  0
  5 15  1  0
 15 16  2  0
 16 17  1  0
 17 18  2  0
 18 19  1  0
 19 20  1  0
 20 21  1  0
 20 22  1  0
 20 23  1  0
 18 24  1  0
 24 25  2  0
 10  2  1  0
 25 15  1  0
  1 26  1  0
  1 27  1  0
  1 28  1  0
  3 29  1  0
  3 30  1  0
  4 31  1  0
  4 32  1  0
  6 33  1  0
  6 34  1  0
  7 35  1  0
  7 36  1  0
  8 37  1  0
  9 38  1  0
  9 39  1  0
 10 40  1  0
 10 41  1  0
 16 42  1  0
 17 43  1  0
 24 44  1  0
 25 45  1  0
M  END
$$$$
[H]c1nc([H])c(-c2c([H])c(-c3c([H])nc(C([H])([H])[H])c([H])c3C([H])(C(=O)N([H])C([H])([H])c3c([H])c([H])c(F)c([H])c3[H])C(=O)N([H])C3([H])C([H])([H])C([H])([H])C([H])([H])C([H])([H])C3([H])[H])c([H])c([H])c2F)c([H])c1[H]
     RDKit          3D

 73 77  0  0  0  0  0  0  0  0999 V2000
   -0.7815   -1.0829    5.3137 C   0  0  0  0  0  0  0  0  0  0  0  0
   -0.0721   -1.2175    3.9988 C   0  0  0  0  0  0  0  0  0  0  0  0
   -0.2842   -0.2993    3.0052 C   0  0  0  0  0  0  0  0  0  0  0  0
    0.3966   -0.4489    1.7762 C   0  0  0  0  0  0  0  0  0  0  0  0
    0.1010    0.4586    0.6598 C   0  0  0  0  0  0  0  0  0  0  0  0
   -0.4093   -0.2987   -0.5036 C   0  0  0  0  0  0  0  0  0  0  0  0
    0.0396   -0.1632   -1.6581 O   0  0  0  0  0  0  0  0  0  0  0  0
   -1.4627   -1.2230   -0.2892 N   0  0  0  0  0  0  0  0  0  0  0  0
   -2.0154   -2.0034   -1.4035 C   0  0  0  0  0  0  0  0  0  0  0  0
   -1.9022   -3.4524   -1.0067 C   0  0  0  0  0  0  0  0  0  0  0  0
   -2.9025   -4.3527   -1.6511 C   0  0  0  0  0  0  0  0  0  0  0  0
   -4.3024   -3.8048   -1.6426 C   0  0  0  0  0  0  0  0  0  0  0  0
   -4.2634   -2.4625   -2.3775 C   0  0  0  0  0  0  0  0  0  0  0  0
   -3.4529   -1.5347   -1.5339 C   0  0  0  0  0  0  0  0  0  0  0  0
   -0.8856    1.5100    1.0087 C   0  0  0  0  0  0  0  0  0  0  0  0
   -2.0606    1.4848    0.5020 O   0  0  0  0  0  0  0  0  0  0  0  0
   -0.6116    2.5867    1.8930 N   0  0  0  0  0  0  0  0  0  0  0  0
   -1.6113    3.5736    2.1819 C   0  0  0  0  0  0  0  0  0  0  0  0
   -1.7875    4.5563    1.0653 C   0  0  0  0  0  0  0  0  0  0  0  0
   -1.0277    4.5580   -0.0672 C   0  0  0  0  0  0  0  0  0  0  0  0
   -1.2497    5.4992   -1.0579 C   0  0  0  0  0  0  0  0  0  0  0  0
   -2.2495    6.4517   -0.9077 C   0  0  0  0  0  0  0  0  0  0  0  0
   -2.4639    7.3807   -1.8917 F   0  0  0  0  0  0  0  0  0  0  0  0
   -2.9948    6.4234    0.2405 C   0  0  0  0  0  0  0  0  0  0  0  0
   -2.7829    5.4987    1.2232 C   0  0  0  0  0  0  0  0  0  0  0  0
    1.2438   -1.5058    1.6295 C   0  0  0  0  0  0  0  0  0  0  0  0
    1.3972   -2.3996    2.7056 C   0  0  0  0  0  0  0  0  0  0  0  0
    0.7552   -2.2571    3.8588 N   0  0  0  0  0  0  0  0  0  0  0  0
    2.0655   -1.7156    0.4590 C   0  0  0  0  0  0  0  0  0  0  0  0
    1.9474   -2.8940   -0.2886 C   0  0  0  0  0  0  0  0  0  0  0  0
    2.7491   -3.1559   -1.3775 C   0  0  0  0  0  0  0  0  0  0  0  0
    3.7187   -2.2599   -1.7895 C   0  0  0  0  0  0  0  0  0  0  0  0
    4.5148   -2.5081   -2.8577 F   0  0  0  0  0  0  0  0  0  0  0  0
    3.8595   -1.0910   -1.0738 C   0  0  0  0  0  0  0  0  0  0  0  0
    3.0383   -0.8342    0.0333 C   0  0  0  0  0  0  0  0  0  0  0  0
    4.8659   -0.1263   -1.4801 C   0  0  0  0  0  0  0  0  0  0  0  0
    5.0422    0.2663   -2.7882 C   0  0  0  0  0  0  0  0  0  0  0  0
    6.0293    1.1880   -3.0727 C   0  0  0  0  0  0  0  0  0  0  0  0
    6.8130    1.6952   -2.0576 C   0  0  0  0  0  0  0  0  0  0  0  0
    6.6359    1.3076   -0.7792 N   0  0  0  0  0  0  0  0  0  0  0  0
    5.6723    0.4067   -0.4967 C   0  0  0  0  0  0  0  0  0  0  0  0
   -1.4420   -1.9824    5.4680 H   0  0  0  0  0  0  0  0  0  0  0  0
   -0.0137   -1.1098    6.0883 H   0  0  0  0  0  0  0  0  0  0  0  0
   -1.3596   -0.1469    5.3329 H   0  0  0  0  0  0  0  0  0  0  0  0
   -0.9596    0.5114    3.1469 H   0  0  0  0  0  0  0  0  0  0  0  0
    1.0486    1.0120    0.3424 H   0  0  0  0  0  0  0  0  0  0  0  0
   -1.9022   -1.4067    0.6390 H   0  0  0  0  0  0  0  0  0  0  0  0
   -1.4947   -1.7630   -2.3495 H   0  0  0  0  0  0  0  0  0  0  0  0
   -0.8805   -3.7836   -1.3206 H   0  0  0  0  0  0  0  0  0  0  0  0
   -1.9217   -3.5432    0.1052 H   0  0  0  0  0  0  0  0  0  0  0  0
   -2.8785   -5.3223   -1.1073 H   0  0  0  0  0  0  0  0  0  0  0  0
   -2.6233   -4.5322   -2.7122 H   0  0  0  0  0  0  0  0  0  0  0  0
   -4.9607   -4.4876   -2.1998 H   0  0  0  0  0  0  0  0  0  0  0  0
   -4.6679   -3.5781   -0.6202 H   0  0  0  0  0  0  0  0  0  0  0  0
   -5.3020   -2.0604   -2.4314 H   0  0  0  0  0  0  0  0  0  0  0  0
   -3.7938   -2.5778   -3.3753 H   0  0  0  0  0  0  0  0  0  0  0  0
   -3.9105   -1.4617   -0.5284 H   0  0  0  0  0  0  0  0  0  0  0  0
   -3.4009   -0.5057   -1.9595 H   0  0  0  0  0  0  0  0  0  0  0  0
    0.3275    2.6541    2.3330 H   0  0  0  0  0  0  0  0  0  0  0  0
   -1.3105    4.1387    3.0925 H   0  0  0  0  0  0  0  0  0  0  0  0
   -2.6161    3.1284    2.3988 H   0  0  0  0  0  0  0  0  0  0  0  0
   -0.2399    3.8111   -0.1884 H   0  0  0  0  0  0  0  0  0  0  0  0
   -0.6398    5.4858   -1.9469 H   0  0  0  0  0  0  0  0  0  0  0  0
   -3.7812    7.1851    0.3420 H   0  0  0  0  0  0  0  0  0  0  0  0
   -3.4037    5.5144    2.1244 H   0  0  0  0  0  0  0  0  0  0  0  0
    2.0845   -3.2366    2.5468 H   0  0  0  0  0  0  0  0  0  0  0  0
    1.1785   -3.5939    0.0459 H   0  0  0  0  0  0  0  0  0  0  0  0
    2.6324   -4.0802   -1.9367 H   0  0  0  0  0  0  0  0  0  0  0  0
    3.1872    0.0840    0.5697 H   0  0  0  0  0  0  0  0  0  0  0  0
    4.4067   -0.1451   -3.5901 H   0  0  0  0  0  0  0  0  0  0  0  0
    6.1833    1.5085   -4.0915 H   0  0  0  0  0  0  0  0  0  0  0  0
    7.6049    2.4307   -2.2638 H   0  0  0  0  0  0  0  0  0  0  0  0
    5.5373    0.0990    0.5433 H   0  0  0  0  0  0  0  0  0  0  0  0
  1  2  1  0
  2  3  2  0
  3  4  1  0
  4  5  1  0
  5  6  1  0
  6  7  2  0
  6  8  1  0
  8  9  1  0
  9 10  1  0
 10 11  1  0
 11 12  1  0
 12 13  1  0
 13 14  1  0
  5 15  1  0
 15 16  2  0
 15 17  1  0
 17 18  1  0
 18 19  1  0
 19 20  2  0
 20 21  1  0
 21 22  2  0
 22 23  1  0
 22 24  1  0
 24 25  2  0
  4 26  2  0
 26 27  1  0
 27 28  2  0
 26 29  1  0
 29 30  2  0
 30 31  1  0
 31 32  2  0
 32 33  1  0
 32 34  1  0
 34 35  2  0
 34 36  1  0
 36 37  2  0
 37 38  1  0
 38 39  2  0
 39 40  1  0
 40 41  2  0
 28  2  1  0
 35 29  1  0
 41 36  1  0
 14  9  1  0
 25 19  1  0
  1 42  1  0
  1 43  1  0
  1 44  1  0
  3 45  1  0
  5 46  1  0
  8 47  1  0
  9 48  1  0
 10 49  1  0
 10 50  1  0
 11 51  1  0
 11 52  1  0
 12 53  1  0
 12 54  1  0
 13 55  1  0
 13 56  1  0
 14 57  1  0
 14 58  1  0
 17 59  1  0
 18 60  1  0
 18 61  1  0
 20 62  1  0
 21 63  1  0
 24 64  1  0
 25 65  1  0
 27 66  1  0
 30 67  1  0
 31 68  1  0
 35 69  1  0
 37 70  1  0
 38 71  1  0
 39 72  1  0
 41 73  1  0
M  END
$$$$
[H]C1=C(OC([H])([H])C([H])([H])C([H])([H])[H])C([H])=C([H])[C@]2([H])C([H])([H])C([H])([H])[C@]3([H])[C@@]2([H])C([H])([H])C([H])([H])C(=C1[H])C([H])(c1c([H])c([H])c([H])c(N([H])S(=O)(=O)C([H])([H])[H])c1[H])[C@]3([H])C(C([H])([H])[H])(C([H])([H])[H])C([H])([H])[H]
     RDKit          3D

 75 78  0  0  0  0  0  0  0  0999 V2000
   -6.3139    3.9036   -1.0719 C   0  0  0  0  0  0  0  0  0  0  0  0
   -5.1004    3.3528   -0.3330 C   0  0  0  0  0  0  0  0  0  0  0  0
   -5.5884    2.4615    0.8172 C   0  0  0  0  0  0  0  0  0  0  0  0
   -4.5109    1.9298    1.5283 O   0  0  0  0  0  0  0  0  0  0  0  0
   -3.5370    1.0890    0.8556 C   0  0  0  0  0  0  0  0  0  0  0  0
   -2.3207    1.5252    1.0721 C   0  0  0  0  0  0  0  0  0  0  0  0
   -1.0711    0.9668    0.5836 C   0  0  0  0  0  0  0  0  0  0  0  0
   -0.4923   -0.1496    0.9775 C   0  0  0  0  0  0  0  0  0  0  0  0
   -1.0866   -0.9971    2.0413 C   0  0  0  0  0  0  0  0  0  0  0  0
   -1.7976   -2.1469    1.4619 C   0  0  0  0  0  0  0  0  0  0  0  0
   -1.7183   -2.3156    0.0086 C   0  0  1  0  0  0  0  0  0  0  0  0
   -2.4083   -1.4186   -0.9312 C   0  0  1  0  0  0  0  0  0  0  0  0
   -2.2637   -2.4060   -2.1243 C   0  0  0  0  0  0  0  0  0  0  0  0
   -0.6826   -2.3139   -2.0413 C   0  0  0  0  0  0  0  0  0  0  0  0
   -0.4042   -2.5596   -0.6184 C   0  0  1  0  0  0  0  0  0  0  0  0
    0.8046   -1.9640    0.0690 C   0  0  2  0  0  0  0  0  0  0  0  0
    0.7448   -0.5003    0.1579 C   0  0  0  0  0  0  0  0  0  0  0  0
    1.8007    0.3554    0.5887 C   0  0  0  0  0  0  0  0  0  0  0  0
    2.2496    0.3846    1.8851 C   0  0  0  0  0  0  0  0  0  0  0  0
    3.2353    1.2130    2.3529 C   0  0  0  0  0  0  0  0  0  0  0  0
    3.8407    2.0913    1.4894 C   0  0  0  0  0  0  0  0  0  0  0  0
    3.4521    2.1241    0.1852 C   0  0  0  0  0  0  0  0  0  0  0  0
    4.0431    3.0213   -0.7237 N   0  0  0  0  0  0  0  0  0  0  0  0
    5.7258    3.2239   -0.8968 S   0  0  0  0  0  0  0  0  0  0  0  0
    6.5602    3.8031    0.5406 C   0  0  0  0  0  0  0  0  0  0  0  0
    6.3943    1.9097   -1.2780 O   0  0  0  0  0  0  0  0  0  0  0  0
    6.0355    4.1562   -2.0641 O   0  0  0  0  0  0  0  0  0  0  0  0
    2.4549    1.2712   -0.2412 C   0  0  0  0  0  0  0  0  0  0  0  0
    2.0223   -2.6831   -0.3411 C   0  0  0  0  0  0  0  0  0  0  0  0
    3.3346   -2.2887    0.2708 C   0  0  0  0  0  0  0  0  0  0  0  0
    1.8366   -4.1610    0.0740 C   0  0  0  0  0  0  0  0  0  0  0  0
    2.2488   -2.7610   -1.8355 C   0  0  0  0  0  0  0  0  0  0  0  0
   -3.7365   -1.0011   -0.5889 C   0  0  0  0  0  0  0  0  0  0  0  0
   -4.1073    0.0060    0.1258 C   0  0  0  0  0  0  0  0  0  0  0  0
   -5.9600    4.3326   -2.0208 H   0  0  0  0  0  0  0  0  0  0  0  0
   -6.9667    3.0125   -1.2980 H   0  0  0  0  0  0  0  0  0  0  0  0
   -6.8135    4.6249   -0.4157 H   0  0  0  0  0  0  0  0  0  0  0  0
   -4.5610    4.2261    0.0906 H   0  0  0  0  0  0  0  0  0  0  0  0
   -4.4159    2.8256   -1.0010 H   0  0  0  0  0  0  0  0  0  0  0  0
   -6.1109    3.1531    1.5115 H   0  0  0  0  0  0  0  0  0  0  0  0
   -6.3248    1.7305    0.4673 H   0  0  0  0  0  0  0  0  0  0  0  0
   -2.2081    2.4544    1.6687 H   0  0  0  0  0  0  0  0  0  0  0  0
   -0.4875    1.5009   -0.1962 H   0  0  0  0  0  0  0  0  0  0  0  0
   -0.3125   -1.3761    2.7638 H   0  0  0  0  0  0  0  0  0  0  0  0
   -1.7633   -0.3799    2.7055 H   0  0  0  0  0  0  0  0  0  0  0  0
   -1.4340   -3.1179    1.9166 H   0  0  0  0  0  0  0  0  0  0  0  0
   -2.8756   -2.1259    1.7538 H   0  0  0  0  0  0  0  0  0  0  0  0
   -2.3241   -3.2951   -0.1128 H   0  0  0  0  0  0  0  0  0  0  0  0
   -1.9448   -0.6054   -1.4589 H   0  0  0  0  0  0  0  0  0  0  0  0
   -2.6182   -1.9972   -3.0554 H   0  0  0  0  0  0  0  0  0  0  0  0
   -2.5916   -3.3910   -1.8191 H   0  0  0  0  0  0  0  0  0  0  0  0
   -0.5157   -1.2580   -2.3825 H   0  0  0  0  0  0  0  0  0  0  0  0
   -0.3738   -3.0598   -2.7701 H   0  0  0  0  0  0  0  0  0  0  0  0
   -0.2108   -3.6857   -0.5414 H   0  0  0  0  0  0  0  0  0  0  0  0
    0.6371   -2.3108    1.1478 H   0  0  0  0  0  0  0  0  0  0  0  0
    0.5269   -0.1954   -0.9321 H   0  0  0  0  0  0  0  0  0  0  0  0
    1.8050   -0.2876    2.6003 H   0  0  0  0  0  0  0  0  0  0  0  0
    3.5531    1.1886    3.4107 H   0  0  0  0  0  0  0  0  0  0  0  0
    4.6189    2.7479    1.8815 H   0  0  0  0  0  0  0  0  0  0  0  0
    3.3997    3.5916   -1.3225 H   0  0  0  0  0  0  0  0  0  0  0  0
    7.4978    4.3193    0.1992 H   0  0  0  0  0  0  0  0  0  0  0  0
    6.9020    2.9837    1.2086 H   0  0  0  0  0  0  0  0  0  0  0  0
    5.9680    4.5673    1.1138 H   0  0  0  0  0  0  0  0  0  0  0  0
    2.1659    1.3188   -1.2820 H   0  0  0  0  0  0  0  0  0  0  0  0
    3.2619   -2.4110    1.3709 H   0  0  0  0  0  0  0  0  0  0  0  0
    3.8186   -1.4076   -0.1098 H   0  0  0  0  0  0  0  0  0  0  0  0
    4.1170   -3.1151    0.0236 H   0  0  0  0  0  0  0  0  0  0  0  0
    2.8519   -4.5532    0.2732 H   0  0  0  0  0  0  0  0  0  0  0  0
    1.4594   -4.7733   -0.7722 H   0  0  0  0  0  0  0  0  0  0  0  0
    1.2578   -4.2490    0.9940 H   0  0  0  0  0  0  0  0  0  0  0  0
    1.9043   -1.9158   -2.4124 H   0  0  0  0  0  0  0  0  0  0  0  0
    1.8499   -3.6883   -2.2912 H   0  0  0  0  0  0  0  0  0  0  0  0
    3.3595   -2.8351   -2.0495 H   0  0  0  0  0  0  0  0  0  0  0  0
   -4.5235   -1.6792   -1.0299 H   0  0  0  0  0  0  0  0  0  0  0  0
   -5.2628    0.0137    0.1763 H   0  0  0  0  0  0  0  0  0  0  0  0
  1  2  1  0
  2  3  1  0
  3  4  1  0
  4  5  1  0
  5  6  2  0
  6  7  1  0
  7  8  2  0
  8  9  1  0
  9 10  1  0
 10 11  1  0
 11 12  1  0
 12 13  1  0
 13 14  1  0
 14 15  1  0
 15 16  1  0
 16 17  1  0
 17 18  1  0
 18 19  2  0
 19 20  1  0
 20 21  2  0
 21 22  1  0
 22 23  1  0
 23 24  1  0
 24 25  1  0
 24 26  2  0
 24 27  2  0
 22 28  2  0
 16 29  1  0
 29 30  1  0
 29 31  1  0
 29 32  1  0
 12 33  1  0
 33 34  2  0
 34  5  1  0
 17  8  1  0
 28 18  1  0
 15 11  1  0
  1 35  1  0
  1 36  1  0
  1 37  1  0
  2 38  1  0
  2 39  1  0
  3 40  1  0
  3 41  1  0
  6 42  1  0
  7 43  1  0
  9 44  1  0
  9 45  1  0
 10 46  1  0
 10 47  1  0
 11 48  1  1
 12 49  1  6
 13 50  1  0
 13 51  1  0
 14 52  1  0
 14 53  1  0
 15 54  1  6
 16 55  1  1
 17 56  1  0
 19 57  1  0
 20 58  1  0
 21 59  1  0
 23 60  1  0
 25 61  1  0
 25 62  1  0
 25 63  1  0
 28 64  1  0
 30 65  1  0
 30 66  1  0
 30 67  1  0
 31 68  1  0
 31 69  1  0
 31 70  1  0
 32 71  1  0
 32 72  1  0
 32 73  1  0
 33 74  1  0
 34 75  1  0
M  END
$$$$
[H]OC(=O)c1c([H])c(N([H])c2onc(C([H])([H])C([H])([H])N3C([H])([H])[C@@]([H])(C([H])([H])[H])C([H])([H])c4c([H])c([H])c([H])c([H])c4S3(=O)=O)c2[H])c([H])c(C(C([H])([H])[H])(C([H])([H])[H])C([H])([H])[H])c1[H]
     RDKit          3D

 66 69  0  0  0  0  0  0  0  0999 V2000
    4.8460   -1.1959    2.6180 C   0  0  0  0  0  0  0  0  0  0  0  0
    5.2554   -0.5934    1.2887 C   0  0  2  0  0  0  0  0  0  0  0  0
    4.7069   -1.4017    0.1297 C   0  0  0  0  0  0  0  0  0  0  0  0
    3.9397   -0.6044   -0.7768 N   0  0  0  0  0  0  0  0  0  0  0  0
    2.5612   -0.4656   -0.4726 C   0  0  0  0  0  0  0  0  0  0  0  0
    1.6168   -1.0097   -1.5212 C   0  0  0  0  0  0  0  0  0  0  0  0
    0.1950   -0.7819   -1.0690 C   0  0  0  0  0  0  0  0  0  0  0  0
   -0.5392   -1.6199   -0.2451 C   0  0  0  0  0  0  0  0  0  0  0  0
   -1.8088   -1.0183   -0.1065 C   0  0  0  0  0  0  0  0  0  0  0  0
   -2.8427   -1.5938    0.6784 N   0  0  0  0  0  0  0  0  0  0  0  0
   -4.1225   -1.0490    0.7881 C   0  0  0  0  0  0  0  0  0  0  0  0
   -4.6515   -0.1092   -0.0454 C   0  0  0  0  0  0  0  0  0  0  0  0
   -5.9449    0.4077    0.1311 C   0  0  0  0  0  0  0  0  0  0  0  0
   -6.6929   -0.0712    1.1994 C   0  0  0  0  0  0  0  0  0  0  0  0
   -6.1835   -1.0179    2.0556 C   0  0  0  0  0  0  0  0  0  0  0  0
   -4.9205   -1.4960    1.8502 C   0  0  0  0  0  0  0  0  0  0  0  0
   -7.0070   -1.4982    3.1552 C   0  0  0  0  0  0  0  0  0  0  0  0
   -8.2839   -1.0427    3.3449 O   0  0  0  0  0  0  0  0  0  0  0  0
   -6.5044   -2.3547    3.9347 O   0  0  0  0  0  0  0  0  0  0  0  0
   -6.4346    1.4089   -0.8067 C   0  0  0  0  0  0  0  0  0  0  0  0
   -6.4763    2.8120   -0.2227 C   0  0  0  0  0  0  0  0  0  0  0  0
   -5.5265    1.4490   -2.0276 C   0  0  0  0  0  0  0  0  0  0  0  0
   -7.8173    1.0943   -1.3450 C   0  0  0  0  0  0  0  0  0  0  0  0
   -1.7713    0.0596   -0.8003 O   0  0  0  0  0  0  0  0  0  0  0  0
   -0.6076    0.2371   -1.3834 N   0  0  0  0  0  0  0  0  0  0  0  0
    4.7265    0.7484   -1.3924 S   0  0  0  0  0  0  0  0  0  0  0  0
    4.1401    2.0381   -0.8368 O   0  0  0  0  0  0  0  0  0  0  0  0
    4.5605    0.8176   -2.8776 O   0  0  0  0  0  0  0  0  0  0  0  0
    6.4307    0.8036   -1.0301 C   0  0  0  0  0  0  0  0  0  0  0  0
    7.0805    1.5401   -1.9962 C   0  0  0  0  0  0  0  0  0  0  0  0
    8.4632    1.7431   -1.9540 C   0  0  0  0  0  0  0  0  0  0  0  0
    9.1994    1.2071   -0.9398 C   0  0  0  0  0  0  0  0  0  0  0  0
    8.5590    0.4717    0.0261 C   0  0  0  0  0  0  0  0  0  0  0  0
    7.1755    0.2668   -0.0137 C   0  0  0  0  0  0  0  0  0  0  0  0
    6.7514   -0.5457    1.1256 C   0  0  0  0  0  0  0  0  0  0  0  0
    4.3031   -2.1306    2.4033 H   0  0  0  0  0  0  0  0  0  0  0  0
    4.1310   -0.4934    3.1028 H   0  0  0  0  0  0  0  0  0  0  0  0
    5.6805   -1.3818    3.3027 H   0  0  0  0  0  0  0  0  0  0  0  0
    4.8901    0.4461    1.1725 H   0  0  0  0  0  0  0  0  0  0  0  0
    4.0589   -2.1918    0.5542 H   0  0  0  0  0  0  0  0  0  0  0  0
    5.5188   -1.8910   -0.4485 H   0  0  0  0  0  0  0  0  0  0  0  0
    2.3360    0.6380   -0.4063 H   0  0  0  0  0  0  0  0  0  0  0  0
    2.2728   -0.8570    0.5349 H   0  0  0  0  0  0  0  0  0  0  0  0
    1.7107   -0.4571   -2.4779 H   0  0  0  0  0  0  0  0  0  0  0  0
    1.7189   -2.0731   -1.7217 H   0  0  0  0  0  0  0  0  0  0  0  0
   -0.2287   -2.5416    0.2094 H   0  0  0  0  0  0  0  0  0  0  0  0
   -2.6387   -2.4942    1.2211 H   0  0  0  0  0  0  0  0  0  0  0  0
   -4.0777    0.2592   -0.8842 H   0  0  0  0  0  0  0  0  0  0  0  0
   -7.6871    0.3349    1.3131 H   0  0  0  0  0  0  0  0  0  0  0  0
   -4.5411   -2.2491    2.5530 H   0  0  0  0  0  0  0  0  0  0  0  0
   -9.0129   -1.6457    3.7484 H   0  0  0  0  0  0  0  0  0  0  0  0
   -6.8278    3.4999   -1.0476 H   0  0  0  0  0  0  0  0  0  0  0  0
   -7.1596    2.8594    0.6392 H   0  0  0  0  0  0  0  0  0  0  0  0
   -5.4244    3.0615    0.0719 H   0  0  0  0  0  0  0  0  0  0  0  0
   -4.5590    1.9320   -1.8315 H   0  0  0  0  0  0  0  0  0  0  0  0
   -6.0678    1.9760   -2.8608 H   0  0  0  0  0  0  0  0  0  0  0  0
   -5.4018    0.4146   -2.3996 H   0  0  0  0  0  0  0  0  0  0  0  0
   -7.9923    1.8086   -2.1762 H   0  0  0  0  0  0  0  0  0  0  0  0
   -7.8084    0.0772   -1.8435 H   0  0  0  0  0  0  0  0  0  0  0  0
   -8.6236    1.2190   -0.6290 H   0  0  0  0  0  0  0  0  0  0  0  0
    6.5695    2.0027   -2.8351 H   0  0  0  0  0  0  0  0  0  0  0  0
    8.9884    2.3284   -2.7228 H   0  0  0  0  0  0  0  0  0  0  0  0
   10.2874    1.3731   -0.9134 H   0  0  0  0  0  0  0  0  0  0  0  0
    9.1410    0.0387    0.8406 H   0  0  0  0  0  0  0  0  0  0  0  0
    7.2752   -0.2218    2.0744 H   0  0  0  0  0  0  0  0  0  0  0  0
    7.0961   -1.6156    0.9938 H   0  0  0  0  0  0  0  0  0  0  0  0
  1  2  1  0
  2  3  1  0
  3  4  1  0
  4  5  1  0
  5  6  1  0
  6  7  1  0
  7  8  1  0
  8  9  2  0
  9 10  1  0
 10 11  1  0
 11 12  2  0
 12 13  1  0
 13 14  2  0
 14 15  1  0
 15 16  2  0
 15 17  1  0
 17 18  1  0
 17 19  2  0
 13 20  1  0
 20 21  1  0
 20 22  1  0
 20 23  1  0
  9 24  1  0
 24 25  1  0
  4 26  1  0
 26 27  2  0
 26 28  2  0
 26 29  1  0
 29 30  2  0
 30 31  1  0
 31 32  2  0
 32 33  1  0
 33 34  2  0
 34 35  1  0
 35  2  1  0
 25  7  2  0
 34 29  1  0
 16 11  1  0
  1 36  1  0
  1 37  1  0
  1 38  1  0
  2 39  1  6
  3 40  1  0
  3 41  1  0
  5 42  1  0
  5 43  1  0
  6 44  1  0
  6 45  1  0
  8 46  1  0
 10 47  1  0
 12 48  1  0
 14 49  1  0
 16 50  1  0
 18 51  1  0
 21 52  1  0
 21 53  1  0
 21 54  1  0
 22 55  1  0
 22 56  1  0
 22 57  1  0
 23 58  1  0
 23 59  1  0
 23 60  1  0
 30 61  1  0
 31 62  1  0
 32 63  1  0
 33 64  1  0
 35 65  1  0
 35 66  1  0
M  END
$$$$
[H]c1nc(N([H])[C@@]2([H])C([H])([H])C([H])([H])[C@@]([H])(N3C([H])([H])C([H])([H])C([H])([H])[C@]3([H])C([H])([H])[H])C2([H])[H])c([H])c(-c2c([H])nc3c(c(N([H])[H])nn3[H])c2[H])c1Cl
     RDKit          3D

 55 59  0  0  0  0  0  0  0  0999 V2000
   -7.7853    1.8972   -0.4027 N   0  0  0  0  0  0  0  0  0  0  0  0
   -7.3048    0.7329   -1.0746 C   0  0  0  0  0  0  0  0  0  0  0  0
   -7.8193    0.1071   -2.1479 N   0  0  0  0  0  0  0  0  0  0  0  0
   -7.0321   -0.9349   -2.4206 N   0  0  0  0  0  0  0  0  0  0  0  0
   -6.0175   -0.9890   -1.5378 C   0  0  0  0  0  0  0  0  0  0  0  0
   -4.9689   -1.7992   -1.3478 N   0  0  0  0  0  0  0  0  0  0  0  0
   -4.0619   -1.6442   -0.3637 C   0  0  0  0  0  0  0  0  0  0  0  0
   -4.1945   -0.5820    0.5316 C   0  0  0  0  0  0  0  0  0  0  0  0
   -5.2531    0.2665    0.3686 C   0  0  0  0  0  0  0  0  0  0  0  0
   -6.1662    0.0656   -0.6651 C   0  0  0  0  0  0  0  0  0  0  0  0
   -3.1868   -0.4518    1.5732 C   0  0  0  0  0  0  0  0  0  0  0  0
   -1.8476   -0.5226    1.2305 C   0  0  0  0  0  0  0  0  0  0  0  0
   -0.8469   -0.4001    2.1611 C   0  0  0  0  0  0  0  0  0  0  0  0
    0.5165   -0.4670    1.8156 N   0  0  0  0  0  0  0  0  0  0  0  0
    1.0423   -0.6460    0.4784 C   0  0  1  0  0  0  0  0  0  0  0  0
    0.7170    0.4693   -0.4632 C   0  0  0  0  0  0  0  0  0  0  0  0
    2.0408    0.9292   -1.0953 C   0  0  0  0  0  0  0  0  0  0  0  0
    2.9251   -0.3125   -0.8792 C   0  0  2  0  0  0  0  0  0  0  0  0
    2.5524   -0.6481    0.5274 C   0  0  0  0  0  0  0  0  0  0  0  0
    4.2786   -0.1192   -1.1352 N   0  0  0  0  0  0  0  0  0  0  0  0
    4.7154    0.2198   -2.4123 C   0  0  0  0  0  0  0  0  0  0  0  0
    6.1502    0.6387   -2.2326 C   0  0  0  0  0  0  0  0  0  0  0  0
    6.0926    1.2586   -0.8317 C   0  0  0  0  0  0  0  0  0  0  0  0
    5.1414    0.3166   -0.1216 C   0  0  2  0  0  0  0  0  0  0  0  0
    5.9439   -0.7341    0.5745 C   0  0  0  0  0  0  0  0  0  0  0  0
   -1.2078   -0.2071    3.4328 N   0  0  0  0  0  0  0  0  0  0  0  0
   -2.4817   -0.1277    3.8417 C   0  0  0  0  0  0  0  0  0  0  0  0
   -3.5012   -0.2525    2.8930 C   0  0  0  0  0  0  0  0  0  0  0  0
   -5.1819   -0.1679    3.3630 Cl  0  0  0  0  0  0  0  0  0  0  0  0
   -8.8245    2.0342   -0.3986 H   0  0  0  0  0  0  0  0  0  0  0  0
   -7.1237    2.5757    0.0607 H   0  0  0  0  0  0  0  0  0  0  0  0
   -7.2067   -1.5914   -3.2100 H   0  0  0  0  0  0  0  0  0  0  0  0
   -3.2221   -2.3185   -0.2359 H   0  0  0  0  0  0  0  0  0  0  0  0
   -5.3909    1.0984    1.0306 H   0  0  0  0  0  0  0  0  0  0  0  0
   -1.6349   -0.6846    0.1852 H   0  0  0  0  0  0  0  0  0  0  0  0
    1.2295   -0.3805    2.5910 H   0  0  0  0  0  0  0  0  0  0  0  0
    0.6787   -1.6276    0.0492 H   0  0  0  0  0  0  0  0  0  0  0  0
    0.2499    1.3440   -0.0043 H   0  0  0  0  0  0  0  0  0  0  0  0
    0.0521    0.0745   -1.2629 H   0  0  0  0  0  0  0  0  0  0  0  0
    2.4568    1.8045   -0.5661 H   0  0  0  0  0  0  0  0  0  0  0  0
    1.8531    1.1003   -2.1715 H   0  0  0  0  0  0  0  0  0  0  0  0
    2.5006   -1.0946   -1.5422 H   0  0  0  0  0  0  0  0  0  0  0  0
    2.8303    0.1806    1.2369 H   0  0  0  0  0  0  0  0  0  0  0  0
    2.9602   -1.6199    0.8704 H   0  0  0  0  0  0  0  0  0  0  0  0
    4.5790   -0.5425   -3.1928 H   0  0  0  0  0  0  0  0  0  0  0  0
    4.1612    1.1388   -2.7659 H   0  0  0  0  0  0  0  0  0  0  0  0
    6.8409   -0.2273   -2.1753 H   0  0  0  0  0  0  0  0  0  0  0  0
    6.4717    1.3852   -2.9797 H   0  0  0  0  0  0  0  0  0  0  0  0
    5.7021    2.2955   -0.8776 H   0  0  0  0  0  0  0  0  0  0  0  0
    7.1249    1.1996   -0.4306 H   0  0  0  0  0  0  0  0  0  0  0  0
    4.6261    0.9460    0.6560 H   0  0  0  0  0  0  0  0  0  0  0  0
    5.6529   -0.8330    1.6616 H   0  0  0  0  0  0  0  0  0  0  0  0
    5.9100   -1.7298    0.0660 H   0  0  0  0  0  0  0  0  0  0  0  0
    7.0239   -0.4521    0.6043 H   0  0  0  0  0  0  0  0  0  0  0  0
   -2.7597    0.0288    4.8739 H   0  0  0  0  0  0  0  0  0  0  0  0
  1  2  1  0
  2  3  2  0
  3  4  1  0
  4  5  1  0
  5  6  2  0
  6  7  1  0
  7  8  2  0
  8  9  1  0
  9 10  2  0
  8 11  1  0
 11 12  2  0
 12 13  1  0
 13 14  1  0
 14 15  1  0
 15 16  1  0
 16 17  1  0
 17 18  1  0
 18 19  1  0
 18 20  1  0
 20 21  1  0
 21 22  1  0
 22 23  1  0
 23 24  1  0
 24 25  1  0
 13 26  2  0
 26 27  1  0
 27 28  2  0
 28 29  1  0
 10  2  1  0
 28 11  1  0
 10  5  1  0
 19 15  1  0
 24 20  1  0
  1 30  1  0
  1 31  1  0
  4 32  1  0
  7 33  1  0
  9 34  1  0
 12 35  1  0
 14 36  1  0
 15 37  1  6
 16 38  1  0
 16 39  1  0
 17 40  1  0
 17 41  1  0
 18 42  1  6
 19 43  1  0
 19 44  1  0
 21 45  1  0
 21 46  1  0
 22 47  1  0
 22 48  1  0
 23 49  1  0
 23 50  1  0
 24 51  1  1
 25 52  1  0
 25 53  1  0
 25 54  1  0
 27 55  1  0
M  END
$$$$
[H]c1nc(N2C([H])([H])C([H])([H])N(C(=O)N([H])C3([H])C([H])([H])C([H])([H])N(c4c([H])c([H])c5c(c([H])nn5[H])c4[H])C([H])([H])C3([H])[H])C([H])([H])C2([H])[H])c2c([H])c([H])n([H])c2n1
     RDKit          3D

 60 65  0  0  0  0  0  0  0  0999 V2000
   -0.0063    0.1281   -1.6246 O   0  0  0  0  0  0  0  0  0  0  0  0
    0.2293   -0.6860   -0.6811 C   0  0  0  0  0  0  0  0  0  0  0  0
   -0.5702   -0.5369    0.4785 N   0  0  0  0  0  0  0  0  0  0  0  0
   -1.5946    0.4669    0.5930 C   0  0  0  0  0  0  0  0  0  0  0  0
   -1.1386    1.5344    1.5653 C   0  0  0  0  0  0  0  0  0  0  0  0
   -2.0013    2.7812    1.4395 C   0  0  0  0  0  0  0  0  0  0  0  0
   -3.3765    2.2945    1.2839 N   0  0  0  0  0  0  0  0  0  0  0  0
   -3.6453    1.0101    1.8685 C   0  0  0  0  0  0  0  0  0  0  0  0
   -2.9341   -0.0318    1.0106 C   0  0  0  0  0  0  0  0  0  0  0  0
   -4.3513    3.0809    0.5790 C   0  0  0  0  0  0  0  0  0  0  0  0
   -3.9983    4.1955   -0.1705 C   0  0  0  0  0  0  0  0  0  0  0  0
   -4.9369    4.9504   -0.8448 C   0  0  0  0  0  0  0  0  0  0  0  0
   -6.2713    4.6251   -0.8003 C   0  0  0  0  0  0  0  0  0  0  0  0
   -7.3577    5.1903   -1.3579 N   0  0  0  0  0  0  0  0  0  0  0  0
   -8.3938    4.4536   -0.9742 N   0  0  0  0  0  0  0  0  0  0  0  0
   -8.0065    3.4376   -0.1911 C   0  0  0  0  0  0  0  0  0  0  0  0
   -6.6379    3.5255   -0.0630 C   0  0  0  0  0  0  0  0  0  0  0  0
   -5.6895    2.7706    0.6126 C   0  0  0  0  0  0  0  0  0  0  0  0
    1.2450   -1.6452   -0.8688 N   0  0  0  0  0  0  0  0  0  0  0  0
    1.5159   -2.5905    0.1960 C   0  0  0  0  0  0  0  0  0  0  0  0
    2.8244   -3.2777   -0.1183 C   0  0  0  0  0  0  0  0  0  0  0  0
    3.8196   -2.3626   -0.6524 N   0  0  0  0  0  0  0  0  0  0  0  0
    3.4853   -1.6026   -1.8490 C   0  0  0  0  0  0  0  0  0  0  0  0
    1.9905   -1.6597   -2.1053 C   0  0  0  0  0  0  0  0  0  0  0  0
    5.0905   -2.1731   -0.0799 C   0  0  0  0  0  0  0  0  0  0  0  0
    5.5253   -0.9960    0.4508 N   0  0  0  0  0  0  0  0  0  0  0  0
    6.7437   -0.8824    0.9888 C   0  0  0  0  0  0  0  0  0  0  0  0
    7.6176   -1.9000    1.0471 N   0  0  0  0  0  0  0  0  0  0  0  0
    7.2418   -3.0903    0.5362 C   0  0  0  0  0  0  0  0  0  0  0  0
    7.8766   -4.2725    0.4425 N   0  0  0  0  0  0  0  0  0  0  0  0
    7.0838   -5.1736   -0.1571 C   0  0  0  0  0  0  0  0  0  0  0  0
    5.9022   -4.5304   -0.4516 C   0  0  0  0  0  0  0  0  0  0  0  0
    5.9877   -3.2068   -0.0171 C   0  0  0  0  0  0  0  0  0  0  0  0
   -0.3905   -1.2012    1.2754 H   0  0  0  0  0  0  0  0  0  0  0  0
   -1.6826    1.0074   -0.3922 H   0  0  0  0  0  0  0  0  0  0  0  0
   -0.1076    1.8285    1.2984 H   0  0  0  0  0  0  0  0  0  0  0  0
   -1.1333    1.1679    2.6033 H   0  0  0  0  0  0  0  0  0  0  0  0
   -1.6255    3.3164    0.5662 H   0  0  0  0  0  0  0  0  0  0  0  0
   -1.9851    3.3903    2.3638 H   0  0  0  0  0  0  0  0  0  0  0  0
   -4.6847    0.7283    1.9653 H   0  0  0  0  0  0  0  0  0  0  0  0
   -3.1286    0.9879    2.8733 H   0  0  0  0  0  0  0  0  0  0  0  0
   -3.5610   -0.1413    0.0829 H   0  0  0  0  0  0  0  0  0  0  0  0
   -2.9367   -1.0249    1.4871 H   0  0  0  0  0  0  0  0  0  0  0  0
   -2.9662    4.4926   -0.2342 H   0  0  0  0  0  0  0  0  0  0  0  0
   -4.6632    5.8205   -1.4322 H   0  0  0  0  0  0  0  0  0  0  0  0
   -7.3366    6.0435   -1.9700 H   0  0  0  0  0  0  0  0  0  0  0  0
   -8.6254    2.6622    0.2782 H   0  0  0  0  0  0  0  0  0  0  0  0
   -6.0608    1.9011    1.1845 H   0  0  0  0  0  0  0  0  0  0  0  0
    0.7368   -3.3890    0.1765 H   0  0  0  0  0  0  0  0  0  0  0  0
    1.5087   -2.1562    1.1951 H   0  0  0  0  0  0  0  0  0  0  0  0
    3.2597   -3.7587    0.7777 H   0  0  0  0  0  0  0  0  0  0  0  0
    2.6116   -4.0185   -0.9332 H   0  0  0  0  0  0  0  0  0  0  0  0
    4.0817   -1.9454   -2.7116 H   0  0  0  0  0  0  0  0  0  0  0  0
    3.7415   -0.5396   -1.6712 H   0  0  0  0  0  0  0  0  0  0  0  0
    1.6348   -0.8397   -2.7450 H   0  0  0  0  0  0  0  0  0  0  0  0
    1.8152   -2.5910   -2.6838 H   0  0  0  0  0  0  0  0  0  0  0  0
    7.0407    0.0669    1.3944 H   0  0  0  0  0  0  0  0  0  0  0  0
    8.8390   -4.4976    0.7724 H   0  0  0  0  0  0  0  0  0  0  0  0
    7.3004   -6.1972   -0.3774 H   0  0  0  0  0  0  0  0  0  0  0  0
    5.0484   -4.9398   -0.9283 H   0  0  0  0  0  0  0  0  0  0  0  0
  1  2  2  0
  2  3  1  0
  3  4  1  0
  4  5  1  0
  5  6  1  0
  6  7  1  0
  7  8  1  0
  8  9  1  0
  7 10  1  0
 10 11  2  0
 11 12  1  0
 12 13  2  0
 13 14  1  0
 14 15  1  0
 15 16  2  0
 16 17  1  0
 17 18  2  0
  2 19  1  0
 19 20  1  0
 20 21  1  0
 21 22  1  0
 22 23  1  0
 23 24  1  0
 22 25  1  0
 25 26  2  0
 26 27  1  0
 27 28  2  0
 28 29  1  0
 29 30  1  0
 30 31  1  0
 31 32  2  0
 32 33  1  0
  9  4  1  0
 18 10  1  0
 24 19  1  0
 33 25  1  0
 17 13  1  0
 33 29  2  0
  3 34  1  0
  4 35  1  0
  5 36  1  0
  5 37  1  0
  6 38  1  0
  6 39  1  0
  8 40  1  0
  8 41  1  0
  9 42  1  0
  9 43  1  0
 11 44  1  0
 12 45  1  0
 14 46  1  0
 16 47  1  0
 18 48  1  0
 20 49  1  0
 20 50  1  0
 21 51  1  0
 21 52  1  0
 23 53  1  0
 23 54  1  0
 24 55  1  0
 24 56  1  0
 27 57  1  0
 30 58  1  0
 31 59  1  0
 32 60  1  0
M  END
$$$$
[H]OC([H])([H])C(C([H])([H])[H])(C([H])([H])[H])C([H])([H])N([H])[C@@]([H])(C([H])([H])Oc1c([H])c([H])c(-c2nc3c([H])c(OC([H])([H])C([H])([H])C([H])([H])C([H])([H])C([H])([H])C([H])([H])C([H])([H])[H])c([H])c([H])c3o2)c([H])c1[H])C([H])([H])/C([H])=C(\[H])c1c([H])nc([H])c([H])c1[H]
     RDKit          3D

 87 90  0  0  0  0  0  0  0  0999 V2000
   13.0448   -2.0737    0.6568 C   0  0  0  0  0  0  0  0  0  0  0  0
   11.7171   -2.6903    0.9632 C   0  0  0  0  0  0  0  0  0  0  0  0
   10.6372   -1.6648    0.5059 C   0  0  0  0  0  0  0  0  0  0  0  0
   10.8763   -0.4369    1.2791 C   0  0  0  0  0  0  0  0  0  0  0  0
    9.9723    0.6890    1.0830 C   0  0  0  0  0  0  0  0  0  0  0  0
    9.9359    1.3551   -0.2344 C   0  0  0  0  0  0  0  0  0  0  0  0
    9.5126    0.5063   -1.3844 C   0  0  0  0  0  0  0  0  0  0  0  0
    8.3070   -0.1400   -1.3006 O   0  0  0  0  0  0  0  0  0  0  0  0
    7.0210    0.3182   -1.1965 C   0  0  0  0  0  0  0  0  0  0  0  0
    6.6389    1.6235   -1.1675 C   0  0  0  0  0  0  0  0  0  0  0  0
    5.3273    2.0416   -1.0573 C   0  0  0  0  0  0  0  0  0  0  0  0
    4.3356    1.0792   -0.9718 C   0  0  0  0  0  0  0  0  0  0  0  0
    3.0359    1.1385   -0.8621 O   0  0  0  0  0  0  0  0  0  0  0  0
    2.4846   -0.0495   -0.8141 C   0  0  0  0  0  0  0  0  0  0  0  0
    3.4941   -0.9225   -0.8979 N   0  0  0  0  0  0  0  0  0  0  0  0
    4.6857   -0.2639   -0.9991 C   0  0  0  0  0  0  0  0  0  0  0  0
    5.9826   -0.6305   -1.1075 C   0  0  0  0  0  0  0  0  0  0  0  0
    1.0540   -0.3314   -0.6930 C   0  0  0  0  0  0  0  0  0  0  0  0
    0.5401   -1.6045   -0.6763 C   0  0  0  0  0  0  0  0  0  0  0  0
   -0.8309   -1.8385   -0.5550 C   0  0  0  0  0  0  0  0  0  0  0  0
   -1.6954   -0.7872   -0.4495 C   0  0  0  0  0  0  0  0  0  0  0  0
   -3.0696   -0.9656   -0.3273 O   0  0  0  0  0  0  0  0  0  0  0  0
   -3.9180    0.1624   -0.2154 C   0  0  0  0  0  0  0  0  0  0  0  0
   -5.3619   -0.2195   -0.1028 C   0  0  2  0  0  0  0  0  0  0  0  0
   -6.2299    0.9299    0.0282 N   0  0  0  0  0  0  0  0  0  0  0  0
   -6.1897    1.8031   -1.1015 C   0  0  0  0  0  0  0  0  0  0  0  0
   -7.1065    2.9967   -0.9554 C   0  0  0  0  0  0  0  0  0  0  0  0
   -8.5424    2.6256   -0.7897 C   0  0  0  0  0  0  0  0  0  0  0  0
   -6.6972    3.8725    0.2076 C   0  0  0  0  0  0  0  0  0  0  0  0
   -6.9583    3.8423   -2.2137 C   0  0  0  0  0  0  0  0  0  0  0  0
   -7.7818    4.9759   -2.1552 O   0  0  0  0  0  0  0  0  0  0  0  0
   -5.5454   -1.0952    1.1246 C   0  0  0  0  0  0  0  0  0  0  0  0
   -6.9842   -1.4860    1.2549 C   0  0  0  0  0  0  0  0  0  0  0  0
   -7.4014   -2.7173    1.2520 C   0  0  0  0  0  0  0  0  0  0  0  0
   -8.7876   -3.1455    1.3759 C   0  0  0  0  0  0  0  0  0  0  0  0
   -9.8393   -2.2656    1.5096 C   0  0  0  0  0  0  0  0  0  0  0  0
  -11.1506   -2.7345    1.6260 C   0  0  0  0  0  0  0  0  0  0  0  0
  -11.4206   -4.0846    1.6096 C   0  0  0  0  0  0  0  0  0  0  0  0
  -10.3781   -4.9303    1.4780 N   0  0  0  0  0  0  0  0  0  0  0  0
   -9.1107   -4.4871    1.3653 C   0  0  0  0  0  0  0  0  0  0  0  0
   -1.1992    0.5080   -0.4637 C   0  0  0  0  0  0  0  0  0  0  0  0
    0.1634    0.7123   -0.5851 C   0  0  0  0  0  0  0  0  0  0  0  0
   12.9695   -1.2933   -0.1501 H   0  0  0  0  0  0  0  0  0  0  0  0
   13.7326   -2.8561    0.2863 H   0  0  0  0  0  0  0  0  0  0  0  0
   13.4606   -1.5588    1.5625 H   0  0  0  0  0  0  0  0  0  0  0  0
   11.5048   -3.6198    0.3967 H   0  0  0  0  0  0  0  0  0  0  0  0
   11.5415   -2.9007    2.0262 H   0  0  0  0  0  0  0  0  0  0  0  0
   10.7192   -1.6767   -0.5608 H   0  0  0  0  0  0  0  0  0  0  0  0
    9.6416   -2.0798    0.7976 H   0  0  0  0  0  0  0  0  0  0  0  0
   10.9066   -0.7645    2.3772 H   0  0  0  0  0  0  0  0  0  0  0  0
   11.9625   -0.0836    1.1542 H   0  0  0  0  0  0  0  0  0  0  0  0
    8.9138    0.2971    1.3494 H   0  0  0  0  0  0  0  0  0  0  0  0
   10.1417    1.4793    1.9097 H   0  0  0  0  0  0  0  0  0  0  0  0
    9.4052    2.3516   -0.1788 H   0  0  0  0  0  0  0  0  0  0  0  0
   11.0055    1.7314   -0.5019 H   0  0  0  0  0  0  0  0  0  0  0  0
   10.3346   -0.0428   -1.8978 H   0  0  0  0  0  0  0  0  0  0  0  0
    9.3027    1.3127   -2.2493 H   0  0  0  0  0  0  0  0  0  0  0  0
    7.4112    2.4011   -1.2517 H   0  0  0  0  0  0  0  0  0  0  0  0
    5.0790    3.0917   -1.0387 H   0  0  0  0  0  0  0  0  0  0  0  0
    6.2611   -1.6781   -1.1290 H   0  0  0  0  0  0  0  0  0  0  0  0
    1.2397   -2.4373   -0.7625 H   0  0  0  0  0  0  0  0  0  0  0  0
   -1.1890   -2.8645   -0.5469 H   0  0  0  0  0  0  0  0  0  0  0  0
   -3.5878    0.8610    0.5657 H   0  0  0  0  0  0  0  0  0  0  0  0
   -3.8104    0.7358   -1.1837 H   0  0  0  0  0  0  0  0  0  0  0  0
   -5.7202   -0.7767   -0.9968 H   0  0  0  0  0  0  0  0  0  0  0  0
   -5.8603    1.4600    0.8733 H   0  0  0  0  0  0  0  0  0  0  0  0
   -6.3835    1.2769   -2.0563 H   0  0  0  0  0  0  0  0  0  0  0  0
   -5.1550    2.2497   -1.1790 H   0  0  0  0  0  0  0  0  0  0  0  0
   -9.1245    2.7665   -1.7278 H   0  0  0  0  0  0  0  0  0  0  0  0
   -9.0346    3.2313    0.0261 H   0  0  0  0  0  0  0  0  0  0  0  0
   -8.6869    1.5603   -0.4929 H   0  0  0  0  0  0  0  0  0  0  0  0
   -5.6941    4.3168    0.0782 H   0  0  0  0  0  0  0  0  0  0  0  0
   -7.4801    4.6481    0.3401 H   0  0  0  0  0  0  0  0  0  0  0  0
   -6.7030    3.2909    1.1703 H   0  0  0  0  0  0  0  0  0  0  0  0
   -7.1743    3.2196   -3.1013 H   0  0  0  0  0  0  0  0  0  0  0  0
   -5.9012    4.2330   -2.2496 H   0  0  0  0  0  0  0  0  0  0  0  0
   -8.4365    4.9472   -1.4384 H   0  0  0  0  0  0  0  0  0  0  0  0
   -4.8832   -1.9766    1.0956 H   0  0  0  0  0  0  0  0  0  0  0  0
   -5.2783   -0.4641    1.9974 H   0  0  0  0  0  0  0  0  0  0  0  0
   -7.6962   -0.6826    1.3555 H   0  0  0  0  0  0  0  0  0  0  0  0
   -6.6329   -3.4866    1.1463 H   0  0  0  0  0  0  0  0  0  0  0  0
   -9.6406   -1.2124    1.5233 H   0  0  0  0  0  0  0  0  0  0  0  0
  -11.9857   -2.0581    1.7314 H   0  0  0  0  0  0  0  0  0  0  0  0
  -12.4329   -4.4870    1.6973 H   0  0  0  0  0  0  0  0  0  0  0  0
   -8.2887   -5.1901    1.2599 H   0  0  0  0  0  0  0  0  0  0  0  0
   -1.8424    1.3809   -0.3826 H   0  0  0  0  0  0  0  0  0  0  0  0
    0.5209    1.7321   -0.5940 H   0  0  0  0  0  0  0  0  0  0  0  0
  1  2  1  0
  2  3  1  0
  3  4  1  0
  4  5  1  0
  5  6  1  0
  6  7  1  0
  7  8  1  0
  8  9  1  0
  9 10  2  0
 10 11  1  0
 11 12  2  0
 12 13  1  0
 13 14  1  0
 14 15  2  0
 15 16  1  0
 16 17  2  0
 14 18  1  0
 18 19  2  0
 19 20  1  0
 20 21  2  0
 21 22  1  0
 22 23  1  0
 23 24  1  0
 24 25  1  0
 25 26  1  0
 26 27  1  0
 27 28  1  0
 27 29  1  0
 27 30  1  0
 30 31  1  0
 24 32  1  0
 32 33  1  0
 33 34  2  0
 34 35  1  0
 35 36  2  0
 36 37  1  0
 37 38  2  0
 38 39  1  0
 39 40  2  0
 21 41  1  0
 41 42  2  0
 17  9  1  0
 42 18  1  0
 16 12  1  0
 40 35  1  0
  1 43  1  0
  1 44  1  0
  1 45  1  0
  2 46  1  0
  2 47  1  0
  3 48  1  0
  3 49  1  0
  4 50  1  0
  4 51  1  0
  5 52  1  0
  5 53  1  0
  6 54  1  0
  6 55  1  0
  7 56  1  0
  7 57  1  0
 10 58  1  0
 11 59  1  0
 17 60  1  0
 19 61  1  0
 20 62  1  0
 23 63  1  0
 23 64  1  0
 24 65  1  6
 25 66  1  0
 26 67  1  0
 26 68  1  0
 28 69  1  0
 28 70  1  0
 28 71  1  0
 29 72  1  0
 29 73  1  0
 29 74  1  0
 30 75  1  0
 30 76  1  0
 31 77  1  0
 32 78  1  0
 32 79  1  0
 33 80  1  0
 34 81  1  0
 36 82  1  0
 37 83  1  0
 38 84  1  0
 40 85  1  0
 41 86  1  0
 42 87  1  0
M  END
$$$$
[H]c1nc([H])n(C([H])([H])c2c([H])c([H])c(C(=O)c3c([H])c(C([H])(C([H])([H])[H])C([H])([H])C(=O)[C@@]([H])(N(C([H])([H])[H])C(C([H])([H])[H])(C([H])([H])[H])C([H])([H])[H])C([H])([H])[H])c([H])c([H])c3N([H])S(=O)(=O)C([H])([H])[H])c3c([H])c([H])c([H])c([H])c23)c1[H]
     RDKit          3D

 82 85  0  0  0  0  0  0  0  0999 V2000
    5.2195   -0.2175    0.2962 C   0  0  0  0  0  0  0  0  0  0  0  0
    4.7085    0.9956   -0.2490 N   0  0  0  0  0  0  0  0  0  0  0  0
    3.4964    0.9877   -0.9224 C   0  0  1  0  0  0  0  0  0  0  0  0
    3.4291    0.1063   -2.1480 C   0  0  0  0  0  0  0  0  0  0  0  0
    2.3240    0.7105   -0.0681 C   0  0  0  0  0  0  0  0  0  0  0  0
    1.1902    0.5997   -0.5933 O   0  0  0  0  0  0  0  0  0  0  0  0
    2.3579    0.5482    1.3996 C   0  0  0  0  0  0  0  0  0  0  0  0
    0.9584    0.3255    1.9842 C   0  0  0  0  0  0  0  0  0  0  0  0
    1.1237    0.1757    3.4912 C   0  0  0  0  0  0  0  0  0  0  0  0
    0.3900   -0.9735    1.4938 C   0  0  0  0  0  0  0  0  0  0  0  0
    1.1088   -2.1328    1.5562 C   0  0  0  0  0  0  0  0  0  0  0  0
    0.6021   -3.3339    1.1131 C   0  0  0  0  0  0  0  0  0  0  0  0
   -0.6689   -3.3948    0.5856 C   0  0  0  0  0  0  0  0  0  0  0  0
   -1.1358   -4.6359    0.1111 N   0  0  0  0  0  0  0  0  0  0  0  0
   -1.3442   -6.0450    1.0811 S   0  0  0  0  0  0  0  0  0  0  0  0
    0.1902   -6.5846    1.7867 C   0  0  0  0  0  0  0  0  0  0  0  0
   -1.8786   -7.1915    0.2584 O   0  0  0  0  0  0  0  0  0  0  0  0
   -2.3531   -5.7967    2.1822 O   0  0  0  0  0  0  0  0  0  0  0  0
   -1.4335   -2.2295    0.5072 C   0  0  0  0  0  0  0  0  0  0  0  0
   -2.7803   -2.2467   -0.0337 C   0  0  0  0  0  0  0  0  0  0  0  0
   -3.2204   -3.3716   -0.4553 O   0  0  0  0  0  0  0  0  0  0  0  0
   -3.6332   -1.0722   -0.1169 C   0  0  0  0  0  0  0  0  0  0  0  0
   -3.9633   -0.3569    1.0418 C   0  0  0  0  0  0  0  0  0  0  0  0
   -4.8056    0.7019    0.9988 C   0  0  0  0  0  0  0  0  0  0  0  0
   -5.3889    1.1379   -0.1999 C   0  0  0  0  0  0  0  0  0  0  0  0
   -6.2151    2.3465   -0.0995 C   0  0  0  0  0  0  0  0  0  0  0  0
   -5.4003    3.5133   -0.3226 N   0  0  0  0  0  0  0  0  0  0  0  0
   -4.7209    4.1813    0.6628 C   0  0  0  0  0  0  0  0  0  0  0  0
   -4.0760    5.2378    0.0953 C   0  0  0  0  0  0  0  0  0  0  0  0
   -4.3326    5.2464   -1.2035 N   0  0  0  0  0  0  0  0  0  0  0  0
   -5.1480    4.1738   -1.4219 C   0  0  0  0  0  0  0  0  0  0  0  0
   -5.0864    0.4611   -1.3368 C   0  0  0  0  0  0  0  0  0  0  0  0
   -5.6537    0.8556   -2.5223 C   0  0  0  0  0  0  0  0  0  0  0  0
   -5.3664    0.1800   -3.6805 C   0  0  0  0  0  0  0  0  0  0  0  0
   -4.5086   -0.8913   -3.6379 C   0  0  0  0  0  0  0  0  0  0  0  0
   -3.9233   -1.3153   -2.4647 C   0  0  0  0  0  0  0  0  0  0  0  0
   -4.2104   -0.6379   -1.2880 C   0  0  0  0  0  0  0  0  0  0  0  0
   -0.9007   -1.0402    0.9576 C   0  0  0  0  0  0  0  0  0  0  0  0
    5.6707    2.0000   -0.5113 C   0  0  0  0  0  0  0  0  0  0  0  0
    6.7081    1.6444   -1.5339 C   0  0  0  0  0  0  0  0  0  0  0  0
    5.0311    3.2967   -0.8779 C   0  0  0  0  0  0  0  0  0  0  0  0
    6.4211    2.2453    0.8080 C   0  0  0  0  0  0  0  0  0  0  0  0
    5.3475   -0.0992    1.3871 H   0  0  0  0  0  0  0  0  0  0  0  0
    6.2279   -0.4897   -0.0871 H   0  0  0  0  0  0  0  0  0  0  0  0
    4.5370   -1.0398    0.1048 H   0  0  0  0  0  0  0  0  0  0  0  0
    3.3156    2.0660   -1.2809 H   0  0  0  0  0  0  0  0  0  0  0  0
    2.9074   -0.8571   -1.8834 H   0  0  0  0  0  0  0  0  0  0  0  0
    4.4084   -0.1759   -2.5439 H   0  0  0  0  0  0  0  0  0  0  0  0
    2.8119    0.5691   -2.9462 H   0  0  0  0  0  0  0  0  0  0  0  0
    3.0131   -0.2614    1.7328 H   0  0  0  0  0  0  0  0  0  0  0  0
    2.7387    1.4819    1.8986 H   0  0  0  0  0  0  0  0  0  0  0  0
    0.2655    1.1275    1.7207 H   0  0  0  0  0  0  0  0  0  0  0  0
    0.1986    0.4445    4.0351 H   0  0  0  0  0  0  0  0  0  0  0  0
    1.9332    0.8757    3.7916 H   0  0  0  0  0  0  0  0  0  0  0  0
    1.4695   -0.8476    3.6810 H   0  0  0  0  0  0  0  0  0  0  0  0
    2.1231   -2.0991    1.9748 H   0  0  0  0  0  0  0  0  0  0  0  0
    1.2303   -4.2331    1.1836 H   0  0  0  0  0  0  0  0  0  0  0  0
   -1.3673   -4.7509   -0.9236 H   0  0  0  0  0  0  0  0  0  0  0  0
    0.4886   -5.9537    2.6630 H   0  0  0  0  0  0  0  0  0  0  0  0
    0.0988   -7.6575    2.1265 H   0  0  0  0  0  0  0  0  0  0  0  0
    0.9864   -6.6090    1.0166 H   0  0  0  0  0  0  0  0  0  0  0  0
   -3.5026   -0.7073    1.9597 H   0  0  0  0  0  0  0  0  0  0  0  0
   -5.0350    1.2297    1.9310 H   0  0  0  0  0  0  0  0  0  0  0  0
   -7.0531    2.3981   -0.8344 H   0  0  0  0  0  0  0  0  0  0  0  0
   -6.6267    2.4118    0.9499 H   0  0  0  0  0  0  0  0  0  0  0  0
   -4.7014    3.9134    1.7171 H   0  0  0  0  0  0  0  0  0  0  0  0
   -3.4451    5.9742    0.5995 H   0  0  0  0  0  0  0  0  0  0  0  0
   -5.5102    3.9627   -2.4393 H   0  0  0  0  0  0  0  0  0  0  0  0
   -6.3391    1.6770   -2.5477 H   0  0  0  0  0  0  0  0  0  0  0  0
   -5.8090    0.4773   -4.6452 H   0  0  0  0  0  0  0  0  0  0  0  0
   -4.2831   -1.4208   -4.5490 H   0  0  0  0  0  0  0  0  0  0  0  0
   -3.2386   -2.1541   -2.4425 H   0  0  0  0  0  0  0  0  0  0  0  0
   -1.4072   -0.0892    0.9299 H   0  0  0  0  0  0  0  0  0  0  0  0
    6.8427    0.5770   -1.7106 H   0  0  0  0  0  0  0  0  0  0  0  0
    6.5027    2.1599   -2.5181 H   0  0  0  0  0  0  0  0  0  0  0  0
    7.7157    2.0397   -1.2235 H   0  0  0  0  0  0  0  0  0  0  0  0
    4.1898    3.5729   -0.2194 H   0  0  0  0  0  0  0  0  0  0  0  0
    4.7654    3.3472   -1.9570 H   0  0  0  0  0  0  0  0  0  0  0  0
    5.8047    4.1063   -0.7316 H   0  0  0  0  0  0  0  0  0  0  0  0
    7.0954    3.1111    0.7279 H   0  0  0  0  0  0  0  0  0  0  0  0
    5.6071    2.4188    1.5600 H   0  0  0  0  0  0  0  0  0  0  0  0
    6.9120    1.3002    1.0687 H   0  0  0  0  0  0  0  0  0  0  0  0
  1  2  1  0
  2  3  1  0
  3  4  1  0
  3  5  1  0
  5  6  2  0
  5  7  1  0
  7  8  1  0
  8  9  1  0
  8 10  1  0
 10 11  2  0
 11 12  1  0
 12 13  2  0
 13 14  1  0
 14 15  1  0
 15 16  1  0
 15 17  2  0
 15 18  2  0
 13 19  1  0
 19 20  1  0
 20 21  2  0
 20 22  1  0
 22 23  2  0
 23 24  1  0
 24 25  2  0
 25 26  1  0
 26 27  1  0
 27 28  1  0
 28 29  2  0
 29 30  1  0
 30 31  2  0
 25 32  1  0
 32 33  2  0
 33 34  1  0
 34 35  2  0
 35 36  1  0
 36 37  2  0
 19 38  2  0
  2 39  1  0
 39 40  1  0
 39 41  1  0
 39 42  1  0
 38 10  1  0
 37 22  1  0
 31 27  1  0
 37 32  1  0
  1 43  1  0
  1 44  1  0
  1 45  1  0
  3 46  1  6
  4 47  1  0
  4 48  1  0
  4 49  1  0
  7 50  1  0
  7 51  1  0
  8 52  1  0
  9 53  1  0
  9 54  1  0
  9 55  1  0
 11 56  1  0
 12 57  1  0
 14 58  1  0
 16 59  1  0
 16 60  1  0
 16 61  1  0
 23 62  1  0
 24 63  1  0
 26 64  1  0
 26 65  1  0
 28 66  1  0
 29 67  1  0
 31 68  1  0
 33 69  1  0
 34 70  1  0
 35 71  1  0
 36 72  1  0
 38 73  1  0
 40 74  1  0
 40 75  1  0
 40 76  1  0
 41 77  1  0
 41 78  1  0
 41 79  1  0
 42 80  1  0
 42 81  1  0
 42 82  1  0
M  END
$$$$
[H]OC([H])(N([H])S(=O)(=O)c1c([H])c([H])c(N2C([H])([H])C([H])([H])N(C(=O)c3c([H])c([H])c([H])c(C(F)(F)F)c3[H])C([H])([H])C2([H])[H])c([H])c1[H])S(=O)(=O)c1c([H])c([H])c(Cl)c([H])c1[H]
     RDKit          3D

 63 66  0  0  0  0  0  0  0  0999 V2000
    6.3803    1.2284    1.4681 O   0  0  0  0  0  0  0  0  0  0  0  0
    5.3080    0.4070    0.9648 C   0  0  0  0  0  0  0  0  0  0  0  0
    5.0071    1.0551   -0.3152 N   0  0  0  0  0  0  0  0  0  0  0  0
    3.6643    2.0416   -0.3435 S   0  0  0  0  0  0  0  0  0  0  0  0
    3.8975    3.1589    0.6906 O   0  0  0  0  0  0  0  0  0  0  0  0
    3.5781    2.7812   -1.6963 O   0  0  0  0  0  0  0  0  0  0  0  0
    2.1569    1.2917    0.0007 C   0  0  0  0  0  0  0  0  0  0  0  0
    1.7169    1.1849    1.2963 C   0  0  0  0  0  0  0  0  0  0  0  0
    0.4505    0.7060    1.6205 C   0  0  0  0  0  0  0  0  0  0  0  0
   -0.4274    0.3178    0.6307 C   0  0  0  0  0  0  0  0  0  0  0  0
    0.0375    0.4289   -0.6662 C   0  0  0  0  0  0  0  0  0  0  0  0
    1.2949    0.9013   -0.9902 C   0  0  0  0  0  0  0  0  0  0  0  0
   -1.7458   -0.0652    0.9486 N   0  0  0  0  0  0  0  0  0  0  0  0
   -2.5652   -0.9851    0.2090 C   0  0  0  0  0  0  0  0  0  0  0  0
   -4.0390   -0.8432    0.6667 C   0  0  0  0  0  0  0  0  0  0  0  0
   -4.4221    0.5428    0.6659 N   0  0  0  0  0  0  0  0  0  0  0  0
   -3.5545    1.3999    1.5559 C   0  0  0  0  0  0  0  0  0  0  0  0
   -2.4454    0.5658    2.1012 C   0  0  0  0  0  0  0  0  0  0  0  0
   -5.5033    1.1760    0.0571 C   0  0  0  0  0  0  0  0  0  0  0  0
   -5.5031    2.4731    0.1160 O   0  0  0  0  0  0  0  0  0  0  0  0
   -6.6255    0.6026   -0.6286 C   0  0  0  0  0  0  0  0  0  0  0  0
   -7.3746    1.4101   -1.5263 C   0  0  0  0  0  0  0  0  0  0  0  0
   -8.5140    0.9941   -2.1451 C   0  0  0  0  0  0  0  0  0  0  0  0
   -8.9627   -0.2851   -1.8839 C   0  0  0  0  0  0  0  0  0  0  0  0
   -8.3015   -1.1287   -1.0281 C   0  0  0  0  0  0  0  0  0  0  0  0
   -7.1482   -0.6509   -0.4286 C   0  0  0  0  0  0  0  0  0  0  0  0
   -8.8315   -2.4937   -0.7384 C   0  0  0  0  0  0  0  0  0  0  0  0
   -9.4036   -2.4130    0.5376 F   0  0  0  0  0  0  0  0  0  0  0  0
   -7.7595   -3.3737   -0.6763 F   0  0  0  0  0  0  0  0  0  0  0  0
   -9.7411   -2.9338   -1.6442 F   0  0  0  0  0  0  0  0  0  0  0  0
    6.0894   -1.1375    0.6033 S   0  0  0  0  0  0  0  0  0  0  0  0
    5.2002   -1.8883   -0.3417 O   0  0  0  0  0  0  0  0  0  0  0  0
    6.3819   -1.9186    1.8418 O   0  0  0  0  0  0  0  0  0  0  0  0
    7.6194   -0.7450   -0.1635 C   0  0  0  0  0  0  0  0  0  0  0  0
    7.8045   -0.6109   -1.5036 C   0  0  0  0  0  0  0  0  0  0  0  0
    9.0665   -0.2560   -2.0243 C   0  0  0  0  0  0  0  0  0  0  0  0
   10.1290   -0.0363   -1.2004 C   0  0  0  0  0  0  0  0  0  0  0  0
   11.7208    0.4462   -1.8317 Cl  0  0  0  0  0  0  0  0  0  0  0  0
    9.9599   -0.1692    0.1707 C   0  0  0  0  0  0  0  0  0  0  0  0
    8.7164   -0.5201    0.6690 C   0  0  0  0  0  0  0  0  0  0  0  0
    6.3563    1.2201    2.4582 H   0  0  0  0  0  0  0  0  0  0  0  0
    4.4687    0.4528    1.6276 H   0  0  0  0  0  0  0  0  0  0  0  0
    4.9551    0.2764   -1.0194 H   0  0  0  0  0  0  0  0  0  0  0  0
    2.3815    1.4770    2.0874 H   0  0  0  0  0  0  0  0  0  0  0  0
    0.1767    0.6228    2.6449 H   0  0  0  0  0  0  0  0  0  0  0  0
   -0.6373    0.1058   -1.4596 H   0  0  0  0  0  0  0  0  0  0  0  0
    1.5622    0.9555   -2.0503 H   0  0  0  0  0  0  0  0  0  0  0  0
   -2.2661   -2.0070    0.4925 H   0  0  0  0  0  0  0  0  0  0  0  0
   -2.5223   -0.8583   -0.8873 H   0  0  0  0  0  0  0  0  0  0  0  0
   -4.6349   -1.4468   -0.0660 H   0  0  0  0  0  0  0  0  0  0  0  0
   -4.2029   -1.2901    1.6656 H   0  0  0  0  0  0  0  0  0  0  0  0
   -4.1824    1.7349    2.4302 H   0  0  0  0  0  0  0  0  0  0  0  0
   -3.2130    2.2780    1.0185 H   0  0  0  0  0  0  0  0  0  0  0  0
   -2.7870   -0.3039    2.7023 H   0  0  0  0  0  0  0  0  0  0  0  0
   -1.7309    1.1416    2.7032 H   0  0  0  0  0  0  0  0  0  0  0  0
   -6.9885    2.3994   -1.7115 H   0  0  0  0  0  0  0  0  0  0  0  0
   -9.0387    1.6701   -2.8199 H   0  0  0  0  0  0  0  0  0  0  0  0
   -9.8676   -0.5884   -2.3981 H   0  0  0  0  0  0  0  0  0  0  0  0
   -6.6920   -1.3315    0.2757 H   0  0  0  0  0  0  0  0  0  0  0  0
    6.9819   -0.7818   -2.1786 H   0  0  0  0  0  0  0  0  0  0  0  0
    9.1991   -0.1575   -3.0895 H   0  0  0  0  0  0  0  0  0  0  0  0
   10.8059    0.0048    0.8015 H   0  0  0  0  0  0  0  0  0  0  0  0
    8.5645   -0.6240    1.7344 H   0  0  0  0  0  0  0  0  0  0  0  0
  1  2  1  0
  2  3  1  0
  3  4  1  0
  4  5  2  0
  4  6  2  0
  4  7  1  0
  7  8  2  0
  8  9  1  0
  9 10  2  0
 10 11  1  0
 11 12  2  0
 10 13  1  0
 13 14  1  0
 14 15  1  0
 15 16  1  0
 16 17  1  0
 17 18  1  0
 16 19  1  0
 19 20  2  0
 19 21  1  0
 21 22  2  0
 22 23  1  0
 23 24  2  0
 24 25  1  0
 25 26  2  0
 25 27  1  0
 27 28  1  0
 27 29  1  0
 27 30  1  0
  2 31  1  0
 31 32  2  0
 31 33  2  0
 31 34  1  0
 34 35  2  0
 35 36  1  0
 36 37  2  0
 37 38  1  0
 37 39  1  0
 39 40  2  0
 12  7  1  0
 18 13  1  0
 26 21  1  0
 40 34  1  0
  1 41  1  0
  2 42  1  0
  3 43  1  0
  8 44  1  0
  9 45  1  0
 11 46  1  0
 12 47  1  0
 14 48  1  0
 14 49  1  0
 15 50  1  0
 15 51  1  0
 17 52  1  0
 17 53  1  0
 18 54  1  0
 18 55  1  0
 22 56  1  0
 23 57  1  0
 24 58  1  0
 26 59  1  0
 35 60  1  0
 36 61  1  0
 39 62  1  0
 40 63  1  0
M  END
$$$$
[H]c1c([H])c([H])c(SC2=Nc3c([H])c([H])c(OC([H])([H])c4nn([H])c(-c5c([H])c([H])c(OC([H])([H])[H])c([H])c5[H])c4C([H])(C([H])([H])[H])C([H])([H])[H])c([H])c32)c(Cl)c1[H]
     RDKit          3D

 58 62  0  0  0  0  0  0  0  0999 V2000
   -9.7411    1.3149   -0.7129 C   0  0  0  0  0  0  0  0  0  0  0  0
   -9.1503    0.0708   -0.4508 O   0  0  0  0  0  0  0  0  0  0  0  0
   -7.7970   -0.0803   -0.1814 C   0  0  0  0  0  0  0  0  0  0  0  0
   -6.9636    1.0202   -0.1578 C   0  0  0  0  0  0  0  0  0  0  0  0
   -5.6088    0.8436    0.1144 C   0  0  0  0  0  0  0  0  0  0  0  0
   -5.0420   -0.3626    0.3602 C   0  0  0  0  0  0  0  0  0  0  0  0
   -5.9422   -1.4489    0.3236 C   0  0  0  0  0  0  0  0  0  0  0  0
   -7.2717   -1.3169    0.0630 C   0  0  0  0  0  0  0  0  0  0  0  0
   -3.6495   -0.6984    0.5824 C   0  0  0  0  0  0  0  0  0  0  0  0
   -3.3469   -1.7083    1.4971 N   0  0  0  0  0  0  0  0  0  0  0  0
   -2.0601   -1.8317    1.5518 N   0  0  0  0  0  0  0  0  0  0  0  0
   -1.4775   -0.9601    0.7202 C   0  0  0  0  0  0  0  0  0  0  0  0
   -0.0186   -0.8100    0.5497 C   0  0  0  0  0  0  0  0  0  0  0  0
    0.6724   -1.8031    1.3508 O   0  0  0  0  0  0  0  0  0  0  0  0
    2.0376   -1.8412    1.3764 C   0  0  0  0  0  0  0  0  0  0  0  0
    2.7212   -2.7703    2.1101 C   0  0  0  0  0  0  0  0  0  0  0  0
    4.0964   -2.8150    2.1454 C   0  0  0  0  0  0  0  0  0  0  0  0
    4.8079   -1.8812    1.4082 C   0  0  0  0  0  0  0  0  0  0  0  0
    6.0443   -1.3175    0.9709 N   0  0  0  0  0  0  0  0  0  0  0  0
    5.4267   -0.4397    0.2771 C   0  0  0  0  0  0  0  0  0  0  0  0
    5.9399    0.9220   -0.7914 S   0  0  0  0  0  0  0  0  0  0  0  0
    7.7145    1.0993   -0.7628 C   0  0  0  0  0  0  0  0  0  0  0  0
    8.3091    1.9479    0.1796 C   0  0  0  0  0  0  0  0  0  0  0  0
    9.6715    2.1067    0.2221 C   0  0  0  0  0  0  0  0  0  0  0  0
   10.4485    1.4101   -0.6863 C   0  0  0  0  0  0  0  0  0  0  0  0
    9.8570    0.5764   -1.6108 C   0  0  0  0  0  0  0  0  0  0  0  0
    8.4930    0.4097   -1.6626 C   0  0  0  0  0  0  0  0  0  0  0  0
    7.7322   -0.6589   -2.8398 Cl  0  0  0  0  0  0  0  0  0  0  0  0
    4.1327   -0.9563    0.6766 C   0  0  0  0  0  0  0  0  0  0  0  0
    2.7541   -0.9145    0.6432 C   0  0  0  0  0  0  0  0  0  0  0  0
   -2.4893   -0.2056    0.0641 C   0  0  0  0  0  0  0  0  0  0  0  0
   -2.2040    0.6604   -1.0498 C   0  0  0  0  0  0  0  0  0  0  0  0
   -0.9808    1.5533   -0.9633 C   0  0  0  0  0  0  0  0  0  0  0  0
   -3.2085    1.1374   -2.0154 C   0  0  0  0  0  0  0  0  0  0  0  0
   -9.8045    1.9420    0.1935 H   0  0  0  0  0  0  0  0  0  0  0  0
   -9.1242    1.8266   -1.4812 H   0  0  0  0  0  0  0  0  0  0  0  0
  -10.7339    1.1296   -1.1774 H   0  0  0  0  0  0  0  0  0  0  0  0
   -7.3634    1.9896   -0.3467 H   0  0  0  0  0  0  0  0  0  0  0  0
   -4.9774    1.7223    0.1824 H   0  0  0  0  0  0  0  0  0  0  0  0
   -5.5413   -2.4509    0.5171 H   0  0  0  0  0  0  0  0  0  0  0  0
   -7.9161   -2.1810    0.0487 H   0  0  0  0  0  0  0  0  0  0  0  0
   -4.0629   -2.2426    2.0205 H   0  0  0  0  0  0  0  0  0  0  0  0
    0.2408   -1.0757   -0.4855 H   0  0  0  0  0  0  0  0  0  0  0  0
    0.3747    0.1728    0.8089 H   0  0  0  0  0  0  0  0  0  0  0  0
    2.1871   -3.5194    2.7023 H   0  0  0  0  0  0  0  0  0  0  0  0
    4.6570   -3.5312    2.7089 H   0  0  0  0  0  0  0  0  0  0  0  0
    7.6980    2.4882    0.8874 H   0  0  0  0  0  0  0  0  0  0  0  0
   10.1601    2.7687    0.9527 H   0  0  0  0  0  0  0  0  0  0  0  0
   11.5356    1.5579   -0.6295 H   0  0  0  0  0  0  0  0  0  0  0  0
   10.4530    0.0308   -2.3205 H   0  0  0  0  0  0  0  0  0  0  0  0
    2.2954   -0.1595    0.0464 H   0  0  0  0  0  0  0  0  0  0  0  0
   -1.6845   -0.1929   -1.8064 H   0  0  0  0  0  0  0  0  0  0  0  0
   -0.9059    1.9272    0.0714 H   0  0  0  0  0  0  0  0  0  0  0  0
   -0.0402    1.1040   -1.2637 H   0  0  0  0  0  0  0  0  0  0  0  0
   -1.1455    2.4682   -1.6180 H   0  0  0  0  0  0  0  0  0  0  0  0
   -3.9408    0.4152   -2.3681 H   0  0  0  0  0  0  0  0  0  0  0  0
   -3.5870    2.1342   -1.7139 H   0  0  0  0  0  0  0  0  0  0  0  0
   -2.6815    1.4235   -3.0178 H   0  0  0  0  0  0  0  0  0  0  0  0
  1  2  1  0
  2  3  1  0
  3  4  2  0
  4  5  1  0
  5  6  2  0
  6  7  1  0
  7  8  2  0
  6  9  1  0
  9 10  1  0
 10 11  1  0
 11 12  2  0
 12 13  1  0
 13 14  1  0
 14 15  1  0
 15 16  2  0
 16 17  1  0
 17 18  2  0
 18 19  1  0
 19 20  2  0
 20 21  1  0
 21 22  1  0
 22 23  2  0
 23 24  1  0
 24 25  2  0
 25 26  1  0
 26 27  2  0
 27 28  1  0
 20 29  1  0
 29 30  2  0
 12 31  1  0
 31 32  1  0
 32 33  1  0
 32 34  1  0
  8  3  1  0
 31  9  2  0
 30 15  1  0
 29 18  1  0
 27 22  1  0
  1 35  1  0
  1 36  1  0
  1 37  1  0
  4 38  1  0
  5 39  1  0
  7 40  1  0
  8 41  1  0
 10 42  1  0
 13 43  1  0
 13 44  1  0
 16 45  1  0
 17 46  1  0
 23 47  1  0
 24 48  1  0
 25 49  1  0
 26 50  1  0
 30 51  1  0
 32 52  1  0
 33 53  1  0
 33 54  1  0
 33 55  1  0
 34 56  1  0
 34 57  1  0
 34 58  1  0
M  END
$$$$
[H]C1=C(C([H])([H])[H])C([H])([N+](=O)[O-])C([H])(c2c([H])c([H])c(Oc3c([H])c([H])c([H])c([H])c3[H])c([H])c2[H])C1([H])N([H])C(=O)C([H])([H])[H]
     RDKit          3D

 46 48  0  0  0  0  0  0  0  0999 V2000
   -2.7968    2.2262   -2.9293 C   0  0  0  0  0  0  0  0  0  0  0  0
   -2.7042    0.7908   -2.5621 C   0  0  0  0  0  0  0  0  0  0  0  0
   -2.4513   -0.0493   -3.4646 O   0  0  0  0  0  0  0  0  0  0  0  0
   -2.8883    0.3277   -1.2408 N   0  0  0  0  0  0  0  0  0  0  0  0
   -2.7979   -1.0537   -0.8948 C   0  0  0  0  0  0  0  0  0  0  0  0
   -4.0150   -1.3917   -0.1099 C   0  0  0  0  0  0  0  0  0  0  0  0
   -3.7998   -1.1456    1.1763 C   0  0  0  0  0  0  0  0  0  0  0  0
   -4.7853   -1.3575    2.2754 C   0  0  0  0  0  0  0  0  0  0  0  0
   -2.3847   -0.6219    1.3501 C   0  0  0  0  0  0  0  0  0  0  0  0
   -1.7048   -1.2126    0.1562 C   0  0  0  0  0  0  0  0  0  0  0  0
   -0.4112   -0.6968   -0.2139 C   0  0  0  0  0  0  0  0  0  0  0  0
    0.6177   -1.6102   -0.4821 C   0  0  0  0  0  0  0  0  0  0  0  0
    1.8810   -1.2220   -0.8348 C   0  0  0  0  0  0  0  0  0  0  0  0
    2.2023    0.1125   -0.9439 C   0  0  0  0  0  0  0  0  0  0  0  0
    3.5044    0.5155   -1.3077 O   0  0  0  0  0  0  0  0  0  0  0  0
    4.4409    0.7232   -0.2910 C   0  0  0  0  0  0  0  0  0  0  0  0
    4.0952    0.5375    1.0320 C   0  0  0  0  0  0  0  0  0  0  0  0
    5.0562    0.7566    1.9833 C   0  0  0  0  0  0  0  0  0  0  0  0
    6.3246    1.1484    1.6384 C   0  0  0  0  0  0  0  0  0  0  0  0
    6.6782    1.3365    0.3123 C   0  0  0  0  0  0  0  0  0  0  0  0
    5.7186    1.1175   -0.6329 C   0  0  0  0  0  0  0  0  0  0  0  0
    1.2201    1.0357   -0.6887 C   0  0  0  0  0  0  0  0  0  0  0  0
   -0.0348    0.6217   -0.3377 C   0  0  0  0  0  0  0  0  0  0  0  0
   -1.8451   -1.1648    2.5814 N   0  0  0  0  0  0  0  0  0  0  0  0
   -2.3989   -0.9473    3.7975 O   0  0  0  0  0  0  0  0  0  0  0  0
   -0.8091   -1.8764    2.5312 O   0  0  0  0  0  0  0  0  0  0  0  0
   -3.5125    2.3360   -3.7864 H   0  0  0  0  0  0  0  0  0  0  0  0
   -3.0677    2.8613   -2.0827 H   0  0  0  0  0  0  0  0  0  0  0  0
   -1.7885    2.5411   -3.3050 H   0  0  0  0  0  0  0  0  0  0  0  0
   -3.1035    1.0230   -0.4970 H   0  0  0  0  0  0  0  0  0  0  0  0
   -2.6199   -1.7191   -1.7609 H   0  0  0  0  0  0  0  0  0  0  0  0
   -4.9687   -1.7878   -0.4986 H   0  0  0  0  0  0  0  0  0  0  0  0
   -4.9798   -0.4171    2.8397 H   0  0  0  0  0  0  0  0  0  0  0  0
   -5.7451   -1.6666    1.8440 H   0  0  0  0  0  0  0  0  0  0  0  0
   -4.4295   -2.1142    3.0097 H   0  0  0  0  0  0  0  0  0  0  0  0
   -2.4726    0.4590    1.3569 H   0  0  0  0  0  0  0  0  0  0  0  0
   -1.6093   -2.3227    0.3626 H   0  0  0  0  0  0  0  0  0  0  0  0
    0.4213   -2.6799   -0.4114 H   0  0  0  0  0  0  0  0  0  0  0  0
    2.6847   -1.9317   -1.0442 H   0  0  0  0  0  0  0  0  0  0  0  0
    3.0821    0.2270    1.2695 H   0  0  0  0  0  0  0  0  0  0  0  0
    4.7683    0.6061    3.0193 H   0  0  0  0  0  0  0  0  0  0  0  0
    7.0425    1.3058    2.4455 H   0  0  0  0  0  0  0  0  0  0  0  0
    7.6897    1.6452    0.0966 H   0  0  0  0  0  0  0  0  0  0  0  0
    6.0089    1.2689   -1.6754 H   0  0  0  0  0  0  0  0  0  0  0  0
    1.4770    2.0981   -0.7758 H   0  0  0  0  0  0  0  0  0  0  0  0
   -0.7890    1.3676   -0.1374 H   0  0  0  0  0  0  0  0  0  0  0  0
  1  2  1  0
  2  3  2  0
  2  4  1  0
  4  5  1  0
  5  6  1  0
  6  7  2  0
  7  8  1  0
  7  9  1  0
  9 10  1  0
 10 11  1  0
 11 12  2  0
 12 13  1  0
 13 14  2  0
 14 15  1  0
 15 16  1  0
 16 17  2  0
 17 18  1  0
 18 19  2  0
 19 20  1  0
 20 21  2  0
 14 22  1  0
 22 23  2  0
  9 24  1  0
 24 25  1  0
 24 26  2  0
 10  5  1  0
 23 11  1  0
 21 16  1  0
  1 27  1  0
  1 28  1  0
  1 29  1  0
  4 30  1  0
  5 31  1  0
  6 32  1  0
  8 33  1  0
  8 34  1  0
  8 35  1  0
  9 36  1  0
 10 37  1  0
 12 38  1  0
 13 39  1  0
 17 40  1  0
 18 41  1  0
 19 42  1  0
 20 43  1  0
 21 44  1  0
 22 45  1  0
 23 46  1  0
M  CHG  2  24   1  25  -1
M  END
$$$$
[H]N([H])c1nc(N([H])[H])c(C([H])([H])N([H])C(=O)C([H])([H])N2C([H])([H])C([H])([H])C([H])([H])C([H])([H])C2([H])[H])c(C([H])([H])[H])n1
     RDKit          3D

 42 43  0  0  0  0  0  0  0  0999 V2000
    4.6833   -1.5111    1.4828 C   0  0  0  0  0  0  0  0  0  0  0  0
    4.3952   -0.3845    0.6077 C   0  0  0  0  0  0  0  0  0  0  0  0
    5.4305    0.4029    0.3001 N   0  0  0  0  0  0  0  0  0  0  0  0
    5.2316    1.4352   -0.5573 C   0  0  0  0  0  0  0  0  0  0  0  0
    6.3575    2.2580   -0.8506 N   0  0  0  0  0  0  0  0  0  0  0  0
    4.0593    1.6644   -1.0786 N   0  0  0  0  0  0  0  0  0  0  0  0
    2.9847    0.8777   -0.7606 C   0  0  0  0  0  0  0  0  0  0  0  0
    1.7232    1.1970   -1.3250 N   0  0  0  0  0  0  0  0  0  0  0  0
    3.1022   -0.1966    0.1063 C   0  0  0  0  0  0  0  0  0  0  0  0
    2.0613   -1.0038    0.6194 C   0  0  0  0  0  0  0  0  0  0  0  0
    0.7373   -0.9990    0.1868 N   0  0  0  0  0  0  0  0  0  0  0  0
   -0.5342   -1.0013   -0.2426 C   0  0  0  0  0  0  0  0  0  0  0  0
   -0.9541   -1.5349   -1.2949 O   0  0  0  0  0  0  0  0  0  0  0  0
   -1.5382   -0.2707    0.6270 C   0  0  0  0  0  0  0  0  0  0  0  0
   -2.8478   -0.2389    0.1862 N   0  0  0  0  0  0  0  0  0  0  0  0
   -3.6992   -1.3134    0.0488 C   0  0  0  0  0  0  0  0  0  0  0  0
   -5.1200   -0.9319    0.3640 C   0  0  0  0  0  0  0  0  0  0  0  0
   -5.5800    0.2378   -0.4848 C   0  0  0  0  0  0  0  0  0  0  0  0
   -4.5108    1.3648   -0.5151 C   0  0  0  0  0  0  0  0  0  0  0  0
   -3.5022    1.0107    0.5532 C   0  0  0  0  0  0  0  0  0  0  0  0
    3.9150   -1.8856    2.1472 H   0  0  0  0  0  0  0  0  0  0  0  0
    5.6084   -1.2420    2.1044 H   0  0  0  0  0  0  0  0  0  0  0  0
    5.1037   -2.3534    0.8393 H   0  0  0  0  0  0  0  0  0  0  0  0
    6.7088    2.9734   -0.1438 H   0  0  0  0  0  0  0  0  0  0  0  0
    6.8251    2.1414   -1.7685 H   0  0  0  0  0  0  0  0  0  0  0  0
    1.3358    0.7199   -2.1530 H   0  0  0  0  0  0  0  0  0  0  0  0
    1.1366    1.9256   -0.8877 H   0  0  0  0  0  0  0  0  0  0  0  0
    2.4327   -2.1051    0.7515 H   0  0  0  0  0  0  0  0  0  0  0  0
    2.0144   -0.7581    1.7435 H   0  0  0  0  0  0  0  0  0  0  0  0
    1.2133   -1.4905   -1.0228 H   0  0  0  0  0  0  0  0  0  0  0  0
   -1.4005   -0.6021    1.6470 H   0  0  0  0  0  0  0  0  0  0  0  0
   -1.1277    0.7984    0.6105 H   0  0  0  0  0  0  0  0  0  0  0  0
   -3.4596   -2.1661    0.7800 H   0  0  0  0  0  0  0  0  0  0  0  0
   -3.7646   -1.7394   -1.0030 H   0  0  0  0  0  0  0  0  0  0  0  0
   -5.2620   -0.7153    1.4380 H   0  0  0  0  0  0  0  0  0  0  0  0
   -5.7414   -1.8060    0.0529 H   0  0  0  0  0  0  0  0  0  0  0  0
   -5.8775   -0.0354   -1.4930 H   0  0  0  0  0  0  0  0  0  0  0  0
   -6.4632    0.7356    0.0171 H   0  0  0  0  0  0  0  0  0  0  0  0
   -4.9654    2.3359   -0.1757 H   0  0  0  0  0  0  0  0  0  0  0  0
   -4.0075    1.4525   -1.4956 H   0  0  0  0  0  0  0  0  0  0  0  0
   -2.7206    1.7903    0.5761 H   0  0  0  0  0  0  0  0  0  0  0  0
   -3.9834    0.9636    1.5213 H   0  0  0  0  0  0  0  0  0  0  0  0
  1  2  1  0
  2  3  2  0
  3  4  1  0
  4  5  1  0
  4  6  2  0
  6  7  1  0
  7  8  1  0
  7  9  2  0
  9 10  1  0
 10 11  1  0
 11 12  1  0
 12 13  2  0
 12 14  1  0
 14 15  1  0
 15 16  1  0
 16 17  1  0
 17 18  1  0
 18 19  1  0
 19 20  1  0
  9  2  1  0
 20 15  1  0
  1 21  1  0
  1 22  1  0
  1 23  1  0
  5 24  1  0
  5 25  1  0
  8 26  1  0
  8 27  1  0
 10 28  1  0
 10 29  1  0
 11 30  1  0
 14 31  1  0
 14 32  1  0
 16 33  1  0
 16 34  1  0
 17 35  1  0
 17 36  1  0
 18 37  1  0
 18 38  1  0
 19 39  1  0
 19 40  1  0
 20 41  1  0
 20 42  1  0
M  END
$$$$
[H]Oc1c([H])c([H])c(C#Cc2c([H])c3c([H])c([H])c(N4C([H])([H])C([H])([H])C([H])([H])C([H])(C([H])([H])[H])C([H])([H])C4([H])[H])c([H])c3c3c([H])c([H])c(C([H])([H])C(C([H])([H])[H])(C([H])([H])[H])C([H])([H])[H])c([H])c23)c([H])c1[H]
     RDKit          3D

 73 77  0  0  0  0  0  0  0  0999 V2000
    7.6122   -2.3833   -0.5334 C   0  0  0  0  0  0  0  0  0  0  0  0
    6.7602   -1.4392    0.2922 C   0  0  0  0  0  0  0  0  0  0  0  0
    7.4408   -0.0876    0.3328 C   0  0  0  0  0  0  0  0  0  0  0  0
    6.7683    0.8719    1.2591 C   0  0  0  0  0  0  0  0  0  0  0  0
    5.7334    1.7433    0.5764 C   0  0  0  0  0  0  0  0  0  0  0  0
    4.8003    0.9782   -0.2211 N   0  0  0  0  0  0  0  0  0  0  0  0
    5.1245   -0.1353   -1.0844 C   0  0  0  0  0  0  0  0  0  0  0  0
    5.3624   -1.3750   -0.2720 C   0  0  0  0  0  0  0  0  0  0  0  0
    3.4570    1.4086   -0.1298 C   0  0  0  0  0  0  0  0  0  0  0  0
    3.2008    2.7116    0.2090 C   0  0  0  0  0  0  0  0  0  0  0  0
    1.8957    3.1351    0.3178 C   0  0  0  0  0  0  0  0  0  0  0  0
    0.8906    2.2194    0.0783 C   0  0  0  0  0  0  0  0  0  0  0  0
   -0.3989    2.6312    0.1839 C   0  0  0  0  0  0  0  0  0  0  0  0
   -1.4389    1.7529   -0.0460 C   0  0  0  0  0  0  0  0  0  0  0  0
   -2.8121    2.2078    0.0707 C   0  0  0  0  0  0  0  0  0  0  0  0
   -3.9551    2.5945    0.1484 C   0  0  0  0  0  0  0  0  0  0  0  0
   -5.3124    3.0731    0.2278 C   0  0  0  0  0  0  0  0  0  0  0  0
   -5.8897    3.4628    1.4223 C   0  0  0  0  0  0  0  0  0  0  0  0
   -7.1888    3.9217    1.5031 C   0  0  0  0  0  0  0  0  0  0  0  0
   -7.9616    4.0040    0.3611 C   0  0  0  0  0  0  0  0  0  0  0  0
   -9.2728    4.4560    0.3728 O   0  0  0  0  0  0  0  0  0  0  0  0
   -7.4208    3.6257   -0.8408 C   0  0  0  0  0  0  0  0  0  0  0  0
   -6.1206    3.1701   -0.8981 C   0  0  0  0  0  0  0  0  0  0  0  0
   -1.2265    0.4515   -0.3846 C   0  0  0  0  0  0  0  0  0  0  0  0
   -2.2866   -0.3970   -0.6069 C   0  0  0  0  0  0  0  0  0  0  0  0
   -2.0584   -1.7150   -0.9499 C   0  0  0  0  0  0  0  0  0  0  0  0
   -3.1414   -2.6783   -1.2021 C   0  0  0  0  0  0  0  0  0  0  0  0
   -3.5861   -3.4214    0.0297 C   0  0  0  0  0  0  0  0  0  0  0  0
   -2.4557   -4.2164    0.6484 C   0  0  0  0  0  0  0  0  0  0  0  0
   -4.6243   -4.4478   -0.4314 C   0  0  0  0  0  0  0  0  0  0  0  0
   -4.2422   -2.5547    1.0507 C   0  0  0  0  0  0  0  0  0  0  0  0
   -0.7409   -2.1307   -1.0565 C   0  0  0  0  0  0  0  0  0  0  0  0
    0.3312   -1.2810   -0.8339 C   0  0  0  0  0  0  0  0  0  0  0  0
    0.1006    0.0241   -0.4942 C   0  0  0  0  0  0  0  0  0  0  0  0
    1.1501    0.8927   -0.2668 C   0  0  0  0  0  0  0  0  0  0  0  0
    2.4493    0.4889   -0.3702 C   0  0  0  0  0  0  0  0  0  0  0  0
    7.1574   -3.3967   -0.5264 H   0  0  0  0  0  0  0  0  0  0  0  0
    8.6450   -2.3744   -0.1250 H   0  0  0  0  0  0  0  0  0  0  0  0
    7.6450   -1.9716   -1.5832 H   0  0  0  0  0  0  0  0  0  0  0  0
    6.6854   -1.8047    1.3331 H   0  0  0  0  0  0  0  0  0  0  0  0
    7.6784    0.3052   -0.6594 H   0  0  0  0  0  0  0  0  0  0  0  0
    8.4526   -0.2999    0.7993 H   0  0  0  0  0  0  0  0  0  0  0  0
    6.2821    0.3081    2.0789 H   0  0  0  0  0  0  0  0  0  0  0  0
    7.5122    1.5676    1.7081 H   0  0  0  0  0  0  0  0  0  0  0  0
    5.1413    2.1938    1.4238 H   0  0  0  0  0  0  0  0  0  0  0  0
    6.1919    2.5788    0.0441 H   0  0  0  0  0  0  0  0  0  0  0  0
    5.9897    0.1042   -1.7505 H   0  0  0  0  0  0  0  0  0  0  0  0
    4.2901   -0.3372   -1.7825 H   0  0  0  0  0  0  0  0  0  0  0  0
    4.5970   -1.4077    0.5330 H   0  0  0  0  0  0  0  0  0  0  0  0
    5.1774   -2.2511   -0.9289 H   0  0  0  0  0  0  0  0  0  0  0  0
    3.9726    3.4436    0.3946 H   0  0  0  0  0  0  0  0  0  0  0  0
    1.6676    4.1415    0.5797 H   0  0  0  0  0  0  0  0  0  0  0  0
   -0.5972    3.6605    0.4516 H   0  0  0  0  0  0  0  0  0  0  0  0
   -5.3193    3.4140    2.3397 H   0  0  0  0  0  0  0  0  0  0  0  0
   -7.6162    4.2212    2.4557 H   0  0  0  0  0  0  0  0  0  0  0  0
   -9.4855    5.4464    0.2458 H   0  0  0  0  0  0  0  0  0  0  0  0
   -8.0275    3.6900   -1.7390 H   0  0  0  0  0  0  0  0  0  0  0  0
   -5.7373    2.8831   -1.8677 H   0  0  0  0  0  0  0  0  0  0  0  0
   -3.2809   -0.0076   -0.5067 H   0  0  0  0  0  0  0  0  0  0  0  0
   -2.8407   -3.4619   -1.9539 H   0  0  0  0  0  0  0  0  0  0  0  0
   -4.0141   -2.1682   -1.6576 H   0  0  0  0  0  0  0  0  0  0  0  0
   -1.6885   -3.5736    1.1034 H   0  0  0  0  0  0  0  0  0  0  0  0
   -2.0375   -4.9300   -0.0982 H   0  0  0  0  0  0  0  0  0  0  0  0
   -2.8730   -4.8448    1.4617 H   0  0  0  0  0  0  0  0  0  0  0  0
   -5.5545   -3.9532   -0.7701 H   0  0  0  0  0  0  0  0  0  0  0  0
   -4.2043   -5.0102   -1.2896 H   0  0  0  0  0  0  0  0  0  0  0  0
   -4.8226   -5.2034    0.3655 H   0  0  0  0  0  0  0  0  0  0  0  0
   -5.3074   -2.3346    0.7472 H   0  0  0  0  0  0  0  0  0  0  0  0
   -4.3465   -3.1632    1.9844 H   0  0  0  0  0  0  0  0  0  0  0  0
   -3.7197   -1.6285    1.2895 H   0  0  0  0  0  0  0  0  0  0  0  0
   -0.5597   -3.1769   -1.3287 H   0  0  0  0  0  0  0  0  0  0  0  0
    1.3064   -1.7142   -0.9456 H   0  0  0  0  0  0  0  0  0  0  0  0
    2.6966   -0.5072   -0.6220 H   0  0  0  0  0  0  0  0  0  0  0  0
  1  2  1  0
  2  3  1  0
  3  4  1  0
  4  5  1  0
  5  6  1  0
  6  7  1  0
  7  8  1  0
  6  9  1  0
  9 10  2  0
 10 11  1  0
 11 12  2  0
 12 13  1  0
 13 14  2  0
 14 15  1  0
 15 16  3  0
 16 17  1  0
 17 18  2  0
 18 19  1  0
 19 20  2  0
 20 21  1  0
 20 22  1  0
 22 23  2  0
 14 24  1  0
 24 25  2  0
 25 26  1  0
 26 27  1  0
 27 28  1  0
 28 29  1  0
 28 30  1  0
 28 31  1  0
 26 32  2  0
 32 33  1  0
 33 34  2  0
 34 35  1  0
 35 36  2  0
  8  2  1  0
 36  9  1  0
 35 12  1  0
 23 17  1  0
 34 24  1  0
  1 37  1  0
  1 38  1  0
  1 39  1  0
  2 40  1  0
  3 41  1  0
  3 42  1  0
  4 43  1  0
  4 44  1  0
  5 45  1  0
  5 46  1  0
  7 47  1  0
  7 48  1  0
  8 49  1  0
  8 50  1  0
 10 51  1  0
 11 52  1  0
 13 53  1  0
 18 54  1  0
 19 55  1  0
 21 56  1  0
 22 57  1  0
 23 58  1  0
 25 59  1  0
 27 60  1  0
 27 61  1  0
 29 62  1  0
 29 63  1  0
 29 64  1  0
 30 65  1  0
 30 66  1  0
 30 67  1  0
 31 68  1  0
 31 69  1  0
 31 70  1  0
 32 71  1  0
 33 72  1  0
 36 73  1  0
M  END
$$$$
[H]c1nn2c([H])c(C([H])(N(c3c([H])c([H])c([H])c([H])c3[H])C([H])([H])C([H])([H])C([H])([H])c3c([H])c([H])c([H])c([H])c3[H])C([H])([H])C([H])([H])[H])nc2nc1-c1c([H])c([H])c([H])c([H])c1[H]
     RDKit          3D

 63 67  0  0  0  0  0  0  0  0999 V2000
   -0.2318    3.3592    0.4014 C   0  0  0  0  0  0  0  0  0  0  0  0
   -0.1793    2.8452    1.7996 C   0  0  0  0  0  0  0  0  0  0  0  0
   -0.1708    1.3574    1.9532 C   0  0  0  0  0  0  0  0  0  0  0  0
   -1.3542    0.6977    1.3862 N   0  0  0  0  0  0  0  0  0  0  0  0
   -2.6236    1.1572    1.8700 C   0  0  0  0  0  0  0  0  0  0  0  0
   -3.8648    0.6204    1.2810 C   0  0  0  0  0  0  0  0  0  0  0  0
   -4.1079    0.9142   -0.1686 C   0  0  0  0  0  0  0  0  0  0  0  0
   -5.4247    0.2676   -0.5010 C   0  0  0  0  0  0  0  0  0  0  0  0
   -6.6308    0.9167   -0.3725 C   0  0  0  0  0  0  0  0  0  0  0  0
   -7.8134    0.2616   -0.6969 C   0  0  0  0  0  0  0  0  0  0  0  0
   -7.8214   -1.0400   -1.1515 C   0  0  0  0  0  0  0  0  0  0  0  0
   -6.6069   -1.6840   -1.2776 C   0  0  0  0  0  0  0  0  0  0  0  0
   -5.4368   -1.0336   -0.9557 C   0  0  0  0  0  0  0  0  0  0  0  0
   -1.1394   -0.3528    0.4757 C   0  0  0  0  0  0  0  0  0  0  0  0
   -0.5250   -0.2536   -0.7478 C   0  0  0  0  0  0  0  0  0  0  0  0
   -0.3688   -1.3427   -1.5582 C   0  0  0  0  0  0  0  0  0  0  0  0
   -0.8229   -2.6089   -1.1884 C   0  0  0  0  0  0  0  0  0  0  0  0
   -1.4426   -2.7332    0.0355 C   0  0  0  0  0  0  0  0  0  0  0  0
   -1.5910   -1.6310    0.8365 C   0  0  0  0  0  0  0  0  0  0  0  0
    1.1061    0.7591    1.5305 C   0  0  0  0  0  0  0  0  0  0  0  0
    1.5787   -0.5203    1.7288 C   0  0  0  0  0  0  0  0  0  0  0  0
    2.8074   -0.6613    1.1591 N   0  0  0  0  0  0  0  0  0  0  0  0
    3.6531   -1.6754    1.0787 N   0  0  0  0  0  0  0  0  0  0  0  0
    4.8531   -1.5941    0.4478 C   0  0  0  0  0  0  0  0  0  0  0  0
    5.1846   -0.3926   -0.1272 C   0  0  0  0  0  0  0  0  0  0  0  0
    4.2929    0.6221   -0.0238 N   0  0  0  0  0  0  0  0  0  0  0  0
    3.1123    0.5183    0.6049 C   0  0  0  0  0  0  0  0  0  0  0  0
    2.1057    1.3754    0.8192 N   0  0  0  0  0  0  0  0  0  0  0  0
    6.4385   -0.1711   -0.8339 C   0  0  0  0  0  0  0  0  0  0  0  0
    6.6454    1.0974   -1.3716 C   0  0  0  0  0  0  0  0  0  0  0  0
    7.7957    1.4062   -2.0583 C   0  0  0  0  0  0  0  0  0  0  0  0
    8.7375    0.4061   -2.1924 C   0  0  0  0  0  0  0  0  0  0  0  0
    8.5469   -0.8493   -1.6673 C   0  0  0  0  0  0  0  0  0  0  0  0
    7.3925   -1.1588   -0.9784 C   0  0  0  0  0  0  0  0  0  0  0  0
   -0.9742    2.8055   -0.2224 H   0  0  0  0  0  0  0  0  0  0  0  0
   -0.5837    4.4320    0.3624 H   0  0  0  0  0  0  0  0  0  0  0  0
    0.7604    3.3863   -0.1078 H   0  0  0  0  0  0  0  0  0  0  0  0
    0.8174    3.1909    2.2137 H   0  0  0  0  0  0  0  0  0  0  0  0
   -0.9164    3.3417    2.4741 H   0  0  0  0  0  0  0  0  0  0  0  0
   -0.2993    1.1650    3.0671 H   0  0  0  0  0  0  0  0  0  0  0  0
   -2.7097    0.9798    2.9903 H   0  0  0  0  0  0  0  0  0  0  0  0
   -2.5839    2.2918    1.7245 H   0  0  0  0  0  0  0  0  0  0  0  0
   -3.9901   -0.4642    1.5155 H   0  0  0  0  0  0  0  0  0  0  0  0
   -4.7794    1.0716    1.8099 H   0  0  0  0  0  0  0  0  0  0  0  0
   -3.3403    0.6577   -0.8726 H   0  0  0  0  0  0  0  0  0  0  0  0
   -4.3437    2.0234   -0.2163 H   0  0  0  0  0  0  0  0  0  0  0  0
   -6.6496    1.9321   -0.0203 H   0  0  0  0  0  0  0  0  0  0  0  0
   -8.7723    0.7463   -0.6055 H   0  0  0  0  0  0  0  0  0  0  0  0
   -8.7457   -1.5440   -1.4017 H   0  0  0  0  0  0  0  0  0  0  0  0
   -6.5966   -2.7052   -1.6332 H   0  0  0  0  0  0  0  0  0  0  0  0
   -4.5096   -1.5679   -1.0665 H   0  0  0  0  0  0  0  0  0  0  0  0
   -0.1500    0.6859   -1.1042 H   0  0  0  0  0  0  0  0  0  0  0  0
    0.1141   -1.2997   -2.5345 H   0  0  0  0  0  0  0  0  0  0  0  0
   -0.6910   -3.4592   -1.8431 H   0  0  0  0  0  0  0  0  0  0  0  0
   -1.8026   -3.7021    0.3457 H   0  0  0  0  0  0  0  0  0  0  0  0
   -2.0684   -1.7434    1.8043 H   0  0  0  0  0  0  0  0  0  0  0  0
    1.1238   -1.3313    2.2450 H   0  0  0  0  0  0  0  0  0  0  0  0
    5.5241   -2.4382    0.3974 H   0  0  0  0  0  0  0  0  0  0  0  0
    5.8956    1.8943   -1.2646 H   0  0  0  0  0  0  0  0  0  0  0  0
    7.9721    2.3967   -2.4851 H   0  0  0  0  0  0  0  0  0  0  0  0
    9.6359    0.6666   -2.7357 H   0  0  0  0  0  0  0  0  0  0  0  0
    9.3264   -1.5785   -1.8119 H   0  0  0  0  0  0  0  0  0  0  0  0
    7.2424   -2.1577   -0.5610 H   0  0  0  0  0  0  0  0  0  0  0  0
  1  2  1  0
  2  3  1  0
  3  4  1  0
  4  5  1  0
  5  6  1  0
  6  7  1  0
  7  8  1  0
  8  9  2  0
  9 10  1  0
 10 11  2  0
 11 12  1  0
 12 13  2  0
  4 14  1  0
 14 15  2  0
 15 16  1  0
 16 17  2  0
 17 18  1  0
 18 19  2  0
  3 20  1  0
 20 21  2  0
 21 22  1  0
 22 23  1  0
 23 24  2  0
 24 25  1  0
 25 26  2  0
 26 27  1  0
 27 28  2  0
 25 29  1  0
 29 30  2  0
 30 31  1  0
 31 32  2  0
 32 33  1  0
 33 34  2  0
 13  8  1  0
 19 14  1  0
 28 20  1  0
 34 29  1  0
 27 22  1  0
  1 35  1  0
  1 36  1  0
  1 37  1  0
  2 38  1  0
  2 39  1  0
  3 40  1  0
  5 41  1  0
  5 42  1  0
  6 43  1  0
  6 44  1  0
  7 45  1  0
  7 46  1  0
  9 47  1  0
 10 48  1  0
 11 49  1  0
 12 50  1  0
 13 51  1  0
 15 52  1  0
 16 53  1  0
 17 54  1  0
 18 55  1  0
 19 56  1  0
 21 57  1  0
 24 58  1  0
 30 59  1  0
 31 60  1  0
 32 61  1  0
 33 62  1  0
 34 63  1  0
M  END
$$$$
[H]/C(=C(/c1c([H])c([H])c(Cl)c(Cl)c1[H])c1nn(N2C([H])([H])C([H])([H])OC([H])([H])C2([H])[H])c2c([H])c([H])c(-c3nc([H])n([H])c3[H])c([H])c12)C([H])([H])N(C([H])([H])[H])C([H])([H])[H]
     RDKit          3D

 60 64  0  0  0  0  0  0  0  0999 V2000
    5.9256    0.2545   -0.1636 C   0  0  0  0  0  0  0  0  0  0  0  0
    4.5423   -0.0439    0.3118 N   0  0  0  0  0  0  0  0  0  0  0  0
    4.3564    1.0411    1.3423 C   0  0  0  0  0  0  0  0  0  0  0  0
    3.6834    0.2388   -0.7564 C   0  0  0  0  0  0  0  0  0  0  0  0
    2.2917   -0.0588   -0.8281 C   0  0  0  0  0  0  0  0  0  0  0  0
    1.4696   -0.7481   -0.1388 C   0  0  0  0  0  0  0  0  0  0  0  0
    1.8057   -1.5358    1.0330 C   0  0  0  0  0  0  0  0  0  0  0  0
    2.8698   -2.3638    1.1743 C   0  0  0  0  0  0  0  0  0  0  0  0
    3.1142   -2.9695    2.3853 C   0  0  0  0  0  0  0  0  0  0  0  0
    2.2878   -2.7525    3.4748 C   0  0  0  0  0  0  0  0  0  0  0  0
    2.5725   -3.5006    5.0434 Cl  0  0  0  0  0  0  0  0  0  0  0  0
    1.1920   -1.9194    3.3732 C   0  0  0  0  0  0  0  0  0  0  0  0
    0.1110   -1.6088    4.7411 Cl  0  0  0  0  0  0  0  0  0  0  0  0
    0.9838   -1.3338    2.1487 C   0  0  0  0  0  0  0  0  0  0  0  0
   -0.0102   -0.6742   -0.4344 C   0  0  0  0  0  0  0  0  0  0  0  0
   -0.8716   -1.6205   -0.1528 N   0  0  0  0  0  0  0  0  0  0  0  0
   -2.1088   -1.1897   -0.4330 N   0  0  0  0  0  0  0  0  0  0  0  0
   -2.0268    0.0483   -0.8946 C   0  0  0  0  0  0  0  0  0  0  0  0
   -2.9811    0.9691   -1.2892 C   0  0  0  0  0  0  0  0  0  0  0  0
   -2.6345    2.2474   -1.6974 C   0  0  0  0  0  0  0  0  0  0  0  0
   -1.3144    2.6258   -1.7160 C   0  0  0  0  0  0  0  0  0  0  0  0
   -0.3769    1.6863   -1.3162 C   0  0  0  0  0  0  0  0  0  0  0  0
   -0.6647    0.4104   -0.9059 C   0  0  0  0  0  0  0  0  0  0  0  0
   -0.9301    3.9659   -2.1361 C   0  0  0  0  0  0  0  0  0  0  0  0
    0.3212    4.4322   -2.1875 N   0  0  0  0  0  0  0  0  0  0  0  0
    0.2927    5.7290   -2.6218 C   0  0  0  0  0  0  0  0  0  0  0  0
   -0.9907    6.0433   -2.8328 N   0  0  0  0  0  0  0  0  0  0  0  0
   -1.7689    4.9584   -2.5361 C   0  0  0  0  0  0  0  0  0  0  0  0
   -3.1907   -2.0177   -0.2042 N   0  0  0  0  0  0  0  0  0  0  0  0
   -4.5570   -1.8523   -0.6092 C   0  0  0  0  0  0  0  0  0  0  0  0
   -5.3411   -1.4891    0.6425 C   0  0  0  0  0  0  0  0  0  0  0  0
   -4.9755   -2.3421    1.6767 O   0  0  0  0  0  0  0  0  0  0  0  0
   -4.3178   -3.4808    1.3019 C   0  0  0  0  0  0  0  0  0  0  0  0
   -2.9986   -3.2609    0.6097 C   0  0  0  0  0  0  0  0  0  0  0  0
    6.5288    0.4831    0.7381 H   0  0  0  0  0  0  0  0  0  0  0  0
    5.9223    1.0481   -0.9132 H   0  0  0  0  0  0  0  0  0  0  0  0
    6.3837   -0.6762   -0.5803 H   0  0  0  0  0  0  0  0  0  0  0  0
    3.2708    1.2112    1.4969 H   0  0  0  0  0  0  0  0  0  0  0  0
    4.8448    1.9650    1.0265 H   0  0  0  0  0  0  0  0  0  0  0  0
    4.8325    0.6925    2.2684 H   0  0  0  0  0  0  0  0  0  0  0  0
    3.7425    1.4054   -0.8614 H   0  0  0  0  0  0  0  0  0  0  0  0
    4.2147   -0.0104   -1.7671 H   0  0  0  0  0  0  0  0  0  0  0  0
    1.7808    0.3575   -1.7990 H   0  0  0  0  0  0  0  0  0  0  0  0
    3.5195   -2.6061    0.3305 H   0  0  0  0  0  0  0  0  0  0  0  0
    3.9768   -3.6408    2.5113 H   0  0  0  0  0  0  0  0  0  0  0  0
    0.1088   -0.6762    2.0879 H   0  0  0  0  0  0  0  0  0  0  0  0
   -4.0322    0.7260   -1.2704 H   0  0  0  0  0  0  0  0  0  0  0  0
   -3.3551    2.9896   -2.0126 H   0  0  0  0  0  0  0  0  0  0  0  0
    0.6435    2.0252   -1.3069 H   0  0  0  0  0  0  0  0  0  0  0  0
    1.1742    6.3695   -2.7626 H   0  0  0  0  0  0  0  0  0  0  0  0
   -1.3299    6.9703   -3.1689 H   0  0  0  0  0  0  0  0  0  0  0  0
   -2.8326    4.8780   -2.5949 H   0  0  0  0  0  0  0  0  0  0  0  0
   -4.7271   -1.2583   -1.4802 H   0  0  0  0  0  0  0  0  0  0  0  0
   -4.9543   -2.8904   -0.9057 H   0  0  0  0  0  0  0  0  0  0  0  0
   -5.0103   -0.4654    0.9841 H   0  0  0  0  0  0  0  0  0  0  0  0
   -6.4180   -1.4509    0.5025 H   0  0  0  0  0  0  0  0  0  0  0  0
   -4.1363   -4.0743    2.2338 H   0  0  0  0  0  0  0  0  0  0  0  0
   -4.9604   -4.1458    0.6785 H   0  0  0  0  0  0  0  0  0  0  0  0
   -2.1678   -3.0542    1.2911 H   0  0  0  0  0  0  0  0  0  0  0  0
   -2.7796   -4.0607   -0.1310 H   0  0  0  0  0  0  0  0  0  0  0  0
  1  2  1  0
  2  3  1  0
  2  4  1  0
  4  5  1  0
  5  6  2  0
  6  7  1  0
  7  8  2  0
  8  9  1  0
  9 10  2  0
 10 11  1  0
 10 12  1  0
 12 13  1  0
 12 14  2  0
  6 15  1  0
 15 16  2  0
 16 17  1  0
 17 18  1  0
 18 19  2  0
 19 20  1  0
 20 21  2  0
 21 22  1  0
 22 23  2  0
 21 24  1  0
 24 25  1  0
 25 26  2  0
 26 27  1  0
 27 28  1  0
 17 29  1  0
 29 30  1  0
 30 31  1  0
 31 32  1  0
 32 33  1  0
 33 34  1  0
 14  7  1  0
 23 15  1  0
 28 24  2  0
 34 29  1  0
 23 18  1  0
  1 35  1  0
  1 36  1  0
  1 37  1  0
  3 38  1  0
  3 39  1  0
  3 40  1  0
  4 41  1  0
  4 42  1  0
  5 43  1  0
  8 44  1  0
  9 45  1  0
 14 46  1  0
 19 47  1  0
 20 48  1  0
 22 49  1  0
 26 50  1  0
 27 51  1  0
 28 52  1  0
 30 53  1  0
 30 54  1  0
 31 55  1  0
 31 56  1  0
 33 57  1  0
 33 58  1  0
 34 59  1  0
 34 60  1  0
M  END
$$$$
[H]c1c([H])c(-n2nc(N([H])C3([H])C([H])([H])C([H])([H])C([H])([H])C([H])([H])C3([H])[H])c3c([H])c(-c4nnnn4C([H])([H])C([H])([H])[H])c([H])c([H])c32)c([H])c([H])c1OC([H])([H])[H]
     RDKit          3D

 58 62  0  0  0  0  0  0  0  0999 V2000
   -2.8801   -6.2533   -0.7674 C   0  0  0  0  0  0  0  0  0  0  0  0
   -3.1090   -5.5689    0.5643 C   0  0  0  0  0  0  0  0  0  0  0  0
   -3.8977   -4.3883    0.3793 N   0  0  0  0  0  0  0  0  0  0  0  0
   -5.2688   -4.4216    0.4071 N   0  0  0  0  0  0  0  0  0  0  0  0
   -5.6943   -3.1980    0.2181 N   0  0  0  0  0  0  0  0  0  0  0  0
   -4.6467   -2.4236    0.0768 N   0  0  0  0  0  0  0  0  0  0  0  0
   -3.4807   -3.1587    0.1752 C   0  0  0  0  0  0  0  0  0  0  0  0
   -2.1923   -2.5032    0.0865 C   0  0  0  0  0  0  0  0  0  0  0  0
   -0.9995   -3.1496    0.0173 C   0  0  0  0  0  0  0  0  0  0  0  0
    0.1878   -2.4009   -0.0223 C   0  0  0  0  0  0  0  0  0  0  0  0
    0.1960   -1.0302    0.0056 C   0  0  0  0  0  0  0  0  0  0  0  0
    1.1580   -0.0766   -0.0185 N   0  0  0  0  0  0  0  0  0  0  0  0
    0.5831    1.1126    0.0330 N   0  0  0  0  0  0  0  0  0  0  0  0
   -0.7533    0.9805    0.0916 C   0  0  0  0  0  0  0  0  0  0  0  0
   -1.7427    2.0163    0.1593 N   0  0  0  0  0  0  0  0  0  0  0  0
   -1.2784    3.3795    0.1667 C   0  0  0  0  0  0  0  0  0  0  0  0
   -0.5066    3.6489   -1.0889 C   0  0  0  0  0  0  0  0  0  0  0  0
   -0.6971    5.1074   -1.4621 C   0  0  0  0  0  0  0  0  0  0  0  0
   -0.7108    5.9280   -0.1858 C   0  0  0  0  0  0  0  0  0  0  0  0
   -2.0092    5.7160    0.5618 C   0  0  0  0  0  0  0  0  0  0  0  0
   -2.4758    4.2944    0.2953 C   0  0  0  0  0  0  0  0  0  0  0  0
   -1.0044   -0.3612    0.0748 C   0  0  0  0  0  0  0  0  0  0  0  0
   -2.1391   -1.0940    0.1124 C   0  0  0  0  0  0  0  0  0  0  0  0
    2.5534   -0.3228   -0.0877 C   0  0  0  0  0  0  0  0  0  0  0  0
    3.4266    0.1735    0.8532 C   0  0  0  0  0  0  0  0  0  0  0  0
    4.7980   -0.0838    0.7621 C   0  0  0  0  0  0  0  0  0  0  0  0
    5.3016   -0.8413   -0.2743 C   0  0  0  0  0  0  0  0  0  0  0  0
    6.6514   -1.1299   -0.4173 O   0  0  0  0  0  0  0  0  0  0  0  0
    7.5709   -0.6374    0.5280 C   0  0  0  0  0  0  0  0  0  0  0  0
    4.4407   -1.3463   -1.2255 C   0  0  0  0  0  0  0  0  0  0  0  0
    3.1099   -1.0841   -1.1183 C   0  0  0  0  0  0  0  0  0  0  0  0
   -3.8208   -6.7376   -1.0804 H   0  0  0  0  0  0  0  0  0  0  0  0
   -2.0121   -6.9341   -0.7376 H   0  0  0  0  0  0  0  0  0  0  0  0
   -2.6892   -5.4198   -1.5041 H   0  0  0  0  0  0  0  0  0  0  0  0
   -3.7226   -6.3447    1.1451 H   0  0  0  0  0  0  0  0  0  0  0  0
   -2.1879   -5.4992    1.1060 H   0  0  0  0  0  0  0  0  0  0  0  0
   -0.8823   -4.2203   -0.0256 H   0  0  0  0  0  0  0  0  0  0  0  0
    1.1260   -2.9341   -0.0767 H   0  0  0  0  0  0  0  0  0  0  0  0
   -2.7452    1.7693    0.2004 H   0  0  0  0  0  0  0  0  0  0  0  0
   -0.6171    3.5680    1.0220 H   0  0  0  0  0  0  0  0  0  0  0  0
   -0.8180    3.0220   -1.9445 H   0  0  0  0  0  0  0  0  0  0  0  0
    0.5928    3.5035   -0.9735 H   0  0  0  0  0  0  0  0  0  0  0  0
   -1.6445    5.2595   -2.0170 H   0  0  0  0  0  0  0  0  0  0  0  0
    0.1549    5.4206   -2.0782 H   0  0  0  0  0  0  0  0  0  0  0  0
   -0.5825    6.9936   -0.4232 H   0  0  0  0  0  0  0  0  0  0  0  0
    0.0991    5.5686    0.4794 H   0  0  0  0  0  0  0  0  0  0  0  0
   -2.8152    6.3920    0.2238 H   0  0  0  0  0  0  0  0  0  0  0  0
   -1.8996    5.8747    1.6578 H   0  0  0  0  0  0  0  0  0  0  0  0
   -3.0443    3.9540    1.1940 H   0  0  0  0  0  0  0  0  0  0  0  0
   -3.1111    4.2918   -0.6050 H   0  0  0  0  0  0  0  0  0  0  0  0
   -3.0862   -0.5369    0.1684 H   0  0  0  0  0  0  0  0  0  0  0  0
    3.0760    0.7747    1.6863 H   0  0  0  0  0  0  0  0  0  0  0  0
    5.4528    0.3133    1.5055 H   0  0  0  0  0  0  0  0  0  0  0  0
    7.4067   -1.1534    1.4973 H   0  0  0  0  0  0  0  0  0  0  0  0
    7.4844    0.4476    0.6648 H   0  0  0  0  0  0  0  0  0  0  0  0
    8.5910   -0.8406    0.1380 H   0  0  0  0  0  0  0  0  0  0  0  0
    4.7912   -1.9507   -2.0637 H   0  0  0  0  0  0  0  0  0  0  0  0
    2.4130   -1.4651   -1.8463 H   0  0  0  0  0  0  0  0  0  0  0  0
  1  2  1  0
  2  3  1  0
  3  4  1  0
  4  5  2  0
  5  6  1  0
  6  7  2  0
  7  8  1  0
  8  9  2  0
  9 10  1  0
 10 11  2  0
 11 12  1  0
 12 13  1  0
 13 14  2  0
 14 15  1  0
 15 16  1  0
 16 17  1  0
 17 18  1  0
 18 19  1  0
 19 20  1  0
 20 21  1  0
 14 22  1  0
 22 23  2  0
 12 24  1  0
 24 25  2  0
 25 26  1  0
 26 27  2  0
 27 28  1  0
 28 29  1  0
 27 30  1  0
 30 31  2  0
  7  3  1  0
 23  8  1  0
 31 24  1  0
 22 11  1  0
 21 16  1  0
  1 32  1  0
  1 33  1  0
  1 34  1  0
  2 35  1  0
  2 36  1  0
  9 37  1  0
 10 38  1  0
 15 39  1  0
 16 40  1  0
 17 41  1  0
 17 42  1  0
 18 43  1  0
 18 44  1  0
 19 45  1  0
 19 46  1  0
 20 47  1  0
 20 48  1  0
 21 49  1  0
 21 50  1  0
 23 51  1  0
 25 52  1  0
 26 53  1  0
 29 54  1  0
 29 55  1  0
 29 56  1  0
 30 57  1  0
 31 58  1  0
M  END
$$$$
[H]c1c([H])c(F)c([H])c(Sc2c([H])c([H])c(C([H])([H])[H])n(C([H])([H])N([H])C(=O)N([H])c3c([H])c([H])c([H])c(Cl)c3[H])c2=O)c1[H]
     RDKit          3D

 45 47  0  0  0  0  0  0  0  0999 V2000
    0.2023   -3.4723    1.3021 C   0  0  0  0  0  0  0  0  0  0  0  0
   -0.4226   -2.1429    1.0159 C   0  0  0  0  0  0  0  0  0  0  0  0
   -0.9240   -1.3754    2.0566 C   0  0  0  0  0  0  0  0  0  0  0  0
   -1.5058   -0.1386    1.8563 C   0  0  0  0  0  0  0  0  0  0  0  0
   -1.5910    0.3510    0.5794 C   0  0  0  0  0  0  0  0  0  0  0  0
   -2.3033    1.9300    0.3247 S   0  0  0  0  0  0  0  0  0  0  0  0
   -4.0247    1.9502   -0.0131 C   0  0  0  0  0  0  0  0  0  0  0  0
   -4.6283    3.1800   -0.1523 C   0  0  0  0  0  0  0  0  0  0  0  0
   -5.9917    3.3092   -0.4393 C   0  0  0  0  0  0  0  0  0  0  0  0
   -6.7612    2.2060   -0.5892 C   0  0  0  0  0  0  0  0  0  0  0  0
   -6.1605    0.9480   -0.4490 C   0  0  0  0  0  0  0  0  0  0  0  0
   -6.9225   -0.1306   -0.5981 F   0  0  0  0  0  0  0  0  0  0  0  0
   -4.8256    0.8323   -0.1679 C   0  0  0  0  0  0  0  0  0  0  0  0
   -1.0749   -0.4550   -0.4444 C   0  0  0  0  0  0  0  0  0  0  0  0
   -1.1663    0.0103   -1.6086 O   0  0  0  0  0  0  0  0  0  0  0  0
   -0.5241   -1.6371   -0.2016 N   0  0  0  0  0  0  0  0  0  0  0  0
    0.0382   -2.3780   -1.3599 C   0  0  0  0  0  0  0  0  0  0  0  0
    1.3776   -1.9642   -1.5807 N   0  0  0  0  0  0  0  0  0  0  0  0
    2.6419   -1.5738   -1.7893 C   0  0  0  0  0  0  0  0  0  0  0  0
    3.3629   -2.1277   -2.7967 O   0  0  0  0  0  0  0  0  0  0  0  0
    3.3791   -0.6735   -1.1364 N   0  0  0  0  0  0  0  0  0  0  0  0
    4.2367    0.2091   -0.5571 C   0  0  0  0  0  0  0  0  0  0  0  0
    5.6138   -0.0887   -0.4692 C   0  0  0  0  0  0  0  0  0  0  0  0
    6.5502    0.7738    0.0088 C   0  0  0  0  0  0  0  0  0  0  0  0
    6.1587    2.0199    0.4404 C   0  0  0  0  0  0  0  0  0  0  0  0
    4.8351    2.3437    0.3710 C   0  0  0  0  0  0  0  0  0  0  0  0
    4.2963    3.9340    0.9010 Cl  0  0  0  0  0  0  0  0  0  0  0  0
    3.8780    1.4786   -0.1109 C   0  0  0  0  0  0  0  0  0  0  0  0
    1.2364   -3.5423    0.9076 H   0  0  0  0  0  0  0  0  0  0  0  0
   -0.4602   -4.2466    0.8584 H   0  0  0  0  0  0  0  0  0  0  0  0
    0.2528   -3.6225    2.3757 H   0  0  0  0  0  0  0  0  0  0  0  0
   -0.8449   -1.7725    3.0584 H   0  0  0  0  0  0  0  0  0  0  0  0
   -1.8853    0.4351    2.7206 H   0  0  0  0  0  0  0  0  0  0  0  0
   -4.0539    4.0836   -0.0404 H   0  0  0  0  0  0  0  0  0  0  0  0
   -6.4705    4.2734   -0.5569 H   0  0  0  0  0  0  0  0  0  0  0  0
   -7.8034    2.2878   -0.8108 H   0  0  0  0  0  0  0  0  0  0  0  0
   -4.3069   -0.1278   -0.0500 H   0  0  0  0  0  0  0  0  0  0  0  0
    0.0129   -3.4529   -0.9931 H   0  0  0  0  0  0  0  0  0  0  0  0
   -0.6124   -2.2970   -2.2154 H   0  0  0  0  0  0  0  0  0  0  0  0
    1.4364   -2.8343   -2.6056 H   0  0  0  0  0  0  0  0  0  0  0  0
    2.4665   -0.5004   -0.1902 H   0  0  0  0  0  0  0  0  0  0  0  0
    5.9452   -1.0610   -0.8026 H   0  0  0  0  0  0  0  0  0  0  0  0
    7.6132    0.5684    0.0889 H   0  0  0  0  0  0  0  0  0  0  0  0
    6.8900    2.7307    0.8231 H   0  0  0  0  0  0  0  0  0  0  0  0
    2.8400    1.7600   -0.1579 H   0  0  0  0  0  0  0  0  0  0  0  0
  1  2  1  0
  2  3  2  0
  3  4  1  0
  4  5  2  0
  5  6  1  0
  6  7  1  0
  7  8  2  0
  8  9  1  0
  9 10  2  0
 10 11  1  0
 11 12  1  0
 11 13  2  0
  5 14  1  0
 14 15  2  0
 14 16  1  0
 16 17  1  0
 17 18  1  0
 18 19  1  0
 19 20  2  0
 19 21  1  0
 21 22  1  0
 22 23  2  0
 23 24  1  0
 24 25  2  0
 25 26  1  0
 26 27  1  0
 26 28  2  0
 16  2  1  0
 28 22  1  0
 13  7  1  0
  1 29  1  0
  1 30  1  0
  1 31  1  0
  3 32  1  0
  4 33  1  0
  8 34  1  0
  9 35  1  0
 10 36  1  0
 13 37  1  0
 17 38  1  0
 17 39  1  0
 18 40  1  0
 21 41  1  0
 23 42  1  0
 24 43  1  0
 25 44  1  0
 28 45  1  0
M  END
$$$$
[H]Oc1c([H])c([H])c([H])c(N([H])C(=O)N(C(=O)OC([H])([H])C([H])([H])N(C([H])([H])[H])C([H])([H])[H])C([H])([H])[H])c1C#Cc1c([H])c([H])c(N([H])C(=O)c2c([H])c([H])c(C(=O)N([H])c3nc4c([H])c([H])c([H])c([H])c4n3[H])c([H])c2[H])c([H])c1[H]
     RDKit          3D

 82 86  0  0  0  0  0  0  0  0999 V2000
  -11.3397   -2.1133   -1.4325 C   0  0  0  0  0  0  0  0  0  0  0  0
  -10.9867   -1.6855   -0.1059 N   0  0  0  0  0  0  0  0  0  0  0  0
  -11.8571   -0.6877    0.4475 C   0  0  0  0  0  0  0  0  0  0  0  0
  -10.6700   -2.7405    0.8035 C   0  0  0  0  0  0  0  0  0  0  0  0
   -9.3560   -3.4323    0.4030 C   0  0  0  0  0  0  0  0  0  0  0  0
   -8.3660   -2.4376    0.4399 O   0  0  0  0  0  0  0  0  0  0  0  0
   -7.0229   -2.6190    0.1629 C   0  0  0  0  0  0  0  0  0  0  0  0
   -6.6373   -3.7679   -0.1511 O   0  0  0  0  0  0  0  0  0  0  0  0
   -6.0963   -1.5312    0.2317 N   0  0  0  0  0  0  0  0  0  0  0  0
   -4.7088   -1.7431   -0.0478 C   0  0  0  0  0  0  0  0  0  0  0  0
   -6.5963   -0.2253    0.5892 C   0  0  0  0  0  0  0  0  0  0  0  0
   -7.8208   -0.1348    0.8052 O   0  0  0  0  0  0  0  0  0  0  0  0
   -5.7302    0.8641    0.6817 N   0  0  0  0  0  0  0  0  0  0  0  0
   -6.0993    2.1799    1.0159 C   0  0  0  0  0  0  0  0  0  0  0  0
   -7.3819    2.6032    1.2467 C   0  0  0  0  0  0  0  0  0  0  0  0
   -7.6615    3.9167    1.5570 C   0  0  0  0  0  0  0  0  0  0  0  0
   -6.6366    4.8204    1.6357 C   0  0  0  0  0  0  0  0  0  0  0  0
   -5.3503    4.4056    1.4069 C   0  0  0  0  0  0  0  0  0  0  0  0
   -4.2791    5.3135    1.4825 O   0  0  0  0  0  0  0  0  0  0  0  0
   -5.0369    3.1085    1.0968 C   0  0  0  0  0  0  0  0  0  0  0  0
   -3.6808    2.7192    0.8705 C   0  0  0  0  0  0  0  0  0  0  0  0
   -2.5284    2.4107    0.6863 C   0  0  0  0  0  0  0  0  0  0  0  0
   -1.1525    2.0694    0.4640 C   0  0  0  0  0  0  0  0  0  0  0  0
   -0.1867    3.0416    0.2951 C   0  0  0  0  0  0  0  0  0  0  0  0
    1.1317    2.7574    0.0833 C   0  0  0  0  0  0  0  0  0  0  0  0
    1.5765    1.4235    0.0258 C   0  0  0  0  0  0  0  0  0  0  0  0
    2.9732    1.1832   -0.1626 N   0  0  0  0  0  0  0  0  0  0  0  0
    3.4267    0.0217   -0.7971 C   0  0  0  0  0  0  0  0  0  0  0  0
    2.6959   -0.9000   -1.2682 O   0  0  0  0  0  0  0  0  0  0  0  0
    4.9021   -0.1415   -0.9310 C   0  0  0  0  0  0  0  0  0  0  0  0
    5.3915   -0.8573   -1.9959 C   0  0  0  0  0  0  0  0  0  0  0  0
    6.7742   -1.0023   -2.0870 C   0  0  0  0  0  0  0  0  0  0  0  0
    7.6041   -0.4535   -1.1544 C   0  0  0  0  0  0  0  0  0  0  0  0
    7.0923    0.2534   -0.1051 C   0  0  0  0  0  0  0  0  0  0  0  0
    5.7148    0.4202    0.0203 C   0  0  0  0  0  0  0  0  0  0  0  0
    9.0502   -0.6242   -1.3121 C   0  0  0  0  0  0  0  0  0  0  0  0
    9.5629   -0.7600   -2.4540 O   0  0  0  0  0  0  0  0  0  0  0  0
    9.8492   -0.6320   -0.1530 N   0  0  0  0  0  0  0  0  0  0  0  0
   11.2567   -0.7656   -0.1766 C   0  0  0  0  0  0  0  0  0  0  0  0
   12.0022   -0.7752    0.9776 N   0  0  0  0  0  0  0  0  0  0  0  0
   13.2880   -0.8938    0.6395 C   0  0  0  0  0  0  0  0  0  0  0  0
   14.4343   -0.9539    1.3973 C   0  0  0  0  0  0  0  0  0  0  0  0
   15.6581   -1.0805    0.7814 C   0  0  0  0  0  0  0  0  0  0  0  0
   15.7888   -1.1507   -0.5989 C   0  0  0  0  0  0  0  0  0  0  0  0
   14.6393   -1.0898   -1.3482 C   0  0  0  0  0  0  0  0  0  0  0  0
   13.4050   -0.9634   -0.7260 C   0  0  0  0  0  0  0  0  0  0  0  0
   12.1233   -0.8812   -1.1941 N   0  0  0  0  0  0  0  0  0  0  0  0
    0.6263    0.4594    0.1911 C   0  0  0  0  0  0  0  0  0  0  0  0
   -0.7012    0.7698    0.4045 C   0  0  0  0  0  0  0  0  0  0  0  0
  -11.5025   -3.2104   -1.4335 H   0  0  0  0  0  0  0  0  0  0  0  0
  -10.6073   -1.7731   -2.1975 H   0  0  0  0  0  0  0  0  0  0  0  0
  -12.3193   -1.6037   -1.6685 H   0  0  0  0  0  0  0  0  0  0  0  0
  -12.2885   -0.0234   -0.3290 H   0  0  0  0  0  0  0  0  0  0  0  0
  -12.6954   -1.2241    0.9669 H   0  0  0  0  0  0  0  0  0  0  0  0
  -11.3581   -0.0953    1.2350 H   0  0  0  0  0  0  0  0  0  0  0  0
  -10.5743   -2.3182    1.8216 H   0  0  0  0  0  0  0  0  0  0  0  0
  -11.4759   -3.4985    0.8365 H   0  0  0  0  0  0  0  0  0  0  0  0
   -9.4472   -3.8861   -0.5887 H   0  0  0  0  0  0  0  0  0  0  0  0
   -9.1350   -4.2348    1.1466 H   0  0  0  0  0  0  0  0  0  0  0  0
   -4.0386   -1.2558    0.6768 H   0  0  0  0  0  0  0  0  0  0  0  0
   -4.4728   -1.3421   -1.0704 H   0  0  0  0  0  0  0  0  0  0  0  0
   -4.5231   -2.8445   -0.1287 H   0  0  0  0  0  0  0  0  0  0  0  0
   -4.6974    0.6549    0.4756 H   0  0  0  0  0  0  0  0  0  0  0  0
   -8.2406    1.9611    1.1975 H   0  0  0  0  0  0  0  0  0  0  0  0
   -8.7093    4.2301    1.7395 H   0  0  0  0  0  0  0  0  0  0  0  0
   -6.8256    5.8561    1.8717 H   0  0  0  0  0  0  0  0  0  0  0  0
   -3.3362    5.0602    1.3237 H   0  0  0  0  0  0  0  0  0  0  0  0
   -0.5279    4.0793    0.3352 H   0  0  0  0  0  0  0  0  0  0  0  0
    1.8942    3.5081   -0.0478 H   0  0  0  0  0  0  0  0  0  0  0  0
    3.6800    1.8888    0.1796 H   0  0  0  0  0  0  0  0  0  0  0  0
    4.7059   -1.2778   -2.7224 H   0  0  0  0  0  0  0  0  0  0  0  0
    7.1588   -1.5682   -2.9196 H   0  0  0  0  0  0  0  0  0  0  0  0
    7.7594    0.6785    0.6191 H   0  0  0  0  0  0  0  0  0  0  0  0
    5.3655    0.9893    0.8694 H   0  0  0  0  0  0  0  0  0  0  0  0
    9.3843   -0.5190    0.7876 H   0  0  0  0  0  0  0  0  0  0  0  0
   14.3229   -0.8986    2.4794 H   0  0  0  0  0  0  0  0  0  0  0  0
   16.5582   -1.1299    1.3818 H   0  0  0  0  0  0  0  0  0  0  0  0
   16.7827   -1.2497   -1.0388 H   0  0  0  0  0  0  0  0  0  0  0  0
   14.7259   -1.1418   -2.4202 H   0  0  0  0  0  0  0  0  0  0  0  0
   11.9006   -0.9094   -2.2116 H   0  0  0  0  0  0  0  0  0  0  0  0
    0.9019   -0.5799    0.1752 H   0  0  0  0  0  0  0  0  0  0  0  0
   -1.4493   -0.0203    0.5342 H   0  0  0  0  0  0  0  0  0  0  0  0
  1  2  1  0
  2  3  1  0
  2  4  1  0
  4  5  1  0
  5  6  1  0
  6  7  1  0
  7  8  2  0
  7  9  1  0
  9 10  1  0
  9 11  1  0
 11 12  2  0
 11 13  1  0
 13 14  1  0
 14 15  2  0
 15 16  1  0
 16 17  2  0
 17 18  1  0
 18 19  1  0
 18 20  2  0
 20 21  1  0
 21 22  3  0
 22 23  1  0
 23 24  2  0
 24 25  1  0
 25 26  2  0
 26 27  1  0
 27 28  1  0
 28 29  2  0
 28 30  1  0
 30 31  2  0
 31 32  1  0
 32 33  2  0
 33 34  1  0
 34 35  2  0
 33 36  1  0
 36 37  2  0
 36 38  1  0
 38 39  1  0
 39 40  2  0
 40 41  1  0
 41 42  2  0
 42 43  1  0
 43 44  2  0
 44 45  1  0
 45 46  2  0
 46 47  1  0
 26 48  1  0
 48 49  2  0
 20 14  1  0
 49 23  1  0
 35 30  1  0
 47 39  1  0
 46 41  1  0
  1 50  1  0
  1 51  1  0
  1 52  1  0
  3 53  1  0
  3 54  1  0
  3 55  1  0
  4 56  1  0
  4 57  1  0
  5 58  1  0
  5 59  1  0
 10 60  1  0
 10 61  1  0
 10 62  1  0
 13 63  1  0
 15 64  1  0
 16 65  1  0
 17 66  1  0
 19 67  1  0
 24 68  1  0
 25 69  1  0
 27 70  1  0
 31 71  1  0
 32 72  1  0
 34 73  1  0
 35 74  1  0
 38 75  1  0
 42 76  1  0
 43 77  1  0
 44 78  1  0
 45 79  1  0
 47 80  1  0
 48 81  1  0
 49 82  1  0
M  END
$$$$
[H]c1c([H])c(F)c([H])c(Oc2c([H])c(C3(N(C(=O)C4([H])C([H])([H])C([H])([H])C([H])([H])C4([H])[H])C([H])([H])[H])C([H])([H])C([H])([H])C([H])([H])C3([H])[H])c([H])c([H])c2OC([H])([H])C([H])([H])[H])c1[H]
     RDKit          3D

 63 66  0  0  0  0  0  0  0  0999 V2000
   -3.6640   -1.8041    3.3876 C   0  0  0  0  0  0  0  0  0  0  0  0
   -4.3605   -2.2219    2.1230 C   0  0  0  0  0  0  0  0  0  0  0  0
   -4.0372   -1.4486    1.0097 O   0  0  0  0  0  0  0  0  0  0  0  0
   -2.8003   -1.2837    0.4350 C   0  0  0  0  0  0  0  0  0  0  0  0
   -1.6693   -1.9098    0.9148 C   0  0  0  0  0  0  0  0  0  0  0  0
   -0.4320   -1.7104    0.2968 C   0  0  0  0  0  0  0  0  0  0  0  0
   -0.3015   -0.8809   -0.8146 C   0  0  0  0  0  0  0  0  0  0  0  0
   -1.4160   -0.2648   -1.2866 C   0  0  0  0  0  0  0  0  0  0  0  0
   -2.6592   -0.4637   -0.6661 C   0  0  0  0  0  0  0  0  0  0  0  0
   -3.7037    0.2388   -1.2653 O   0  0  0  0  0  0  0  0  0  0  0  0
   -4.4735    1.1922   -0.6438 C   0  0  0  0  0  0  0  0  0  0  0  0
   -3.9658    2.4680   -0.5437 C   0  0  0  0  0  0  0  0  0  0  0  0
   -4.6521    3.5133    0.0612 C   0  0  0  0  0  0  0  0  0  0  0  0
   -5.8966    3.2134    0.5716 C   0  0  0  0  0  0  0  0  0  0  0  0
   -6.4413    1.9653    0.4964 C   0  0  0  0  0  0  0  0  0  0  0  0
   -7.6632    1.7575    1.0195 F   0  0  0  0  0  0  0  0  0  0  0  0
   -5.7138    0.9412   -0.1226 C   0  0  0  0  0  0  0  0  0  0  0  0
    1.0435   -0.7204   -1.3978 C   0  0  0  0  0  0  0  0  0  0  0  0
    1.6883   -2.0953   -1.3595 C   0  0  0  0  0  0  0  0  0  0  0  0
    2.0692   -2.4686   -2.7514 C   0  0  0  0  0  0  0  0  0  0  0  0
    1.6247   -1.3996   -3.6762 C   0  0  0  0  0  0  0  0  0  0  0  0
    1.1283   -0.2966   -2.8055 C   0  0  0  0  0  0  0  0  0  0  0  0
    1.8451    0.1472   -0.5142 N   0  0  0  0  0  0  0  0  0  0  0  0
    1.1908    0.7967    0.6092 C   0  0  0  0  0  0  0  0  0  0  0  0
    3.2299    0.3775   -0.7318 C   0  0  0  0  0  0  0  0  0  0  0  0
    3.8168   -0.1625   -1.7083 O   0  0  0  0  0  0  0  0  0  0  0  0
    4.0112    1.2432    0.1672 C   0  0  0  0  0  0  0  0  0  0  0  0
    4.0999    0.6174    1.5161 C   0  0  0  0  0  0  0  0  0  0  0  0
    5.5016    0.9107    2.0194 C   0  0  0  0  0  0  0  0  0  0  0  0
    6.1724    1.7246    0.9134 C   0  0  0  0  0  0  0  0  0  0  0  0
    5.4470    1.2924   -0.3429 C   0  0  0  0  0  0  0  0  0  0  0  0
   -3.1670   -2.7194    3.8192 H   0  0  0  0  0  0  0  0  0  0  0  0
   -2.9072   -1.0076    3.2161 H   0  0  0  0  0  0  0  0  0  0  0  0
   -4.4031   -1.4149    4.0993 H   0  0  0  0  0  0  0  0  0  0  0  0
   -4.2225   -3.3210    1.9199 H   0  0  0  0  0  0  0  0  0  0  0  0
   -5.4714   -2.1279    2.2937 H   0  0  0  0  0  0  0  0  0  0  0  0
   -1.7463   -2.5709    1.7848 H   0  0  0  0  0  0  0  0  0  0  0  0
    0.3805   -2.2382    0.7599 H   0  0  0  0  0  0  0  0  0  0  0  0
   -1.3541    0.3795   -2.1303 H   0  0  0  0  0  0  0  0  0  0  0  0
   -2.9903    2.6594   -0.9540 H   0  0  0  0  0  0  0  0  0  0  0  0
   -4.2241    4.5224    0.1281 H   0  0  0  0  0  0  0  0  0  0  0  0
   -6.4352    4.0327    1.0464 H   0  0  0  0  0  0  0  0  0  0  0  0
   -6.1673   -0.0188   -0.1742 H   0  0  0  0  0  0  0  0  0  0  0  0
    2.6090   -2.1110   -0.7399 H   0  0  0  0  0  0  0  0  0  0  0  0
    0.9733   -2.8949   -1.0124 H   0  0  0  0  0  0  0  0  0  0  0  0
    3.1519   -2.7193   -2.8426 H   0  0  0  0  0  0  0  0  0  0  0  0
    1.5591   -3.4198   -3.1003 H   0  0  0  0  0  0  0  0  0  0  0  0
    0.8721   -1.7380   -4.4251 H   0  0  0  0  0  0  0  0  0  0  0  0
    2.5182   -1.1027   -4.2933 H   0  0  0  0  0  0  0  0  0  0  0  0
    0.1974    0.0775   -3.2779 H   0  0  0  0  0  0  0  0  0  0  0  0
    1.8499    0.5712   -2.9594 H   0  0  0  0  0  0  0  0  0  0  0  0
    1.2389    0.2225    1.5456 H   0  0  0  0  0  0  0  0  0  0  0  0
    1.6864    1.7822    0.8104 H   0  0  0  0  0  0  0  0  0  0  0  0
    0.1304    1.0989    0.3632 H   0  0  0  0  0  0  0  0  0  0  0  0
    3.5676    2.2640    0.1861 H   0  0  0  0  0  0  0  0  0  0  0  0
    3.9757   -0.4947    1.4257 H   0  0  0  0  0  0  0  0  0  0  0  0
    3.3682    0.9713    2.2610 H   0  0  0  0  0  0  0  0  0  0  0  0
    6.0508   -0.0266    2.2055 H   0  0  0  0  0  0  0  0  0  0  0  0
    5.4690    1.4672    2.9778 H   0  0  0  0  0  0  0  0  0  0  0  0
    5.9011    2.7807    1.1183 H   0  0  0  0  0  0  0  0  0  0  0  0
    7.2499    1.5683    0.8807 H   0  0  0  0  0  0  0  0  0  0  0  0
    5.5872    1.9743   -1.1838 H   0  0  0  0  0  0  0  0  0  0  0  0
    5.7332    0.2854   -0.6598 H   0  0  0  0  0  0  0  0  0  0  0  0
  1  2  1  0
  2  3  1  0
  3  4  1  0
  4  5  2  0
  5  6  1  0
  6  7  2  0
  7  8  1  0
  8  9  2  0
  9 10  1  0
 10 11  1  0
 11 12  2  0
 12 13  1  0
 13 14  2  0
 14 15  1  0
 15 16  1  0
 15 17  2  0
  7 18  1  0
 18 19  1  0
 19 20  1  0
 20 21  1  0
 21 22  1  0
 18 23  1  0
 23 24  1  0
 23 25  1  0
 25 26  2  0
 25 27  1  0
 27 28  1  0
 28 29  1  0
 29 30  1  0
 30 31  1  0
  9  4  1  0
 17 11  1  0
 22 18  1  0
 31 27  1  0
  1 32  1  0
  1 33  1  0
  1 34  1  0
  2 35  1  0
  2 36  1  0
  5 37  1  0
  6 38  1  0
  8 39  1  0
 12 40  1  0
 13 41  1  0
 14 42  1  0
 17 43  1  0
 19 44  1  0
 19 45  1  0
 20 46  1  0
 20 47  1  0
 21 48  1  0
 21 49  1  0
 22 50  1  0
 22 51  1  0
 24 52  1  0
 24 53  1  0
 24 54  1  0
 27 55  1  0
 28 56  1  0
 28 57  1  0
 29 58  1  0
 29 59  1  0
 30 60  1  0
 30 61  1  0
 31 62  1  0
 31 63  1  0
M  END
$$$$
[H]c1nc(-c2nc(C(=O)N([H])C3(C([H])([H])[H])C([H])([H])OC([H])([H])C3([H])[H])sc2C(F)(F)F)nc(O[C@]([H])(C([H])([H])[H])C(F)(F)F)c1C#N
     RDKit          3D

 48 50  0  0  0  0  0  0  0  0999 V2000
    7.0584   -0.5321   -0.9000 C   0  0  0  0  0  0  0  0  0  0  0  0
    6.2879    0.5445   -0.0856 C   0  0  1  0  0  0  0  0  0  0  0  0
    4.9862    0.3381   -0.0361 O   0  0  0  0  0  0  0  0  0  0  0  0
    3.7412    0.7234   -0.2313 C   0  0  0  0  0  0  0  0  0  0  0  0
    2.7022   -0.1212    0.0914 N   0  0  0  0  0  0  0  0  0  0  0  0
    1.4372    0.1622   -0.0620 C   0  0  0  0  0  0  0  0  0  0  0  0
    1.1245    1.3670   -0.5725 N   0  0  0  0  0  0  0  0  0  0  0  0
    2.0712    2.2504   -0.9139 C   0  0  0  0  0  0  0  0  0  0  0  0
    3.4277    1.9592   -0.7547 C   0  0  0  0  0  0  0  0  0  0  0  0
    4.3914    2.9476   -1.1393 C   0  0  0  0  0  0  0  0  0  0  0  0
    5.1459    3.7585   -1.4559 N   0  0  0  0  0  0  0  0  0  0  0  0
    0.3519   -0.8114    0.3131 C   0  0  0  0  0  0  0  0  0  0  0  0
   -0.8986   -0.4805    0.1377 N   0  0  0  0  0  0  0  0  0  0  0  0
   -1.8631   -1.3061    0.4405 C   0  0  0  0  0  0  0  0  0  0  0  0
   -1.0149   -2.6601    1.0176 S   0  0  0  0  0  0  0  0  0  0  0  0
    0.6034   -2.0555    0.8267 C   0  0  0  0  0  0  0  0  0  0  0  0
    1.8761   -2.7600    1.1786 C   0  0  0  0  0  0  0  0  0  0  0  0
    2.5988   -2.1455    2.1621 F   0  0  0  0  0  0  0  0  0  0  0  0
    2.6117   -3.1136    0.0653 F   0  0  0  0  0  0  0  0  0  0  0  0
    1.4852   -3.9935    1.7409 F   0  0  0  0  0  0  0  0  0  0  0  0
   -3.3327   -1.1235    0.3178 C   0  0  0  0  0  0  0  0  0  0  0  0
   -4.0436   -2.0739    0.6796 O   0  0  0  0  0  0  0  0  0  0  0  0
   -3.8527    0.0754   -0.1855 N   0  0  0  0  0  0  0  0  0  0  0  0
   -5.2536    0.3742   -0.3553 C   0  0  0  0  0  0  0  0  0  0  0  0
   -5.4003    1.7792   -0.9013 C   0  0  0  0  0  0  0  0  0  0  0  0
   -6.0557    0.2632    0.9045 C   0  0  0  0  0  0  0  0  0  0  0  0
   -7.2621   -0.5508    0.4598 C   0  0  0  0  0  0  0  0  0  0  0  0
   -7.2940   -0.3683   -0.9250 O   0  0  0  0  0  0  0  0  0  0  0  0
   -5.9593   -0.6152   -1.2613 C   0  0  0  0  0  0  0  0  0  0  0  0
    6.9294    0.4048    1.3225 C   0  0  0  0  0  0  0  0  0  0  0  0
    8.2836    0.6582    1.2322 F   0  0  0  0  0  0  0  0  0  0  0  0
    6.7678   -0.9101    1.6746 F   0  0  0  0  0  0  0  0  0  0  0  0
    6.3641    1.2784    2.2001 F   0  0  0  0  0  0  0  0  0  0  0  0
    8.1199   -0.4977   -0.5860 H   0  0  0  0  0  0  0  0  0  0  0  0
    6.6510   -1.5285   -0.6706 H   0  0  0  0  0  0  0  0  0  0  0  0
    7.0022   -0.2548   -1.9657 H   0  0  0  0  0  0  0  0  0  0  0  0
    6.7105    1.4971   -0.4704 H   0  0  0  0  0  0  0  0  0  0  0  0
    1.8106    3.2219   -1.3257 H   0  0  0  0  0  0  0  0  0  0  0  0
   -3.1609    0.8294   -0.4666 H   0  0  0  0  0  0  0  0  0  0  0  0
   -4.8219    2.4728   -0.2593 H   0  0  0  0  0  0  0  0  0  0  0  0
   -6.4563    2.1086   -0.8790 H   0  0  0  0  0  0  0  0  0  0  0  0
   -4.9622    1.7832   -1.9165 H   0  0  0  0  0  0  0  0  0  0  0  0
   -6.4367    1.2423    1.2573 H   0  0  0  0  0  0  0  0  0  0  0  0
   -5.5581   -0.3192    1.6926 H   0  0  0  0  0  0  0  0  0  0  0  0
   -7.1288   -1.6339    0.7262 H   0  0  0  0  0  0  0  0  0  0  0  0
   -8.1851   -0.1701    0.9559 H   0  0  0  0  0  0  0  0  0  0  0  0
   -5.7506   -1.6462   -1.0011 H   0  0  0  0  0  0  0  0  0  0  0  0
   -5.8488   -0.3677   -2.3231 H   0  0  0  0  0  0  0  0  0  0  0  0
  1  2  1  0
  2  3  1  0
  3  4  1  0
  4  5  2  0
  5  6  1  0
  6  7  2  0
  7  8  1  0
  8  9  2  0
  9 10  1  0
 10 11  3  0
  6 12  1  0
 12 13  1  0
 13 14  2  0
 14 15  1  0
 15 16  1  0
 16 17  1  0
 17 18  1  0
 17 19  1  0
 17 20  1  0
 14 21  1  0
 21 22  2  0
 21 23  1  0
 23 24  1  0
 24 25  1  0
 24 26  1  0
 26 27  1  0
 27 28  1  0
 28 29  1  0
  2 30  1  0
 30 31  1  0
 30 32  1  0
 30 33  1  0
  9  4  1  0
 16 12  2  0
 29 24  1  0
  1 34  1  0
  1 35  1  0
  1 36  1  0
  2 37  1  6
  8 38  1  0
 23 39  1  0
 25 40  1  0
 25 41  1  0
 25 42  1  0
 26 43  1  0
 26 44  1  0
 27 45  1  0
 27 46  1  0
 29 47  1  0
 29 48  1  0
M  END
$$$$
[H]c1nc(C([H])([H])[C@@]([H])(C(F)(F)F)C([H])([H])c2c([H])c([H])c(C(=O)N([H])c3c([H])c(F)c(F)c(OC([H])([H])C([H])([H])N4C([H])([H])C([H])([H])OC([H])([H])C4([H])[H])c3[H])c([H])c2[H])c(F)c([H])c1[H]
     RDKit          3D

 67 70  0  0  0  0  0  0  0  0999 V2000
   -2.8771    3.2283    5.3230 F   0  0  0  0  0  0  0  0  0  0  0  0
   -2.9252    2.5819    4.1166 C   0  0  0  0  0  0  0  0  0  0  0  0
   -1.7478    2.1224    3.5721 C   0  0  0  0  0  0  0  0  0  0  0  0
   -1.7095    1.4502    2.3396 C   0  0  0  0  0  0  0  0  0  0  0  0
   -0.4499    1.0254    1.8448 N   0  0  0  0  0  0  0  0  0  0  0  0
   -0.2183    0.0932    0.8164 C   0  0  0  0  0  0  0  0  0  0  0  0
   -1.1500   -0.5053    0.1931 O   0  0  0  0  0  0  0  0  0  0  0  0
    1.1532   -0.2118    0.4370 C   0  0  0  0  0  0  0  0  0  0  0  0
    2.1537    0.6774    0.6915 C   0  0  0  0  0  0  0  0  0  0  0  0
    3.4484    0.3360    0.3167 C   0  0  0  0  0  0  0  0  0  0  0  0
    3.7821   -0.8526   -0.2996 C   0  0  0  0  0  0  0  0  0  0  0  0
    5.1693   -1.2160   -0.6397 C   0  0  0  0  0  0  0  0  0  0  0  0
    5.6166   -0.6020   -1.9187 C   0  0  1  0  0  0  0  0  0  0  0  0
    7.0528   -1.0212   -2.2197 C   0  0  0  0  0  0  0  0  0  0  0  0
    7.9881   -0.5899   -1.1491 C   0  0  0  0  0  0  0  0  0  0  0  0
    8.4729   -1.4539   -0.2381 N   0  0  0  0  0  0  0  0  0  0  0  0
    9.3164   -1.1076    0.7434 C   0  0  0  0  0  0  0  0  0  0  0  0
    9.7001    0.2272    0.8060 C   0  0  0  0  0  0  0  0  0  0  0  0
    9.2198    1.1390   -0.1149 C   0  0  0  0  0  0  0  0  0  0  0  0
    8.3500    0.7453   -1.1150 C   0  0  0  0  0  0  0  0  0  0  0  0
    7.8948    1.6609   -2.0064 F   0  0  0  0  0  0  0  0  0  0  0  0
    4.7552   -0.7756   -3.1127 C   0  0  0  0  0  0  0  0  0  0  0  0
    3.5074   -0.2320   -2.9756 F   0  0  0  0  0  0  0  0  0  0  0  0
    5.3303   -0.1789   -4.2448 F   0  0  0  0  0  0  0  0  0  0  0  0
    4.5848   -2.1368   -3.3922 F   0  0  0  0  0  0  0  0  0  0  0  0
    2.7240   -1.7415   -0.5446 C   0  0  0  0  0  0  0  0  0  0  0  0
    1.4417   -1.4053   -0.1742 C   0  0  0  0  0  0  0  0  0  0  0  0
   -2.9151    1.2883    1.7276 C   0  0  0  0  0  0  0  0  0  0  0  0
   -4.1354    1.7341    2.2360 C   0  0  0  0  0  0  0  0  0  0  0  0
   -5.3271    1.5246    1.5404 O   0  0  0  0  0  0  0  0  0  0  0  0
   -5.3392    0.8509    0.2882 C   0  0  0  0  0  0  0  0  0  0  0  0
   -6.7814    0.8082   -0.1681 C   0  0  0  0  0  0  0  0  0  0  0  0
   -6.9678    0.1578   -1.4269 N   0  0  0  0  0  0  0  0  0  0  0  0
   -8.3874    0.1915   -1.7295 C   0  0  0  0  0  0  0  0  0  0  0  0
   -9.1582   -0.7599   -0.8215 C   0  0  0  0  0  0  0  0  0  0  0  0
   -8.6660   -2.0428   -0.8699 O   0  0  0  0  0  0  0  0  0  0  0  0
   -7.3136   -2.1542   -0.6483 C   0  0  0  0  0  0  0  0  0  0  0  0
   -6.5224   -1.1982   -1.4894 C   0  0  0  0  0  0  0  0  0  0  0  0
   -4.1189    2.3838    3.4418 C   0  0  0  0  0  0  0  0  0  0  0  0
   -5.2810    2.8285    3.9640 F   0  0  0  0  0  0  0  0  0  0  0  0
   -0.8068    2.2777    4.1059 H   0  0  0  0  0  0  0  0  0  0  0  0
    0.3922    1.4855    2.3289 H   0  0  0  0  0  0  0  0  0  0  0  0
    1.9980    1.6556    1.1731 H   0  0  0  0  0  0  0  0  0  0  0  0
    4.2600    1.0515    0.5211 H   0  0  0  0  0  0  0  0  0  0  0  0
    5.2108   -2.3366   -0.6737 H   0  0  0  0  0  0  0  0  0  0  0  0
    5.8718   -0.9234    0.1942 H   0  0  0  0  0  0  0  0  0  0  0  0
    5.7063    0.5208   -1.6956 H   0  0  0  0  0  0  0  0  0  0  0  0
    7.4089   -0.5927   -3.1690 H   0  0  0  0  0  0  0  0  0  0  0  0
    7.0583   -2.1290   -2.2891 H   0  0  0  0  0  0  0  0  0  0  0  0
    9.7038   -1.8099    1.4750 H   0  0  0  0  0  0  0  0  0  0  0  0
   10.3849    0.5334    1.5948 H   0  0  0  0  0  0  0  0  0  0  0  0
    9.5241    2.1774   -0.0589 H   0  0  0  0  0  0  0  0  0  0  0  0
    2.9683   -2.6784   -1.0252 H   0  0  0  0  0  0  0  0  0  0  0  0
    0.6334   -2.1262   -0.3809 H   0  0  0  0  0  0  0  0  0  0  0  0
   -2.9653    0.7930    0.7784 H   0  0  0  0  0  0  0  0  0  0  0  0
   -4.9469   -0.1886    0.4709 H   0  0  0  0  0  0  0  0  0  0  0  0
   -4.7080    1.3976   -0.4445 H   0  0  0  0  0  0  0  0  0  0  0  0
   -7.1113    1.8618   -0.2794 H   0  0  0  0  0  0  0  0  0  0  0  0
   -7.3537    0.2915    0.6583 H   0  0  0  0  0  0  0  0  0  0  0  0
   -8.5571   -0.0695   -2.7809 H   0  0  0  0  0  0  0  0  0  0  0  0
   -8.7316    1.2182   -1.4738 H   0  0  0  0  0  0  0  0  0  0  0  0
   -9.2690   -0.3551    0.1946 H   0  0  0  0  0  0  0  0  0  0  0  0
  -10.1989   -0.7972   -1.2492 H   0  0  0  0  0  0  0  0  0  0  0  0
   -7.0310   -2.0895    0.4378 H   0  0  0  0  0  0  0  0  0  0  0  0
   -7.0202   -3.1891   -0.9722 H   0  0  0  0  0  0  0  0  0  0  0  0
   -5.4414   -1.3155   -1.2776 H   0  0  0  0  0  0  0  0  0  0  0  0
   -6.6503   -1.5329   -2.5512 H   0  0  0  0  0  0  0  0  0  0  0  0
  1  2  1  0
  2  3  2  0
  3  4  1  0
  4  5  1  0
  5  6  1  0
  6  7  2  0
  6  8  1  0
  8  9  2  0
  9 10  1  0
 10 11  2  0
 11 12  1  0
 12 13  1  0
 13 14  1  0
 14 15  1  0
 15 16  2  0
 16 17  1  0
 17 18  2  0
 18 19  1  0
 19 20  2  0
 20 21  1  0
 13 22  1  0
 22 23  1  0
 22 24  1  0
 22 25  1  0
 11 26  1  0
 26 27  2  0
  4 28  2  0
 28 29  1  0
 29 30  1  0
 30 31  1  0
 31 32  1  0
 32 33  1  0
 33 34  1  0
 34 35  1  0
 35 36  1  0
 36 37  1  0
 37 38  1  0
 29 39  2  0
 39 40  1  0
 39  2  1  0
 27  8  1  0
 38 33  1  0
 20 15  1  0
  3 41  1  0
  5 42  1  0
  9 43  1  0
 10 44  1  0
 12 45  1  0
 12 46  1  0
 13 47  1  1
 14 48  1  0
 14 49  1  0
 17 50  1  0
 18 51  1  0
 19 52  1  0
 26 53  1  0
 27 54  1  0
 28 55  1  0
 31 56  1  0
 31 57  1  0
 32 58  1  0
 32 59  1  0
 34 60  1  0
 34 61  1  0
 35 62  1  0
 35 63  1  0
 37 64  1  0
 37 65  1  0
 38 66  1  0
 38 67  1  0
M  END
$$$$
[H]c1c(OC([H])([H])[H])c([H])c(S(=O)(=O)N2C([H])([H])C([H])([H])[C@@]([H])(C([H])([H])C([H])([H])C([H])([H])N([H])S(=O)(=O)c3c([H])c([H])c4nc(C([H])(C([H])([H])[H])C([H])([H])[H])c([H])c([H])c4c3[H])C2([H])[H])c([H])c1OC([H])([H])[H]
     RDKit          3D

 73 76  0  0  0  0  0  0  0  0999 V2000
   -7.5924    3.5041    2.6043 C   0  0  0  0  0  0  0  0  0  0  0  0
   -6.9298    2.2647    2.4958 O   0  0  0  0  0  0  0  0  0  0  0  0
   -6.9734    1.5956    1.2892 C   0  0  0  0  0  0  0  0  0  0  0  0
   -7.6434    2.1176    0.2174 C   0  0  0  0  0  0  0  0  0  0  0  0
   -7.6547    1.4072   -0.9633 C   0  0  0  0  0  0  0  0  0  0  0  0
   -8.3397    1.9522   -2.0410 O   0  0  0  0  0  0  0  0  0  0  0  0
   -8.3623    1.2348   -3.2656 C   0  0  0  0  0  0  0  0  0  0  0  0
   -6.9957    0.1771   -1.0676 C   0  0  0  0  0  0  0  0  0  0  0  0
   -6.3164   -0.3613    0.0044 C   0  0  0  0  0  0  0  0  0  0  0  0
   -6.3200    0.3679    1.1728 C   0  0  0  0  0  0  0  0  0  0  0  0
   -5.4876   -1.8846   -0.0878 S   0  0  0  0  0  0  0  0  0  0  0  0
   -6.1737   -2.8184   -1.0716 O   0  0  0  0  0  0  0  0  0  0  0  0
   -5.5071   -2.6007    1.2379 O   0  0  0  0  0  0  0  0  0  0  0  0
   -3.8613   -1.7381   -0.5825 N   0  0  0  0  0  0  0  0  0  0  0  0
   -3.0330   -0.9680    0.2848 C   0  0  0  0  0  0  0  0  0  0  0  0
   -2.2256   -2.0813    0.9659 C   0  0  2  0  0  0  0  0  0  0  0  0
   -1.2401   -1.6544    1.9401 C   0  0  0  0  0  0  0  0  0  0  0  0
   -0.1355   -0.7556    1.5978 C   0  0  0  0  0  0  0  0  0  0  0  0
    0.8486   -1.1620    0.5729 C   0  0  0  0  0  0  0  0  0  0  0  0
    1.5400   -2.3981    0.8744 N   0  0  0  0  0  0  0  0  0  0  0  0
    2.6640   -2.7642   -0.4016 S   0  0  0  0  0  0  0  0  0  0  0  0
    1.9130   -2.8954   -1.7194 O   0  0  0  0  0  0  0  0  0  0  0  0
    3.3488   -4.0622   -0.1693 O   0  0  0  0  0  0  0  0  0  0  0  0
    3.8780   -1.5170   -0.5570 C   0  0  0  0  0  0  0  0  0  0  0  0
    3.6503   -0.4568   -1.3962 C   0  0  0  0  0  0  0  0  0  0  0  0
    4.5586    0.5664   -1.5730 C   0  0  0  0  0  0  0  0  0  0  0  0
    5.7452    0.5048   -0.8656 C   0  0  0  0  0  0  0  0  0  0  0  0
    6.6318    1.4912   -1.0297 N   0  0  0  0  0  0  0  0  0  0  0  0
    7.8152    1.5428   -0.4001 C   0  0  0  0  0  0  0  0  0  0  0  0
    8.1127    0.5090    0.4605 C   0  0  0  0  0  0  0  0  0  0  0  0
    7.2198   -0.5331    0.6584 C   0  0  0  0  0  0  0  0  0  0  0  0
    6.0200   -0.5495   -0.0040 C   0  0  0  0  0  0  0  0  0  0  0  0
    5.0736   -1.5436    0.1318 C   0  0  0  0  0  0  0  0  0  0  0  0
    8.7117    2.6761   -0.6571 C   0  0  0  0  0  0  0  0  0  0  0  0
   10.0058    2.1777   -1.2956 C   0  0  0  0  0  0  0  0  0  0  0  0
    9.0231    3.4661    0.5960 C   0  0  0  0  0  0  0  0  0  0  0  0
   -1.8501   -2.9233   -0.1915 C   0  0  0  0  0  0  0  0  0  0  0  0
   -3.2396   -2.9930   -0.8837 C   0  0  0  0  0  0  0  0  0  0  0  0
   -7.2277    4.1874    1.7859 H   0  0  0  0  0  0  0  0  0  0  0  0
   -7.4674    3.9664    3.5999 H   0  0  0  0  0  0  0  0  0  0  0  0
   -8.6716    3.3189    2.3974 H   0  0  0  0  0  0  0  0  0  0  0  0
   -8.1695    3.0804    0.2694 H   0  0  0  0  0  0  0  0  0  0  0  0
   -9.0127    1.7259   -4.0049 H   0  0  0  0  0  0  0  0  0  0  0  0
   -8.6428    0.1860   -3.1244 H   0  0  0  0  0  0  0  0  0  0  0  0
   -7.3232    1.2640   -3.6717 H   0  0  0  0  0  0  0  0  0  0  0  0
   -7.0232   -0.3550   -2.0064 H   0  0  0  0  0  0  0  0  0  0  0  0
   -5.8024   -0.0175    2.0299 H   0  0  0  0  0  0  0  0  0  0  0  0
   -3.5709   -0.3686    1.0205 H   0  0  0  0  0  0  0  0  0  0  0  0
   -2.3163   -0.3917   -0.3343 H   0  0  0  0  0  0  0  0  0  0  0  0
   -3.0582   -2.6918    1.4921 H   0  0  0  0  0  0  0  0  0  0  0  0
   -1.7960   -1.2180    2.8373 H   0  0  0  0  0  0  0  0  0  0  0  0
   -0.7961   -2.5959    2.4072 H   0  0  0  0  0  0  0  0  0  0  0  0
    0.4545   -0.5900    2.5590 H   0  0  0  0  0  0  0  0  0  0  0  0
   -0.4666    0.2942    1.3563 H   0  0  0  0  0  0  0  0  0  0  0  0
    1.6920   -0.3790    0.6293 H   0  0  0  0  0  0  0  0  0  0  0  0
    0.5173   -1.0709   -0.4710 H   0  0  0  0  0  0  0  0  0  0  0  0
    2.0884   -2.2587    1.7309 H   0  0  0  0  0  0  0  0  0  0  0  0
    2.7192   -0.4209   -1.9428 H   0  0  0  0  0  0  0  0  0  0  0  0
    4.3886    1.4060   -2.2317 H   0  0  0  0  0  0  0  0  0  0  0  0
    9.0772    0.5255    0.9908 H   0  0  0  0  0  0  0  0  0  0  0  0
    7.4554   -1.3556    1.3425 H   0  0  0  0  0  0  0  0  0  0  0  0
    5.2922   -2.3629    0.8042 H   0  0  0  0  0  0  0  0  0  0  0  0
    8.2540    3.3695   -1.3820 H   0  0  0  0  0  0  0  0  0  0  0  0
    9.7708    2.0004   -2.3775 H   0  0  0  0  0  0  0  0  0  0  0  0
   10.7823    2.9561   -1.1858 H   0  0  0  0  0  0  0  0  0  0  0  0
   10.3633    1.2446   -0.8220 H   0  0  0  0  0  0  0  0  0  0  0  0
    8.1454    3.4444    1.2493 H   0  0  0  0  0  0  0  0  0  0  0  0
    9.2191    4.5132    0.3031 H   0  0  0  0  0  0  0  0  0  0  0  0
    9.9370    3.1002    1.1039 H   0  0  0  0  0  0  0  0  0  0  0  0
   -1.2229   -2.4613   -0.9702 H   0  0  0  0  0  0  0  0  0  0  0  0
   -1.5165   -3.9423    0.0715 H   0  0  0  0  0  0  0  0  0  0  0  0
   -3.1242   -3.2084   -1.9493 H   0  0  0  0  0  0  0  0  0  0  0  0
   -3.8273   -3.7891   -0.3872 H   0  0  0  0  0  0  0  0  0  0  0  0
  1  2  1  0
  2  3  1  0
  3  4  2  0
  4  5  1  0
  5  6  1  0
  6  7  1  0
  5  8  2  0
  8  9  1  0
  9 10  2  0
  9 11  1  0
 11 12  2  0
 11 13  2  0
 11 14  1  0
 14 15  1  0
 15 16  1  0
 16 17  1  0
 17 18  1  0
 18 19  1  0
 19 20  1  0
 20 21  1  0
 21 22  2  0
 21 23  2  0
 21 24  1  0
 24 25  2  0
 25 26  1  0
 26 27  2  0
 27 28  1  0
 28 29  2  0
 29 30  1  0
 30 31  2  0
 31 32  1  0
 32 33  2  0
 29 34  1  0
 34 35  1  0
 34 36  1  0
 16 37  1  0
 37 38  1  0
 10  3  1  0
 38 14  1  0
 33 24  1  0
 32 27  1  0
  1 39  1  0
  1 40  1  0
  1 41  1  0
  4 42  1  0
  7 43  1  0
  7 44  1  0
  7 45  1  0
  8 46  1  0
 10 47  1  0
 15 48  1  0
 15 49  1  0
 16 50  1  1
 17 51  1  0
 17 52  1  0
 18 53  1  0
 18 54  1  0
 19 55  1  0
 19 56  1  0
 20 57  1  0
 25 58  1  0
 26 59  1  0
 30 60  1  0
 31 61  1  0
 33 62  1  0
 34 63  1  0
 35 64  1  0
 35 65  1  0
 35 66  1  0
 36 67  1  0
 36 68  1  0
 36 69  1  0
 37 70  1  0
 37 71  1  0
 38 72  1  0
 38 73  1  0
M  END
$$$$
[H]c1nc(N([H])[H])nc([H])c1-c1c([H])c([H])c2oc([H])c(C3([H])C([H])([H])C([H])([H])N(C([H])([H])C([H])([H])N([H])C([H])([H])[H])C([H])([H])C3([H])[H])c2c1[H]
     RDKit          3D

 51 54  0  0  0  0  0  0  0  0999 V2000
   -7.9514    0.1817    0.1963 C   0  0  0  0  0  0  0  0  0  0  0  0
   -6.7913    1.0495    0.1857 N   0  0  0  0  0  0  0  0  0  0  0  0
   -5.5426    0.2958    0.1683 C   0  0  0  0  0  0  0  0  0  0  0  0
   -4.3902    1.2722    0.1940 C   0  0  0  0  0  0  0  0  0  0  0  0
   -3.1020    0.6356    0.1611 N   0  0  0  0  0  0  0  0  0  0  0  0
   -2.9062   -0.0796    1.4332 C   0  0  0  0  0  0  0  0  0  0  0  0
   -1.6801   -0.9101    1.2759 C   0  0  0  0  0  0  0  0  0  0  0  0
   -0.4473   -0.2145    0.8297 C   0  0  0  0  0  0  0  0  0  0  0  0
   -0.6809    1.1498    0.2264 C   0  0  0  0  0  0  0  0  0  0  0  0
   -2.0686    1.6529    0.1837 C   0  0  0  0  0  0  0  0  0  0  0  0
    0.1801   -1.0802   -0.2552 C   0  0  0  0  0  0  0  0  0  0  0  0
   -0.4574   -1.9014   -1.1517 C   0  0  0  0  0  0  0  0  0  0  0  0
    0.4516   -2.4079   -1.9563 O   0  0  0  0  0  0  0  0  0  0  0  0
    1.6374   -1.9589   -1.6266 C   0  0  0  0  0  0  0  0  0  0  0  0
    2.8696   -2.2147   -2.1700 C   0  0  0  0  0  0  0  0  0  0  0  0
    3.9639   -1.6179   -1.6219 C   0  0  0  0  0  0  0  0  0  0  0  0
    3.9152   -0.7468   -0.5253 C   0  0  0  0  0  0  0  0  0  0  0  0
    2.6616   -0.5085   -0.0051 C   0  0  0  0  0  0  0  0  0  0  0  0
    1.5304   -1.0950   -0.5348 C   0  0  0  0  0  0  0  0  0  0  0  0
    5.1518   -0.1852    0.0130 C   0  0  0  0  0  0  0  0  0  0  0  0
    6.2349    0.0754   -0.8310 C   0  0  0  0  0  0  0  0  0  0  0  0
    7.3705    0.5698   -0.3137 N   0  0  0  0  0  0  0  0  0  0  0  0
    7.5328    0.8339    0.9866 C   0  0  0  0  0  0  0  0  0  0  0  0
    8.7911    1.3630    1.4791 N   0  0  0  0  0  0  0  0  0  0  0  0
    6.5178    0.5968    1.8299 N   0  0  0  0  0  0  0  0  0  0  0  0
    5.3316    0.0882    1.3411 C   0  0  0  0  0  0  0  0  0  0  0  0
   -7.9957   -0.5049   -0.6672 H   0  0  0  0  0  0  0  0  0  0  0  0
   -8.8465    0.8286    0.1463 H   0  0  0  0  0  0  0  0  0  0  0  0
   -7.9753   -0.3540    1.1752 H   0  0  0  0  0  0  0  0  0  0  0  0
   -6.8219    1.6449   -0.6560 H   0  0  0  0  0  0  0  0  0  0  0  0
   -5.5925   -0.3160    1.1120 H   0  0  0  0  0  0  0  0  0  0  0  0
   -5.4734   -0.3572   -0.7140 H   0  0  0  0  0  0  0  0  0  0  0  0
   -4.5015    1.8318    1.1650 H   0  0  0  0  0  0  0  0  0  0  0  0
   -4.5323    1.9673   -0.6458 H   0  0  0  0  0  0  0  0  0  0  0  0
   -2.7884    0.6860    2.2416 H   0  0  0  0  0  0  0  0  0  0  0  0
   -3.7550   -0.7444    1.5643 H   0  0  0  0  0  0  0  0  0  0  0  0
   -1.9084   -1.7709    0.6331 H   0  0  0  0  0  0  0  0  0  0  0  0
   -1.4893   -1.3503    2.3020 H   0  0  0  0  0  0  0  0  0  0  0  0
    0.2797   -0.1553    1.6588 H   0  0  0  0  0  0  0  0  0  0  0  0
   -0.0612    1.8875    0.8146 H   0  0  0  0  0  0  0  0  0  0  0  0
   -0.2516    1.1422   -0.8014 H   0  0  0  0  0  0  0  0  0  0  0  0
   -2.2726    2.2660    1.1019 H   0  0  0  0  0  0  0  0  0  0  0  0
   -2.1720    2.3447   -0.6783 H   0  0  0  0  0  0  0  0  0  0  0  0
   -1.5089   -2.1100   -1.2105 H   0  0  0  0  0  0  0  0  0  0  0  0
    2.9174   -2.8856   -3.0320 H   0  0  0  0  0  0  0  0  0  0  0  0
    4.9385   -1.8200   -2.0430 H   0  0  0  0  0  0  0  0  0  0  0  0
    2.5517    0.1640    0.8513 H   0  0  0  0  0  0  0  0  0  0  0  0
    6.0767   -0.1535   -1.8633 H   0  0  0  0  0  0  0  0  0  0  0  0
    8.9142    2.2814    1.8963 H   0  0  0  0  0  0  0  0  0  0  0  0
    9.6397    0.7334    1.3897 H   0  0  0  0  0  0  0  0  0  0  0  0
    4.5063   -0.0998    2.0320 H   0  0  0  0  0  0  0  0  0  0  0  0
  1  2  1  0
  2  3  1  0
  3  4  1  0
  4  5  1  0
  5  6  1  0
  6  7  1  0
  7  8  1  0
  8  9  1  0
  9 10  1  0
  8 11  1  0
 11 12  2  0
 12 13  1  0
 13 14  1  0
 14 15  2  0
 15 16  1  0
 16 17  2  0
 17 18  1  0
 18 19  2  0
 17 20  1  0
 20 21  2  0
 21 22  1  0
 22 23  2  0
 23 24  1  0
 23 25  1  0
 25 26  2  0
 10  5  1  0
 19 11  1  0
 26 20  1  0
 19 14  1  0
  1 27  1  0
  1 28  1  0
  1 29  1  0
  2 30  1  0
  3 31  1  0
  3 32  1  0
  4 33  1  0
  4 34  1  0
  6 35  1  0
  6 36  1  0
  7 37  1  0
  7 38  1  0
  8 39  1  0
  9 40  1  0
  9 41  1  0
 10 42  1  0
 10 43  1  0
 12 44  1  0
 15 45  1  0
 16 46  1  0
 18 47  1  0
 21 48  1  0
 24 49  1  0
 24 50  1  0
 26 51  1  0
M  END
$$$$
[H]c1nc(-c2onc(-c3c([H])c([H])c(N([H])C(=O)c4sc([H])c([H])c4[H])c([H])c3[H])c2[H])c(C([H])([H])[H])c([H])c1[H]
     RDKit          3D

 41 44  0  0  0  0  0  0  0  0999 V2000
   -6.1693    1.3593   -0.8037 C   0  0  0  0  0  0  0  0  0  0  0  0
   -6.0928    0.0295   -0.1269 C   0  0  0  0  0  0  0  0  0  0  0  0
   -7.2515   -0.6238    0.2029 C   0  0  0  0  0  0  0  0  0  0  0  0
   -7.1673   -1.8486    0.8263 C   0  0  0  0  0  0  0  0  0  0  0  0
   -5.9404   -2.3863    1.1026 C   0  0  0  0  0  0  0  0  0  0  0  0
   -4.8387   -1.7109    0.7614 N   0  0  0  0  0  0  0  0  0  0  0  0
   -4.8717   -0.5148    0.1527 C   0  0  0  0  0  0  0  0  0  0  0  0
   -3.6235    0.1643   -0.1901 C   0  0  0  0  0  0  0  0  0  0  0  0
   -2.3588   -0.3060    0.0522 C   0  0  0  0  0  0  0  0  0  0  0  0
   -1.4556    0.6246   -0.4193 C   0  0  0  0  0  0  0  0  0  0  0  0
   -2.2072    1.6129   -0.9240 N   0  0  0  0  0  0  0  0  0  0  0  0
   -3.4717    1.3232   -0.7795 O   0  0  0  0  0  0  0  0  0  0  0  0
   -0.0031    0.5243   -0.3650 C   0  0  0  0  0  0  0  0  0  0  0  0
    0.6595   -0.5382    0.1772 C   0  0  0  0  0  0  0  0  0  0  0  0
    2.0534   -0.6514    0.2381 C   0  0  0  0  0  0  0  0  0  0  0  0
    2.8173    0.3651   -0.2770 C   0  0  0  0  0  0  0  0  0  0  0  0
    4.2302    0.3570   -0.2587 N   0  0  0  0  0  0  0  0  0  0  0  0
    5.0663   -0.5659    0.3722 C   0  0  0  0  0  0  0  0  0  0  0  0
    4.7194   -1.5652    1.0468 O   0  0  0  0  0  0  0  0  0  0  0  0
    6.5484   -0.4125    0.2783 C   0  0  0  0  0  0  0  0  0  0  0  0
    7.2518    0.5574   -0.3740 C   0  0  0  0  0  0  0  0  0  0  0  0
    8.5874    0.4969   -0.3239 C   0  0  0  0  0  0  0  0  0  0  0  0
    9.1440   -0.5370    0.3803 C   0  0  0  0  0  0  0  0  0  0  0  0
    7.7747   -1.3853    0.9457 S   0  0  0  0  0  0  0  0  0  0  0  0
    2.1587    1.4762   -0.8441 C   0  0  0  0  0  0  0  0  0  0  0  0
    0.7934    1.5381   -0.8790 C   0  0  0  0  0  0  0  0  0  0  0  0
   -5.7120    2.1653   -0.1869 H   0  0  0  0  0  0  0  0  0  0  0  0
   -5.7168    1.2476   -1.7952 H   0  0  0  0  0  0  0  0  0  0  0  0
   -7.2308    1.6555   -0.9476 H   0  0  0  0  0  0  0  0  0  0  0  0
   -8.2258   -0.1858   -0.0222 H   0  0  0  0  0  0  0  0  0  0  0  0
   -8.0639   -2.4163    1.1131 H   0  0  0  0  0  0  0  0  0  0  0  0
   -5.8941   -3.3598    1.5981 H   0  0  0  0  0  0  0  0  0  0  0  0
   -2.0434   -1.2315    0.5239 H   0  0  0  0  0  0  0  0  0  0  0  0
    0.0783   -1.3480    0.5879 H   0  0  0  0  0  0  0  0  0  0  0  0
    2.4832   -1.5531    0.6915 H   0  0  0  0  0  0  0  0  0  0  0  0
    4.7281    1.1394   -0.7849 H   0  0  0  0  0  0  0  0  0  0  0  0
    6.7157    1.3586   -0.9205 H   0  0  0  0  0  0  0  0  0  0  0  0
    9.2703    1.2278   -0.8145 H   0  0  0  0  0  0  0  0  0  0  0  0
   10.2180   -0.7494    0.5314 H   0  0  0  0  0  0  0  0  0  0  0  0
    2.7481    2.2737   -1.2484 H   0  0  0  0  0  0  0  0  0  0  0  0
    0.2920    2.3930   -1.3153 H   0  0  0  0  0  0  0  0  0  0  0  0
  1  2  1  0
  2  3  2  0
  3  4  1  0
  4  5  2  0
  5  6  1  0
  6  7  2  0
  7  8  1  0
  8  9  2  0
  9 10  1  0
 10 11  2  0
 11 12  1  0
 10 13  1  0
 13 14  2  0
 14 15  1  0
 15 16  2  0
 16 17  1  0
 17 18  1  0
 18 19  2  0
 18 20  1  0
 20 21  2  0
 21 22  1  0
 22 23  2  0
 23 24  1  0
 16 25  1  0
 25 26  2  0
  7  2  1  0
 12  8  1  0
 26 13  1  0
 24 20  1  0
  1 27  1  0
  1 28  1  0
  1 29  1  0
  3 30  1  0
  4 31  1  0
  5 32  1  0
  9 33  1  0
 14 34  1  0
 15 35  1  0
 17 36  1  0
 21 37  1  0
 22 38  1  0
 23 39  1  0
 25 40  1  0
 26 41  1  0
M  END
$$$$
[H]c1c([H])c(C([H])([H])C([H])([H])[H])c([H])c([H])c1C(=O)N1C([H])([H])c2c([H])c([H])c(-c3c([H])c(Cl)c([H])c(C(=O)N([H])C4([H])C([H])([H])C4([H])[H])c3[H])c([H])c2C1([H])[H]
     RDKit          3D

 57 61  0  0  0  0  0  0  0  0999 V2000
   -9.9862   -0.2109   -0.9156 C   0  0  0  0  0  0  0  0  0  0  0  0
   -9.1951    1.0513   -1.0290 C   0  0  0  0  0  0  0  0  0  0  0  0
   -7.8605    0.7956   -0.3936 C   0  0  0  0  0  0  0  0  0  0  0  0
   -7.6542    1.0357    0.9404 C   0  0  0  0  0  0  0  0  0  0  0  0
   -6.4385    0.8046    1.5277 C   0  0  0  0  0  0  0  0  0  0  0  0
   -5.3265    0.3117    0.8208 C   0  0  0  0  0  0  0  0  0  0  0  0
   -5.5685    0.0831   -0.5072 C   0  0  0  0  0  0  0  0  0  0  0  0
   -6.8057    0.3157   -1.1174 C   0  0  0  0  0  0  0  0  0  0  0  0
   -4.1219    0.0938    1.5458 C   0  0  0  0  0  0  0  0  0  0  0  0
   -4.1775    0.2827    2.8189 O   0  0  0  0  0  0  0  0  0  0  0  0
   -2.8538   -0.3036    1.0791 N   0  0  0  0  0  0  0  0  0  0  0  0
   -2.4383   -0.5711   -0.2622 C   0  0  0  0  0  0  0  0  0  0  0  0
   -0.9373   -0.6437   -0.2162 C   0  0  0  0  0  0  0  0  0  0  0  0
    0.0049   -0.7258   -1.2177 C   0  0  0  0  0  0  0  0  0  0  0  0
    1.3310   -0.7695   -0.8927 C   0  0  0  0  0  0  0  0  0  0  0  0
    1.7920   -0.7353    0.4096 C   0  0  0  0  0  0  0  0  0  0  0  0
    0.8349   -0.6534    1.3942 C   0  0  0  0  0  0  0  0  0  0  0  0
   -0.5369   -0.6070    1.0897 C   0  0  0  0  0  0  0  0  0  0  0  0
   -1.7135   -0.5258    1.9923 C   0  0  0  0  0  0  0  0  0  0  0  0
    3.2297   -0.7839    0.7352 C   0  0  0  0  0  0  0  0  0  0  0  0
    3.6851   -1.3627    1.8979 C   0  0  0  0  0  0  0  0  0  0  0  0
    5.0311   -1.3865    2.1621 C   0  0  0  0  0  0  0  0  0  0  0  0
    5.6215   -2.1201    3.6378 Cl  0  0  0  0  0  0  0  0  0  0  0  0
    5.9533   -0.8302    1.2666 C   0  0  0  0  0  0  0  0  0  0  0  0
    5.5226   -0.2462    0.0982 C   0  0  0  0  0  0  0  0  0  0  0  0
    4.1533   -0.2424   -0.1321 C   0  0  0  0  0  0  0  0  0  0  0  0
    6.4467    0.3449   -0.8604 C   0  0  0  0  0  0  0  0  0  0  0  0
    5.9659    0.8391   -1.9257 O   0  0  0  0  0  0  0  0  0  0  0  0
    7.8326    0.3991   -0.6744 N   0  0  0  0  0  0  0  0  0  0  0  0
    8.7051    1.0091   -1.6809 C   0  0  0  0  0  0  0  0  0  0  0  0
    9.8744    1.8371   -1.1559 C   0  0  0  0  0  0  0  0  0  0  0  0
   10.0679    0.5002   -1.8374 C   0  0  0  0  0  0  0  0  0  0  0  0
  -11.0408   -0.0926   -1.2444 H   0  0  0  0  0  0  0  0  0  0  0  0
   -9.5365   -0.9535   -1.6170 H   0  0  0  0  0  0  0  0  0  0  0  0
   -9.9210   -0.6866    0.0974 H   0  0  0  0  0  0  0  0  0  0  0  0
   -8.9743    1.2264   -2.1083 H   0  0  0  0  0  0  0  0  0  0  0  0
   -9.6716    1.9210   -0.5663 H   0  0  0  0  0  0  0  0  0  0  0  0
   -8.5005    1.4205    1.5215 H   0  0  0  0  0  0  0  0  0  0  0  0
   -6.3200    1.0119    2.5946 H   0  0  0  0  0  0  0  0  0  0  0  0
   -4.8124   -0.3005   -1.1375 H   0  0  0  0  0  0  0  0  0  0  0  0
   -6.9428    0.1183   -2.1711 H   0  0  0  0  0  0  0  0  0  0  0  0
   -2.6556    0.3516   -0.8876 H   0  0  0  0  0  0  0  0  0  0  0  0
   -2.8386   -1.4693   -0.7285 H   0  0  0  0  0  0  0  0  0  0  0  0
   -0.3364   -0.7544   -2.2645 H   0  0  0  0  0  0  0  0  0  0  0  0
    2.0828   -0.8342   -1.6742 H   0  0  0  0  0  0  0  0  0  0  0  0
    1.1277   -0.6222    2.4508 H   0  0  0  0  0  0  0  0  0  0  0  0
   -1.6421    0.3060    2.7071 H   0  0  0  0  0  0  0  0  0  0  0  0
   -1.8321   -1.5173    2.4622 H   0  0  0  0  0  0  0  0  0  0  0  0
    2.9430   -1.7810    2.5632 H   0  0  0  0  0  0  0  0  0  0  0  0
    7.0129   -0.8630    1.5007 H   0  0  0  0  0  0  0  0  0  0  0  0
    3.8301    0.2227   -1.0592 H   0  0  0  0  0  0  0  0  0  0  0  0
    8.2680    0.0040    0.1886 H   0  0  0  0  0  0  0  0  0  0  0  0
    8.1918    1.4057   -2.5729 H   0  0  0  0  0  0  0  0  0  0  0  0
   10.1388    2.7626   -1.7134 H   0  0  0  0  0  0  0  0  0  0  0  0
    9.9265    1.9062   -0.0560 H   0  0  0  0  0  0  0  0  0  0  0  0
   10.5792    0.5289   -2.8362 H   0  0  0  0  0  0  0  0  0  0  0  0
   10.4863   -0.2967   -1.1802 H   0  0  0  0  0  0  0  0  0  0  0  0
  1  2  1  0
  2  3  1  0
  3  4  2  0
  4  5  1  0
  5  6  2  0
  6  7  1  0
  7  8  2  0
  6  9  1  0
  9 10  2  0
  9 11  1  0
 11 12  1  0
 12 13  1  0
 13 14  2  0
 14 15  1  0
 15 16  2  0
 16 17  1  0
 17 18  2  0
 18 19  1  0
 16 20  1  0
 20 21  2  0
 21 22  1  0
 22 23  1  0
 22 24  2  0
 24 25  1  0
 25 26  2  0
 25 27  1  0
 27 28  2  0
 27 29  1  0
 29 30  1  0
 30 31  1  0
 31 32  1  0
  8  3  1  0
 19 11  1  0
 26 20  1  0
 32 30  1  0
 18 13  1  0
  1 33  1  0
  1 34  1  0
  1 35  1  0
  2 36  1  0
  2 37  1  0
  4 38  1  0
  5 39  1  0
  7 40  1  0
  8 41  1  0
 12 42  1  0
 12 43  1  0
 14 44  1  0
 15 45  1  0
 17 46  1  0
 19 47  1  0
 19 48  1  0
 21 49  1  0
 24 50  1  0
 26 51  1  0
 29 52  1  0
 30 53  1  0
 31 54  1  0
 31 55  1  0
 32 56  1  0
 32 57  1  0
M  END
$$$$
[H]c1c([H])c([C@]2(C([H])([H])[H])n3c(C(=O)N([H])C4([H])C([H])([H])C4([H])[H])c([H])c([H])c3C3(C(=O)O[C@@]2([H])C([H])([H])C([H])([H])C([H])([H])C([H])([H])N([H])[H])C([H])([H])C3([H])[H])c([H])c([H])c1F
     RDKit          3D

 62 66  0  0  0  0  0  0  0  0999 V2000
   -1.2216    4.7378    2.9855 N   0  0  0  0  0  0  0  0  0  0  0  0
   -1.3269    3.8108    1.8820 C   0  0  0  0  0  0  0  0  0  0  0  0
   -1.5135    2.3832    2.3544 C   0  0  0  0  0  0  0  0  0  0  0  0
   -1.6015    1.5520    1.0518 C   0  0  0  0  0  0  0  0  0  0  0  0
   -1.7887    0.0985    1.3764 C   0  0  0  0  0  0  0  0  0  0  0  0
   -1.9189   -0.8468    0.2609 C   0  0  2  0  0  0  0  0  0  0  0  0
   -2.1161   -2.1546    0.7806 O   0  0  0  0  0  0  0  0  0  0  0  0
   -1.1822   -3.0314    1.2892 C   0  0  0  0  0  0  0  0  0  0  0  0
   -1.5101   -4.2397    1.4959 O   0  0  0  0  0  0  0  0  0  0  0  0
    0.1871   -2.7012    1.6248 C   0  0  0  0  0  0  0  0  0  0  0  0
    1.0672   -3.7493    2.2387 C   0  0  0  0  0  0  0  0  0  0  0  0
    0.5327   -2.7144    3.1149 C   0  0  0  0  0  0  0  0  0  0  0  0
    0.7950   -1.6250    0.8263 C   0  0  0  0  0  0  0  0  0  0  0  0
    2.1275   -1.2882    1.1674 C   0  0  0  0  0  0  0  0  0  0  0  0
    2.5764   -0.3344    0.3408 C   0  0  0  0  0  0  0  0  0  0  0  0
    1.5119   -0.0550   -0.5482 C   0  0  0  0  0  0  0  0  0  0  0  0
    1.7124    0.9440   -1.5554 C   0  0  0  0  0  0  0  0  0  0  0  0
    1.4429    0.7864   -2.7453 O   0  0  0  0  0  0  0  0  0  0  0  0
    2.2552    2.2071   -1.1885 N   0  0  0  0  0  0  0  0  0  0  0  0
    2.4682    3.2233   -2.1666 C   0  0  0  0  0  0  0  0  0  0  0  0
    3.6738    4.1224   -2.0503 C   0  0  0  0  0  0  0  0  0  0  0  0
    2.3087    4.6509   -1.8422 C   0  0  0  0  0  0  0  0  0  0  0  0
    0.4640   -0.8402   -0.2254 N   0  0  0  0  0  0  0  0  0  0  0  0
   -0.8452   -0.8553   -0.8125 C   0  0  2  0  0  0  0  0  0  0  0  0
   -1.2204    0.1005   -1.8660 C   0  0  0  0  0  0  0  0  0  0  0  0
   -0.9726   -2.1832   -1.5187 C   0  0  0  0  0  0  0  0  0  0  0  0
    0.1730   -2.7789   -1.9434 C   0  0  0  0  0  0  0  0  0  0  0  0
    0.1632   -3.9901   -2.6313 C   0  0  0  0  0  0  0  0  0  0  0  0
   -1.0445   -4.5998   -2.8870 C   0  0  0  0  0  0  0  0  0  0  0  0
   -1.0869   -5.7644   -3.5455 F   0  0  0  0  0  0  0  0  0  0  0  0
   -2.2027   -3.9933   -2.4555 C   0  0  0  0  0  0  0  0  0  0  0  0
   -2.1642   -2.7992   -1.7797 C   0  0  0  0  0  0  0  0  0  0  0  0
   -2.1781    4.8317    3.3972 H   0  0  0  0  0  0  0  0  0  0  0  0
   -0.9842    5.6696    2.5771 H   0  0  0  0  0  0  0  0  0  0  0  0
   -2.1531    4.0346    1.2008 H   0  0  0  0  0  0  0  0  0  0  0  0
   -0.3472    3.8419    1.3438 H   0  0  0  0  0  0  0  0  0  0  0  0
   -2.3848    2.2338    2.9871 H   0  0  0  0  0  0  0  0  0  0  0  0
   -0.5558    2.0906    2.8399 H   0  0  0  0  0  0  0  0  0  0  0  0
   -0.7117    1.7431    0.4642 H   0  0  0  0  0  0  0  0  0  0  0  0
   -2.4719    1.9882    0.5179 H   0  0  0  0  0  0  0  0  0  0  0  0
   -1.0515   -0.2306    2.1656 H   0  0  0  0  0  0  0  0  0  0  0  0
   -2.7589    0.0893    1.9864 H   0  0  0  0  0  0  0  0  0  0  0  0
   -2.8851   -0.5998   -0.2752 H   0  0  0  0  0  0  0  0  0  0  0  0
    0.6282   -4.7746    2.2861 H   0  0  0  0  0  0  0  0  0  0  0  0
    2.1354   -3.7714    1.9383 H   0  0  0  0  0  0  0  0  0  0  0  0
    1.2604   -1.9602    3.4888 H   0  0  0  0  0  0  0  0  0  0  0  0
   -0.2790   -2.9255    3.8367 H   0  0  0  0  0  0  0  0  0  0  0  0
    2.7039   -1.7455    1.9921 H   0  0  0  0  0  0  0  0  0  0  0  0
    3.5702    0.1605    0.3232 H   0  0  0  0  0  0  0  0  0  0  0  0
    2.4900    2.3634   -0.1864 H   0  0  0  0  0  0  0  0  0  0  0  0
    2.1763    2.9309   -3.2111 H   0  0  0  0  0  0  0  0  0  0  0  0
    4.1925    4.3588   -2.9959 H   0  0  0  0  0  0  0  0  0  0  0  0
    4.3433    4.0128   -1.1799 H   0  0  0  0  0  0  0  0  0  0  0  0
    2.0756    5.0227   -0.8346 H   0  0  0  0  0  0  0  0  0  0  0  0
    1.9135    5.3294   -2.6502 H   0  0  0  0  0  0  0  0  0  0  0  0
   -1.0643    1.1563   -1.7335 H   0  0  0  0  0  0  0  0  0  0  0  0
   -2.3900    0.0549   -1.8616 H   0  0  0  0  0  0  0  0  0  0  0  0
   -1.0573   -0.3071   -2.8989 H   0  0  0  0  0  0  0  0  0  0  0  0
    1.1555   -2.3632   -1.7798 H   0  0  0  0  0  0  0  0  0  0  0  0
    1.0855   -4.4379   -2.9545 H   0  0  0  0  0  0  0  0  0  0  0  0
   -3.1314   -4.5146   -2.6826 H   0  0  0  0  0  0  0  0  0  0  0  0
   -3.0692   -2.3545   -1.4615 H   0  0  0  0  0  0  0  0  0  0  0  0
  1  2  1  0
  2  3  1  0
  3  4  1  0
  4  5  1  0
  5  6  1  0
  6  7  1  0
  7  8  1  0
  8  9  2  0
  8 10  1  0
 10 11  1  0
 11 12  1  0
 10 13  1  0
 13 14  2  0
 14 15  1  0
 15 16  2  0
 16 17  1  0
 17 18  2  0
 17 19  1  0
 19 20  1  0
 20 21  1  0
 21 22  1  0
 16 23  1  0
 23 24  1  0
 24 25  1  6
 24 26  1  0
 26 27  2  0
 27 28  1  0
 28 29  2  0
 29 30  1  0
 29 31  1  0
 31 32  2  0
 24  6  1  0
 32 26  1  0
 12 10  1  0
 23 13  1  0
 22 20  1  0
  1 33  1  0
  1 34  1  0
  2 35  1  0
  2 36  1  0
  3 37  1  0
  3 38  1  0
  4 39  1  0
  4 40  1  0
  5 41  1  0
  5 42  1  0
  6 43  1  6
 11 44  1  0
 11 45  1  0
 12 46  1  0
 12 47  1  0
 14 48  1  0
 15 49  1  0
 19 50  1  0
 20 51  1  0
 21 52  1  0
 21 53  1  0
 22 54  1  0
 22 55  1  0
 25 56  1  0
 25 57  1  0
 25 58  1  0
 27 59  1  0
 28 60  1  0
 31 61  1  0
 32 62  1  0
M  END
$$$$
[H]Oc1c([H])c([H])c(OC(=O)N([H])c2nc([H])c([H])c(-c3c([H])c([H])nc([H])c3[H])c2[H])c([H])c1[H]
     RDKit          3D

 36 38  0  0  0  0  0  0  0  0999 V2000
   -7.6604   -0.8734   -0.9001 O   0  0  0  0  0  0  0  0  0  0  0  0
   -6.3121   -0.7245   -0.6609 C   0  0  0  0  0  0  0  0  0  0  0  0
   -5.6119   -1.6730    0.0706 C   0  0  0  0  0  0  0  0  0  0  0  0
   -4.2578   -1.5039    0.2993 C   0  0  0  0  0  0  0  0  0  0  0  0
   -3.5942   -0.4116   -0.1862 C   0  0  0  0  0  0  0  0  0  0  0  0
   -2.2335   -0.1993    0.0186 O   0  0  0  0  0  0  0  0  0  0  0  0
   -1.8004    0.5071    1.1438 C   0  0  0  0  0  0  0  0  0  0  0  0
   -2.6927    0.9168    1.9201 O   0  0  0  0  0  0  0  0  0  0  0  0
   -0.4104    0.7445    1.3876 N   0  0  0  0  0  0  0  0  0  0  0  0
    0.5899    0.2809    0.5088 C   0  0  0  0  0  0  0  0  0  0  0  0
    1.9116    0.5458    0.8094 C   0  0  0  0  0  0  0  0  0  0  0  0
    2.9270    0.1158   -0.0158 C   0  0  0  0  0  0  0  0  0  0  0  0
    2.5794   -0.5877   -1.1514 C   0  0  0  0  0  0  0  0  0  0  0  0
    1.2502   -0.8425   -1.4344 C   0  0  0  0  0  0  0  0  0  0  0  0
    0.2869   -0.4101   -0.6107 N   0  0  0  0  0  0  0  0  0  0  0  0
    4.3368    0.3847    0.2838 C   0  0  0  0  0  0  0  0  0  0  0  0
    4.6737    1.5490    0.9491 C   0  0  0  0  0  0  0  0  0  0  0  0
    5.9950    1.8070    1.2337 C   0  0  0  0  0  0  0  0  0  0  0  0
    6.9720    0.9474    0.8774 N   0  0  0  0  0  0  0  0  0  0  0  0
    6.6714   -0.1942    0.2282 C   0  0  0  0  0  0  0  0  0  0  0  0
    5.3516   -0.4614   -0.0613 C   0  0  0  0  0  0  0  0  0  0  0  0
   -4.2906    0.5281   -0.9116 C   0  0  0  0  0  0  0  0  0  0  0  0
   -5.6570    0.3823   -1.1571 C   0  0  0  0  0  0  0  0  0  0  0  0
   -8.0744   -1.3388   -1.6807 H   0  0  0  0  0  0  0  0  0  0  0  0
   -6.1192   -2.5475    0.4653 H   0  0  0  0  0  0  0  0  0  0  0  0
   -3.7096   -2.2406    0.8685 H   0  0  0  0  0  0  0  0  0  0  0  0
   -0.1723    1.2794    2.2496 H   0  0  0  0  0  0  0  0  0  0  0  0
    2.1426    1.1037    1.7147 H   0  0  0  0  0  0  0  0  0  0  0  0
    3.3259   -0.9519   -1.8385 H   0  0  0  0  0  0  0  0  0  0  0  0
    0.9401   -1.3937   -2.3201 H   0  0  0  0  0  0  0  0  0  0  0  0
    3.8989    2.2447    1.2395 H   0  0  0  0  0  0  0  0  0  0  0  0
    6.2505    2.7153    1.7520 H   0  0  0  0  0  0  0  0  0  0  0  0
    7.4356   -0.8735   -0.0543 H   0  0  0  0  0  0  0  0  0  0  0  0
    5.0746   -1.3722   -0.5834 H   0  0  0  0  0  0  0  0  0  0  0  0
   -3.8339    1.4171   -1.3271 H   0  0  0  0  0  0  0  0  0  0  0  0
   -6.1835    1.1300   -1.7271 H   0  0  0  0  0  0  0  0  0  0  0  0
  1  2  1  0
  2  3  2  0
  3  4  1  0
  4  5  2  0
  5  6  1  0
  6  7  1  0
  7  8  2  0
  7  9  1  0
  9 10  1  0
 10 11  2  0
 11 12  1  0
 12 13  2  0
 13 14  1  0
 14 15  2  0
 12 16  1  0
 16 17  2  0
 17 18  1  0
 18 19  2  0
 19 20  1  0
 20 21  2  0
  5 22  1  0
 22 23  2  0
 23  2  1  0
 15 10  1  0
 21 16  1  0
  1 24  1  0
  3 25  1  0
  4 26  1  0
  9 27  1  0
 11 28  1  0
 13 29  1  0
 14 30  1  0
 17 31  1  0
 18 32  1  0
 20 33  1  0
 21 34  1  0
 22 35  1  0
 23 36  1  0
M  END
$$$$
[H]c1nn(C([H])([H])C([H])(C([H])([H])[H])C([H])([H])[H])c([H])c1-c1nnc(-c2sc(-c3c([H])c([H])c([H])c([H])c3[H])c([H])c2[H])o1
     RDKit          3D

 43 46  0  0  0  0  0  0  0  0999 V2000
    6.1433    0.6632   -1.4216 C   0  0  0  0  0  0  0  0  0  0  0  0
    6.5358    1.1969   -0.0520 C   0  0  0  0  0  0  0  0  0  0  0  0
    8.0436    0.9520    0.0843 C   0  0  0  0  0  0  0  0  0  0  0  0
    5.8818    0.4028    1.0592 C   0  0  0  0  0  0  0  0  0  0  0  0
    4.4395    0.4425    0.9906 N   0  0  0  0  0  0  0  0  0  0  0  0
    3.6438   -0.4197    0.3238 C   0  0  0  0  0  0  0  0  0  0  0  0
    2.3247   -0.0619    0.4898 C   0  0  0  0  0  0  0  0  0  0  0  0
    2.3528    1.0634    1.2922 C   0  0  0  0  0  0  0  0  0  0  0  0
    3.6414    1.3355    1.5723 N   0  0  0  0  0  0  0  0  0  0  0  0
    1.1337   -0.7200   -0.0583 C   0  0  0  0  0  0  0  0  0  0  0  0
    1.1719   -1.8160   -0.8354 N   0  0  0  0  0  0  0  0  0  0  0  0
   -0.1029   -2.0928   -1.1179 N   0  0  0  0  0  0  0  0  0  0  0  0
   -0.9032   -1.1955   -0.5333 C   0  0  0  0  0  0  0  0  0  0  0  0
   -0.1237   -0.3654    0.1095 O   0  0  0  0  0  0  0  0  0  0  0  0
   -2.3812   -1.1306   -0.5865 C   0  0  0  0  0  0  0  0  0  0  0  0
   -3.2239   -1.9853   -1.2510 C   0  0  0  0  0  0  0  0  0  0  0  0
   -4.5378   -1.7388   -1.1639 C   0  0  0  0  0  0  0  0  0  0  0  0
   -4.9263   -0.6566   -0.4202 C   0  0  0  0  0  0  0  0  0  0  0  0
   -3.4495   -0.0181    0.1331 S   0  0  0  0  0  0  0  0  0  0  0  0
   -6.3003   -0.1677   -0.1648 C   0  0  0  0  0  0  0  0  0  0  0  0
   -6.4487    0.9542    0.6232 C   0  0  0  0  0  0  0  0  0  0  0  0
   -7.7039    1.4568    0.8964 C   0  0  0  0  0  0  0  0  0  0  0  0
   -8.7840    0.7938    0.3523 C   0  0  0  0  0  0  0  0  0  0  0  0
   -8.6405   -0.3362   -0.4418 C   0  0  0  0  0  0  0  0  0  0  0  0
   -7.3721   -0.8085   -0.6925 C   0  0  0  0  0  0  0  0  0  0  0  0
    7.0313    0.7463   -2.1078 H   0  0  0  0  0  0  0  0  0  0  0  0
    5.3080    1.2479   -1.8577 H   0  0  0  0  0  0  0  0  0  0  0  0
    5.9257   -0.4191   -1.3392 H   0  0  0  0  0  0  0  0  0  0  0  0
    6.3113    2.2846    0.0207 H   0  0  0  0  0  0  0  0  0  0  0  0
    8.3083    1.0464    1.1641 H   0  0  0  0  0  0  0  0  0  0  0  0
    8.2442   -0.0828   -0.3025 H   0  0  0  0  0  0  0  0  0  0  0  0
    8.6192    1.6380   -0.5511 H   0  0  0  0  0  0  0  0  0  0  0  0
    6.2343    0.8291    2.0107 H   0  0  0  0  0  0  0  0  0  0  0  0
    6.2841   -0.6349    0.9807 H   0  0  0  0  0  0  0  0  0  0  0  0
    3.9583   -1.2723   -0.2616 H   0  0  0  0  0  0  0  0  0  0  0  0
    1.4862    1.6196    1.6297 H   0  0  0  0  0  0  0  0  0  0  0  0
   -2.8401   -2.8550   -1.8439 H   0  0  0  0  0  0  0  0  0  0  0  0
   -5.3288   -2.3553   -1.6556 H   0  0  0  0  0  0  0  0  0  0  0  0
   -5.5768    1.4448    1.0307 H   0  0  0  0  0  0  0  0  0  0  0  0
   -7.8384    2.3518    1.5239 H   0  0  0  0  0  0  0  0  0  0  0  0
   -9.7773    1.1701    0.5532 H   0  0  0  0  0  0  0  0  0  0  0  0
   -9.5253   -0.8317   -0.8537 H   0  0  0  0  0  0  0  0  0  0  0  0
   -7.2384   -1.6755   -1.3002 H   0  0  0  0  0  0  0  0  0  0  0  0
  1  2  1  0
  2  3  1  0
  2  4  1  0
  4  5  1  0
  5  6  1  0
  6  7  2  0
  7  8  1  0
  8  9  2  0
  7 10  1  0
 10 11  2  0
 11 12  1  0
 12 13  2  0
 13 14  1  0
 13 15  1  0
 15 16  2  0
 16 17  1  0
 17 18  2  0
 18 19  1  0
 18 20  1  0
 20 21  2  0
 21 22  1  0
 22 23  2  0
 23 24  1  0
 24 25  2  0
  9  5  1  0
 14 10  1  0
 19 15  1  0
 25 20  1  0
  1 26  1  0
  1 27  1  0
  1 28  1  0
  2 29  1  0
  3 30  1  0
  3 31  1  0
  3 32  1  0
  4 33  1  0
  4 34  1  0
  6 35  1  0
  8 36  1  0
 16 37  1  0
 17 38  1  0
 21 39  1  0
 22 40  1  0
 23 41  1  0
 24 42  1  0
 25 43  1  0
M  END
$$$$
[H]Oc1c([H])c([H])c(C(=O)N([H])[C@]([H])(C(F)(F)F)C([H])([H])C(C([H])([H])[H])(C([H])([H])[H])C([H])([H])[H])c([H])c1O[H]
     RDKit          3D

 39 39  0  0  0  0  0  0  0  0999 V2000
   -4.2215    0.5713   -0.8365 C   0  0  0  0  0  0  0  0  0  0  0  0
   -3.3004    0.3672    0.3053 C   0  0  0  0  0  0  0  0  0  0  0  0
   -3.5745    1.5646    1.2589 C   0  0  0  0  0  0  0  0  0  0  0  0
   -3.8208   -0.8296    1.1214 C   0  0  0  0  0  0  0  0  0  0  0  0
   -1.8602    0.3607    0.1115 C   0  0  0  0  0  0  0  0  0  0  0  0
   -1.0673   -0.5176   -0.7019 C   0  0  2  0  0  0  0  0  0  0  0  0
    0.3571   -0.1443   -0.5857 N   0  0  0  0  0  0  0  0  0  0  0  0
    1.3262   -0.9648    0.0175 C   0  0  0  0  0  0  0  0  0  0  0  0
    0.9572   -2.0695    0.4792 O   0  0  0  0  0  0  0  0  0  0  0  0
    2.7271   -0.6018    0.1338 C   0  0  0  0  0  0  0  0  0  0  0  0
    3.6277   -1.4771    0.7490 C   0  0  0  0  0  0  0  0  0  0  0  0
    4.9584   -1.1610    0.8735 C   0  0  0  0  0  0  0  0  0  0  0  0
    5.4693    0.0276    0.4009 C   0  0  0  0  0  0  0  0  0  0  0  0
    6.8355    0.3209    0.5439 O   0  0  0  0  0  0  0  0  0  0  0  0
    4.6087    0.9060   -0.2075 C   0  0  0  0  0  0  0  0  0  0  0  0
    5.0996    2.1038   -0.6887 O   0  0  0  0  0  0  0  0  0  0  0  0
    3.2729    0.5778   -0.3271 C   0  0  0  0  0  0  0  0  0  0  0  0
   -1.2603   -0.7772   -2.1264 C   0  0  0  0  0  0  0  0  0  0  0  0
   -2.4229   -1.3053   -2.5636 F   0  0  0  0  0  0  0  0  0  0  0  0
   -0.8244    0.2835   -2.9476 F   0  0  0  0  0  0  0  0  0  0  0  0
   -0.3025   -1.7615   -2.4813 F   0  0  0  0  0  0  0  0  0  0  0  0
   -4.7607   -0.3864   -1.1073 H   0  0  0  0  0  0  0  0  0  0  0  0
   -5.1064    1.2124   -0.5251 H   0  0  0  0  0  0  0  0  0  0  0  0
   -3.8118    1.1060   -1.7017 H   0  0  0  0  0  0  0  0  0  0  0  0
   -3.1260    1.3253    2.2586 H   0  0  0  0  0  0  0  0  0  0  0  0
   -3.0741    2.4492    0.8342 H   0  0  0  0  0  0  0  0  0  0  0  0
   -4.6521    1.7263    1.3120 H   0  0  0  0  0  0  0  0  0  0  0  0
   -4.6891   -0.5286    1.7525 H   0  0  0  0  0  0  0  0  0  0  0  0
   -3.0519   -1.1950    1.8190 H   0  0  0  0  0  0  0  0  0  0  0  0
   -4.2165   -1.6214    0.4465 H   0  0  0  0  0  0  0  0  0  0  0  0
   -1.4397    0.3432    1.1744 H   0  0  0  0  0  0  0  0  0  0  0  0
   -1.5799    1.4297   -0.1840 H   0  0  0  0  0  0  0  0  0  0  0  0
   -1.0817   -1.5432   -0.2044 H   0  0  0  0  0  0  0  0  0  0  0  0
    0.6513    0.7742   -0.9723 H   0  0  0  0  0  0  0  0  0  0  0  0
    3.2163   -2.4205    1.1229 H   0  0  0  0  0  0  0  0  0  0  0  0
    5.6285   -1.8667    1.3578 H   0  0  0  0  0  0  0  0  0  0  0  0
    7.4515   -0.3374    0.9937 H   0  0  0  0  0  0  0  0  0  0  0  0
    4.4861    2.7816   -1.1476 H   0  0  0  0  0  0  0  0  0  0  0  0
    2.5712    1.2774   -0.8151 H   0  0  0  0  0  0  0  0  0  0  0  0
  1  2  1  0
  2  3  1  0
  2  4  1  0
  2  5  1  0
  5  6  1  0
  6  7  1  0
  7  8  1  0
  8  9  2  0
  8 10  1  0
 10 11  2  0
 11 12  1  0
 12 13  2  0
 13 14  1  0
 13 15  1  0
 15 16  1  0
 15 17  2  0
  6 18  1  0
 18 19  1  0
 18 20  1  0
 18 21  1  0
 17 10  1  0
  1 22  1  0
  1 23  1  0
  1 24  1  0
  3 25  1  0
  3 26  1  0
  3 27  1  0
  4 28  1  0
  4 29  1  0
  4 30  1  0
  5 31  1  0
  5 32  1  0
  6 33  1  1
  7 34  1  0
 11 35  1  0
 12 36  1  0
 14 37  1  0
 16 38  1  0
 17 39  1  0
M  END
$$$$
[H]ON([H])C(=O)c1c([H])c(F)c([H])c([H])c1C(=O)N1C([H])([H])C([H])([H])C([H])(N(c2c([H])c([H])c3c(oc4c([H])c([H])c([H])c([H])c43)c2[H])C([H])([H])C2([H])C([H])([H])C([H])([H])C([H])([H])C([H])([H])C2([H])[H])C([H])([H])C1([H])[H]
     RDKit          3D

 74 79  0  0  0  0  0  0  0  0999 V2000
    6.5713   -3.9944    2.1503 F   0  0  0  0  0  0  0  0  0  0  0  0
    6.0233   -2.8005    1.7434 C   0  0  0  0  0  0  0  0  0  0  0  0
    5.2140   -2.0968    2.6100 C   0  0  0  0  0  0  0  0  0  0  0  0
    4.6640   -0.9037    2.2123 C   0  0  0  0  0  0  0  0  0  0  0  0
    4.8985   -0.3579    0.9237 C   0  0  0  0  0  0  0  0  0  0  0  0
    4.2741    0.8925    0.5692 C   0  0  0  0  0  0  0  0  0  0  0  0
    4.7635    2.0197    0.9100 O   0  0  0  0  0  0  0  0  0  0  0  0
    3.0668    0.9512   -0.1922 N   0  0  0  0  0  0  0  0  0  0  0  0
    2.4995    2.2103   -0.5429 C   0  0  0  0  0  0  0  0  0  0  0  0
    0.9899    2.2188   -0.4217 C   0  0  0  0  0  0  0  0  0  0  0  0
    0.5345    0.9579    0.2135 C   0  0  0  0  0  0  0  0  0  0  0  0
    0.9718   -0.1970   -0.6671 C   0  0  0  0  0  0  0  0  0  0  0  0
    2.4669   -0.3158   -0.5525 C   0  0  0  0  0  0  0  0  0  0  0  0
   -0.8083    0.8684    0.6371 N   0  0  0  0  0  0  0  0  0  0  0  0
   -1.5480    1.9614    1.1757 C   0  0  0  0  0  0  0  0  0  0  0  0
   -2.0988    2.9936    0.2509 C   0  0  0  0  0  0  0  0  0  0  0  0
   -2.7754    4.0408    1.1095 C   0  0  0  0  0  0  0  0  0  0  0  0
   -3.6497    4.9754    0.3719 C   0  0  0  0  0  0  0  0  0  0  0  0
   -3.8551    4.6361   -1.0886 C   0  0  0  0  0  0  0  0  0  0  0  0
   -4.2143    3.1795   -1.1196 C   0  0  0  0  0  0  0  0  0  0  0  0
   -3.0785    2.3042   -0.6651 C   0  0  0  0  0  0  0  0  0  0  0  0
   -1.4926   -0.3882    0.5749 C   0  0  0  0  0  0  0  0  0  0  0  0
   -1.7640   -0.9777    1.8267 C   0  0  0  0  0  0  0  0  0  0  0  0
   -2.4280   -2.1810    1.8671 C   0  0  0  0  0  0  0  0  0  0  0  0
   -2.8130   -2.7863    0.6982 C   0  0  0  0  0  0  0  0  0  0  0  0
   -2.5566   -2.2243   -0.5494 C   0  0  0  0  0  0  0  0  0  0  0  0
   -1.8936   -1.0237   -0.5708 C   0  0  0  0  0  0  0  0  0  0  0  0
   -3.0448   -3.0349   -1.4806 O   0  0  0  0  0  0  0  0  0  0  0  0
   -3.6047   -4.0892   -0.9389 C   0  0  0  0  0  0  0  0  0  0  0  0
   -4.2449   -5.2058   -1.4376 C   0  0  0  0  0  0  0  0  0  0  0  0
   -4.7280   -6.1444   -0.5625 C   0  0  0  0  0  0  0  0  0  0  0  0
   -4.6133   -6.0436    0.8134 C   0  0  0  0  0  0  0  0  0  0  0  0
   -3.9729   -4.9267    1.3031 C   0  0  0  0  0  0  0  0  0  0  0  0
   -3.4819   -3.9753    0.4316 C   0  0  0  0  0  0  0  0  0  0  0  0
    5.6953   -1.0653    0.0927 C   0  0  0  0  0  0  0  0  0  0  0  0
    6.2536   -2.2982    0.5287 C   0  0  0  0  0  0  0  0  0  0  0  0
    6.0851   -0.6923   -1.2541 C   0  0  0  0  0  0  0  0  0  0  0  0
    6.4028   -1.6138   -2.0879 O   0  0  0  0  0  0  0  0  0  0  0  0
    6.1688    0.5925   -1.7881 N   0  0  0  0  0  0  0  0  0  0  0  0
    6.5572    0.7277   -3.1063 O   0  0  0  0  0  0  0  0  0  0  0  0
    5.0268   -2.4946    3.5859 H   0  0  0  0  0  0  0  0  0  0  0  0
    4.0421   -0.3707    2.8821 H   0  0  0  0  0  0  0  0  0  0  0  0
    2.8926    3.0383    0.0732 H   0  0  0  0  0  0  0  0  0  0  0  0
    2.7577    2.4401   -1.5966 H   0  0  0  0  0  0  0  0  0  0  0  0
    0.4877    2.3895   -1.3735 H   0  0  0  0  0  0  0  0  0  0  0  0
    0.6960    3.0580    0.2788 H   0  0  0  0  0  0  0  0  0  0  0  0
    1.1569    0.8643    1.1698 H   0  0  0  0  0  0  0  0  0  0  0  0
    0.6549    0.0079   -1.7160 H   0  0  0  0  0  0  0  0  0  0  0  0
    0.5862   -1.1851   -0.3063 H   0  0  0  0  0  0  0  0  0  0  0  0
    2.6524   -0.9844    0.3394 H   0  0  0  0  0  0  0  0  0  0  0  0
    2.9302   -0.7543   -1.4665 H   0  0  0  0  0  0  0  0  0  0  0  0
   -2.4244    1.6070    1.8056 H   0  0  0  0  0  0  0  0  0  0  0  0
   -0.9325    2.5060    1.9791 H   0  0  0  0  0  0  0  0  0  0  0  0
   -1.3484    3.4614   -0.3506 H   0  0  0  0  0  0  0  0  0  0  0  0
   -1.9961    4.6320    1.6339 H   0  0  0  0  0  0  0  0  0  0  0  0
   -3.3742    3.5549    1.9076 H   0  0  0  0  0  0  0  0  0  0  0  0
   -4.6573    5.0471    0.8385 H   0  0  0  0  0  0  0  0  0  0  0  0
   -3.2385    6.0240    0.3877 H   0  0  0  0  0  0  0  0  0  0  0  0
   -4.7629    5.2079   -1.4263 H   0  0  0  0  0  0  0  0  0  0  0  0
   -2.9628    4.8585   -1.6964 H   0  0  0  0  0  0  0  0  0  0  0  0
   -4.5235    2.9216   -2.1565 H   0  0  0  0  0  0  0  0  0  0  0  0
   -5.1116    3.0256   -0.4794 H   0  0  0  0  0  0  0  0  0  0  0  0
   -3.5599    1.4666   -0.1197 H   0  0  0  0  0  0  0  0  0  0  0  0
   -2.5968    1.8849   -1.5558 H   0  0  0  0  0  0  0  0  0  0  0  0
   -1.4700   -0.5164    2.7526 H   0  0  0  0  0  0  0  0  0  0  0  0
   -2.6708   -2.6923    2.7921 H   0  0  0  0  0  0  0  0  0  0  0  0
   -1.6772   -0.5654   -1.4996 H   0  0  0  0  0  0  0  0  0  0  0  0
   -4.3527   -5.3173   -2.5282 H   0  0  0  0  0  0  0  0  0  0  0  0
   -5.2344   -7.0237   -0.9485 H   0  0  0  0  0  0  0  0  0  0  0  0
   -5.0061   -6.8021    1.4993 H   0  0  0  0  0  0  0  0  0  0  0  0
   -3.8365   -4.7658    2.3796 H   0  0  0  0  0  0  0  0  0  0  0  0
    6.9008   -2.8782   -0.1451 H   0  0  0  0  0  0  0  0  0  0  0  0
    5.9920    1.4492   -1.3029 H   0  0  0  0  0  0  0  0  0  0  0  0
    7.5258    0.7122   -3.1240 H   0  0  0  0  0  0  0  0  0  0  0  0
  1  2  1  0
  2  3  2  0
  3  4  1  0
  4  5  2  0
  5  6  1  0
  6  7  2  0
  6  8  1  0
  8  9  1  0
  9 10  1  0
 10 11  1  0
 11 12  1  0
 12 13  1  0
 11 14  1  0
 14 15  1  0
 15 16  1  0
 16 17  1  0
 17 18  1  0
 18 19  1  0
 19 20  1  0
 20 21  1  0
 14 22  1  0
 22 23  2  0
 23 24  1  0
 24 25  2  0
 25 26  1  0
 26 27  2  0
 26 28  1  0
 28 29  1  0
 29 30  2  0
 30 31  1  0
 31 32  2  0
 32 33  1  0
 33 34  2  0
  5 35  1  0
 35 36  2  0
 35 37  1  0
 37 38  2  0
 37 39  1  0
 39 40  1  0
 36  2  1  0
 13  8  1  0
 21 16  1  0
 27 22  1  0
 34 29  1  0
 34 25  1  0
  3 41  1  0
  4 42  1  0
  9 43  1  0
  9 44  1  0
 10 45  1  0
 10 46  1  0
 11 47  1  0
 12 48  1  0
 12 49  1  0
 13 50  1  0
 13 51  1  0
 15 52  1  0
 15 53  1  0
 16 54  1  0
 17 55  1  0
 17 56  1  0
 18 57  1  0
 18 58  1  0
 19 59  1  0
 19 60  1  0
 20 61  1  0
 20 62  1  0
 21 63  1  0
 21 64  1  0
 23 65  1  0
 24 66  1  0
 27 67  1  0
 30 68  1  0
 31 69  1  0
 32 70  1  0
 33 71  1  0
 36 72  1  0
 39 73  1  0
 40 74  1  0
M  END
$$$$
[H]C1=C(N([H])[C@]([H])(C(=O)N([H])C2(C([H])([H])[H])C([H])([H])C2([H])[H])C([H])([H])C([H])([H])N([H])c2c([H])c([H])c(S(=O)(=O)C([H])([H])[H])c([H])c2[H])c2nc([H])c(-c3c([H])c([H])c(F)c([H])c3[H])nc21
     RDKit          3D

 65 69  0  0  0  0  0  0  0  0999 V2000
    9.5418    3.8954   -1.9255 F   0  0  0  0  0  0  0  0  0  0  0  0
    8.3243    3.4372   -1.5146 C   0  0  0  0  0  0  0  0  0  0  0  0
    8.2075    2.4816   -0.5339 C   0  0  0  0  0  0  0  0  0  0  0  0
    6.9691    2.0534   -0.1558 C   0  0  0  0  0  0  0  0  0  0  0  0
    5.7887    2.5427   -0.7219 C   0  0  0  0  0  0  0  0  0  0  0  0
    5.9094    3.4925   -1.6964 C   0  0  0  0  0  0  0  0  0  0  0  0
    7.1732    3.9320   -2.0850 C   0  0  0  0  0  0  0  0  0  0  0  0
    4.5239    2.0155   -0.2528 C   0  0  0  0  0  0  0  0  0  0  0  0
    3.3220    2.4503   -0.7532 C   0  0  0  0  0  0  0  0  0  0  0  0
    2.1717    1.9039   -0.2660 N   0  0  0  0  0  0  0  0  0  0  0  0
    2.1903    0.9391    0.7034 C   0  0  0  0  0  0  0  0  0  0  0  0
    1.5354    0.0093    1.6002 C   0  0  0  0  0  0  0  0  0  0  0  0
    0.2047   -0.3295    1.8730 N   0  0  0  0  0  0  0  0  0  0  0  0
   -0.6722   -1.1583    1.0752 C   0  0  1  0  0  0  0  0  0  0  0  0
   -0.8007   -0.4166   -0.2608 C   0  0  0  0  0  0  0  0  0  0  0  0
   -1.6977   -1.0979   -1.2377 C   0  0  0  0  0  0  0  0  0  0  0  0
   -3.0413   -1.1842   -0.7406 N   0  0  0  0  0  0  0  0  0  0  0  0
   -3.8389   -0.0246   -0.6149 C   0  0  0  0  0  0  0  0  0  0  0  0
   -5.0169   -0.1334    0.1095 C   0  0  0  0  0  0  0  0  0  0  0  0
   -5.8430    0.9510    0.2535 C   0  0  0  0  0  0  0  0  0  0  0  0
   -5.5471    2.1719   -0.3024 C   0  0  0  0  0  0  0  0  0  0  0  0
   -4.3730    2.2571   -1.0171 C   0  0  0  0  0  0  0  0  0  0  0  0
   -3.5321    1.1893   -1.1756 C   0  0  0  0  0  0  0  0  0  0  0  0
   -6.6178    3.5396   -0.1106 S   0  0  0  0  0  0  0  0  0  0  0  0
   -6.1554    4.3691    1.3963 C   0  0  0  0  0  0  0  0  0  0  0  0
   -6.3983    4.4395   -1.2958 O   0  0  0  0  0  0  0  0  0  0  0  0
   -8.0159    3.0504   -0.0713 O   0  0  0  0  0  0  0  0  0  0  0  0
   -0.0855   -2.4889    0.8211 C   0  0  0  0  0  0  0  0  0  0  0  0
    1.1579   -2.7113    0.7472 O   0  0  0  0  0  0  0  0  0  0  0  0
   -0.9450   -3.5986    0.6484 N   0  0  0  0  0  0  0  0  0  0  0  0
   -0.3932   -4.9421    0.3848 C   0  0  0  0  0  0  0  0  0  0  0  0
    0.4047   -5.0254   -0.8899 C   0  0  0  0  0  0  0  0  0  0  0  0
   -1.1324   -6.1514    0.7941 C   0  0  0  0  0  0  0  0  0  0  0  0
    0.1009   -5.7114    1.5567 C   0  0  0  0  0  0  0  0  0  0  0  0
    2.6885   -0.3975    2.0711 C   0  0  0  0  0  0  0  0  0  0  0  0
    3.3979    0.5088    1.2001 C   0  0  0  0  0  0  0  0  0  0  0  0
    4.5274    1.0520    0.7151 N   0  0  0  0  0  0  0  0  0  0  0  0
    9.1058    2.0715   -0.0646 H   0  0  0  0  0  0  0  0  0  0  0  0
    6.8961    1.3030    0.6152 H   0  0  0  0  0  0  0  0  0  0  0  0
    5.0447    3.9131   -2.1754 H   0  0  0  0  0  0  0  0  0  0  0  0
    7.2903    4.6901   -2.8607 H   0  0  0  0  0  0  0  0  0  0  0  0
    3.3129    3.2029   -1.5095 H   0  0  0  0  0  0  0  0  0  0  0  0
   -0.2348    0.0558    2.7653 H   0  0  0  0  0  0  0  0  0  0  0  0
   -1.6389   -1.2673    1.5537 H   0  0  0  0  0  0  0  0  0  0  0  0
   -1.1429    0.6189   -0.0940 H   0  0  0  0  0  0  0  0  0  0  0  0
    0.2016   -0.3283   -0.7419 H   0  0  0  0  0  0  0  0  0  0  0  0
   -1.6440   -0.4975   -2.1881 H   0  0  0  0  0  0  0  0  0  0  0  0
   -1.2971   -2.1260   -1.4449 H   0  0  0  0  0  0  0  0  0  0  0  0
   -3.4415   -2.1023   -0.4698 H   0  0  0  0  0  0  0  0  0  0  0  0
   -5.2904   -1.0907    0.5695 H   0  0  0  0  0  0  0  0  0  0  0  0
   -6.7572    0.8224    0.8286 H   0  0  0  0  0  0  0  0  0  0  0  0
   -4.1203    3.2266   -1.4685 H   0  0  0  0  0  0  0  0  0  0  0  0
   -2.6157    1.2877   -1.7599 H   0  0  0  0  0  0  0  0  0  0  0  0
   -5.0627    4.2737    1.5392 H   0  0  0  0  0  0  0  0  0  0  0  0
   -6.5232    5.3991    1.3799 H   0  0  0  0  0  0  0  0  0  0  0  0
   -6.6188    3.8275    2.2644 H   0  0  0  0  0  0  0  0  0  0  0  0
   -1.9838   -3.5805    0.6973 H   0  0  0  0  0  0  0  0  0  0  0  0
    0.6621   -3.9985   -1.2832 H   0  0  0  0  0  0  0  0  0  0  0  0
    1.3021   -5.6606   -0.8181 H   0  0  0  0  0  0  0  0  0  0  0  0
   -0.3065   -5.4216   -1.6732 H   0  0  0  0  0  0  0  0  0  0  0  0
   -1.0217   -7.0827    0.2313 H   0  0  0  0  0  0  0  0  0  0  0  0
   -2.1218   -6.0668    1.3283 H   0  0  0  0  0  0  0  0  0  0  0  0
    1.0665   -6.2628    1.4015 H   0  0  0  0  0  0  0  0  0  0  0  0
   -0.0793   -5.4005    2.5839 H   0  0  0  0  0  0  0  0  0  0  0  0
    2.9858   -1.1169    2.8087 H   0  0  0  0  0  0  0  0  0  0  0  0
  1  2  1  0
  2  3  2  0
  3  4  1  0
  4  5  2  0
  5  6  1  0
  6  7  2  0
  5  8  1  0
  8  9  2  0
  9 10  1  0
 10 11  2  0
 11 12  1  0
 12 13  1  0
 13 14  1  0
 14 15  1  0
 15 16  1  0
 16 17  1  0
 17 18  1  0
 18 19  2  0
 19 20  1  0
 20 21  2  0
 21 22  1  0
 22 23  2  0
 21 24  1  0
 24 25  1  0
 24 26  2  0
 24 27  2  0
 14 28  1  0
 28 29  2  0
 28 30  1  0
 30 31  1  0
 31 32  1  0
 31 33  1  0
 33 34  1  0
 12 35  2  0
 35 36  1  0
 36 37  2  0
  7  2  1  0
 37  8  1  0
 36 11  1  0
 23 18  1  0
 34 31  1  0
  3 38  1  0
  4 39  1  0
  6 40  1  0
  7 41  1  0
  9 42  1  0
 13 43  1  0
 14 44  1  1
 15 45  1  0
 15 46  1  0
 16 47  1  0
 16 48  1  0
 17 49  1  0
 19 50  1  0
 20 51  1  0
 22 52  1  0
 23 53  1  0
 25 54  1  0
 25 55  1  0
 25 56  1  0
 30 57  1  0
 32 58  1  0
 32 59  1  0
 32 60  1  0
 33 61  1  0
 33 62  1  0
 34 63  1  0
 34 64  1  0
 35 65  1  0
M  END
$$$$
[H]c1nc([H])n(-c2c([H])c3c([H])c(C(=O)N([H])c4c([H])c([H])c([H])c(C([H])(C([H])([H])[H])C([H])([H])[H])c4[H])c(C([H])([H])[H])c([H])c3n2C([H])([H])C(F)(F)F)c1[H]
     RDKit          3D

 55 58  0  0  0  0  0  0  0  0999 V2000
    5.9797    2.2949   -0.1937 C   0  0  0  0  0  0  0  0  0  0  0  0
    6.5749    0.9188   -0.0170 C   0  0  0  0  0  0  0  0  0  0  0  0
    6.7563    0.7198    1.4999 C   0  0  0  0  0  0  0  0  0  0  0  0
    5.7383   -0.1447   -0.5768 C   0  0  0  0  0  0  0  0  0  0  0  0
    6.2856   -1.1580   -1.3085 C   0  0  0  0  0  0  0  0  0  0  0  0
    5.5019   -2.1718   -1.8466 C   0  0  0  0  0  0  0  0  0  0  0  0
    4.1493   -2.1219   -1.6174 C   0  0  0  0  0  0  0  0  0  0  0  0
    3.5344   -1.1065   -0.8751 C   0  0  0  0  0  0  0  0  0  0  0  0
    2.1359   -1.1507   -0.6730 N   0  0  0  0  0  0  0  0  0  0  0  0
    1.2776   -0.1069   -0.3588 C   0  0  0  0  0  0  0  0  0  0  0  0
    1.7165    1.1017   -0.2392 O   0  0  0  0  0  0  0  0  0  0  0  0
   -0.1556   -0.2382   -0.1415 C   0  0  0  0  0  0  0  0  0  0  0  0
   -0.9850    0.7997   -0.6283 C   0  0  0  0  0  0  0  0  0  0  0  0
   -2.3550    0.7606   -0.5322 C   0  0  0  0  0  0  0  0  0  0  0  0
   -3.3899    1.5888   -0.9033 C   0  0  0  0  0  0  0  0  0  0  0  0
   -4.5955    1.0190   -0.5461 C   0  0  0  0  0  0  0  0  0  0  0  0
   -5.8954    1.5942   -0.7773 N   0  0  0  0  0  0  0  0  0  0  0  0
   -6.9734    1.0795   -1.3471 C   0  0  0  0  0  0  0  0  0  0  0  0
   -7.9926    2.0283   -1.3394 C   0  0  0  0  0  0  0  0  0  0  0  0
   -7.4940    3.1114   -0.7546 N   0  0  0  0  0  0  0  0  0  0  0  0
   -6.2254    2.8539   -0.4126 C   0  0  0  0  0  0  0  0  0  0  0  0
   -4.2876   -0.1450    0.0372 N   0  0  0  0  0  0  0  0  0  0  0  0
   -5.1947   -1.1114    0.5912 C   0  0  0  0  0  0  0  0  0  0  0  0
   -5.4989   -0.8866    2.0567 C   0  0  0  0  0  0  0  0  0  0  0  0
   -6.3843   -1.8686    2.5183 F   0  0  0  0  0  0  0  0  0  0  0  0
   -4.3773   -0.8102    2.8270 F   0  0  0  0  0  0  0  0  0  0  0  0
   -6.1898    0.3015    2.2015 F   0  0  0  0  0  0  0  0  0  0  0  0
   -2.9349   -0.3344    0.0622 C   0  0  0  0  0  0  0  0  0  0  0  0
   -2.1316   -1.3458    0.5371 C   0  0  0  0  0  0  0  0  0  0  0  0
   -0.7323   -1.3202    0.4470 C   0  0  0  0  0  0  0  0  0  0  0  0
    0.0388   -2.4615    1.0482 C   0  0  0  0  0  0  0  0  0  0  0  0
    4.3673   -0.1454   -0.3779 C   0  0  0  0  0  0  0  0  0  0  0  0
    5.4866    2.3837   -1.1672 H   0  0  0  0  0  0  0  0  0  0  0  0
    5.2984    2.4927    0.6662 H   0  0  0  0  0  0  0  0  0  0  0  0
    6.8302    3.0238   -0.1154 H   0  0  0  0  0  0  0  0  0  0  0  0
    7.5953    0.8497   -0.4697 H   0  0  0  0  0  0  0  0  0  0  0  0
    7.4242   -0.1493    1.6779 H   0  0  0  0  0  0  0  0  0  0  0  0
    5.7502    0.5745    1.9562 H   0  0  0  0  0  0  0  0  0  0  0  0
    7.1526    1.6716    1.8821 H   0  0  0  0  0  0  0  0  0  0  0  0
    7.3566   -1.1756   -1.4768 H   0  0  0  0  0  0  0  0  0  0  0  0
    5.9778   -2.9570   -2.4209 H   0  0  0  0  0  0  0  0  0  0  0  0
    3.5041   -2.8893   -2.0186 H   0  0  0  0  0  0  0  0  0  0  0  0
    1.7012   -2.1053   -0.8078 H   0  0  0  0  0  0  0  0  0  0  0  0
   -0.5310    1.6681   -1.0993 H   0  0  0  0  0  0  0  0  0  0  0  0
   -3.2819    2.5441   -1.4010 H   0  0  0  0  0  0  0  0  0  0  0  0
   -7.0735    0.1074   -1.7560 H   0  0  0  0  0  0  0  0  0  0  0  0
   -8.9827    1.8627   -1.7447 H   0  0  0  0  0  0  0  0  0  0  0  0
   -5.5453    3.5594    0.0905 H   0  0  0  0  0  0  0  0  0  0  0  0
   -4.7412   -2.1464    0.5517 H   0  0  0  0  0  0  0  0  0  0  0  0
   -6.1031   -1.1544   -0.0039 H   0  0  0  0  0  0  0  0  0  0  0  0
   -2.5692   -2.2120    1.0052 H   0  0  0  0  0  0  0  0  0  0  0  0
    0.0900   -3.3330    0.4009 H   0  0  0  0  0  0  0  0  0  0  0  0
   -0.5465   -2.7548    1.9678 H   0  0  0  0  0  0  0  0  0  0  0  0
    0.9868   -2.0686    1.4399 H   0  0  0  0  0  0  0  0  0  0  0  0
    3.9568    0.6638    0.2158 H   0  0  0  0  0  0  0  0  0  0  0  0
  1  2  1  0
  2  3  1  0
  2  4  1  0
  4  5  2  0
  5  6  1  0
  6  7  2  0
  7  8  1  0
  8  9  1  0
  9 10  1  0
 10 11  2  0
 10 12  1  0
 12 13  2  0
 13 14  1  0
 14 15  1  0
 15 16  2  0
 16 17  1  0
 17 18  1  0
 18 19  2  0
 19 20  1  0
 20 21  2  0
 16 22  1  0
 22 23  1  0
 23 24  1  0
 24 25  1  0
 24 26  1  0
 24 27  1  0
 22 28  1  0
 28 29  1  0
 29 30  2  0
 30 31  1  0
  8 32  2  0
 32  4  1  0
 30 12  1  0
 28 14  2  0
 21 17  1  0
  1 33  1  0
  1 34  1  0
  1 35  1  0
  2 36  1  0
  3 37  1  0
  3 38  1  0
  3 39  1  0
  5 40  1  0
  6 41  1  0
  7 42  1  0
  9 43  1  0
 13 44  1  0
 15 45  1  0
 18 46  1  0
 19 47  1  0
 21 48  1  0
 23 49  1  0
 23 50  1  0
 29 51  1  0
 31 52  1  0
 31 53  1  0
 31 54  1  0
 32 55  1  0
M  END
$$$$
[H]c1c([H])c([H])c(Oc2c([H])c([H])c(N([H])C(=O)C3(C#N)C([H])([H])C([H])([H])C([H])([H])C3([H])[H])c([H])c2[H])c([H])c1[H]
     RDKit          3D

 41 43  0  0  0  0  0  0  0  0999 V2000
   -3.7358   -3.2264    1.7819 N   0  0  0  0  0  0  0  0  0  0  0  0
   -3.7891   -2.1478    1.3854 C   0  0  0  0  0  0  0  0  0  0  0  0
   -3.8779   -0.7922    0.8901 C   0  0  0  0  0  0  0  0  0  0  0  0
   -4.7310    0.1150    1.7395 C   0  0  0  0  0  0  0  0  0  0  0  0
   -5.3226    1.1366    0.8086 C   0  0  0  0  0  0  0  0  0  0  0  0
   -5.0854    0.5979   -0.5805 C   0  0  0  0  0  0  0  0  0  0  0  0
   -4.6671   -0.8232   -0.4056 C   0  0  0  0  0  0  0  0  0  0  0  0
   -2.5361   -0.1672    0.6758 C   0  0  0  0  0  0  0  0  0  0  0  0
   -2.2947    0.8548    1.3400 O   0  0  0  0  0  0  0  0  0  0  0  0
   -1.6025   -0.7022   -0.2223 N   0  0  0  0  0  0  0  0  0  0  0  0
   -0.3160   -0.2652   -0.5526 C   0  0  0  0  0  0  0  0  0  0  0  0
    0.4403   -0.9697   -1.4967 C   0  0  0  0  0  0  0  0  0  0  0  0
    1.7091   -0.5702   -1.8467 C   0  0  0  0  0  0  0  0  0  0  0  0
    2.2868    0.5412   -1.2807 C   0  0  0  0  0  0  0  0  0  0  0  0
    3.5443    0.9556   -1.6132 O   0  0  0  0  0  0  0  0  0  0  0  0
    4.7022    0.5408   -0.9679 C   0  0  0  0  0  0  0  0  0  0  0  0
    4.6823   -0.3459    0.0888 C   0  0  0  0  0  0  0  0  0  0  0  0
    5.9012   -0.6870    0.6540 C   0  0  0  0  0  0  0  0  0  0  0  0
    7.0733   -0.1551    0.1702 C   0  0  0  0  0  0  0  0  0  0  0  0
    7.0927    0.7365   -0.8924 C   0  0  0  0  0  0  0  0  0  0  0  0
    5.8962    1.0747   -1.4513 C   0  0  0  0  0  0  0  0  0  0  0  0
    1.5635    1.2460   -0.3536 C   0  0  0  0  0  0  0  0  0  0  0  0
    0.2678    0.8323   -0.0007 C   0  0  0  0  0  0  0  0  0  0  0  0
   -4.0332    0.6815    2.4221 H   0  0  0  0  0  0  0  0  0  0  0  0
   -5.4675   -0.4348    2.3335 H   0  0  0  0  0  0  0  0  0  0  0  0
   -4.8971    2.1560    0.9511 H   0  0  0  0  0  0  0  0  0  0  0  0
   -6.4104    1.2114    1.0488 H   0  0  0  0  0  0  0  0  0  0  0  0
   -6.0430    0.6883   -1.1582 H   0  0  0  0  0  0  0  0  0  0  0  0
   -4.3446    1.2165   -1.1499 H   0  0  0  0  0  0  0  0  0  0  0  0
   -4.0896   -1.2408   -1.2450 H   0  0  0  0  0  0  0  0  0  0  0  0
   -5.5832   -1.4284   -0.1888 H   0  0  0  0  0  0  0  0  0  0  0  0
   -1.9597   -1.5959   -0.7270 H   0  0  0  0  0  0  0  0  0  0  0  0
   -0.0016   -1.8459   -1.9500 H   0  0  0  0  0  0  0  0  0  0  0  0
    2.2247   -1.1817   -2.5927 H   0  0  0  0  0  0  0  0  0  0  0  0
    3.7554   -0.7484    0.4498 H   0  0  0  0  0  0  0  0  0  0  0  0
    5.9307   -1.3828    1.4892 H   0  0  0  0  0  0  0  0  0  0  0  0
    8.0149   -0.4224    0.6115 H   0  0  0  0  0  0  0  0  0  0  0  0
    8.0005    1.1669   -1.2891 H   0  0  0  0  0  0  0  0  0  0  0  0
    5.8992    1.7774   -2.2904 H   0  0  0  0  0  0  0  0  0  0  0  0
    1.9947    2.1395    0.1187 H   0  0  0  0  0  0  0  0  0  0  0  0
   -0.1918    1.4644    0.7325 H   0  0  0  0  0  0  0  0  0  0  0  0
  1  2  3  0
  2  3  1  0
  3  4  1  0
  4  5  1  0
  5  6  1  0
  6  7  1  0
  3  8  1  0
  8  9  2  0
  8 10  1  0
 10 11  1  0
 11 12  2  0
 12 13  1  0
 13 14  2  0
 14 15  1  0
 15 16  1  0
 16 17  2  0
 17 18  1  0
 18 19  2  0
 19 20  1  0
 20 21  2  0
 14 22  1  0
 22 23  2  0
  7  3  1  0
 23 11  1  0
 21 16  1  0
  4 24  1  0
  4 25  1  0
  5 26  1  0
  5 27  1  0
  6 28  1  0
  6 29  1  0
  7 30  1  0
  7 31  1  0
 10 32  1  0
 12 33  1  0
 13 34  1  0
 17 35  1  0
 18 36  1  0
 19 37  1  0
 20 38  1  0
 21 39  1  0
 22 40  1  0
 23 41  1  0
M  END
$$$$
[H]c1nc(N([H])[C@]([H])(c2c([H])nc(Sc3c([H])c([H])c([H])c([H])c3[H])c([H])c2[H])C([H])([H])[H])nc(-c2c([H])nc(N([H])[H])nc2[H])c1[H]
     RDKit          3D

 48 51  0  0  0  0  0  0  0  0999 V2000
   -1.2649    0.9904    0.8859 C   0  0  0  0  0  0  0  0  0  0  0  0
   -0.6144    0.3594   -0.3250 C   0  0  2  0  0  0  0  0  0  0  0  0
   -0.1881   -1.0020   -0.0987 N   0  0  0  0  0  0  0  0  0  0  0  0
   -1.0593   -2.0809    0.1994 C   0  0  0  0  0  0  0  0  0  0  0  0
   -2.3971   -1.9318    0.2945 N   0  0  0  0  0  0  0  0  0  0  0  0
   -3.2354   -2.9391    0.5781 C   0  0  0  0  0  0  0  0  0  0  0  0
   -2.6744   -4.1764    0.7773 C   0  0  0  0  0  0  0  0  0  0  0  0
   -1.2902   -4.3598    0.6846 C   0  0  0  0  0  0  0  0  0  0  0  0
   -0.5295   -3.2965    0.3969 N   0  0  0  0  0  0  0  0  0  0  0  0
   -4.6798   -2.7515    0.6761 C   0  0  0  0  0  0  0  0  0  0  0  0
   -5.2139   -1.4885    0.4699 C   0  0  0  0  0  0  0  0  0  0  0  0
   -6.5180   -1.2293    0.5394 N   0  0  0  0  0  0  0  0  0  0  0  0
   -7.3767   -2.2338    0.8235 C   0  0  0  0  0  0  0  0  0  0  0  0
   -8.7683   -1.9530    0.8961 N   0  0  0  0  0  0  0  0  0  0  0  0
   -6.8741   -3.4511    1.0234 N   0  0  0  0  0  0  0  0  0  0  0  0
   -5.5631   -3.7447    0.9602 C   0  0  0  0  0  0  0  0  0  0  0  0
    0.5513    1.1794   -0.7258 C   0  0  0  0  0  0  0  0  0  0  0  0
    1.4342    0.6721   -1.6878 C   0  0  0  0  0  0  0  0  0  0  0  0
    2.5414    1.3739   -2.1152 C   0  0  0  0  0  0  0  0  0  0  0  0
    2.7559    2.6189   -1.5525 C   0  0  0  0  0  0  0  0  0  0  0  0
    4.1513    3.5709   -2.0559 S   0  0  0  0  0  0  0  0  0  0  0  0
    5.6050    3.2698   -1.0764 C   0  0  0  0  0  0  0  0  0  0  0  0
    6.7481    3.9627   -1.4006 C   0  0  0  0  0  0  0  0  0  0  0  0
    7.9326    3.8066   -0.7047 C   0  0  0  0  0  0  0  0  0  0  0  0
    7.9454    2.9195    0.3482 C   0  0  0  0  0  0  0  0  0  0  0  0
    6.7900    2.2209    0.6737 C   0  0  0  0  0  0  0  0  0  0  0  0
    5.6171    2.3826   -0.0240 C   0  0  0  0  0  0  0  0  0  0  0  0
    1.9162    3.1138   -0.6302 N   0  0  0  0  0  0  0  0  0  0  0  0
    0.8267    2.4250   -0.2084 C   0  0  0  0  0  0  0  0  0  0  0  0
   -1.6588    1.9929    0.6128 H   0  0  0  0  0  0  0  0  0  0  0  0
   -0.4948    1.0814    1.7069 H   0  0  0  0  0  0  0  0  0  0  0  0
   -2.1341    0.4241    1.2595 H   0  0  0  0  0  0  0  0  0  0  0  0
   -1.3911    0.3448   -1.1255 H   0  0  0  0  0  0  0  0  0  0  0  0
    0.8391   -1.2113   -0.1581 H   0  0  0  0  0  0  0  0  0  0  0  0
   -3.2331   -5.0682    1.0116 H   0  0  0  0  0  0  0  0  0  0  0  0
   -0.8553   -5.3194    0.8395 H   0  0  0  0  0  0  0  0  0  0  0  0
   -4.5044   -0.6810    0.2396 H   0  0  0  0  0  0  0  0  0  0  0  0
   -9.1401   -1.4758    1.7243 H   0  0  0  0  0  0  0  0  0  0  0  0
   -9.3792   -2.2305    0.1212 H   0  0  0  0  0  0  0  0  0  0  0  0
   -5.2103   -4.7638    1.1339 H   0  0  0  0  0  0  0  0  0  0  0  0
    1.2064   -0.3041   -2.0839 H   0  0  0  0  0  0  0  0  0  0  0  0
    3.2123    0.9462   -2.8707 H   0  0  0  0  0  0  0  0  0  0  0  0
    6.7418    4.6692   -2.2381 H   0  0  0  0  0  0  0  0  0  0  0  0
    8.8090    4.3662   -0.9870 H   0  0  0  0  0  0  0  0  0  0  0  0
    8.8735    2.7802    0.9139 H   0  0  0  0  0  0  0  0  0  0  0  0
    6.8459    1.5417    1.4991 H   0  0  0  0  0  0  0  0  0  0  0  0
    4.7303    1.8298    0.2459 H   0  0  0  0  0  0  0  0  0  0  0  0
    0.1744    2.8502    0.5332 H   0  0  0  0  0  0  0  0  0  0  0  0
  1  2  1  0
  2  3  1  0
  3  4  1  0
  4  5  2  0
  5  6  1  0
  6  7  2  0
  7  8  1  0
  8  9  2  0
  6 10  1  0
 10 11  2  0
 11 12  1  0
 12 13  2  0
 13 14  1  0
 13 15  1  0
 15 16  2  0
  2 17  1  0
 17 18  2  0
 18 19  1  0
 19 20  2  0
 20 21  1  0
 21 22  1  0
 22 23  2  0
 23 24  1  0
 24 25  2  0
 25 26  1  0
 26 27  2  0
 20 28  1  0
 28 29  2  0
  9  4  1  0
 16 10  1  0
 29 17  1  0
 27 22  1  0
  1 30  1  0
  1 31  1  0
  1 32  1  0
  2 33  1  6
  3 34  1  0
  7 35  1  0
  8 36  1  0
 11 37  1  0
 14 38  1  0
 14 39  1  0
 16 40  1  0
 18 41  1  0
 19 42  1  0
 23 43  1  0
 24 44  1  0
 25 45  1  0
 26 46  1  0
 27 47  1  0
 29 48  1  0
M  END
$$$$
[H]O[C@@]1([H])C(=O)N(C2([H])C([H])([H])C([H])([H])C([H])([H])C2([H])[H])C([H])([H])C([H])(N([H])C([H])(C([H])([H])[H])C([H])([H])[H])[C@]1([H])N([H])C([H])([H])[H]
     RDKit          3D

 46 47  0  0  0  0  0  0  0  0999 V2000
   -3.1096    1.7899    1.9205 C   0  0  0  0  0  0  0  0  0  0  0  0
   -2.8393    1.8808    0.4326 C   0  0  0  0  0  0  0  0  0  0  0  0
   -2.1414    3.1582    0.1064 C   0  0  0  0  0  0  0  0  0  0  0  0
   -2.4600    0.6996   -0.1853 N   0  0  0  0  0  0  0  0  0  0  0  0
   -1.3263   -0.0437    0.1654 C   0  0  0  0  0  0  0  0  0  0  0  0
   -0.0529    0.6956   -0.0528 C   0  0  0  0  0  0  0  0  0  0  0  0
    1.1288   -0.1963   -0.1401 N   0  0  0  0  0  0  0  0  0  0  0  0
    2.3966    0.4066    0.0120 C   0  0  0  0  0  0  0  0  0  0  0  0
    3.3109   -0.1863    1.0261 C   0  0  0  0  0  0  0  0  0  0  0  0
    4.5930    0.5789    0.7839 C   0  0  0  0  0  0  0  0  0  0  0  0
    4.5280    1.0479   -0.6733 C   0  0  0  0  0  0  0  0  0  0  0  0
    3.2903    0.3204   -1.2369 C   0  0  0  0  0  0  0  0  0  0  0  0
    0.9710   -1.5785   -0.3617 C   0  0  0  0  0  0  0  0  0  0  0  0
    1.9205   -2.2611   -0.7352 O   0  0  0  0  0  0  0  0  0  0  0  0
   -0.3498   -2.2640   -0.1518 C   0  0  2  0  0  0  0  0  0  0  0  0
   -0.3521   -3.4916   -0.8229 O   0  0  0  0  0  0  0  0  0  0  0  0
   -1.3828   -1.3253   -0.7043 C   0  0  1  0  0  0  0  0  0  0  0  0
   -2.7118   -1.8905   -0.5408 N   0  0  0  0  0  0  0  0  0  0  0  0
   -2.9122   -3.1286   -1.2194 C   0  0  0  0  0  0  0  0  0  0  0  0
   -3.7357    2.6689    2.1855 H   0  0  0  0  0  0  0  0  0  0  0  0
   -3.6706    0.8972    2.2078 H   0  0  0  0  0  0  0  0  0  0  0  0
   -2.1700    1.9153    2.5267 H   0  0  0  0  0  0  0  0  0  0  0  0
   -3.9234    2.0809    0.0208 H   0  0  0  0  0  0  0  0  0  0  0  0
   -2.6591    4.0031    0.6677 H   0  0  0  0  0  0  0  0  0  0  0  0
   -2.3437    3.4481   -0.9732 H   0  0  0  0  0  0  0  0  0  0  0  0
   -1.0704    3.1959    0.2249 H   0  0  0  0  0  0  0  0  0  0  0  0
   -2.7923    0.6115   -1.1530 H   0  0  0  0  0  0  0  0  0  0  0  0
   -1.3128   -0.3787    1.2372 H   0  0  0  0  0  0  0  0  0  0  0  0
   -0.0602    1.3784   -0.9118 H   0  0  0  0  0  0  0  0  0  0  0  0
    0.1019    1.3316    0.8749 H   0  0  0  0  0  0  0  0  0  0  0  0
    2.3166    1.5043    0.1972 H   0  0  0  0  0  0  0  0  0  0  0  0
    3.5530   -1.2538    0.8132 H   0  0  0  0  0  0  0  0  0  0  0  0
    3.0173   -0.0110    2.0794 H   0  0  0  0  0  0  0  0  0  0  0  0
    4.6023    1.4620    1.4599 H   0  0  0  0  0  0  0  0  0  0  0  0
    5.4902   -0.0548    0.9404 H   0  0  0  0  0  0  0  0  0  0  0  0
    4.2651    2.1280   -0.6996 H   0  0  0  0  0  0  0  0  0  0  0  0
    5.4409    0.7845   -1.2133 H   0  0  0  0  0  0  0  0  0  0  0  0
    2.8556    0.8345   -2.0937 H   0  0  0  0  0  0  0  0  0  0  0  0
    3.6318   -0.7123   -1.4061 H   0  0  0  0  0  0  0  0  0  0  0  0
   -0.5207   -2.3888    0.9368 H   0  0  0  0  0  0  0  0  0  0  0  0
   -0.3614   -4.2025   -0.1408 H   0  0  0  0  0  0  0  0  0  0  0  0
   -1.1557   -1.0367   -1.7480 H   0  0  0  0  0  0  0  0  0  0  0  0
   -2.8535   -2.0158    0.4993 H   0  0  0  0  0  0  0  0  0  0  0  0
   -2.3942   -3.2336   -2.1781 H   0  0  0  0  0  0  0  0  0  0  0  0
   -4.0122   -3.1931   -1.4593 H   0  0  0  0  0  0  0  0  0  0  0  0
   -2.7396   -3.9753   -0.5171 H   0  0  0  0  0  0  0  0  0  0  0  0
  1  2  1  0
  2  3  1  0
  2  4  1  0
  4  5  1  0
  5  6  1  0
  6  7  1  0
  7  8  1  0
  8  9  1  0
  9 10  1  0
 10 11  1  0
 11 12  1  0
  7 13  1  0
 13 14  2  0
 13 15  1  0
 15 16  1  0
 15 17  1  0
 17 18  1  0
 18 19  1  0
 17  5  1  0
 12  8  1  0
  1 20  1  0
  1 21  1  0
  1 22  1  0
  2 23  1  0
  3 24  1  0
  3 25  1  0
  3 26  1  0
  4 27  1  0
  5 28  1  0
  6 29  1  0
  6 30  1  0
  8 31  1  0
  9 32  1  0
  9 33  1  0
 10 34  1  0
 10 35  1  0
 11 36  1  0
 11 37  1  0
 12 38  1  0
 12 39  1  0
 15 40  1  1
 16 41  1  0
 17 42  1  6
 18 43  1  0
 19 44  1  0
 19 45  1  0
 19 46  1  0
M  END
$$$$
[H]c1sc(N(C([H])([H])[H])C([H])([H])C([H])([H])[H])c([H])c1C(=O)N([H])c1c([H])c([H])c(S(=O)(=O)N2C([H])([H])C([H])([H])N(c3c([H])c([H])c(I)c([H])c3[H])C([H])([H])C2([H])[H])c([H])c1[H]
     RDKit          3D

 61 64  0  0  0  0  0  0  0  0999 V2000
   -8.7019   -1.5639    1.4139 C   0  0  0  0  0  0  0  0  0  0  0  0
   -7.7904   -0.5789    2.1265 C   0  0  0  0  0  0  0  0  0  0  0  0
   -8.1242    0.7468    1.7420 N   0  0  0  0  0  0  0  0  0  0  0  0
   -9.3769    1.3909    2.1205 C   0  0  0  0  0  0  0  0  0  0  0  0
   -7.2137    1.5168    0.9392 C   0  0  0  0  0  0  0  0  0  0  0  0
   -5.9890    1.1760    0.4329 C   0  0  0  0  0  0  0  0  0  0  0  0
   -5.3397    2.0935   -0.2951 C   0  0  0  0  0  0  0  0  0  0  0  0
   -5.9572    3.3028   -0.4741 C   0  0  0  0  0  0  0  0  0  0  0  0
   -7.4194    3.1179    0.3782 S   0  0  0  0  0  0  0  0  0  0  0  0
   -3.9922    1.8580   -0.9005 C   0  0  0  0  0  0  0  0  0  0  0  0
   -3.6148    2.5605   -1.8592 O   0  0  0  0  0  0  0  0  0  0  0  0
   -3.1820    0.8481   -0.3711 N   0  0  0  0  0  0  0  0  0  0  0  0
   -1.8882    0.4562   -0.7962 C   0  0  0  0  0  0  0  0  0  0  0  0
   -1.3286    0.7794   -1.9996 C   0  0  0  0  0  0  0  0  0  0  0  0
   -0.0286    0.3696   -2.3401 C   0  0  0  0  0  0  0  0  0  0  0  0
    0.7365   -0.3752   -1.4758 C   0  0  0  0  0  0  0  0  0  0  0  0
    0.1758   -0.7027   -0.2631 C   0  0  0  0  0  0  0  0  0  0  0  0
   -1.0981   -0.3075    0.0845 C   0  0  0  0  0  0  0  0  0  0  0  0
    2.3539   -0.9058   -1.8790 S   0  0  0  0  0  0  0  0  0  0  0  0
    2.3809   -1.2199   -3.3533 O   0  0  0  0  0  0  0  0  0  0  0  0
    2.5550   -2.2116   -1.1254 O   0  0  0  0  0  0  0  0  0  0  0  0
    3.5664    0.2097   -1.5002 N   0  0  0  0  0  0  0  0  0  0  0  0
    3.7214    0.5639   -0.1399 C   0  0  0  0  0  0  0  0  0  0  0  0
    4.6460   -0.4422    0.5274 C   0  0  0  0  0  0  0  0  0  0  0  0
    5.8807   -0.4446   -0.2093 N   0  0  0  0  0  0  0  0  0  0  0  0
    6.0128   -0.0211   -1.5834 C   0  0  0  0  0  0  0  0  0  0  0  0
    4.7307    0.2016   -2.2928 C   0  0  0  0  0  0  0  0  0  0  0  0
    7.0703   -0.9008    0.4371 C   0  0  0  0  0  0  0  0  0  0  0  0
    6.9842   -1.4682    1.6834 C   0  0  0  0  0  0  0  0  0  0  0  0
    8.1327   -1.9156    2.3321 C   0  0  0  0  0  0  0  0  0  0  0  0
    9.3848   -1.8057    1.7517 C   0  0  0  0  0  0  0  0  0  0  0  0
   11.1289   -2.4822    2.7320 I   0  0  0  0  0  0  0  0  0  0  0  0
    9.4219   -1.2312    0.5037 C   0  0  0  0  0  0  0  0  0  0  0  0
    8.3112   -0.7809   -0.1616 C   0  0  0  0  0  0  0  0  0  0  0  0
   -8.2469   -2.5714    1.4060 H   0  0  0  0  0  0  0  0  0  0  0  0
   -8.8818   -1.1556    0.4119 H   0  0  0  0  0  0  0  0  0  0  0  0
   -9.6756   -1.6617    1.9494 H   0  0  0  0  0  0  0  0  0  0  0  0
   -8.0012   -0.7168    3.2327 H   0  0  0  0  0  0  0  0  0  0  0  0
   -6.7414   -0.8470    1.9413 H   0  0  0  0  0  0  0  0  0  0  0  0
   -9.1988    2.0656    2.9621 H   0  0  0  0  0  0  0  0  0  0  0  0
  -10.1014    0.6132    2.4368 H   0  0  0  0  0  0  0  0  0  0  0  0
   -9.8390    1.9141    1.2580 H   0  0  0  0  0  0  0  0  0  0  0  0
   -5.5958    0.1541    0.6483 H   0  0  0  0  0  0  0  0  0  0  0  0
   -5.5817    4.1768   -1.0386 H   0  0  0  0  0  0  0  0  0  0  0  0
   -3.6036    0.3075    0.4617 H   0  0  0  0  0  0  0  0  0  0  0  0
   -1.8754    1.3518   -2.7319 H   0  0  0  0  0  0  0  0  0  0  0  0
    0.4147    0.6263   -3.2931 H   0  0  0  0  0  0  0  0  0  0  0  0
    0.7927   -1.2996    0.4264 H   0  0  0  0  0  0  0  0  0  0  0  0
   -1.5210   -0.5763    1.0436 H   0  0  0  0  0  0  0  0  0  0  0  0
    2.7701    0.6732    0.3876 H   0  0  0  0  0  0  0  0  0  0  0  0
    4.2422    1.5423   -0.0886 H   0  0  0  0  0  0  0  0  0  0  0  0
    4.2370   -1.4636    0.5122 H   0  0  0  0  0  0  0  0  0  0  0  0
    4.7658   -0.1572    1.5954 H   0  0  0  0  0  0  0  0  0  0  0  0
    6.6251    0.9013   -1.6154 H   0  0  0  0  0  0  0  0  0  0  0  0
    6.6399   -0.8217   -2.0786 H   0  0  0  0  0  0  0  0  0  0  0  0
    4.7531    1.1463   -2.9095 H   0  0  0  0  0  0  0  0  0  0  0  0
    4.6243   -0.6243   -3.0573 H   0  0  0  0  0  0  0  0  0  0  0  0
    6.0251   -1.5903    2.2022 H   0  0  0  0  0  0  0  0  0  0  0  0
    8.0571   -2.3639    3.3199 H   0  0  0  0  0  0  0  0  0  0  0  0
   10.4023   -1.1313    0.0172 H   0  0  0  0  0  0  0  0  0  0  0  0
    8.3651   -0.3254   -1.1525 H   0  0  0  0  0  0  0  0  0  0  0  0
  1  2  1  0
  2  3  1  0
  3  4  1  0
  3  5  1  0
  5  6  2  0
  6  7  1  0
  7  8  2  0
  8  9  1  0
  7 10  1  0
 10 11  2  0
 10 12  1  0
 12 13  1  0
 13 14  2  0
 14 15  1  0
 15 16  2  0
 16 17  1  0
 17 18  2  0
 16 19  1  0
 19 20  2  0
 19 21  2  0
 19 22  1  0
 22 23  1  0
 23 24  1  0
 24 25  1  0
 25 26  1  0
 26 27  1  0
 25 28  1  0
 28 29  2  0
 29 30  1  0
 30 31  2  0
 31 32  1  0
 31 33  1  0
 33 34  2  0
  9  5  1  0
 18 13  1  0
 27 22  1  0
 34 28  1  0
  1 35  1  0
  1 36  1  0
  1 37  1  0
  2 38  1  0
  2 39  1  0
  4 40  1  0
  4 41  1  0
  4 42  1  0
  6 43  1  0
  8 44  1  0
 12 45  1  0
 14 46  1  0
 15 47  1  0
 17 48  1  0
 18 49  1  0
 23 50  1  0
 23 51  1  0
 24 52  1  0
 24 53  1  0
 26 54  1  0
 26 55  1  0
 27 56  1  0
 27 57  1  0
 29 58  1  0
 30 59  1  0
 33 60  1  0
 34 61  1  0
M  END
$$$$
[H]c1nc2c([H])c(C(=O)c3c(F)c([H])c([H])c([H])c3F)c([H])c([H])c2nc1N1C([H])([H])C([H])([H])N([H])C([H])([H])C1([H])[H]
     RDKit          3D

 42 45  0  0  0  0  0  0  0  0999 V2000
   -5.5143    1.1024    1.5913 C   0  0  0  0  0  0  0  0  0  0  0  0
   -4.4317    1.5835    0.6381 C   0  0  0  0  0  0  0  0  0  0  0  0
   -3.7512    0.3869    0.2186 N   0  0  0  0  0  0  0  0  0  0  0  0
   -4.4796   -0.8001   -0.1477 C   0  0  0  0  0  0  0  0  0  0  0  0
   -5.9303   -0.7579    0.1044 C   0  0  0  0  0  0  0  0  0  0  0  0
   -6.4405    0.3823    0.7812 N   0  0  0  0  0  0  0  0  0  0  0  0
   -2.3419    0.3460    0.1280 C   0  0  0  0  0  0  0  0  0  0  0  0
   -1.5425    1.4650    0.1275 C   0  0  0  0  0  0  0  0  0  0  0  0
   -0.1803    1.3783    0.0231 N   0  0  0  0  0  0  0  0  0  0  0  0
    0.4152    0.1959   -0.0816 C   0  0  0  0  0  0  0  0  0  0  0  0
    1.7918    0.0599   -0.2478 C   0  0  0  0  0  0  0  0  0  0  0  0
    2.4338   -1.1348   -0.4208 C   0  0  0  0  0  0  0  0  0  0  0  0
    1.6079   -2.2774   -0.4151 C   0  0  0  0  0  0  0  0  0  0  0  0
    0.2508   -2.1769   -0.2520 C   0  0  0  0  0  0  0  0  0  0  0  0
   -0.3493   -0.9470   -0.0881 C   0  0  0  0  0  0  0  0  0  0  0  0
   -1.6811   -0.8402    0.0184 N   0  0  0  0  0  0  0  0  0  0  0  0
    3.8573   -1.3212   -0.6762 C   0  0  0  0  0  0  0  0  0  0  0  0
    4.2108   -2.4696   -1.1541 O   0  0  0  0  0  0  0  0  0  0  0  0
    4.9081   -0.3663   -0.4441 C   0  0  0  0  0  0  0  0  0  0  0  0
    5.8455   -0.7114    0.5460 C   0  0  0  0  0  0  0  0  0  0  0  0
    5.6611   -1.8656    1.2200 F   0  0  0  0  0  0  0  0  0  0  0  0
    6.9143    0.0992    0.8064 C   0  0  0  0  0  0  0  0  0  0  0  0
    7.0790    1.2628    0.1020 C   0  0  0  0  0  0  0  0  0  0  0  0
    6.1691    1.6490   -0.8908 C   0  0  0  0  0  0  0  0  0  0  0  0
    5.0758    0.8052   -1.1509 C   0  0  0  0  0  0  0  0  0  0  0  0
    4.2156    1.1127   -2.1437 F   0  0  0  0  0  0  0  0  0  0  0  0
   -5.0333    0.3701    2.2740 H   0  0  0  0  0  0  0  0  0  0  0  0
   -6.0324    1.9208    2.1172 H   0  0  0  0  0  0  0  0  0  0  0  0
   -3.7841    2.3200    1.1203 H   0  0  0  0  0  0  0  0  0  0  0  0
   -4.9327    2.0043   -0.2895 H   0  0  0  0  0  0  0  0  0  0  0  0
   -3.9939   -1.7090    0.2657 H   0  0  0  0  0  0  0  0  0  0  0  0
   -4.3483   -0.8787   -1.2727 H   0  0  0  0  0  0  0  0  0  0  0  0
   -6.1885   -1.6696    0.7281 H   0  0  0  0  0  0  0  0  0  0  0  0
   -6.5444   -0.9262   -0.8268 H   0  0  0  0  0  0  0  0  0  0  0  0
   -6.8585    1.0358    0.0868 H   0  0  0  0  0  0  0  0  0  0  0  0
   -1.9775    2.4506    0.2040 H   0  0  0  0  0  0  0  0  0  0  0  0
    2.3475    0.9722   -0.2025 H   0  0  0  0  0  0  0  0  0  0  0  0
    2.0949   -3.2425   -0.5296 H   0  0  0  0  0  0  0  0  0  0  0  0
   -0.3600   -3.0928   -0.2469 H   0  0  0  0  0  0  0  0  0  0  0  0
    7.6462   -0.1810    1.5945 H   0  0  0  0  0  0  0  0  0  0  0  0
    7.9074    1.9027    0.3027 H   0  0  0  0  0  0  0  0  0  0  0  0
    6.2646    2.5627   -1.4592 H   0  0  0  0  0  0  0  0  0  0  0  0
  1  2  1  0
  2  3  1  0
  3  4  1  0
  4  5  1  0
  5  6  1  0
  3  7  1  0
  7  8  2  0
  8  9  1  0
  9 10  2  0
 10 11  1  0
 11 12  2  0
 12 13  1  0
 13 14  2  0
 14 15  1  0
 15 16  2  0
 12 17  1  0
 17 18  2  0
 17 19  1  0
 19 20  2  0
 20 21  1  0
 20 22  1  0
 22 23  2  0
 23 24  1  0
 24 25  2  0
 25 26  1  0
  6  1  1  0
 16  7  1  0
 25 19  1  0
 15 10  1  0
  1 27  1  0
  1 28  1  0
  2 29  1  0
  2 30  1  0
  4 31  1  0
  4 32  1  0
  5 33  1  0
  5 34  1  0
  6 35  1  0
  8 36  1  0
 11 37  1  0
 13 38  1  0
 14 39  1  0
 22 40  1  0
 23 41  1  0
 24 42  1  0
M  END
$$$$
[H]c1nc([H])n(C([H])([H])c2c([H])c([H])c3c(C(=O)N([H])c4nc5c([H])c([H])c([H])c([H])c5s4)c(C([H])([H])[H])c([H])c([H])c3c2[H])c1[H]
     RDKit          3D

 47 51  0  0  0  0  0  0  0  0999 V2000
    2.0892   -3.6658    1.3686 C   0  0  0  0  0  0  0  0  0  0  0  0
    0.8220   -2.9620    1.0494 C   0  0  0  0  0  0  0  0  0  0  0  0
   -0.0052   -3.5196    0.0763 C   0  0  0  0  0  0  0  0  0  0  0  0
   -1.1909   -2.9299   -0.2593 C   0  0  0  0  0  0  0  0  0  0  0  0
   -1.5418   -1.7692    0.3936 C   0  0  0  0  0  0  0  0  0  0  0  0
   -2.7391   -1.1788    0.0550 C   0  0  0  0  0  0  0  0  0  0  0  0
   -3.1705   -0.0047    0.6690 C   0  0  0  0  0  0  0  0  0  0  0  0
   -4.4654    0.6232    0.2948 C   0  0  0  0  0  0  0  0  0  0  0  0
   -4.2915    1.5767   -0.7933 N   0  0  0  0  0  0  0  0  0  0  0  0
   -4.3654    1.3386   -2.1215 C   0  0  0  0  0  0  0  0  0  0  0  0
   -4.1357    2.5248   -2.7768 C   0  0  0  0  0  0  0  0  0  0  0  0
   -3.9288    3.4512   -1.8434 N   0  0  0  0  0  0  0  0  0  0  0  0
   -4.0208    2.8883   -0.6407 C   0  0  0  0  0  0  0  0  0  0  0  0
   -2.3379    0.5318    1.6295 C   0  0  0  0  0  0  0  0  0  0  0  0
   -1.1404   -0.0539    1.9716 C   0  0  0  0  0  0  0  0  0  0  0  0
   -0.7240   -1.2177    1.3555 C   0  0  0  0  0  0  0  0  0  0  0  0
    0.4892   -1.8075    1.7087 C   0  0  0  0  0  0  0  0  0  0  0  0
    1.3192   -1.1980    2.7164 C   0  0  0  0  0  0  0  0  0  0  0  0
    1.0835   -1.5497    3.9145 O   0  0  0  0  0  0  0  0  0  0  0  0
    2.3472   -0.2714    2.5362 N   0  0  0  0  0  0  0  0  0  0  0  0
    2.7239    0.2308    1.2385 C   0  0  0  0  0  0  0  0  0  0  0  0
    3.6670    1.0915    0.9308 N   0  0  0  0  0  0  0  0  0  0  0  0
    3.8659    1.4363   -0.3046 C   0  0  0  0  0  0  0  0  0  0  0  0
    4.8391    2.3436   -0.7593 C   0  0  0  0  0  0  0  0  0  0  0  0
    4.9582    2.6314   -2.0813 C   0  0  0  0  0  0  0  0  0  0  0  0
    4.1581    2.0721   -3.0450 C   0  0  0  0  0  0  0  0  0  0  0  0
    3.1997    1.1820   -2.6207 C   0  0  0  0  0  0  0  0  0  0  0  0
    3.0612    0.8719   -1.2589 C   0  0  0  0  0  0  0  0  0  0  0  0
    2.0603   -0.1292   -0.3040 S   0  0  0  0  0  0  0  0  0  0  0  0
    2.9265   -3.3459    0.7129 H   0  0  0  0  0  0  0  0  0  0  0  0
    2.3544   -3.5732    2.4567 H   0  0  0  0  0  0  0  0  0  0  0  0
    1.9669   -4.7599    1.1944 H   0  0  0  0  0  0  0  0  0  0  0  0
    0.2947   -4.4312   -0.4202 H   0  0  0  0  0  0  0  0  0  0  0  0
   -1.8192   -3.3825   -1.0207 H   0  0  0  0  0  0  0  0  0  0  0  0
   -3.4004   -1.5915   -0.6976 H   0  0  0  0  0  0  0  0  0  0  0  0
   -4.8746    1.1275    1.1762 H   0  0  0  0  0  0  0  0  0  0  0  0
   -5.2146   -0.1494   -0.0246 H   0  0  0  0  0  0  0  0  0  0  0  0
   -4.5711    0.3740   -2.5832 H   0  0  0  0  0  0  0  0  0  0  0  0
   -4.1242    2.6804   -3.8407 H   0  0  0  0  0  0  0  0  0  0  0  0
   -3.9042    3.3690    0.3299 H   0  0  0  0  0  0  0  0  0  0  0  0
   -2.6887    1.4511    2.1018 H   0  0  0  0  0  0  0  0  0  0  0  0
   -0.5203    0.3910    2.7217 H   0  0  0  0  0  0  0  0  0  0  0  0
    2.8785    0.0973    3.3442 H   0  0  0  0  0  0  0  0  0  0  0  0
    5.5216    2.8358   -0.0458 H   0  0  0  0  0  0  0  0  0  0  0  0
    5.7312    3.3490   -2.4205 H   0  0  0  0  0  0  0  0  0  0  0  0
    4.2958    2.3344   -4.0684 H   0  0  0  0  0  0  0  0  0  0  0  0
    2.5213    0.6872   -3.2898 H   0  0  0  0  0  0  0  0  0  0  0  0
  1  2  1  0
  2  3  2  0
  3  4  1  0
  4  5  2  0
  5  6  1  0
  6  7  2  0
  7  8  1  0
  8  9  1  0
  9 10  1  0
 10 11  2  0
 11 12  1  0
 12 13  2  0
  7 14  1  0
 14 15  2  0
 15 16  1  0
 16 17  2  0
 17 18  1  0
 18 19  2  0
 18 20  1  0
 20 21  1  0
 21 22  2  0
 22 23  1  0
 23 24  2  0
 24 25  1  0
 25 26  2  0
 26 27  1  0
 27 28  2  0
 28 29  1  0
 17  2  1  0
 29 21  1  0
 16  5  1  0
 28 23  1  0
 13  9  1  0
  1 30  1  0
  1 31  1  0
  1 32  1  0
  3 33  1  0
  4 34  1  0
  6 35  1  0
  8 36  1  0
  8 37  1  0
 10 38  1  0
 11 39  1  0
 13 40  1  0
 14 41  1  0
 15 42  1  0
 20 43  1  0
 24 44  1  0
 25 45  1  0
 26 46  1  0
 27 47  1  0
M  END
$$$$
[H]c1nc([H])c([H])c(-c2nc([H])c(C(F)(F)F)c(N([H])c3nc([H])c([C@@]([H])(Oc4c([H])c([H])c([H])c(C#N)c4[H])C([H])([H])[H])c([H])n3)c2[H])c1[H]
     RDKit          3D

 51 54  0  0  0  0  0  0  0  0999 V2000
   -4.2655   -2.4194   -1.3802 C   0  0  0  0  0  0  0  0  0  0  0  0
   -3.5851   -1.3224   -0.5695 C   0  0  2  0  0  0  0  0  0  0  0  0
   -3.7518   -0.0739   -1.1335 O   0  0  0  0  0  0  0  0  0  0  0  0
   -4.3341    1.0574   -0.5819 C   0  0  0  0  0  0  0  0  0  0  0  0
   -4.8604    1.0888    0.6906 C   0  0  0  0  0  0  0  0  0  0  0  0
   -5.4175    2.2652    1.1451 C   0  0  0  0  0  0  0  0  0  0  0  0
   -5.4510    3.3863    0.3522 C   0  0  0  0  0  0  0  0  0  0  0  0
   -4.9341    3.3846   -0.9202 C   0  0  0  0  0  0  0  0  0  0  0  0
   -4.3799    2.2176   -1.3749 C   0  0  0  0  0  0  0  0  0  0  0  0
   -4.9739    4.5789   -1.7547 C   0  0  0  0  0  0  0  0  0  0  0  0
   -4.9971    5.5341   -2.3998 N   0  0  0  0  0  0  0  0  0  0  0  0
   -2.1377   -1.6860   -0.5438 C   0  0  0  0  0  0  0  0  0  0  0  0
   -1.1886   -0.7540   -0.1309 C   0  0  0  0  0  0  0  0  0  0  0  0
    0.1066   -1.0582   -0.1002 N   0  0  0  0  0  0  0  0  0  0  0  0
    0.5887   -2.2446   -0.4517 C   0  0  0  0  0  0  0  0  0  0  0  0
    1.9356   -2.6544   -0.4512 N   0  0  0  0  0  0  0  0  0  0  0  0
    3.0529   -1.9106   -0.0867 C   0  0  0  0  0  0  0  0  0  0  0  0
    3.0234   -0.5911    0.3123 C   0  0  0  0  0  0  0  0  0  0  0  0
    4.1358    0.1577    0.6688 C   0  0  0  0  0  0  0  0  0  0  0  0
    5.3178   -0.4768    0.6113 N   0  0  0  0  0  0  0  0  0  0  0  0
    5.3944   -1.7616    0.2283 C   0  0  0  0  0  0  0  0  0  0  0  0
    4.3144   -2.5386   -0.1329 C   0  0  0  0  0  0  0  0  0  0  0  0
    4.5102   -3.9510   -0.5348 C   0  0  0  0  0  0  0  0  0  0  0  0
    5.8849   -4.2277   -0.4720 F   0  0  0  0  0  0  0  0  0  0  0  0
    4.1637   -4.2175   -1.8412 F   0  0  0  0  0  0  0  0  0  0  0  0
    3.8641   -4.8541    0.2722 F   0  0  0  0  0  0  0  0  0  0  0  0
    4.0487    1.5639    1.0876 C   0  0  0  0  0  0  0  0  0  0  0  0
    5.2547    2.1943    1.4183 C   0  0  0  0  0  0  0  0  0  0  0  0
    5.3487    3.4861    1.8230 C   0  0  0  0  0  0  0  0  0  0  0  0
    4.1858    4.1900    1.9039 N   0  0  0  0  0  0  0  0  0  0  0  0
    3.0243    3.6166    1.5955 C   0  0  0  0  0  0  0  0  0  0  0  0
    2.9151    2.2940    1.1798 C   0  0  0  0  0  0  0  0  0  0  0  0
   -0.3662   -3.1560   -0.8582 N   0  0  0  0  0  0  0  0  0  0  0  0
   -1.6693   -2.9254   -0.9145 C   0  0  0  0  0  0  0  0  0  0  0  0
   -3.7179   -2.5593   -2.3164 H   0  0  0  0  0  0  0  0  0  0  0  0
   -5.3098   -2.1445   -1.6321 H   0  0  0  0  0  0  0  0  0  0  0  0
   -4.3272   -3.3182   -0.7393 H   0  0  0  0  0  0  0  0  0  0  0  0
   -3.9953   -1.3401    0.4553 H   0  0  0  0  0  0  0  0  0  0  0  0
   -4.8412    0.2085    1.3306 H   0  0  0  0  0  0  0  0  0  0  0  0
   -5.8420    2.2997    2.1641 H   0  0  0  0  0  0  0  0  0  0  0  0
   -5.9035    4.3020    0.7524 H   0  0  0  0  0  0  0  0  0  0  0  0
   -3.9629    2.1887   -2.3800 H   0  0  0  0  0  0  0  0  0  0  0  0
   -1.5776    0.2218    0.1589 H   0  0  0  0  0  0  0  0  0  0  0  0
    2.0885   -3.6487   -0.7734 H   0  0  0  0  0  0  0  0  0  0  0  0
    2.0909   -0.0297    0.3739 H   0  0  0  0  0  0  0  0  0  0  0  0
    6.3796   -2.2677    0.1873 H   0  0  0  0  0  0  0  0  0  0  0  0
    6.1918    1.6262    1.3529 H   0  0  0  0  0  0  0  0  0  0  0  0
    6.3011    3.9452    2.0724 H   0  0  0  0  0  0  0  0  0  0  0  0
    2.0896    4.1693    1.6566 H   0  0  0  0  0  0  0  0  0  0  0  0
    1.9670    1.8506    0.9357 H   0  0  0  0  0  0  0  0  0  0  0  0
   -2.3888   -3.6962   -1.2493 H   0  0  0  0  0  0  0  0  0  0  0  0
  1  2  1  0
  2  3  1  0
  3  4  1  0
  4  5  2  0
  5  6  1  0
  6  7  2  0
  7  8  1  0
  8  9  2  0
  8 10  1  0
 10 11  3  0
  2 12  1  0
 12 13  2  0
 13 14  1  0
 14 15  2  0
 15 16  1  0
 16 17  1  0
 17 18  2  0
 18 19  1  0
 19 20  2  0
 20 21  1  0
 21 22  2  0
 22 23  1  0
 23 24  1  0
 23 25  1  0
 23 26  1  0
 19 27  1  0
 27 28  2  0
 28 29  1  0
 29 30  2  0
 30 31  1  0
 31 32  2  0
 15 33  1  0
 33 34  2  0
  9  4  1  0
 34 12  1  0
 22 17  1  0
 32 27  1  0
  1 35  1  0
  1 36  1  0
  1 37  1  0
  2 38  1  1
  5 39  1  0
  6 40  1  0
  7 41  1  0
  9 42  1  0
 13 43  1  0
 16 44  1  0
 18 45  1  0
 21 46  1  0
 28 47  1  0
 29 48  1  0
 31 49  1  0
 32 50  1  0
 34 51  1  0
M  END
$$$$
[H]C1=C2C([H])=C(c3c([H])c([H])c([H])c(C([H])(F)F)c3[H])ON2N=C(N([H])c2c([H])c([H])c([H])c([H])c2[H])C(N([H])[C@]2([H])N(c3c([H])c([H])c([H])c(C#N)c3[H])C([H])([H])C([H])([H])C2([H])[H])=N1
     RDKit          3D

 65 70  0  0  0  0  0  0  0  0999 V2000
    7.8840   -1.5915    2.7389 F   0  0  0  0  0  0  0  0  0  0  0  0
    8.2430   -1.7012    1.4111 C   0  0  0  0  0  0  0  0  0  0  0  0
    8.5591   -0.4344    0.9192 F   0  0  0  0  0  0  0  0  0  0  0  0
    7.1558   -2.2364    0.5742 C   0  0  0  0  0  0  0  0  0  0  0  0
    7.3369   -3.3519   -0.2153 C   0  0  0  0  0  0  0  0  0  0  0  0
    6.3412   -3.8781   -1.0101 C   0  0  0  0  0  0  0  0  0  0  0  0
    5.1077   -3.2599   -1.0154 C   0  0  0  0  0  0  0  0  0  0  0  0
    4.8683   -2.1427   -0.2474 C   0  0  0  0  0  0  0  0  0  0  0  0
    5.8912   -1.6523    0.5306 C   0  0  0  0  0  0  0  0  0  0  0  0
    3.5532   -1.4814   -0.2519 C   0  0  0  0  0  0  0  0  0  0  0  0
    2.5228   -1.8930   -0.9741 C   0  0  0  0  0  0  0  0  0  0  0  0
    1.3819   -1.0152   -0.7429 C   0  0  0  0  0  0  0  0  0  0  0  0
    0.1761   -1.0976   -1.2797 C   0  0  0  0  0  0  0  0  0  0  0  0
   -0.9523   -0.2377   -1.0573 N   0  0  0  0  0  0  0  0  0  0  0  0
   -1.0967    0.8036   -0.3086 C   0  0  0  0  0  0  0  0  0  0  0  0
   -2.3364    1.4744   -0.2762 N   0  0  0  0  0  0  0  0  0  0  0  0
   -3.5553    0.8765    0.2377 C   0  0  1  0  0  0  0  0  0  0  0  0
   -4.6928    1.9053    0.1184 C   0  0  0  0  0  0  0  0  0  0  0  0
   -4.8322    1.9561   -1.4076 C   0  0  0  0  0  0  0  0  0  0  0  0
   -4.4580    0.5342   -1.8513 C   0  0  0  0  0  0  0  0  0  0  0  0
   -4.0488   -0.1345   -0.6487 N   0  0  0  0  0  0  0  0  0  0  0  0
   -4.1185   -1.5134   -0.3874 C   0  0  0  0  0  0  0  0  0  0  0  0
   -3.7060   -2.0632    0.8085 C   0  0  0  0  0  0  0  0  0  0  0  0
   -3.7628   -3.3978    1.0891 C   0  0  0  0  0  0  0  0  0  0  0  0
   -4.2602   -4.2532    0.1263 C   0  0  0  0  0  0  0  0  0  0  0  0
   -4.6871   -3.7579   -1.0881 C   0  0  0  0  0  0  0  0  0  0  0  0
   -4.6181   -2.4092   -1.3430 C   0  0  0  0  0  0  0  0  0  0  0  0
   -5.2091   -4.6667   -2.0949 C   0  0  0  0  0  0  0  0  0  0  0  0
   -5.6227   -5.3805   -2.9079 N   0  0  0  0  0  0  0  0  0  0  0  0
   -0.0901    1.4299    0.5695 C   0  0  0  0  0  0  0  0  0  0  0  0
   -0.5012    2.5826    1.2977 N   0  0  0  0  0  0  0  0  0  0  0  0
   -0.1596    3.8670    0.7984 C   0  0  0  0  0  0  0  0  0  0  0  0
    0.5547    3.9971   -0.3687 C   0  0  0  0  0  0  0  0  0  0  0  0
    0.9168    5.2154   -0.9041 C   0  0  0  0  0  0  0  0  0  0  0  0
    0.5329    6.3436   -0.2186 C   0  0  0  0  0  0  0  0  0  0  0  0
   -0.1846    6.2616    0.9560 C   0  0  0  0  0  0  0  0  0  0  0  0
   -0.5299    5.0186    1.4625 C   0  0  0  0  0  0  0  0  0  0  0  0
    1.1211    1.0134    0.7224 N   0  0  0  0  0  0  0  0  0  0  0  0
    1.8430   -0.0445    0.1881 N   0  0  0  0  0  0  0  0  0  0  0  0
    3.1703   -0.3582    0.4660 O   0  0  0  0  0  0  0  0  0  0  0  0
    9.1374   -2.3343    1.2676 H   0  0  0  0  0  0  0  0  0  0  0  0
    8.3073   -3.8374   -0.2104 H   0  0  0  0  0  0  0  0  0  0  0  0
    6.5103   -4.7660   -1.6288 H   0  0  0  0  0  0  0  0  0  0  0  0
    4.2962   -3.6374   -1.6235 H   0  0  0  0  0  0  0  0  0  0  0  0
    5.7116   -0.7750    1.1370 H   0  0  0  0  0  0  0  0  0  0  0  0
    2.4538   -2.7425   -1.6574 H   0  0  0  0  0  0  0  0  0  0  0  0
    0.0642   -1.9185   -1.9582 H   0  0  0  0  0  0  0  0  0  0  0  0
   -2.3623    2.4391   -0.6399 H   0  0  0  0  0  0  0  0  0  0  0  0
   -3.4286    0.5615    1.2835 H   0  0  0  0  0  0  0  0  0  0  0  0
   -5.6001    1.5123    0.5914 H   0  0  0  0  0  0  0  0  0  0  0  0
   -4.4287    2.8664    0.5460 H   0  0  0  0  0  0  0  0  0  0  0  0
   -4.1227    2.6986   -1.7830 H   0  0  0  0  0  0  0  0  0  0  0  0
   -5.8528    2.2212   -1.6913 H   0  0  0  0  0  0  0  0  0  0  0  0
   -5.3435    0.0973   -2.3329 H   0  0  0  0  0  0  0  0  0  0  0  0
   -3.6344    0.6019   -2.6061 H   0  0  0  0  0  0  0  0  0  0  0  0
   -3.2998   -1.4249    1.6120 H   0  0  0  0  0  0  0  0  0  0  0  0
   -3.4255   -3.8041    2.0538 H   0  0  0  0  0  0  0  0  0  0  0  0
   -4.3223   -5.3285    0.3119 H   0  0  0  0  0  0  0  0  0  0  0  0
   -4.9565   -2.0159   -2.3058 H   0  0  0  0  0  0  0  0  0  0  0  0
   -1.0510    2.5032    2.1949 H   0  0  0  0  0  0  0  0  0  0  0  0
    0.8509    3.0987   -0.8991 H   0  0  0  0  0  0  0  0  0  0  0  0
    1.4810    5.2412   -1.8294 H   0  0  0  0  0  0  0  0  0  0  0  0
    0.8191    7.2940   -0.6427 H   0  0  0  0  0  0  0  0  0  0  0  0
   -0.4548    7.1761    1.4443 H   0  0  0  0  0  0  0  0  0  0  0  0
   -1.0863    4.9459    2.3728 H   0  0  0  0  0  0  0  0  0  0  0  0
  1  2  1  0
  2  3  1  0
  2  4  1  0
  4  5  2  0
  5  6  1  0
  6  7  2  0
  7  8  1  0
  8  9  2  0
  8 10  1  0
 10 11  2  0
 11 12  1  0
 12 13  2  0
 13 14  1  0
 14 15  2  0
 15 16  1  0
 16 17  1  0
 17 18  1  0
 18 19  1  0
 19 20  1  0
 20 21  1  0
 21 22  1  0
 22 23  2  0
 23 24  1  0
 24 25  2  0
 25 26  1  0
 26 27  2  0
 26 28  1  0
 28 29  3  0
 15 30  1  0
 30 31  1  0
 31 32  1  0
 32 33  2  0
 33 34  1  0
 34 35  2  0
 35 36  1  0
 36 37  2  0
 30 38  2  0
 38 39  1  0
 39 40  1  0
  9  4  1  0
 40 10  1  0
 39 12  1  0
 21 17  1  0
 27 22  1  0
 37 32  1  0
  2 41  1  0
  5 42  1  0
  6 43  1  0
  7 44  1  0
  9 45  1  0
 11 46  1  0
 13 47  1  0
 16 48  1  0
 17 49  1  1
 18 50  1  0
 18 51  1  0
 19 52  1  0
 19 53  1  0
 20 54  1  0
 20 55  1  0
 23 56  1  0
 24 57  1  0
 25 58  1  0
 27 59  1  0
 31 60  1  0
 33 61  1  0
 34 62  1  0
 35 63  1  0
 36 64  1  0
 37 65  1  0
M  END
$$$$
[H]c1c(OC([H])([H])[H])c(OC([H])([H])[H])c(C([H])([H])[H])c([H])c1N1C([H])([H])C([H])([H])[C@]([H])(c2nc3c([H])nn(C([H])([H])[H])c3c([H])c2[H])[C@]([H])(OC([H])([H])[H])C1([H])[H]
     RDKit          3D

 57 60  0  0  0  0  0  0  0  0999 V2000
    2.5408   -3.2259    0.6939 C   0  0  0  0  0  0  0  0  0  0  0  0
    1.6339   -2.4662   -0.0017 O   0  0  0  0  0  0  0  0  0  0  0  0
    1.2874   -1.2929    0.6717 C   0  0  2  0  0  0  0  0  0  0  0  0
   -0.1995   -1.3901    0.9370 C   0  0  0  0  0  0  0  0  0  0  0  0
   -1.0206   -0.8736   -0.1307 N   0  0  0  0  0  0  0  0  0  0  0  0
   -0.5403   -0.5621   -1.4578 C   0  0  0  0  0  0  0  0  0  0  0  0
    0.9548   -0.4115   -1.5522 C   0  0  0  0  0  0  0  0  0  0  0  0
    1.4831   -0.0717   -0.1959 C   0  0  2  0  0  0  0  0  0  0  0  0
    2.8575    0.4466   -0.2082 C   0  0  0  0  0  0  0  0  0  0  0  0
    3.1209    1.6722    0.3736 C   0  0  0  0  0  0  0  0  0  0  0  0
    4.3921    2.2361    0.3984 C   0  0  0  0  0  0  0  0  0  0  0  0
    5.4335    1.5428   -0.1821 C   0  0  0  0  0  0  0  0  0  0  0  0
    6.7370    1.8196   -0.3137 N   0  0  0  0  0  0  0  0  0  0  0  0
    7.4224    3.0156    0.1635 C   0  0  0  0  0  0  0  0  0  0  0  0
    7.3068    0.7966   -0.9662 N   0  0  0  0  0  0  0  0  0  0  0  0
    6.3619   -0.1337   -1.2502 C   0  0  0  0  0  0  0  0  0  0  0  0
    5.1432    0.3245   -0.7542 C   0  0  0  0  0  0  0  0  0  0  0  0
    3.8982   -0.1847   -0.7561 N   0  0  0  0  0  0  0  0  0  0  0  0
   -2.4165   -0.6736    0.1985 C   0  0  0  0  0  0  0  0  0  0  0  0
   -2.9206   -0.9666    1.4487 C   0  0  0  0  0  0  0  0  0  0  0  0
   -4.2482   -0.7808    1.7718 C   0  0  0  0  0  0  0  0  0  0  0  0
   -4.6885   -1.1267    3.1447 C   0  0  0  0  0  0  0  0  0  0  0  0
   -5.1029   -0.2889    0.8247 C   0  0  0  0  0  0  0  0  0  0  0  0
   -6.4338   -0.0901    1.1093 O   0  0  0  0  0  0  0  0  0  0  0  0
   -6.8216    1.1742    1.6238 C   0  0  0  0  0  0  0  0  0  0  0  0
   -4.6422    0.0243   -0.4592 C   0  0  0  0  0  0  0  0  0  0  0  0
   -5.4816    0.5223   -1.4359 O   0  0  0  0  0  0  0  0  0  0  0  0
   -4.9594    0.8187   -2.7074 C   0  0  0  0  0  0  0  0  0  0  0  0
   -3.3104   -0.1755   -0.7413 C   0  0  0  0  0  0  0  0  0  0  0  0
    2.1589   -3.5489    1.6946 H   0  0  0  0  0  0  0  0  0  0  0  0
    2.6962   -4.1687    0.1225 H   0  0  0  0  0  0  0  0  0  0  0  0
    3.4706   -2.6890    0.8940 H   0  0  0  0  0  0  0  0  0  0  0  0
    1.8644   -1.2547    1.6217 H   0  0  0  0  0  0  0  0  0  0  0  0
   -0.3634   -0.7518    1.8556 H   0  0  0  0  0  0  0  0  0  0  0  0
   -0.5203   -2.4347    1.1156 H   0  0  0  0  0  0  0  0  0  0  0  0
   -0.9755    0.4180   -1.7781 H   0  0  0  0  0  0  0  0  0  0  0  0
   -0.9270   -1.3157   -2.1797 H   0  0  0  0  0  0  0  0  0  0  0  0
    1.2435    0.3249   -2.3308 H   0  0  0  0  0  0  0  0  0  0  0  0
    1.3640   -1.4170   -1.8332 H   0  0  0  0  0  0  0  0  0  0  0  0
    0.7904    0.7055    0.2443 H   0  0  0  0  0  0  0  0  0  0  0  0
    2.3371    2.2416    0.8354 H   0  0  0  0  0  0  0  0  0  0  0  0
    4.6132    3.1867    0.8458 H   0  0  0  0  0  0  0  0  0  0  0  0
    8.4723    2.8096    0.4380 H   0  0  0  0  0  0  0  0  0  0  0  0
    7.3501    3.8381   -0.5978 H   0  0  0  0  0  0  0  0  0  0  0  0
    6.8730    3.3596    1.0550 H   0  0  0  0  0  0  0  0  0  0  0  0
    6.5284   -1.0662   -1.7703 H   0  0  0  0  0  0  0  0  0  0  0  0
   -2.2627   -1.3563    2.2078 H   0  0  0  0  0  0  0  0  0  0  0  0
   -5.4313   -0.4036    3.5407 H   0  0  0  0  0  0  0  0  0  0  0  0
   -5.1714   -2.1364    3.0818 H   0  0  0  0  0  0  0  0  0  0  0  0
   -3.8302   -1.1895    3.8394 H   0  0  0  0  0  0  0  0  0  0  0  0
   -7.7973    1.1053    2.1397 H   0  0  0  0  0  0  0  0  0  0  0  0
   -6.0129    1.5679    2.2688 H   0  0  0  0  0  0  0  0  0  0  0  0
   -6.9047    1.8620    0.7510 H   0  0  0  0  0  0  0  0  0  0  0  0
   -4.4987   -0.1213   -3.1014 H   0  0  0  0  0  0  0  0  0  0  0  0
   -4.1384    1.5672   -2.6751 H   0  0  0  0  0  0  0  0  0  0  0  0
   -5.7476    1.1196   -3.4272 H   0  0  0  0  0  0  0  0  0  0  0  0
   -2.9680    0.0687   -1.7344 H   0  0  0  0  0  0  0  0  0  0  0  0
  1  2  1  0
  2  3  1  0
  3  4  1  0
  4  5  1  0
  5  6  1  0
  6  7  1  0
  7  8  1  0
  8  9  1  0
  9 10  2  0
 10 11  1  0
 11 12  2  0
 12 13  1  0
 13 14  1  0
 13 15  1  0
 15 16  2  0
 16 17  1  0
 17 18  2  0
  5 19  1  0
 19 20  2  0
 20 21  1  0
 21 22  1  0
 21 23  2  0
 23 24  1  0
 24 25  1  0
 23 26  1  0
 26 27  1  0
 27 28  1  0
 26 29  2  0
  8  3  1  0
 18  9  1  0
 29 19  1  0
 17 12  1  0
  1 30  1  0
  1 31  1  0
  1 32  1  0
  3 33  1  1
  4 34  1  0
  4 35  1  0
  6 36  1  0
  6 37  1  0
  7 38  1  0
  7 39  1  0
  8 40  1  1
 10 41  1  0
 11 42  1  0
 14 43  1  0
 14 44  1  0
 14 45  1  0
 16 46  1  0
 20 47  1  0
 22 48  1  0
 22 49  1  0
 22 50  1  0
 25 51  1  0
 25 52  1  0
 25 53  1  0
 28 54  1  0
 28 55  1  0
 28 56  1  0
 29 57  1  0
M  END
$$$$
[H]c1c([H])c([H])c(-c2c([H])c([H])c(N([H])c3nc4c([H])nc(N5C([H])([H])C([H])([H])N(C([H])([H])[H])C([H])([H])C5([H])[H])nc4s3)c(C([H])([H])[H])c2[H])c([H])c1[H]
     RDKit          3D

 54 58  0  0  0  0  0  0  0  0999 V2000
   -4.2024   -1.8708    2.9457 C   0  0  0  0  0  0  0  0  0  0  0  0
   -4.2180   -1.1045    1.6669 C   0  0  0  0  0  0  0  0  0  0  0  0
   -5.3917   -0.7889    1.0414 C   0  0  0  0  0  0  0  0  0  0  0  0
   -5.4586   -0.0846   -0.1380 C   0  0  0  0  0  0  0  0  0  0  0  0
   -4.2533    0.2966   -0.6710 C   0  0  0  0  0  0  0  0  0  0  0  0
   -3.0361   -0.0235   -0.0343 C   0  0  0  0  0  0  0  0  0  0  0  0
   -2.9700   -0.7226    1.1364 C   0  0  0  0  0  0  0  0  0  0  0  0
   -1.8063   -1.0790    1.8243 N   0  0  0  0  0  0  0  0  0  0  0  0
   -0.4717   -0.7647    1.4408 C   0  0  0  0  0  0  0  0  0  0  0  0
    0.6203   -1.1318    2.1317 N   0  0  0  0  0  0  0  0  0  0  0  0
    1.7890   -0.7952    1.7015 C   0  0  0  0  0  0  0  0  0  0  0  0
    3.0175   -1.1135    2.3271 C   0  0  0  0  0  0  0  0  0  0  0  0
    4.1230   -0.6909    1.7532 N   0  0  0  0  0  0  0  0  0  0  0  0
    4.2534    0.0126    0.6375 C   0  0  0  0  0  0  0  0  0  0  0  0
    5.4821    0.4314    0.0820 N   0  0  0  0  0  0  0  0  0  0  0  0
    5.5059    1.2016   -1.1343 C   0  0  0  0  0  0  0  0  0  0  0  0
    6.8271    1.9419   -1.1761 C   0  0  0  0  0  0  0  0  0  0  0  0
    7.8881    0.9877   -1.2357 N   0  0  0  0  0  0  0  0  0  0  0  0
    8.0112    0.3150   -2.4927 C   0  0  0  0  0  0  0  0  0  0  0  0
    7.9150    0.0834   -0.1310 C   0  0  0  0  0  0  0  0  0  0  0  0
    6.7065    0.0837    0.7401 C   0  0  0  0  0  0  0  0  0  0  0  0
    3.0768    0.3310    0.0166 N   0  0  0  0  0  0  0  0  0  0  0  0
    1.8828   -0.0713    0.5495 C   0  0  0  0  0  0  0  0  0  0  0  0
    0.2335    0.0845    0.1452 S   0  0  0  0  0  0  0  0  0  0  0  0
   -6.7237    0.2402   -0.7854 C   0  0  0  0  0  0  0  0  0  0  0  0
   -6.8608    0.3556   -2.1503 C   0  0  0  0  0  0  0  0  0  0  0  0
   -8.0641    0.6641   -2.7502 C   0  0  0  0  0  0  0  0  0  0  0  0
   -9.1548    0.8591   -1.9293 C   0  0  0  0  0  0  0  0  0  0  0  0
   -9.0486    0.7503   -0.5586 C   0  0  0  0  0  0  0  0  0  0  0  0
   -7.8429    0.4446   -0.0112 C   0  0  0  0  0  0  0  0  0  0  0  0
   -5.2376   -2.1412    3.2279 H   0  0  0  0  0  0  0  0  0  0  0  0
   -3.8022   -1.2200    3.7532 H   0  0  0  0  0  0  0  0  0  0  0  0
   -3.6370   -2.8168    2.8457 H   0  0  0  0  0  0  0  0  0  0  0  0
   -6.3536   -1.1009    1.4796 H   0  0  0  0  0  0  0  0  0  0  0  0
   -4.2452    0.8522   -1.5964 H   0  0  0  0  0  0  0  0  0  0  0  0
   -2.1322    0.3053   -0.5077 H   0  0  0  0  0  0  0  0  0  0  0  0
   -1.9092   -1.6482    2.7372 H   0  0  0  0  0  0  0  0  0  0  0  0
    3.0666   -1.6807    3.2409 H   0  0  0  0  0  0  0  0  0  0  0  0
    5.4009    0.5350   -2.0379 H   0  0  0  0  0  0  0  0  0  0  0  0
    4.7063    1.9788   -1.1647 H   0  0  0  0  0  0  0  0  0  0  0  0
    6.8383    2.5681   -2.0794 H   0  0  0  0  0  0  0  0  0  0  0  0
    6.9029    2.5083   -0.2334 H   0  0  0  0  0  0  0  0  0  0  0  0
    7.8145    1.0616   -3.2973 H   0  0  0  0  0  0  0  0  0  0  0  0
    7.3004   -0.5376   -2.5648 H   0  0  0  0  0  0  0  0  0  0  0  0
    9.0596   -0.0564   -2.5914 H   0  0  0  0  0  0  0  0  0  0  0  0
    8.7936    0.3741    0.5133 H   0  0  0  0  0  0  0  0  0  0  0  0
    8.1473   -0.9407   -0.4978 H   0  0  0  0  0  0  0  0  0  0  0  0
    6.5783   -0.9696    1.1248 H   0  0  0  0  0  0  0  0  0  0  0  0
    6.8306    0.7697    1.6272 H   0  0  0  0  0  0  0  0  0  0  0  0
   -5.9900    0.1997   -2.8044 H   0  0  0  0  0  0  0  0  0  0  0  0
   -8.1817    0.7574   -3.8299 H   0  0  0  0  0  0  0  0  0  0  0  0
  -10.1393    1.1050   -2.3119 H   0  0  0  0  0  0  0  0  0  0  0  0
   -9.8861    0.8977    0.1089 H   0  0  0  0  0  0  0  0  0  0  0  0
   -7.7545    0.3572    1.0776 H   0  0  0  0  0  0  0  0  0  0  0  0
  1  2  1  0
  2  3  2  0
  3  4  1  0
  4  5  2  0
  5  6  1  0
  6  7  2  0
  7  8  1  0
  8  9  1  0
  9 10  2  0
 10 11  1  0
 11 12  2  0
 12 13  1  0
 13 14  2  0
 14 15  1  0
 15 16  1  0
 16 17  1  0
 17 18  1  0
 18 19  1  0
 18 20  1  0
 20 21  1  0
 14 22  1  0
 22 23  2  0
 23 24  1  0
  4 25  1  0
 25 26  2  0
 26 27  1  0
 27 28  2  0
 28 29  1  0
 29 30  2  0
  7  2  1  0
 24  9  1  0
 30 25  1  0
 23 11  1  0
 21 15  1  0
  1 31  1  0
  1 32  1  0
  1 33  1  0
  3 34  1  0
  5 35  1  0
  6 36  1  0
  8 37  1  0
 12 38  1  0
 16 39  1  0
 16 40  1  0
 17 41  1  0
 17 42  1  0
 19 43  1  0
 19 44  1  0
 19 45  1  0
 20 46  1  0
 20 47  1  0
 21 48  1  0
 21 49  1  0
 26 50  1  0
 27 51  1  0
 28 52  1  0
 29 53  1  0
 30 54  1  0
M  END
$$$$
[H]c1c([H])c(-c2nc3c(C([H])([H])[H])c([H])c(C([H])([H])C#CC([H])([H])N(C([H])([H])[H])C([H])([H])[H])c([H])c3n2[H])c([H])c([H])c1OC([H])([H])[H]
     RDKit          3D

 48 50  0  0  0  0  0  0  0  0999 V2000
    8.8493   -0.1632   -0.6977 C   0  0  0  0  0  0  0  0  0  0  0  0
    7.9304    0.8791   -0.8115 O   0  0  0  0  0  0  0  0  0  0  0  0
    6.6117    0.6895   -0.4962 C   0  0  0  0  0  0  0  0  0  0  0  0
    6.1652   -0.5257   -0.0619 C   0  0  0  0  0  0  0  0  0  0  0  0
    4.8225   -0.6725    0.2455 C   0  0  0  0  0  0  0  0  0  0  0  0
    3.9472    0.3640    0.1231 C   0  0  0  0  0  0  0  0  0  0  0  0
    4.3993    1.5876   -0.3146 C   0  0  0  0  0  0  0  0  0  0  0  0
    5.7390    1.7719   -0.6320 C   0  0  0  0  0  0  0  0  0  0  0  0
    2.5278    0.1646    0.4595 C   0  0  0  0  0  0  0  0  0  0  0  0
    1.9483   -0.9563    0.8969 N   0  0  0  0  0  0  0  0  0  0  0  0
    0.6446   -0.7374    1.0917 C   0  0  0  0  0  0  0  0  0  0  0  0
   -0.3900   -1.5248    1.5228 C   0  0  0  0  0  0  0  0  0  0  0  0
   -0.1100   -2.9372    1.8741 C   0  0  0  0  0  0  0  0  0  0  0  0
   -1.6678   -0.9861    1.6202 C   0  0  0  0  0  0  0  0  0  0  0  0
   -1.9345    0.3244    1.2954 C   0  0  0  0  0  0  0  0  0  0  0  0
   -3.2595    0.9441    1.3791 C   0  0  0  0  0  0  0  0  0  0  0  0
   -3.9671    0.7712    0.1132 C   0  0  0  0  0  0  0  0  0  0  0  0
   -4.5642    0.6131   -0.9247 C   0  0  0  0  0  0  0  0  0  0  0  0
   -5.3103    0.3996   -2.1877 C   0  0  0  0  0  0  0  0  0  0  0  0
   -6.6424   -0.1030   -1.9141 N   0  0  0  0  0  0  0  0  0  0  0  0
   -6.6006   -1.4494   -1.3776 C   0  0  0  0  0  0  0  0  0  0  0  0
   -7.3490    0.8039   -1.0290 C   0  0  0  0  0  0  0  0  0  0  0  0
   -0.8772    1.0972    0.8637 C   0  0  0  0  0  0  0  0  0  0  0  0
    0.4102    0.5738    0.7601 C   0  0  0  0  0  0  0  0  0  0  0  0
    1.5731    1.0960    0.3797 N   0  0  0  0  0  0  0  0  0  0  0  0
    9.9047    0.1558   -0.8273 H   0  0  0  0  0  0  0  0  0  0  0  0
    8.7176   -0.6601    0.2659 H   0  0  0  0  0  0  0  0  0  0  0  0
    8.6892   -0.9442   -1.4926 H   0  0  0  0  0  0  0  0  0  0  0  0
    6.8205   -1.3662    0.0471 H   0  0  0  0  0  0  0  0  0  0  0  0
    4.4674   -1.6445    0.5945 H   0  0  0  0  0  0  0  0  0  0  0  0
    3.6860    2.3915   -0.4031 H   0  0  0  0  0  0  0  0  0  0  0  0
    6.1005    2.7271   -0.9763 H   0  0  0  0  0  0  0  0  0  0  0  0
   -0.5164   -3.1032    2.9068 H   0  0  0  0  0  0  0  0  0  0  0  0
    0.9820   -3.1160    1.8744 H   0  0  0  0  0  0  0  0  0  0  0  0
   -0.5712   -3.6467    1.1464 H   0  0  0  0  0  0  0  0  0  0  0  0
   -2.4584   -1.6140    1.9567 H   0  0  0  0  0  0  0  0  0  0  0  0
   -3.8054    0.4362    2.2191 H   0  0  0  0  0  0  0  0  0  0  0  0
   -3.1267    2.0295    1.5846 H   0  0  0  0  0  0  0  0  0  0  0  0
   -4.7645   -0.3409   -2.7768 H   0  0  0  0  0  0  0  0  0  0  0  0
   -5.4136    1.3235   -2.7676 H   0  0  0  0  0  0  0  0  0  0  0  0
   -7.5901   -1.7211   -0.9618 H   0  0  0  0  0  0  0  0  0  0  0  0
   -5.8595   -1.5542   -0.5594 H   0  0  0  0  0  0  0  0  0  0  0  0
   -6.2748   -2.1323   -2.1944 H   0  0  0  0  0  0  0  0  0  0  0  0
   -8.2669    0.3628   -0.6441 H   0  0  0  0  0  0  0  0  0  0  0  0
   -7.6344    1.6878   -1.6331 H   0  0  0  0  0  0  0  0  0  0  0  0
   -6.7175    1.1658   -0.1886 H   0  0  0  0  0  0  0  0  0  0  0  0
   -0.9768    2.1384    0.5832 H   0  0  0  0  0  0  0  0  0  0  0  0
    1.7121    2.0806    0.0684 H   0  0  0  0  0  0  0  0  0  0  0  0
  1  2  1  0
  2  3  1  0
  3  4  2  0
  4  5  1  0
  5  6  2  0
  6  7  1  0
  7  8  2  0
  6  9  1  0
  9 10  2  0
 10 11  1  0
 11 12  2  0
 12 13  1  0
 12 14  1  0
 14 15  2  0
 15 16  1  0
 16 17  1  0
 17 18  3  0
 18 19  1  0
 19 20  1  0
 20 21  1  0
 20 22  1  0
 15 23  1  0
 23 24  2  0
 24 25  1  0
  8  3  1  0
 25  9  1  0
 24 11  1  0
  1 26  1  0
  1 27  1  0
  1 28  1  0
  4 29  1  0
  5 30  1  0
  7 31  1  0
  8 32  1  0
 13 33  1  0
 13 34  1  0
 13 35  1  0
 14 36  1  0
 16 37  1  0
 16 38  1  0
 19 39  1  0
 19 40  1  0
 21 41  1  0
 21 42  1  0
 21 43  1  0
 22 44  1  0
 22 45  1  0
 22 46  1  0
 23 47  1  0
 25 48  1  0
M  END
$$$$
[H]c1c([H])c(N([H])S(=O)(=O)c2c([H])c([H])c(C([H])(C([H])([H])[H])C([H])([H])[H])c([H])c2[H])c([H])c2c1N(C([H])([H])C1([H])C([H])([H])C([H])([H])C([H])(C([H])([H])[H])C([H])([H])C1([H])[H])C2=O
     RDKit          3D

 60 63  0  0  0  0  0  0  0  0999 V2000
    6.2065   -2.2611   -1.6260 C   0  0  0  0  0  0  0  0  0  0  0  0
    6.4219   -0.7666   -1.8489 C   0  0  0  0  0  0  0  0  0  0  0  0
    7.9156   -0.5309   -1.7062 C   0  0  0  0  0  0  0  0  0  0  0  0
    5.6557   -0.0287   -0.8246 C   0  0  0  0  0  0  0  0  0  0  0  0
    5.9168   -0.3035    0.5036 C   0  0  0  0  0  0  0  0  0  0  0  0
    5.2134    0.3735    1.4534 C   0  0  0  0  0  0  0  0  0  0  0  0
    4.2601    1.3134    1.1368 C   0  0  0  0  0  0  0  0  0  0  0  0
    4.0166    1.5711   -0.1915 C   0  0  0  0  0  0  0  0  0  0  0  0
    4.7174    0.8970   -1.1658 C   0  0  0  0  0  0  0  0  0  0  0  0
    3.4330    2.1027    2.4566 S   0  0  0  0  0  0  0  0  0  0  0  0
    3.1421    3.5144    2.0374 O   0  0  0  0  0  0  0  0  0  0  0  0
    4.4336    2.2134    3.5856 O   0  0  0  0  0  0  0  0  0  0  0  0
    2.0282    1.2795    2.9370 N   0  0  0  0  0  0  0  0  0  0  0  0
    0.9346    1.0739    2.0667 C   0  0  0  0  0  0  0  0  0  0  0  0
    0.3309   -0.1860    1.9537 C   0  0  0  0  0  0  0  0  0  0  0  0
   -0.7318   -0.4032    1.1050 C   0  0  0  0  0  0  0  0  0  0  0  0
   -1.2446    0.6270    0.3270 C   0  0  0  0  0  0  0  0  0  0  0  0
   -2.2086    1.0444   -0.6422 N   0  0  0  0  0  0  0  0  0  0  0  0
   -3.3070    0.5071   -1.4194 C   0  0  0  0  0  0  0  0  0  0  0  0
   -4.5803    0.6639   -0.6427 C   0  0  0  0  0  0  0  0  0  0  0  0
   -4.4544   -0.0879    0.6512 C   0  0  0  0  0  0  0  0  0  0  0  0
   -5.7901   -0.7201    1.0404 C   0  0  0  0  0  0  0  0  0  0  0  0
   -6.1297   -1.7193   -0.0467 C   0  0  0  0  0  0  0  0  0  0  0  0
   -7.3503   -2.4999    0.3550 C   0  0  0  0  0  0  0  0  0  0  0  0
   -6.2739   -1.0532   -1.3765 C   0  0  0  0  0  0  0  0  0  0  0  0
   -5.8132    0.3649   -1.4195 C   0  0  0  0  0  0  0  0  0  0  0  0
   -1.6156    2.3560   -0.5550 C   0  0  0  0  0  0  0  0  0  0  0  0
   -1.8184    3.4778   -1.0944 O   0  0  0  0  0  0  0  0  0  0  0  0
   -0.6610    1.8668    0.4292 C   0  0  0  0  0  0  0  0  0  0  0  0
    0.4032    2.0714    1.2833 C   0  0  0  0  0  0  0  0  0  0  0  0
    5.1357   -2.5266   -1.6035 H   0  0  0  0  0  0  0  0  0  0  0  0
    6.7070   -2.5284   -0.6653 H   0  0  0  0  0  0  0  0  0  0  0  0
    6.6954   -2.7805   -2.4661 H   0  0  0  0  0  0  0  0  0  0  0  0
    6.1061   -0.4583   -2.8451 H   0  0  0  0  0  0  0  0  0  0  0  0
    8.2323   -0.6034   -0.6546 H   0  0  0  0  0  0  0  0  0  0  0  0
    8.4287   -1.3582   -2.2519 H   0  0  0  0  0  0  0  0  0  0  0  0
    8.1977    0.4423   -2.1502 H   0  0  0  0  0  0  0  0  0  0  0  0
    6.6672   -1.0441    0.7586 H   0  0  0  0  0  0  0  0  0  0  0  0
    5.4396    0.1369    2.5071 H   0  0  0  0  0  0  0  0  0  0  0  0
    3.2567    2.3210   -0.4443 H   0  0  0  0  0  0  0  0  0  0  0  0
    4.5241    1.1007   -2.2100 H   0  0  0  0  0  0  0  0  0  0  0  0
    1.9534    0.9051    3.9077 H   0  0  0  0  0  0  0  0  0  0  0  0
    0.7288   -0.9929    2.5595 H   0  0  0  0  0  0  0  0  0  0  0  0
   -1.1945   -1.3700    1.0184 H   0  0  0  0  0  0  0  0  0  0  0  0
   -3.1330   -0.5990   -1.5299 H   0  0  0  0  0  0  0  0  0  0  0  0
   -3.3346    1.0152   -2.3910 H   0  0  0  0  0  0  0  0  0  0  0  0
   -4.6275    1.7567   -0.3539 H   0  0  0  0  0  0  0  0  0  0  0  0
   -4.0195    0.5061    1.4703 H   0  0  0  0  0  0  0  0  0  0  0  0
   -3.7664   -0.9709    0.5009 H   0  0  0  0  0  0  0  0  0  0  0  0
   -5.5963   -1.2808    1.9782 H   0  0  0  0  0  0  0  0  0  0  0  0
   -6.5394    0.0657    1.1607 H   0  0  0  0  0  0  0  0  0  0  0  0
   -5.2825   -2.4362   -0.1165 H   0  0  0  0  0  0  0  0  0  0  0  0
   -7.1167   -3.5464    0.5835 H   0  0  0  0  0  0  0  0  0  0  0  0
   -8.1005   -2.4808   -0.4544 H   0  0  0  0  0  0  0  0  0  0  0  0
   -7.8152   -2.0520    1.2551 H   0  0  0  0  0  0  0  0  0  0  0  0
   -5.7879   -1.6680   -2.1757 H   0  0  0  0  0  0  0  0  0  0  0  0
   -7.3790   -1.0441   -1.6125 H   0  0  0  0  0  0  0  0  0  0  0  0
   -5.6522    0.6598   -2.4752 H   0  0  0  0  0  0  0  0  0  0  0  0
   -6.6454    1.0043   -1.0141 H   0  0  0  0  0  0  0  0  0  0  0  0
    0.8673    3.0689    1.3667 H   0  0  0  0  0  0  0  0  0  0  0  0
  1  2  1  0
  2  3  1  0
  2  4  1  0
  4  5  2  0
  5  6  1  0
  6  7  2  0
  7  8  1  0
  8  9  2  0
  7 10  1  0
 10 11  2  0
 10 12  2  0
 10 13  1  0
 13 14  1  0
 14 15  2  0
 15 16  1  0
 16 17  2  0
 17 18  1  0
 18 19  1  0
 19 20  1  0
 20 21  1  0
 21 22  1  0
 22 23  1  0
 23 24  1  0
 23 25  1  0
 25 26  1  0
 18 27  1  0
 27 28  2  0
 27 29  1  0
 29 30  2  0
  9  4  1  0
 30 14  1  0
 29 17  1  0
 26 20  1  0
  1 31  1  0
  1 32  1  0
  1 33  1  0
  2 34  1  0
  3 35  1  0
  3 36  1  0
  3 37  1  0
  5 38  1  0
  6 39  1  0
  8 40  1  0
  9 41  1  0
 13 42  1  0
 15 43  1  0
 16 44  1  0
 19 45  1  0
 19 46  1  0
 20 47  1  0
 21 48  1  0
 21 49  1  0
 22 50  1  0
 22 51  1  0
 23 52  1  0
 24 53  1  0
 24 54  1  0
 24 55  1  0
 25 56  1  0
 25 57  1  0
 26 58  1  0
 26 59  1  0
 30 60  1  0
M  END
$$$$
[H]c1nc2oc(-c3c([H])c([H])c(OC([H])([H])C([H])([H])C([H])([H])N(C([H])([H])[H])C([H])([H])[H])c([H])c3[H])c([H])c2c([H])c1C(=O)C(F)(F)F
     RDKit          3D

 47 49  0  0  0  0  0  0  0  0999 V2000
   -7.4074   -1.3524    1.0551 C   0  0  0  0  0  0  0  0  0  0  0  0
   -7.0561   -0.6053   -0.1092 N   0  0  0  0  0  0  0  0  0  0  0  0
   -7.9440    0.4860   -0.4190 C   0  0  0  0  0  0  0  0  0  0  0  0
   -5.6842   -0.2154   -0.1873 C   0  0  0  0  0  0  0  0  0  0  0  0
   -5.2524    0.8000    0.8283 C   0  0  0  0  0  0  0  0  0  0  0  0
   -3.7746    1.0709    0.5760 C   0  0  0  0  0  0  0  0  0  0  0  0
   -3.0081   -0.1003    0.7134 O   0  0  0  0  0  0  0  0  0  0  0  0
   -1.6361   -0.0325    0.5158 C   0  0  0  0  0  0  0  0  0  0  0  0
   -0.8317   -1.1661    0.6407 C   0  0  0  0  0  0  0  0  0  0  0  0
    0.5316   -1.1029    0.4450 C   0  0  0  0  0  0  0  0  0  0  0  0
    1.1308    0.0940    0.1191 C   0  0  0  0  0  0  0  0  0  0  0  0
    0.3750    1.2342   -0.0137 C   0  0  0  0  0  0  0  0  0  0  0  0
   -0.9867    1.1452    0.1869 C   0  0  0  0  0  0  0  0  0  0  0  0
    2.5853    0.1748   -0.0913 C   0  0  0  0  0  0  0  0  0  0  0  0
    3.4738   -0.8780    0.0091 C   0  0  0  0  0  0  0  0  0  0  0  0
    4.7538   -0.3940   -0.2616 C   0  0  0  0  0  0  0  0  0  0  0  0
    6.0027   -0.9735   -0.3072 C   0  0  0  0  0  0  0  0  0  0  0  0
    7.1429   -0.2152   -0.6160 C   0  0  0  0  0  0  0  0  0  0  0  0
    6.8836    1.1128   -0.8572 C   0  0  0  0  0  0  0  0  0  0  0  0
    5.6635    1.6771   -0.8123 N   0  0  0  0  0  0  0  0  0  0  0  0
    4.5755    0.9480   -0.5164 C   0  0  0  0  0  0  0  0  0  0  0  0
    3.2912    1.2138   -0.4007 O   0  0  0  0  0  0  0  0  0  0  0  0
    8.4446   -0.8316   -0.6617 C   0  0  0  0  0  0  0  0  0  0  0  0
    8.5499   -2.0590   -0.4262 O   0  0  0  0  0  0  0  0  0  0  0  0
    9.6641   -0.0691   -0.9761 C   0  0  0  0  0  0  0  0  0  0  0  0
    9.5880    0.5258   -2.2077 F   0  0  0  0  0  0  0  0  0  0  0  0
   10.7909   -0.8885   -0.9691 F   0  0  0  0  0  0  0  0  0  0  0  0
    9.8148    0.9454   -0.0317 F   0  0  0  0  0  0  0  0  0  0  0  0
   -6.8009   -2.2722    1.0791 H   0  0  0  0  0  0  0  0  0  0  0  0
   -8.4702   -1.6699    0.9447 H   0  0  0  0  0  0  0  0  0  0  0  0
   -7.3497   -0.7635    1.9971 H   0  0  0  0  0  0  0  0  0  0  0  0
   -8.2167    0.3631   -1.5083 H   0  0  0  0  0  0  0  0  0  0  0  0
   -8.8747    0.4115    0.1872 H   0  0  0  0  0  0  0  0  0  0  0  0
   -7.4828    1.4839   -0.3554 H   0  0  0  0  0  0  0  0  0  0  0  0
   -5.4422    0.1811   -1.1851 H   0  0  0  0  0  0  0  0  0  0  0  0
   -5.0444   -1.1219   -0.0210 H   0  0  0  0  0  0  0  0  0  0  0  0
   -5.7776    1.7652    0.7093 H   0  0  0  0  0  0  0  0  0  0  0  0
   -5.3248    0.4229    1.8753 H   0  0  0  0  0  0  0  0  0  0  0  0
   -3.3858    1.8657    1.2301 H   0  0  0  0  0  0  0  0  0  0  0  0
   -3.6207    1.4182   -0.4857 H   0  0  0  0  0  0  0  0  0  0  0  0
   -1.3388   -2.0735    0.8951 H   0  0  0  0  0  0  0  0  0  0  0  0
    1.1292   -2.0200    0.5531 H   0  0  0  0  0  0  0  0  0  0  0  0
    0.7719    2.2075   -0.2668 H   0  0  0  0  0  0  0  0  0  0  0  0
   -1.5948    2.0437    0.0838 H   0  0  0  0  0  0  0  0  0  0  0  0
    3.2627   -1.9051    0.2503 H   0  0  0  0  0  0  0  0  0  0  0  0
    6.1263   -2.0337   -0.1035 H   0  0  0  0  0  0  0  0  0  0  0  0
    7.7532    1.7439   -1.1044 H   0  0  0  0  0  0  0  0  0  0  0  0
  1  2  1  0
  2  3  1  0
  2  4  1  0
  4  5  1  0
  5  6  1  0
  6  7  1  0
  7  8  1  0
  8  9  2  0
  9 10  1  0
 10 11  2  0
 11 12  1  0
 12 13  2  0
 11 14  1  0
 14 15  2  0
 15 16  1  0
 16 17  2  0
 17 18  1  0
 18 19  2  0
 19 20  1  0
 20 21  2  0
 21 22  1  0
 18 23  1  0
 23 24  2  0
 23 25  1  0
 25 26  1  0
 25 27  1  0
 25 28  1  0
 13  8  1  0
 22 14  1  0
 21 16  1  0
  1 29  1  0
  1 30  1  0
  1 31  1  0
  3 32  1  0
  3 33  1  0
  3 34  1  0
  4 35  1  0
  4 36  1  0
  5 37  1  0
  5 38  1  0
  6 39  1  0
  6 40  1  0
  9 41  1  0
 10 42  1  0
 12 43  1  0
 13 44  1  0
 15 45  1  0
 17 46  1  0
 19 47  1  0
M  END
$$$$
