[H]OC(=O)C([H])([H])C([H])([H])[C@@]([H])(C([H])([H])[H])[C@@]1([H])C([H])([H])C([H])([H])[C@]2([H])[C@]1(C([H])([H])[H])C([H])([H])C([H])([H])[C@]1([H])[C@@]3(C([H])([H])[H])C([H])([H])C([H])([H])[C@@]([H])(O[H])C([H])([H])[C@@]3([H])C([H])([H])[C@@]([H])(O[H])[C@]12[H]
     RDKit          3D

 68 71  0  0  0  0  0  0  0  0999 V2000
   -4.3930    1.5869   -1.1792 C   0  0  0  0  0  0  0  0  0  0  0  0
   -3.5502    0.3410   -0.9913 C   0  0  2  0  0  0  0  0  0  0  0  0
   -4.3103   -0.8887   -0.8656 C   0  0  0  0  0  0  0  0  0  0  0  0
   -5.3048   -1.1367    0.1828 C   0  0  0  0  0  0  0  0  0  0  0  0
   -6.5469   -0.3724    0.1673 C   0  0  0  0  0  0  0  0  0  0  0  0
   -7.2524   -0.2697    1.3836 O   0  0  0  0  0  0  0  0  0  0  0  0
   -6.9967    0.1763   -0.8441 O   0  0  0  0  0  0  0  0  0  0  0  0
   -2.4258    0.6612   -0.1194 C   0  0  1  0  0  0  0  0  0  0  0  0
   -2.6567    1.1440    1.2664 C   0  0  0  0  0  0  0  0  0  0  0  0
   -1.2764    1.0239    1.9664 C   0  0  0  0  0  0  0  0  0  0  0  0
   -0.3856    0.6992    0.8354 C   0  0  1  0  0  0  0  0  0  0  0  0
    0.9007    0.0609    1.0325 C   0  0  2  0  0  0  0  0  0  0  0  0
    1.8392    0.8488    1.9668 C   0  0  2  0  0  0  0  0  0  0  0  0
    2.0027    2.1490    1.4883 O   0  0  0  0  0  0  0  0  0  0  0  0
    3.1776    0.2077    2.0468 C   0  0  0  0  0  0  0  0  0  0  0  0
    3.8057   -0.0931    0.7168 C   0  0  2  0  0  0  0  0  0  0  0  0
    4.5300    1.0571    0.1044 C   0  0  0  0  0  0  0  0  0  0  0  0
    5.5091    0.4739   -0.9237 C   0  0  2  0  0  0  0  0  0  0  0  0
    5.6367    1.3251   -2.0156 O   0  0  0  0  0  0  0  0  0  0  0  0
    4.9575   -0.8540   -1.4349 C   0  0  0  0  0  0  0  0  0  0  0  0
    3.4739   -0.8187   -1.6028 C   0  0  0  0  0  0  0  0  0  0  0  0
    2.8116   -0.7458   -0.2427 C   0  0  1  0  0  0  0  0  0  0  0  0
    2.5477   -2.1275    0.3181 C   0  0  0  0  0  0  0  0  0  0  0  0
    1.6126    0.1234   -0.3335 C   0  0  1  0  0  0  0  0  0  0  0  0
    0.6964   -0.1489   -1.4676 C   0  0  0  0  0  0  0  0  0  0  0  0
   -0.6071   -0.7771   -1.1247 C   0  0  0  0  0  0  0  0  0  0  0  0
   -1.3055   -0.2981    0.0714 C   0  0  2  0  0  0  0  0  0  0  0  0
   -1.7036   -1.4109    0.9816 C   0  0  0  0  0  0  0  0  0  0  0  0
   -4.8989    1.9203   -0.2593 H   0  0  0  0  0  0  0  0  0  0  0  0
   -4.9680    1.6152   -2.1030 H   0  0  0  0  0  0  0  0  0  0  0  0
   -3.6136    2.4252   -1.3492 H   0  0  0  0  0  0  0  0  0  0  0  0
   -3.0534    0.2581   -2.0617 H   0  0  0  0  0  0  0  0  0  0  0  0
   -3.6898   -1.8276   -0.9724 H   0  0  0  0  0  0  0  0  0  0  0  0
   -4.9199   -0.9663   -1.8589 H   0  0  0  0  0  0  0  0  0  0  0  0
   -4.8734   -1.0817    1.2269 H   0  0  0  0  0  0  0  0  0  0  0  0
   -5.6343   -2.2434    0.1004 H   0  0  0  0  0  0  0  0  0  0  0  0
   -7.3764    0.6980    1.7197 H   0  0  0  0  0  0  0  0  0  0  0  0
   -1.8948    1.5762   -0.6302 H   0  0  0  0  0  0  0  0  0  0  0  0
   -3.3554    0.6041    1.8877 H   0  0  0  0  0  0  0  0  0  0  0  0
   -2.9068    2.2431    1.2599 H   0  0  0  0  0  0  0  0  0  0  0  0
   -0.9848    1.9949    2.4038 H   0  0  0  0  0  0  0  0  0  0  0  0
   -1.3070    0.2935    2.7754 H   0  0  0  0  0  0  0  0  0  0  0  0
   -0.2848    1.5729    0.1677 H   0  0  0  0  0  0  0  0  0  0  0  0
    0.9474   -0.9638    1.4142 H   0  0  0  0  0  0  0  0  0  0  0  0
    1.3662    0.8285    2.9570 H   0  0  0  0  0  0  0  0  0  0  0  0
    1.7432    2.8351    2.1437 H   0  0  0  0  0  0  0  0  0  0  0  0
    3.8620    0.9480    2.5536 H   0  0  0  0  0  0  0  0  0  0  0  0
    3.1904   -0.6816    2.7172 H   0  0  0  0  0  0  0  0  0  0  0  0
    4.5736   -0.8967    0.9080 H   0  0  0  0  0  0  0  0  0  0  0  0
    5.0656    1.5957    0.8975 H   0  0  0  0  0  0  0  0  0  0  0  0
    3.9111    1.7756   -0.4328 H   0  0  0  0  0  0  0  0  0  0  0  0
    6.4683    0.2394   -0.4372 H   0  0  0  0  0  0  0  0  0  0  0  0
    6.3879    1.9642   -1.8801 H   0  0  0  0  0  0  0  0  0  0  0  0
    5.2965   -1.7092   -0.8466 H   0  0  0  0  0  0  0  0  0  0  0  0
    5.3976   -0.9872   -2.4639 H   0  0  0  0  0  0  0  0  0  0  0  0
    3.1679   -1.7326   -2.1394 H   0  0  0  0  0  0  0  0  0  0  0  0
    3.2039    0.1046   -2.1660 H   0  0  0  0  0  0  0  0  0  0  0  0
    1.6522   -2.6075   -0.0801 H   0  0  0  0  0  0  0  0  0  0  0  0
    3.4106   -2.7793   -0.0113 H   0  0  0  0  0  0  0  0  0  0  0  0
    2.6036   -2.1511    1.4313 H   0  0  0  0  0  0  0  0  0  0  0  0
    1.9609    1.1811   -0.4235 H   0  0  0  0  0  0  0  0  0  0  0  0
    1.2310   -0.8594   -2.1666 H   0  0  0  0  0  0  0  0  0  0  0  0
    0.4932    0.7496   -2.0914 H   0  0  0  0  0  0  0  0  0  0  0  0
   -1.2772   -0.7109   -2.0111 H   0  0  0  0  0  0  0  0  0  0  0  0
   -0.4313   -1.8887   -1.0144 H   0  0  0  0  0  0  0  0  0  0  0  0
   -1.8253   -2.3303    0.3485 H   0  0  0  0  0  0  0  0  0  0  0  0
   -0.8666   -1.7135    1.6783 H   0  0  0  0  0  0  0  0  0  0  0  0
   -2.5579   -1.2291    1.6238 H   0  0  0  0  0  0  0  0  0  0  0  0
  1  2  1  0
  2  3  1  0
  3  4  1  0
  4  5  1  0
  5  6  1  0
  5  7  2  0
  2  8  1  0
  8  9  1  0
  9 10  1  0
 10 11  1  0
 11 12  1  0
 12 13  1  0
 13 14  1  0
 13 15  1  0
 15 16  1  0
 16 17  1  0
 17 18  1  0
 18 19  1  0
 18 20  1  0
 20 21  1  0
 21 22  1  0
 22 23  1  1
 22 24  1  0
 24 25  1  0
 25 26  1  0
 26 27  1  0
 27 28  1  1
 27  8  1  0
 27 11  1  0
 24 12  1  0
 22 16  1  0
  1 29  1  0
  1 30  1  0
  1 31  1  0
  2 32  1  6
  3 33  1  0
  3 34  1  0
  4 35  1  0
  4 36  1  0
  6 37  1  0
  8 38  1  6
  9 39  1  0
  9 40  1  0
 10 41  1  0
 10 42  1  0
 11 43  1  6
 12 44  1  1
 13 45  1  1
 14 46  1  0
 15 47  1  0
 15 48  1  0
 16 49  1  1
 17 50  1  0
 17 51  1  0
 18 52  1  1
 19 53  1  0
 20 54  1  0
 20 55  1  0
 21 56  1  0
 21 57  1  0
 23 58  1  0
 23 59  1  0
 23 60  1  0
 24 61  1  6
 25 62  1  0
 25 63  1  0
 26 64  1  0
 26 65  1  0
 28 66  1  0
 28 67  1  0
 28 68  1  0
M  END
$$$$
[H]OC(=O)C([H])([H])C([H])([H])[C@@]([H])(C([H])([H])[H])[C@@]1([H])C([H])([H])C([H])([H])[C@]2([H])[C@]1(C([H])([H])[H])C([H])([H])C([H])([H])[C@]1([H])[C@@]3(C([H])([H])[H])C([H])([H])C([H])([H])[C@@]([H])(O[H])C([H])([H])C([H])([H])[C@@]3([H])C([H])([H])[C@@]([H])(O[H])[C@]12[H]
     RDKit          3D

 71 74  0  0  0  0  0  0  0  0999 V2000
    4.7618    1.8009   -1.0486 C   0  0  0  0  0  0  0  0  0  0  0  0
    3.9352    0.9412   -0.0603 C   0  0  2  0  0  0  0  0  0  0  0  0
    4.7823   -0.2728    0.1835 C   0  0  0  0  0  0  0  0  0  0  0  0
    6.1403    0.1382    0.7808 C   0  0  0  0  0  0  0  0  0  0  0  0
    6.9745   -1.0746    1.0192 C   0  0  0  0  0  0  0  0  0  0  0  0
    8.2430   -0.9171    1.5573 O   0  0  0  0  0  0  0  0  0  0  0  0
    6.5542   -2.2304    0.7441 O   0  0  0  0  0  0  0  0  0  0  0  0
    2.6373    0.7412   -0.7136 C   0  0  1  0  0  0  0  0  0  0  0  0
    2.6892    0.0218   -2.0531 C   0  0  0  0  0  0  0  0  0  0  0  0
    1.4053   -0.8001   -2.1067 C   0  0  0  0  0  0  0  0  0  0  0  0
    0.5392   -0.0582   -1.1551 C   0  0  1  0  0  0  0  0  0  0  0  0
   -0.7306   -0.6910   -0.7663 C   0  0  2  0  0  0  0  0  0  0  0  0
   -1.6218   -0.6889   -2.0191 C   0  0  2  0  0  0  0  0  0  0  0  0
   -1.9142    0.6371   -2.3514 O   0  0  0  0  0  0  0  0  0  0  0  0
   -2.8892   -1.3827   -1.6444 C   0  0  0  0  0  0  0  0  0  0  0  0
   -3.6073   -0.7113   -0.4936 C   0  0  2  0  0  0  0  0  0  0  0  0
   -4.2737    0.5558   -0.9354 C   0  0  0  0  0  0  0  0  0  0  0  0
   -5.6952    0.6066   -0.4083 C   0  0  0  0  0  0  0  0  0  0  0  0
   -5.7728    0.8550    1.0598 C   0  0  2  0  0  0  0  0  0  0  0  0
   -5.4777    2.1694    1.3573 O   0  0  0  0  0  0  0  0  0  0  0  0
   -4.8451   -0.0410    1.8674 C   0  0  0  0  0  0  0  0  0  0  0  0
   -3.4118    0.3355    1.7125 C   0  0  0  0  0  0  0  0  0  0  0  0
   -2.6671   -0.4922    0.6882 C   0  0  1  0  0  0  0  0  0  0  0  0
   -2.4127   -1.8556    1.2857 C   0  0  0  0  0  0  0  0  0  0  0  0
   -1.4378    0.2122    0.2222 C   0  0  1  0  0  0  0  0  0  0  0  0
   -0.5496    0.6212    1.3657 C   0  0  0  0  0  0  0  0  0  0  0  0
    0.7781    1.1533    0.9219 C   0  0  0  0  0  0  0  0  0  0  0  0
    1.5027    0.1651    0.0258 C   0  0  2  0  0  0  0  0  0  0  0  0
    1.7185   -1.0728    0.8054 C   0  0  0  0  0  0  0  0  0  0  0  0
    5.2383    1.1266   -1.7927 H   0  0  0  0  0  0  0  0  0  0  0  0
    5.4754    2.4271   -0.5100 H   0  0  0  0  0  0  0  0  0  0  0  0
    4.0848    2.4717   -1.6189 H   0  0  0  0  0  0  0  0  0  0  0  0
    3.8219    1.5047    0.8591 H   0  0  0  0  0  0  0  0  0  0  0  0
    5.0072   -0.8686   -0.6972 H   0  0  0  0  0  0  0  0  0  0  0  0
    4.3507   -0.9407    0.9540 H   0  0  0  0  0  0  0  0  0  0  0  0
    6.6808    0.8260    0.1059 H   0  0  0  0  0  0  0  0  0  0  0  0
    6.0138    0.6293    1.7569 H   0  0  0  0  0  0  0  0  0  0  0  0
    8.3907   -0.6429    2.5323 H   0  0  0  0  0  0  0  0  0  0  0  0
    2.2899    1.7928   -1.0057 H   0  0  0  0  0  0  0  0  0  0  0  0
    3.5875   -0.6134   -2.1497 H   0  0  0  0  0  0  0  0  0  0  0  0
    2.6749    0.6953   -2.9217 H   0  0  0  0  0  0  0  0  0  0  0  0
    0.9930   -0.8311   -3.1268 H   0  0  0  0  0  0  0  0  0  0  0  0
    1.5969   -1.8376   -1.7321 H   0  0  0  0  0  0  0  0  0  0  0  0
    0.3312    0.9576   -1.5460 H   0  0  0  0  0  0  0  0  0  0  0  0
   -0.6622   -1.7365   -0.4273 H   0  0  0  0  0  0  0  0  0  0  0  0
   -1.1575   -1.2289   -2.8504 H   0  0  0  0  0  0  0  0  0  0  0  0
   -1.2197    1.0552   -2.8962 H   0  0  0  0  0  0  0  0  0  0  0  0
   -3.5812   -1.3064   -2.5236 H   0  0  0  0  0  0  0  0  0  0  0  0
   -2.6965   -2.4445   -1.4860 H   0  0  0  0  0  0  0  0  0  0  0  0
   -4.4186   -1.4365   -0.1884 H   0  0  0  0  0  0  0  0  0  0  0  0
   -4.3574    0.5233   -2.0442 H   0  0  0  0  0  0  0  0  0  0  0  0
   -3.7668    1.4739   -0.6265 H   0  0  0  0  0  0  0  0  0  0  0  0
   -6.2381   -0.3237   -0.6806 H   0  0  0  0  0  0  0  0  0  0  0  0
   -6.1917    1.4467   -0.9264 H   0  0  0  0  0  0  0  0  0  0  0  0
   -6.8016    0.6254    1.3942 H   0  0  0  0  0  0  0  0  0  0  0  0
   -5.1346    2.2920    2.2780 H   0  0  0  0  0  0  0  0  0  0  0  0
   -5.1191    0.1603    2.9457 H   0  0  0  0  0  0  0  0  0  0  0  0
   -5.0609   -1.1145    1.7191 H   0  0  0  0  0  0  0  0  0  0  0  0
   -2.8757    0.2604    2.6680 H   0  0  0  0  0  0  0  0  0  0  0  0
   -3.3417    1.3918    1.3753 H   0  0  0  0  0  0  0  0  0  0  0  0
   -1.5056   -1.8904    1.9188 H   0  0  0  0  0  0  0  0  0  0  0  0
   -3.3133   -2.1605    1.8338 H   0  0  0  0  0  0  0  0  0  0  0  0
   -2.2533   -2.6362    0.4960 H   0  0  0  0  0  0  0  0  0  0  0  0
   -1.7599    1.1250   -0.3164 H   0  0  0  0  0  0  0  0  0  0  0  0
   -1.0779    1.4679    1.8861 H   0  0  0  0  0  0  0  0  0  0  0  0
   -0.4369   -0.1667    2.1389 H   0  0  0  0  0  0  0  0  0  0  0  0
    0.6199    2.0919    0.3617 H   0  0  0  0  0  0  0  0  0  0  0  0
    1.3875    1.3305    1.8326 H   0  0  0  0  0  0  0  0  0  0  0  0
    2.2473   -1.8813    0.3062 H   0  0  0  0  0  0  0  0  0  0  0  0
    2.1244   -0.7893    1.8045 H   0  0  0  0  0  0  0  0  0  0  0  0
    0.6992   -1.4917    1.0585 H   0  0  0  0  0  0  0  0  0  0  0  0
  1  2  1  0
  2  3  1  0
  3  4  1  0
  4  5  1  0
  5  6  1  0
  5  7  2  0
  2  8  1  0
  8  9  1  0
  9 10  1  0
 10 11  1  0
 11 12  1  0
 12 13  1  0
 13 14  1  0
 13 15  1  0
 15 16  1  0
 16 17  1  0
 17 18  1  0
 18 19  1  0
 19 20  1  0
 19 21  1  0
 21 22  1  0
 22 23  1  0
 23 24  1  1
 23 25  1  0
 25 26  1  0
 26 27  1  0
 27 28  1  0
 28 29  1  1
 28  8  1  0
 28 11  1  0
 25 12  1  0
 23 16  1  0
  1 30  1  0
  1 31  1  0
  1 32  1  0
  2 33  1  1
  3 34  1  0
  3 35  1  0
  4 36  1  0
  4 37  1  0
  6 38  1  0
  8 39  1  6
  9 40  1  0
  9 41  1  0
 10 42  1  0
 10 43  1  0
 11 44  1  6
 12 45  1  1
 13 46  1  6
 14 47  1  0
 15 48  1  0
 15 49  1  0
 16 50  1  1
 17 51  1  0
 17 52  1  0
 18 53  1  0
 18 54  1  0
 19 55  1  1
 20 56  1  0
 21 57  1  0
 21 58  1  0
 22 59  1  0
 22 60  1  0
 24 61  1  0
 24 62  1  0
 24 63  1  0
 25 64  1  6
 26 65  1  0
 26 66  1  0
 27 67  1  0
 27 68  1  0
 29 69  1  0
 29 70  1  0
 29 71  1  0
M  END
$$$$
[H]OC(=O)C([H])([H])C([H])([H])[C@@]([H])(C([H])([H])[H])[C@@]1([H])C([H])([H])C([H])([H])[C@@]2([H])[C@@]3([H])[C@]([H])(C([H])([H])C([H])([H])[C@@]21C([H])([H])[H])[C@@]1(C([H])([H])[H])C([H])([H])C([H])([H])[C@]([H])(O[H])[C@@]1([H])C([H])([H])[C@@]3([H])O[H]
     RDKit          3D

 65 68  0  0  0  0  0  0  0  0999 V2000
   -4.5889   -1.8919    0.1735 C   0  0  0  0  0  0  0  0  0  0  0  0
   -3.5703   -0.8018    0.6004 C   0  0  2  0  0  0  0  0  0  0  0  0
   -4.1381    0.4606   -0.0284 C   0  0  0  0  0  0  0  0  0  0  0  0
   -5.5443    0.7329    0.5169 C   0  0  0  0  0  0  0  0  0  0  0  0
   -6.0817    1.9744   -0.1054 C   0  0  0  0  0  0  0  0  0  0  0  0
   -7.3465    2.4620    0.2073 O   0  0  0  0  0  0  0  0  0  0  0  0
   -5.3598    2.5850   -0.9330 O   0  0  0  0  0  0  0  0  0  0  0  0
   -2.2561   -1.2207    0.0713 C   0  0  1  0  0  0  0  0  0  0  0  0
   -2.2407   -1.3178   -1.4627 C   0  0  0  0  0  0  0  0  0  0  0  0
   -1.2063   -0.2178   -1.8250 C   0  0  0  0  0  0  0  0  0  0  0  0
   -0.2084   -0.5500   -0.7960 C   0  0  1  0  0  0  0  0  0  0  0  0
    0.9869    0.2683   -0.6055 C   0  0  2  0  0  0  0  0  0  0  0  0
    1.6796    0.6660   -1.8931 C   0  0  2  0  0  0  0  0  0  0  0  0
    1.9796   -0.4295   -2.6947 O   0  0  0  0  0  0  0  0  0  0  0  0
    2.8373    1.5293   -1.5702 C   0  0  0  0  0  0  0  0  0  0  0  0
    3.5449    1.2500   -0.3048 C   0  0  2  0  0  0  0  0  0  0  0  0
    5.0432    1.2891   -0.5886 C   0  0  1  0  0  0  0  0  0  0  0  0
    5.7387    2.0387    0.3309 O   0  0  0  0  0  0  0  0  0  0  0  0
    5.4807   -0.1381   -0.6840 C   0  0  0  0  0  0  0  0  0  0  0  0
    4.3484   -1.0039   -0.2149 C   0  0  0  0  0  0  0  0  0  0  0  0
    3.2874   -0.0535    0.3464 C   0  0  1  0  0  0  0  0  0  0  0  0
    3.6481    0.0963    1.8334 C   0  0  0  0  0  0  0  0  0  0  0  0
    1.9349   -0.6059    0.2299 C   0  0  1  0  0  0  0  0  0  0  0  0
    1.2553   -0.9405    1.5098 C   0  0  0  0  0  0  0  0  0  0  0  0
   -0.1440   -1.4215    1.4165 C   0  0  0  0  0  0  0  0  0  0  0  0
   -1.0276   -0.5403    0.5069 C   0  0  2  0  0  0  0  0  0  0  0  0
   -1.1363    0.8343    1.0499 C   0  0  0  0  0  0  0  0  0  0  0  0
   -5.4330   -1.8026    0.8811 H   0  0  0  0  0  0  0  0  0  0  0  0
   -4.1257   -2.8960    0.2663 H   0  0  0  0  0  0  0  0  0  0  0  0
   -4.9314   -1.6490   -0.8264 H   0  0  0  0  0  0  0  0  0  0  0  0
   -3.6133   -0.7860    1.6879 H   0  0  0  0  0  0  0  0  0  0  0  0
   -4.3268    0.2781   -1.1284 H   0  0  0  0  0  0  0  0  0  0  0  0
   -3.5610    1.3542    0.1530 H   0  0  0  0  0  0  0  0  0  0  0  0
   -5.5223    0.9003    1.6122 H   0  0  0  0  0  0  0  0  0  0  0  0
   -6.2514   -0.0719    0.2270 H   0  0  0  0  0  0  0  0  0  0  0  0
   -7.8151    2.0798    1.0078 H   0  0  0  0  0  0  0  0  0  0  0  0
   -2.1300   -2.3134    0.4080 H   0  0  0  0  0  0  0  0  0  0  0  0
   -1.7575   -2.2560   -1.8017 H   0  0  0  0  0  0  0  0  0  0  0  0
   -3.1957   -1.1698   -1.9326 H   0  0  0  0  0  0  0  0  0  0  0  0
   -0.8197   -0.3695   -2.8310 H   0  0  0  0  0  0  0  0  0  0  0  0
   -1.7125    0.7371   -1.7373 H   0  0  0  0  0  0  0  0  0  0  0  0
    0.0831   -1.6170   -0.9531 H   0  0  0  0  0  0  0  0  0  0  0  0
    0.8772    1.2123   -0.0358 H   0  0  0  0  0  0  0  0  0  0  0  0
    0.9263    1.2658   -2.4689 H   0  0  0  0  0  0  0  0  0  0  0  0
    2.0473   -0.1685   -3.6417 H   0  0  0  0  0  0  0  0  0  0  0  0
    2.4833    2.6027   -1.5404 H   0  0  0  0  0  0  0  0  0  0  0  0
    3.5307    1.5128   -2.4633 H   0  0  0  0  0  0  0  0  0  0  0  0
    3.3778    2.0673    0.4574 H   0  0  0  0  0  0  0  0  0  0  0  0
    5.2461    1.7549   -1.5975 H   0  0  0  0  0  0  0  0  0  0  0  0
    6.5650    1.5279    0.5669 H   0  0  0  0  0  0  0  0  0  0  0  0
    6.4211   -0.2875   -0.1398 H   0  0  0  0  0  0  0  0  0  0  0  0
    5.6955   -0.4495   -1.7482 H   0  0  0  0  0  0  0  0  0  0  0  0
    4.7646   -1.6590    0.5995 H   0  0  0  0  0  0  0  0  0  0  0  0
    3.9464   -1.6813   -0.9713 H   0  0  0  0  0  0  0  0  0  0  0  0
    4.7286    0.4226    1.8937 H   0  0  0  0  0  0  0  0  0  0  0  0
    3.6254   -0.8854    2.3502 H   0  0  0  0  0  0  0  0  0  0  0  0
    3.0722    0.8823    2.3207 H   0  0  0  0  0  0  0  0  0  0  0  0
    1.9989   -1.5691   -0.3592 H   0  0  0  0  0  0  0  0  0  0  0  0
    1.8248   -1.7829    2.0188 H   0  0  0  0  0  0  0  0  0  0  0  0
    1.2984   -0.1225    2.2688 H   0  0  0  0  0  0  0  0  0  0  0  0
   -0.6060   -1.3564    2.4231 H   0  0  0  0  0  0  0  0  0  0  0  0
   -0.2740   -2.4476    1.0561 H   0  0  0  0  0  0  0  0  0  0  0  0
   -1.9430    0.9693    1.7968 H   0  0  0  0  0  0  0  0  0  0  0  0
   -1.2094    1.6528    0.3239 H   0  0  0  0  0  0  0  0  0  0  0  0
   -0.2011    1.0670    1.6464 H   0  0  0  0  0  0  0  0  0  0  0  0
  1  2  1  0
  2  3  1  0
  3  4  1  0
  4  5  1  0
  5  6  1  0
  5  7  2  0
  2  8  1  0
  8  9  1  0
  9 10  1  0
 10 11  1  0
 11 12  1  0
 12 13  1  0
 13 14  1  0
 13 15  1  0
 15 16  1  0
 16 17  1  0
 17 18  1  0
 17 19  1  0
 19 20  1  0
 20 21  1  0
 21 22  1  1
 21 23  1  0
 23 24  1  0
 24 25  1  0
 25 26  1  0
 26 27  1  1
 26  8  1  0
 26 11  1  0
 23 12  1  0
 21 16  1  0
  1 28  1  0
  1 29  1  0
  1 30  1  0
  2 31  1  1
  3 32  1  0
  3 33  1  0
  4 34  1  0
  4 35  1  0
  6 36  1  0
  8 37  1  1
  9 38  1  0
  9 39  1  0
 10 40  1  0
 10 41  1  0
 11 42  1  6
 12 43  1  1
 13 44  1  6
 14 45  1  0
 15 46  1  0
 15 47  1  0
 16 48  1  1
 17 49  1  6
 18 50  1  0
 19 51  1  0
 19 52  1  0
 20 53  1  0
 20 54  1  0
 22 55  1  0
 22 56  1  0
 22 57  1  0
 23 58  1  6
 24 59  1  0
 24 60  1  0
 25 61  1  0
 25 62  1  0
 27 63  1  0
 27 64  1  0
 27 65  1  0
M  END
$$$$
[H]OC(=O)C([H])([H])C([H])([H])[C@@]([H])(C([H])([H])[H])[C@@]1([H])C([H])([H])C([H])([H])[C@]2([H])[C@]1(C([H])([H])[H])C([H])([H])C([H])([H])[C@]1([H])[C@@]3(C([H])([H])[H])C([H])([H])C([H])([H])C([H])(OC(=O)C([H])([H])[H])C([H])([H])[C@@]3([H])C([H])([H])[C@@]([H])(O[H])[C@]12[H]
     RDKit          3D

 73 76  0  0  0  0  0  0  0  0999 V2000
    5.1321    2.2006   -0.8730 C   0  0  0  0  0  0  0  0  0  0  0  0
    4.2098    1.4725    0.0763 C   0  0  2  0  0  0  0  0  0  0  0  0
    4.8996    0.8341    1.1892 C   0  0  0  0  0  0  0  0  0  0  0  0
    5.9169   -0.1994    1.0488 C   0  0  0  0  0  0  0  0  0  0  0  0
    7.2238    0.0788    0.4569 C   0  0  0  0  0  0  0  0  0  0  0  0
    8.0395   -1.0240    0.0422 O   0  0  0  0  0  0  0  0  0  0  0  0
    7.7491    1.1918    0.2547 O   0  0  0  0  0  0  0  0  0  0  0  0
    3.1583    0.7729   -0.6665 C   0  0  1  0  0  0  0  0  0  0  0  0
    3.5119   -0.2744   -1.6524 C   0  0  0  0  0  0  0  0  0  0  0  0
    2.2010   -1.0491   -1.9177 C   0  0  0  0  0  0  0  0  0  0  0  0
    1.1808   -0.1950   -1.2100 C   0  0  1  0  0  0  0  0  0  0  0  0
   -0.1164   -0.8247   -0.9130 C   0  0  2  0  0  0  0  0  0  0  0  0
   -0.8512   -0.9680   -2.2489 C   0  0  2  0  0  0  0  0  0  0  0  0
   -0.2880   -0.1310   -3.2208 O   0  0  0  0  0  0  0  0  0  0  0  0
   -2.2995   -0.6396   -2.1484 C   0  0  0  0  0  0  0  0  0  0  0  0
   -2.9261   -1.0884   -0.8206 C   0  0  2  0  0  0  0  0  0  0  0  0
   -4.3997   -0.9470   -0.9715 C   0  0  0  0  0  0  0  0  0  0  0  0
   -5.1399   -0.4072    0.2021 C   0  0  0  0  0  0  0  0  0  0  0  0
   -4.4215    0.6280    1.0029 C   0  0  0  0  0  0  0  0  0  0  0  0
   -3.1266    1.0213    0.3645 C   0  0  0  0  0  0  0  0  0  0  0  0
   -2.2916   -0.2557    0.2396 C   0  0  1  0  0  0  0  0  0  0  0  0
   -2.3217   -1.0343    1.5431 C   0  0  0  0  0  0  0  0  0  0  0  0
   -0.8941    0.1610   -0.0431 C   0  0  1  0  0  0  0  0  0  0  0  0
   -0.1065    0.4260    1.2226 C   0  0  0  0  0  0  0  0  0  0  0  0
    1.1937    1.1101    0.8559 C   0  0  0  0  0  0  0  0  0  0  0  0
    2.0099    0.1614    0.0535 C   0  0  2  0  0  0  0  0  0  0  0  0
    2.3411   -1.1108    0.7561 C   0  0  0  0  0  0  0  0  0  0  0  0
   -6.3204    0.2328   -0.3083 O   0  0  0  0  0  0  0  0  0  0  0  0
   -7.5926   -0.1996    0.0267 C   0  0  0  0  0  0  0  0  0  0  0  0
   -8.7337    0.5472   -0.5683 C   0  0  0  0  0  0  0  0  0  0  0  0
   -7.6939   -1.1739    0.7952 O   0  0  0  0  0  0  0  0  0  0  0  0
    5.7325    2.9811   -0.4069 H   0  0  0  0  0  0  0  0  0  0  0  0
    4.4068    2.7647   -1.5791 H   0  0  0  0  0  0  0  0  0  0  0  0
    5.6876    1.5712   -1.5612 H   0  0  0  0  0  0  0  0  0  0  0  0
    3.6414    2.3748    0.5731 H   0  0  0  0  0  0  0  0  0  0  0  0
    5.4634    1.7182    1.7169 H   0  0  0  0  0  0  0  0  0  0  0  0
    4.1736    0.6020    2.0540 H   0  0  0  0  0  0  0  0  0  0  0  0
    5.5220   -1.1728    0.6221 H   0  0  0  0  0  0  0  0  0  0  0  0
    6.1646   -0.5477    2.1265 H   0  0  0  0  0  0  0  0  0  0  0  0
    8.4457   -1.0305   -0.8890 H   0  0  0  0  0  0  0  0  0  0  0  0
    2.6542    1.6026   -1.3165 H   0  0  0  0  0  0  0  0  0  0  0  0
    3.8090    0.1826   -2.6359 H   0  0  0  0  0  0  0  0  0  0  0  0
    4.2500   -1.0147   -1.3736 H   0  0  0  0  0  0  0  0  0  0  0  0
    2.0249   -1.1403   -2.9910 H   0  0  0  0  0  0  0  0  0  0  0  0
    2.2664   -2.0807   -1.5064 H   0  0  0  0  0  0  0  0  0  0  0  0
    1.0350    0.7103   -1.7947 H   0  0  0  0  0  0  0  0  0  0  0  0
   -0.1102   -1.8303   -0.4825 H   0  0  0  0  0  0  0  0  0  0  0  0
   -0.7729   -2.0300   -2.6267 H   0  0  0  0  0  0  0  0  0  0  0  0
   -0.1091   -0.6477   -4.0618 H   0  0  0  0  0  0  0  0  0  0  0  0
   -2.5067    0.4350   -2.2262 H   0  0  0  0  0  0  0  0  0  0  0  0
   -2.8698   -1.2076   -2.9279 H   0  0  0  0  0  0  0  0  0  0  0  0
   -2.6738   -2.1662   -0.6612 H   0  0  0  0  0  0  0  0  0  0  0  0
   -4.8506   -1.9547   -1.1947 H   0  0  0  0  0  0  0  0  0  0  0  0
   -4.6694   -0.3415   -1.8882 H   0  0  0  0  0  0  0  0  0  0  0  0
   -5.4994   -1.2497    0.8633 H   0  0  0  0  0  0  0  0  0  0  0  0
   -4.2087    0.2851    2.0373 H   0  0  0  0  0  0  0  0  0  0  0  0
   -5.0130    1.5801    1.1385 H   0  0  0  0  0  0  0  0  0  0  0  0
   -3.2255    1.4699   -0.6263 H   0  0  0  0  0  0  0  0  0  0  0  0
   -2.6325    1.7530    1.0388 H   0  0  0  0  0  0  0  0  0  0  0  0
   -3.2532   -1.6192    1.6697 H   0  0  0  0  0  0  0  0  0  0  0  0
   -2.1160   -0.3830    2.4248 H   0  0  0  0  0  0  0  0  0  0  0  0
   -1.4901   -1.7662    1.4950 H   0  0  0  0  0  0  0  0  0  0  0  0
   -0.9090    1.1184   -0.6019 H   0  0  0  0  0  0  0  0  0  0  0  0
   -0.7040    1.0333    1.9139 H   0  0  0  0  0  0  0  0  0  0  0  0
    0.1626   -0.5158    1.7532 H   0  0  0  0  0  0  0  0  0  0  0  0
    1.0382    2.0270    0.2681 H   0  0  0  0  0  0  0  0  0  0  0  0
    1.7115    1.3182    1.8339 H   0  0  0  0  0  0  0  0  0  0  0  0
    2.4696   -0.9695    1.8394 H   0  0  0  0  0  0  0  0  0  0  0  0
    1.5358   -1.8841    0.6495 H   0  0  0  0  0  0  0  0  0  0  0  0
    3.2231   -1.5769    0.2802 H   0  0  0  0  0  0  0  0  0  0  0  0
   -9.7027    0.0418   -0.4344 H   0  0  0  0  0  0  0  0  0  0  0  0
   -8.7438    1.5959   -0.1976 H   0  0  0  0  0  0  0  0  0  0  0  0
   -8.6018    0.6474   -1.6826 H   0  0  0  0  0  0  0  0  0  0  0  0
  1  2  1  0
  2  3  1  0
  3  4  1  0
  4  5  1  0
  5  6  1  0
  5  7  2  0
  2  8  1  0
  8  9  1  0
  9 10  1  0
 10 11  1  0
 11 12  1  0
 12 13  1  0
 13 14  1  0
 13 15  1  0
 15 16  1  0
 16 17  1  0
 17 18  1  0
 18 19  1  0
 19 20  1  0
 20 21  1  0
 21 22  1  1
 21 23  1  0
 23 24  1  0
 24 25  1  0
 25 26  1  0
 26 27  1  1
 18 28  1  0
 28 29  1  0
 29 30  1  0
 29 31  2  0
 26  8  1  0
 26 11  1  0
 23 12  1  0
 21 16  1  0
  1 32  1  0
  1 33  1  0
  1 34  1  0
  2 35  1  1
  3 36  1  0
  3 37  1  0
  4 38  1  0
  4 39  1  0
  6 40  1  0
  8 41  1  6
  9 42  1  0
  9 43  1  0
 10 44  1  0
 10 45  1  0
 11 46  1  6
 12 47  1  1
 13 48  1  6
 14 49  1  0
 15 50  1  0
 15 51  1  0
 16 52  1  1
 17 53  1  0
 17 54  1  0
 18 55  1  0
 19 56  1  0
 19 57  1  0
 20 58  1  0
 20 59  1  0
 22 60  1  0
 22 61  1  0
 22 62  1  0
 23 63  1  6
 24 64  1  0
 24 65  1  0
 25 66  1  0
 25 67  1  0
 27 68  1  0
 27 69  1  0
 27 70  1  0
 30 71  1  0
 30 72  1  0
 30 73  1  0
M  END
$$$$
[H]OC(=O)C([H])([H])C([H])([H])[C@@]([H])(C([H])([H])[H])[C@@]1([H])C([H])([H])C([H])([H])[C@@]2([H])[C@@]3([H])[C@]([H])(C([H])([H])C([H])([H])[C@@]21C([H])([H])[H])[C@@]1(C([H])([H])[H])C([H])([H])C([H])([H])[C@@]([H])(O[H])[C@@]1([H])C([H])([H])[C@@]3([H])O[H]
     RDKit          3D

 65 68  0  0  0  0  0  0  0  0999 V2000
   -4.6053   -1.7963    0.1947 C   0  0  0  0  0  0  0  0  0  0  0  0
   -3.5276   -0.7390    0.5922 C   0  0  2  0  0  0  0  0  0  0  0  0
   -4.1533    0.5611    0.2021 C   0  0  0  0  0  0  0  0  0  0  0  0
   -5.4573    0.6792    1.0092 C   0  0  0  0  0  0  0  0  0  0  0  0
   -6.0746    1.9728    0.6184 C   0  0  0  0  0  0  0  0  0  0  0  0
   -7.2917    2.3988    1.1743 O   0  0  0  0  0  0  0  0  0  0  0  0
   -5.5579    2.7513   -0.2166 O   0  0  0  0  0  0  0  0  0  0  0  0
   -2.2813   -1.1246   -0.1014 C   0  0  1  0  0  0  0  0  0  0  0  0
   -2.3597   -1.1135   -1.5937 C   0  0  0  0  0  0  0  0  0  0  0  0
   -1.1393   -0.2771   -2.0490 C   0  0  0  0  0  0  0  0  0  0  0  0
   -0.1783   -0.6731   -0.9819 C   0  0  1  0  0  0  0  0  0  0  0  0
    1.0655    0.0984   -0.8337 C   0  0  2  0  0  0  0  0  0  0  0  0
    1.8041    0.2901   -2.1542 C   0  0  2  0  0  0  0  0  0  0  0  0
    1.8999   -0.8976   -2.8703 O   0  0  0  0  0  0  0  0  0  0  0  0
    3.1215    0.9387   -1.9148 C   0  0  0  0  0  0  0  0  0  0  0  0
    3.4480    1.1860   -0.4770 C   0  0  2  0  0  0  0  0  0  0  0  0
    4.9615    1.4224   -0.4024 C   0  0  2  0  0  0  0  0  0  0  0  0
    5.3772    2.1504   -1.5359 O   0  0  0  0  0  0  0  0  0  0  0  0
    5.5104    0.0299   -0.4263 C   0  0  0  0  0  0  0  0  0  0  0  0
    4.4262   -0.8909    0.0291 C   0  0  0  0  0  0  0  0  0  0  0  0
    3.2387   -0.0218    0.3954 C   0  0  1  0  0  0  0  0  0  0  0  0
    3.4273    0.3922    1.8391 C   0  0  0  0  0  0  0  0  0  0  0  0
    1.9312   -0.7003    0.1350 C   0  0  1  0  0  0  0  0  0  0  0  0
    1.2009   -0.9882    1.3897 C   0  0  0  0  0  0  0  0  0  0  0  0
   -0.2200   -1.3852    1.2930 C   0  0  0  0  0  0  0  0  0  0  0  0
   -0.9988   -0.5113    0.2881 C   0  0  2  0  0  0  0  0  0  0  0  0
   -1.0506    0.9002    0.7916 C   0  0  0  0  0  0  0  0  0  0  0  0
   -5.3060   -1.9613    1.0088 H   0  0  0  0  0  0  0  0  0  0  0  0
   -4.0662   -2.7580    0.0112 H   0  0  0  0  0  0  0  0  0  0  0  0
   -5.0305   -1.4728   -0.7607 H   0  0  0  0  0  0  0  0  0  0  0  0
   -3.4415   -0.8105    1.6803 H   0  0  0  0  0  0  0  0  0  0  0  0
   -4.5098    0.4336   -0.8558 H   0  0  0  0  0  0  0  0  0  0  0  0
   -3.6229    1.4733    0.3771 H   0  0  0  0  0  0  0  0  0  0  0  0
   -5.1952    0.7178    2.0729 H   0  0  0  0  0  0  0  0  0  0  0  0
   -6.1644   -0.1318    0.7456 H   0  0  0  0  0  0  0  0  0  0  0  0
   -7.3653    2.3883    2.1951 H   0  0  0  0  0  0  0  0  0  0  0  0
   -2.1381   -2.2485    0.1484 H   0  0  0  0  0  0  0  0  0  0  0  0
   -2.2669   -2.1203   -2.0384 H   0  0  0  0  0  0  0  0  0  0  0  0
   -3.2294   -0.6337   -2.0251 H   0  0  0  0  0  0  0  0  0  0  0  0
   -0.7817   -0.6696   -3.0222 H   0  0  0  0  0  0  0  0  0  0  0  0
   -1.3753    0.7810   -2.1130 H   0  0  0  0  0  0  0  0  0  0  0  0
   -0.0099   -1.7735   -1.0770 H   0  0  0  0  0  0  0  0  0  0  0  0
    0.9070    1.1204   -0.4483 H   0  0  0  0  0  0  0  0  0  0  0  0
    1.1746    0.9827   -2.7513 H   0  0  0  0  0  0  0  0  0  0  0  0
    1.5643   -1.6777   -2.3716 H   0  0  0  0  0  0  0  0  0  0  0  0
    3.9244    0.2672   -2.3350 H   0  0  0  0  0  0  0  0  0  0  0  0
    3.2410    1.8987   -2.4574 H   0  0  0  0  0  0  0  0  0  0  0  0
    2.9052    2.0304   -0.0321 H   0  0  0  0  0  0  0  0  0  0  0  0
    5.2479    2.0100    0.4689 H   0  0  0  0  0  0  0  0  0  0  0  0
    6.1583    2.7266   -1.3244 H   0  0  0  0  0  0  0  0  0  0  0  0
    6.4170   -0.0209    0.2290 H   0  0  0  0  0  0  0  0  0  0  0  0
    5.8597   -0.1765   -1.4583 H   0  0  0  0  0  0  0  0  0  0  0  0
    4.7649   -1.4239    0.9480 H   0  0  0  0  0  0  0  0  0  0  0  0
    4.1636   -1.6716   -0.7062 H   0  0  0  0  0  0  0  0  0  0  0  0
    4.5071    0.7070    1.9239 H   0  0  0  0  0  0  0  0  0  0  0  0
    3.2921   -0.4337    2.5469 H   0  0  0  0  0  0  0  0  0  0  0  0
    2.8449    1.3003    2.1000 H   0  0  0  0  0  0  0  0  0  0  0  0
    2.1705   -1.6534   -0.4235 H   0  0  0  0  0  0  0  0  0  0  0  0
    1.7344   -1.8594    1.8892 H   0  0  0  0  0  0  0  0  0  0  0  0
    1.3052   -0.1387    2.0987 H   0  0  0  0  0  0  0  0  0  0  0  0
   -0.7128   -1.2107    2.2731 H   0  0  0  0  0  0  0  0  0  0  0  0
   -0.3984   -2.4416    1.0253 H   0  0  0  0  0  0  0  0  0  0  0  0
   -1.7542    1.0290    1.6362 H   0  0  0  0  0  0  0  0  0  0  0  0
   -1.2865    1.6566    0.0293 H   0  0  0  0  0  0  0  0  0  0  0  0
   -0.0440    1.1121    1.2732 H   0  0  0  0  0  0  0  0  0  0  0  0
  1  2  1  0
  2  3  1  0
  3  4  1  0
  4  5  1  0
  5  6  1  0
  5  7  2  0
  2  8  1  0
  8  9  1  0
  9 10  1  0
 10 11  1  0
 11 12  1  0
 12 13  1  0
 13 14  1  0
 13 15  1  0
 15 16  1  0
 16 17  1  0
 17 18  1  0
 17 19  1  0
 19 20  1  0
 20 21  1  0
 21 22  1  1
 21 23  1  0
 23 24  1  0
 24 25  1  0
 25 26  1  0
 26 27  1  1
 26  8  1  0
 26 11  1  0
 23 12  1  0
 21 16  1  0
  1 28  1  0
  1 29  1  0
  1 30  1  0
  2 31  1  1
  3 32  1  0
  3 33  1  0
  4 34  1  0
  4 35  1  0
  6 36  1  0
  8 37  1  1
  9 38  1  0
  9 39  1  0
 10 40  1  0
 10 41  1  0
 11 42  1  6
 12 43  1  1
 13 44  1  6
 14 45  1  0
 15 46  1  0
 15 47  1  0
 16 48  1  1
 17 49  1  1
 18 50  1  0
 19 51  1  0
 19 52  1  0
 20 53  1  0
 20 54  1  0
 22 55  1  0
 22 56  1  0
 22 57  1  0
 23 58  1  6
 24 59  1  0
 24 60  1  0
 25 61  1  0
 25 62  1  0
 27 63  1  0
 27 64  1  0
 27 65  1  0
M  END
$$$$
[H]Oc1c([H])c([H])c2c(c1[H])C([H])([H])C([H])([H])[C@]1([H])[C@]2([H])C([H])([H])C([H])([H])[C@]2(C([H])([H])[H])[C@@]([H])(O[H])C([H])([H])C([H])([H])[C@]21[H]
     RDKit          3D

 44 47  0  0  0  0  0  0  0  0999 V2000
   -2.2616   -0.7647    1.3456 C   0  0  0  0  0  0  0  0  0  0  0  0
   -2.1872   -0.4820   -0.1355 C   0  0  2  0  0  0  0  0  0  0  0  0
   -1.4972   -1.6125   -0.8188 C   0  0  0  0  0  0  0  0  0  0  0  0
   -0.0355   -1.6614   -0.5111 C   0  0  0  0  0  0  0  0  0  0  0  0
    0.6317   -0.3276   -0.6087 C   0  0  1  0  0  0  0  0  0  0  0  0
   -0.1167    0.7120    0.2397 C   0  0  1  0  0  0  0  0  0  0  0  0
    0.6973    1.9517    0.3346 C   0  0  0  0  0  0  0  0  0  0  0  0
    1.8991    1.6281    1.2348 C   0  0  0  0  0  0  0  0  0  0  0  0
    2.6681    0.5258    0.5618 C   0  0  0  0  0  0  0  0  0  0  0  0
    4.0208    0.4137    0.8075 C   0  0  0  0  0  0  0  0  0  0  0  0
    4.8096   -0.5725    0.2292 C   0  0  0  0  0  0  0  0  0  0  0  0
    6.1817   -0.6599    0.4990 O   0  0  0  0  0  0  0  0  0  0  0  0
    4.1863   -1.4604   -0.6201 C   0  0  0  0  0  0  0  0  0  0  0  0
    2.8307   -1.3536   -0.8705 C   0  0  0  0  0  0  0  0  0  0  0  0
    2.0522   -0.3730   -0.2941 C   0  0  0  0  0  0  0  0  0  0  0  0
   -1.4489    0.8431   -0.3896 C   0  0  2  0  0  0  0  0  0  0  0  0
   -2.3800    1.8245    0.1898 C   0  0  0  0  0  0  0  0  0  0  0  0
   -3.7490    1.2757   -0.1912 C   0  0  0  0  0  0  0  0  0  0  0  0
   -3.5339   -0.1411   -0.6696 C   0  0  2  0  0  0  0  0  0  0  0  0
   -4.4822   -1.0192   -0.1693 O   0  0  0  0  0  0  0  0  0  0  0  0
   -3.3190   -1.0974    1.5551 H   0  0  0  0  0  0  0  0  0  0  0  0
   -1.6242   -1.6159    1.6570 H   0  0  0  0  0  0  0  0  0  0  0  0
   -2.0942    0.1160    1.9735 H   0  0  0  0  0  0  0  0  0  0  0  0
   -1.7135   -1.6572   -1.9098 H   0  0  0  0  0  0  0  0  0  0  0  0
   -1.9450   -2.5631   -0.4048 H   0  0  0  0  0  0  0  0  0  0  0  0
    0.1510   -2.1510    0.4861 H   0  0  0  0  0  0  0  0  0  0  0  0
    0.4339   -2.3403   -1.2525 H   0  0  0  0  0  0  0  0  0  0  0  0
    0.5187    0.0259   -1.6572 H   0  0  0  0  0  0  0  0  0  0  0  0
   -0.1882    0.2644    1.2522 H   0  0  0  0  0  0  0  0  0  0  0  0
    1.1649    2.2436   -0.6508 H   0  0  0  0  0  0  0  0  0  0  0  0
    0.1574    2.7804    0.7893 H   0  0  0  0  0  0  0  0  0  0  0  0
    2.5196    2.5130    1.4035 H   0  0  0  0  0  0  0  0  0  0  0  0
    1.4780    1.1823    2.1542 H   0  0  0  0  0  0  0  0  0  0  0  0
    4.5228    1.1037    1.4718 H   0  0  0  0  0  0  0  0  0  0  0  0
    6.5756    0.0194    1.1283 H   0  0  0  0  0  0  0  0  0  0  0  0
    4.7934   -2.2292   -1.0728 H   0  0  0  0  0  0  0  0  0  0  0  0
    2.4286   -2.0954   -1.5517 H   0  0  0  0  0  0  0  0  0  0  0  0
   -1.3743    0.9848   -1.4780 H   0  0  0  0  0  0  0  0  0  0  0  0
   -2.2899    2.0186    1.2621 H   0  0  0  0  0  0  0  0  0  0  0  0
   -2.2758    2.8067   -0.3367 H   0  0  0  0  0  0  0  0  0  0  0  0
   -4.1755    1.8381   -1.0706 H   0  0  0  0  0  0  0  0  0  0  0  0
   -4.4356    1.2437    0.6584 H   0  0  0  0  0  0  0  0  0  0  0  0
   -3.4818   -0.1892   -1.7851 H   0  0  0  0  0  0  0  0  0  0  0  0
   -4.1124   -1.9488   -0.1478 H   0  0  0  0  0  0  0  0  0  0  0  0
  2  1  1  1
  2  3  1  0
  3  4  1  0
  4  5  1  0
  5  6  1  0
  6  7  1  0
  7  8  1  0
  8  9  1  0
  9 10  2  0
 10 11  1  0
 11 12  1  0
 11 13  2  0
 13 14  1  0
 14 15  2  0
  6 16  1  0
 16 17  1  0
 17 18  1  0
 18 19  1  0
 19 20  1  0
 16  2  1  0
 19  2  1  0
 15  5  1  0
 15  9  1  0
  1 21  1  0
  1 22  1  0
  1 23  1  0
  3 24  1  0
  3 25  1  0
  4 26  1  0
  4 27  1  0
  5 28  1  6
  6 29  1  1
  7 30  1  0
  7 31  1  0
  8 32  1  0
  8 33  1  0
 10 34  1  0
 12 35  1  0
 13 36  1  0
 14 37  1  0
 16 38  1  6
 17 39  1  0
 17 40  1  0
 18 41  1  0
 18 42  1  0
 19 43  1  6
 20 44  1  0
M  END
$$$$
[H]O[C@@]1([H])C([H])([H])C([H])([H])[C@]2([H])[C@]1(C([H])([H])[H])C([H])([H])C([H])([H])[C@]1([H])[C@]3(C([H])([H])[H])C(=C([H])C(=O)C([H])([H])C3([H])[H])C([H])([H])C([H])([H])[C@@]21[H]
     RDKit          3D

 49 52  0  0  0  0  0  0  0  0999 V2000
    2.6003    1.3949    0.7370 C   0  0  0  0  0  0  0  0  0  0  0  0
    2.3315    0.4990   -0.4424 C   0  0  2  0  0  0  0  0  0  0  0  0
    1.5103    1.1614   -1.4949 C   0  0  0  0  0  0  0  0  0  0  0  0
    0.1483    1.4556   -0.9170 C   0  0  0  0  0  0  0  0  0  0  0  0
   -0.5369    0.1560   -0.5507 C   0  0  1  0  0  0  0  0  0  0  0  0
    0.2754   -0.6369    0.4710 C   0  0  1  0  0  0  0  0  0  0  0  0
   -0.3169   -2.0384    0.5263 C   0  0  0  0  0  0  0  0  0  0  0  0
   -1.7749   -2.0482    0.8169 C   0  0  0  0  0  0  0  0  0  0  0  0
   -2.5405   -0.9871    0.1457 C   0  0  0  0  0  0  0  0  0  0  0  0
   -3.7658   -1.2727   -0.2625 C   0  0  0  0  0  0  0  0  0  0  0  0
   -4.6079   -0.3042   -0.9341 C   0  0  0  0  0  0  0  0  0  0  0  0
   -5.6066   -0.6232   -1.6118 O   0  0  0  0  0  0  0  0  0  0  0  0
   -4.2087    1.1393   -0.7699 C   0  0  0  0  0  0  0  0  0  0  0  0
   -2.7163    1.1869   -1.0278 C   0  0  0  0  0  0  0  0  0  0  0  0
   -1.9296    0.3620   -0.0560 C   0  0  2  0  0  0  0  0  0  0  0  0
   -1.9459    1.0713    1.2829 C   0  0  0  0  0  0  0  0  0  0  0  0
    1.6457   -0.7900   -0.0472 C   0  0  2  0  0  0  0  0  0  0  0  0
    2.6444   -1.3862    0.8737 C   0  0  0  0  0  0  0  0  0  0  0  0
    3.9631   -1.0731    0.1623 C   0  0  0  0  0  0  0  0  0  0  0  0
    3.6050   -0.1289   -0.9688 C   0  0  2  0  0  0  0  0  0  0  0  0
    4.5812    0.7519   -1.2889 O   0  0  0  0  0  0  0  0  0  0  0  0
    3.6756    1.2716    1.0471 H   0  0  0  0  0  0  0  0  0  0  0  0
    1.9625    1.2047    1.6015 H   0  0  0  0  0  0  0  0  0  0  0  0
    2.4819    2.4492    0.4115 H   0  0  0  0  0  0  0  0  0  0  0  0
    1.9872    2.1545   -1.7263 H   0  0  0  0  0  0  0  0  0  0  0  0
    1.4562    0.5158   -2.3781 H   0  0  0  0  0  0  0  0  0  0  0  0
   -0.4734    1.9510   -1.6671 H   0  0  0  0  0  0  0  0  0  0  0  0
    0.2714    2.1214   -0.0498 H   0  0  0  0  0  0  0  0  0  0  0  0
   -0.5888   -0.4547   -1.4753 H   0  0  0  0  0  0  0  0  0  0  0  0
    0.1940   -0.1895    1.4684 H   0  0  0  0  0  0  0  0  0  0  0  0
   -0.0876   -2.5040   -0.4691 H   0  0  0  0  0  0  0  0  0  0  0  0
    0.2474   -2.5825    1.3004 H   0  0  0  0  0  0  0  0  0  0  0  0
   -2.1698   -3.0559    0.5263 H   0  0  0  0  0  0  0  0  0  0  0  0
   -1.9002   -2.0016    1.9294 H   0  0  0  0  0  0  0  0  0  0  0  0
   -4.1853   -2.2671   -0.1012 H   0  0  0  0  0  0  0  0  0  0  0  0
   -4.4637    1.4087    0.2637 H   0  0  0  0  0  0  0  0  0  0  0  0
   -4.7180    1.7173   -1.5432 H   0  0  0  0  0  0  0  0  0  0  0  0
   -2.5697    0.8169   -2.0700 H   0  0  0  0  0  0  0  0  0  0  0  0
   -2.4147    2.2480   -0.9356 H   0  0  0  0  0  0  0  0  0  0  0  0
   -2.6695    1.9362    1.2729 H   0  0  0  0  0  0  0  0  0  0  0  0
   -2.2828    0.4031    2.1004 H   0  0  0  0  0  0  0  0  0  0  0  0
   -0.9566    1.5164    1.5155 H   0  0  0  0  0  0  0  0  0  0  0  0
    1.6091   -1.4204   -0.9702 H   0  0  0  0  0  0  0  0  0  0  0  0
    2.6340   -0.7940    1.8359 H   0  0  0  0  0  0  0  0  0  0  0  0
    2.5188   -2.4554    1.0564 H   0  0  0  0  0  0  0  0  0  0  0  0
    4.3735   -2.0337   -0.2265 H   0  0  0  0  0  0  0  0  0  0  0  0
    4.6899   -0.6220    0.8558 H   0  0  0  0  0  0  0  0  0  0  0  0
    3.3380   -0.7531   -1.8418 H   0  0  0  0  0  0  0  0  0  0  0  0
    4.6855    1.5297   -0.7163 H   0  0  0  0  0  0  0  0  0  0  0  0
  2  1  1  1
  2  3  1  0
  3  4  1  0
  4  5  1  0
  5  6  1  0
  6  7  1  0
  7  8  1  0
  8  9  1  0
  9 10  2  0
 10 11  1  0
 11 12  2  0
 11 13  1  0
 13 14  1  0
 14 15  1  0
 15 16  1  1
  6 17  1  0
 17 18  1  0
 18 19  1  0
 19 20  1  0
 20 21  1  0
 17  2  1  0
 20  2  1  0
 15  5  1  0
 15  9  1  0
  1 22  1  0
  1 23  1  0
  1 24  1  0
  3 25  1  0
  3 26  1  0
  4 27  1  0
  4 28  1  0
  5 29  1  6
  6 30  1  1
  7 31  1  0
  7 32  1  0
  8 33  1  0
  8 34  1  0
 10 35  1  0
 13 36  1  0
 13 37  1  0
 14 38  1  0
 14 39  1  0
 16 40  1  0
 16 41  1  0
 16 42  1  0
 17 43  1  6
 18 44  1  0
 18 45  1  0
 19 46  1  0
 19 47  1  0
 20 48  1  6
 21 49  1  0
M  END
$$$$
[H]OC(=O)C([H])([H])C([H])([H])[C@@]([H])(C([H])([H])[H])[C@@]1([H])C([H])([H])C([H])([H])[C@]2([H])[C@]1(C([H])([H])[H])C([H])([H])C([H])([H])[C@]1([H])[C@@]3(C([H])([H])[H])C([H])([H])C([H])([H])C([H])(N(C([H])([H])[H])C([H])([H])[H])C([H])([H])[C@@]3([H])C([H])([H])[C@@]([H])(O[H])[C@]12[H]
     RDKit          3D

 75 78  0  0  0  0  0  0  0  0999 V2000
    5.4167    1.3469    1.2049 C   0  0  0  0  0  0  0  0  0  0  0  0
    4.4566    0.2273    0.7459 C   0  0  2  0  0  0  0  0  0  0  0  0
    5.2152   -0.5362   -0.2934 C   0  0  0  0  0  0  0  0  0  0  0  0
    6.4870   -1.0679    0.3993 C   0  0  0  0  0  0  0  0  0  0  0  0
    7.2821   -1.8469   -0.6159 C   0  0  0  0  0  0  0  0  0  0  0  0
    8.4640   -2.4183   -0.1693 O   0  0  0  0  0  0  0  0  0  0  0  0
    6.8903   -1.9687   -1.8004 O   0  0  0  0  0  0  0  0  0  0  0  0
    3.2112    0.8555    0.3561 C   0  0  1  0  0  0  0  0  0  0  0  0
    3.2445    1.8472   -0.7602 C   0  0  0  0  0  0  0  0  0  0  0  0
    1.8068    1.9320   -1.2932 C   0  0  0  0  0  0  0  0  0  0  0  0
    1.0457    1.1544   -0.2645 C   0  0  1  0  0  0  0  0  0  0  0  0
   -0.2903    0.6763   -0.6631 C   0  0  2  0  0  0  0  0  0  0  0  0
   -1.1637    1.9313   -0.8320 C   0  0  2  0  0  0  0  0  0  0  0  0
   -0.7363    2.8689    0.0976 O   0  0  0  0  0  0  0  0  0  0  0  0
   -2.6182    1.6029   -0.5954 C   0  0  0  0  0  0  0  0  0  0  0  0
   -2.8647    0.1272   -0.9268 C   0  0  2  0  0  0  0  0  0  0  0  0
   -4.3158   -0.1557   -1.1296 C   0  0  0  0  0  0  0  0  0  0  0  0
   -5.0044   -0.8024    0.0118 C   0  0  0  0  0  0  0  0  0  0  0  0
   -4.2948   -0.6273    1.3266 C   0  0  0  0  0  0  0  0  0  0  0  0
   -2.9215   -1.1961    1.2133 C   0  0  0  0  0  0  0  0  0  0  0  0
   -2.1452   -0.7808    0.0057 C   0  0  1  0  0  0  0  0  0  0  0  0
   -1.7538   -2.0399   -0.7754 C   0  0  0  0  0  0  0  0  0  0  0  0
   -0.8754   -0.1017    0.4766 C   0  0  1  0  0  0  0  0  0  0  0  0
    0.0368   -1.0706    1.1235 C   0  0  0  0  0  0  0  0  0  0  0  0
    1.4744   -0.7588    1.1575 C   0  0  0  0  0  0  0  0  0  0  0  0
    2.0320   -0.0058   -0.0110 C   0  0  2  0  0  0  0  0  0  0  0  0
    2.2148   -0.8305   -1.2382 C   0  0  0  0  0  0  0  0  0  0  0  0
   -6.3923   -0.3639    0.1787 N   0  0  0  0  0  0  0  0  0  0  0  0
   -6.5139    1.0343    0.4740 C   0  0  0  0  0  0  0  0  0  0  0  0
   -7.1396   -0.7466   -1.0066 C   0  0  0  0  0  0  0  0  0  0  0  0
    6.0742    0.9934    2.0302 H   0  0  0  0  0  0  0  0  0  0  0  0
    4.7758    2.1737    1.5751 H   0  0  0  0  0  0  0  0  0  0  0  0
    5.9624    1.7041    0.3146 H   0  0  0  0  0  0  0  0  0  0  0  0
    4.3182   -0.4223    1.6284 H   0  0  0  0  0  0  0  0  0  0  0  0
    5.5600    0.0373   -1.1495 H   0  0  0  0  0  0  0  0  0  0  0  0
    4.7135   -1.4872   -0.6202 H   0  0  0  0  0  0  0  0  0  0  0  0
    6.1932   -1.7487    1.2016 H   0  0  0  0  0  0  0  0  0  0  0  0
    7.0814   -0.2016    0.7421 H   0  0  0  0  0  0  0  0  0  0  0  0
    9.1170   -1.9192    0.4301 H   0  0  0  0  0  0  0  0  0  0  0  0
    2.8429    1.4496    1.2604 H   0  0  0  0  0  0  0  0  0  0  0  0
    3.5058    2.8406   -0.3621 H   0  0  0  0  0  0  0  0  0  0  0  0
    3.8665    1.5501   -1.6141 H   0  0  0  0  0  0  0  0  0  0  0  0
    1.7145    1.3839   -2.2528 H   0  0  0  0  0  0  0  0  0  0  0  0
    1.4631    2.9635   -1.4139 H   0  0  0  0  0  0  0  0  0  0  0  0
    0.9660    1.6828    0.7003 H   0  0  0  0  0  0  0  0  0  0  0  0
   -0.3752    0.1586   -1.6196 H   0  0  0  0  0  0  0  0  0  0  0  0
   -0.9973    2.3646   -1.8493 H   0  0  0  0  0  0  0  0  0  0  0  0
   -1.4519    3.0982    0.7576 H   0  0  0  0  0  0  0  0  0  0  0  0
   -3.1897    2.1710   -1.3830 H   0  0  0  0  0  0  0  0  0  0  0  0
   -2.9796    1.8800    0.3933 H   0  0  0  0  0  0  0  0  0  0  0  0
   -2.3799    0.0009   -1.9421 H   0  0  0  0  0  0  0  0  0  0  0  0
   -4.5127   -0.7359   -2.0702 H   0  0  0  0  0  0  0  0  0  0  0  0
   -4.8149    0.8432   -1.3081 H   0  0  0  0  0  0  0  0  0  0  0  0
   -5.0626   -1.8962   -0.1767 H   0  0  0  0  0  0  0  0  0  0  0  0
   -4.8513   -1.2513    2.0714 H   0  0  0  0  0  0  0  0  0  0  0  0
   -4.3353    0.4085    1.7066 H   0  0  0  0  0  0  0  0  0  0  0  0
   -2.3844   -0.9364    2.1745 H   0  0  0  0  0  0  0  0  0  0  0  0
   -3.0217   -2.3121    1.2600 H   0  0  0  0  0  0  0  0  0  0  0  0
   -2.4520   -2.1877   -1.6502 H   0  0  0  0  0  0  0  0  0  0  0  0
   -0.7471   -1.9639   -1.2135 H   0  0  0  0  0  0  0  0  0  0  0  0
   -1.8273   -2.9452   -0.1647 H   0  0  0  0  0  0  0  0  0  0  0  0
   -1.2071    0.6564    1.2419 H   0  0  0  0  0  0  0  0  0  0  0  0
   -0.1041   -2.1060    0.7096 H   0  0  0  0  0  0  0  0  0  0  0  0
   -0.2994   -1.1750    2.1994 H   0  0  0  0  0  0  0  0  0  0  0  0
    1.7521   -0.1845    2.0901 H   0  0  0  0  0  0  0  0  0  0  0  0
    2.0522   -1.7144    1.2520 H   0  0  0  0  0  0  0  0  0  0  0  0
    1.3108   -0.9148   -1.8795 H   0  0  0  0  0  0  0  0  0  0  0  0
    2.3926   -1.8936   -0.9011 H   0  0  0  0  0  0  0  0  0  0  0  0
    3.0043   -0.4453   -1.9018 H   0  0  0  0  0  0  0  0  0  0  0  0
   -7.2563    1.4547   -0.2508 H   0  0  0  0  0  0  0  0  0  0  0  0
   -7.0280    1.1343    1.4758 H   0  0  0  0  0  0  0  0  0  0  0  0
   -5.5904    1.6062    0.4266 H   0  0  0  0  0  0  0  0  0  0  0  0
   -8.0009   -0.0286   -1.0779 H   0  0  0  0  0  0  0  0  0  0  0  0
   -7.4930   -1.7896   -0.9835 H   0  0  0  0  0  0  0  0  0  0  0  0
   -6.5527   -0.5821   -1.9402 H   0  0  0  0  0  0  0  0  0  0  0  0
  1  2  1  0
  2  3  1  0
  3  4  1  0
  4  5  1  0
  5  6  1  0
  5  7  2  0
  2  8  1  0
  8  9  1  0
  9 10  1  0
 10 11  1  0
 11 12  1  0
 12 13  1  0
 13 14  1  0
 13 15  1  0
 15 16  1  0
 16 17  1  0
 17 18  1  0
 18 19  1  0
 19 20  1  0
 20 21  1  0
 21 22  1  6
 21 23  1  0
 23 24  1  0
 24 25  1  0
 25 26  1  0
 26 27  1  6
 18 28  1  0
 28 29  1  0
 28 30  1  0
 26  8  1  0
 26 11  1  0
 23 12  1  0
 21 16  1  0
  1 31  1  0
  1 32  1  0
  1 33  1  0
  2 34  1  1
  3 35  1  0
  3 36  1  0
  4 37  1  0
  4 38  1  0
  6 39  1  0
  8 40  1  1
  9 41  1  0
  9 42  1  0
 10 43  1  0
 10 44  1  0
 11 45  1  1
 12 46  1  6
 13 47  1  6
 14 48  1  0
 15 49  1  0
 15 50  1  0
 16 51  1  6
 17 52  1  0
 17 53  1  0
 18 54  1  0
 19 55  1  0
 19 56  1  0
 20 57  1  0
 20 58  1  0
 22 59  1  0
 22 60  1  0
 22 61  1  0
 23 62  1  1
 24 63  1  0
 24 64  1  0
 25 65  1  0
 25 66  1  0
 27 67  1  0
 27 68  1  0
 27 69  1  0
 29 70  1  0
 29 71  1  0
 29 72  1  0
 30 73  1  0
 30 74  1  0
 30 75  1  0
M  END
$$$$
[H]OC(=O)C([H])([H])C([H])([H])[C@@]([H])(C([H])([H])[H])[C@@]1([H])C([H])([H])C([H])([H])[C@@]2([H])[C@]3([H])C([H])([H])C([H])([H])c4c([H])c(O[H])c([H])c([H])c4[C@@]3([H])C([H])([H])C([H])([H])[C@@]21C([H])([H])[H]
     RDKit          3D

 58 61  0  0  0  0  0  0  0  0999 V2000
    4.1344   -1.2426   -1.3472 C   0  0  0  0  0  0  0  0  0  0  0  0
    3.1958   -0.0953   -0.9132 C   0  0  2  0  0  0  0  0  0  0  0  0
    3.7856    0.4995    0.3250 C   0  0  0  0  0  0  0  0  0  0  0  0
    5.1157    1.1289    0.2690 C   0  0  0  0  0  0  0  0  0  0  0  0
    6.2917    0.3855   -0.0983 C   0  0  0  0  0  0  0  0  0  0  0  0
    6.9783   -0.4638    0.7878 O   0  0  0  0  0  0  0  0  0  0  0  0
    6.7799    0.4556   -1.2513 O   0  0  0  0  0  0  0  0  0  0  0  0
    1.8585   -0.7233   -0.7575 C   0  0  1  0  0  0  0  0  0  0  0  0
    1.8315   -1.8026    0.3347 C   0  0  0  0  0  0  0  0  0  0  0  0
    0.7371   -1.2496    1.2870 C   0  0  0  0  0  0  0  0  0  0  0  0
   -0.2199   -0.8322    0.2436 C   0  0  1  0  0  0  0  0  0  0  0  0
   -1.4459   -0.1236    0.5881 C   0  0  2  0  0  0  0  0  0  0  0  0
   -2.2455   -0.7474    1.7132 C   0  0  0  0  0  0  0  0  0  0  0  0
   -3.3430    0.2754    2.0367 C   0  0  0  0  0  0  0  0  0  0  0  0
   -4.1824    0.3943    0.8107 C   0  0  0  0  0  0  0  0  0  0  0  0
   -5.5015    0.7624    0.9691 C   0  0  0  0  0  0  0  0  0  0  0  0
   -6.3638    0.9002   -0.1192 C   0  0  0  0  0  0  0  0  0  0  0  0
   -7.6969    1.2728    0.0513 O   0  0  0  0  0  0  0  0  0  0  0  0
   -5.8696    0.6600   -1.3663 C   0  0  0  0  0  0  0  0  0  0  0  0
   -4.5429    0.2904   -1.5186 C   0  0  0  0  0  0  0  0  0  0  0  0
   -3.6865    0.1522   -0.4503 C   0  0  0  0  0  0  0  0  0  0  0  0
   -2.3126   -0.2418   -0.6782 C   0  0  1  0  0  0  0  0  0  0  0  0
   -1.5991    0.4449   -1.7913 C   0  0  0  0  0  0  0  0  0  0  0  0
   -0.1852    0.0519   -1.9735 C   0  0  0  0  0  0  0  0  0  0  0  0
    0.6355    0.0642   -0.6705 C   0  0  2  0  0  0  0  0  0  0  0  0
    0.6787    1.4609   -0.1897 C   0  0  0  0  0  0  0  0  0  0  0  0
    4.7268   -1.6353   -0.5347 H   0  0  0  0  0  0  0  0  0  0  0  0
    4.6705   -1.0160   -2.2769 H   0  0  0  0  0  0  0  0  0  0  0  0
    3.4804   -2.1363   -1.6604 H   0  0  0  0  0  0  0  0  0  0  0  0
    3.2178    0.6060   -1.7774 H   0  0  0  0  0  0  0  0  0  0  0  0
    3.0936    1.2680    0.7522 H   0  0  0  0  0  0  0  0  0  0  0  0
    3.8948   -0.3384    1.1100 H   0  0  0  0  0  0  0  0  0  0  0  0
    5.3039    1.5772    1.3095 H   0  0  0  0  0  0  0  0  0  0  0  0
    5.0211    2.1005   -0.3417 H   0  0  0  0  0  0  0  0  0  0  0  0
    7.9884   -0.5005    0.7504 H   0  0  0  0  0  0  0  0  0  0  0  0
    1.7215   -1.3705   -1.7219 H   0  0  0  0  0  0  0  0  0  0  0  0
    1.4204   -2.7596   -0.0204 H   0  0  0  0  0  0  0  0  0  0  0  0
    2.7708   -1.9783    0.8231 H   0  0  0  0  0  0  0  0  0  0  0  0
    1.1348   -0.4712    1.9356 H   0  0  0  0  0  0  0  0  0  0  0  0
    0.3357   -2.0952    1.8716 H   0  0  0  0  0  0  0  0  0  0  0  0
   -0.4461   -1.7295   -0.3781 H   0  0  0  0  0  0  0  0  0  0  0  0
   -1.3858    0.9474    0.8196 H   0  0  0  0  0  0  0  0  0  0  0  0
   -2.7048   -1.6868    1.3653 H   0  0  0  0  0  0  0  0  0  0  0  0
   -1.5959   -0.8349    2.5820 H   0  0  0  0  0  0  0  0  0  0  0  0
   -2.8297    1.2540    2.1474 H   0  0  0  0  0  0  0  0  0  0  0  0
   -3.8930   -0.0357    2.9225 H   0  0  0  0  0  0  0  0  0  0  0  0
   -5.8777    0.9488    1.9609 H   0  0  0  0  0  0  0  0  0  0  0  0
   -8.0145    1.4418    1.0187 H   0  0  0  0  0  0  0  0  0  0  0  0
   -6.5401    0.7675   -2.2108 H   0  0  0  0  0  0  0  0  0  0  0  0
   -4.2200    0.1161   -2.5390 H   0  0  0  0  0  0  0  0  0  0  0  0
   -2.2669   -1.3484   -0.9203 H   0  0  0  0  0  0  0  0  0  0  0  0
   -1.7888    1.5556   -1.7875 H   0  0  0  0  0  0  0  0  0  0  0  0
   -2.1378    0.1210   -2.7385 H   0  0  0  0  0  0  0  0  0  0  0  0
   -0.1229   -0.9298   -2.4747 H   0  0  0  0  0  0  0  0  0  0  0  0
    0.2999    0.8114   -2.6407 H   0  0  0  0  0  0  0  0  0  0  0  0
   -0.2877    1.9706   -0.5048 H   0  0  0  0  0  0  0  0  0  0  0  0
    0.7597    1.6093    0.9004 H   0  0  0  0  0  0  0  0  0  0  0  0
    1.4437    2.0941   -0.6740 H   0  0  0  0  0  0  0  0  0  0  0  0
  1  2  1  0
  2  3  1  0
  3  4  1  0
  4  5  1  0
  5  6  1  0
  5  7  2  0
  2  8  1  0
  8  9  1  0
  9 10  1  0
 10 11  1  0
 11 12  1  0
 12 13  1  0
 13 14  1  0
 14 15  1  0
 15 16  2  0
 16 17  1  0
 17 18  1  0
 17 19  2  0
 19 20  1  0
 20 21  2  0
 21 22  1  0
 22 23  1  0
 23 24  1  0
 24 25  1  0
 25 26  1  1
 25  8  1  0
 25 11  1  0
 22 12  1  0
 21 15  1  0
  1 27  1  0
  1 28  1  0
  1 29  1  0
  2 30  1  6
  3 31  1  0
  3 32  1  0
  4 33  1  0
  4 34  1  0
  6 35  1  0
  8 36  1  6
  9 37  1  0
  9 38  1  0
 10 39  1  0
 10 40  1  0
 11 41  1  6
 12 42  1  1
 13 43  1  0
 13 44  1  0
 14 45  1  0
 14 46  1  0
 16 47  1  0
 18 48  1  0
 19 49  1  0
 20 50  1  0
 22 51  1  6
 23 52  1  0
 23 53  1  0
 24 54  1  0
 24 55  1  0
 26 56  1  0
 26 57  1  0
 26 58  1  0
M  END
$$$$
[H]OC(C([H])([H])[H])(C([H])([H])[H])C([H])([H])C([H])([H])C([H])([H])[C@@]([H])(C([H])([H])[H])[C@@]1([H])C([H])([H])C([H])([H])[C@@]2([H])/C(=C([H])/C([H])=C3\C(=C([H])[H])[C@@]([H])(O[H])C([H])([H])[C@]([H])(O[H])C3([H])[H])C([H])([H])C([H])([H])C([H])([H])[C@@]21C([H])([H])[H]
     RDKit          3D

 74 76  0  0  0  0  0  0  0  0999 V2000
   -2.8576   -2.7269   -0.9768 C   0  0  0  0  0  0  0  0  0  0  0  0
   -2.6873   -1.3782   -0.3509 C   0  0  2  0  0  0  0  0  0  0  0  0
   -3.9903   -0.6117   -0.4456 C   0  0  0  0  0  0  0  0  0  0  0  0
   -5.1429   -1.2444    0.2409 C   0  0  0  0  0  0  0  0  0  0  0  0
   -6.4468   -0.5133    0.1488 C   0  0  0  0  0  0  0  0  0  0  0  0
   -6.5081    0.8572    0.6978 C   0  0  0  0  0  0  0  0  0  0  0  0
   -6.1723    0.9561    2.1579 C   0  0  0  0  0  0  0  0  0  0  0  0
   -7.9900    1.3306    0.6273 C   0  0  0  0  0  0  0  0  0  0  0  0
   -5.7407    1.7710   -0.0046 O   0  0  0  0  0  0  0  0  0  0  0  0
   -1.5754   -0.6386   -1.0561 C   0  0  1  0  0  0  0  0  0  0  0  0
   -1.3899    0.7501   -0.4236 C   0  0  0  0  0  0  0  0  0  0  0  0
    0.0928    1.0444   -0.4502 C   0  0  0  0  0  0  0  0  0  0  0  0
    0.6402   -0.0165   -1.2978 C   0  0  1  0  0  0  0  0  0  0  0  0
    2.0648   -0.3216   -1.1596 C   0  0  0  0  0  0  0  0  0  0  0  0
    2.5317   -1.5517   -1.8564 C   0  0  0  0  0  0  0  0  0  0  0  0
    1.3626   -1.9503   -2.7616 C   0  0  0  0  0  0  0  0  0  0  0  0
    0.1324   -2.2686   -1.9542 C   0  0  0  0  0  0  0  0  0  0  0  0
   -0.2281   -1.2200   -0.9401 C   0  0  2  0  0  0  0  0  0  0  0  0
    0.0915   -1.6771    0.4761 C   0  0  0  0  0  0  0  0  0  0  0  0
    2.9495    0.3874   -0.4942 C   0  0  0  0  0  0  0  0  0  0  0  0
    4.3144   -0.0770   -0.4717 C   0  0  0  0  0  0  0  0  0  0  0  0
    5.3054    0.5833    0.1366 C   0  0  0  0  0  0  0  0  0  0  0  0
    6.7062    0.0873    0.1644 C   0  0  0  0  0  0  0  0  0  0  0  0
    7.5094    0.8501    1.1927 C   0  0  1  0  0  0  0  0  0  0  0  0
    8.0822    1.9751    0.6379 O   0  0  0  0  0  0  0  0  0  0  0  0
    6.6960    1.2208    2.4046 C   0  0  0  0  0  0  0  0  0  0  0  0
    5.5397    2.1465    2.1081 C   0  0  2  0  0  0  0  0  0  0  0  0
    4.5071    1.9436    3.0282 O   0  0  0  0  0  0  0  0  0  0  0  0
    5.0303    1.8819    0.7341 C   0  0  0  0  0  0  0  0  0  0  0  0
    4.3725    2.7518   -0.0065 C   0  0  0  0  0  0  0  0  0  0  0  0
   -2.9910   -2.6746   -2.0835 H   0  0  0  0  0  0  0  0  0  0  0  0
   -3.7685   -3.2842   -0.6259 H   0  0  0  0  0  0  0  0  0  0  0  0
   -1.9490   -3.3666   -0.8104 H   0  0  0  0  0  0  0  0  0  0  0  0
   -2.4766   -1.5075    0.7300 H   0  0  0  0  0  0  0  0  0  0  0  0
   -3.8268    0.3994    0.0464 H   0  0  0  0  0  0  0  0  0  0  0  0
   -4.2809   -0.4040   -1.4960 H   0  0  0  0  0  0  0  0  0  0  0  0
   -5.3698   -2.2556   -0.2280 H   0  0  0  0  0  0  0  0  0  0  0  0
   -4.9249   -1.4787    1.3108 H   0  0  0  0  0  0  0  0  0  0  0  0
   -6.8000   -0.4976   -0.9243 H   0  0  0  0  0  0  0  0  0  0  0  0
   -7.2681   -1.1006    0.6637 H   0  0  0  0  0  0  0  0  0  0  0  0
   -6.7215    0.2556    2.7938 H   0  0  0  0  0  0  0  0  0  0  0  0
   -5.0758    0.9217    2.2640 H   0  0  0  0  0  0  0  0  0  0  0  0
   -6.4995    1.9859    2.4862 H   0  0  0  0  0  0  0  0  0  0  0  0
   -8.0762    2.3804    0.9045 H   0  0  0  0  0  0  0  0  0  0  0  0
   -8.5917    0.6320    1.2434 H   0  0  0  0  0  0  0  0  0  0  0  0
   -8.2752    1.1437   -0.4332 H   0  0  0  0  0  0  0  0  0  0  0  0
   -5.2329    2.3875    0.5990 H   0  0  0  0  0  0  0  0  0  0  0  0
   -1.8195   -0.4865   -2.1231 H   0  0  0  0  0  0  0  0  0  0  0  0
   -1.9938    1.5136   -0.9508 H   0  0  0  0  0  0  0  0  0  0  0  0
   -1.6760    0.6501    0.6561 H   0  0  0  0  0  0  0  0  0  0  0  0
    0.2175    2.0374   -0.9693 H   0  0  0  0  0  0  0  0  0  0  0  0
    0.5363    1.1429    0.5577 H   0  0  0  0  0  0  0  0  0  0  0  0
    0.4052    0.2087   -2.3719 H   0  0  0  0  0  0  0  0  0  0  0  0
    3.3573   -1.2906   -2.5462 H   0  0  0  0  0  0  0  0  0  0  0  0
    2.7479   -2.3797   -1.1761 H   0  0  0  0  0  0  0  0  0  0  0  0
    1.2056   -1.2353   -3.5674 H   0  0  0  0  0  0  0  0  0  0  0  0
    1.6809   -2.9155   -3.2389 H   0  0  0  0  0  0  0  0  0  0  0  0
   -0.6674   -2.5213   -2.6497 H   0  0  0  0  0  0  0  0  0  0  0  0
    0.3734   -3.2078   -1.3841 H   0  0  0  0  0  0  0  0  0  0  0  0
   -0.0146   -2.7781    0.5733 H   0  0  0  0  0  0  0  0  0  0  0  0
   -0.5227   -1.1913    1.2351 H   0  0  0  0  0  0  0  0  0  0  0  0
    1.1752   -1.4382    0.6843 H   0  0  0  0  0  0  0  0  0  0  0  0
    2.5891    1.2200    0.0172 H   0  0  0  0  0  0  0  0  0  0  0  0
    4.6140   -1.0184   -0.9663 H   0  0  0  0  0  0  0  0  0  0  0  0
    7.1559    0.2842   -0.8269 H   0  0  0  0  0  0  0  0  0  0  0  0
    6.7542   -1.0095    0.3137 H   0  0  0  0  0  0  0  0  0  0  0  0
    8.3182    0.1806    1.5480 H   0  0  0  0  0  0  0  0  0  0  0  0
    8.4747    1.7960   -0.2460 H   0  0  0  0  0  0  0  0  0  0  0  0
    7.3572    1.7337    3.1303 H   0  0  0  0  0  0  0  0  0  0  0  0
    6.2882    0.3318    2.9267 H   0  0  0  0  0  0  0  0  0  0  0  0
    5.9114    3.1867    2.2109 H   0  0  0  0  0  0  0  0  0  0  0  0
    4.2893    0.9807    3.1081 H   0  0  0  0  0  0  0  0  0  0  0  0
    4.0014    2.6741   -0.9878 H   0  0  0  0  0  0  0  0  0  0  0  0
    4.1702    3.7172    0.4969 H   0  0  0  0  0  0  0  0  0  0  0  0
  1  2  1  0
  2  3  1  0
  3  4  1  0
  4  5  1  0
  5  6  1  0
  6  7  1  0
  6  8  1  0
  6  9  1  0
  2 10  1  0
 10 11  1  0
 11 12  1  0
 12 13  1  0
 13 14  1  0
 14 15  1  0
 15 16  1  0
 16 17  1  0
 17 18  1  0
 18 19  1  1
 14 20  2  0
 20 21  1  0
 21 22  2  0
 22 23  1  0
 23 24  1  0
 24 25  1  0
 24 26  1  0
 26 27  1  0
 27 28  1  0
 27 29  1  0
 29 30  2  3
 18 10  1  0
 29 22  1  0
 18 13  1  0
  1 31  1  0
  1 32  1  0
  1 33  1  0
  2 34  1  1
  3 35  1  0
  3 36  1  0
  4 37  1  0
  4 38  1  0
  5 39  1  0
  5 40  1  0
  7 41  1  0
  7 42  1  0
  7 43  1  0
  8 44  1  0
  8 45  1  0
  8 46  1  0
  9 47  1  0
 10 48  1  6
 11 49  1  0
 11 50  1  0
 12 51  1  0
 12 52  1  0
 13 53  1  6
 15 54  1  0
 15 55  1  0
 16 56  1  0
 16 57  1  0
 17 58  1  0
 17 59  1  0
 19 60  1  0
 19 61  1  0
 19 62  1  0
 20 63  1  0
 21 64  1  0
 23 65  1  0
 23 66  1  0
 24 67  1  1
 25 68  1  0
 26 69  1  0
 26 70  1  0
 27 71  1  6
 28 72  1  0
 30 73  1  0
 30 74  1  0
M  END
$$$$
[H]OC(=O)C([H])([H])C([H])([H])[C@@]([H])(C([H])([H])[H])[C@@]1([H])C([H])([H])C([H])([H])[C@@]2([H])[C@]3([H])C([H])([H])[C@]([H])(O[H])C([H])([H])C([H])([H])[C@]3(C([H])([H])[H])[C@@]21[H]
     RDKit          3D

 48 50  0  0  0  0  0  0  0  0999 V2000
    2.7815   -0.8644   -1.9071 C   0  0  0  0  0  0  0  0  0  0  0  0
    1.9472   -0.2596   -0.7973 C   0  0  2  0  0  0  0  0  0  0  0  0
    2.7071   -0.1369    0.4816 C   0  0  0  0  0  0  0  0  0  0  0  0
    3.8918    0.7929    0.2149 C   0  0  0  0  0  0  0  0  0  0  0  0
    4.7265    0.9792    1.4013 C   0  0  0  0  0  0  0  0  0  0  0  0
    5.0753    2.2934    1.7853 O   0  0  0  0  0  0  0  0  0  0  0  0
    5.1214   -0.0083    2.0646 O   0  0  0  0  0  0  0  0  0  0  0  0
    0.6383   -0.8855   -0.7483 C   0  0  1  0  0  0  0  0  0  0  0  0
    0.6736   -2.4118   -0.4925 C   0  0  0  0  0  0  0  0  0  0  0  0
   -0.7630   -2.7416   -0.0289 C   0  0  0  0  0  0  0  0  0  0  0  0
   -1.4135   -1.4544   -0.1936 C   0  0  1  0  0  0  0  0  0  0  0  0
   -2.2575   -0.7039    0.6937 C   0  0  2  0  0  0  0  0  0  0  0  0
   -3.5894   -0.3097    0.1261 C   0  0  0  0  0  0  0  0  0  0  0  0
   -3.8598    1.1773    0.1858 C   0  0  2  0  0  0  0  0  0  0  0  0
   -5.1293    1.3981   -0.3440 O   0  0  0  0  0  0  0  0  0  0  0  0
   -2.8649    1.9273   -0.6738 C   0  0  0  0  0  0  0  0  0  0  0  0
   -1.5194    1.2896   -0.6840 C   0  0  0  0  0  0  0  0  0  0  0  0
   -1.2347    0.4388    0.5180 C   0  0  1  0  0  0  0  0  0  0  0  0
   -1.1508    1.1974    1.8246 C   0  0  0  0  0  0  0  0  0  0  0  0
   -0.2513   -0.5884    0.3920 C   0  0  2  0  0  0  0  0  0  0  0  0
    2.0673   -1.1550   -2.7342 H   0  0  0  0  0  0  0  0  0  0  0  0
    3.3363   -1.7636   -1.6039 H   0  0  0  0  0  0  0  0  0  0  0  0
    3.4481   -0.0974   -2.3463 H   0  0  0  0  0  0  0  0  0  0  0  0
    1.7831    0.8207   -1.1414 H   0  0  0  0  0  0  0  0  0  0  0  0
    2.0775    0.3776    1.2377 H   0  0  0  0  0  0  0  0  0  0  0  0
    3.1249   -1.0982    0.8156 H   0  0  0  0  0  0  0  0  0  0  0  0
    3.4908    1.7187   -0.2209 H   0  0  0  0  0  0  0  0  0  0  0  0
    4.4801    0.3271   -0.6428 H   0  0  0  0  0  0  0  0  0  0  0  0
    4.5469    3.0624    1.3763 H   0  0  0  0  0  0  0  0  0  0  0  0
    0.1341   -0.7758   -1.7301 H   0  0  0  0  0  0  0  0  0  0  0  0
    1.3094   -2.5486    0.4199 H   0  0  0  0  0  0  0  0  0  0  0  0
    0.9903   -2.9838   -1.3500 H   0  0  0  0  0  0  0  0  0  0  0  0
   -1.1429   -3.4708   -0.7868 H   0  0  0  0  0  0  0  0  0  0  0  0
   -0.7609   -3.2320    0.9407 H   0  0  0  0  0  0  0  0  0  0  0  0
   -1.6109   -1.2401   -1.2692 H   0  0  0  0  0  0  0  0  0  0  0  0
   -2.3340   -1.0546    1.7381 H   0  0  0  0  0  0  0  0  0  0  0  0
   -3.7214   -0.6378   -0.9178 H   0  0  0  0  0  0  0  0  0  0  0  0
   -4.3876   -0.8105    0.7176 H   0  0  0  0  0  0  0  0  0  0  0  0
   -3.8500    1.5756    1.2007 H   0  0  0  0  0  0  0  0  0  0  0  0
   -5.1971    0.9024   -1.1791 H   0  0  0  0  0  0  0  0  0  0  0  0
   -3.1949    2.0376   -1.7242 H   0  0  0  0  0  0  0  0  0  0  0  0
   -2.8398    2.9831   -0.2764 H   0  0  0  0  0  0  0  0  0  0  0  0
   -1.3231    0.7395   -1.6073 H   0  0  0  0  0  0  0  0  0  0  0  0
   -0.7669    2.1176   -0.6462 H   0  0  0  0  0  0  0  0  0  0  0  0
   -1.0767    2.2838    1.6651 H   0  0  0  0  0  0  0  0  0  0  0  0
   -0.2216    0.8953    2.3855 H   0  0  0  0  0  0  0  0  0  0  0  0
   -1.9779    0.9436    2.5369 H   0  0  0  0  0  0  0  0  0  0  0  0
    0.0878   -1.0464    1.3240 H   0  0  0  0  0  0  0  0  0  0  0  0
  1  2  1  0
  2  3  1  0
  3  4  1  0
  4  5  1  0
  5  6  1  0
  5  7  2  0
  2  8  1  0
  8  9  1  0
  9 10  1  0
 10 11  1  0
 11 12  1  0
 12 13  1  0
 13 14  1  0
 14 15  1  0
 14 16  1  0
 16 17  1  0
 17 18  1  0
 18 19  1  1
 18 20  1  0
 20  8  1  0
 20 11  1  0
 18 12  1  0
  1 21  1  0
  1 22  1  0
  1 23  1  0
  2 24  1  6
  3 25  1  0
  3 26  1  0
  4 27  1  0
  4 28  1  0
  6 29  1  0
  8 30  1  6
  9 31  1  0
  9 32  1  0
 10 33  1  0
 10 34  1  0
 11 35  1  6
 12 36  1  1
 13 37  1  0
 13 38  1  0
 14 39  1  1
 15 40  1  0
 16 41  1  0
 16 42  1  0
 17 43  1  0
 17 44  1  0
 19 45  1  0
 19 46  1  0
 19 47  1  0
 20 48  1  1
M  END
$$$$
[H]C#C[C@]1(O[H])C([H])([H])C([H])([H])[C@]2([H])[C@]1(C([H])([H])[H])C([H])([H])C([H])([H])[C@]1([H])[C@]3(C([H])([H])[H])C(=C([H])C(=O)C([H])([H])C3([H])[H])C([H])([H])C([H])([H])[C@@]21[H]
     RDKit          3D

 51 54  0  0  0  0  0  0  0  0999 V2000
    1.7493   -1.1265    1.6536 C   0  0  0  0  0  0  0  0  0  0  0  0
    2.1216   -0.0430    0.6736 C   0  0  2  0  0  0  0  0  0  0  0  0
    1.5590    1.2708    1.0868 C   0  0  0  0  0  0  0  0  0  0  0  0
    0.0714    1.2108    1.1615 C   0  0  0  0  0  0  0  0  0  0  0  0
   -0.6048    0.5500    0.0237 C   0  0  1  0  0  0  0  0  0  0  0  0
    0.1105   -0.7046   -0.4686 C   0  0  1  0  0  0  0  0  0  0  0  0
   -0.6300   -1.1902   -1.6834 C   0  0  0  0  0  0  0  0  0  0  0  0
   -1.9229   -1.8329   -1.1650 C   0  0  0  0  0  0  0  0  0  0  0  0
   -2.6812   -0.7168   -0.5104 C   0  0  0  0  0  0  0  0  0  0  0  0
   -4.0053   -0.6894   -0.7194 C   0  0  0  0  0  0  0  0  0  0  0  0
   -4.8523    0.3426   -0.1393 C   0  0  0  0  0  0  0  0  0  0  0  0
   -6.1042    0.2470   -0.1595 O   0  0  0  0  0  0  0  0  0  0  0  0
   -4.2299    1.5290    0.4874 C   0  0  0  0  0  0  0  0  0  0  0  0
   -2.7863    1.6262    0.0430 C   0  0  0  0  0  0  0  0  0  0  0  0
   -2.0471    0.3125    0.3232 C   0  0  2  0  0  0  0  0  0  0  0  0
   -2.2726    0.0127    1.7943 C   0  0  0  0  0  0  0  0  0  0  0  0
    1.5159   -0.3239   -0.7108 C   0  0  2  0  0  0  0  0  0  0  0  0
    2.4222   -1.3609   -1.2349 C   0  0  0  0  0  0  0  0  0  0  0  0
    3.7773   -0.6924   -0.9823 C   0  0  0  0  0  0  0  0  0  0  0  0
    3.5717   -0.0645    0.3799 C   0  0  2  0  0  0  0  0  0  0  0  0
    4.2070   -0.9294    1.3013 O   0  0  0  0  0  0  0  0  0  0  0  0
    4.2254    1.2351    0.4984 C   0  0  0  0  0  0  0  0  0  0  0  0
    4.7766    2.2855    0.5929 C   0  0  0  0  0  0  0  0  0  0  0  0
    0.8070   -0.9627    2.1721 H   0  0  0  0  0  0  0  0  0  0  0  0
    2.5478   -1.1364    2.4523 H   0  0  0  0  0  0  0  0  0  0  0  0
    1.7435   -2.1333    1.2280 H   0  0  0  0  0  0  0  0  0  0  0  0
    1.9225    2.0512    0.3653 H   0  0  0  0  0  0  0  0  0  0  0  0
    1.9425    1.5565    2.0942 H   0  0  0  0  0  0  0  0  0  0  0  0
   -0.2956    2.2797    1.1965 H   0  0  0  0  0  0  0  0  0  0  0  0
   -0.2221    0.7983    2.1654 H   0  0  0  0  0  0  0  0  0  0  0  0
   -0.5681    1.2609   -0.8535 H   0  0  0  0  0  0  0  0  0  0  0  0
   -0.0001   -1.4813    0.3146 H   0  0  0  0  0  0  0  0  0  0  0  0
   -0.9514   -0.2882   -2.2533 H   0  0  0  0  0  0  0  0  0  0  0  0
   -0.0490   -1.8921   -2.3002 H   0  0  0  0  0  0  0  0  0  0  0  0
   -1.6397   -2.5297   -0.3501 H   0  0  0  0  0  0  0  0  0  0  0  0
   -2.5054   -2.2869   -1.9641 H   0  0  0  0  0  0  0  0  0  0  0  0
   -4.4808   -1.4472   -1.3346 H   0  0  0  0  0  0  0  0  0  0  0  0
   -4.2968    1.5060    1.5953 H   0  0  0  0  0  0  0  0  0  0  0  0
   -4.7334    2.4499    0.1289 H   0  0  0  0  0  0  0  0  0  0  0  0
   -2.2840    2.4811    0.5330 H   0  0  0  0  0  0  0  0  0  0  0  0
   -2.8003    1.7395   -1.0570 H   0  0  0  0  0  0  0  0  0  0  0  0
   -1.5823   -0.7373    2.1945 H   0  0  0  0  0  0  0  0  0  0  0  0
   -2.2471    0.9860    2.3297 H   0  0  0  0  0  0  0  0  0  0  0  0
   -3.3006   -0.3990    1.9132 H   0  0  0  0  0  0  0  0  0  0  0  0
    1.5742    0.5835   -1.3255 H   0  0  0  0  0  0  0  0  0  0  0  0
    2.3387   -1.5444   -2.3263 H   0  0  0  0  0  0  0  0  0  0  0  0
    2.4351   -2.2992   -0.6838 H   0  0  0  0  0  0  0  0  0  0  0  0
    4.5959   -1.4085   -1.0210 H   0  0  0  0  0  0  0  0  0  0  0  0
    3.8705    0.1378   -1.7176 H   0  0  0  0  0  0  0  0  0  0  0  0
    4.9214   -1.4528    0.8583 H   0  0  0  0  0  0  0  0  0  0  0  0
    5.2863    3.2205    0.6846 H   0  0  0  0  0  0  0  0  0  0  0  0
  2  1  1  1
  2  3  1  0
  3  4  1  0
  4  5  1  0
  5  6  1  0
  6  7  1  0
  7  8  1  0
  8  9  1  0
  9 10  2  0
 10 11  1  0
 11 12  2  0
 11 13  1  0
 13 14  1  0
 14 15  1  0
 15 16  1  1
  6 17  1  0
 17 18  1  0
 18 19  1  0
 19 20  1  0
 20 21  1  0
 20 22  1  6
 22 23  3  0
 17  2  1  0
 20  2  1  0
 15  5  1  0
 15  9  1  0
  1 24  1  0
  1 25  1  0
  1 26  1  0
  3 27  1  0
  3 28  1  0
  4 29  1  0
  4 30  1  0
  5 31  1  6
  6 32  1  1
  7 33  1  0
  7 34  1  0
  8 35  1  0
  8 36  1  0
 10 37  1  0
 13 38  1  0
 13 39  1  0
 14 40  1  0
 14 41  1  0
 16 42  1  0
 16 43  1  0
 16 44  1  0
 17 45  1  6
 18 46  1  0
 18 47  1  0
 19 48  1  0
 19 49  1  0
 21 50  1  0
 23 51  1  0
M  END
$$$$
[H]Oc1c([H])c2c(c([H])c1O[H])[C@@]1([H])C([H])([H])C([H])([H])[C@]3(C([H])([H])[H])[C@@]([H])(O[H])C([H])([H])C([H])([H])[C@@]3([H])[C@]1([H])C([H])([H])C2([H])[H]
     RDKit          3D

 45 48  0  0  0  0  0  0  0  0999 V2000
   -2.5350    0.5564   -1.4531 C   0  0  0  0  0  0  0  0  0  0  0  0
   -2.1656    0.7319    0.0135 C   0  0  2  0  0  0  0  0  0  0  0  0
   -1.2541    1.8627    0.2342 C   0  0  0  0  0  0  0  0  0  0  0  0
    0.1026    1.5919    0.7338 C   0  0  0  0  0  0  0  0  0  0  0  0
    0.6157    0.2099    0.7118 C   0  0  1  0  0  0  0  0  0  0  0  0
   -0.3028   -0.7809   -0.0289 C   0  0  1  0  0  0  0  0  0  0  0  0
    0.3216   -2.1276    0.1353 C   0  0  0  0  0  0  0  0  0  0  0  0
    1.5137   -2.1615   -0.8330 C   0  0  0  0  0  0  0  0  0  0  0  0
    2.4331   -1.0316   -0.4806 C   0  0  0  0  0  0  0  0  0  0  0  0
    3.7347   -1.0994   -0.8880 C   0  0  0  0  0  0  0  0  0  0  0  0
    4.6475   -0.1049   -0.6071 C   0  0  0  0  0  0  0  0  0  0  0  0
    5.9728   -0.1852   -1.0280 O   0  0  0  0  0  0  0  0  0  0  0  0
    4.2415    0.9988    0.1087 C   0  0  0  0  0  0  0  0  0  0  0  0
    5.1485    1.9896    0.3894 O   0  0  0  0  0  0  0  0  0  0  0  0
    2.9099    1.0528    0.5172 C   0  0  0  0  0  0  0  0  0  0  0  0
    2.0040    0.0608    0.2356 C   0  0  0  0  0  0  0  0  0  0  0  0
   -1.6118   -0.5815    0.5839 C   0  0  2  0  0  0  0  0  0  0  0  0
   -2.7054   -1.5061    0.3107 C   0  0  0  0  0  0  0  0  0  0  0  0
   -3.9520   -0.6764    0.5750 C   0  0  0  0  0  0  0  0  0  0  0  0
   -3.4641    0.7667    0.7685 C   0  0  2  0  0  0  0  0  0  0  0  0
   -4.3747    1.6574    0.2242 O   0  0  0  0  0  0  0  0  0  0  0  0
   -3.0790    1.5081   -1.7247 H   0  0  0  0  0  0  0  0  0  0  0  0
   -3.2696   -0.2464   -1.5885 H   0  0  0  0  0  0  0  0  0  0  0  0
   -1.6781    0.4986   -2.1153 H   0  0  0  0  0  0  0  0  0  0  0  0
   -1.1883    2.4335   -0.7424 H   0  0  0  0  0  0  0  0  0  0  0  0
   -1.7952    2.6024    0.8999 H   0  0  0  0  0  0  0  0  0  0  0  0
    0.8508    2.2288    0.1699 H   0  0  0  0  0  0  0  0  0  0  0  0
    0.1824    2.0118    1.7831 H   0  0  0  0  0  0  0  0  0  0  0  0
    0.6173   -0.1942    1.7695 H   0  0  0  0  0  0  0  0  0  0  0  0
   -0.2215   -0.4973   -1.0946 H   0  0  0  0  0  0  0  0  0  0  0  0
   -0.3493   -2.9629   -0.1449 H   0  0  0  0  0  0  0  0  0  0  0  0
    0.7783   -2.2668    1.1482 H   0  0  0  0  0  0  0  0  0  0  0  0
    1.0903   -1.9048   -1.8261 H   0  0  0  0  0  0  0  0  0  0  0  0
    2.0184   -3.1256   -0.8078 H   0  0  0  0  0  0  0  0  0  0  0  0
    4.0568   -1.9833   -1.4604 H   0  0  0  0  0  0  0  0  0  0  0  0
    6.2503   -1.0029   -1.5517 H   0  0  0  0  0  0  0  0  0  0  0  0
    4.9670    2.8269    0.8964 H   0  0  0  0  0  0  0  0  0  0  0  0
    2.6536    1.9581    1.0827 H   0  0  0  0  0  0  0  0  0  0  0  0
   -1.5249   -0.4065    1.6775 H   0  0  0  0  0  0  0  0  0  0  0  0
   -2.7130   -1.9846   -0.6805 H   0  0  0  0  0  0  0  0  0  0  0  0
   -2.6561   -2.3594    1.0488 H   0  0  0  0  0  0  0  0  0  0  0  0
   -4.4076   -1.0052    1.5321 H   0  0  0  0  0  0  0  0  0  0  0  0
   -4.7008   -0.7561   -0.2117 H   0  0  0  0  0  0  0  0  0  0  0  0
   -3.2587    0.9463    1.8326 H   0  0  0  0  0  0  0  0  0  0  0  0
   -3.9033    2.4576   -0.1150 H   0  0  0  0  0  0  0  0  0  0  0  0
  2  1  1  6
  2  3  1  0
  3  4  1  0
  4  5  1  0
  5  6  1  0
  6  7  1  0
  7  8  1  0
  8  9  1  0
  9 10  2  0
 10 11  1  0
 11 12  1  0
 11 13  2  0
 13 14  1  0
 13 15  1  0
 15 16  2  0
  6 17  1  0
 17 18  1  0
 18 19  1  0
 19 20  1  0
 20 21  1  0
 17  2  1  0
 20  2  1  0
 16  5  1  0
 16  9  1  0
  1 22  1  0
  1 23  1  0
  1 24  1  0
  3 25  1  0
  3 26  1  0
  4 27  1  0
  4 28  1  0
  5 29  1  1
  6 30  1  6
  7 31  1  0
  7 32  1  0
  8 33  1  0
  8 34  1  0
 10 35  1  0
 12 36  1  0
 14 37  1  0
 15 38  1  0
 17 39  1  1
 18 40  1  0
 18 41  1  0
 19 42  1  0
 19 43  1  0
 20 44  1  1
 21 45  1  0
M  END
$$$$
[H]C#C[C@]1(O[H])C([H])([H])C([H])([H])[C@]2([H])[C@]1(C([H])([H])[H])C([H])([H])C([H])([H])[C@]1([H])c3c([H])c([H])c(O[H])c([H])c3C([H])([H])C([H])([H])[C@]12[H]
     RDKit          3D

 46 49  0  0  0  0  0  0  0  0999 V2000
    1.7068    0.6022   -1.6366 C   0  0  0  0  0  0  0  0  0  0  0  0
    1.9001   -0.2982   -0.4656 C   0  0  2  0  0  0  0  0  0  0  0  0
    1.2587   -1.6298   -0.6581 C   0  0  0  0  0  0  0  0  0  0  0  0
   -0.2243   -1.4684   -0.7962 C   0  0  0  0  0  0  0  0  0  0  0  0
   -0.8554   -0.6372    0.2739 C   0  0  1  0  0  0  0  0  0  0  0  0
   -0.0932    0.6670    0.5139 C   0  0  1  0  0  0  0  0  0  0  0  0
   -0.7573    1.4815    1.5610 C   0  0  0  0  0  0  0  0  0  0  0  0
   -2.2222    1.3213    1.7156 C   0  0  0  0  0  0  0  0  0  0  0  0
   -2.9114    0.6127    0.6328 C   0  0  0  0  0  0  0  0  0  0  0  0
   -4.2168    0.9181    0.3399 C   0  0  0  0  0  0  0  0  0  0  0  0
   -4.8958    0.2518   -0.6904 C   0  0  0  0  0  0  0  0  0  0  0  0
   -6.2135    0.5312   -1.0168 O   0  0  0  0  0  0  0  0  0  0  0  0
   -4.2353   -0.7270   -1.4190 C   0  0  0  0  0  0  0  0  0  0  0  0
   -2.9235   -1.0285   -1.1189 C   0  0  0  0  0  0  0  0  0  0  0  0
   -2.2600   -0.3537   -0.0871 C   0  0  0  0  0  0  0  0  0  0  0  0
    1.3047    0.2708    0.8234 C   0  0  2  0  0  0  0  0  0  0  0  0
    2.2408    1.3570    1.1658 C   0  0  0  0  0  0  0  0  0  0  0  0
    3.5922    0.6847    0.9600 C   0  0  0  0  0  0  0  0  0  0  0  0
    3.3584   -0.3611   -0.1105 C   0  0  2  0  0  0  0  0  0  0  0  0
    4.1282    0.0365   -1.2275 O   0  0  0  0  0  0  0  0  0  0  0  0
    3.7922   -1.6813    0.2744 C   0  0  0  0  0  0  0  0  0  0  0  0
    4.1565   -2.7808    0.5998 C   0  0  0  0  0  0  0  0  0  0  0  0
    1.8831    1.6629   -1.4324 H   0  0  0  0  0  0  0  0  0  0  0  0
    2.4789    0.3088   -2.4067 H   0  0  0  0  0  0  0  0  0  0  0  0
    0.7381    0.5066   -2.1459 H   0  0  0  0  0  0  0  0  0  0  0  0
    1.6383   -2.1092   -1.5700 H   0  0  0  0  0  0  0  0  0  0  0  0
    1.4458   -2.2423    0.2553 H   0  0  0  0  0  0  0  0  0  0  0  0
   -0.6751   -2.4817   -0.7436 H   0  0  0  0  0  0  0  0  0  0  0  0
   -0.5198   -1.0585   -1.7918 H   0  0  0  0  0  0  0  0  0  0  0  0
   -0.8292   -1.2283    1.2163 H   0  0  0  0  0  0  0  0  0  0  0  0
   -0.1340    1.2447   -0.4560 H   0  0  0  0  0  0  0  0  0  0  0  0
   -0.5264    2.5615    1.3310 H   0  0  0  0  0  0  0  0  0  0  0  0
   -0.2356    1.2869    2.5415 H   0  0  0  0  0  0  0  0  0  0  0  0
   -2.6954    2.3205    1.8761 H   0  0  0  0  0  0  0  0  0  0  0  0
   -2.4169    0.7749    2.6852 H   0  0  0  0  0  0  0  0  0  0  0  0
   -4.7959    1.6737    0.8697 H   0  0  0  0  0  0  0  0  0  0  0  0
   -7.0137    0.0853   -0.6242 H   0  0  0  0  0  0  0  0  0  0  0  0
   -4.7726   -1.2396   -2.2186 H   0  0  0  0  0  0  0  0  0  0  0  0
   -2.4235   -1.7786   -1.6800 H   0  0  0  0  0  0  0  0  0  0  0  0
    1.3081   -0.5277    1.5841 H   0  0  0  0  0  0  0  0  0  0  0  0
    2.1537    2.2272    0.5083 H   0  0  0  0  0  0  0  0  0  0  0  0
    2.1429    1.6990    2.2278 H   0  0  0  0  0  0  0  0  0  0  0  0
    3.9077    0.1971    1.9114 H   0  0  0  0  0  0  0  0  0  0  0  0
    4.3696    1.4220    0.6746 H   0  0  0  0  0  0  0  0  0  0  0  0
    4.8482    0.6699   -0.9591 H   0  0  0  0  0  0  0  0  0  0  0  0
    4.4940   -3.7438    0.8821 H   0  0  0  0  0  0  0  0  0  0  0  0
  2  1  1  6
  2  3  1  0
  3  4  1  0
  4  5  1  0
  5  6  1  0
  6  7  1  0
  7  8  1  0
  8  9  1  0
  9 10  2  0
 10 11  1  0
 11 12  1  0
 11 13  2  0
 13 14  1  0
 14 15  2  0
  6 16  1  0
 16 17  1  0
 17 18  1  0
 18 19  1  0
 19 20  1  0
 19 21  1  1
 21 22  3  0
 16  2  1  0
 19  2  1  0
 15  5  1  0
 15  9  1  0
  1 23  1  0
  1 24  1  0
  1 25  1  0
  3 26  1  0
  3 27  1  0
  4 28  1  0
  4 29  1  0
  5 30  1  1
  6 31  1  6
  7 32  1  0
  7 33  1  0
  8 34  1  0
  8 35  1  0
 10 36  1  0
 12 37  1  0
 13 38  1  0
 14 39  1  0
 16 40  1  1
 17 41  1  0
 17 42  1  0
 18 43  1  0
 18 44  1  0
 20 45  1  0
 22 46  1  0
M  END
$$$$
[H]OC(=O)[C@@]1([H])C([H])([H])C([H])([H])[C@@]2([H])[C@]3([H])C([H])([H])C([H])([H])c4c([H])c(O[H])c([H])c([H])c4[C@@]3([H])C([H])([H])C([H])([H])[C@]12C([H])([H])[H]
     RDKit          3D

 46 49  0  0  0  0  0  0  0  0999 V2000
    1.7860    1.7362   -0.0914 C   0  0  0  0  0  0  0  0  0  0  0  0
    1.8979    0.2616   -0.3825 C   0  0  2  0  0  0  0  0  0  0  0  0
    1.2909   -0.1205   -1.6804 C   0  0  0  0  0  0  0  0  0  0  0  0
   -0.1952    0.2362   -1.6158 C   0  0  0  0  0  0  0  0  0  0  0  0
   -0.8469   -0.5731   -0.5321 C   0  0  1  0  0  0  0  0  0  0  0  0
   -0.2185   -0.2942    0.8347 C   0  0  1  0  0  0  0  0  0  0  0  0
   -0.8279   -1.2498    1.8122 C   0  0  0  0  0  0  0  0  0  0  0  0
   -2.1842   -1.7471    1.4368 C   0  0  0  0  0  0  0  0  0  0  0  0
   -2.9721   -0.7776    0.6311 C   0  0  0  0  0  0  0  0  0  0  0  0
   -4.2872   -0.4794    0.8482 C   0  0  0  0  0  0  0  0  0  0  0  0
   -4.8869    0.4502    0.0076 C   0  0  0  0  0  0  0  0  0  0  0  0
   -6.2319    0.7213    0.2698 O   0  0  0  0  0  0  0  0  0  0  0  0
   -4.1954    1.0668   -1.0223 C   0  0  0  0  0  0  0  0  0  0  0  0
   -2.8661    0.7580   -1.2330 C   0  0  0  0  0  0  0  0  0  0  0  0
   -2.2768   -0.1551   -0.4074 C   0  0  0  0  0  0  0  0  0  0  0  0
    1.2320   -0.5705    0.7111 C   0  0  2  0  0  0  0  0  0  0  0  0
    2.0679   -0.2300    1.8892 C   0  0  0  0  0  0  0  0  0  0  0  0
    3.4779   -0.1198    1.3098 C   0  0  0  0  0  0  0  0  0  0  0  0
    3.3214   -0.1479   -0.1933 C   0  0  2  0  0  0  0  0  0  0  0  0
    4.2942    0.7252   -0.8727 C   0  0  0  0  0  0  0  0  0  0  0  0
    4.2008    0.8452   -2.2497 O   0  0  0  0  0  0  0  0  0  0  0  0
    5.1984    1.3655   -0.2926 O   0  0  0  0  0  0  0  0  0  0  0  0
    2.3472    1.9179    0.8600 H   0  0  0  0  0  0  0  0  0  0  0  0
    2.3174    2.2698   -0.8961 H   0  0  0  0  0  0  0  0  0  0  0  0
    0.7652    2.0993    0.0167 H   0  0  0  0  0  0  0  0  0  0  0  0
    1.3638   -1.1946   -1.8407 H   0  0  0  0  0  0  0  0  0  0  0  0
    1.7118    0.4686   -2.5282 H   0  0  0  0  0  0  0  0  0  0  0  0
   -0.6241   -0.1014   -2.5789 H   0  0  0  0  0  0  0  0  0  0  0  0
   -0.3182    1.3132   -1.5226 H   0  0  0  0  0  0  0  0  0  0  0  0
   -0.7268   -1.6348   -0.7551 H   0  0  0  0  0  0  0  0  0  0  0  0
   -0.4557    0.7328    1.1765 H   0  0  0  0  0  0  0  0  0  0  0  0
   -0.1579   -2.1511    1.9308 H   0  0  0  0  0  0  0  0  0  0  0  0
   -0.9003   -0.8221    2.8423 H   0  0  0  0  0  0  0  0  0  0  0  0
   -2.0566   -2.6626    0.7917 H   0  0  0  0  0  0  0  0  0  0  0  0
   -2.7379   -2.0904    2.3261 H   0  0  0  0  0  0  0  0  0  0  0  0
   -4.8086   -0.9695    1.6546 H   0  0  0  0  0  0  0  0  0  0  0  0
   -6.7928    1.3596   -0.2427 H   0  0  0  0  0  0  0  0  0  0  0  0
   -4.6943    1.7832   -1.6542 H   0  0  0  0  0  0  0  0  0  0  0  0
   -2.2935    1.2131   -2.0202 H   0  0  0  0  0  0  0  0  0  0  0  0
    1.3791   -1.6234    0.4417 H   0  0  0  0  0  0  0  0  0  0  0  0
    2.0043   -1.0508    2.6326 H   0  0  0  0  0  0  0  0  0  0  0  0
    1.7697    0.7007    2.4082 H   0  0  0  0  0  0  0  0  0  0  0  0
    4.0522   -0.9994    1.6839 H   0  0  0  0  0  0  0  0  0  0  0  0
    3.9812    0.8011    1.6484 H   0  0  0  0  0  0  0  0  0  0  0  0
    3.4579   -1.2206   -0.5128 H   0  0  0  0  0  0  0  0  0  0  0  0
    4.6385    0.1602   -2.8701 H   0  0  0  0  0  0  0  0  0  0  0  0
  2  1  1  1
  2  3  1  0
  3  4  1  0
  4  5  1  0
  5  6  1  0
  6  7  1  0
  7  8  1  0
  8  9  1  0
  9 10  2  0
 10 11  1  0
 11 12  1  0
 11 13  2  0
 13 14  1  0
 14 15  2  0
  6 16  1  0
 16 17  1  0
 17 18  1  0
 18 19  1  0
 19 20  1  0
 20 21  1  0
 20 22  2  0
 16  2  1  0
 19  2  1  0
 15  5  1  0
 15  9  1  0
  1 23  1  0
  1 24  1  0
  1 25  1  0
  3 26  1  0
  3 27  1  0
  4 28  1  0
  4 29  1  0
  5 30  1  6
  6 31  1  1
  7 32  1  0
  7 33  1  0
  8 34  1  0
  8 35  1  0
 10 36  1  0
 12 37  1  0
 13 38  1  0
 14 39  1  0
 16 40  1  6
 17 41  1  0
 17 42  1  0
 18 43  1  0
 18 44  1  0
 19 45  1  6
 21 46  1  0
M  END
$$$$
[H]Oc1c([H])c([H])c2c(c1[H])C([H])([H])C([H])([H])[C@]1([H])[C@]2([H])C([H])([H])C([H])([H])[C@@]2(C([H])([H])[H])[C@@]1([H])C([H])([H])C([H])([H])[C@@]2([H])O[H]
     RDKit          3D

 44 47  0  0  0  0  0  0  0  0999 V2000
   -2.1680   -0.7489    1.5854 C   0  0  0  0  0  0  0  0  0  0  0  0
   -2.2077   -0.4556    0.1157 C   0  0  2  0  0  0  0  0  0  0  0  0
   -1.5957   -1.5685   -0.6500 C   0  0  0  0  0  0  0  0  0  0  0  0
   -0.1183   -1.6274   -0.6296 C   0  0  0  0  0  0  0  0  0  0  0  0
    0.5834   -0.3170   -0.6282 C   0  0  1  0  0  0  0  0  0  0  0  0
   -0.0925    0.7034    0.3010 C   0  0  1  0  0  0  0  0  0  0  0  0
    0.7281    1.9445    0.3187 C   0  0  0  0  0  0  0  0  0  0  0  0
    2.0148    1.6264    1.0624 C   0  0  0  0  0  0  0  0  0  0  0  0
    2.7082    0.4581    0.4245 C   0  0  0  0  0  0  0  0  0  0  0  0
    4.0508    0.2830    0.6307 C   0  0  0  0  0  0  0  0  0  0  0  0
    4.7617   -0.7586    0.0845 C   0  0  0  0  0  0  0  0  0  0  0  0
    6.1274   -0.9406    0.2915 O   0  0  0  0  0  0  0  0  0  0  0  0
    4.0810   -1.6565   -0.7012 C   0  0  0  0  0  0  0  0  0  0  0  0
    2.7094   -1.4827   -0.9153 C   0  0  0  0  0  0  0  0  0  0  0  0
    2.0105   -0.4338   -0.3613 C   0  0  0  0  0  0  0  0  0  0  0  0
   -1.4634    0.8367   -0.2321 C   0  0  2  0  0  0  0  0  0  0  0  0
   -2.3247    1.8709    0.3562 C   0  0  0  0  0  0  0  0  0  0  0  0
   -3.7310    1.4021   -0.0218 C   0  0  0  0  0  0  0  0  0  0  0  0
   -3.5978   -0.0999   -0.2796 C   0  0  1  0  0  0  0  0  0  0  0  0
   -3.7348   -0.3675   -1.6499 O   0  0  0  0  0  0  0  0  0  0  0  0
   -1.5326   -1.6486    1.8156 H   0  0  0  0  0  0  0  0  0  0  0  0
   -3.2050   -1.0596    1.9077 H   0  0  0  0  0  0  0  0  0  0  0  0
   -1.8915    0.0931    2.2172 H   0  0  0  0  0  0  0  0  0  0  0  0
   -1.9991   -1.5664   -1.7019 H   0  0  0  0  0  0  0  0  0  0  0  0
   -1.9872   -2.5349   -0.2174 H   0  0  0  0  0  0  0  0  0  0  0  0
    0.2904   -2.2561    0.2133 H   0  0  0  0  0  0  0  0  0  0  0  0
    0.2106   -2.1749   -1.5620 H   0  0  0  0  0  0  0  0  0  0  0  0
    0.4686    0.1347   -1.6573 H   0  0  0  0  0  0  0  0  0  0  0  0
   -0.0643    0.2617    1.3258 H   0  0  0  0  0  0  0  0  0  0  0  0
    0.9143    2.3845   -0.6650 H   0  0  0  0  0  0  0  0  0  0  0  0
    0.1919    2.6990    0.9569 H   0  0  0  0  0  0  0  0  0  0  0  0
    1.7108    1.2840    2.0764 H   0  0  0  0  0  0  0  0  0  0  0  0
    2.6885    2.5024    1.1226 H   0  0  0  0  0  0  0  0  0  0  0  0
    4.6012    0.9859    1.2500 H   0  0  0  0  0  0  0  0  0  0  0  0
    6.6980   -0.3437    0.8426 H   0  0  0  0  0  0  0  0  0  0  0  0
    4.6182   -2.4821   -1.1404 H   0  0  0  0  0  0  0  0  0  0  0  0
    2.2482   -2.2410   -1.5513 H   0  0  0  0  0  0  0  0  0  0  0  0
   -1.4434    0.9099   -1.3285 H   0  0  0  0  0  0  0  0  0  0  0  0
   -2.2189    1.9899    1.4444 H   0  0  0  0  0  0  0  0  0  0  0  0
   -2.0994    2.8527   -0.1341 H   0  0  0  0  0  0  0  0  0  0  0  0
   -4.0542    1.8763   -0.9725 H   0  0  0  0  0  0  0  0  0  0  0  0
   -4.4515    1.6032    0.7982 H   0  0  0  0  0  0  0  0  0  0  0  0
   -4.3461   -0.6660    0.3177 H   0  0  0  0  0  0  0  0  0  0  0  0
   -4.0892   -1.2716   -1.8228 H   0  0  0  0  0  0  0  0  0  0  0  0
  2  1  1  1
  2  3  1  0
  3  4  1  0
  4  5  1  0
  5  6  1  0
  6  7  1  0
  7  8  1  0
  8  9  1  0
  9 10  2  0
 10 11  1  0
 11 12  1  0
 11 13  2  0
 13 14  1  0
 14 15  2  0
  6 16  1  0
 16 17  1  0
 17 18  1  0
 18 19  1  0
 19 20  1  0
 16  2  1  0
 19  2  1  0
 15  5  1  0
 15  9  1  0
  1 21  1  0
  1 22  1  0
  1 23  1  0
  3 24  1  0
  3 25  1  0
  4 26  1  0
  4 27  1  0
  5 28  1  6
  6 29  1  1
  7 30  1  0
  7 31  1  0
  8 32  1  0
  8 33  1  0
 10 34  1  0
 12 35  1  0
 13 36  1  0
 14 37  1  0
 16 38  1  6
 17 39  1  0
 17 40  1  0
 18 41  1  0
 18 42  1  0
 19 43  1  1
 20 44  1  0
M  END
$$$$
[H]Oc1c([H])c([H])c2c(c1[H])C([H])([H])C([H])([H])[C@]1([H])[C@]2([H])C([H])([H])C([H])([H])[C@]2(C([H])([H])[H])C(=O)C([H])([H])C([H])([H])[C@]21[H]
     RDKit          3D

 42 45  0  0  0  0  0  0  0  0999 V2000
   -2.3836   -1.3778    0.8257 C   0  0  0  0  0  0  0  0  0  0  0  0
   -2.3951   -0.3698   -0.2852 C   0  0  2  0  0  0  0  0  0  0  0  0
   -1.7598   -0.9004   -1.5153 C   0  0  0  0  0  0  0  0  0  0  0  0
   -0.3170   -1.2045   -1.2834 C   0  0  0  0  0  0  0  0  0  0  0  0
    0.4177   -0.0069   -0.7638 C   0  0  1  0  0  0  0  0  0  0  0  0
   -0.2761    0.5001    0.5086 C   0  0  1  0  0  0  0  0  0  0  0  0
    0.5549    1.5641    1.1385 C   0  0  0  0  0  0  0  0  0  0  0  0
    1.7980    0.8874    1.7105 C   0  0  0  0  0  0  0  0  0  0  0  0
    2.4881    0.1807    0.6011 C   0  0  0  0  0  0  0  0  0  0  0  0
    3.8402   -0.0585    0.7570 C   0  0  0  0  0  0  0  0  0  0  0  0
    4.5868   -0.7091   -0.2117 C   0  0  0  0  0  0  0  0  0  0  0  0
    5.9465   -0.9509   -0.0576 O   0  0  0  0  0  0  0  0  0  0  0  0
    3.9471   -1.1249   -1.3612 C   0  0  0  0  0  0  0  0  0  0  0  0
    2.5817   -0.8803   -1.5123 C   0  0  0  0  0  0  0  0  0  0  0  0
    1.8436   -0.2328   -0.5460 C   0  0  0  0  0  0  0  0  0  0  0  0
   -1.6400    0.9102    0.1012 C   0  0  2  0  0  0  0  0  0  0  0  0
   -2.5077    1.4699    1.1580 C   0  0  0  0  0  0  0  0  0  0  0  0
   -3.9136    1.1834    0.6475 C   0  0  0  0  0  0  0  0  0  0  0  0
   -3.7498    0.1559   -0.4387 C   0  0  0  0  0  0  0  0  0  0  0  0
   -4.6384   -0.0938   -1.2208 O   0  0  0  0  0  0  0  0  0  0  0  0
   -3.3914   -1.8879    0.8200 H   0  0  0  0  0  0  0  0  0  0  0  0
   -1.6472   -2.1791    0.7081 H   0  0  0  0  0  0  0  0  0  0  0  0
   -2.2742   -0.9449    1.8221 H   0  0  0  0  0  0  0  0  0  0  0  0
   -2.2635   -1.8816   -1.7581 H   0  0  0  0  0  0  0  0  0  0  0  0
   -1.8882   -0.2573   -2.3877 H   0  0  0  0  0  0  0  0  0  0  0  0
    0.1290   -1.4583   -2.2896 H   0  0  0  0  0  0  0  0  0  0  0  0
   -0.1406   -2.1118   -0.6652 H   0  0  0  0  0  0  0  0  0  0  0  0
    0.2900    0.8123   -1.5159 H   0  0  0  0  0  0  0  0  0  0  0  0
   -0.3503   -0.3647    1.1951 H   0  0  0  0  0  0  0  0  0  0  0  0
    0.8623    2.3405    0.4054 H   0  0  0  0  0  0  0  0  0  0  0  0
    0.0062    2.0374    1.9702 H   0  0  0  0  0  0  0  0  0  0  0  0
    2.4773    1.6117    2.1919 H   0  0  0  0  0  0  0  0  0  0  0  0
    1.4380    0.0989    2.4174 H   0  0  0  0  0  0  0  0  0  0  0  0
    4.3787    0.2541    1.6485 H   0  0  0  0  0  0  0  0  0  0  0  0
    6.5810   -0.2178   -0.4065 H   0  0  0  0  0  0  0  0  0  0  0  0
    4.5311   -1.6331   -2.1172 H   0  0  0  0  0  0  0  0  0  0  0  0
    2.1491   -1.2339   -2.4373 H   0  0  0  0  0  0  0  0  0  0  0  0
   -1.6750    1.5692   -0.7863 H   0  0  0  0  0  0  0  0  0  0  0  0
   -2.3459    1.0738    2.1671 H   0  0  0  0  0  0  0  0  0  0  0  0
   -2.3932    2.5875    1.2018 H   0  0  0  0  0  0  0  0  0  0  0  0
   -4.5388    0.7605    1.4490 H   0  0  0  0  0  0  0  0  0  0  0  0
   -4.3579    2.0825    0.1732 H   0  0  0  0  0  0  0  0  0  0  0  0
  2  1  1  1
  2  3  1  0
  3  4  1  0
  4  5  1  0
  5  6  1  0
  6  7  1  0
  7  8  1  0
  8  9  1  0
  9 10  2  0
 10 11  1  0
 11 12  1  0
 11 13  2  0
 13 14  1  0
 14 15  2  0
  6 16  1  0
 16 17  1  0
 17 18  1  0
 18 19  1  0
 19 20  2  0
 16  2  1  0
 19  2  1  0
 15  5  1  0
 15  9  1  0
  1 21  1  0
  1 22  1  0
  1 23  1  0
  3 24  1  0
  3 25  1  0
  4 26  1  0
  4 27  1  0
  5 28  1  6
  6 29  1  1
  7 30  1  0
  7 31  1  0
  8 32  1  0
  8 33  1  0
 10 34  1  0
 12 35  1  0
 13 36  1  0
 14 37  1  0
 16 38  1  6
 17 39  1  0
 17 40  1  0
 18 41  1  0
 18 42  1  0
M  END
$$$$
[H]Oc1c([H])c([H])c(C2=C(c3c([H])c([H])c([H])c([H])c3[H])c3c([H])c([H])c([H])c([H])c3C2=O)c([H])c1[H]
     RDKit          3D

 37 40  0  0  0  0  0  0  0  0999 V2000
    5.5210   -2.2198    0.2309 O   0  0  0  0  0  0  0  0  0  0  0  0
    4.3180   -1.5658    0.0093 C   0  0  0  0  0  0  0  0  0  0  0  0
    3.2665   -2.2361   -0.5608 C   0  0  0  0  0  0  0  0  0  0  0  0
    2.0655   -1.5695   -0.7779 C   0  0  0  0  0  0  0  0  0  0  0  0
    1.8612   -0.2727   -0.4547 C   0  0  0  0  0  0  0  0  0  0  0  0
    2.9414    0.4101    0.1284 C   0  0  0  0  0  0  0  0  0  0  0  0
    4.1348   -0.2286    0.3507 C   0  0  0  0  0  0  0  0  0  0  0  0
    0.6188    0.4526   -0.6263 C   0  0  0  0  0  0  0  0  0  0  0  0
   -0.5970    0.2962   -0.1718 C   0  0  0  0  0  0  0  0  0  0  0  0
   -1.1512   -0.7217    0.7158 C   0  0  0  0  0  0  0  0  0  0  0  0
   -1.6941   -0.2033    1.9158 C   0  0  0  0  0  0  0  0  0  0  0  0
   -2.2821   -1.0554    2.7996 C   0  0  0  0  0  0  0  0  0  0  0  0
   -2.3546   -2.4059    2.5419 C   0  0  0  0  0  0  0  0  0  0  0  0
   -1.8351   -2.9102    1.3898 C   0  0  0  0  0  0  0  0  0  0  0  0
   -1.2302   -2.0585    0.4721 C   0  0  0  0  0  0  0  0  0  0  0  0
   -1.4877    1.3739   -0.6960 C   0  0  0  0  0  0  0  0  0  0  0  0
   -2.8281    1.6656   -0.5285 C   0  0  0  0  0  0  0  0  0  0  0  0
   -3.4351    2.7375   -1.1282 C   0  0  0  0  0  0  0  0  0  0  0  0
   -2.7095    3.5760   -1.9351 C   0  0  0  0  0  0  0  0  0  0  0  0
   -1.3723    3.3075   -2.1183 C   0  0  0  0  0  0  0  0  0  0  0  0
   -0.7696    2.2190   -1.5055 C   0  0  0  0  0  0  0  0  0  0  0  0
    0.5748    1.6787   -1.4953 C   0  0  0  0  0  0  0  0  0  0  0  0
    1.5396    2.1573   -2.1108 O   0  0  0  0  0  0  0  0  0  0  0  0
    6.3220   -1.7881    0.6413 H   0  0  0  0  0  0  0  0  0  0  0  0
    3.3601   -3.2812   -0.8449 H   0  0  0  0  0  0  0  0  0  0  0  0
    1.2852   -2.1378   -1.2556 H   0  0  0  0  0  0  0  0  0  0  0  0
    2.8287    1.4357    0.3998 H   0  0  0  0  0  0  0  0  0  0  0  0
    4.9611    0.2980    0.7980 H   0  0  0  0  0  0  0  0  0  0  0  0
   -1.6526    0.8462    2.1450 H   0  0  0  0  0  0  0  0  0  0  0  0
   -2.7121   -0.6770    3.7407 H   0  0  0  0  0  0  0  0  0  0  0  0
   -2.8171   -3.0831    3.2359 H   0  0  0  0  0  0  0  0  0  0  0  0
   -1.8862   -3.9513    1.1818 H   0  0  0  0  0  0  0  0  0  0  0  0
   -0.8460   -2.4600   -0.4455 H   0  0  0  0  0  0  0  0  0  0  0  0
   -3.4429    1.0173    0.1106 H   0  0  0  0  0  0  0  0  0  0  0  0
   -4.4965    2.9611   -0.9902 H   0  0  0  0  0  0  0  0  0  0  0  0
   -3.1935    4.4259   -2.4098 H   0  0  0  0  0  0  0  0  0  0  0  0
   -0.8051    3.9673   -2.7522 H   0  0  0  0  0  0  0  0  0  0  0  0
  1  2  1  0
  2  3  2  0
  3  4  1  0
  4  5  2  0
  5  6  1  0
  6  7  2  0
  5  8  1  0
  8  9  2  0
  9 10  1  0
 10 11  2  0
 11 12  1  0
 12 13  2  0
 13 14  1  0
 14 15  2  0
  9 16  1  0
 16 17  2  0
 17 18  1  0
 18 19  2  0
 19 20  1  0
 20 21  2  0
 21 22  1  0
 22 23  2  0
  7  2  1  0
 22  8  1  0
 15 10  1  0
 21 16  1  0
  1 24  1  0
  3 25  1  0
  4 26  1  0
  6 27  1  0
  7 28  1  0
 11 29  1  0
 12 30  1  0
 13 31  1  0
 14 32  1  0
 15 33  1  0
 17 34  1  0
 18 35  1  0
 19 36  1  0
 20 37  1  0
M  END
$$$$
[H]Oc1c([H])c([H])c(C2=C(c3c([H])c([H])c([H])c([H])c3[H])c3c([H])c([H])c([H])c([H])c3C2=O)c([H])c1[H]
     RDKit          3D

 37 40  0  0  0  0  0  0  0  0999 V2000
    5.4889   -1.8927   -0.6158 O   0  0  0  0  0  0  0  0  0  0  0  0
    4.2625   -1.2535   -0.5364 C   0  0  0  0  0  0  0  0  0  0  0  0
    3.1415   -1.7025   -1.1755 C   0  0  0  0  0  0  0  0  0  0  0  0
    1.9395   -1.0113   -1.0536 C   0  0  0  0  0  0  0  0  0  0  0  0
    1.8308    0.1331   -0.2974 C   0  0  0  0  0  0  0  0  0  0  0  0
    2.9788    0.5668    0.3390 C   0  0  0  0  0  0  0  0  0  0  0  0
    4.1838   -0.1059    0.2308 C   0  0  0  0  0  0  0  0  0  0  0  0
    0.6063    0.8645   -0.1501 C   0  0  0  0  0  0  0  0  0  0  0  0
   -0.6287    0.4318    0.0238 C   0  0  0  0  0  0  0  0  0  0  0  0
   -1.5657    1.5651    0.1201 C   0  0  0  0  0  0  0  0  0  0  0  0
   -2.9296    1.6794    0.2989 C   0  0  0  0  0  0  0  0  0  0  0  0
   -3.5372    2.9162    0.3499 C   0  0  0  0  0  0  0  0  0  0  0  0
   -2.8074    4.0787    0.2243 C   0  0  0  0  0  0  0  0  0  0  0  0
   -1.4453    3.9836    0.0452 C   0  0  0  0  0  0  0  0  0  0  0  0
   -0.8457    2.7284   -0.0040 C   0  0  0  0  0  0  0  0  0  0  0  0
    0.5385    2.3318   -0.1775 C   0  0  0  0  0  0  0  0  0  0  0  0
    1.4723    3.1621   -0.3213 O   0  0  0  0  0  0  0  0  0  0  0  0
   -1.1099   -0.9436    0.1526 C   0  0  0  0  0  0  0  0  0  0  0  0
   -2.2327   -1.3729   -0.5665 C   0  0  0  0  0  0  0  0  0  0  0  0
   -2.7107   -2.6535   -0.4382 C   0  0  0  0  0  0  0  0  0  0  0  0
   -2.1058   -3.5445    0.3920 C   0  0  0  0  0  0  0  0  0  0  0  0
   -0.9904   -3.1730    1.1278 C   0  0  0  0  0  0  0  0  0  0  0  0
   -0.5431   -1.8835    0.9727 C   0  0  0  0  0  0  0  0  0  0  0  0
    5.7855   -2.6137    0.0277 H   0  0  0  0  0  0  0  0  0  0  0  0
    3.2369   -2.5988   -1.7640 H   0  0  0  0  0  0  0  0  0  0  0  0
    1.1159   -1.4303   -1.5960 H   0  0  0  0  0  0  0  0  0  0  0  0
    3.0039    1.4557    0.9559 H   0  0  0  0  0  0  0  0  0  0  0  0
    5.0674    0.2590    0.7404 H   0  0  0  0  0  0  0  0  0  0  0  0
   -3.5545    0.8092    0.4071 H   0  0  0  0  0  0  0  0  0  0  0  0
   -4.5872    2.9884    0.4880 H   0  0  0  0  0  0  0  0  0  0  0  0
   -3.2552    5.0461    0.2618 H   0  0  0  0  0  0  0  0  0  0  0  0
   -0.8323    4.8676   -0.0560 H   0  0  0  0  0  0  0  0  0  0  0  0
   -2.7399   -0.6923   -1.2439 H   0  0  0  0  0  0  0  0  0  0  0  0
   -3.5791   -2.9472   -1.0108 H   0  0  0  0  0  0  0  0  0  0  0  0
   -2.4576   -4.5623    0.5118 H   0  0  0  0  0  0  0  0  0  0  0  0
   -0.5170   -3.8910    1.7858 H   0  0  0  0  0  0  0  0  0  0  0  0
    0.3227   -1.5949    1.5516 H   0  0  0  0  0  0  0  0  0  0  0  0
  1  2  1  0
  2  3  2  0
  3  4  1  0
  4  5  2  0
  5  6  1  0
  6  7  2  0
  5  8  1  0
  8  9  2  0
  9 10  1  0
 10 11  2  0
 11 12  1  0
 12 13  2  0
 13 14  1  0
 14 15  2  0
 15 16  1  0
 16 17  2  0
  9 18  1  0
 18 19  2  0
 19 20  1  0
 20 21  2  0
 21 22  1  0
 22 23  2  0
  7  2  1  0
 16  8  1  0
 23 18  1  0
 15 10  1  0
  1 24  1  0
  3 25  1  0
  4 26  1  0
  6 27  1  0
  7 28  1  0
 11 29  1  0
 12 30  1  0
 13 31  1  0
 14 32  1  0
 19 33  1  0
 20 34  1  0
 21 35  1  0
 22 36  1  0
 23 37  1  0
M  END
$$$$
[H]Oc1c([H])c([H])c(C2=C(c3c([H])c([H])c([H])c([H])c3[H])C(=O)c3c([H])c([H])c([H])c([H])c32)c([H])c1[H]
     RDKit          3D

 37 40  0  0  0  0  0  0  0  0999 V2000
    4.7387   -2.1230    0.9800 O   0  0  0  0  0  0  0  0  0  0  0  0
    3.5613   -1.4261    0.6989 C   0  0  0  0  0  0  0  0  0  0  0  0
    3.4269   -0.5821   -0.3813 C   0  0  0  0  0  0  0  0  0  0  0  0
    2.2419    0.0999   -0.6401 C   0  0  0  0  0  0  0  0  0  0  0  0
    1.1536   -0.0519    0.1883 C   0  0  0  0  0  0  0  0  0  0  0  0
    1.2769   -0.8922    1.2713 C   0  0  0  0  0  0  0  0  0  0  0  0
    2.4539   -1.5623    1.5181 C   0  0  0  0  0  0  0  0  0  0  0  0
   -0.0610    0.6962   -0.1039 C   0  0  0  0  0  0  0  0  0  0  0  0
   -1.2833    0.1886   -0.1154 C   0  0  0  0  0  0  0  0  0  0  0  0
   -2.2028    1.3019   -0.4543 C   0  0  0  0  0  0  0  0  0  0  0  0
   -3.4477    1.1999   -0.5588 O   0  0  0  0  0  0  0  0  0  0  0  0
   -1.4203    2.5145   -0.6424 C   0  0  0  0  0  0  0  0  0  0  0  0
   -1.7061    3.8171   -0.9564 C   0  0  0  0  0  0  0  0  0  0  0  0
   -0.6947    4.7440   -1.0548 C   0  0  0  0  0  0  0  0  0  0  0  0
    0.6118    4.3766   -0.8395 C   0  0  0  0  0  0  0  0  0  0  0  0
    0.9067    3.0627   -0.5225 C   0  0  0  0  0  0  0  0  0  0  0  0
   -0.1140    2.1454   -0.4281 C   0  0  0  0  0  0  0  0  0  0  0  0
   -1.7134   -1.1827    0.1079 C   0  0  0  0  0  0  0  0  0  0  0  0
   -2.7714   -1.5107    0.9265 C   0  0  0  0  0  0  0  0  0  0  0  0
   -3.1881   -2.8079    1.1184 C   0  0  0  0  0  0  0  0  0  0  0  0
   -2.5392   -3.8411    0.4779 C   0  0  0  0  0  0  0  0  0  0  0  0
   -1.4753   -3.5465   -0.3498 C   0  0  0  0  0  0  0  0  0  0  0  0
   -1.0770   -2.2242   -0.5242 C   0  0  0  0  0  0  0  0  0  0  0  0
    5.5471   -2.0470    0.4064 H   0  0  0  0  0  0  0  0  0  0  0  0
    4.2639   -0.4426   -1.0454 H   0  0  0  0  0  0  0  0  0  0  0  0
    2.2406    0.7329   -1.5170 H   0  0  0  0  0  0  0  0  0  0  0  0
    0.4460   -1.0423    1.9536 H   0  0  0  0  0  0  0  0  0  0  0  0
    2.5497   -2.2224    2.3689 H   0  0  0  0  0  0  0  0  0  0  0  0
   -2.7443    4.1159   -1.1294 H   0  0  0  0  0  0  0  0  0  0  0  0
   -0.9147    5.7886   -1.3051 H   0  0  0  0  0  0  0  0  0  0  0  0
    1.4189    5.0705   -0.9065 H   0  0  0  0  0  0  0  0  0  0  0  0
    1.9194    2.7618   -0.3470 H   0  0  0  0  0  0  0  0  0  0  0  0
   -3.3077   -0.7314    1.4491 H   0  0  0  0  0  0  0  0  0  0  0  0
   -4.0322   -3.0652    1.7754 H   0  0  0  0  0  0  0  0  0  0  0  0
   -2.8575   -4.8481    0.6254 H   0  0  0  0  0  0  0  0  0  0  0  0
   -0.9834   -4.3796   -0.8407 H   0  0  0  0  0  0  0  0  0  0  0  0
   -0.2236   -2.0871   -1.2037 H   0  0  0  0  0  0  0  0  0  0  0  0
  1  2  1  0
  2  3  2  0
  3  4  1  0
  4  5  2  0
  5  6  1  0
  6  7  2  0
  5  8  1  0
  8  9  2  0
  9 10  1  0
 10 11  2  0
 10 12  1  0
 12 13  2  0
 13 14  1  0
 14 15  2  0
 15 16  1  0
 16 17  2  0
  9 18  1  0
 18 19  2  0
 19 20  1  0
 20 21  2  0
 21 22  1  0
 22 23  2  0
  7  2  1  0
 17  8  1  0
 23 18  1  0
 17 12  1  0
  1 24  1  0
  3 25  1  0
  4 26  1  0
  6 27  1  0
  7 28  1  0
 13 29  1  0
 14 30  1  0
 15 31  1  0
 16 32  1  0
 19 33  1  0
 20 34  1  0
 21 35  1  0
 22 36  1  0
 23 37  1  0
M  END
$$$$
