[H]C#Cc1c([H])c([H])c2c(c1[H])C(=O)N(C([H])([H])[H])C([H])([H])c1c(C(=O)OC([H])([H])C([H])([H])[H])nc([H])n1-2
     RDKit          3D

 38 40  0  0  0  0  0  0  0  0999 V2000
   -6.5873    0.5393    0.8764 C   0  0  0  0  0  0  0  0  0  0  0  0
   -5.5167   -0.2322    0.1830 C   0  0  0  0  0  0  0  0  0  0  0  0
   -4.2345    0.3344    0.5029 O   0  0  0  0  0  0  0  0  0  0  0  0
   -3.0699   -0.2070   -0.0214 C   0  0  0  0  0  0  0  0  0  0  0  0
   -3.1643   -1.1828   -0.7658 O   0  0  0  0  0  0  0  0  0  0  0  0
   -1.7551    0.3657    0.3005 C   0  0  0  0  0  0  0  0  0  0  0  0
   -1.5901    1.4557    1.1145 N   0  0  0  0  0  0  0  0  0  0  0  0
   -0.3023    1.7766    1.2394 C   0  0  0  0  0  0  0  0  0  0  0  0
    0.3701    0.8875    0.5001 N   0  0  0  0  0  0  0  0  0  0  0  0
   -0.4960    0.0007   -0.0927 C   0  0  0  0  0  0  0  0  0  0  0  0
   -0.1774   -1.1341   -0.9690 C   0  0  0  0  0  0  0  0  0  0  0  0
    0.9298   -1.9557   -0.4980 N   0  0  0  0  0  0  0  0  0  0  0  0
    0.7246   -3.4050   -0.4140 C   0  0  0  0  0  0  0  0  0  0  0  0
    2.2289   -1.5608   -0.0926 C   0  0  0  0  0  0  0  0  0  0  0  0
    3.1321   -2.4079    0.1003 O   0  0  0  0  0  0  0  0  0  0  0  0
    2.6263   -0.1564    0.1329 C   0  0  0  0  0  0  0  0  0  0  0  0
    3.9873    0.0310    0.0581 C   0  0  0  0  0  0  0  0  0  0  0  0
    4.4641    1.3067    0.2362 C   0  0  0  0  0  0  0  0  0  0  0  0
    3.6527    2.3747    0.4797 C   0  0  0  0  0  0  0  0  0  0  0  0
    2.2685    2.1965    0.5581 C   0  0  0  0  0  0  0  0  0  0  0  0
    1.7977    0.9173    0.3798 C   0  0  0  0  0  0  0  0  0  0  0  0
    5.8919    1.5493    0.1656 C   0  0  0  0  0  0  0  0  0  0  0  0
    7.0634    1.7341    0.1141 C   0  0  0  0  0  0  0  0  0  0  0  0
   -7.5786    0.4370    0.3517 H   0  0  0  0  0  0  0  0  0  0  0  0
   -6.3933    1.6309    0.9154 H   0  0  0  0  0  0  0  0  0  0  0  0
   -6.7694    0.1526    1.9079 H   0  0  0  0  0  0  0  0  0  0  0  0
   -5.6731   -0.2565   -0.8944 H   0  0  0  0  0  0  0  0  0  0  0  0
   -5.5487   -1.2923    0.5582 H   0  0  0  0  0  0  0  0  0  0  0  0
    0.1178    2.5942    1.8343 H   0  0  0  0  0  0  0  0  0  0  0  0
   -1.0218   -1.8108   -1.1059 H   0  0  0  0  0  0  0  0  0  0  0  0
    0.1137   -0.7318   -1.9674 H   0  0  0  0  0  0  0  0  0  0  0  0
    1.1562   -3.9062   -1.3203 H   0  0  0  0  0  0  0  0  0  0  0  0
   -0.3264   -3.6765   -0.3053 H   0  0  0  0  0  0  0  0  0  0  0  0
    1.2759   -3.8385    0.4560 H   0  0  0  0  0  0  0  0  0  0  0  0
    4.6338   -0.8329   -0.1375 H   0  0  0  0  0  0  0  0  0  0  0  0
    4.0431    3.3704    0.6169 H   0  0  0  0  0  0  0  0  0  0  0  0
    1.6381    3.0474    0.7418 H   0  0  0  0  0  0  0  0  0  0  0  0
    8.0889    1.8855    0.0592 H   0  0  0  0  0  0  0  0  0  0  0  0
  1  2  1  0
  2  3  1  0
  3  4  1  0
  4  5  2  0
  4  6  1  0
  6  7  1  0
  7  8  2  0
  8  9  1  0
  9 10  1  0
 10 11  1  0
 11 12  1  0
 12 13  1  0
 12 14  1  0
 14 15  2  0
 14 16  1  0
 16 17  2  0
 17 18  1  0
 18 19  2  0
 19 20  1  0
 20 21  2  0
 18 22  1  0
 22 23  3  0
 10  6  2  0
 21 16  1  0
  9 21  1  0
  1 24  1  0
  1 25  1  0
  1 26  1  0
  2 27  1  0
  2 28  1  0
  8 29  1  0
 11 30  1  0
 11 31  1  0
 13 32  1  0
 13 33  1  0
 13 34  1  0
 17 35  1  0
 19 36  1  0
 20 37  1  0
 23 38  1  0
M  END
$$$$
[H]N=C(N([H])[H])N([H])C([H])([H])C([H])([H])C([H])([H])[C@@]([H])(C(=O)c1nc([H])c([H])s1)N([H])C(=O)[C@@]([H])(N([H])C(=O)[C@@]([H])(N([H])C(=O)[C@@]([H])(N([H])C(=O)C([H])([H])[H])C([H])([H])O[H])C([H])([H])C([H])([H])C([H])([H])C([H])([H])N([H])[H])C([H])([H])C([H])(C([H])([H])[H])C([H])([H])[H]
     RDKit          3D

 87 87  0  0  0  0  0  0  0  0999 V2000
   -1.3866   -3.1064    1.7438 C   0  0  0  0  0  0  0  0  0  0  0  0
    0.0381   -3.1374    1.3815 C   0  0  0  0  0  0  0  0  0  0  0  0
    0.8489   -3.5135    2.6264 C   0  0  0  0  0  0  0  0  0  0  0  0
    0.6719   -2.1022    0.5705 C   0  0  0  0  0  0  0  0  0  0  0  0
    0.7185   -0.6894    0.9623 C   0  0  2  0  0  0  0  0  0  0  0  0
   -0.5116    0.0200    1.0657 N   0  0  0  0  0  0  0  0  0  0  0  0
   -1.6149   -0.0135    0.1802 C   0  0  0  0  0  0  0  0  0  0  0  0
   -1.5425   -0.7578   -0.8614 O   0  0  0  0  0  0  0  0  0  0  0  0
   -2.8549    0.7584    0.3748 C   0  0  2  0  0  0  0  0  0  0  0  0
   -3.1050    1.2650    1.7478 C   0  0  0  0  0  0  0  0  0  0  0  0
   -3.2478    0.2954    2.8522 C   0  0  0  0  0  0  0  0  0  0  0  0
   -3.5065    1.0821    4.1447 C   0  0  0  0  0  0  0  0  0  0  0  0
   -4.7736    1.8968    4.0500 C   0  0  0  0  0  0  0  0  0  0  0  0
   -5.9056    0.9997    3.7972 N   0  0  0  0  0  0  0  0  0  0  0  0
   -3.9744   -0.0491   -0.0966 N   0  0  0  0  0  0  0  0  0  0  0  0
   -5.0157    0.4792   -0.9289 C   0  0  0  0  0  0  0  0  0  0  0  0
   -4.9344    1.6933   -1.2357 O   0  0  0  0  0  0  0  0  0  0  0  0
   -6.1286   -0.3755   -1.3903 C   0  0  2  0  0  0  0  0  0  0  0  0
   -5.7209   -1.2889   -2.5378 C   0  0  0  0  0  0  0  0  0  0  0  0
   -5.4488   -0.5347   -3.6742 O   0  0  0  0  0  0  0  0  0  0  0  0
   -7.3085    0.3630   -1.7962 N   0  0  0  0  0  0  0  0  0  0  0  0
   -8.5559    0.1823   -1.1111 C   0  0  0  0  0  0  0  0  0  0  0  0
   -9.7714    0.9080   -1.4832 C   0  0  0  0  0  0  0  0  0  0  0  0
   -8.5511   -0.6515   -0.1484 O   0  0  0  0  0  0  0  0  0  0  0  0
    1.6646    0.1028    0.1362 C   0  0  0  0  0  0  0  0  0  0  0  0
    1.2751    1.1686   -0.3752 O   0  0  0  0  0  0  0  0  0  0  0  0
    2.9789   -0.3387   -0.0624 N   0  0  0  0  0  0  0  0  0  0  0  0
    3.9857    0.4086   -0.8673 C   0  0  1  0  0  0  0  0  0  0  0  0
    5.1166    0.9052   -0.0794 C   0  0  0  0  0  0  0  0  0  0  0  0
    5.9834    1.8443   -0.8678 C   0  0  0  0  0  0  0  0  0  0  0  0
    7.2069    2.3004   -0.1026 C   0  0  0  0  0  0  0  0  0  0  0  0
    7.9634    3.1929   -0.9436 N   0  0  0  0  0  0  0  0  0  0  0  0
    8.6090    2.6915   -2.1000 C   0  0  0  0  0  0  0  0  0  0  0  0
    9.6271    1.7226   -1.9369 N   0  0  0  0  0  0  0  0  0  0  0  0
    8.2513    3.1284   -3.2772 N   0  0  0  0  0  0  0  0  0  0  0  0
    4.3431   -0.4963   -1.9639 C   0  0  0  0  0  0  0  0  0  0  0  0
    3.3171   -0.8938   -2.6653 O   0  0  0  0  0  0  0  0  0  0  0  0
    5.6182   -1.0154   -2.3670 C   0  0  0  0  0  0  0  0  0  0  0  0
    6.8526   -0.9719   -1.9149 N   0  0  0  0  0  0  0  0  0  0  0  0
    7.8265   -1.5516   -2.5032 C   0  0  0  0  0  0  0  0  0  0  0  0
    7.5587   -2.2452   -3.6538 C   0  0  0  0  0  0  0  0  0  0  0  0
    5.8772   -1.9996   -3.8003 S   0  0  0  0  0  0  0  0  0  0  0  0
   -1.6578   -2.4393    2.5604 H   0  0  0  0  0  0  0  0  0  0  0  0
   -1.6380   -4.1714    2.0982 H   0  0  0  0  0  0  0  0  0  0  0  0
   -2.0160   -3.0235    0.8286 H   0  0  0  0  0  0  0  0  0  0  0  0
    0.1477   -4.1106    0.7486 H   0  0  0  0  0  0  0  0  0  0  0  0
    0.2453   -4.3336    3.1222 H   0  0  0  0  0  0  0  0  0  0  0  0
    0.9247   -2.7202    3.3574 H   0  0  0  0  0  0  0  0  0  0  0  0
    1.7955   -4.0069    2.3358 H   0  0  0  0  0  0  0  0  0  0  0  0
    1.7481   -2.4660    0.4022 H   0  0  0  0  0  0  0  0  0  0  0  0
    0.2672   -2.2099   -0.4845 H   0  0  0  0  0  0  0  0  0  0  0  0
    1.1769   -0.6271    2.0357 H   0  0  0  0  0  0  0  0  0  0  0  0
   -0.6595    0.6994    1.8944 H   0  0  0  0  0  0  0  0  0  0  0  0
   -2.8294    1.6835   -0.2801 H   0  0  0  0  0  0  0  0  0  0  0  0
   -2.2953    2.0018    2.0046 H   0  0  0  0  0  0  0  0  0  0  0  0
   -4.0615    1.8718    1.6785 H   0  0  0  0  0  0  0  0  0  0  0  0
   -4.1708   -0.3379    2.7361 H   0  0  0  0  0  0  0  0  0  0  0  0
   -2.3730   -0.3147    3.0282 H   0  0  0  0  0  0  0  0  0  0  0  0
   -3.5367    0.3864    4.9996 H   0  0  0  0  0  0  0  0  0  0  0  0
   -2.6143    1.7486    4.2740 H   0  0  0  0  0  0  0  0  0  0  0  0
   -4.7847    2.6752    3.2949 H   0  0  0  0  0  0  0  0  0  0  0  0
   -4.9236    2.3986    5.0453 H   0  0  0  0  0  0  0  0  0  0  0  0
   -6.5472    1.3828    3.0886 H   0  0  0  0  0  0  0  0  0  0  0  0
   -6.4341    0.9106    4.7131 H   0  0  0  0  0  0  0  0  0  0  0  0
   -4.0397   -1.0430    0.1683 H   0  0  0  0  0  0  0  0  0  0  0  0
   -6.4236   -1.0456   -0.5490 H   0  0  0  0  0  0  0  0  0  0  0  0
   -6.5152   -2.0197   -2.7277 H   0  0  0  0  0  0  0  0  0  0  0  0
   -4.7942   -1.8659   -2.2748 H   0  0  0  0  0  0  0  0  0  0  0  0
   -6.1190   -0.7214   -4.3849 H   0  0  0  0  0  0  0  0  0  0  0  0
   -7.3031    1.0443   -2.5847 H   0  0  0  0  0  0  0  0  0  0  0  0
  -10.2382    0.5257   -2.4176 H   0  0  0  0  0  0  0  0  0  0  0  0
   -9.5864    1.9901   -1.6739 H   0  0  0  0  0  0  0  0  0  0  0  0
  -10.5401    0.8391   -0.6816 H   0  0  0  0  0  0  0  0  0  0  0  0
    3.3018   -1.2249    0.3603 H   0  0  0  0  0  0  0  0  0  0  0  0
    3.4204    1.2980   -1.2575 H   0  0  0  0  0  0  0  0  0  0  0  0
    4.7712    1.3839    0.8828 H   0  0  0  0  0  0  0  0  0  0  0  0
    5.7685    0.0378    0.2348 H   0  0  0  0  0  0  0  0  0  0  0  0
    6.1032    1.5952   -1.8890 H   0  0  0  0  0  0  0  0  0  0  0  0
    5.3339    2.8201   -0.9184 H   0  0  0  0  0  0  0  0  0  0  0  0
    7.8296    1.4297    0.1859 H   0  0  0  0  0  0  0  0  0  0  0  0
    6.8564    2.8773    0.7769 H   0  0  0  0  0  0  0  0  0  0  0  0
    8.0673    4.2198   -0.7415 H   0  0  0  0  0  0  0  0  0  0  0  0
    9.8919    1.0486   -2.6997 H   0  0  0  0  0  0  0  0  0  0  0  0
   10.1424    1.6702   -1.0176 H   0  0  0  0  0  0  0  0  0  0  0  0
    8.6960    2.7881   -4.1365 H   0  0  0  0  0  0  0  0  0  0  0  0
    8.8729   -1.5175   -2.1249 H   0  0  0  0  0  0  0  0  0  0  0  0
    8.2665   -2.8039   -4.2927 H   0  0  0  0  0  0  0  0  0  0  0  0
  1  2  1  0
  2  3  1  0
  2  4  1  0
  4  5  1  0
  5  6  1  0
  6  7  1  0
  7  8  2  0
  7  9  1  0
  9 10  1  0
 10 11  1  0
 11 12  1  0
 12 13  1  0
 13 14  1  0
  9 15  1  0
 15 16  1  0
 16 17  2  0
 16 18  1  0
 18 19  1  0
 19 20  1  0
 18 21  1  0
 21 22  1  0
 22 23  1  0
 22 24  2  0
  5 25  1  0
 25 26  2  0
 25 27  1  0
 27 28  1  0
 28 29  1  0
 29 30  1  0
 30 31  1  0
 31 32  1  0
 32 33  1  0
 33 34  1  0
 33 35  2  3
 28 36  1  0
 36 37  2  0
 36 38  1  0
 38 39  2  0
 39 40  1  0
 40 41  2  0
 41 42  1  0
 42 38  1  0
  1 43  1  0
  1 44  1  0
  1 45  1  0
  2 46  1  0
  3 47  1  0
  3 48  1  0
  3 49  1  0
  4 50  1  0
  4 51  1  0
  5 52  1  1
  6 53  1  0
  9 54  1  6
 10 55  1  0
 10 56  1  0
 11 57  1  0
 11 58  1  0
 12 59  1  0
 12 60  1  0
 13 61  1  0
 13 62  1  0
 14 63  1  0
 14 64  1  0
 15 65  1  0
 18 66  1  1
 19 67  1  0
 19 68  1  0
 20 69  1  0
 21 70  1  0
 23 71  1  0
 23 72  1  0
 23 73  1  0
 27 74  1  0
 28 75  1  6
 29 76  1  0
 29 77  1  0
 30 78  1  0
 30 79  1  0
 31 80  1  0
 31 81  1  0
 32 82  1  0
 34 83  1  0
 34 84  1  0
 35 85  1  0
 40 86  1  0
 41 87  1  0
M  END
$$$$
[H]C#C[C@]1(O[H])C([H])([H])C([H])([H])[C@]2([H])[C@]1(C([H])([H])[H])C([H])([H])[C@]1([H])c3c([H])c([H])c(O[H])c([H])c3C([H])([H])C([H])([H])[C@]12[H]
     RDKit          3D

 43 46  0  0  0  0  0  0  0  0999 V2000
   -1.6920   -1.9291   -0.3169 C   0  0  0  0  0  0  0  0  0  0  0  0
   -1.6340   -0.4594   -0.5915 C   0  0  2  0  0  0  0  0  0  0  0  0
   -0.4846   -0.0272   -1.4182 C   0  0  0  0  0  0  0  0  0  0  0  0
    0.5239    0.4688   -0.4521 C   0  0  1  0  0  0  0  0  0  0  0  0
    0.0054   -0.0048    0.9270 C   0  0  1  0  0  0  0  0  0  0  0  0
    0.7693    0.7240    1.9573 C   0  0  0  0  0  0  0  0  0  0  0  0
    2.1811    1.0533    1.6391 C   0  0  0  0  0  0  0  0  0  0  0  0
    2.7409    0.3171    0.4813 C   0  0  0  0  0  0  0  0  0  0  0  0
    4.0683   -0.0615    0.4619 C   0  0  0  0  0  0  0  0  0  0  0  0
    4.5789   -0.7442   -0.6281 C   0  0  0  0  0  0  0  0  0  0  0  0
    5.9291   -1.1395   -0.6680 O   0  0  0  0  0  0  0  0  0  0  0  0
    3.7287   -1.0272   -1.6753 C   0  0  0  0  0  0  0  0  0  0  0  0
    2.3796   -0.6502   -1.6713 C   0  0  0  0  0  0  0  0  0  0  0  0
    1.8950    0.0289   -0.5735 C   0  0  0  0  0  0  0  0  0  0  0  0
   -1.3804    0.3454    0.7045 C   0  0  2  0  0  0  0  0  0  0  0  0
   -2.4901   -0.0849    1.5057 C   0  0  0  0  0  0  0  0  0  0  0  0
   -3.6511   -0.0026    0.4951 C   0  0  0  0  0  0  0  0  0  0  0  0
   -2.9817    0.0521   -0.8903 C   0  0  2  0  0  0  0  0  0  0  0  0
   -3.6131   -0.7841   -1.7885 O   0  0  0  0  0  0  0  0  0  0  0  0
   -2.9774    1.4522   -1.3329 C   0  0  0  0  0  0  0  0  0  0  0  0
   -2.9702    2.5981   -1.7073 C   0  0  0  0  0  0  0  0  0  0  0  0
   -1.0932   -2.4451   -1.1169 H   0  0  0  0  0  0  0  0  0  0  0  0
   -1.4007   -2.2280    0.6882 H   0  0  0  0  0  0  0  0  0  0  0  0
   -2.7402   -2.3221   -0.4679 H   0  0  0  0  0  0  0  0  0  0  0  0
   -0.8270    0.8396   -2.0451 H   0  0  0  0  0  0  0  0  0  0  0  0
   -0.1844   -0.8573   -2.0687 H   0  0  0  0  0  0  0  0  0  0  0  0
    0.4591    1.5953   -0.3610 H   0  0  0  0  0  0  0  0  0  0  0  0
    0.2576   -1.0740    0.9693 H   0  0  0  0  0  0  0  0  0  0  0  0
    0.2054    1.6729    2.1905 H   0  0  0  0  0  0  0  0  0  0  0  0
    0.6684    0.1366    2.9199 H   0  0  0  0  0  0  0  0  0  0  0  0
    2.7982    0.9306    2.5521 H   0  0  0  0  0  0  0  0  0  0  0  0
    2.2395    2.1477    1.3855 H   0  0  0  0  0  0  0  0  0  0  0  0
    4.7561    0.1475    1.2688 H   0  0  0  0  0  0  0  0  0  0  0  0
    6.6423   -0.5248   -1.0604 H   0  0  0  0  0  0  0  0  0  0  0  0
    4.1175   -1.5632   -2.5379 H   0  0  0  0  0  0  0  0  0  0  0  0
    1.7681   -0.8941   -2.5110 H   0  0  0  0  0  0  0  0  0  0  0  0
   -1.4797    1.4009    0.4005 H   0  0  0  0  0  0  0  0  0  0  0  0
   -2.7367    0.6712    2.2964 H   0  0  0  0  0  0  0  0  0  0  0  0
   -2.4439   -1.0542    1.9900 H   0  0  0  0  0  0  0  0  0  0  0  0
   -4.2964   -0.8767    0.5536 H   0  0  0  0  0  0  0  0  0  0  0  0
   -4.2478    0.9025    0.6390 H   0  0  0  0  0  0  0  0  0  0  0  0
   -4.4356   -0.3496   -2.0851 H   0  0  0  0  0  0  0  0  0  0  0  0
   -2.9521    3.6192   -2.0300 H   0  0  0  0  0  0  0  0  0  0  0  0
  2  1  1  1
  2  3  1  0
  3  4  1  0
  4  5  1  0
  5  6  1  0
  6  7  1  0
  7  8  1  0
  8  9  2  0
  9 10  1  0
 10 11  1  0
 10 12  2  0
 12 13  1  0
 13 14  2  0
  5 15  1  0
 15 16  1  0
 16 17  1  0
 17 18  1  0
 18 19  1  0
 18 20  1  6
 20 21  3  0
 15  2  1  0
 18  2  1  0
 14  4  1  0
 14  8  1  0
  1 22  1  0
  1 23  1  0
  1 24  1  0
  3 25  1  0
  3 26  1  0
  4 27  1  1
  5 28  1  1
  6 29  1  0
  6 30  1  0
  7 31  1  0
  7 32  1  0
  9 33  1  0
 11 34  1  0
 12 35  1  0
 13 36  1  0
 15 37  1  6
 16 38  1  0
 16 39  1  0
 17 40  1  0
 17 41  1  0
 19 42  1  0
 21 43  1  0
M  END
$$$$
[H]c1c([H])c([H])c2c(c1[H])c(C([H])([H])[C@@]1([H])C(=O)N([H])[C@]([H])(C([H])([H])c3c([H])n([H])c4c([H])c([H])c([H])c([H])c34)C(=O)N([H])[C@@]([H])(C([H])([H])C([H])([H])C([H])([H])C([H])([H])N([H])[H])C(=O)N([H])[C@@]([H])(C([H])(C([H])([H])[H])C([H])([H])[H])C(=O)N([H])[C@@]([H])(C([H])([H])C(=O)N([H])[H])C(=O)N1[H])c([H])n2[H]
     RDKit          3D

 99103  0  0  0  0  0  0  0  0999 V2000
   -4.6114   -4.1243   -0.6819 C   0  0  0  0  0  0  0  0  0  0  0  0
   -3.2208   -4.4779   -1.1349 C   0  0  0  0  0  0  0  0  0  0  0  0
   -2.7369   -5.6267   -0.3193 C   0  0  0  0  0  0  0  0  0  0  0  0
   -2.2689   -3.2710   -1.0988 C   0  0  2  0  0  0  0  0  0  0  0  0
   -2.8433   -2.2884   -1.9938 N   0  0  0  0  0  0  0  0  0  0  0  0
   -3.2975   -1.0031   -1.6780 C   0  0  0  0  0  0  0  0  0  0  0  0
   -4.4602   -0.6548   -1.9978 O   0  0  0  0  0  0  0  0  0  0  0  0
   -2.5013    0.0662   -0.9605 C   0  0  2  0  0  0  0  0  0  0  0  0
   -3.5379    0.6723    0.0023 C   0  0  0  0  0  0  0  0  0  0  0  0
   -4.0468   -0.4049    0.9258 C   0  0  0  0  0  0  0  0  0  0  0  0
   -5.0638    0.2740    1.8538 C   0  0  0  0  0  0  0  0  0  0  0  0
   -5.6402   -0.7245    2.8291 C   0  0  0  0  0  0  0  0  0  0  0  0
   -6.3179   -1.8097    2.1857 N   0  0  0  0  0  0  0  0  0  0  0  0
   -2.0524    1.0242   -1.9442 N   0  0  0  0  0  0  0  0  0  0  0  0
   -0.8334    1.6270   -2.2065 C   0  0  0  0  0  0  0  0  0  0  0  0
   -0.1681    1.1986   -3.2361 O   0  0  0  0  0  0  0  0  0  0  0  0
   -0.0943    2.7142   -1.5281 C   0  0  1  0  0  0  0  0  0  0  0  0
   -0.6526    3.1486   -0.2139 C   0  0  0  0  0  0  0  0  0  0  0  0
    0.1040    4.2471    0.4335 C   0  0  0  0  0  0  0  0  0  0  0  0
    0.9737    4.1606    1.5000 C   0  0  0  0  0  0  0  0  0  0  0  0
    1.4556    5.3828    1.7902 N   0  0  0  0  0  0  0  0  0  0  0  0
    0.9424    6.2987    0.9562 C   0  0  0  0  0  0  0  0  0  0  0  0
    1.0973    7.6774    0.8183 C   0  0  0  0  0  0  0  0  0  0  0  0
    0.3750    8.2727   -0.1884 C   0  0  0  0  0  0  0  0  0  0  0  0
   -0.4690    7.6005   -1.0435 C   0  0  0  0  0  0  0  0  0  0  0  0
   -0.6071    6.2413   -0.8906 C   0  0  0  0  0  0  0  0  0  0  0  0
    0.0998    5.6111    0.1056 C   0  0  0  0  0  0  0  0  0  0  0  0
    1.3335    2.5249   -1.4704 N   0  0  0  0  0  0  0  0  0  0  0  0
    2.0846    1.3509   -1.6080 C   0  0  0  0  0  0  0  0  0  0  0  0
    2.9447    1.2511   -2.5570 O   0  0  0  0  0  0  0  0  0  0  0  0
    2.0086    0.1320   -0.7397 C   0  0  2  0  0  0  0  0  0  0  0  0
    2.6298    0.4087    0.6078 C   0  0  0  0  0  0  0  0  0  0  0  0
    4.0222    0.8114    0.6089 C   0  0  0  0  0  0  0  0  0  0  0  0
    4.4113    2.1563    0.6642 C   0  0  0  0  0  0  0  0  0  0  0  0
    5.7508    2.2158    0.6189 N   0  0  0  0  0  0  0  0  0  0  0  0
    6.2743    0.9831    0.5370 C   0  0  0  0  0  0  0  0  0  0  0  0
    7.5924    0.5659    0.4760 C   0  0  0  0  0  0  0  0  0  0  0  0
    7.8201   -0.7935    0.4083 C   0  0  0  0  0  0  0  0  0  0  0  0
    6.7828   -1.6987    0.4020 C   0  0  0  0  0  0  0  0  0  0  0  0
    5.4761   -1.2639    0.4629 C   0  0  0  0  0  0  0  0  0  0  0  0
    5.1932    0.1044    0.5314 C   0  0  0  0  0  0  0  0  0  0  0  0
    2.5555   -1.0129   -1.4070 N   0  0  0  0  0  0  0  0  0  0  0  0
    1.9628   -2.2924   -1.4432 C   0  0  0  0  0  0  0  0  0  0  0  0
    2.2535   -3.0451   -2.4372 O   0  0  0  0  0  0  0  0  0  0  0  0
    1.0293   -2.8603   -0.4388 C   0  0  2  0  0  0  0  0  0  0  0  0
    1.8827   -3.6142    0.5892 C   0  0  0  0  0  0  0  0  0  0  0  0
    1.0917   -4.2254    1.6547 C   0  0  0  0  0  0  0  0  0  0  0  0
    1.7748   -4.9937    2.6458 N   0  0  0  0  0  0  0  0  0  0  0  0
   -0.1514   -4.0884    1.7107 O   0  0  0  0  0  0  0  0  0  0  0  0
    0.2450   -3.8711   -1.1305 N   0  0  0  0  0  0  0  0  0  0  0  0
   -0.9917   -3.7148   -1.7454 C   0  0  0  0  0  0  0  0  0  0  0  0
   -1.1197   -3.9626   -3.0000 O   0  0  0  0  0  0  0  0  0  0  0  0
   -5.0790   -3.4090   -1.4044 H   0  0  0  0  0  0  0  0  0  0  0  0
   -5.2079   -5.0402   -0.6393 H   0  0  0  0  0  0  0  0  0  0  0  0
   -4.5807   -3.6286    0.3104 H   0  0  0  0  0  0  0  0  0  0  0  0
   -3.3184   -4.8426   -2.1931 H   0  0  0  0  0  0  0  0  0  0  0  0
   -3.5539   -6.3880   -0.3070 H   0  0  0  0  0  0  0  0  0  0  0  0
   -2.5704   -5.3519    0.7367 H   0  0  0  0  0  0  0  0  0  0  0  0
   -1.8613   -6.1606   -0.7690 H   0  0  0  0  0  0  0  0  0  0  0  0
   -2.1403   -2.9337   -0.0735 H   0  0  0  0  0  0  0  0  0  0  0  0
   -2.9181   -2.6173   -3.0087 H   0  0  0  0  0  0  0  0  0  0  0  0
   -1.7391   -0.3645   -0.3203 H   0  0  0  0  0  0  0  0  0  0  0  0
   -2.9975    1.3908    0.6355 H   0  0  0  0  0  0  0  0  0  0  0  0
   -4.3476    1.1804   -0.5258 H   0  0  0  0  0  0  0  0  0  0  0  0
   -3.2409   -0.7948    1.5585 H   0  0  0  0  0  0  0  0  0  0  0  0
   -4.5889   -1.1994    0.4123 H   0  0  0  0  0  0  0  0  0  0  0  0
   -5.8956    0.7298    1.2816 H   0  0  0  0  0  0  0  0  0  0  0  0
   -4.5689    1.0702    2.4404 H   0  0  0  0  0  0  0  0  0  0  0  0
   -4.8112   -1.0774    3.4724 H   0  0  0  0  0  0  0  0  0  0  0  0
   -6.3747   -0.1782    3.4521 H   0  0  0  0  0  0  0  0  0  0  0  0
   -5.7874   -2.6937    2.1696 H   0  0  0  0  0  0  0  0  0  0  0  0
   -6.7557   -1.5297    1.2957 H   0  0  0  0  0  0  0  0  0  0  0  0
   -2.8604    1.2921   -2.6119 H   0  0  0  0  0  0  0  0  0  0  0  0
   -0.2001    3.6710   -2.1735 H   0  0  0  0  0  0  0  0  0  0  0  0
   -1.6749    3.5356   -0.3957 H   0  0  0  0  0  0  0  0  0  0  0  0
   -0.7225    2.2990    0.5115 H   0  0  0  0  0  0  0  0  0  0  0  0
    1.2232    3.2320    2.0222 H   0  0  0  0  0  0  0  0  0  0  0  0
    2.1381    5.6556    2.5472 H   0  0  0  0  0  0  0  0  0  0  0  0
    1.7574    8.1618    1.4974 H   0  0  0  0  0  0  0  0  0  0  0  0
    0.4902    9.3563   -0.3050 H   0  0  0  0  0  0  0  0  0  0  0  0
   -1.0204    8.1409   -1.8331 H   0  0  0  0  0  0  0  0  0  0  0  0
   -1.2712    5.6986   -1.5560 H   0  0  0  0  0  0  0  0  0  0  0  0
    1.8908    3.4278   -1.3028 H   0  0  0  0  0  0  0  0  0  0  0  0
    0.9077   -0.0314   -0.5660 H   0  0  0  0  0  0  0  0  0  0  0  0
    2.5111   -0.5389    1.2075 H   0  0  0  0  0  0  0  0  0  0  0  0
    1.9629    1.1323    1.1667 H   0  0  0  0  0  0  0  0  0  0  0  0
    3.8005    3.0441    0.7308 H   0  0  0  0  0  0  0  0  0  0  0  0
    6.3633    3.0829    0.6430 H   0  0  0  0  0  0  0  0  0  0  0  0
    8.4192    1.2779    0.4811 H   0  0  0  0  0  0  0  0  0  0  0  0
    8.8663   -1.1239    0.3604 H   0  0  0  0  0  0  0  0  0  0  0  0
    6.9801   -2.7767    0.3490 H   0  0  0  0  0  0  0  0  0  0  0  0
    4.6424   -1.9200    0.4732 H   0  0  0  0  0  0  0  0  0  0  0  0
    3.4865   -0.9088   -1.9285 H   0  0  0  0  0  0  0  0  0  0  0  0
    0.4152   -2.0981    0.0486 H   0  0  0  0  0  0  0  0  0  0  0  0
    2.4727   -4.3651    0.0193 H   0  0  0  0  0  0  0  0  0  0  0  0
    2.5844   -2.8993    1.0480 H   0  0  0  0  0  0  0  0  0  0  0  0
    2.6421   -4.6455    3.0915 H   0  0  0  0  0  0  0  0  0  0  0  0
    1.3730   -5.9176    2.9054 H   0  0  0  0  0  0  0  0  0  0  0  0
    0.6792   -4.8441   -1.1792 H   0  0  0  0  0  0  0  0  0  0  0  0
  1  2  1  0
  2  3  1  0
  2  4  1  0
  4  5  1  0
  5  6  1  0
  6  7  2  0
  6  8  1  0
  8  9  1  0
  9 10  1  0
 10 11  1  0
 11 12  1  0
 12 13  1  0
  8 14  1  0
 14 15  1  0
 15 16  2  0
 15 17  1  0
 17 18  1  0
 18 19  1  0
 19 20  2  0
 20 21  1  0
 21 22  1  0
 22 23  2  0
 23 24  1  0
 24 25  2  0
 25 26  1  0
 26 27  2  0
 17 28  1  0
 28 29  1  0
 29 30  2  0
 29 31  1  0
 31 32  1  0
 32 33  1  0
 33 34  2  0
 34 35  1  0
 35 36  1  0
 36 37  2  0
 37 38  1  0
 38 39  2  0
 39 40  1  0
 40 41  2  0
 31 42  1  0
 42 43  1  0
 43 44  2  0
 43 45  1  0
 45 46  1  0
 46 47  1  0
 47 48  1  0
 47 49  2  0
 45 50  1  0
 50 51  1  0
 51 52  2  0
 51  4  1  0
 27 19  1  0
 41 33  1  0
 27 22  1  0
 41 36  1  0
  1 53  1  0
  1 54  1  0
  1 55  1  0
  2 56  1  0
  3 57  1  0
  3 58  1  0
  3 59  1  0
  4 60  1  1
  5 61  1  0
  8 62  1  1
  9 63  1  0
  9 64  1  0
 10 65  1  0
 10 66  1  0
 11 67  1  0
 11 68  1  0
 12 69  1  0
 12 70  1  0
 13 71  1  0
 13 72  1  0
 14 73  1  0
 17 74  1  6
 18 75  1  0
 18 76  1  0
 20 77  1  0
 21 78  1  0
 23 79  1  0
 24 80  1  0
 25 81  1  0
 26 82  1  0
 28 83  1  0
 31 84  1  1
 32 85  1  0
 32 86  1  0
 34 87  1  0
 35 88  1  0
 37 89  1  0
 38 90  1  0
 39 91  1  0
 40 92  1  0
 42 93  1  0
 45 94  1  1
 46 95  1  0
 46 96  1  0
 48 97  1  0
 48 98  1  0
 50 99  1  0
M  END
$$$$
[H]/C(=C1/SC(=S)N([H])C1=O)c1c([H])n([H])c2c([H])c([H])c([H])c([H])c12
     RDKit          3D

 25 27  0  0  0  0  0  0  0  0999 V2000
    3.2290   -2.5221   -1.5342 O   0  0  0  0  0  0  0  0  0  0  0  0
    3.2620   -1.3921   -0.9254 C   0  0  0  0  0  0  0  0  0  0  0  0
    4.3977   -0.5889   -0.8329 N   0  0  0  0  0  0  0  0  0  0  0  0
    4.2715    0.6152   -0.1353 C   0  0  0  0  0  0  0  0  0  0  0  0
    5.2601    1.8979   -0.0314 S   0  0  0  0  0  0  0  0  0  0  0  0
    2.6775    0.5097    0.7140 S   0  0  0  0  0  0  0  0  0  0  0  0
    2.0793   -0.8856   -0.2852 C   0  0  0  0  0  0  0  0  0  0  0  0
    0.8085   -1.2232   -0.3145 C   0  0  0  0  0  0  0  0  0  0  0  0
   -0.1945   -0.4846    0.4853 C   0  0  0  0  0  0  0  0  0  0  0  0
   -0.0775   -0.0915    1.8022 C   0  0  0  0  0  0  0  0  0  0  0  0
   -1.2069    0.5742    2.0937 N   0  0  0  0  0  0  0  0  0  0  0  0
   -2.0177    0.6159    1.0328 C   0  0  0  0  0  0  0  0  0  0  0  0
   -3.2616    1.1789    0.8761 C   0  0  0  0  0  0  0  0  0  0  0  0
   -3.8877    1.0626   -0.3468 C   0  0  0  0  0  0  0  0  0  0  0  0
   -3.2806    0.3894   -1.4145 C   0  0  0  0  0  0  0  0  0  0  0  0
   -2.0303   -0.1698   -1.2415 C   0  0  0  0  0  0  0  0  0  0  0  0
   -1.4069   -0.0554   -0.0283 C   0  0  0  0  0  0  0  0  0  0  0  0
    5.3351   -0.8533   -1.2603 H   0  0  0  0  0  0  0  0  0  0  0  0
    0.5217   -2.0530   -0.9447 H   0  0  0  0  0  0  0  0  0  0  0  0
    0.7683   -0.2931    2.4317 H   0  0  0  0  0  0  0  0  0  0  0  0
   -1.3594    0.9766    3.0525 H   0  0  0  0  0  0  0  0  0  0  0  0
   -3.7074    1.6895    1.7055 H   0  0  0  0  0  0  0  0  0  0  0  0
   -4.8685    1.4929   -0.5109 H   0  0  0  0  0  0  0  0  0  0  0  0
   -3.7921    0.3105   -2.3554 H   0  0  0  0  0  0  0  0  0  0  0  0
   -1.5197   -0.7008   -2.0324 H   0  0  0  0  0  0  0  0  0  0  0  0
  1  2  2  0
  2  3  1  0
  3  4  1  0
  4  5  2  0
  4  6  1  0
  6  7  1  0
  7  8  2  0
  8  9  1  0
  9 10  2  0
 10 11  1  0
 11 12  1  0
 12 13  2  0
 13 14  1  0
 14 15  2  0
 15 16  1  0
 16 17  2  0
  7  2  1  0
 17  9  1  0
 17 12  1  0
  3 18  1  0
  8 19  1  0
 10 20  1  0
 11 21  1  0
 13 22  1  0
 14 23  1  0
 15 24  1  0
 16 25  1  0
M  END
$$$$
[H]c1nc([C@]([H])(c2c([H])c([H])c(C(F)(F)F)c([H])c2[H])N([H])C(=O)c2c([H])c([H])c(=O)n([H])c2[H])c(C(F)(F)F)c([H])c1[H]
     RDKit          3D

 44 46  0  0  0  0  0  0  0  0999 V2000
   -4.6340    4.3776   -0.1053 F   0  0  0  0  0  0  0  0  0  0  0  0
   -3.8453    4.0455    0.9455 C   0  0  0  0  0  0  0  0  0  0  0  0
   -3.0082    5.1129    1.2689 F   0  0  0  0  0  0  0  0  0  0  0  0
   -4.6289    3.7998    2.1023 F   0  0  0  0  0  0  0  0  0  0  0  0
   -2.9863    2.8615    0.7254 C   0  0  0  0  0  0  0  0  0  0  0  0
   -3.1667    2.0526   -0.3591 C   0  0  0  0  0  0  0  0  0  0  0  0
   -2.3913    0.9386   -0.6504 C   0  0  0  0  0  0  0  0  0  0  0  0
   -1.3662    0.5968    0.1900 C   0  0  0  0  0  0  0  0  0  0  0  0
   -1.1870    1.4360    1.3058 C   0  0  0  0  0  0  0  0  0  0  0  0
   -1.9451    2.5385    1.5971 C   0  0  0  0  0  0  0  0  0  0  0  0
   -0.4899   -0.6057    0.0691 C   0  0  2  0  0  0  0  0  0  0  0  0
    0.8793   -0.3702   -0.1737 N   0  0  0  0  0  0  0  0  0  0  0  0
    1.5799    0.8725   -0.3166 C   0  0  0  0  0  0  0  0  0  0  0  0
    0.9985    1.9599   -0.3414 O   0  0  0  0  0  0  0  0  0  0  0  0
    3.0778    0.8410   -0.4080 C   0  0  0  0  0  0  0  0  0  0  0  0
    3.7705    1.9027    0.1942 C   0  0  0  0  0  0  0  0  0  0  0  0
    5.1514    1.8364    0.2567 C   0  0  0  0  0  0  0  0  0  0  0  0
    5.8690    0.7767   -0.2448 C   0  0  0  0  0  0  0  0  0  0  0  0
    7.1163    0.7004   -0.1883 O   0  0  0  0  0  0  0  0  0  0  0  0
    5.1469   -0.2283   -0.8324 N   0  0  0  0  0  0  0  0  0  0  0  0
    3.7875   -0.1891   -0.9053 C   0  0  0  0  0  0  0  0  0  0  0  0
   -1.0539   -1.7902   -0.5560 C   0  0  0  0  0  0  0  0  0  0  0  0
   -1.6356   -1.7119   -1.7441 N   0  0  0  0  0  0  0  0  0  0  0  0
   -2.2151   -2.7037   -2.3968 C   0  0  0  0  0  0  0  0  0  0  0  0
   -2.2119   -3.9511   -1.7838 C   0  0  0  0  0  0  0  0  0  0  0  0
   -1.6214   -4.0924   -0.5566 C   0  0  0  0  0  0  0  0  0  0  0  0
   -1.0179   -3.0256    0.1128 C   0  0  0  0  0  0  0  0  0  0  0  0
   -0.4114   -3.2786    1.4158 C   0  0  0  0  0  0  0  0  0  0  0  0
   -0.6000   -4.6734    1.6932 F   0  0  0  0  0  0  0  0  0  0  0  0
    0.9544   -3.1894    1.4950 F   0  0  0  0  0  0  0  0  0  0  0  0
   -1.0741   -2.7169    2.5106 F   0  0  0  0  0  0  0  0  0  0  0  0
   -3.9849    2.2947   -1.0490 H   0  0  0  0  0  0  0  0  0  0  0  0
   -2.6086    0.3837   -1.5224 H   0  0  0  0  0  0  0  0  0  0  0  0
   -0.3943    1.2119    2.0052 H   0  0  0  0  0  0  0  0  0  0  0  0
   -1.7954    3.1935    2.4270 H   0  0  0  0  0  0  0  0  0  0  0  0
   -0.4380   -0.8380    1.2416 H   0  0  0  0  0  0  0  0  0  0  0  0
    1.5594   -1.2224   -0.3022 H   0  0  0  0  0  0  0  0  0  0  0  0
    3.1933    2.7174    0.5491 H   0  0  0  0  0  0  0  0  0  0  0  0
    5.7053    2.6516    0.7161 H   0  0  0  0  0  0  0  0  0  0  0  0
    5.7005   -1.0321   -1.2136 H   0  0  0  0  0  0  0  0  0  0  0  0
    3.2590   -1.0114   -1.3982 H   0  0  0  0  0  0  0  0  0  0  0  0
   -2.7024   -2.6146   -3.3700 H   0  0  0  0  0  0  0  0  0  0  0  0
   -2.6885   -4.7629   -2.2662 H   0  0  0  0  0  0  0  0  0  0  0  0
   -1.6467   -5.0941   -0.1374 H   0  0  0  0  0  0  0  0  0  0  0  0
  1  2  1  0
  2  3  1  0
  2  4  1  0
  2  5  1  0
  5  6  2  0
  6  7  1  0
  7  8  2  0
  8  9  1  0
  9 10  2  0
  8 11  1  0
 11 12  1  0
 12 13  1  0
 13 14  2  0
 13 15  1  0
 15 16  1  0
 16 17  2  0
 17 18  1  0
 18 19  2  0
 18 20  1  0
 20 21  1  0
 11 22  1  0
 22 23  2  0
 23 24  1  0
 24 25  2  0
 25 26  1  0
 26 27  2  0
 27 28  1  0
 28 29  1  0
 28 30  1  0
 28 31  1  0
 10  5  1  0
 21 15  2  0
 27 22  1  0
  6 32  1  0
  7 33  1  0
  9 34  1  0
 10 35  1  0
 11 36  1  1
 12 37  1  0
 16 38  1  0
 17 39  1  0
 20 40  1  0
 21 41  1  0
 24 42  1  0
 25 43  1  0
 26 44  1  0
M  END
$$$$
[H]OC([H])([H])[C@@]1([H])N([H])/C(=N\C([H])([H])c2c([H])c([H])c([H])c([H])c2[H])[C@]([H])(O[H])[C@@]([H])(O[H])[C@@]1([H])O[H]
     RDKit          3D

 37 38  0  0  0  0  0  0  0  0999 V2000
    2.9783    2.4628   -1.5178 O   0  0  0  0  0  0  0  0  0  0  0  0
    3.4820    1.3387   -0.8649 C   0  0  0  0  0  0  0  0  0  0  0  0
    2.5655    0.9110    0.2564 C   0  0  1  0  0  0  0  0  0  0  0  0
    1.2430    0.5760   -0.2216 N   0  0  0  0  0  0  0  0  0  0  0  0
    0.5038   -0.5590    0.2219 C   0  0  0  0  0  0  0  0  0  0  0  0
   -0.7777   -0.6217    0.1727 N   0  0  0  0  0  0  0  0  0  0  0  0
   -1.4741    0.5332   -0.3647 C   0  0  0  0  0  0  0  0  0  0  0  0
   -2.9473    0.3705   -0.3006 C   0  0  0  0  0  0  0  0  0  0  0  0
   -3.6820    0.7816    0.7975 C   0  0  0  0  0  0  0  0  0  0  0  0
   -5.0572    0.6243    0.8456 C   0  0  0  0  0  0  0  0  0  0  0  0
   -5.7570    0.0519   -0.1962 C   0  0  0  0  0  0  0  0  0  0  0  0
   -5.0313   -0.3602   -1.2939 C   0  0  0  0  0  0  0  0  0  0  0  0
   -3.6603   -0.2006   -1.3358 C   0  0  0  0  0  0  0  0  0  0  0  0
    1.2142   -1.7654    0.7819 C   0  0  2  0  0  0  0  0  0  0  0  0
    1.0666   -1.8547    2.1490 O   0  0  0  0  0  0  0  0  0  0  0  0
    2.7054   -1.5532    0.4891 C   0  0  1  0  0  0  0  0  0  0  0  0
    2.8638   -1.6772   -0.8730 O   0  0  0  0  0  0  0  0  0  0  0  0
    3.0882   -0.2272    1.0585 C   0  0  1  0  0  0  0  0  0  0  0  0
    4.4508   -0.1252    1.3291 O   0  0  0  0  0  0  0  0  0  0  0  0
    3.1749    3.2425   -0.9306 H   0  0  0  0  0  0  0  0  0  0  0  0
    4.4882    1.6188   -0.4979 H   0  0  0  0  0  0  0  0  0  0  0  0
    3.5648    0.5492   -1.6464 H   0  0  0  0  0  0  0  0  0  0  0  0
    2.5031    1.7996    0.9493 H   0  0  0  0  0  0  0  0  0  0  0  0
    0.8169    1.2067   -0.9291 H   0  0  0  0  0  0  0  0  0  0  0  0
   -1.1295    1.4088    0.2417 H   0  0  0  0  0  0  0  0  0  0  0  0
   -1.1645    0.6213   -1.4280 H   0  0  0  0  0  0  0  0  0  0  0  0
   -3.1360    1.2328    1.6205 H   0  0  0  0  0  0  0  0  0  0  0  0
   -5.6258    0.9481    1.7076 H   0  0  0  0  0  0  0  0  0  0  0  0
   -6.8338   -0.0632   -0.1410 H   0  0  0  0  0  0  0  0  0  0  0  0
   -5.5914   -0.8083   -2.1061 H   0  0  0  0  0  0  0  0  0  0  0  0
   -3.0904   -0.5247   -2.1990 H   0  0  0  0  0  0  0  0  0  0  0  0
    0.8940   -2.6886    0.2896 H   0  0  0  0  0  0  0  0  0  0  0  0
    0.4112   -2.5755    2.3845 H   0  0  0  0  0  0  0  0  0  0  0  0
    3.2903   -2.3547    1.0189 H   0  0  0  0  0  0  0  0  0  0  0  0
    2.0426   -1.8862   -1.3634 H   0  0  0  0  0  0  0  0  0  0  0  0
    2.5885   -0.1633    2.0716 H   0  0  0  0  0  0  0  0  0  0  0  0
    5.0223   -0.2687    0.5539 H   0  0  0  0  0  0  0  0  0  0  0  0
  1  2  1  0
  2  3  1  0
  3  4  1  0
  4  5  1  0
  5  6  2  0
  6  7  1  0
  7  8  1  0
  8  9  2  0
  9 10  1  0
 10 11  2  0
 11 12  1  0
 12 13  2  0
  5 14  1  0
 14 15  1  0
 14 16  1  0
 16 17  1  0
 16 18  1  0
 18 19  1  0
 18  3  1  0
 13  8  1  0
  1 20  1  0
  2 21  1  0
  2 22  1  0
  3 23  1  1
  4 24  1  0
  7 25  1  0
  7 26  1  0
  9 27  1  0
 10 28  1  0
 11 29  1  0
 12 30  1  0
 13 31  1  0
 14 32  1  6
 15 33  1  0
 16 34  1  1
 17 35  1  0
 18 36  1  1
 19 37  1  0
M  END
$$$$
[H]O[C@@]1([H])[C@]([H])(O[H])[C@]([H])(O[H])[C@]1([H])C([H])([H])OP(=O)(O[H])OP(=O)(O[H])OP(=O)(O[H])O[H]
     RDKit          3D

 34 34  0  0  0  0  0  0  0  0999 V2000
   -3.4826   -1.9178    1.0403 O   0  0  0  0  0  0  0  0  0  0  0  0
   -3.2856   -0.9674    0.0726 C   0  0  2  0  0  0  0  0  0  0  0  0
   -2.8881    0.4170    0.5964 C   0  0  1  0  0  0  0  0  0  0  0  0
   -1.4139    0.6097    0.4501 C   0  0  0  0  0  0  0  0  0  0  0  0
   -0.7662   -0.3772    1.1862 O   0  0  0  0  0  0  0  0  0  0  0  0
    0.9000   -0.2676    1.1015 P   0  0  0  0  0  0  0  0  0  0  0  0
    1.5681    0.4320    2.4886 O   0  0  0  0  0  0  0  0  0  0  0  0
    1.4429   -1.6960    1.0312 O   0  0  0  0  0  0  0  0  0  0  0  0
    1.3970    0.5328   -0.2836 O   0  0  0  0  0  0  0  0  0  0  0  0
    3.0549    0.8719   -0.1399 P   0  0  0  0  0  0  0  0  0  0  0  0
    3.2356    2.5453   -0.1803 O   0  0  0  0  0  0  0  0  0  0  0  0
    3.6071    0.3677    1.1797 O   0  0  0  0  0  0  0  0  0  0  0  0
    3.8259    0.1257   -1.4476 O   0  0  0  0  0  0  0  0  0  0  0  0
    5.3020   -0.5349   -0.9813 P   0  0  0  0  0  0  0  0  0  0  0  0
    6.2986    0.7106   -0.4253 O   0  0  0  0  0  0  0  0  0  0  0  0
    5.1137   -1.6469    0.2699 O   0  0  0  0  0  0  0  0  0  0  0  0
    5.9215   -1.1884   -2.1982 O   0  0  0  0  0  0  0  0  0  0  0  0
   -3.7285    0.9812   -0.5542 C   0  0  1  0  0  0  0  0  0  0  0  0
   -3.0139    1.0448   -1.7413 O   0  0  0  0  0  0  0  0  0  0  0  0
   -4.5528   -0.3061   -0.4544 C   0  0  1  0  0  0  0  0  0  0  0  0
   -5.0151   -0.7900   -1.6553 O   0  0  0  0  0  0  0  0  0  0  0  0
   -2.6776   -2.5227    1.0237 H   0  0  0  0  0  0  0  0  0  0  0  0
   -2.6420   -1.2465   -0.7849 H   0  0  0  0  0  0  0  0  0  0  0  0
   -3.3112    0.6673    1.5806 H   0  0  0  0  0  0  0  0  0  0  0  0
   -1.0802    1.6238    0.7216 H   0  0  0  0  0  0  0  0  0  0  0  0
   -1.1510    0.4311   -0.6257 H   0  0  0  0  0  0  0  0  0  0  0  0
    1.5543   -0.1928    3.2554 H   0  0  0  0  0  0  0  0  0  0  0  0
    3.1033    2.8571   -1.1067 H   0  0  0  0  0  0  0  0  0  0  0  0
    5.8759    1.0714    0.3968 H   0  0  0  0  0  0  0  0  0  0  0  0
    4.6392   -2.4367   -0.1149 H   0  0  0  0  0  0  0  0  0  0  0  0
   -4.3429    1.8416   -0.2934 H   0  0  0  0  0  0  0  0  0  0  0  0
   -3.5736    0.8752   -2.5455 H   0  0  0  0  0  0  0  0  0  0  0  0
   -5.3269   -0.2420    0.3513 H   0  0  0  0  0  0  0  0  0  0  0  0
   -4.5878   -1.6731   -1.8129 H   0  0  0  0  0  0  0  0  0  0  0  0
  1  2  1  0
  2  3  1  0
  3  4  1  0
  4  5  1  0
  5  6  1  0
  6  7  1  0
  6  8  2  0
  6  9  1  0
  9 10  1  0
 10 11  1  0
 10 12  2  0
 10 13  1  0
 13 14  1  0
 14 15  1  0
 14 16  1  0
 14 17  2  0
  3 18  1  0
 18 19  1  0
 18 20  1  0
 20 21  1  0
 20  2  1  0
  1 22  1  0
  2 23  1  6
  3 24  1  1
  4 25  1  0
  4 26  1  0
  7 27  1  0
 11 28  1  0
 15 29  1  0
 16 30  1  0
 18 31  1  1
 19 32  1  0
 20 33  1  1
 21 34  1  0
M  END
$$$$
[H]O[C@]1([H])C([H])([H])C([H])([H])[C@@]([H])(N([H])[C@]2([H])C([H])([H])C([H])([H])[C@]([H])(n3c([H])c(-c4c([H])c([H])c([H])c([H])c4[H])c4c(N([H])[H])nc([H])nc43)C([H])([H])C2([H])[H])C([H])([H])C1([H])[H]
     RDKit          3D

 61 65  0  0  0  0  0  0  0  0999 V2000
   -6.0008    1.6105    1.6106 N   0  0  0  0  0  0  0  0  0  0  0  0
   -4.5922    1.5702    1.7473 C   0  0  0  0  0  0  0  0  0  0  0  0
   -3.9381    2.4610    2.5333 N   0  0  0  0  0  0  0  0  0  0  0  0
   -2.6077    2.4069    2.7035 C   0  0  0  0  0  0  0  0  0  0  0  0
   -1.8467    1.4754    2.1158 N   0  0  0  0  0  0  0  0  0  0  0  0
   -2.4453    0.5642    1.3244 C   0  0  0  0  0  0  0  0  0  0  0  0
   -1.9587   -0.4672    0.6427 N   0  0  0  0  0  0  0  0  0  0  0  0
   -2.9653   -1.0889    0.0169 C   0  0  0  0  0  0  0  0  0  0  0  0
   -4.1619   -0.4423    0.2982 C   0  0  0  0  0  0  0  0  0  0  0  0
   -5.4695   -0.7695   -0.2306 C   0  0  0  0  0  0  0  0  0  0  0  0
   -6.1638    0.0706   -1.0624 C   0  0  0  0  0  0  0  0  0  0  0  0
   -7.4070   -0.2135   -1.5768 C   0  0  0  0  0  0  0  0  0  0  0  0
   -7.9974   -1.4099   -1.2419 C   0  0  0  0  0  0  0  0  0  0  0  0
   -7.3173   -2.2785   -0.4001 C   0  0  0  0  0  0  0  0  0  0  0  0
   -6.0761   -1.9785    0.1027 C   0  0  0  0  0  0  0  0  0  0  0  0
   -3.8251    0.5963    1.1256 C   0  0  0  0  0  0  0  0  0  0  0  0
   -0.5920   -0.9273    0.5565 C   0  0  2  0  0  0  0  0  0  0  0  0
    0.2256   -0.7589    1.7838 C   0  0  0  0  0  0  0  0  0  0  0  0
    1.4499    0.1262    1.5179 C   0  0  0  0  0  0  0  0  0  0  0  0
    2.3009   -0.5296    0.4325 C   0  0  1  0  0  0  0  0  0  0  0  0
    1.4782   -0.9801   -0.7254 C   0  0  0  0  0  0  0  0  0  0  0  0
    0.1002   -0.2994   -0.6156 C   0  0  0  0  0  0  0  0  0  0  0  0
    3.3764    0.3704    0.1195 N   0  0  0  0  0  0  0  0  0  0  0  0
    4.4622   -0.2640   -0.5916 C   0  0  1  0  0  0  0  0  0  0  0  0
    5.0274    0.7321   -1.5650 C   0  0  0  0  0  0  0  0  0  0  0  0
    5.9339    1.7355   -0.8671 C   0  0  0  0  0  0  0  0  0  0  0  0
    6.9449    1.0749    0.0308 C   0  0  2  0  0  0  0  0  0  0  0  0
    8.2523    1.4616   -0.2375 O   0  0  0  0  0  0  0  0  0  0  0  0
    6.8650   -0.4237   -0.1280 C   0  0  0  0  0  0  0  0  0  0  0  0
    5.4802   -0.8337    0.3555 C   0  0  0  0  0  0  0  0  0  0  0  0
   -6.6070    0.8237    1.9282 H   0  0  0  0  0  0  0  0  0  0  0  0
   -6.4645    2.4352    1.1925 H   0  0  0  0  0  0  0  0  0  0  0  0
   -2.1224    3.1556    3.3550 H   0  0  0  0  0  0  0  0  0  0  0  0
   -2.9219   -1.9774   -0.6288 H   0  0  0  0  0  0  0  0  0  0  0  0
   -5.7264    1.0369   -1.3587 H   0  0  0  0  0  0  0  0  0  0  0  0
   -7.9479    0.4681   -2.2399 H   0  0  0  0  0  0  0  0  0  0  0  0
   -8.9772   -1.6448   -1.6445 H   0  0  0  0  0  0  0  0  0  0  0  0
   -7.8135   -3.2218   -0.1422 H   0  0  0  0  0  0  0  0  0  0  0  0
   -5.5608   -2.6769    0.7523 H   0  0  0  0  0  0  0  0  0  0  0  0
   -0.6294   -2.0379    0.3129 H   0  0  0  0  0  0  0  0  0  0  0  0
   -0.2555   -0.4023    2.6795 H   0  0  0  0  0  0  0  0  0  0  0  0
    0.6922   -1.7536    2.0745 H   0  0  0  0  0  0  0  0  0  0  0  0
    2.0495    0.1177    2.4480 H   0  0  0  0  0  0  0  0  0  0  0  0
    1.1932    1.1540    1.2860 H   0  0  0  0  0  0  0  0  0  0  0  0
    2.7792   -1.4228    0.9343 H   0  0  0  0  0  0  0  0  0  0  0  0
    1.2479   -2.0777   -0.5609 H   0  0  0  0  0  0  0  0  0  0  0  0
    1.8790   -0.7876   -1.7211 H   0  0  0  0  0  0  0  0  0  0  0  0
    0.1903    0.7850   -0.4352 H   0  0  0  0  0  0  0  0  0  0  0  0
   -0.5044   -0.5196   -1.5183 H   0  0  0  0  0  0  0  0  0  0  0  0
    3.0587    1.2548   -0.3351 H   0  0  0  0  0  0  0  0  0  0  0  0
    4.0954   -1.1305   -1.2076 H   0  0  0  0  0  0  0  0  0  0  0  0
    5.5794    0.1743   -2.3565 H   0  0  0  0  0  0  0  0  0  0  0  0
    4.2319    1.2995   -2.0446 H   0  0  0  0  0  0  0  0  0  0  0  0
    6.4228    2.3307   -1.6583 H   0  0  0  0  0  0  0  0  0  0  0  0
    5.2544    2.4060   -0.2733 H   0  0  0  0  0  0  0  0  0  0  0  0
    6.6618    1.2920    1.0891 H   0  0  0  0  0  0  0  0  0  0  0  0
    8.2963    2.3616   -0.6337 H   0  0  0  0  0  0  0  0  0  0  0  0
    7.6612   -0.8652    0.4907 H   0  0  0  0  0  0  0  0  0  0  0  0
    6.9656   -0.7706   -1.1664 H   0  0  0  0  0  0  0  0  0  0  0  0
    5.4631   -1.9370    0.4011 H   0  0  0  0  0  0  0  0  0  0  0  0
    5.2766   -0.4603    1.3760 H   0  0  0  0  0  0  0  0  0  0  0  0
  1  2  1  0
  2  3  2  0
  3  4  1  0
  4  5  2  0
  5  6  1  0
  6  7  1  0
  7  8  1  0
  8  9  2  0
  9 10  1  0
 10 11  2  0
 11 12  1  0
 12 13  2  0
 13 14  1  0
 14 15  2  0
  9 16  1  0
  7 17  1  0
 17 18  1  0
 18 19  1  0
 19 20  1  0
 20 21  1  0
 21 22  1  0
 20 23  1  0
 23 24  1  0
 24 25  1  0
 25 26  1  0
 26 27  1  0
 27 28  1  0
 27 29  1  0
 29 30  1  0
 16  2  1  0
 22 17  1  0
 30 24  1  0
 16  6  2  0
 15 10  1  0
  1 31  1  0
  1 32  1  0
  4 33  1  0
  8 34  1  0
 11 35  1  0
 12 36  1  0
 13 37  1  0
 14 38  1  0
 15 39  1  0
 17 40  1  6
 18 41  1  0
 18 42  1  0
 19 43  1  0
 19 44  1  0
 20 45  1  1
 21 46  1  0
 21 47  1  0
 22 48  1  0
 22 49  1  0
 23 50  1  0
 24 51  1  6
 25 52  1  0
 25 53  1  0
 26 54  1  0
 26 55  1  0
 27 56  1  1
 28 57  1  0
 29 58  1  0
 29 59  1  0
 30 60  1  0
 30 61  1  0
M  END
$$$$
[H]c1nc(N([H])c2c([H])c([H])c(N3C([H])([H])C([H])([H])N(C(=O)C([H])([H])[H])C([H])([H])C3([H])[H])c([H])c2OC([H])([H])[H])nc(N([H])c2c([H])c([H])c([H])c([H])c2P(=O)(C([H])([H])[H])C([H])([H])[H])c1Cl
     RDKit          3D

 66 69  0  0  0  0  0  0  0  0999 V2000
    1.7342   -3.7477   -0.2471 C   0  0  0  0  0  0  0  0  0  0  0  0
    1.0388   -2.5301   -0.2094 O   0  0  0  0  0  0  0  0  0  0  0  0
    1.7122   -1.3130   -0.1322 C   0  0  0  0  0  0  0  0  0  0  0  0
    3.0844   -1.2975   -0.0924 C   0  0  0  0  0  0  0  0  0  0  0  0
    3.8011   -0.1284   -0.0163 C   0  0  0  0  0  0  0  0  0  0  0  0
    3.0432    1.0267    0.0169 C   0  0  0  0  0  0  0  0  0  0  0  0
    1.6722    1.0295   -0.0221 C   0  0  0  0  0  0  0  0  0  0  0  0
    0.9561   -0.1236   -0.0976 C   0  0  0  0  0  0  0  0  0  0  0  0
   -0.4480   -0.2217   -0.1314 N   0  0  0  0  0  0  0  0  0  0  0  0
   -1.4008    0.8095   -0.1620 C   0  0  0  0  0  0  0  0  0  0  0  0
   -1.1258    2.1161   -0.1719 N   0  0  0  0  0  0  0  0  0  0  0  0
   -2.0511    3.0740   -0.2018 C   0  0  0  0  0  0  0  0  0  0  0  0
   -3.3767    2.6716   -0.2234 C   0  0  0  0  0  0  0  0  0  0  0  0
   -4.6502    3.8548   -0.2712 Cl  0  0  0  0  0  0  0  0  0  0  0  0
   -3.7425    1.3099   -0.2140 C   0  0  0  0  0  0  0  0  0  0  0  0
   -5.1057    0.9849   -0.2280 N   0  0  0  0  0  0  0  0  0  0  0  0
   -5.6424   -0.3052   -0.2324 C   0  0  0  0  0  0  0  0  0  0  0  0
   -4.9608   -1.4942   -0.2370 C   0  0  0  0  0  0  0  0  0  0  0  0
   -5.6116   -2.7364   -0.2447 C   0  0  0  0  0  0  0  0  0  0  0  0
   -6.9726   -2.8252   -0.2487 C   0  0  0  0  0  0  0  0  0  0  0  0
   -7.6738   -1.6438   -0.2443 C   0  0  0  0  0  0  0  0  0  0  0  0
   -7.0486   -0.4121   -0.2366 C   0  0  0  0  0  0  0  0  0  0  0  0
   -8.0542    1.0331   -0.2328 P   0  0  0  0  0  0  0  0  0  0  0  0
   -9.8138    0.4842   -0.3339 C   0  0  0  0  0  0  0  0  0  0  0  0
   -7.9368    2.0277    1.2486 C   0  0  0  0  0  0  0  0  0  0  0  0
   -7.7937    1.9047   -1.4550 O   0  0  0  0  0  0  0  0  0  0  0  0
   -2.7106    0.4709   -0.1839 N   0  0  0  0  0  0  0  0  0  0  0  0
    5.2109   -0.0948    0.0352 N   0  0  0  0  0  0  0  0  0  0  0  0
    5.8386    1.2285   -0.0142 C   0  0  0  0  0  0  0  0  0  0  0  0
    7.3216    1.1756   -0.1699 C   0  0  0  0  0  0  0  0  0  0  0  0
    7.9594    0.0484    0.4366 N   0  0  0  0  0  0  0  0  0  0  0  0
    7.1487   -0.9448    1.1016 C   0  0  0  0  0  0  0  0  0  0  0  0
    5.9988   -1.2877    0.1373 C   0  0  0  0  0  0  0  0  0  0  0  0
    9.3629   -0.0796    0.3815 C   0  0  0  0  0  0  0  0  0  0  0  0
   10.1735    0.9436   -0.2966 C   0  0  0  0  0  0  0  0  0  0  0  0
    9.9185   -1.0648    0.9097 O   0  0  0  0  0  0  0  0  0  0  0  0
    1.0394   -4.5497   -0.5761 H   0  0  0  0  0  0  0  0  0  0  0  0
    2.2642   -3.9785    0.6886 H   0  0  0  0  0  0  0  0  0  0  0  0
    2.5298   -3.7209   -1.0470 H   0  0  0  0  0  0  0  0  0  0  0  0
    3.6273   -2.2537   -0.1278 H   0  0  0  0  0  0  0  0  0  0  0  0
    3.5920    1.9736    0.0772 H   0  0  0  0  0  0  0  0  0  0  0  0
    1.2002    1.9872    0.0137 H   0  0  0  0  0  0  0  0  0  0  0  0
   -0.8269   -1.2335   -0.1315 H   0  0  0  0  0  0  0  0  0  0  0  0
   -1.8077    4.1415   -0.2112 H   0  0  0  0  0  0  0  0  0  0  0  0
   -5.7689    1.7877   -0.2329 H   0  0  0  0  0  0  0  0  0  0  0  0
   -3.8812   -1.4849   -0.2363 H   0  0  0  0  0  0  0  0  0  0  0  0
   -5.0122   -3.6104   -0.2477 H   0  0  0  0  0  0  0  0  0  0  0  0
   -7.5062   -3.7796   -0.2551 H   0  0  0  0  0  0  0  0  0  0  0  0
   -8.7651   -1.7498   -0.2473 H   0  0  0  0  0  0  0  0  0  0  0  0
  -10.4080    1.3838   -0.4881 H   0  0  0  0  0  0  0  0  0  0  0  0
  -10.0378    0.1227    0.7116 H   0  0  0  0  0  0  0  0  0  0  0  0
   -9.9419   -0.3010   -1.0803 H   0  0  0  0  0  0  0  0  0  0  0  0
   -8.9471    2.4025    1.5145 H   0  0  0  0  0  0  0  0  0  0  0  0
   -7.6046    1.4159    2.1171 H   0  0  0  0  0  0  0  0  0  0  0  0
   -7.3238    2.9595    1.1358 H   0  0  0  0  0  0  0  0  0  0  0  0
    5.3936    1.7211   -0.9268 H   0  0  0  0  0  0  0  0  0  0  0  0
    5.4924    1.8713    0.8412 H   0  0  0  0  0  0  0  0  0  0  0  0
    7.7872    2.0892    0.3070 H   0  0  0  0  0  0  0  0  0  0  0  0
    7.6012    1.2814   -1.2537 H   0  0  0  0  0  0  0  0  0  0  0  0
    6.7524   -0.5156    2.0431 H   0  0  0  0  0  0  0  0  0  0  0  0
    7.7030   -1.8583    1.3615 H   0  0  0  0  0  0  0  0  0  0  0  0
    5.4892   -2.1709    0.5270 H   0  0  0  0  0  0  0  0  0  0  0  0
    6.4795   -1.5225   -0.8516 H   0  0  0  0  0  0  0  0  0  0  0  0
   11.2559    0.8003   -0.1645 H   0  0  0  0  0  0  0  0  0  0  0  0
    9.9290    0.8888   -1.3843 H   0  0  0  0  0  0  0  0  0  0  0  0
    9.8398    1.9599    0.0260 H   0  0  0  0  0  0  0  0  0  0  0  0
  1  2  1  0
  2  3  1  0
  3  4  2  0
  4  5  1  0
  5  6  2  0
  6  7  1  0
  7  8  2  0
  8  9  1  0
  9 10  1  0
 10 11  2  0
 11 12  1  0
 12 13  2  0
 13 14  1  0
 13 15  1  0
 15 16  1  0
 16 17  1  0
 17 18  2  0
 18 19  1  0
 19 20  2  0
 20 21  1  0
 21 22  2  0
 22 23  1  0
 23 24  1  0
 23 25  1  0
 23 26  2  0
 15 27  2  0
  5 28  1  0
 28 29  1  0
 29 30  1  0
 30 31  1  0
 31 32  1  0
 32 33  1  0
 31 34  1  0
 34 35  1  0
 34 36  2  0
  8  3  1  0
 27 10  1  0
 33 28  1  0
 22 17  1  0
  1 37  1  0
  1 38  1  0
  1 39  1  0
  4 40  1  0
  6 41  1  0
  7 42  1  0
  9 43  1  0
 12 44  1  0
 16 45  1  0
 18 46  1  0
 19 47  1  0
 20 48  1  0
 21 49  1  0
 24 50  1  0
 24 51  1  0
 24 52  1  0
 25 53  1  0
 25 54  1  0
 25 55  1  0
 29 56  1  0
 29 57  1  0
 30 58  1  0
 30 59  1  0
 32 60  1  0
 32 61  1  0
 33 62  1  0
 33 63  1  0
 35 64  1  0
 35 65  1  0
 35 66  1  0
M  END
$$$$
[H]ON(C([H])=O)C([H])([H])[C@]([H])(C(=O)N1C([H])([H])C([H])([H])C([H])([H])[C@@]1([H])C(=O)N([H])C1([H])C([H])([H])C1([H])[H])C([H])([H])C1([H])C([H])([H])C([H])([H])C([H])([H])C([H])([H])C1([H])[H]
     RDKit          3D

 57 59  0  0  0  0  0  0  0  0999 V2000
   -3.4780   -2.5579   -1.1784 O   0  0  0  0  0  0  0  0  0  0  0  0
   -2.1455   -2.5763   -1.0029 N   0  0  0  0  0  0  0  0  0  0  0  0
   -1.2833   -1.6053   -1.5044 C   0  0  0  0  0  0  0  0  0  0  0  0
   -0.6922   -0.4685   -0.8505 C   0  0  1  0  0  0  0  0  0  0  0  0
   -1.3035    0.6875   -0.2119 C   0  0  0  0  0  0  0  0  0  0  0  0
   -2.1679    0.7265    0.9520 C   0  0  0  0  0  0  0  0  0  0  0  0
   -3.4586    0.0542    0.8749 C   0  0  0  0  0  0  0  0  0  0  0  0
   -4.5380    0.6968    1.7453 C   0  0  0  0  0  0  0  0  0  0  0  0
   -4.8294    2.1085    1.2794 C   0  0  0  0  0  0  0  0  0  0  0  0
   -3.6332    2.6316    0.4687 C   0  0  0  0  0  0  0  0  0  0  0  0
   -2.4122    2.2361    1.2636 C   0  0  0  0  0  0  0  0  0  0  0  0
    0.5234   -0.9009   -0.0011 C   0  0  0  0  0  0  0  0  0  0  0  0
    0.3679   -0.9908    1.2398 O   0  0  0  0  0  0  0  0  0  0  0  0
    1.7600   -1.1890   -0.5787 N   0  0  0  0  0  0  0  0  0  0  0  0
    2.1436   -1.0875   -1.9642 C   0  0  0  0  0  0  0  0  0  0  0  0
    2.8185   -2.4588   -2.1360 C   0  0  0  0  0  0  0  0  0  0  0  0
    3.7335   -2.4657   -0.9273 C   0  0  0  0  0  0  0  0  0  0  0  0
    2.9627   -1.6804    0.0889 C   0  0  1  0  0  0  0  0  0  0  0  0
    3.7889   -0.5972    0.6196 C   0  0  0  0  0  0  0  0  0  0  0  0
    4.8539   -0.8948    1.2178 O   0  0  0  0  0  0  0  0  0  0  0  0
    3.4760    0.7803    0.5094 N   0  0  0  0  0  0  0  0  0  0  0  0
    4.2965    1.8335    1.0354 C   0  0  0  0  0  0  0  0  0  0  0  0
    4.4690    3.1133    0.2979 C   0  0  0  0  0  0  0  0  0  0  0  0
    3.6661    3.0860    1.5667 C   0  0  0  0  0  0  0  0  0  0  0  0
   -1.6574   -3.7590   -0.3451 C   0  0  0  0  0  0  0  0  0  0  0  0
   -0.4369   -3.9372   -0.1198 O   0  0  0  0  0  0  0  0  0  0  0  0
   -3.7613   -3.2714   -1.8214 H   0  0  0  0  0  0  0  0  0  0  0  0
   -1.7456   -1.1654   -2.5036 H   0  0  0  0  0  0  0  0  0  0  0  0
   -0.4458   -2.2341   -2.0429 H   0  0  0  0  0  0  0  0  0  0  0  0
   -0.0818    0.0518   -1.7414 H   0  0  0  0  0  0  0  0  0  0  0  0
   -0.4362    1.4606   -0.0763 H   0  0  0  0  0  0  0  0  0  0  0  0
   -1.8419    1.2542   -1.0950 H   0  0  0  0  0  0  0  0  0  0  0  0
   -1.6375    0.4043    1.9086 H   0  0  0  0  0  0  0  0  0  0  0  0
   -3.9059    0.0368   -0.1551 H   0  0  0  0  0  0  0  0  0  0  0  0
   -3.3858   -0.9791    1.2210 H   0  0  0  0  0  0  0  0  0  0  0  0
   -5.4597    0.1038    1.5826 H   0  0  0  0  0  0  0  0  0  0  0  0
   -4.2994    0.6601    2.8159 H   0  0  0  0  0  0  0  0  0  0  0  0
   -5.7694    2.1965    0.7207 H   0  0  0  0  0  0  0  0  0  0  0  0
   -4.8876    2.7641    2.1726 H   0  0  0  0  0  0  0  0  0  0  0  0
   -3.6585    2.1847   -0.5405 H   0  0  0  0  0  0  0  0  0  0  0  0
   -3.6963    3.7543    0.4396 H   0  0  0  0  0  0  0  0  0  0  0  0
   -2.6658    2.3571    2.3334 H   0  0  0  0  0  0  0  0  0  0  0  0
   -1.5250    2.8236    1.0354 H   0  0  0  0  0  0  0  0  0  0  0  0
    1.3655   -1.0027   -2.6990 H   0  0  0  0  0  0  0  0  0  0  0  0
    2.9094   -0.2804   -2.1152 H   0  0  0  0  0  0  0  0  0  0  0  0
    2.0262   -3.2111   -1.9782 H   0  0  0  0  0  0  0  0  0  0  0  0
    3.3512   -2.5389   -3.0835 H   0  0  0  0  0  0  0  0  0  0  0  0
    4.6476   -1.8789   -1.2281 H   0  0  0  0  0  0  0  0  0  0  0  0
    3.9796   -3.4729   -0.5750 H   0  0  0  0  0  0  0  0  0  0  0  0
    2.6413   -2.3618    0.9136 H   0  0  0  0  0  0  0  0  0  0  0  0
    2.5944    1.0349    0.0146 H   0  0  0  0  0  0  0  0  0  0  0  0
    5.2185    1.4568    1.5471 H   0  0  0  0  0  0  0  0  0  0  0  0
    3.8796    3.3415   -0.6137 H   0  0  0  0  0  0  0  0  0  0  0  0
    5.4138    3.6845    0.3464 H   0  0  0  0  0  0  0  0  0  0  0  0
    4.1037    3.4574    2.5157 H   0  0  0  0  0  0  0  0  0  0  0  0
    2.5616    3.1347    1.5064 H   0  0  0  0  0  0  0  0  0  0  0  0
   -2.3130   -4.5499   -0.0131 H   0  0  0  0  0  0  0  0  0  0  0  0
  1  2  1  0
  2  3  1  0
  3  4  1  0
  4  5  1  0
  5  6  1  0
  6  7  1  0
  7  8  1  0
  8  9  1  0
  9 10  1  0
 10 11  1  0
  4 12  1  0
 12 13  2  0
 12 14  1  0
 14 15  1  0
 15 16  1  0
 16 17  1  0
 17 18  1  0
 18 19  1  0
 19 20  2  0
 19 21  1  0
 21 22  1  0
 22 23  1  0
 23 24  1  0
  2 25  1  0
 25 26  2  0
 11  6  1  0
 18 14  1  0
 24 22  1  0
  1 27  1  0
  3 28  1  0
  3 29  1  0
  4 30  1  6
  5 31  1  0
  5 32  1  0
  6 33  1  0
  7 34  1  0
  7 35  1  0
  8 36  1  0
  8 37  1  0
  9 38  1  0
  9 39  1  0
 10 40  1  0
 10 41  1  0
 11 42  1  0
 11 43  1  0
 15 44  1  0
 15 45  1  0
 16 46  1  0
 16 47  1  0
 17 48  1  0
 17 49  1  0
 18 50  1  1
 21 51  1  0
 22 52  1  0
 23 53  1  0
 23 54  1  0
 24 55  1  0
 24 56  1  0
 25 57  1  0
M  END
$$$$
[H]c1c([H])c([H])c(N2C([H])([H])C([H])([H])N(C([H])([H])C([H])([H])C([H])([H])n3c(=O)c4c(c5c([H])c([H])c([H])c([H])c5n4[H])n([H])c3=O)C([H])([H])C2([H])[H])c(OC([H])([H])[H])c1[H]
     RDKit          3D

 59 63  0  0  0  0  0  0  0  0999 V2000
   -6.8015    0.8613   -2.3987 C   0  0  0  0  0  0  0  0  0  0  0  0
   -5.9103    0.5594   -1.3722 O   0  0  0  0  0  0  0  0  0  0  0  0
   -6.2139   -0.3540   -0.3772 C   0  0  0  0  0  0  0  0  0  0  0  0
   -7.4098   -1.0219   -0.3275 C   0  0  0  0  0  0  0  0  0  0  0  0
   -7.6827   -1.9289    0.6771 C   0  0  0  0  0  0  0  0  0  0  0  0
   -6.7542   -2.1886    1.6652 C   0  0  0  0  0  0  0  0  0  0  0  0
   -5.5644   -1.5172    1.6075 C   0  0  0  0  0  0  0  0  0  0  0  0
   -5.2482   -0.5970    0.6142 C   0  0  0  0  0  0  0  0  0  0  0  0
   -4.0460    0.1188    0.5253 N   0  0  0  0  0  0  0  0  0  0  0  0
   -3.6736    1.0910    1.5270 C   0  0  0  0  0  0  0  0  0  0  0  0
   -2.5958    2.0068    0.9114 C   0  0  0  0  0  0  0  0  0  0  0  0
   -1.3859    1.1678    0.7737 N   0  0  0  0  0  0  0  0  0  0  0  0
   -0.3297    1.9977    0.2513 C   0  0  0  0  0  0  0  0  0  0  0  0
    1.0622    1.5386    0.3956 C   0  0  0  0  0  0  0  0  0  0  0  0
    1.3643    0.2288   -0.2491 C   0  0  0  0  0  0  0  0  0  0  0  0
    2.8125   -0.0888   -0.0826 N   0  0  0  0  0  0  0  0  0  0  0  0
    3.2629   -0.7600    0.9801 C   0  0  0  0  0  0  0  0  0  0  0  0
    2.4395   -1.1220    1.8476 O   0  0  0  0  0  0  0  0  0  0  0  0
    4.5889   -1.0446    1.1188 N   0  0  0  0  0  0  0  0  0  0  0  0
    5.5003   -0.6702    0.2068 C   0  0  0  0  0  0  0  0  0  0  0  0
    6.8650   -0.8377    0.1227 C   0  0  0  0  0  0  0  0  0  0  0  0
    7.8238   -1.4340    0.9122 C   0  0  0  0  0  0  0  0  0  0  0  0
    9.1530   -1.4467    0.5655 C   0  0  0  0  0  0  0  0  0  0  0  0
    9.4931   -0.8229   -0.6326 C   0  0  0  0  0  0  0  0  0  0  0  0
    8.5575   -0.2217   -1.4363 C   0  0  0  0  0  0  0  0  0  0  0  0
    7.2271   -0.2190   -1.0715 C   0  0  0  0  0  0  0  0  0  0  0  0
    6.1240    0.2816   -1.6484 N   0  0  0  0  0  0  0  0  0  0  0  0
    5.0292    0.0273   -0.8946 C   0  0  0  0  0  0  0  0  0  0  0  0
    3.6853    0.3069   -1.0201 C   0  0  0  0  0  0  0  0  0  0  0  0
    3.2388    0.9373   -2.0098 O   0  0  0  0  0  0  0  0  0  0  0  0
   -1.7185    0.0390   -0.0625 C   0  0  0  0  0  0  0  0  0  0  0  0
   -3.1317   -0.0211   -0.5626 C   0  0  0  0  0  0  0  0  0  0  0  0
   -7.7397    1.2663   -1.9454 H   0  0  0  0  0  0  0  0  0  0  0  0
   -7.0214   -0.0222   -3.0236 H   0  0  0  0  0  0  0  0  0  0  0  0
   -6.3701    1.6868   -2.9919 H   0  0  0  0  0  0  0  0  0  0  0  0
   -8.1185   -0.8003   -1.1105 H   0  0  0  0  0  0  0  0  0  0  0  0
   -8.6182   -2.4532    0.7182 H   0  0  0  0  0  0  0  0  0  0  0  0
   -6.9172   -2.8897    2.4782 H   0  0  0  0  0  0  0  0  0  0  0  0
   -4.8189   -1.7053    2.3769 H   0  0  0  0  0  0  0  0  0  0  0  0
   -3.1110    0.5156    2.3233 H   0  0  0  0  0  0  0  0  0  0  0  0
   -4.5231    1.6533    1.9030 H   0  0  0  0  0  0  0  0  0  0  0  0
   -2.3573    2.7527    1.6809 H   0  0  0  0  0  0  0  0  0  0  0  0
   -2.9022    2.4839   -0.0060 H   0  0  0  0  0  0  0  0  0  0  0  0
   -0.4506    2.9836    0.8070 H   0  0  0  0  0  0  0  0  0  0  0  0
   -0.5513    2.2735   -0.8227 H   0  0  0  0  0  0  0  0  0  0  0  0
    1.3419    1.5369    1.4896 H   0  0  0  0  0  0  0  0  0  0  0  0
    1.7319    2.3406   -0.0413 H   0  0  0  0  0  0  0  0  0  0  0  0
    0.7928   -0.5960    0.2358 H   0  0  0  0  0  0  0  0  0  0  0  0
    1.2197    0.3053   -1.3400 H   0  0  0  0  0  0  0  0  0  0  0  0
    4.9447   -1.5653    1.9425 H   0  0  0  0  0  0  0  0  0  0  0  0
    7.5300   -1.9066    1.8330 H   0  0  0  0  0  0  0  0  0  0  0  0
    9.9504   -1.8903    1.1307 H   0  0  0  0  0  0  0  0  0  0  0  0
   10.5202   -0.8064   -0.9434 H   0  0  0  0  0  0  0  0  0  0  0  0
    8.8287    0.2690   -2.3762 H   0  0  0  0  0  0  0  0  0  0  0  0
    6.0296    0.8054   -2.5492 H   0  0  0  0  0  0  0  0  0  0  0  0
   -1.5556   -0.9098    0.5001 H   0  0  0  0  0  0  0  0  0  0  0  0
   -1.0987    0.0228   -0.9979 H   0  0  0  0  0  0  0  0  0  0  0  0
   -3.2225   -1.0082   -1.0830 H   0  0  0  0  0  0  0  0  0  0  0  0
   -3.2749    0.7916   -1.3328 H   0  0  0  0  0  0  0  0  0  0  0  0
  1  2  1  0
  2  3  1  0
  3  4  2  0
  4  5  1  0
  5  6  2  0
  6  7  1  0
  7  8  2  0
  8  9  1  0
  9 10  1  0
 10 11  1  0
 11 12  1  0
 12 13  1  0
 13 14  1  0
 14 15  1  0
 15 16  1  0
 16 17  1  0
 17 18  2  0
 17 19  1  0
 19 20  1  0
 20 21  1  0
 21 22  2  0
 22 23  1  0
 23 24  2  0
 24 25  1  0
 25 26  2  0
 26 27  1  0
 27 28  1  0
 28 29  1  0
 29 30  2  0
 12 31  1  0
 31 32  1  0
  8  3  1  0
 32  9  1  0
 29 16  1  0
 28 20  2  0
 26 21  1  0
  1 33  1  0
  1 34  1  0
  1 35  1  0
  4 36  1  0
  5 37  1  0
  6 38  1  0
  7 39  1  0
 10 40  1  0
 10 41  1  0
 11 42  1  0
 11 43  1  0
 13 44  1  0
 13 45  1  0
 14 46  1  0
 14 47  1  0
 15 48  1  0
 15 49  1  0
 19 50  1  0
 22 51  1  0
 23 52  1  0
 24 53  1  0
 25 54  1  0
 27 55  1  0
 31 56  1  0
 31 57  1  0
 32 58  1  0
 32 59  1  0
M  END
$$$$
[H]O[C@]1([H])[C@@]([H])(C([H])([H])OP(=O)(O[H])O[H])O[C@@]([H])(n2c([H])nc3c(N([H])[H])nc([H])nc32)[C@]1([H])O[H]
     RDKit          3D

 37 39  0  0  0  0  0  0  0  0999 V2000
    2.3226    0.3451   -2.9041 O   0  0  0  0  0  0  0  0  0  0  0  0
    1.5843    0.2515   -1.7405 C   0  0  2  0  0  0  0  0  0  0  0  0
    1.6995   -1.1074   -1.0775 C   0  0  1  0  0  0  0  0  0  0  0  0
    2.8959   -1.0596   -0.1181 C   0  0  0  0  0  0  0  0  0  0  0  0
    2.6791   -0.0143    0.7394 O   0  0  0  0  0  0  0  0  0  0  0  0
    3.8738    0.2148    1.8749 P   0  0  0  0  0  0  0  0  0  0  0  0
    4.0668   -1.1009    2.9166 O   0  0  0  0  0  0  0  0  0  0  0  0
    5.3690    0.6098    1.2126 O   0  0  0  0  0  0  0  0  0  0  0  0
    3.4530    1.3965    2.7520 O   0  0  0  0  0  0  0  0  0  0  0  0
    0.5322   -1.2998   -0.3736 O   0  0  0  0  0  0  0  0  0  0  0  0
   -0.4779   -0.6045   -0.9853 C   0  0  2  0  0  0  0  0  0  0  0  0
    0.1081    0.3694   -1.9471 C   0  0  2  0  0  0  0  0  0  0  0  0
   -0.1553    0.0406   -3.2908 O   0  0  0  0  0  0  0  0  0  0  0  0
   -1.3645    0.0287   -0.0263 N   0  0  0  0  0  0  0  0  0  0  0  0
   -0.9749    0.8141    0.9934 C   0  0  0  0  0  0  0  0  0  0  0  0
   -2.0727    1.2054    1.6487 N   0  0  0  0  0  0  0  0  0  0  0  0
   -3.1476    0.6794    1.0585 C   0  0  0  0  0  0  0  0  0  0  0  0
   -4.4937    0.7654    1.3285 C   0  0  0  0  0  0  0  0  0  0  0  0
   -4.9050    1.5416    2.4271 N   0  0  0  0  0  0  0  0  0  0  0  0
   -5.3453    0.0948    0.5169 N   0  0  0  0  0  0  0  0  0  0  0  0
   -4.8964   -0.6338   -0.5214 C   0  0  0  0  0  0  0  0  0  0  0  0
   -3.5752   -0.7401   -0.8160 N   0  0  0  0  0  0  0  0  0  0  0  0
   -2.7254   -0.0740   -0.0104 C   0  0  0  0  0  0  0  0  0  0  0  0
    3.1030   -0.2717   -2.8436 H   0  0  0  0  0  0  0  0  0  0  0  0
    1.8950    1.0696   -1.0579 H   0  0  0  0  0  0  0  0  0  0  0  0
    1.8646   -1.8481   -1.8859 H   0  0  0  0  0  0  0  0  0  0  0  0
    3.8313   -1.0010   -0.6967 H   0  0  0  0  0  0  0  0  0  0  0  0
    2.8572   -2.0404    0.4293 H   0  0  0  0  0  0  0  0  0  0  0  0
    3.1990   -1.3978    3.2904 H   0  0  0  0  0  0  0  0  0  0  0  0
    5.3597    0.7293    0.2453 H   0  0  0  0  0  0  0  0  0  0  0  0
   -1.0774   -1.3507   -1.5831 H   0  0  0  0  0  0  0  0  0  0  0  0
   -0.2723    1.4128   -1.7888 H   0  0  0  0  0  0  0  0  0  0  0  0
    0.5099   -0.6401   -3.5613 H   0  0  0  0  0  0  0  0  0  0  0  0
    0.0457    1.0883    1.2487 H   0  0  0  0  0  0  0  0  0  0  0  0
   -5.2859    2.4918    2.2746 H   0  0  0  0  0  0  0  0  0  0  0  0
   -4.8300    1.1708    3.3869 H   0  0  0  0  0  0  0  0  0  0  0  0
   -5.6504   -1.1357   -1.1155 H   0  0  0  0  0  0  0  0  0  0  0  0
  1  2  1  0
  2  3  1  0
  3  4  1  0
  4  5  1  0
  5  6  1  0
  6  7  1  0
  6  8  1  0
  6  9  2  0
  3 10  1  0
 10 11  1  0
 11 12  1  0
 12 13  1  0
 11 14  1  0
 14 15  1  0
 15 16  2  0
 16 17  1  0
 17 18  2  0
 18 19  1  0
 18 20  1  0
 20 21  2  0
 21 22  1  0
 22 23  2  0
 12  2  1  0
 23 14  1  0
 23 17  1  0
  1 24  1  0
  2 25  1  1
  3 26  1  6
  4 27  1  0
  4 28  1  0
  7 29  1  0
  8 30  1  0
 11 31  1  6
 12 32  1  1
 13 33  1  0
 15 34  1  0
 19 35  1  0
 19 36  1  0
 21 37  1  0
M  END
$$$$
[H]Oc1c([H])c([H])c2c(c1[H])C([H])([H])C([H])([H])[C@]1([H])[C@]2([H])C([H])([H])C([H])([H])[C@]2(C([H])([H])[H])[C@](O[H])(C(=O)C([H])([H])O[H])C([H])([H])C([H])([H])[C@]21[H]
     RDKit          3D

 50 53  0  0  0  0  0  0  0  0999 V2000
   -1.2814   -1.0710   -1.4501 C   0  0  0  0  0  0  0  0  0  0  0  0
   -1.4706    0.1107   -0.5269 C   0  0  2  0  0  0  0  0  0  0  0  0
   -0.8095    1.2901   -1.1479 C   0  0  0  0  0  0  0  0  0  0  0  0
    0.6561    0.9293   -1.3742 C   0  0  0  0  0  0  0  0  0  0  0  0
    1.3380    0.4881   -0.1366 C   0  0  1  0  0  0  0  0  0  0  0  0
    0.6138   -0.6009    0.6338 C   0  0  1  0  0  0  0  0  0  0  0  0
    1.2645   -0.7481    1.9923 C   0  0  0  0  0  0  0  0  0  0  0  0
    2.6549   -0.2169    2.0673 C   0  0  0  0  0  0  0  0  0  0  0  0
    3.4203   -0.3161    0.7971 C   0  0  0  0  0  0  0  0  0  0  0  0
    4.7175   -0.7385    0.7337 C   0  0  0  0  0  0  0  0  0  0  0  0
    5.3354   -0.7926   -0.4927 C   0  0  0  0  0  0  0  0  0  0  0  0
    6.6533   -1.2235   -0.5431 O   0  0  0  0  0  0  0  0  0  0  0  0
    4.6526   -0.4258   -1.6331 C   0  0  0  0  0  0  0  0  0  0  0  0
    3.3481   -0.0025   -1.5566 C   0  0  0  0  0  0  0  0  0  0  0  0
    2.7169    0.0593   -0.3572 C   0  0  0  0  0  0  0  0  0  0  0  0
   -0.7511   -0.0948    0.8043 C   0  0  2  0  0  0  0  0  0  0  0  0
   -1.7179   -0.8584    1.5980 C   0  0  0  0  0  0  0  0  0  0  0  0
   -2.9436    0.0614    1.4057 C   0  0  0  0  0  0  0  0  0  0  0  0
   -2.8799    0.2206   -0.1186 C   0  0  2  0  0  0  0  0  0  0  0  0
   -3.5866   -0.9143   -0.5969 O   0  0  0  0  0  0  0  0  0  0  0  0
   -3.6414    1.3728   -0.5963 C   0  0  0  0  0  0  0  0  0  0  0  0
   -3.2274    2.4760   -0.2814 O   0  0  0  0  0  0  0  0  0  0  0  0
   -4.8573    1.3776   -1.4175 C   0  0  0  0  0  0  0  0  0  0  0  0
   -5.3420    0.1602   -1.7836 O   0  0  0  0  0  0  0  0  0  0  0  0
   -1.7045   -0.7620   -2.4358 H   0  0  0  0  0  0  0  0  0  0  0  0
   -0.2528   -1.3698   -1.6235 H   0  0  0  0  0  0  0  0  0  0  0  0
   -1.9260   -1.9429   -1.1340 H   0  0  0  0  0  0  0  0  0  0  0  0
   -1.1952    1.5728   -2.1482 H   0  0  0  0  0  0  0  0  0  0  0  0
   -0.8133    2.1619   -0.4281 H   0  0  0  0  0  0  0  0  0  0  0  0
    1.1345    1.9031   -1.6749 H   0  0  0  0  0  0  0  0  0  0  0  0
    0.7364    0.2846   -2.2439 H   0  0  0  0  0  0  0  0  0  0  0  0
    1.3720    1.3688    0.5630 H   0  0  0  0  0  0  0  0  0  0  0  0
    0.7015   -1.5896    0.1521 H   0  0  0  0  0  0  0  0  0  0  0  0
    1.3073   -1.8281    2.3162 H   0  0  0  0  0  0  0  0  0  0  0  0
    0.6443   -0.2477    2.7787 H   0  0  0  0  0  0  0  0  0  0  0  0
    3.2172   -0.7152    2.8774 H   0  0  0  0  0  0  0  0  0  0  0  0
    2.5887    0.8790    2.3264 H   0  0  0  0  0  0  0  0  0  0  0  0
    5.2375   -1.0250    1.6595 H   0  0  0  0  0  0  0  0  0  0  0  0
    7.3747   -0.5068   -0.4541 H   0  0  0  0  0  0  0  0  0  0  0  0
    5.1525   -0.4704   -2.6176 H   0  0  0  0  0  0  0  0  0  0  0  0
    2.8338    0.2792   -2.4596 H   0  0  0  0  0  0  0  0  0  0  0  0
   -0.6777    0.9439    1.2437 H   0  0  0  0  0  0  0  0  0  0  0  0
   -1.4536   -0.9100    2.6810 H   0  0  0  0  0  0  0  0  0  0  0  0
   -1.9424   -1.8368    1.1649 H   0  0  0  0  0  0  0  0  0  0  0  0
   -3.8606   -0.4162    1.7336 H   0  0  0  0  0  0  0  0  0  0  0  0
   -2.6741    0.9910    1.9265 H   0  0  0  0  0  0  0  0  0  0  0  0
   -4.2722   -1.1998    0.0339 H   0  0  0  0  0  0  0  0  0  0  0  0
   -4.6708    1.9666   -2.3634 H   0  0  0  0  0  0  0  0  0  0  0  0
   -5.6198    2.0031   -0.8672 H   0  0  0  0  0  0  0  0  0  0  0  0
   -6.1000   -0.0762   -1.1624 H   0  0  0  0  0  0  0  0  0  0  0  0
  2  1  1  6
  2  3  1  0
  3  4  1  0
  4  5  1  0
  5  6  1  0
  6  7  1  0
  7  8  1  0
  8  9  1  0
  9 10  2  0
 10 11  1  0
 11 12  1  0
 11 13  2  0
 13 14  1  0
 14 15  2  0
  6 16  1  0
 16 17  1  0
 17 18  1  0
 18 19  1  0
 19 20  1  6
 19 21  1  0
 21 22  2  0
 21 23  1  0
 23 24  1  0
 16  2  1  0
 19  2  1  0
 15  5  1  0
 15  9  1  0
  1 25  1  0
  1 26  1  0
  1 27  1  0
  3 28  1  0
  3 29  1  0
  4 30  1  0
  4 31  1  0
  5 32  1  1
  6 33  1  6
  7 34  1  0
  7 35  1  0
  8 36  1  0
  8 37  1  0
 10 38  1  0
 12 39  1  0
 13 40  1  0
 14 41  1  0
 16 42  1  1
 17 43  1  0
 17 44  1  0
 18 45  1  0
 18 46  1  0
 20 47  1  0
 23 48  1  0
 23 49  1  0
 24 50  1  0
M  END
$$$$
[H]c1c([H])c(Cl)c(-c2c([H])c3c([H])nc(N([H])c4c([H])c(OC([H])([H])[H])c(OC([H])([H])[H])c(OC([H])([H])[H])c4[H])nc3n(C([H])([H])[H])c2=O)c(Cl)c1[H]
     RDKit          3D

 53 56  0  0  0  0  0  0  0  0999 V2000
    6.1786   -1.8212    2.8822 C   0  0  0  0  0  0  0  0  0  0  0  0
    6.3138   -1.2426    1.6090 O   0  0  0  0  0  0  0  0  0  0  0  0
    5.2427   -0.7320    0.8883 C   0  0  0  0  0  0  0  0  0  0  0  0
    3.9472   -0.7404    1.3444 C   0  0  0  0  0  0  0  0  0  0  0  0
    2.9027   -0.2058    0.5637 C   0  0  0  0  0  0  0  0  0  0  0  0
    1.6115   -0.2281    1.1048 N   0  0  0  0  0  0  0  0  0  0  0  0
    0.3819   -0.1586    0.4120 C   0  0  0  0  0  0  0  0  0  0  0  0
    0.2180   -0.0706   -0.9041 N   0  0  0  0  0  0  0  0  0  0  0  0
   -0.9608   -0.0055   -1.5430 C   0  0  0  0  0  0  0  0  0  0  0  0
   -2.1115   -0.0307   -0.7847 C   0  0  0  0  0  0  0  0  0  0  0  0
   -3.3626    0.0315   -1.3552 C   0  0  0  0  0  0  0  0  0  0  0  0
   -4.4739    0.0015   -0.5349 C   0  0  0  0  0  0  0  0  0  0  0  0
   -5.8149    0.0635   -1.0741 C   0  0  0  0  0  0  0  0  0  0  0  0
   -6.4677   -1.1013   -1.4035 C   0  0  0  0  0  0  0  0  0  0  0  0
   -5.7277   -2.6625   -1.1915 Cl  0  0  0  0  0  0  0  0  0  0  0  0
   -7.7685   -1.0701   -1.9281 C   0  0  0  0  0  0  0  0  0  0  0  0
   -8.3968    0.1463   -2.1142 C   0  0  0  0  0  0  0  0  0  0  0  0
   -7.7521    1.3169   -1.7877 C   0  0  0  0  0  0  0  0  0  0  0  0
   -6.4665    1.2530   -1.2711 C   0  0  0  0  0  0  0  0  0  0  0  0
   -5.6623    2.7503   -0.8618 Cl  0  0  0  0  0  0  0  0  0  0  0  0
   -4.3270   -0.0894    0.8309 C   0  0  0  0  0  0  0  0  0  0  0  0
   -5.3661   -0.1153    1.5648 O   0  0  0  0  0  0  0  0  0  0  0  0
   -3.1206   -0.1485    1.3669 N   0  0  0  0  0  0  0  0  0  0  0  0
   -2.9706   -0.2439    2.8023 C   0  0  0  0  0  0  0  0  0  0  0  0
   -1.9967   -0.1213    0.5876 C   0  0  0  0  0  0  0  0  0  0  0  0
   -0.7812   -0.1818    1.1420 N   0  0  0  0  0  0  0  0  0  0  0  0
    3.1560    0.3329   -0.6633 C   0  0  0  0  0  0  0  0  0  0  0  0
    4.4821    0.3431   -1.1346 C   0  0  0  0  0  0  0  0  0  0  0  0
    4.7808    0.8810   -2.3767 O   0  0  0  0  0  0  0  0  0  0  0  0
    3.7243    1.4134   -3.1482 C   0  0  0  0  0  0  0  0  0  0  0  0
    5.4928   -0.1856   -0.3555 C   0  0  0  0  0  0  0  0  0  0  0  0
    6.7944   -0.1634   -0.8438 O   0  0  0  0  0  0  0  0  0  0  0  0
    7.6121    0.9778   -0.5498 C   0  0  0  0  0  0  0  0  0  0  0  0
    5.6586   -1.1759    3.6084 H   0  0  0  0  0  0  0  0  0  0  0  0
    7.2166   -2.0389    3.2512 H   0  0  0  0  0  0  0  0  0  0  0  0
    5.6171   -2.7837    2.8274 H   0  0  0  0  0  0  0  0  0  0  0  0
    3.7200   -1.1607    2.3105 H   0  0  0  0  0  0  0  0  0  0  0  0
    1.5722   -0.3013    2.1803 H   0  0  0  0  0  0  0  0  0  0  0  0
   -1.0291    0.0654   -2.6236 H   0  0  0  0  0  0  0  0  0  0  0  0
   -3.4819    0.1039   -2.4435 H   0  0  0  0  0  0  0  0  0  0  0  0
   -8.2759   -1.9918   -2.1850 H   0  0  0  0  0  0  0  0  0  0  0  0
   -9.4085    0.2288   -2.5189 H   0  0  0  0  0  0  0  0  0  0  0  0
   -8.2103    2.2914   -1.9185 H   0  0  0  0  0  0  0  0  0  0  0  0
   -3.8645   -0.6360    3.2984 H   0  0  0  0  0  0  0  0  0  0  0  0
   -2.7691    0.7820    3.2146 H   0  0  0  0  0  0  0  0  0  0  0  0
   -2.0766   -0.8796    2.9846 H   0  0  0  0  0  0  0  0  0  0  0  0
    2.4270    0.7758   -1.3226 H   0  0  0  0  0  0  0  0  0  0  0  0
    3.2154    2.2533   -2.6294 H   0  0  0  0  0  0  0  0  0  0  0  0
    2.9170    0.6489   -3.3254 H   0  0  0  0  0  0  0  0  0  0  0  0
    4.0621    1.7407   -4.1440 H   0  0  0  0  0  0  0  0  0  0  0  0
    8.0562    0.8366    0.4555 H   0  0  0  0  0  0  0  0  0  0  0  0
    6.9815    1.8932   -0.4874 H   0  0  0  0  0  0  0  0  0  0  0  0
    8.3609    1.1556   -1.3355 H   0  0  0  0  0  0  0  0  0  0  0  0
  1  2  1  0
  2  3  1  0
  3  4  2  0
  4  5  1  0
  5  6  1  0
  6  7  1  0
  7  8  2  0
  8  9  1  0
  9 10  2  0
 10 11  1  0
 11 12  2  0
 12 13  1  0
 13 14  2  0
 14 15  1  0
 14 16  1  0
 16 17  2  0
 17 18  1  0
 18 19  2  0
 19 20  1  0
 12 21  1  0
 21 22  2  0
 21 23  1  0
 23 24  1  0
 23 25  1  0
 25 26  2  0
  5 27  2  0
 27 28  1  0
 28 29  1  0
 29 30  1  0
 28 31  2  0
 31 32  1  0
 32 33  1  0
 31  3  1  0
 26  7  1  0
 25 10  1  0
 19 13  1  0
  1 34  1  0
  1 35  1  0
  1 36  1  0
  4 37  1  0
  6 38  1  0
  9 39  1  0
 11 40  1  0
 16 41  1  0
 17 42  1  0
 18 43  1  0
 24 44  1  0
 24 45  1  0
 24 46  1  0
 27 47  1  0
 30 48  1  0
 30 49  1  0
 30 50  1  0
 33 51  1  0
 33 52  1  0
 33 53  1  0
M  END
$$$$
[H]OC(=O)[C@]1([H])N([H])C(=O)[C@]([H])([C@@]([H])(C([H])([H])[H])C([H])([H])C([H])([H])[H])N([H])C(=O)[C@]([H])(C([H])([H])c2c([H])c([H])c([H])c([H])c2[H])N([H])C(=O)[C@@]([H])(N([H])C(=O)[C@@]([H])(N([H])[H])C([H])([H])c2c([H])c([H])c(O[H])c([H])c2[H])C1(C([H])([H])[H])C([H])([H])[H]
     RDKit          3D

 84 86  0  0  0  0  0  0  0  0999 V2000
   -5.8647   -3.6496   -1.4230 C   0  0  0  0  0  0  0  0  0  0  0  0
   -6.1043   -2.4203   -0.5826 C   0  0  0  0  0  0  0  0  0  0  0  0
   -5.0195   -2.0643    0.3541 C   0  0  2  0  0  0  0  0  0  0  0  0
   -5.6552   -0.8727    1.2195 C   0  0  0  0  0  0  0  0  0  0  0  0
   -3.7977   -1.3819   -0.0939 C   0  0  2  0  0  0  0  0  0  0  0  0
   -3.9633   -0.0279   -0.6374 N   0  0  0  0  0  0  0  0  0  0  0  0
   -2.9785    0.9949   -0.3327 C   0  0  0  0  0  0  0  0  0  0  0  0
   -2.5457    1.6330   -1.3467 O   0  0  0  0  0  0  0  0  0  0  0  0
   -2.4782    1.3358    0.9819 C   0  0  2  0  0  0  0  0  0  0  0  0
   -3.1061    2.6362    1.4520 C   0  0  0  0  0  0  0  0  0  0  0  0
   -2.9036    3.8296    0.7138 C   0  0  0  0  0  0  0  0  0  0  0  0
   -3.7347    4.2351   -0.3163 C   0  0  0  0  0  0  0  0  0  0  0  0
   -3.6060    5.3884   -1.0357 C   0  0  0  0  0  0  0  0  0  0  0  0
   -2.5717    6.2343   -0.7366 C   0  0  0  0  0  0  0  0  0  0  0  0
   -1.6943    5.8877    0.2936 C   0  0  0  0  0  0  0  0  0  0  0  0
   -1.8726    4.7131    0.9922 C   0  0  0  0  0  0  0  0  0  0  0  0
   -1.0704    1.2893    1.2187 N   0  0  0  0  0  0  0  0  0  0  0  0
   -0.1106    0.2669    1.1067 C   0  0  0  0  0  0  0  0  0  0  0  0
    0.3354   -0.1980    2.2418 O   0  0  0  0  0  0  0  0  0  0  0  0
    0.4999   -0.3824   -0.0374 C   0  0  1  0  0  0  0  0  0  0  0  0
    1.7988    0.0667   -0.4960 N   0  0  0  0  0  0  0  0  0  0  0  0
    2.8566    0.4575    0.2867 C   0  0  0  0  0  0  0  0  0  0  0  0
    2.7595    0.5271    1.5608 O   0  0  0  0  0  0  0  0  0  0  0  0
    4.2005    0.8409   -0.2034 C   0  0  1  0  0  0  0  0  0  0  0  0
    4.8425    1.8799    0.5081 N   0  0  0  0  0  0  0  0  0  0  0  0
    5.0701   -0.4441   -0.1402 C   0  0  0  0  0  0  0  0  0  0  0  0
    6.4552   -0.1563   -0.4278 C   0  0  0  0  0  0  0  0  0  0  0  0
    7.2995   -0.1046    0.7066 C   0  0  0  0  0  0  0  0  0  0  0  0
    8.6031    0.2571    0.5687 C   0  0  0  0  0  0  0  0  0  0  0  0
    9.1585    0.5879   -0.6504 C   0  0  0  0  0  0  0  0  0  0  0  0
   10.4983    0.9666   -0.7515 O   0  0  0  0  0  0  0  0  0  0  0  0
    8.2967    0.5270   -1.7359 C   0  0  0  0  0  0  0  0  0  0  0  0
    6.9696    0.1622   -1.6307 C   0  0  0  0  0  0  0  0  0  0  0  0
    0.5375   -1.9128   -0.0067 C   0  0  0  0  0  0  0  0  0  0  0  0
    0.9801   -2.2163   -1.4542 C   0  0  0  0  0  0  0  0  0  0  0  0
    1.6430   -2.4651    0.8392 C   0  0  0  0  0  0  0  0  0  0  0  0
   -0.8053   -2.4139    0.2808 C   0  0  1  0  0  0  0  0  0  0  0  0
   -1.6322   -2.4164   -0.9094 N   0  0  0  0  0  0  0  0  0  0  0  0
   -2.9367   -2.0293   -1.1178 C   0  0  0  0  0  0  0  0  0  0  0  0
   -3.4404   -2.2263   -2.2619 O   0  0  0  0  0  0  0  0  0  0  0  0
   -1.0086   -3.6860    0.9543 C   0  0  0  0  0  0  0  0  0  0  0  0
   -0.3782   -4.8785    0.5248 O   0  0  0  0  0  0  0  0  0  0  0  0
   -1.7838   -3.7966    1.9398 O   0  0  0  0  0  0  0  0  0  0  0  0
   -5.9044   -3.5057   -2.4972 H   0  0  0  0  0  0  0  0  0  0  0  0
   -6.6978   -4.4269   -1.2019 H   0  0  0  0  0  0  0  0  0  0  0  0
   -4.9633   -4.2406   -1.0907 H   0  0  0  0  0  0  0  0  0  0  0  0
   -7.0447   -2.5605   -0.0250 H   0  0  0  0  0  0  0  0  0  0  0  0
   -6.3509   -1.5417   -1.2748 H   0  0  0  0  0  0  0  0  0  0  0  0
   -4.8306   -2.8320    1.0813 H   0  0  0  0  0  0  0  0  0  0  0  0
   -5.9859   -0.0938    0.5349 H   0  0  0  0  0  0  0  0  0  0  0  0
   -6.5391   -1.3701    1.6729 H   0  0  0  0  0  0  0  0  0  0  0  0
   -4.9456   -0.6382    1.9862 H   0  0  0  0  0  0  0  0  0  0  0  0
   -3.1853   -1.2136    0.8500 H   0  0  0  0  0  0  0  0  0  0  0  0
   -4.7858    0.1486   -1.2301 H   0  0  0  0  0  0  0  0  0  0  0  0
   -3.0137    0.5952    1.6983 H   0  0  0  0  0  0  0  0  0  0  0  0
   -2.8043    2.7291    2.5441 H   0  0  0  0  0  0  0  0  0  0  0  0
   -4.2180    2.3690    1.5751 H   0  0  0  0  0  0  0  0  0  0  0  0
   -4.5741    3.5845   -0.5797 H   0  0  0  0  0  0  0  0  0  0  0  0
   -4.3267    5.6197   -1.8313 H   0  0  0  0  0  0  0  0  0  0  0  0
   -2.4514    7.1650   -1.3041 H   0  0  0  0  0  0  0  0  0  0  0  0
   -0.8932    6.5859    0.4892 H   0  0  0  0  0  0  0  0  0  0  0  0
   -1.1511    4.5290    1.7586 H   0  0  0  0  0  0  0  0  0  0  0  0
   -0.6456    2.2356    1.5727 H   0  0  0  0  0  0  0  0  0  0  0  0
   -0.2020   -0.1636   -0.9007 H   0  0  0  0  0  0  0  0  0  0  0  0
    1.9668    0.0730   -1.5629 H   0  0  0  0  0  0  0  0  0  0  0  0
    4.2223    1.0683   -1.3127 H   0  0  0  0  0  0  0  0  0  0  0  0
    5.8127    1.8811    0.7362 H   0  0  0  0  0  0  0  0  0  0  0  0
    4.5516    2.8413    0.1847 H   0  0  0  0  0  0  0  0  0  0  0  0
    4.8823   -0.8044    0.9070 H   0  0  0  0  0  0  0  0  0  0  0  0
    4.6236   -1.2155   -0.8185 H   0  0  0  0  0  0  0  0  0  0  0  0
    6.8969   -0.3761    1.6891 H   0  0  0  0  0  0  0  0  0  0  0  0
    9.2530    0.3031    1.4631 H   0  0  0  0  0  0  0  0  0  0  0  0
   10.6313    1.9840   -0.6185 H   0  0  0  0  0  0  0  0  0  0  0  0
    8.6880    0.7965   -2.7152 H   0  0  0  0  0  0  0  0  0  0  0  0
    6.3369    0.1297   -2.5531 H   0  0  0  0  0  0  0  0  0  0  0  0
    0.5245   -1.5031   -2.1649 H   0  0  0  0  0  0  0  0  0  0  0  0
    0.9123   -3.2685   -1.6858 H   0  0  0  0  0  0  0  0  0  0  0  0
    2.0763   -1.9515   -1.4828 H   0  0  0  0  0  0  0  0  0  0  0  0
    1.4610   -3.5660    0.8877 H   0  0  0  0  0  0  0  0  0  0  0  0
    1.6759   -2.1363    1.8687 H   0  0  0  0  0  0  0  0  0  0  0  0
    2.5988   -2.3593    0.2953 H   0  0  0  0  0  0  0  0  0  0  0  0
   -1.2499   -1.6053    0.9960 H   0  0  0  0  0  0  0  0  0  0  0  0
   -1.0861   -2.8257   -1.7458 H   0  0  0  0  0  0  0  0  0  0  0  0
   -1.0067   -5.4137   -0.1369 H   0  0  0  0  0  0  0  0  0  0  0  0
  1  2  1  0
  2  3  1  0
  3  4  1  0
  3  5  1  0
  5  6  1  0
  6  7  1  0
  7  8  2  0
  7  9  1  0
  9 10  1  0
 10 11  1  0
 11 12  2  0
 12 13  1  0
 13 14  2  0
 14 15  1  0
 15 16  2  0
  9 17  1  0
 17 18  1  0
 18 19  2  0
 18 20  1  0
 20 21  1  0
 21 22  1  0
 22 23  2  0
 22 24  1  0
 24 25  1  0
 24 26  1  0
 26 27  1  0
 27 28  2  0
 28 29  1  0
 29 30  2  0
 30 31  1  0
 30 32  1  0
 32 33  2  0
 20 34  1  0
 34 35  1  0
 34 36  1  0
 34 37  1  0
 37 38  1  0
 38 39  1  0
 39 40  2  0
 37 41  1  0
 41 42  1  0
 41 43  2  0
 39  5  1  0
 16 11  1  0
 33 27  1  0
  1 44  1  0
  1 45  1  0
  1 46  1  0
  2 47  1  0
  2 48  1  0
  3 49  1  1
  4 50  1  0
  4 51  1  0
  4 52  1  0
  5 53  1  1
  6 54  1  0
  9 55  1  1
 10 56  1  0
 10 57  1  0
 12 58  1  0
 13 59  1  0
 14 60  1  0
 15 61  1  0
 16 62  1  0
 17 63  1  0
 20 64  1  6
 21 65  1  0
 24 66  1  6
 25 67  1  0
 25 68  1  0
 26 69  1  0
 26 70  1  0
 28 71  1  0
 29 72  1  0
 31 73  1  0
 32 74  1  0
 33 75  1  0
 35 76  1  0
 35 77  1  0
 35 78  1  0
 36 79  1  0
 36 80  1  0
 36 81  1  0
 37 82  1  1
 38 83  1  0
 42 84  1  0
M  END
$$$$
[H]c1c(N([H])c2c([H])c(C([H])([H])[H])nn2[H])nc(Sc2c([H])c([H])c(N([H])C(=O)C3([H])C([H])([H])C3([H])[H])c([H])c2[H])nc1N1C([H])([H])C([H])([H])N(C([H])([H])[H])C([H])([H])C1([H])[H]
     RDKit          3D

 61 65  0  0  0  0  0  0  0  0999 V2000
   -4.2646   -5.6180   -0.8930 C   0  0  0  0  0  0  0  0  0  0  0  0
   -4.0388   -4.9096    0.3469 N   0  0  0  0  0  0  0  0  0  0  0  0
   -4.9696   -3.8770    0.6179 C   0  0  0  0  0  0  0  0  0  0  0  0
   -4.4568   -2.4780    0.3905 C   0  0  0  0  0  0  0  0  0  0  0  0
   -3.1604   -2.2721    0.9830 N   0  0  0  0  0  0  0  0  0  0  0  0
   -2.4057   -3.4027    1.4241 C   0  0  0  0  0  0  0  0  0  0  0  0
   -2.6716   -4.6457    0.6165 C   0  0  0  0  0  0  0  0  0  0  0  0
   -2.6280   -0.9703    1.1317 C   0  0  0  0  0  0  0  0  0  0  0  0
   -3.3065    0.1623    0.7177 C   0  0  0  0  0  0  0  0  0  0  0  0
   -2.7272    1.4220    0.8916 C   0  0  0  0  0  0  0  0  0  0  0  0
   -3.4153    2.5840    0.4694 N   0  0  0  0  0  0  0  0  0  0  0  0
   -2.9879    3.9099    0.5662 C   0  0  0  0  0  0  0  0  0  0  0  0
   -1.8261    4.4015    1.0807 C   0  0  0  0  0  0  0  0  0  0  0  0
   -1.8242    5.7979    0.9682 C   0  0  0  0  0  0  0  0  0  0  0  0
   -0.7519    6.7000    1.4065 C   0  0  0  0  0  0  0  0  0  0  0  0
   -2.9975    6.0783    0.3855 N   0  0  0  0  0  0  0  0  0  0  0  0
   -3.6831    4.9846    0.1471 N   0  0  0  0  0  0  0  0  0  0  0  0
   -1.5435    1.4581    1.4516 N   0  0  0  0  0  0  0  0  0  0  0  0
   -0.8398    0.3793    1.8733 C   0  0  0  0  0  0  0  0  0  0  0  0
    0.7577    0.5455    2.6192 S   0  0  0  0  0  0  0  0  0  0  0  0
    2.0730    0.4998    1.4305 C   0  0  0  0  0  0  0  0  0  0  0  0
    2.5763    1.6046    0.7996 C   0  0  0  0  0  0  0  0  0  0  0  0
    3.6213    1.4805   -0.1305 C   0  0  0  0  0  0  0  0  0  0  0  0
    4.1788    0.2819   -0.4490 C   0  0  0  0  0  0  0  0  0  0  0  0
    5.2261    0.1244   -1.3846 N   0  0  0  0  0  0  0  0  0  0  0  0
    5.8169    1.1027   -2.1894 C   0  0  0  0  0  0  0  0  0  0  0  0
    5.5218    2.3221   -2.2325 O   0  0  0  0  0  0  0  0  0  0  0  0
    6.9272    0.6974   -3.1173 C   0  0  0  0  0  0  0  0  0  0  0  0
    6.9786   -0.6854   -3.6287 C   0  0  0  0  0  0  0  0  0  0  0  0
    7.8874   -0.2702   -2.5303 C   0  0  0  0  0  0  0  0  0  0  0  0
    3.6565   -0.8432    0.2023 C   0  0  0  0  0  0  0  0  0  0  0  0
    2.6430   -0.7071    1.1021 C   0  0  0  0  0  0  0  0  0  0  0  0
   -1.4192   -0.8072    1.6934 N   0  0  0  0  0  0  0  0  0  0  0  0
   -5.2860   -5.5458   -1.2607 H   0  0  0  0  0  0  0  0  0  0  0  0
   -4.0438   -6.6889   -0.6970 H   0  0  0  0  0  0  0  0  0  0  0  0
   -3.5203   -5.2881   -1.6729 H   0  0  0  0  0  0  0  0  0  0  0  0
   -5.8463   -4.0096   -0.0641 H   0  0  0  0  0  0  0  0  0  0  0  0
   -5.3882   -3.9471    1.6460 H   0  0  0  0  0  0  0  0  0  0  0  0
   -5.1974   -1.7757    0.8383 H   0  0  0  0  0  0  0  0  0  0  0  0
   -4.4054   -2.2132   -0.6885 H   0  0  0  0  0  0  0  0  0  0  0  0
   -1.3288   -3.1638    1.3038 H   0  0  0  0  0  0  0  0  0  0  0  0
   -2.5603   -3.6014    2.5090 H   0  0  0  0  0  0  0  0  0  0  0  0
   -2.1263   -4.6198   -0.3623 H   0  0  0  0  0  0  0  0  0  0  0  0
   -2.2259   -5.5035    1.1720 H   0  0  0  0  0  0  0  0  0  0  0  0
   -4.2768    0.0432    0.2657 H   0  0  0  0  0  0  0  0  0  0  0  0
   -4.3882    2.4468    0.0162 H   0  0  0  0  0  0  0  0  0  0  0  0
   -0.9930    3.8851    1.5204 H   0  0  0  0  0  0  0  0  0  0  0  0
    0.0279    6.8369    0.6278 H   0  0  0  0  0  0  0  0  0  0  0  0
   -0.3297    6.3446    2.3712 H   0  0  0  0  0  0  0  0  0  0  0  0
   -1.1768    7.7166    1.6036 H   0  0  0  0  0  0  0  0  0  0  0  0
   -4.6364    5.0189   -0.3108 H   0  0  0  0  0  0  0  0  0  0  0  0
    2.1491    2.5815    1.0345 H   0  0  0  0  0  0  0  0  0  0  0  0
    3.9423    2.4136   -0.5646 H   0  0  0  0  0  0  0  0  0  0  0  0
    5.6195   -0.8577   -1.4942 H   0  0  0  0  0  0  0  0  0  0  0  0
    7.3829    1.4795   -3.7486 H   0  0  0  0  0  0  0  0  0  0  0  0
    6.1732   -1.4279   -3.3745 H   0  0  0  0  0  0  0  0  0  0  0  0
    7.4107   -0.8935   -4.6283 H   0  0  0  0  0  0  0  0  0  0  0  0
    7.7380   -0.6937   -1.5244 H   0  0  0  0  0  0  0  0  0  0  0  0
    8.9683   -0.1884   -2.8070 H   0  0  0  0  0  0  0  0  0  0  0  0
    4.0993   -1.7971   -0.0507 H   0  0  0  0  0  0  0  0  0  0  0  0
    2.2717   -1.6019    1.5799 H   0  0  0  0  0  0  0  0  0  0  0  0
  1  2  1  0
  2  3  1  0
  3  4  1  0
  4  5  1  0
  5  6  1  0
  6  7  1  0
  5  8  1  0
  8  9  2  0
  9 10  1  0
 10 11  1  0
 11 12  1  0
 12 13  2  0
 13 14  1  0
 14 15  1  0
 14 16  2  0
 16 17  1  0
 10 18  2  0
 18 19  1  0
 19 20  1  0
 20 21  1  0
 21 22  2  0
 22 23  1  0
 23 24  2  0
 24 25  1  0
 25 26  1  0
 26 27  2  0
 26 28  1  0
 28 29  1  0
 29 30  1  0
 24 31  1  0
 31 32  2  0
 19 33  2  0
  7  2  1  0
 33  8  1  0
 17 12  1  0
 32 21  1  0
 30 28  1  0
  1 34  1  0
  1 35  1  0
  1 36  1  0
  3 37  1  0
  3 38  1  0
  4 39  1  0
  4 40  1  0
  6 41  1  0
  6 42  1  0
  7 43  1  0
  7 44  1  0
  9 45  1  0
 11 46  1  0
 13 47  1  0
 15 48  1  0
 15 49  1  0
 15 50  1  0
 17 51  1  0
 22 52  1  0
 23 53  1  0
 25 54  1  0
 28 55  1  0
 29 56  1  0
 29 57  1  0
 30 58  1  0
 30 59  1  0
 31 60  1  0
 32 61  1  0
M  END
$$$$
[H]Oc1c([H])c([H])c(C([H])([H])[C@@]([H])(C(=O)N2C([H])([H])C([H])([H])C([H])([H])[C@@]2([H])C(=O)N([H])[C@]([H])(C(=O)N([H])[C@]([H])(C(=O)N([H])[H])C([H])([H])c2c([H])c([H])c([H])c([H])c2[H])C([H])([H])C([H])(C([H])([H])[H])C([H])([H])[H])N([H])[H])c([H])c1[H]
     RDKit          3D

 78 80  0  0  0  0  0  0  0  0999 V2000
   -3.5295   -2.8235    2.9305 C   0  0  0  0  0  0  0  0  0  0  0  0
   -2.1370   -3.1894    2.5604 C   0  0  0  0  0  0  0  0  0  0  0  0
   -2.2494   -4.4491    1.6893 C   0  0  0  0  0  0  0  0  0  0  0  0
   -1.2106   -2.2089    2.0548 C   0  0  0  0  0  0  0  0  0  0  0  0
   -1.3002   -1.4308    0.8245 C   0  0  2  0  0  0  0  0  0  0  0  0
   -0.0222   -0.6161    0.8301 N   0  0  0  0  0  0  0  0  0  0  0  0
    1.0468   -0.8714   -0.0101 C   0  0  0  0  0  0  0  0  0  0  0  0
    1.0192   -1.7946   -0.8384 O   0  0  0  0  0  0  0  0  0  0  0  0
    2.2515   -0.0134    0.0971 C   0  0  2  0  0  0  0  0  0  0  0  0
    1.8752    1.3140   -0.6000 C   0  0  0  0  0  0  0  0  0  0  0  0
    1.8988    0.8268   -2.0581 C   0  0  0  0  0  0  0  0  0  0  0  0
    2.9688   -0.2330   -2.0991 C   0  0  0  0  0  0  0  0  0  0  0  0
    3.3502   -0.4048   -0.7230 N   0  0  0  0  0  0  0  0  0  0  0  0
    4.6033   -0.8617   -0.2939 C   0  0  0  0  0  0  0  0  0  0  0  0
    5.4466   -1.2021   -1.1876 O   0  0  0  0  0  0  0  0  0  0  0  0
    5.0793   -1.0028    1.0997 C   0  0  1  0  0  0  0  0  0  0  0  0
    6.2708   -1.8471    1.1543 N   0  0  0  0  0  0  0  0  0  0  0  0
    5.4625    0.3878    1.5887 C   0  0  0  0  0  0  0  0  0  0  0  0
    6.5282    1.0014    0.7911 C   0  0  0  0  0  0  0  0  0  0  0  0
    6.2725    1.7739   -0.3349 C   0  0  0  0  0  0  0  0  0  0  0  0
    7.3399    2.3249   -1.0446 C   0  0  0  0  0  0  0  0  0  0  0  0
    8.6448    2.1309   -0.6696 C   0  0  0  0  0  0  0  0  0  0  0  0
    9.6992    2.6829   -1.3808 O   0  0  0  0  0  0  0  0  0  0  0  0
    8.8943    1.3630    0.4496 C   0  0  0  0  0  0  0  0  0  0  0  0
    7.8328    0.8053    1.1710 C   0  0  0  0  0  0  0  0  0  0  0  0
   -2.3221   -0.4626    0.5596 C   0  0  0  0  0  0  0  0  0  0  0  0
   -1.9887    0.8032    0.6053 O   0  0  0  0  0  0  0  0  0  0  0  0
   -3.6483   -0.6788    0.2354 N   0  0  0  0  0  0  0  0  0  0  0  0
   -4.5972    0.4121   -0.0779 C   0  0  1  0  0  0  0  0  0  0  0  0
   -5.2062    0.1313   -1.4077 C   0  0  0  0  0  0  0  0  0  0  0  0
   -6.1599    1.1440   -1.8539 C   0  0  0  0  0  0  0  0  0  0  0  0
   -7.5403    1.0256   -1.7815 C   0  0  0  0  0  0  0  0  0  0  0  0
   -8.3881    1.9956   -2.2192 C   0  0  0  0  0  0  0  0  0  0  0  0
   -7.9369    3.1761   -2.7719 C   0  0  0  0  0  0  0  0  0  0  0  0
   -6.5751    3.3307   -2.8606 C   0  0  0  0  0  0  0  0  0  0  0  0
   -5.7252    2.3523   -2.4183 C   0  0  0  0  0  0  0  0  0  0  0  0
   -5.5560    0.5929    0.9879 C   0  0  0  0  0  0  0  0  0  0  0  0
   -6.5226    1.6116    1.0465 N   0  0  0  0  0  0  0  0  0  0  0  0
   -5.5561   -0.2137    1.9765 O   0  0  0  0  0  0  0  0  0  0  0  0
   -4.2791   -2.9774    2.1231 H   0  0  0  0  0  0  0  0  0  0  0  0
   -3.6018   -1.8134    3.4053 H   0  0  0  0  0  0  0  0  0  0  0  0
   -3.9085   -3.5199    3.7537 H   0  0  0  0  0  0  0  0  0  0  0  0
   -1.6776   -3.6146    3.5263 H   0  0  0  0  0  0  0  0  0  0  0  0
   -2.6373   -5.2466    2.3551 H   0  0  0  0  0  0  0  0  0  0  0  0
   -1.2752   -4.7804    1.3145 H   0  0  0  0  0  0  0  0  0  0  0  0
   -3.0288   -4.3250    0.9007 H   0  0  0  0  0  0  0  0  0  0  0  0
   -1.1177   -1.4048    2.8986 H   0  0  0  0  0  0  0  0  0  0  0  0
   -0.1204   -2.6194    2.1294 H   0  0  0  0  0  0  0  0  0  0  0  0
   -1.1081   -2.0942   -0.1008 H   0  0  0  0  0  0  0  0  0  0  0  0
   -0.0291    0.1448    1.5207 H   0  0  0  0  0  0  0  0  0  0  0  0
    2.5086    0.1709    1.1622 H   0  0  0  0  0  0  0  0  0  0  0  0
    2.6503    2.0818   -0.4144 H   0  0  0  0  0  0  0  0  0  0  0  0
    0.8759    1.5796   -0.2516 H   0  0  0  0  0  0  0  0  0  0  0  0
    2.1800    1.6705   -2.6906 H   0  0  0  0  0  0  0  0  0  0  0  0
    0.8906    0.4070   -2.2553 H   0  0  0  0  0  0  0  0  0  0  0  0
    3.8469    0.1326   -2.7137 H   0  0  0  0  0  0  0  0  0  0  0  0
    2.6066   -1.1929   -2.4998 H   0  0  0  0  0  0  0  0  0  0  0  0
    4.3209   -1.4046    1.7568 H   0  0  0  0  0  0  0  0  0  0  0  0
    6.5673   -2.1536    0.2091 H   0  0  0  0  0  0  0  0  0  0  0  0
    6.1315   -2.6080    1.8111 H   0  0  0  0  0  0  0  0  0  0  0  0
    5.7281    0.3654    2.6861 H   0  0  0  0  0  0  0  0  0  0  0  0
    4.5856    1.0492    1.5251 H   0  0  0  0  0  0  0  0  0  0  0  0
    5.2677    1.9639   -0.6829 H   0  0  0  0  0  0  0  0  0  0  0  0
    7.1309    2.9207   -1.9165 H   0  0  0  0  0  0  0  0  0  0  0  0
   10.0601    3.6031   -1.1508 H   0  0  0  0  0  0  0  0  0  0  0  0
    9.9016    1.1903    0.7726 H   0  0  0  0  0  0  0  0  0  0  0  0
    8.1125    0.2154    2.0396 H   0  0  0  0  0  0  0  0  0  0  0  0
   -4.0115   -1.6558    0.1811 H   0  0  0  0  0  0  0  0  0  0  0  0
   -3.9459    1.3173   -0.1840 H   0  0  0  0  0  0  0  0  0  0  0  0
   -5.7546   -0.8592   -1.4000 H   0  0  0  0  0  0  0  0  0  0  0  0
   -4.4231   -0.0321   -2.1930 H   0  0  0  0  0  0  0  0  0  0  0  0
   -7.9392    0.1153   -1.3562 H   0  0  0  0  0  0  0  0  0  0  0  0
   -9.4579    1.8352   -2.1314 H   0  0  0  0  0  0  0  0  0  0  0  0
   -8.6541    3.8989   -3.0980 H   0  0  0  0  0  0  0  0  0  0  0  0
   -6.1900    4.2376   -3.2905 H   0  0  0  0  0  0  0  0  0  0  0  0
   -4.6295    2.4820   -2.4865 H   0  0  0  0  0  0  0  0  0  0  0  0
   -7.5250    1.4073    1.3327 H   0  0  0  0  0  0  0  0  0  0  0  0
   -6.3638    2.6309    0.8247 H   0  0  0  0  0  0  0  0  0  0  0  0
  1  2  1  0
  2  3  1  0
  2  4  1  0
  4  5  1  0
  5  6  1  0
  6  7  1  0
  7  8  2  0
  7  9  1  0
  9 10  1  0
 10 11  1  0
 11 12  1  0
 12 13  1  0
 13 14  1  0
 14 15  2  0
 14 16  1  0
 16 17  1  0
 16 18  1  0
 18 19  1  0
 19 20  2  0
 20 21  1  0
 21 22  2  0
 22 23  1  0
 22 24  1  0
 24 25  2  0
  5 26  1  0
 26 27  2  0
 26 28  1  0
 28 29  1  0
 29 30  1  0
 30 31  1  0
 31 32  2  0
 32 33  1  0
 33 34  2  0
 34 35  1  0
 35 36  2  0
 29 37  1  0
 37 38  1  0
 37 39  2  0
 13  9  1  0
 25 19  1  0
 36 31  1  0
  1 40  1  0
  1 41  1  0
  1 42  1  0
  2 43  1  0
  3 44  1  0
  3 45  1  0
  3 46  1  0
  4 47  1  0
  4 48  1  0
  5 49  1  6
  6 50  1  0
  9 51  1  1
 10 52  1  0
 10 53  1  0
 11 54  1  0
 11 55  1  0
 12 56  1  0
 12 57  1  0
 16 58  1  1
 17 59  1  0
 17 60  1  0
 18 61  1  0
 18 62  1  0
 20 63  1  0
 21 64  1  0
 23 65  1  0
 24 66  1  0
 25 67  1  0
 28 68  1  0
 29 69  1  6
 30 70  1  0
 30 71  1  0
 32 72  1  0
 33 73  1  0
 34 74  1  0
 35 75  1  0
 36 76  1  0
 38 77  1  0
 38 78  1  0
M  END
$$$$
[H]c1c([H])c([H])c2c(c1[H])c1c3c(c4c5c([H])c([H])c([H])c([H])c5n5c4c1n2[C@]1([H])O[C@]5(C([H])([H])[H])[C@@]([H])(OC([H])([H])[H])[C@]([H])(N([H])C([H])([H])[H])C1([H])[H])C([H])([H])N([H])C3=O
     RDKit          3D

 61 68  0  0  0  0  0  0  0  0999 V2000
   -5.0032    2.3015   -0.0847 C   0  0  0  0  0  0  0  0  0  0  0  0
   -4.2911    1.1206   -0.5239 N   0  0  0  0  0  0  0  0  0  0  0  0
   -3.1564    0.9314    0.3042 C   0  0  2  0  0  0  0  0  0  0  0  0
   -2.1540    2.1226    0.1663 C   0  0  0  0  0  0  0  0  0  0  0  0
   -0.9665    1.4540   -0.0205 C   0  0  1  0  0  0  0  0  0  0  0  0
   -1.1415    0.7448   -1.1981 O   0  0  0  0  0  0  0  0  0  0  0  0
   -1.4119   -0.5987   -0.7868 C   0  0  2  0  0  0  0  0  0  0  0  0
   -1.8712   -1.2254   -2.1322 C   0  0  0  0  0  0  0  0  0  0  0  0
   -2.4889   -0.4501    0.1598 C   0  0  1  0  0  0  0  0  0  0  0  0
   -2.3890   -1.1153    1.3880 O   0  0  0  0  0  0  0  0  0  0  0  0
   -3.3269   -2.1274    1.5521 C   0  0  0  0  0  0  0  0  0  0  0  0
   -0.1378   -1.2020   -0.4914 N   0  0  0  0  0  0  0  0  0  0  0  0
    0.1616   -2.5344   -0.6109 C   0  0  0  0  0  0  0  0  0  0  0  0
   -0.5901   -3.6465   -0.8619 C   0  0  0  0  0  0  0  0  0  0  0  0
    0.0056   -4.9014   -0.9123 C   0  0  0  0  0  0  0  0  0  0  0  0
    1.3589   -5.0700   -0.7130 C   0  0  0  0  0  0  0  0  0  0  0  0
    2.1437   -3.9569   -0.4556 C   0  0  0  0  0  0  0  0  0  0  0  0
    1.5172   -2.7445   -0.4151 C   0  0  0  0  0  0  0  0  0  0  0  0
    2.0596   -1.5148   -0.1645 C   0  0  0  0  0  0  0  0  0  0  0  0
    3.3310   -1.0167    0.0798 C   0  0  0  0  0  0  0  0  0  0  0  0
    4.6039   -1.7769    0.1721 C   0  0  0  0  0  0  0  0  0  0  0  0
    5.6037   -0.7850    0.4503 N   0  0  0  0  0  0  0  0  0  0  0  0
    5.0034    0.5280    0.5134 C   0  0  0  0  0  0  0  0  0  0  0  0
    5.7188    1.5160    0.7371 O   0  0  0  0  0  0  0  0  0  0  0  0
    3.6006    0.3262    0.2783 C   0  0  0  0  0  0  0  0  0  0  0  0
    2.5644    1.2461    0.2408 C   0  0  0  0  0  0  0  0  0  0  0  0
    2.4247    2.5831    0.4378 C   0  0  0  0  0  0  0  0  0  0  0  0
    3.2960    3.5951    0.7015 C   0  0  0  0  0  0  0  0  0  0  0  0
    2.7602    4.8881    0.8432 C   0  0  0  0  0  0  0  0  0  0  0  0
    1.4157    5.1498    0.7252 C   0  0  0  0  0  0  0  0  0  0  0  0
    0.5372    4.1127    0.4564 C   0  0  0  0  0  0  0  0  0  0  0  0
    1.0796    2.8483    0.3203 C   0  0  0  0  0  0  0  0  0  0  0  0
    0.4024    1.7469    0.0621 N   0  0  0  0  0  0  0  0  0  0  0  0
    1.3106    0.7318   -0.0025 C   0  0  0  0  0  0  0  0  0  0  0  0
    1.0507   -0.6266   -0.2113 C   0  0  0  0  0  0  0  0  0  0  0  0
   -4.4222    3.2206   -0.0758 H   0  0  0  0  0  0  0  0  0  0  0  0
   -5.9751    2.4312   -0.6421 H   0  0  0  0  0  0  0  0  0  0  0  0
   -5.3325    2.1331    0.9827 H   0  0  0  0  0  0  0  0  0  0  0  0
   -4.9231    0.3185   -0.4524 H   0  0  0  0  0  0  0  0  0  0  0  0
   -3.5204    0.9543    1.3717 H   0  0  0  0  0  0  0  0  0  0  0  0
   -2.2319    2.7634    1.0681 H   0  0  0  0  0  0  0  0  0  0  0  0
   -2.5549    2.7584   -0.6810 H   0  0  0  0  0  0  0  0  0  0  0  0
   -1.0177    0.7572    0.9341 H   0  0  0  0  0  0  0  0  0  0  0  0
   -2.1640   -0.4180   -2.8609 H   0  0  0  0  0  0  0  0  0  0  0  0
   -1.0623   -1.7738   -2.6232 H   0  0  0  0  0  0  0  0  0  0  0  0
   -2.8063   -1.7859   -1.9703 H   0  0  0  0  0  0  0  0  0  0  0  0
   -3.3692   -1.0206   -0.3155 H   0  0  0  0  0  0  0  0  0  0  0  0
   -4.3685   -1.7465    1.5031 H   0  0  0  0  0  0  0  0  0  0  0  0
   -3.1360   -2.7642    2.4105 H   0  0  0  0  0  0  0  0  0  0  0  0
   -3.2309   -2.7727    0.6280 H   0  0  0  0  0  0  0  0  0  0  0  0
   -1.6587   -3.5713   -1.0137 H   0  0  0  0  0  0  0  0  0  0  0  0
   -0.5879   -5.7740   -1.1105 H   0  0  0  0  0  0  0  0  0  0  0  0
    1.8233   -6.0462   -0.7522 H   0  0  0  0  0  0  0  0  0  0  0  0
    3.2016   -4.0714   -0.2980 H   0  0  0  0  0  0  0  0  0  0  0  0
    4.5688   -2.4736    1.0276 H   0  0  0  0  0  0  0  0  0  0  0  0
    4.8295   -2.3223   -0.7651 H   0  0  0  0  0  0  0  0  0  0  0  0
    6.6092   -1.0259    0.5823 H   0  0  0  0  0  0  0  0  0  0  0  0
    4.3503    3.4578    0.8021 H   0  0  0  0  0  0  0  0  0  0  0  0
    3.4660    5.6873    1.0540 H   0  0  0  0  0  0  0  0  0  0  0  0
    1.0161    6.1615    0.8387 H   0  0  0  0  0  0  0  0  0  0  0  0
   -0.5241    4.2689    0.3538 H   0  0  0  0  0  0  0  0  0  0  0  0
  1  2  1  0
  2  3  1  0
  3  4  1  0
  4  5  1  0
  5  6  1  0
  6  7  1  0
  7  8  1  6
  7  9  1  0
  9 10  1  0
 10 11  1  0
  7 12  1  0
 12 13  1  0
 13 14  2  0
 14 15  1  0
 15 16  2  0
 16 17  1  0
 17 18  2  0
 18 19  1  0
 19 20  2  0
 20 21  1  0
 21 22  1  0
 22 23  1  0
 23 24  2  0
 23 25  1  0
 25 26  2  0
 26 27  1  0
 27 28  2  0
 28 29  1  0
 29 30  2  0
 30 31  1  0
 31 32  2  0
 32 33  1  0
 33 34  1  0
 34 35  2  0
  9  3  1  0
 35 12  1  0
 33  5  1  0
 18 13  1  0
 35 19  1  0
 25 20  1  0
 34 26  1  0
 32 27  1  0
  1 36  1  0
  1 37  1  0
  1 38  1  0
  2 39  1  0
  3 40  1  1
  4 41  1  0
  4 42  1  0
  5 43  1  1
  8 44  1  0
  8 45  1  0
  8 46  1  0
  9 47  1  6
 11 48  1  0
 11 49  1  0
 11 50  1  0
 14 51  1  0
 15 52  1  0
 16 53  1  0
 17 54  1  0
 21 55  1  0
 21 56  1  0
 22 57  1  0
 28 58  1  0
 29 59  1  0
 30 60  1  0
 31 61  1  0
M  END
$$$$
[H]OC(=O)C([H])(N([H])S(=O)(=O)c1c([H])c([H])c(Cl)c([H])c1[H])P(=O)(O[H])O[H]
     RDKit          3D

 28 28  0  0  0  0  0  0  0  0999 V2000
    1.0623    1.4991   -1.5919 O   0  0  0  0  0  0  0  0  0  0  0  0
    1.9796    0.1984   -0.9999 P   0  0  0  0  0  0  0  0  0  0  0  0
    1.5976   -1.2421   -1.7974 O   0  0  0  0  0  0  0  0  0  0  0  0
    3.4436    0.5299   -1.2255 O   0  0  0  0  0  0  0  0  0  0  0  0
    1.6911    0.0023    0.7836 C   0  0  0  0  0  0  0  0  0  0  0  0
    1.0226    1.1629    1.2745 N   0  0  0  0  0  0  0  0  0  0  0  0
   -0.5465    0.8607    1.8815 S   0  0  0  0  0  0  0  0  0  0  0  0
   -1.1815    2.0499    2.4897 O   0  0  0  0  0  0  0  0  0  0  0  0
   -0.4316   -0.1946    2.9428 O   0  0  0  0  0  0  0  0  0  0  0  0
   -1.5608    0.2385    0.6243 C   0  0  0  0  0  0  0  0  0  0  0  0
   -2.2865    1.1054   -0.1996 C   0  0  0  0  0  0  0  0  0  0  0  0
   -3.0949    0.6100   -1.1980 C   0  0  0  0  0  0  0  0  0  0  0  0
   -3.2291   -0.7271   -1.4331 C   0  0  0  0  0  0  0  0  0  0  0  0
   -4.2560   -1.3706   -2.7022 Cl  0  0  0  0  0  0  0  0  0  0  0  0
   -2.5214   -1.5970   -0.6309 C   0  0  0  0  0  0  0  0  0  0  0  0
   -1.6988   -1.1075    0.3843 C   0  0  0  0  0  0  0  0  0  0  0  0
    2.9986   -0.2405    1.4422 C   0  0  0  0  0  0  0  0  0  0  0  0
    3.7624   -1.3264    1.0731 O   0  0  0  0  0  0  0  0  0  0  0  0
    3.3900    0.5498    2.3283 O   0  0  0  0  0  0  0  0  0  0  0  0
    1.4685    1.9016   -2.3923 H   0  0  0  0  0  0  0  0  0  0  0  0
    1.5684   -1.1135   -2.7676 H   0  0  0  0  0  0  0  0  0  0  0  0
    1.0237   -0.8599    0.9085 H   0  0  0  0  0  0  0  0  0  0  0  0
    1.1009    2.0046    0.6911 H   0  0  0  0  0  0  0  0  0  0  0  0
   -2.1676    2.1661    0.0018 H   0  0  0  0  0  0  0  0  0  0  0  0
   -3.6540    1.2905   -1.8321 H   0  0  0  0  0  0  0  0  0  0  0  0
   -2.6036   -2.6620   -0.7885 H   0  0  0  0  0  0  0  0  0  0  0  0
   -1.1593   -1.8302    0.9948 H   0  0  0  0  0  0  0  0  0  0  0  0
    4.2823   -1.8982    1.7386 H   0  0  0  0  0  0  0  0  0  0  0  0
  1  2  1  0
  2  3  1  0
  2  4  2  0
  2  5  1  0
  5  6  1  0
  6  7  1  0
  7  8  2  0
  7  9  2  0
  7 10  1  0
 10 11  2  0
 11 12  1  0
 12 13  2  0
 13 14  1  0
 13 15  1  0
 15 16  2  0
  5 17  1  0
 17 18  1  0
 17 19  2  0
 16 10  1  0
  1 20  1  0
  3 21  1  0
  5 22  1  0
  6 23  1  0
 11 24  1  0
 12 25  1  0
 15 26  1  0
 16 27  1  0
 18 28  1  0
M  END
$$$$
[H]c1c([H])c([N+](=O)[O-])c([H])c([H])c1-n1c(C2([H])C([H])([H])C([H])([H])N([H])C([H])([H])C2([H])[H])nc2c([H])c([H])c([H])c([H])c21
     RDKit          3D

 42 45  0  0  0  0  0  0  0  0999 V2000
    3.7538    4.0815    1.6760 O   0  0  0  0  0  0  0  0  0  0  0  0
    3.9007    3.1745    0.6700 N   0  0  0  0  0  0  0  0  0  0  0  0
    4.8537    3.2650   -0.1166 O   0  0  0  0  0  0  0  0  0  0  0  0
    2.9611    2.1309    0.5287 C   0  0  0  0  0  0  0  0  0  0  0  0
    3.1109    1.2213   -0.4826 C   0  0  0  0  0  0  0  0  0  0  0  0
    2.1912    0.2095   -0.6118 C   0  0  0  0  0  0  0  0  0  0  0  0
    1.0970    0.0611    0.2485 C   0  0  0  0  0  0  0  0  0  0  0  0
    0.9928    0.9921    1.2389 C   0  0  0  0  0  0  0  0  0  0  0  0
    1.8941    2.0119    1.3925 C   0  0  0  0  0  0  0  0  0  0  0  0
    0.2349   -1.0321    0.0168 N   0  0  0  0  0  0  0  0  0  0  0  0
   -1.0412   -1.0210   -0.3467 C   0  0  0  0  0  0  0  0  0  0  0  0
   -1.3939   -2.3491   -0.4447 N   0  0  0  0  0  0  0  0  0  0  0  0
   -0.3757   -3.1230   -0.1527 C   0  0  0  0  0  0  0  0  0  0  0  0
   -0.2105   -4.4916   -0.1027 C   0  0  0  0  0  0  0  0  0  0  0  0
    1.0205   -4.9970    0.2496 C   0  0  0  0  0  0  0  0  0  0  0  0
    2.0886   -4.1812    0.5525 C   0  0  0  0  0  0  0  0  0  0  0  0
    1.9185   -2.8186    0.5010 C   0  0  0  0  0  0  0  0  0  0  0  0
    0.6867   -2.3179    0.1486 C   0  0  0  0  0  0  0  0  0  0  0  0
   -1.9444    0.0881   -0.5914 C   0  0  0  0  0  0  0  0  0  0  0  0
   -2.6836    0.5864    0.6661 C   0  0  0  0  0  0  0  0  0  0  0  0
   -3.8807    1.3766    0.1046 C   0  0  0  0  0  0  0  0  0  0  0  0
   -3.3705    2.5588   -0.5589 N   0  0  0  0  0  0  0  0  0  0  0  0
   -1.9573    2.5324   -0.7944 C   0  0  0  0  0  0  0  0  0  0  0  0
   -1.5103    1.2060   -1.4395 C   0  0  0  0  0  0  0  0  0  0  0  0
    3.9568    1.3002   -1.1820 H   0  0  0  0  0  0  0  0  0  0  0  0
    2.3231   -0.5108   -1.4247 H   0  0  0  0  0  0  0  0  0  0  0  0
    0.1742    0.9188    1.9280 H   0  0  0  0  0  0  0  0  0  0  0  0
    1.8028    2.7516    2.1870 H   0  0  0  0  0  0  0  0  0  0  0  0
   -1.0219   -5.1827   -0.3326 H   0  0  0  0  0  0  0  0  0  0  0  0
    1.1840   -6.0839    0.2986 H   0  0  0  0  0  0  0  0  0  0  0  0
    3.0419   -4.6378    0.8254 H   0  0  0  0  0  0  0  0  0  0  0  0
    2.7313   -2.1591    0.7315 H   0  0  0  0  0  0  0  0  0  0  0  0
   -2.8419   -0.3625   -1.1580 H   0  0  0  0  0  0  0  0  0  0  0  0
   -3.0693   -0.3069    1.1606 H   0  0  0  0  0  0  0  0  0  0  0  0
   -2.0934    1.2314    1.2981 H   0  0  0  0  0  0  0  0  0  0  0  0
   -4.3212    0.7274   -0.6814 H   0  0  0  0  0  0  0  0  0  0  0  0
   -4.6208    1.5951    0.8752 H   0  0  0  0  0  0  0  0  0  0  0  0
   -3.9438    2.8792   -1.3485 H   0  0  0  0  0  0  0  0  0  0  0  0
   -1.4141    2.7505    0.1206 H   0  0  0  0  0  0  0  0  0  0  0  0
   -1.7283    3.3364   -1.5295 H   0  0  0  0  0  0  0  0  0  0  0  0
   -0.4647    1.3302   -1.6715 H   0  0  0  0  0  0  0  0  0  0  0  0
   -2.0315    1.2582   -2.4488 H   0  0  0  0  0  0  0  0  0  0  0  0
  1  2  1  0
  2  3  2  0
  2  4  1  0
  4  5  2  0
  5  6  1  0
  6  7  2  0
  7  8  1  0
  8  9  2  0
  7 10  1  0
 10 11  1  0
 11 12  2  0
 12 13  1  0
 13 14  2  0
 14 15  1  0
 15 16  2  0
 16 17  1  0
 17 18  2  0
 11 19  1  0
 19 20  1  0
 20 21  1  0
 21 22  1  0
 22 23  1  0
 23 24  1  0
  9  4  1  0
 18 10  1  0
 24 19  1  0
 18 13  1  0
  5 25  1  0
  6 26  1  0
  8 27  1  0
  9 28  1  0
 14 29  1  0
 15 30  1  0
 16 31  1  0
 17 32  1  0
 19 33  1  0
 20 34  1  0
 20 35  1  0
 21 36  1  0
 21 37  1  0
 22 38  1  0
 23 39  1  0
 23 40  1  0
 24 41  1  0
 24 42  1  0
M  CHG  2   1  -1   2   1
M  END
$$$$
[H]c1c([H])c([H])c(C([H])([H])OC(=O)[C@@]([H])(N([H])C(=O)[C@@]([H])(N([H])C(=O)[C@]2([H])OC(=O)[C@@]2([H])[C@@]([H])(C([H])([H])[H])C([H])([H])C([H])([H])[H])C([H])(C([H])([H])[H])C([H])([H])[H])C([H])([H])C([H])(C([H])([H])[H])C([H])([H])[H])c([H])c1[H]
     RDKit          3D

 72 73  0  0  0  0  0  0  0  0999 V2000
    7.7799    0.6420   -0.4670 C   0  0  0  0  0  0  0  0  0  0  0  0
    7.6737   -0.6265   -1.2478 C   0  0  0  0  0  0  0  0  0  0  0  0
    6.2682   -1.2047   -1.2602 C   0  0  2  0  0  0  0  0  0  0  0  0
    5.3940   -0.1551   -1.8879 C   0  0  0  0  0  0  0  0  0  0  0  0
    5.7940   -1.5576    0.1141 C   0  0  1  0  0  0  0  0  0  0  0  0
    4.4450   -2.1444    0.2719 C   0  0  1  0  0  0  0  0  0  0  0  0
    5.0556   -2.9102    1.3358 O   0  0  0  0  0  0  0  0  0  0  0  0
    6.1973   -2.9127    0.5730 C   0  0  0  0  0  0  0  0  0  0  0  0
    7.1054   -3.7526    0.4168 O   0  0  0  0  0  0  0  0  0  0  0  0
    3.3405   -1.3603    0.7976 C   0  0  0  0  0  0  0  0  0  0  0  0
    3.1710   -1.3864    2.0595 O   0  0  0  0  0  0  0  0  0  0  0  0
    2.4157   -0.5637    0.0901 N   0  0  0  0  0  0  0  0  0  0  0  0
    1.3491    0.1845    0.7222 C   0  0  1  0  0  0  0  0  0  0  0  0
    1.5138    1.6728    0.5335 C   0  0  0  0  0  0  0  0  0  0  0  0
    1.5171    2.0808   -0.9163 C   0  0  0  0  0  0  0  0  0  0  0  0
    2.8132    2.0778    1.1741 C   0  0  0  0  0  0  0  0  0  0  0  0
    0.0082   -0.2956    0.3300 C   0  0  0  0  0  0  0  0  0  0  0  0
   -0.0746   -1.2503   -0.4725 O   0  0  0  0  0  0  0  0  0  0  0  0
   -1.2077    0.2494    0.7990 N   0  0  0  0  0  0  0  0  0  0  0  0
   -2.5122   -0.1788    0.4494 C   0  0  1  0  0  0  0  0  0  0  0  0
   -3.3706   -0.5743    1.6180 C   0  0  0  0  0  0  0  0  0  0  0  0
   -2.7902   -1.7108    2.4164 C   0  0  0  0  0  0  0  0  0  0  0  0
   -3.6972   -2.0710    3.5910 C   0  0  0  0  0  0  0  0  0  0  0  0
   -2.6579   -2.9825    1.6028 C   0  0  0  0  0  0  0  0  0  0  0  0
   -3.1996    0.9741   -0.2379 C   0  0  0  0  0  0  0  0  0  0  0  0
   -2.6001    2.0832   -0.4089 O   0  0  0  0  0  0  0  0  0  0  0  0
   -4.4928    0.8822   -0.7072 O   0  0  0  0  0  0  0  0  0  0  0  0
   -5.0896    1.9918   -1.3433 C   0  0  0  0  0  0  0  0  0  0  0  0
   -6.4658    1.7356   -1.7860 C   0  0  0  0  0  0  0  0  0  0  0  0
   -7.1454    2.7768   -2.3857 C   0  0  0  0  0  0  0  0  0  0  0  0
   -8.4514    2.6442   -2.8423 C   0  0  0  0  0  0  0  0  0  0  0  0
   -9.0961    1.4498   -2.6997 C   0  0  0  0  0  0  0  0  0  0  0  0
   -8.4223    0.4012   -2.0999 C   0  0  0  0  0  0  0  0  0  0  0  0
   -7.1217    0.5412   -1.6477 C   0  0  0  0  0  0  0  0  0  0  0  0
    8.3775    0.5502    0.4607 H   0  0  0  0  0  0  0  0  0  0  0  0
    8.2978    1.4412   -1.0677 H   0  0  0  0  0  0  0  0  0  0  0  0
    6.7703    0.9734   -0.1791 H   0  0  0  0  0  0  0  0  0  0  0  0
    7.9206   -0.4032   -2.3070 H   0  0  0  0  0  0  0  0  0  0  0  0
    8.4219   -1.4046   -0.9356 H   0  0  0  0  0  0  0  0  0  0  0  0
    6.2861   -2.1093   -1.8856 H   0  0  0  0  0  0  0  0  0  0  0  0
    5.9966    0.4194   -2.6387 H   0  0  0  0  0  0  0  0  0  0  0  0
    4.5539   -0.5946   -2.4692 H   0  0  0  0  0  0  0  0  0  0  0  0
    5.0142    0.5936   -1.1487 H   0  0  0  0  0  0  0  0  0  0  0  0
    6.0661   -0.8273    0.9107 H   0  0  0  0  0  0  0  0  0  0  0  0
    4.1597   -2.7764   -0.5961 H   0  0  0  0  0  0  0  0  0  0  0  0
    2.4939   -0.5145   -0.9440 H   0  0  0  0  0  0  0  0  0  0  0  0
    1.4400    0.0006    1.8181 H   0  0  0  0  0  0  0  0  0  0  0  0
    0.7039    2.1733    1.0954 H   0  0  0  0  0  0  0  0  0  0  0  0
    2.4557    2.6089   -1.2173 H   0  0  0  0  0  0  0  0  0  0  0  0
    1.2859    1.2214   -1.5774 H   0  0  0  0  0  0  0  0  0  0  0  0
    0.6990    2.8194   -1.0639 H   0  0  0  0  0  0  0  0  0  0  0  0
    3.6869    1.9320    0.4911 H   0  0  0  0  0  0  0  0  0  0  0  0
    2.8299    3.1487    1.4637 H   0  0  0  0  0  0  0  0  0  0  0  0
    3.0494    1.5087    2.0964 H   0  0  0  0  0  0  0  0  0  0  0  0
   -1.1199    1.0583    1.4794 H   0  0  0  0  0  0  0  0  0  0  0  0
   -2.4712   -1.0164   -0.2540 H   0  0  0  0  0  0  0  0  0  0  0  0
   -3.5258    0.2689    2.3257 H   0  0  0  0  0  0  0  0  0  0  0  0
   -4.3796   -0.8812    1.2757 H   0  0  0  0  0  0  0  0  0  0  0  0
   -1.7995   -1.4943    2.8335 H   0  0  0  0  0  0  0  0  0  0  0  0
   -4.3562   -1.1812    3.7502 H   0  0  0  0  0  0  0  0  0  0  0  0
   -3.1200   -2.2840    4.5010 H   0  0  0  0  0  0  0  0  0  0  0  0
   -4.3401   -2.9251    3.3761 H   0  0  0  0  0  0  0  0  0  0  0  0
   -2.0363   -3.6837    2.2199 H   0  0  0  0  0  0  0  0  0  0  0  0
   -2.2416   -2.8432    0.6072 H   0  0  0  0  0  0  0  0  0  0  0  0
   -3.6714   -3.4616    1.5755 H   0  0  0  0  0  0  0  0  0  0  0  0
   -5.1004    2.8982   -0.6984 H   0  0  0  0  0  0  0  0  0  0  0  0
   -4.4881    2.2246   -2.2609 H   0  0  0  0  0  0  0  0  0  0  0  0
   -6.6915    3.7600   -2.5318 H   0  0  0  0  0  0  0  0  0  0  0  0
   -8.9496    3.4875   -3.3080 H   0  0  0  0  0  0  0  0  0  0  0  0
  -10.1183    1.3618   -3.0619 H   0  0  0  0  0  0  0  0  0  0  0  0
   -8.9566   -0.5305   -2.0008 H   0  0  0  0  0  0  0  0  0  0  0  0
   -6.5899   -0.2687   -1.1801 H   0  0  0  0  0  0  0  0  0  0  0  0
  1  2  1  0
  2  3  1  0
  3  4  1  0
  3  5  1  0
  5  6  1  0
  6  7  1  0
  7  8  1  0
  8  9  2  0
  6 10  1  0
 10 11  2  0
 10 12  1  0
 12 13  1  0
 13 14  1  0
 14 15  1  0
 14 16  1  0
 13 17  1  0
 17 18  2  0
 17 19  1  0
 19 20  1  0
 20 21  1  0
 21 22  1  0
 22 23  1  0
 22 24  1  0
 20 25  1  0
 25 26  2  0
 25 27  1  0
 27 28  1  0
 28 29  1  0
 29 30  2  0
 30 31  1  0
 31 32  2  0
 32 33  1  0
 33 34  2  0
  8  5  1  0
 34 29  1  0
  1 35  1  0
  1 36  1  0
  1 37  1  0
  2 38  1  0
  2 39  1  0
  3 40  1  6
  4 41  1  0
  4 42  1  0
  4 43  1  0
  5 44  1  1
  6 45  1  6
 12 46  1  0
 13 47  1  1
 14 48  1  0
 15 49  1  0
 15 50  1  0
 15 51  1  0
 16 52  1  0
 16 53  1  0
 16 54  1  0
 19 55  1  0
 20 56  1  6
 21 57  1  0
 21 58  1  0
 22 59  1  0
 23 60  1  0
 23 61  1  0
 23 62  1  0
 24 63  1  0
 24 64  1  0
 24 65  1  0
 28 66  1  0
 28 67  1  0
 30 68  1  0
 31 69  1  0
 32 70  1  0
 33 71  1  0
 34 72  1  0
M  END
$$$$
[H]c1c([H])c(S(=O)(=O)N([H])c2c([H])c([H])c3c([H])c([H])c([H])c([H])c3c2[H])c([H])c([H])c1[N+](=O)[O-]
     RDKit          3D

 35 37  0  0  0  0  0  0  0  0999 V2000
    5.4341   -2.0520    2.7159 O   0  0  0  0  0  0  0  0  0  0  0  0
    5.4184   -1.4650    1.4774 N   0  0  0  0  0  0  0  0  0  0  0  0
    6.3327   -1.7553    0.6839 O   0  0  0  0  0  0  0  0  0  0  0  0
    4.4078   -0.5508    1.0776 C   0  0  0  0  0  0  0  0  0  0  0  0
    3.3890   -0.2287    1.9637 C   0  0  0  0  0  0  0  0  0  0  0  0
    2.3952    0.6541    1.6054 C   0  0  0  0  0  0  0  0  0  0  0  0
    2.3630    1.2567    0.3592 C   0  0  0  0  0  0  0  0  0  0  0  0
    3.3887    0.9255   -0.5182 C   0  0  0  0  0  0  0  0  0  0  0  0
    4.3813    0.0427   -0.1580 C   0  0  0  0  0  0  0  0  0  0  0  0
    1.1688    2.3680   -0.1798 S   0  0  0  0  0  0  0  0  0  0  0  0
    0.4527    2.9425    1.0373 O   0  0  0  0  0  0  0  0  0  0  0  0
    1.9134    3.5418   -0.8068 O   0  0  0  0  0  0  0  0  0  0  0  0
   -0.0109    1.7893   -1.2394 N   0  0  0  0  0  0  0  0  0  0  0  0
   -0.9127    0.7481   -0.8788 C   0  0  0  0  0  0  0  0  0  0  0  0
   -0.5680   -0.4816   -0.4129 C   0  0  0  0  0  0  0  0  0  0  0  0
   -1.5113   -1.4450   -0.1112 C   0  0  0  0  0  0  0  0  0  0  0  0
   -2.8485   -1.1631   -0.2845 C   0  0  0  0  0  0  0  0  0  0  0  0
   -3.8013   -2.1117    0.0112 C   0  0  0  0  0  0  0  0  0  0  0  0
   -5.1256   -1.7996   -0.1727 C   0  0  0  0  0  0  0  0  0  0  0  0
   -5.4985   -0.5594   -0.6449 C   0  0  0  0  0  0  0  0  0  0  0  0
   -4.5753    0.4078   -0.9489 C   0  0  0  0  0  0  0  0  0  0  0  0
   -3.2230    0.0817   -0.7584 C   0  0  0  0  0  0  0  0  0  0  0  0
   -2.2713    1.0266   -1.0525 C   0  0  0  0  0  0  0  0  0  0  0  0
    3.3689   -0.6745    2.9538 H   0  0  0  0  0  0  0  0  0  0  0  0
    1.5762    0.9327    2.2756 H   0  0  0  0  0  0  0  0  0  0  0  0
    3.4159    1.3687   -1.5136 H   0  0  0  0  0  0  0  0  0  0  0  0
    5.1964   -0.2260   -0.8434 H   0  0  0  0  0  0  0  0  0  0  0  0
   -0.1420    2.1714   -2.2296 H   0  0  0  0  0  0  0  0  0  0  0  0
    0.4835   -0.7073   -0.2961 H   0  0  0  0  0  0  0  0  0  0  0  0
   -1.2381   -2.4187    0.2585 H   0  0  0  0  0  0  0  0  0  0  0  0
   -3.4734   -3.0863    0.3840 H   0  0  0  0  0  0  0  0  0  0  0  0
   -5.8831   -2.5526    0.0619 H   0  0  0  0  0  0  0  0  0  0  0  0
   -6.5706   -0.3628   -0.7733 H   0  0  0  0  0  0  0  0  0  0  0  0
   -4.8424    1.3870   -1.3203 H   0  0  0  0  0  0  0  0  0  0  0  0
   -2.5903    1.9961   -1.4231 H   0  0  0  0  0  0  0  0  0  0  0  0
  1  2  1  0
  2  3  2  0
  2  4  1  0
  4  5  2  0
  5  6  1  0
  6  7  2  0
  7  8  1  0
  8  9  2  0
  7 10  1  0
 10 11  2  0
 10 12  2  0
 10 13  1  0
 13 14  1  0
 14 15  2  0
 15 16  1  0
 16 17  2  0
 17 18  1  0
 18 19  2  0
 19 20  1  0
 20 21  2  0
 21 22  1  0
 22 23  2  0
  9  4  1  0
 23 14  1  0
 22 17  1  0
  5 24  1  0
  6 25  1  0
  8 26  1  0
  9 27  1  0
 13 28  1  0
 15 29  1  0
 16 30  1  0
 18 31  1  0
 19 32  1  0
 20 33  1  0
 21 34  1  0
 23 35  1  0
M  CHG  2   1  -1   2   1
M  END
$$$$
[H]c1c([H])c([H])c2c([H])c(S(=O)(=O)N([H])C(=O)[C@@]([H])(N([H])[H])C([H])([H])C([H])(C([H])([H])[H])C([H])([H])[H])c([H])c([H])c2c1[H]
     RDKit          3D

 42 43  0  0  0  0  0  0  0  0999 V2000
    3.4812    1.7538   -0.2003 C   0  0  0  0  0  0  0  0  0  0  0  0
    2.8174    1.4734    1.1016 C   0  0  0  0  0  0  0  0  0  0  0  0
    1.3113    1.5461    0.9263 C   0  0  0  0  0  0  0  0  0  0  0  0
    3.2787    0.2779    1.8282 C   0  0  0  0  0  0  0  0  0  0  0  0
    3.1589   -1.0465    1.1920 C   0  0  2  0  0  0  0  0  0  0  0  0
    3.8683   -1.2061   -0.0503 N   0  0  0  0  0  0  0  0  0  0  0  0
    1.7815   -1.5794    1.0909 C   0  0  0  0  0  0  0  0  0  0  0  0
    1.0406   -1.4760    2.1002 O   0  0  0  0  0  0  0  0  0  0  0  0
    1.2277   -2.2000   -0.0553 N   0  0  0  0  0  0  0  0  0  0  0  0
   -0.3881   -2.7959   -0.0886 S   0  0  0  0  0  0  0  0  0  0  0  0
   -0.8118   -3.3013    1.2772 O   0  0  0  0  0  0  0  0  0  0  0  0
   -0.4293   -3.9885   -1.0027 O   0  0  0  0  0  0  0  0  0  0  0  0
   -1.5451   -1.6004   -0.5925 C   0  0  0  0  0  0  0  0  0  0  0  0
   -1.8292   -1.4912   -1.9425 C   0  0  0  0  0  0  0  0  0  0  0  0
   -2.7421   -0.5553   -2.3782 C   0  0  0  0  0  0  0  0  0  0  0  0
   -3.3639    0.2687   -1.4317 C   0  0  0  0  0  0  0  0  0  0  0  0
   -4.2743    1.2062   -1.8437 C   0  0  0  0  0  0  0  0  0  0  0  0
   -4.9068    2.0360   -0.9427 C   0  0  0  0  0  0  0  0  0  0  0  0
   -4.6262    1.9332    0.4240 C   0  0  0  0  0  0  0  0  0  0  0  0
   -3.7110    0.9903    0.8365 C   0  0  0  0  0  0  0  0  0  0  0  0
   -3.0877    0.1676   -0.0854 C   0  0  0  0  0  0  0  0  0  0  0  0
   -2.1708   -0.7742    0.3412 C   0  0  0  0  0  0  0  0  0  0  0  0
    4.5178    1.3918   -0.2580 H   0  0  0  0  0  0  0  0  0  0  0  0
    2.8657    1.4200   -1.0877 H   0  0  0  0  0  0  0  0  0  0  0  0
    3.5445    2.8730   -0.3563 H   0  0  0  0  0  0  0  0  0  0  0  0
    3.0564    2.3536    1.7756 H   0  0  0  0  0  0  0  0  0  0  0  0
    0.9750    0.8199    0.1620 H   0  0  0  0  0  0  0  0  0  0  0  0
    1.0435    2.5570    0.5009 H   0  0  0  0  0  0  0  0  0  0  0  0
    0.7655    1.4762    1.8710 H   0  0  0  0  0  0  0  0  0  0  0  0
    4.3472    0.4534    2.1364 H   0  0  0  0  0  0  0  0  0  0  0  0
    2.7266    0.2349    2.8025 H   0  0  0  0  0  0  0  0  0  0  0  0
    3.6898   -1.7640    1.8995 H   0  0  0  0  0  0  0  0  0  0  0  0
    4.1853   -2.1995   -0.2142 H   0  0  0  0  0  0  0  0  0  0  0  0
    3.2891   -0.9249   -0.8679 H   0  0  0  0  0  0  0  0  0  0  0  0
    1.8038   -2.3108   -0.9250 H   0  0  0  0  0  0  0  0  0  0  0  0
   -1.3153   -2.1597   -2.6451 H   0  0  0  0  0  0  0  0  0  0  0  0
   -2.9584   -0.4754   -3.4330 H   0  0  0  0  0  0  0  0  0  0  0  0
   -4.4670    1.2566   -2.9153 H   0  0  0  0  0  0  0  0  0  0  0  0
   -5.6076    2.7509   -1.3054 H   0  0  0  0  0  0  0  0  0  0  0  0
   -5.1381    2.5979    1.1062 H   0  0  0  0  0  0  0  0  0  0  0  0
   -3.4714    0.8882    1.9063 H   0  0  0  0  0  0  0  0  0  0  0  0
   -1.9318   -0.8775    1.4010 H   0  0  0  0  0  0  0  0  0  0  0  0
  1  2  1  0
  2  3  1  0
  2  4  1  0
  4  5  1  0
  5  6  1  0
  5  7  1  0
  7  8  2  0
  7  9  1  0
  9 10  1  0
 10 11  2  0
 10 12  2  0
 10 13  1  0
 13 14  2  0
 14 15  1  0
 15 16  2  0
 16 17  1  0
 17 18  2  0
 18 19  1  0
 19 20  2  0
 20 21  1  0
 21 22  2  0
 22 13  1  0
 21 16  1  0
  1 23  1  0
  1 24  1  0
  1 25  1  0
  2 26  1  0
  3 27  1  0
  3 28  1  0
  3 29  1  0
  4 30  1  0
  4 31  1  0
  5 32  1  1
  6 33  1  0
  6 34  1  0
  9 35  1  0
 14 36  1  0
 15 37  1  0
 17 38  1  0
 18 39  1  0
 19 40  1  0
 20 41  1  0
 22 42  1  0
M  END
$$$$
[H]/C(=C1/C(=O)N([H])c2c([H])c([H])c([N+](=O)[O-])c([H])c21)c1c([H])c([H])c(N2C([H])([H])C([H])([H])N(S(=O)(=O)C([H])(C([H])([H])[H])C([H])([H])[H])C([H])([H])C2([H])[H])c([H])c1[H]
     RDKit          3D

 56 59  0  0  0  0  0  0  0  0999 V2000
   -6.9772   -0.7426    0.4621 C   0  0  0  0  0  0  0  0  0  0  0  0
   -6.6379    0.7080    0.3221 C   0  0  0  0  0  0  0  0  0  0  0  0
   -7.5548    1.5647    1.2206 C   0  0  0  0  0  0  0  0  0  0  0  0
   -4.9444    0.9776    0.7842 S   0  0  0  0  0  0  0  0  0  0  0  0
   -4.7447    0.6414    2.2399 O   0  0  0  0  0  0  0  0  0  0  0  0
   -4.6913    2.4799    0.6803 O   0  0  0  0  0  0  0  0  0  0  0  0
   -3.8393    0.2179   -0.2309 N   0  0  0  0  0  0  0  0  0  0  0  0
   -3.9287    0.6889   -1.5697 C   0  0  0  0  0  0  0  0  0  0  0  0
   -2.4895    0.7204   -2.1108 C   0  0  0  0  0  0  0  0  0  0  0  0
   -1.8420   -0.4470   -1.5524 N   0  0  0  0  0  0  0  0  0  0  0  0
   -2.6853   -1.5754   -1.2512 C   0  0  0  0  0  0  0  0  0  0  0  0
   -3.7127   -1.1872   -0.1682 C   0  0  0  0  0  0  0  0  0  0  0  0
   -0.4485   -0.4402   -1.3380 C   0  0  0  0  0  0  0  0  0  0  0  0
    0.1936   -1.4152   -0.6235 C   0  0  0  0  0  0  0  0  0  0  0  0
    1.5516   -1.3367   -0.4710 C   0  0  0  0  0  0  0  0  0  0  0  0
    2.3386   -0.3155   -1.0010 C   0  0  0  0  0  0  0  0  0  0  0  0
    3.7619   -0.2078   -0.8357 C   0  0  0  0  0  0  0  0  0  0  0  0
    4.3323   -0.0966    0.3383 C   0  0  0  0  0  0  0  0  0  0  0  0
    3.7374   -0.0485    1.6645 C   0  0  0  0  0  0  0  0  0  0  0  0
    2.5359   -0.0774    1.9659 O   0  0  0  0  0  0  0  0  0  0  0  0
    4.8056    0.0452    2.6051 N   0  0  0  0  0  0  0  0  0  0  0  0
    6.0432    0.0589    1.9227 C   0  0  0  0  0  0  0  0  0  0  0  0
    7.3711    0.1365    2.3547 C   0  0  0  0  0  0  0  0  0  0  0  0
    8.3882    0.1282    1.4243 C   0  0  0  0  0  0  0  0  0  0  0  0
    8.1406    0.0458    0.0804 C   0  0  0  0  0  0  0  0  0  0  0  0
    6.8199   -0.0303   -0.3282 C   0  0  0  0  0  0  0  0  0  0  0  0
    5.8006   -0.0231    0.5841 C   0  0  0  0  0  0  0  0  0  0  0  0
    9.1776    0.0368   -0.8770 N   0  0  0  0  0  0  0  0  0  0  0  0
   10.4947    0.1114   -0.5033 O   0  0  0  0  0  0  0  0  0  0  0  0
    8.9258   -0.0397   -2.0932 O   0  0  0  0  0  0  0  0  0  0  0  0
    1.6422    0.6608   -1.7248 C   0  0  0  0  0  0  0  0  0  0  0  0
    0.2948    0.6139   -1.8963 C   0  0  0  0  0  0  0  0  0  0  0  0
   -6.3139   -1.2812    1.1730 H   0  0  0  0  0  0  0  0  0  0  0  0
   -6.9148   -1.2605   -0.5100 H   0  0  0  0  0  0  0  0  0  0  0  0
   -8.0440   -0.8701    0.8260 H   0  0  0  0  0  0  0  0  0  0  0  0
   -6.8283    1.0649   -0.7086 H   0  0  0  0  0  0  0  0  0  0  0  0
   -7.4400    2.6342    0.9632 H   0  0  0  0  0  0  0  0  0  0  0  0
   -8.5982    1.2315    1.0259 H   0  0  0  0  0  0  0  0  0  0  0  0
   -7.2740    1.4364    2.2862 H   0  0  0  0  0  0  0  0  0  0  0  0
   -4.3487    1.7018   -1.5712 H   0  0  0  0  0  0  0  0  0  0  0  0
   -4.5452    0.0580   -2.2388 H   0  0  0  0  0  0  0  0  0  0  0  0
   -2.0760    1.6770   -1.6978 H   0  0  0  0  0  0  0  0  0  0  0  0
   -2.5611    0.7188   -3.1974 H   0  0  0  0  0  0  0  0  0  0  0  0
   -3.2627   -1.7712   -2.2081 H   0  0  0  0  0  0  0  0  0  0  0  0
   -2.1411   -2.4904   -0.9980 H   0  0  0  0  0  0  0  0  0  0  0  0
   -4.5997   -1.7889   -0.3947 H   0  0  0  0  0  0  0  0  0  0  0  0
   -3.2898   -1.5748    0.7803 H   0  0  0  0  0  0  0  0  0  0  0  0
   -0.3458   -2.2200   -0.1896 H   0  0  0  0  0  0  0  0  0  0  0  0
    2.0489   -2.1417    0.0959 H   0  0  0  0  0  0  0  0  0  0  0  0
    4.3819   -0.2193   -1.7182 H   0  0  0  0  0  0  0  0  0  0  0  0
    4.6787    0.0954    3.6410 H   0  0  0  0  0  0  0  0  0  0  0  0
    7.5662    0.2008    3.4015 H   0  0  0  0  0  0  0  0  0  0  0  0
    9.4427    0.1875    1.7230 H   0  0  0  0  0  0  0  0  0  0  0  0
    6.6052   -0.0963   -1.3927 H   0  0  0  0  0  0  0  0  0  0  0  0
    2.2375    1.4635   -2.1454 H   0  0  0  0  0  0  0  0  0  0  0  0
   -0.2369    1.3914   -2.4724 H   0  0  0  0  0  0  0  0  0  0  0  0
  1  2  1  0
  2  3  1  0
  2  4  1  0
  4  5  2  0
  4  6  2  0
  4  7  1  0
  7  8  1  0
  8  9  1  0
  9 10  1  0
 10 11  1  0
 11 12  1  0
 10 13  1  0
 13 14  2  0
 14 15  1  0
 15 16  2  0
 16 17  1  0
 17 18  2  0
 18 19  1  0
 19 20  2  0
 19 21  1  0
 21 22  1  0
 22 23  2  0
 23 24  1  0
 24 25  2  0
 25 26  1  0
 26 27  2  0
 25 28  1  0
 28 29  1  0
 28 30  2  0
 16 31  1  0
 31 32  2  0
 12  7  1  0
 32 13  1  0
 27 18  1  0
 27 22  1  0
  1 33  1  0
  1 34  1  0
  1 35  1  0
  2 36  1  0
  3 37  1  0
  3 38  1  0
  3 39  1  0
  8 40  1  0
  8 41  1  0
  9 42  1  0
  9 43  1  0
 11 44  1  0
 11 45  1  0
 12 46  1  0
 12 47  1  0
 14 48  1  0
 15 49  1  0
 17 50  1  0
 21 51  1  0
 23 52  1  0
 24 53  1  0
 26 54  1  0
 31 55  1  0
 32 56  1  0
M  CHG  2  28   1  29  -1
M  END
$$$$
[H]OC(=O)[C@@]([H])(N([H])C(=O)[C@@]([H])(N([H])C(=O)[C@@]([H])(N([H])C(=O)[C@@]1([H])N(C(=O)[C@@]([H])(N([H])[H])C([H])([H])C([H])([H])C([H])([H])N=C(N([H])[H])N([H])[H])C([H])([H])C([H])([H])C1([H])[H])C([H])([H])c1c([H])c([H])c(O[H])c([H])c1[H])[C@@]([H])(C([H])([H])[H])C([H])([H])C([H])([H])[H])C([H])([H])C([H])(C([H])([H])[H])C([H])([H])[H]
     RDKit          3D

 99100  0  0  0  0  0  0  0  0999 V2000
   -4.9810   -2.5246    2.7314 C   0  0  0  0  0  0  0  0  0  0  0  0
   -3.6008   -1.8706    2.8308 C   0  0  0  0  0  0  0  0  0  0  0  0
   -3.6945   -0.4313    2.2728 C   0  0  2  0  0  0  0  0  0  0  0  0
   -4.7340    0.3069    3.1000 C   0  0  0  0  0  0  0  0  0  0  0  0
   -3.8441   -0.3700    0.8197 C   0  0  2  0  0  0  0  0  0  0  0  0
   -2.7655   -0.8981    0.0193 N   0  0  0  0  0  0  0  0  0  0  0  0
   -1.4412   -1.1724    0.3005 C   0  0  0  0  0  0  0  0  0  0  0  0
   -0.9177   -0.9763    1.4176 O   0  0  0  0  0  0  0  0  0  0  0  0
   -0.5336   -1.7300   -0.7518 C   0  0  2  0  0  0  0  0  0  0  0  0
   -0.9963   -2.9988   -1.3903 C   0  0  0  0  0  0  0  0  0  0  0  0
   -1.1681   -4.1500   -0.5003 C   0  0  0  0  0  0  0  0  0  0  0  0
   -0.0950   -4.9898   -0.1655 C   0  0  0  0  0  0  0  0  0  0  0  0
   -0.2784   -6.0850    0.6524 C   0  0  0  0  0  0  0  0  0  0  0  0
   -1.5190   -6.3928    1.1684 C   0  0  0  0  0  0  0  0  0  0  0  0
   -1.7177   -7.5068    2.0039 O   0  0  0  0  0  0  0  0  0  0  0  0
   -2.5735   -5.5708    0.8409 C   0  0  0  0  0  0  0  0  0  0  0  0
   -2.3798   -4.4958    0.0349 C   0  0  0  0  0  0  0  0  0  0  0  0
    0.8019   -1.9341   -0.2343 N   0  0  0  0  0  0  0  0  0  0  0  0
    1.9705   -1.3017   -0.8123 C   0  0  0  0  0  0  0  0  0  0  0  0
    1.6972   -0.5784   -1.7936 O   0  0  0  0  0  0  0  0  0  0  0  0
    3.2498   -1.5828   -0.1998 C   0  0  2  0  0  0  0  0  0  0  0  0
    3.3573   -0.9440    1.1851 C   0  0  0  0  0  0  0  0  0  0  0  0
    4.8368   -1.0242    1.4619 C   0  0  0  0  0  0  0  0  0  0  0  0
    5.4632   -1.6042    0.2205 C   0  0  0  0  0  0  0  0  0  0  0  0
    4.4587   -1.2328   -0.8265 N   0  0  0  0  0  0  0  0  0  0  0  0
    4.9075   -0.7329   -2.0544 C   0  0  0  0  0  0  0  0  0  0  0  0
    4.1291   -0.5129   -2.9953 O   0  0  0  0  0  0  0  0  0  0  0  0
    6.3355   -0.4328   -2.3183 C   0  0  1  0  0  0  0  0  0  0  0  0
    6.5885   -0.2764   -3.7466 N   0  0  0  0  0  0  0  0  0  0  0  0
    6.6777    0.9547   -1.7366 C   0  0  0  0  0  0  0  0  0  0  0  0
    8.1103    1.2693   -1.9967 C   0  0  0  0  0  0  0  0  0  0  0  0
    8.4815    2.6144   -1.4582 C   0  0  0  0  0  0  0  0  0  0  0  0
    8.3045    2.7701   -0.0465 N   0  0  0  0  0  0  0  0  0  0  0  0
    9.0018    3.6490    0.6212 C   0  0  0  0  0  0  0  0  0  0  0  0
    9.9596    4.4877   -0.0002 N   0  0  0  0  0  0  0  0  0  0  0  0
    8.7829    3.7657    2.0189 N   0  0  0  0  0  0  0  0  0  0  0  0
   -4.4541    0.7867    0.1728 C   0  0  0  0  0  0  0  0  0  0  0  0
   -4.5843    0.6247   -1.1343 O   0  0  0  0  0  0  0  0  0  0  0  0
   -4.9150    1.9985    0.6190 N   0  0  0  0  0  0  0  0  0  0  0  0
   -5.5080    2.9767   -0.3731 C   0  0  1  0  0  0  0  0  0  0  0  0
   -6.9359    3.0045    0.0174 C   0  0  0  0  0  0  0  0  0  0  0  0
   -7.9269    3.8382   -0.6742 C   0  0  0  0  0  0  0  0  0  0  0  0
   -7.7776    5.3164   -0.6481 C   0  0  0  0  0  0  0  0  0  0  0  0
   -8.1756    3.3710   -2.1137 C   0  0  0  0  0  0  0  0  0  0  0  0
   -4.7183    4.1844   -0.3687 C   0  0  0  0  0  0  0  0  0  0  0  0
   -4.8003    5.1684   -1.3413 O   0  0  0  0  0  0  0  0  0  0  0  0
   -3.8885    4.3511    0.5862 O   0  0  0  0  0  0  0  0  0  0  0  0
   -5.7836   -1.8085    2.8995 H   0  0  0  0  0  0  0  0  0  0  0  0
   -5.0186   -3.0904    1.7962 H   0  0  0  0  0  0  0  0  0  0  0  0
   -5.0203   -3.2689    3.5592 H   0  0  0  0  0  0  0  0  0  0  0  0
   -3.2768   -1.7718    3.8697 H   0  0  0  0  0  0  0  0  0  0  0  0
   -2.8848   -2.4277    2.2390 H   0  0  0  0  0  0  0  0  0  0  0  0
   -2.7246    0.0436    2.5750 H   0  0  0  0  0  0  0  0  0  0  0  0
   -4.9423   -0.3206    4.0338 H   0  0  0  0  0  0  0  0  0  0  0  0
   -4.3671    1.2590    3.5229 H   0  0  0  0  0  0  0  0  0  0  0  0
   -5.6849    0.4624    2.6060 H   0  0  0  0  0  0  0  0  0  0  0  0
   -4.6490   -1.2528    0.6671 H   0  0  0  0  0  0  0  0  0  0  0  0
   -3.1195   -1.0992   -1.0090 H   0  0  0  0  0  0  0  0  0  0  0  0
   -0.4089   -0.9574   -1.5709 H   0  0  0  0  0  0  0  0  0  0  0  0
   -0.3184   -3.2605   -2.2653 H   0  0  0  0  0  0  0  0  0  0  0  0
   -1.9584   -2.7364   -1.9215 H   0  0  0  0  0  0  0  0  0  0  0  0
    0.8575   -4.7083   -0.5931 H   0  0  0  0  0  0  0  0  0  0  0  0
    0.5747   -6.7271    0.9010 H   0  0  0  0  0  0  0  0  0  0  0  0
   -1.9606   -8.3995    1.5609 H   0  0  0  0  0  0  0  0  0  0  0  0
   -3.5613   -5.7852    1.2284 H   0  0  0  0  0  0  0  0  0  0  0  0
   -3.2405   -3.8737   -0.2038 H   0  0  0  0  0  0  0  0  0  0  0  0
    0.9469   -2.5582    0.5844 H   0  0  0  0  0  0  0  0  0  0  0  0
    3.2869   -2.6931    0.0046 H   0  0  0  0  0  0  0  0  0  0  0  0
    2.7957   -1.5226    1.9479 H   0  0  0  0  0  0  0  0  0  0  0  0
    3.0027    0.1069    1.0975 H   0  0  0  0  0  0  0  0  0  0  0  0
    5.2600   -0.0214    1.6946 H   0  0  0  0  0  0  0  0  0  0  0  0
    5.0628   -1.7420    2.3001 H   0  0  0  0  0  0  0  0  0  0  0  0
    6.4370   -1.1783    0.0381 H   0  0  0  0  0  0  0  0  0  0  0  0
    5.5506   -2.7050    0.2464 H   0  0  0  0  0  0  0  0  0  0  0  0
    7.0405   -1.1830   -1.9293 H   0  0  0  0  0  0  0  0  0  0  0  0
    6.0173   -0.9092   -4.3301 H   0  0  0  0  0  0  0  0  0  0  0  0
    7.5935   -0.4941   -3.9021 H   0  0  0  0  0  0  0  0  0  0  0  0
    5.9869    1.6521   -2.2956 H   0  0  0  0  0  0  0  0  0  0  0  0
    6.4449    1.0596   -0.6891 H   0  0  0  0  0  0  0  0  0  0  0  0
    8.7242    0.4754   -1.5213 H   0  0  0  0  0  0  0  0  0  0  0  0
    8.2624    1.2591   -3.1032 H   0  0  0  0  0  0  0  0  0  0  0  0
    9.5615    2.7993   -1.6820 H   0  0  0  0  0  0  0  0  0  0  0  0
    7.9265    3.4144   -1.9931 H   0  0  0  0  0  0  0  0  0  0  0  0
    9.7136    5.2981   -0.6067 H   0  0  0  0  0  0  0  0  0  0  0  0
   10.9744    4.2983    0.1458 H   0  0  0  0  0  0  0  0  0  0  0  0
    8.7163    2.9101    2.6113 H   0  0  0  0  0  0  0  0  0  0  0  0
    8.6865    4.6986    2.4629 H   0  0  0  0  0  0  0  0  0  0  0  0
   -4.9056    2.3678    1.5599 H   0  0  0  0  0  0  0  0  0  0  0  0
   -5.4514    2.5111   -1.3927 H   0  0  0  0  0  0  0  0  0  0  0  0
   -6.9672    3.3101    1.1128 H   0  0  0  0  0  0  0  0  0  0  0  0
   -7.3703    1.9376   -0.0026 H   0  0  0  0  0  0  0  0  0  0  0  0
   -8.9275    3.6120   -0.1654 H   0  0  0  0  0  0  0  0  0  0  0  0
   -7.5016    5.7324   -1.6440 H   0  0  0  0  0  0  0  0  0  0  0  0
   -7.0979    5.5992    0.1769 H   0  0  0  0  0  0  0  0  0  0  0  0
   -8.7692    5.7629   -0.3268 H   0  0  0  0  0  0  0  0  0  0  0  0
   -7.4653    3.8732   -2.7943 H   0  0  0  0  0  0  0  0  0  0  0  0
   -8.2108    2.2863   -2.1919 H   0  0  0  0  0  0  0  0  0  0  0  0
   -9.2013    3.7360   -2.4021 H   0  0  0  0  0  0  0  0  0  0  0  0
   -4.8254    4.9105   -2.3208 H   0  0  0  0  0  0  0  0  0  0  0  0
  1  2  1  0
  2  3  1  0
  3  4  1  0
  3  5  1  0
  5  6  1  0
  6  7  1  0
  7  8  2  0
  7  9  1  0
  9 10  1  0
 10 11  1  0
 11 12  2  0
 12 13  1  0
 13 14  2  0
 14 15  1  0
 14 16  1  0
 16 17  2  0
  9 18  1  0
 18 19  1  0
 19 20  2  0
 19 21  1  0
 21 22  1  0
 22 23  1  0
 23 24  1  0
 24 25  1  0
 25 26  1  0
 26 27  2  0
 26 28  1  0
 28 29  1  0
 28 30  1  0
 30 31  1  0
 31 32  1  0
 32 33  1  0
 33 34  2  3
 34 35  1  0
 34 36  1  0
  5 37  1  0
 37 38  2  0
 37 39  1  0
 39 40  1  0
 40 41  1  0
 41 42  1  0
 42 43  1  0
 42 44  1  0
 40 45  1  0
 45 46  1  0
 45 47  2  0
 17 11  1  0
 25 21  1  0
  1 48  1  0
  1 49  1  0
  1 50  1  0
  2 51  1  0
  2 52  1  0
  3 53  1  6
  4 54  1  0
  4 55  1  0
  4 56  1  0
  5 57  1  1
  6 58  1  0
  9 59  1  6
 10 60  1  0
 10 61  1  0
 12 62  1  0
 13 63  1  0
 15 64  1  0
 16 65  1  0
 17 66  1  0
 18 67  1  0
 21 68  1  1
 22 69  1  0
 22 70  1  0
 23 71  1  0
 23 72  1  0
 24 73  1  0
 24 74  1  0
 28 75  1  1
 29 76  1  0
 29 77  1  0
 30 78  1  0
 30 79  1  0
 31 80  1  0
 31 81  1  0
 32 82  1  0
 32 83  1  0
 35 84  1  0
 35 85  1  0
 36 86  1  0
 36 87  1  0
 39 88  1  0
 40 89  1  6
 41 90  1  0
 41 91  1  0
 42 92  1  0
 43 93  1  0
 43 94  1  0
 43 95  1  0
 44 96  1  0
 44 97  1  0
 44 98  1  0
 46 99  1  0
M  END
$$$$
[H]OC(=O)C([H])([H])N(C([H])([H])c1c([H])c([H])c([H])c([H])c1[H])S(=O)(=O)c1c([H])c([H])c(C(=O)N2C([H])([H])C([H])([H])C([H])([H])[C@@]2([H])C(=O)N2C([H])([H])C([H])([H])C([H])([H])C2([H])[H])c([H])c1[H]
     RDKit          3D

 64 67  0  0  0  0  0  0  0  0999 V2000
    6.4980   -1.3187   -2.4074 O   0  0  0  0  0  0  0  0  0  0  0  0
    5.6196   -0.3804   -2.8797 C   0  0  0  0  0  0  0  0  0  0  0  0
    5.5477   -0.1638   -4.1370 O   0  0  0  0  0  0  0  0  0  0  0  0
    4.7179    0.4281   -2.0170 C   0  0  0  0  0  0  0  0  0  0  0  0
    4.9218    0.0660   -0.6407 N   0  0  0  0  0  0  0  0  0  0  0  0
    5.0591    1.1877    0.2249 C   0  0  0  0  0  0  0  0  0  0  0  0
    6.2233    0.9554    1.1275 C   0  0  0  0  0  0  0  0  0  0  0  0
    7.5306    1.0058    0.6301 C   0  0  0  0  0  0  0  0  0  0  0  0
    8.6183    0.7986    1.4505 C   0  0  0  0  0  0  0  0  0  0  0  0
    8.4595    0.5368    2.7785 C   0  0  0  0  0  0  0  0  0  0  0  0
    7.1829    0.4802    3.3011 C   0  0  0  0  0  0  0  0  0  0  0  0
    6.1010    0.6887    2.4738 C   0  0  0  0  0  0  0  0  0  0  0  0
    3.9184   -1.1900   -0.1080 S   0  0  0  0  0  0  0  0  0  0  0  0
    4.3305   -1.5937    1.2863 O   0  0  0  0  0  0  0  0  0  0  0  0
    4.2399   -2.4090   -0.9707 O   0  0  0  0  0  0  0  0  0  0  0  0
    2.2223   -0.8156   -0.1850 C   0  0  0  0  0  0  0  0  0  0  0  0
    1.4813   -1.0920   -1.3007 C   0  0  0  0  0  0  0  0  0  0  0  0
    0.1137   -0.7980   -1.3731 C   0  0  0  0  0  0  0  0  0  0  0  0
   -0.5655   -0.2185   -0.3356 C   0  0  0  0  0  0  0  0  0  0  0  0
    0.2136    0.0641    0.8149 C   0  0  0  0  0  0  0  0  0  0  0  0
    1.5464   -0.2322    0.8603 C   0  0  0  0  0  0  0  0  0  0  0  0
   -1.9738    0.0829   -0.2893 C   0  0  0  0  0  0  0  0  0  0  0  0
   -2.3633    0.7763    0.7308 O   0  0  0  0  0  0  0  0  0  0  0  0
   -3.0263   -0.2508   -1.1745 N   0  0  0  0  0  0  0  0  0  0  0  0
   -2.9378   -1.0337   -2.3583 C   0  0  0  0  0  0  0  0  0  0  0  0
   -4.3481   -1.4373   -2.7159 C   0  0  0  0  0  0  0  0  0  0  0  0
   -5.1120   -0.2141   -2.2428 C   0  0  0  0  0  0  0  0  0  0  0  0
   -4.4070    0.2067   -0.9994 C   0  0  1  0  0  0  0  0  0  0  0  0
   -5.0428   -0.4254    0.1694 C   0  0  0  0  0  0  0  0  0  0  0  0
   -4.4425   -1.3306    0.8495 O   0  0  0  0  0  0  0  0  0  0  0  0
   -6.3341   -0.0548    0.5813 N   0  0  0  0  0  0  0  0  0  0  0  0
   -7.0760   -0.5949    1.7118 C   0  0  0  0  0  0  0  0  0  0  0  0
   -8.1393    0.4282    2.0186 C   0  0  0  0  0  0  0  0  0  0  0  0
   -7.9441    1.5915    1.0680 C   0  0  0  0  0  0  0  0  0  0  0  0
   -7.1546    0.9612   -0.0702 C   0  0  0  0  0  0  0  0  0  0  0  0
    7.4970   -1.1786   -2.3595 H   0  0  0  0  0  0  0  0  0  0  0  0
    5.0132    1.4863   -2.1640 H   0  0  0  0  0  0  0  0  0  0  0  0
    3.6496    0.3513   -2.3394 H   0  0  0  0  0  0  0  0  0  0  0  0
    5.2467    2.1433   -0.3000 H   0  0  0  0  0  0  0  0  0  0  0  0
    4.1694    1.2602    0.8829 H   0  0  0  0  0  0  0  0  0  0  0  0
    7.7145    1.2103   -0.4159 H   0  0  0  0  0  0  0  0  0  0  0  0
    9.6456    0.8378    1.0598 H   0  0  0  0  0  0  0  0  0  0  0  0
    9.3420    0.3790    3.3935 H   0  0  0  0  0  0  0  0  0  0  0  0
    7.0922    0.2718    4.3518 H   0  0  0  0  0  0  0  0  0  0  0  0
    5.1339    0.6400    2.9183 H   0  0  0  0  0  0  0  0  0  0  0  0
    1.9341   -1.5491   -2.1647 H   0  0  0  0  0  0  0  0  0  0  0  0
   -0.4040   -1.0203   -2.2932 H   0  0  0  0  0  0  0  0  0  0  0  0
   -0.2701    0.5140    1.6469 H   0  0  0  0  0  0  0  0  0  0  0  0
    2.1355   -0.0075    1.7579 H   0  0  0  0  0  0  0  0  0  0  0  0
   -2.4835   -0.4490   -3.1964 H   0  0  0  0  0  0  0  0  0  0  0  0
   -2.4104   -2.0144   -2.1874 H   0  0  0  0  0  0  0  0  0  0  0  0
   -4.4900   -1.6407   -3.7882 H   0  0  0  0  0  0  0  0  0  0  0  0
   -4.6398   -2.3193   -2.1089 H   0  0  0  0  0  0  0  0  0  0  0  0
   -5.0332    0.5405   -3.0732 H   0  0  0  0  0  0  0  0  0  0  0  0
   -6.1719   -0.4330   -2.1242 H   0  0  0  0  0  0  0  0  0  0  0  0
   -4.4537    1.3050   -0.8559 H   0  0  0  0  0  0  0  0  0  0  0  0
   -6.4340   -0.6951    2.6117 H   0  0  0  0  0  0  0  0  0  0  0  0
   -7.5444   -1.5584    1.5062 H   0  0  0  0  0  0  0  0  0  0  0  0
   -8.1276    0.7797    3.0699 H   0  0  0  0  0  0  0  0  0  0  0  0
   -9.1747    0.0136    1.8485 H   0  0  0  0  0  0  0  0  0  0  0  0
   -8.9091    1.9551    0.6817 H   0  0  0  0  0  0  0  0  0  0  0  0
   -7.3344    2.3995    1.5218 H   0  0  0  0  0  0  0  0  0  0  0  0
   -6.4930    1.6540   -0.5813 H   0  0  0  0  0  0  0  0  0  0  0  0
   -7.8781    0.4192   -0.7178 H   0  0  0  0  0  0  0  0  0  0  0  0
  1  2  1  0
  2  3  2  0
  2  4  1  0
  4  5  1  0
  5  6  1  0
  6  7  1  0
  7  8  2  0
  8  9  1  0
  9 10  2  0
 10 11  1  0
 11 12  2  0
  5 13  1  0
 13 14  2  0
 13 15  2  0
 13 16  1  0
 16 17  2  0
 17 18  1  0
 18 19  2  0
 19 20  1  0
 20 21  2  0
 19 22  1  0
 22 23  2  0
 22 24  1  0
 24 25  1  0
 25 26  1  0
 26 27  1  0
 27 28  1  0
 28 29  1  0
 29 30  2  0
 29 31  1  0
 31 32  1  0
 32 33  1  0
 33 34  1  0
 34 35  1  0
 12  7  1  0
 21 16  1  0
 28 24  1  0
 35 31  1  0
  1 36  1  0
  4 37  1  0
  4 38  1  0
  6 39  1  0
  6 40  1  0
  8 41  1  0
  9 42  1  0
 10 43  1  0
 11 44  1  0
 12 45  1  0
 17 46  1  0
 18 47  1  0
 20 48  1  0
 21 49  1  0
 25 50  1  0
 25 51  1  0
 26 52  1  0
 26 53  1  0
 27 54  1  0
 27 55  1  0
 28 56  1  1
 32 57  1  0
 32 58  1  0
 33 59  1  0
 33 60  1  0
 34 61  1  0
 34 62  1  0
 35 63  1  0
 35 64  1  0
M  END
$$$$
[H]c1nc([C@@]2([H])C([H])([H])[C@]2([H])C([H])([H])Oc2nc(C([H])([H])[H])nc([H])c2-c2nc([H])n(C([H])([H])[H])c(=O)c2[H])c([H])c([H])c1OC([H])([H])[H]
     RDKit          3D

 49 52  0  0  0  0  0  0  0  0999 V2000
    7.6128   -1.0773   -0.7560 C   0  0  0  0  0  0  0  0  0  0  0  0
    7.2484   -0.0345    0.1209 O   0  0  0  0  0  0  0  0  0  0  0  0
    5.9452    0.4146    0.1445 C   0  0  0  0  0  0  0  0  0  0  0  0
    4.9490   -0.1132   -0.6639 C   0  0  0  0  0  0  0  0  0  0  0  0
    3.6632    0.3793   -0.5938 C   0  0  0  0  0  0  0  0  0  0  0  0
    3.3309    1.3979    0.2701 C   0  0  0  0  0  0  0  0  0  0  0  0
    4.3179    1.8874    1.0393 N   0  0  0  0  0  0  0  0  0  0  0  0
    5.5775    1.4370    1.0010 C   0  0  0  0  0  0  0  0  0  0  0  0
    1.9782    1.9621    0.3876 C   0  0  1  0  0  0  0  0  0  0  0  0
    1.2772    2.1705   -0.9442 C   0  0  0  0  0  0  0  0  0  0  0  0
    0.7736    1.1500    0.0932 C   0  0  2  0  0  0  0  0  0  0  0  0
   -0.5163    1.5555    0.7718 C   0  0  0  0  0  0  0  0  0  0  0  0
   -1.6115    0.7478    0.4533 O   0  0  0  0  0  0  0  0  0  0  0  0
   -1.6308   -0.6062    0.7341 C   0  0  0  0  0  0  0  0  0  0  0  0
   -0.6091   -1.2463    1.3323 N   0  0  0  0  0  0  0  0  0  0  0  0
   -0.6403   -2.5621    1.6004 C   0  0  0  0  0  0  0  0  0  0  0  0
    0.5092   -3.2550    2.2676 C   0  0  0  0  0  0  0  0  0  0  0  0
   -1.7492   -3.2307    1.2433 N   0  0  0  0  0  0  0  0  0  0  0  0
   -2.8034   -2.6334    0.6395 C   0  0  0  0  0  0  0  0  0  0  0  0
   -2.7816   -1.2920    0.3618 C   0  0  0  0  0  0  0  0  0  0  0  0
   -3.8785   -0.5716   -0.2876 C   0  0  0  0  0  0  0  0  0  0  0  0
   -5.0468   -1.1795   -0.6845 C   0  0  0  0  0  0  0  0  0  0  0  0
   -6.0543   -0.4230   -1.3013 C   0  0  0  0  0  0  0  0  0  0  0  0
   -7.1374   -0.9593   -1.6750 O   0  0  0  0  0  0  0  0  0  0  0  0
   -5.9216    0.8957   -1.5241 N   0  0  0  0  0  0  0  0  0  0  0  0
   -6.9705    1.6776   -2.1650 C   0  0  0  0  0  0  0  0  0  0  0  0
   -4.7691    1.4631   -1.1256 C   0  0  0  0  0  0  0  0  0  0  0  0
   -3.7924    0.7544   -0.5330 N   0  0  0  0  0  0  0  0  0  0  0  0
    7.2899   -0.7912   -1.7876 H   0  0  0  0  0  0  0  0  0  0  0  0
    8.7211   -1.2044   -0.7876 H   0  0  0  0  0  0  0  0  0  0  0  0
    7.1062   -2.0108   -0.4230 H   0  0  0  0  0  0  0  0  0  0  0  0
    5.2216   -0.9169   -1.3423 H   0  0  0  0  0  0  0  0  0  0  0  0
    2.9146   -0.0417   -1.2245 H   0  0  0  0  0  0  0  0  0  0  0  0
    6.3646    1.8449    1.6312 H   0  0  0  0  0  0  0  0  0  0  0  0
    1.8455    2.7766    1.1193 H   0  0  0  0  0  0  0  0  0  0  0  0
    1.7595    1.7951   -1.8510 H   0  0  0  0  0  0  0  0  0  0  0  0
    0.6918    3.0950   -1.0598 H   0  0  0  0  0  0  0  0  0  0  0  0
    0.8695    0.1100   -0.2641 H   0  0  0  0  0  0  0  0  0  0  0  0
   -0.7401    2.6355    0.5702 H   0  0  0  0  0  0  0  0  0  0  0  0
   -0.4051    1.5049    1.8923 H   0  0  0  0  0  0  0  0  0  0  0  0
    0.9922   -2.5939    3.0188 H   0  0  0  0  0  0  0  0  0  0  0  0
    0.1493   -4.1446    2.8451 H   0  0  0  0  0  0  0  0  0  0  0  0
    1.2505   -3.6186    1.5559 H   0  0  0  0  0  0  0  0  0  0  0  0
   -3.6896   -3.2065    0.3625 H   0  0  0  0  0  0  0  0  0  0  0  0
   -5.2000   -2.2243   -0.5296 H   0  0  0  0  0  0  0  0  0  0  0  0
   -7.2740    1.2615   -3.1379 H   0  0  0  0  0  0  0  0  0  0  0  0
   -7.8655    1.7880   -1.4952 H   0  0  0  0  0  0  0  0  0  0  0  0
   -6.5933    2.7011   -2.3275 H   0  0  0  0  0  0  0  0  0  0  0  0
   -4.6793    2.5311   -1.3141 H   0  0  0  0  0  0  0  0  0  0  0  0
  1  2  1  0
  2  3  1  0
  3  4  2  0
  4  5  1  0
  5  6  2  0
  6  7  1  0
  7  8  2  0
  6  9  1  0
  9 10  1  0
 10 11  1  0
 11 12  1  0
 12 13  1  0
 13 14  1  0
 14 15  2  0
 15 16  1  0
 16 17  1  0
 16 18  2  0
 18 19  1  0
 19 20  2  0
 20 21  1  0
 21 22  2  0
 22 23  1  0
 23 24  2  0
 23 25  1  0
 25 26  1  0
 25 27  1  0
 27 28  2  0
  8  3  1  0
 11  9  1  0
 20 14  1  0
 28 21  1  0
  1 29  1  0
  1 30  1  0
  1 31  1  0
  4 32  1  0
  5 33  1  0
  8 34  1  0
  9 35  1  1
 10 36  1  0
 10 37  1  0
 11 38  1  6
 12 39  1  0
 12 40  1  0
 17 41  1  0
 17 42  1  0
 17 43  1  0
 19 44  1  0
 22 45  1  0
 26 46  1  0
 26 47  1  0
 26 48  1  0
 27 49  1  0
M  END
$$$$
[H]ON([H])C(=O)C([H])([H])N(C([H])([H])c1c([H])c([H])c([N+](=O)[O-])c([H])c1[H])S(=O)(=O)c1c([H])c([H])c(N([H])C(=O)N([H])S(=O)(=O)c2c([H])c([H])c(Cl)c([H])c2[H])c([H])c1[H]
     RDKit          3D

 59 61  0  0  0  0  0  0  0  0999 V2000
   -6.4450   -3.7716    3.2074 O   0  0  0  0  0  0  0  0  0  0  0  0
   -5.5611   -2.8491    2.7220 N   0  0  0  0  0  0  0  0  0  0  0  0
   -5.3911   -2.6391    1.3277 C   0  0  0  0  0  0  0  0  0  0  0  0
   -6.0865   -3.3359    0.5470 O   0  0  0  0  0  0  0  0  0  0  0  0
   -4.4096   -1.6170    0.9029 C   0  0  0  0  0  0  0  0  0  0  0  0
   -4.2811   -1.4506   -0.4789 N   0  0  0  0  0  0  0  0  0  0  0  0
   -5.0303   -0.4817   -1.1511 C   0  0  0  0  0  0  0  0  0  0  0  0
   -4.4847    0.8983   -1.1228 C   0  0  0  0  0  0  0  0  0  0  0  0
   -5.0231    1.9085   -1.9139 C   0  0  0  0  0  0  0  0  0  0  0  0
   -4.5334    3.1890   -1.8919 C   0  0  0  0  0  0  0  0  0  0  0  0
   -3.4726    3.5405   -1.0765 C   0  0  0  0  0  0  0  0  0  0  0  0
   -2.9219    2.5517   -0.2816 C   0  0  0  0  0  0  0  0  0  0  0  0
   -3.4324    1.2722   -0.3220 C   0  0  0  0  0  0  0  0  0  0  0  0
   -2.9586    4.8671   -1.0452 N   0  0  0  0  0  0  0  0  0  0  0  0
   -1.9097    5.1591   -0.2154 O   0  0  0  0  0  0  0  0  0  0  0  0
   -3.4286    5.7740   -1.7487 O   0  0  0  0  0  0  0  0  0  0  0  0
   -3.1474   -2.3659   -1.3176 S   0  0  0  0  0  0  0  0  0  0  0  0
   -3.1827   -2.1031   -2.8160 O   0  0  0  0  0  0  0  0  0  0  0  0
   -3.4855   -3.8351   -1.0757 O   0  0  0  0  0  0  0  0  0  0  0  0
   -1.4882   -2.1080   -0.8326 C   0  0  0  0  0  0  0  0  0  0  0  0
   -0.6861   -1.2036   -1.4827 C   0  0  0  0  0  0  0  0  0  0  0  0
    0.6355   -0.9749   -1.1189 C   0  0  0  0  0  0  0  0  0  0  0  0
    1.2235   -1.6479   -0.0768 C   0  0  0  0  0  0  0  0  0  0  0  0
    2.5590   -1.5069    0.3579 N   0  0  0  0  0  0  0  0  0  0  0  0
    3.5989   -0.9284   -0.3565 C   0  0  0  0  0  0  0  0  0  0  0  0
    3.4683   -0.4576   -1.5053 O   0  0  0  0  0  0  0  0  0  0  0  0
    4.8945   -0.8482    0.2153 N   0  0  0  0  0  0  0  0  0  0  0  0
    6.1708   -0.1299   -0.6762 S   0  0  0  0  0  0  0  0  0  0  0  0
    5.6005    0.5871   -1.8690 O   0  0  0  0  0  0  0  0  0  0  0  0
    7.0781   -1.2146   -1.1787 O   0  0  0  0  0  0  0  0  0  0  0  0
    7.0513    0.9895    0.3568 C   0  0  0  0  0  0  0  0  0  0  0  0
    6.6978    2.3255    0.4264 C   0  0  0  0  0  0  0  0  0  0  0  0
    7.3881    3.2023    1.2354 C   0  0  0  0  0  0  0  0  0  0  0  0
    8.4475    2.7814    1.9985 C   0  0  0  0  0  0  0  0  0  0  0  0
    9.3511    3.8733    3.0440 Cl  0  0  0  0  0  0  0  0  0  0  0  0
    8.8150    1.4500    1.9417 C   0  0  0  0  0  0  0  0  0  0  0  0
    8.1164    0.5766    1.1268 C   0  0  0  0  0  0  0  0  0  0  0  0
    0.3973   -2.5806    0.5946 C   0  0  0  0  0  0  0  0  0  0  0  0
   -0.8981   -2.7887    0.2202 C   0  0  0  0  0  0  0  0  0  0  0  0
   -7.1927   -3.9168    2.5572 H   0  0  0  0  0  0  0  0  0  0  0  0
   -5.0315   -2.3234    3.4553 H   0  0  0  0  0  0  0  0  0  0  0  0
   -3.4423   -1.8359    1.4199 H   0  0  0  0  0  0  0  0  0  0  0  0
   -4.7594   -0.6560    1.3575 H   0  0  0  0  0  0  0  0  0  0  0  0
   -5.2199   -0.8298   -2.1893 H   0  0  0  0  0  0  0  0  0  0  0  0
   -6.0422   -0.4140   -0.6583 H   0  0  0  0  0  0  0  0  0  0  0  0
   -5.8550    1.6764   -2.5676 H   0  0  0  0  0  0  0  0  0  0  0  0
   -4.9499    3.9838   -2.5081 H   0  0  0  0  0  0  0  0  0  0  0  0
   -2.0911    2.7927    0.3671 H   0  0  0  0  0  0  0  0  0  0  0  0
   -2.9544    0.5485    0.3237 H   0  0  0  0  0  0  0  0  0  0  0  0
   -1.1081   -0.6386   -2.3250 H   0  0  0  0  0  0  0  0  0  0  0  0
    1.2210   -0.2332   -1.6638 H   0  0  0  0  0  0  0  0  0  0  0  0
    2.7879   -1.8788    1.3329 H   0  0  0  0  0  0  0  0  0  0  0  0
    5.0516   -1.2248    1.1652 H   0  0  0  0  0  0  0  0  0  0  0  0
    5.8525    2.6551   -0.1858 H   0  0  0  0  0  0  0  0  0  0  0  0
    7.0923    4.2403    1.2712 H   0  0  0  0  0  0  0  0  0  0  0  0
    9.6466    1.0723    2.5280 H   0  0  0  0  0  0  0  0  0  0  0  0
    8.3808   -0.4853    1.0579 H   0  0  0  0  0  0  0  0  0  0  0  0
    0.8477   -3.1299    1.4310 H   0  0  0  0  0  0  0  0  0  0  0  0
   -1.4698   -3.5104    0.7720 H   0  0  0  0  0  0  0  0  0  0  0  0
  1  2  1  0
  2  3  1  0
  3  4  2  0
  3  5  1  0
  5  6  1  0
  6  7  1  0
  7  8  1  0
  8  9  2  0
  9 10  1  0
 10 11  2  0
 11 12  1  0
 12 13  2  0
 11 14  1  0
 14 15  1  0
 14 16  2  0
  6 17  1  0
 17 18  2  0
 17 19  2  0
 17 20  1  0
 20 21  2  0
 21 22  1  0
 22 23  2  0
 23 24  1  0
 24 25  1  0
 25 26  2  0
 25 27  1  0
 27 28  1  0
 28 29  2  0
 28 30  2  0
 28 31  1  0
 31 32  2  0
 32 33  1  0
 33 34  2  0
 34 35  1  0
 34 36  1  0
 36 37  2  0
 23 38  1  0
 38 39  2  0
 13  8  1  0
 39 20  1  0
 37 31  1  0
  1 40  1  0
  2 41  1  0
  5 42  1  0
  5 43  1  0
  7 44  1  0
  7 45  1  0
  9 46  1  0
 10 47  1  0
 12 48  1  0
 13 49  1  0
 21 50  1  0
 22 51  1  0
 24 52  1  0
 27 53  1  0
 32 54  1  0
 33 55  1  0
 36 56  1  0
 37 57  1  0
 38 58  1  0
 39 59  1  0
M  CHG  2  14   1  15  -1
M  END
$$$$
[H]c1nc(N([H])c2c([H])c(OC([H])([H])[H])c(OC([H])([H])[H])c(OC([H])([H])[H])c2[H])nc(N([H])c2nc3c(c([H])c2[H])OC(C([H])([H])[H])(C([H])([H])[H])C(=O)N3[H])c1F
     RDKit          3D

 57 60  0  0  0  0  0  0  0  0999 V2000
   -5.6364    2.1181   -1.8630 C   0  0  0  0  0  0  0  0  0  0  0  0
   -5.8443    0.7587   -1.5880 O   0  0  0  0  0  0  0  0  0  0  0  0
   -4.8072    0.0010   -1.0783 C   0  0  0  0  0  0  0  0  0  0  0  0
   -3.5618    0.6012   -0.8432 C   0  0  0  0  0  0  0  0  0  0  0  0
   -2.5031   -0.0703   -0.3477 C   0  0  0  0  0  0  0  0  0  0  0  0
   -1.2316    0.4626   -0.0655 N   0  0  0  0  0  0  0  0  0  0  0  0
   -0.9067    1.8244    0.0656 C   0  0  0  0  0  0  0  0  0  0  0  0
   -1.7494    2.8585   -0.0431 N   0  0  0  0  0  0  0  0  0  0  0  0
   -1.4116    4.1432    0.0863 C   0  0  0  0  0  0  0  0  0  0  0  0
   -0.1125    4.4539    0.3502 C   0  0  0  0  0  0  0  0  0  0  0  0
    0.3587    5.6995    0.5032 F   0  0  0  0  0  0  0  0  0  0  0  0
    0.8217    3.4140    0.4762 C   0  0  0  0  0  0  0  0  0  0  0  0
    2.1801    3.7060    0.7505 N   0  0  0  0  0  0  0  0  0  0  0  0
    3.1050    2.6399    0.8733 C   0  0  0  0  0  0  0  0  0  0  0  0
    4.4571    2.8965    1.1446 C   0  0  0  0  0  0  0  0  0  0  0  0
    5.3443    1.8517    1.2613 C   0  0  0  0  0  0  0  0  0  0  0  0
    4.9285    0.5481    1.1161 C   0  0  0  0  0  0  0  0  0  0  0  0
    5.7961   -0.5293    1.2273 O   0  0  0  0  0  0  0  0  0  0  0  0
    5.5066   -1.7939    0.6515 C   0  0  0  0  0  0  0  0  0  0  0  0
    6.2846   -2.8749    1.3459 C   0  0  0  0  0  0  0  0  0  0  0  0
    5.8127   -1.7705   -0.8228 C   0  0  0  0  0  0  0  0  0  0  0  0
    4.0556   -2.1122    0.8177 C   0  0  0  0  0  0  0  0  0  0  0  0
    3.6763   -3.3008    1.0572 O   0  0  0  0  0  0  0  0  0  0  0  0
    3.1427   -1.0383    0.6962 N   0  0  0  0  0  0  0  0  0  0  0  0
    3.5828    0.3027    0.8467 C   0  0  0  0  0  0  0  0  0  0  0  0
    2.7547    1.3550    0.7416 N   0  0  0  0  0  0  0  0  0  0  0  0
    0.3826    2.1601    0.3289 N   0  0  0  0  0  0  0  0  0  0  0  0
   -2.7045   -1.4372   -0.0691 C   0  0  0  0  0  0  0  0  0  0  0  0
   -3.9082   -2.0549   -0.2874 C   0  0  0  0  0  0  0  0  0  0  0  0
   -4.0666   -3.3859   -0.0045 O   0  0  0  0  0  0  0  0  0  0  0  0
   -2.9762   -4.1177    0.5153 C   0  0  0  0  0  0  0  0  0  0  0  0
   -4.9761   -1.3425   -0.7952 C   0  0  0  0  0  0  0  0  0  0  0  0
   -6.2188   -1.9257   -1.0338 O   0  0  0  0  0  0  0  0  0  0  0  0
   -7.1743   -1.9137    0.0186 C   0  0  0  0  0  0  0  0  0  0  0  0
   -4.7813    2.3111   -2.5387 H   0  0  0  0  0  0  0  0  0  0  0  0
   -5.4850    2.7232   -0.9417 H   0  0  0  0  0  0  0  0  0  0  0  0
   -6.5386    2.5082   -2.4098 H   0  0  0  0  0  0  0  0  0  0  0  0
   -3.4970    1.6360   -1.0973 H   0  0  0  0  0  0  0  0  0  0  0  0
   -0.4103   -0.2136    0.0641 H   0  0  0  0  0  0  0  0  0  0  0  0
   -2.1604    4.9024   -0.0184 H   0  0  0  0  0  0  0  0  0  0  0  0
    2.4712    4.6872    0.8556 H   0  0  0  0  0  0  0  0  0  0  0  0
    4.7318    3.9285    1.2492 H   0  0  0  0  0  0  0  0  0  0  0  0
    6.3943    2.0780    1.4734 H   0  0  0  0  0  0  0  0  0  0  0  0
    5.7812   -3.1588    2.2953 H   0  0  0  0  0  0  0  0  0  0  0  0
    7.3278   -2.5920    1.5737 H   0  0  0  0  0  0  0  0  0  0  0  0
    6.3119   -3.7970    0.7168 H   0  0  0  0  0  0  0  0  0  0  0  0
    5.5475   -2.7321   -1.2838 H   0  0  0  0  0  0  0  0  0  0  0  0
    5.2428   -0.9509   -1.3072 H   0  0  0  0  0  0  0  0  0  0  0  0
    6.8942   -1.5474   -0.9277 H   0  0  0  0  0  0  0  0  0  0  0  0
    2.1474   -1.2464    0.4955 H   0  0  0  0  0  0  0  0  0  0  0  0
   -1.8577   -2.0119    0.3366 H   0  0  0  0  0  0  0  0  0  0  0  0
   -2.2185   -4.1935   -0.2936 H   0  0  0  0  0  0  0  0  0  0  0  0
   -3.3828   -5.1246    0.7905 H   0  0  0  0  0  0  0  0  0  0  0  0
   -2.5554   -3.6060    1.4036 H   0  0  0  0  0  0  0  0  0  0  0  0
   -7.4919   -2.9486    0.2973 H   0  0  0  0  0  0  0  0  0  0  0  0
   -8.0902   -1.3564   -0.3279 H   0  0  0  0  0  0  0  0  0  0  0  0
   -6.7818   -1.4227    0.9319 H   0  0  0  0  0  0  0  0  0  0  0  0
  1  2  1  0
  2  3  1  0
  3  4  2  0
  4  5  1  0
  5  6  1  0
  6  7  1  0
  7  8  2  0
  8  9  1  0
  9 10  2  0
 10 11  1  0
 10 12  1  0
 12 13  1  0
 13 14  1  0
 14 15  2  0
 15 16  1  0
 16 17  2  0
 17 18  1  0
 18 19  1  0
 19 20  1  0
 19 21  1  0
 19 22  1  0
 22 23  2  0
 22 24  1  0
 24 25  1  0
 25 26  2  0
 12 27  2  0
  5 28  2  0
 28 29  1  0
 29 30  1  0
 30 31  1  0
 29 32  2  0
 32 33  1  0
 33 34  1  0
 32  3  1  0
 27  7  1  0
 26 14  1  0
 25 17  1  0
  1 35  1  0
  1 36  1  0
  1 37  1  0
  4 38  1  0
  6 39  1  0
  9 40  1  0
 13 41  1  0
 15 42  1  0
 16 43  1  0
 20 44  1  0
 20 45  1  0
 20 46  1  0
 21 47  1  0
 21 48  1  0
 21 49  1  0
 24 50  1  0
 28 51  1  0
 31 52  1  0
 31 53  1  0
 31 54  1  0
 34 55  1  0
 34 56  1  0
 34 57  1  0
M  END
$$$$
[H]OC([H])([H])C([H])([H])N1C([H])([H])C([H])([H])N(C2([H])C([H])([H])C([H])([H])N(c3c([H])c([H])c(N([H])c4nc([H])c(F)c(N([H])c5c([H])c([H])c([H])c([H])c5S(=O)(=O)C([H])(C([H])([H])[H])C([H])([H])[H])n4)c(OC([H])([H])[H])c3[H])C([H])([H])C2([H])[H])C([H])([H])C1([H])[H]
     RDKit          3D

 86 90  0  0  0  0  0  0  0  0999 V2000
   -2.5610   -2.6560   -3.4345 C   0  0  0  0  0  0  0  0  0  0  0  0
   -1.1757   -2.4897   -3.2566 O   0  0  0  0  0  0  0  0  0  0  0  0
   -0.7079   -1.6444   -2.2624 C   0  0  0  0  0  0  0  0  0  0  0  0
   -1.5924   -0.9660   -1.4533 C   0  0  0  0  0  0  0  0  0  0  0  0
   -1.1591   -0.1197   -0.4600 C   0  0  0  0  0  0  0  0  0  0  0  0
    0.1998    0.0185   -0.3095 C   0  0  0  0  0  0  0  0  0  0  0  0
    1.0929   -0.6758   -1.1356 C   0  0  0  0  0  0  0  0  0  0  0  0
    0.6834   -1.5214   -2.1294 C   0  0  0  0  0  0  0  0  0  0  0  0
    1.5482   -2.2343   -2.9749 N   0  0  0  0  0  0  0  0  0  0  0  0
    2.9023   -2.3733   -3.0477 C   0  0  0  0  0  0  0  0  0  0  0  0
    3.3543   -3.2078   -4.0580 N   0  0  0  0  0  0  0  0  0  0  0  0
    4.6553   -3.4571   -4.2137 C   0  0  0  0  0  0  0  0  0  0  0  0
    5.6024   -2.9073   -3.3923 C   0  0  0  0  0  0  0  0  0  0  0  0
    6.9197   -3.1476   -3.5405 F   0  0  0  0  0  0  0  0  0  0  0  0
    5.1663   -2.0582   -2.3634 C   0  0  0  0  0  0  0  0  0  0  0  0
    6.1157   -1.5511   -1.4517 N   0  0  0  0  0  0  0  0  0  0  0  0
    6.0022   -0.6245   -0.4191 C   0  0  0  0  0  0  0  0  0  0  0  0
    4.9823    0.2949   -0.3246 C   0  0  0  0  0  0  0  0  0  0  0  0
    4.9836    1.2088    0.7139 C   0  0  0  0  0  0  0  0  0  0  0  0
    5.9612    1.2489    1.6668 C   0  0  0  0  0  0  0  0  0  0  0  0
    6.9969    0.3146    1.5665 C   0  0  0  0  0  0  0  0  0  0  0  0
    7.0288   -0.6073    0.5519 C   0  0  0  0  0  0  0  0  0  0  0  0
    8.3376   -1.7792    0.4826 S   0  0  0  0  0  0  0  0  0  0  0  0
    7.8170   -3.1666    0.5186 O   0  0  0  0  0  0  0  0  0  0  0  0
    9.2355   -1.5425   -0.7221 O   0  0  0  0  0  0  0  0  0  0  0  0
    9.4452   -1.5750    1.8891 C   0  0  0  0  0  0  0  0  0  0  0  0
   10.4246   -2.7682    1.7637 C   0  0  0  0  0  0  0  0  0  0  0  0
   10.2635   -0.3469    1.6620 C   0  0  0  0  0  0  0  0  0  0  0  0
    3.8522   -1.8609   -2.2769 N   0  0  0  0  0  0  0  0  0  0  0  0
   -2.0668    0.5738    0.4172 N   0  0  0  0  0  0  0  0  0  0  0  0
   -3.2597   -0.0801    0.8690 C   0  0  0  0  0  0  0  0  0  0  0  0
   -4.4869    0.7644    0.6937 C   0  0  0  0  0  0  0  0  0  0  0  0
   -4.2393    2.1568    1.2596 C   0  0  0  0  0  0  0  0  0  0  0  0
   -3.0337    2.7932    0.6286 C   0  0  0  0  0  0  0  0  0  0  0  0
   -1.8055    1.9258    0.8537 C   0  0  0  0  0  0  0  0  0  0  0  0
   -5.3720    2.9644    1.3565 N   0  0  0  0  0  0  0  0  0  0  0  0
   -6.0993    3.3263    0.2071 C   0  0  0  0  0  0  0  0  0  0  0  0
   -7.3261    2.4335   -0.0408 C   0  0  0  0  0  0  0  0  0  0  0  0
   -7.9281    2.0935    1.2028 N   0  0  0  0  0  0  0  0  0  0  0  0
   -9.2809    1.6572    1.1649 C   0  0  0  0  0  0  0  0  0  0  0  0
  -10.2766    2.7235    0.7833 C   0  0  0  0  0  0  0  0  0  0  0  0
  -11.5431    2.1293    0.8075 O   0  0  0  0  0  0  0  0  0  0  0  0
   -7.6512    3.0499    2.2547 C   0  0  0  0  0  0  0  0  0  0  0  0
   -6.1487    2.8894    2.5332 C   0  0  0  0  0  0  0  0  0  0  0  0
   -3.0279   -1.6612   -3.5728 H   0  0  0  0  0  0  0  0  0  0  0  0
   -2.6964   -3.3276   -4.3156 H   0  0  0  0  0  0  0  0  0  0  0  0
   -3.0510   -3.1201   -2.5472 H   0  0  0  0  0  0  0  0  0  0  0  0
   -2.6674   -1.0882   -1.5848 H   0  0  0  0  0  0  0  0  0  0  0  0
    0.5683    0.6749    0.4605 H   0  0  0  0  0  0  0  0  0  0  0  0
    2.1302   -0.5447   -0.9669 H   0  0  0  0  0  0  0  0  0  0  0  0
    0.9932   -2.7942   -3.7445 H   0  0  0  0  0  0  0  0  0  0  0  0
    5.0310   -4.1116   -5.0080 H   0  0  0  0  0  0  0  0  0  0  0  0
    7.1023   -1.9677   -1.5983 H   0  0  0  0  0  0  0  0  0  0  0  0
    4.2044    0.3122   -1.0778 H   0  0  0  0  0  0  0  0  0  0  0  0
    4.1650    1.9293    0.7789 H   0  0  0  0  0  0  0  0  0  0  0  0
    5.9390    1.9742    2.4736 H   0  0  0  0  0  0  0  0  0  0  0  0
    7.7821    0.3431    2.3334 H   0  0  0  0  0  0  0  0  0  0  0  0
    8.9234   -1.6462    2.8499 H   0  0  0  0  0  0  0  0  0  0  0  0
   11.2692   -2.6671    2.4485 H   0  0  0  0  0  0  0  0  0  0  0  0
    9.8493   -3.7111    1.8539 H   0  0  0  0  0  0  0  0  0  0  0  0
   10.7800   -2.7150    0.6922 H   0  0  0  0  0  0  0  0  0  0  0  0
   11.1927   -0.6264    1.0926 H   0  0  0  0  0  0  0  0  0  0  0  0
   10.6359    0.1051    2.6191 H   0  0  0  0  0  0  0  0  0  0  0  0
    9.7665    0.4135    1.0186 H   0  0  0  0  0  0  0  0  0  0  0  0
   -3.1464   -0.4092    1.9493 H   0  0  0  0  0  0  0  0  0  0  0  0
   -3.3541   -1.0512    0.3246 H   0  0  0  0  0  0  0  0  0  0  0  0
   -5.2909    0.3039    1.3174 H   0  0  0  0  0  0  0  0  0  0  0  0
   -4.7312    0.8068   -0.3700 H   0  0  0  0  0  0  0  0  0  0  0  0
   -3.9044    1.9326    2.3291 H   0  0  0  0  0  0  0  0  0  0  0  0
   -3.1166    2.9573   -0.4662 H   0  0  0  0  0  0  0  0  0  0  0  0
   -2.8415    3.7519    1.1660 H   0  0  0  0  0  0  0  0  0  0  0  0
   -1.4776    1.9275    1.8980 H   0  0  0  0  0  0  0  0  0  0  0  0
   -0.9650    2.3129    0.2003 H   0  0  0  0  0  0  0  0  0  0  0  0
   -6.5523    4.3452    0.3788 H   0  0  0  0  0  0  0  0  0  0  0  0
   -5.4938    3.4499   -0.7150 H   0  0  0  0  0  0  0  0  0  0  0  0
   -8.0488    2.9718   -0.6583 H   0  0  0  0  0  0  0  0  0  0  0  0
   -7.0435    1.5022   -0.5660 H   0  0  0  0  0  0  0  0  0  0  0  0
   -9.5913    1.1108    2.0807 H   0  0  0  0  0  0  0  0  0  0  0  0
   -9.3428    0.8788    0.3485 H   0  0  0  0  0  0  0  0  0  0  0  0
  -10.2285    3.6035    1.4347 H   0  0  0  0  0  0  0  0  0  0  0  0
  -10.0562    2.9686   -0.2965 H   0  0  0  0  0  0  0  0  0  0  0  0
  -11.5323    1.2978    1.3511 H   0  0  0  0  0  0  0  0  0  0  0  0
   -8.1779    2.7459    3.1764 H   0  0  0  0  0  0  0  0  0  0  0  0
   -7.9070    4.0734    1.9983 H   0  0  0  0  0  0  0  0  0  0  0  0
   -6.0643    1.9363    3.0982 H   0  0  0  0  0  0  0  0  0  0  0  0
   -5.8804    3.7339    3.2357 H   0  0  0  0  0  0  0  0  0  0  0  0
  1  2  1  0
  2  3  1  0
  3  4  2  0
  4  5  1  0
  5  6  2  0
  6  7  1  0
  7  8  2  0
  8  9  1  0
  9 10  1  0
 10 11  2  0
 11 12  1  0
 12 13  2  0
 13 14  1  0
 13 15  1  0
 15 16  1  0
 16 17  1  0
 17 18  2  0
 18 19  1  0
 19 20  2  0
 20 21  1  0
 21 22  2  0
 22 23  1  0
 23 24  2  0
 23 25  2  0
 23 26  1  0
 26 27  1  0
 26 28  1  0
 15 29  2  0
  5 30  1  0
 30 31  1  0
 31 32  1  0
 32 33  1  0
 33 34  1  0
 34 35  1  0
 33 36  1  0
 36 37  1  0
 37 38  1  0
 38 39  1  0
 39 40  1  0
 40 41  1  0
 41 42  1  0
 39 43  1  0
 43 44  1  0
  8  3  1  0
 29 10  1  0
 35 30  1  0
 44 36  1  0
 22 17  1  0
  1 45  1  0
  1 46  1  0
  1 47  1  0
  4 48  1  0
  6 49  1  0
  7 50  1  0
  9 51  1  0
 12 52  1  0
 16 53  1  0
 18 54  1  0
 19 55  1  0
 20 56  1  0
 21 57  1  0
 26 58  1  0
 27 59  1  0
 27 60  1  0
 27 61  1  0
 28 62  1  0
 28 63  1  0
 28 64  1  0
 31 65  1  0
 31 66  1  0
 32 67  1  0
 32 68  1  0
 33 69  1  0
 34 70  1  0
 34 71  1  0
 35 72  1  0
 35 73  1  0
 37 74  1  0
 37 75  1  0
 38 76  1  0
 38 77  1  0
 40 78  1  0
 40 79  1  0
 41 80  1  0
 41 81  1  0
 42 82  1  0
 43 83  1  0
 43 84  1  0
 44 85  1  0
 44 86  1  0
M  END
$$$$
[H]c1c([H])c([C@]([H])(N([H])[C@]([H])(C(=O)N([H])C([H])([H])C#N)C([H])([H])C(F)(C([H])([H])[H])C([H])([H])[H])C(F)(F)F)c([H])c([H])c1-c1c([H])c([H])c(S(=O)(=O)C([H])([H])[H])c([H])c1[H]
     RDKit          3D

 59 60  0  0  0  0  0  0  0  0999 V2000
   -4.6500    3.5670    1.4583 C   0  0  0  0  0  0  0  0  0  0  0  0
   -4.8306    2.0619    1.1166 C   0  0  0  0  0  0  0  0  0  0  0  0
   -5.4021    1.4758    2.4086 C   0  0  0  0  0  0  0  0  0  0  0  0
   -5.7166    2.0564    0.0802 F   0  0  0  0  0  0  0  0  0  0  0  0
   -3.4723    1.5699    0.8256 C   0  0  0  0  0  0  0  0  0  0  0  0
   -3.3532    0.0884    0.4567 C   0  0  2  0  0  0  0  0  0  0  0  0
   -1.9651   -0.1139    0.2383 N   0  0  0  0  0  0  0  0  0  0  0  0
   -1.4811   -1.2501   -0.4220 C   0  0  1  0  0  0  0  0  0  0  0  0
    0.0235   -1.0716   -0.4605 C   0  0  0  0  0  0  0  0  0  0  0  0
    0.6227   -0.7053    0.7099 C   0  0  0  0  0  0  0  0  0  0  0  0
    1.9818   -0.5326    0.7282 C   0  0  0  0  0  0  0  0  0  0  0  0
    2.7501   -0.7126   -0.3858 C   0  0  0  0  0  0  0  0  0  0  0  0
    2.1596   -1.0808   -1.5705 C   0  0  0  0  0  0  0  0  0  0  0  0
    0.7634   -1.2600   -1.5887 C   0  0  0  0  0  0  0  0  0  0  0  0
    4.2108   -0.5178   -0.2768 C   0  0  0  0  0  0  0  0  0  0  0  0
    5.0846   -1.2122   -1.0568 C   0  0  0  0  0  0  0  0  0  0  0  0
    6.4510   -1.0138   -0.9138 C   0  0  0  0  0  0  0  0  0  0  0  0
    6.9459   -0.1200    0.0121 C   0  0  0  0  0  0  0  0  0  0  0  0
    6.0809    0.5942    0.8110 C   0  0  0  0  0  0  0  0  0  0  0  0
    4.7121    0.3748    0.6439 C   0  0  0  0  0  0  0  0  0  0  0  0
    8.6778    0.0722    0.1245 S   0  0  0  0  0  0  0  0  0  0  0  0
    9.1338    1.4640   -0.8751 C   0  0  0  0  0  0  0  0  0  0  0  0
    9.1215    0.2680    1.5431 O   0  0  0  0  0  0  0  0  0  0  0  0
    9.3415   -1.1607   -0.4532 O   0  0  0  0  0  0  0  0  0  0  0  0
   -1.6953   -2.5899    0.2280 C   0  0  0  0  0  0  0  0  0  0  0  0
   -3.0221   -2.8499    0.4172 F   0  0  0  0  0  0  0  0  0  0  0  0
   -1.0394   -2.7329    1.4409 F   0  0  0  0  0  0  0  0  0  0  0  0
   -1.1143   -3.5993   -0.5796 F   0  0  0  0  0  0  0  0  0  0  0  0
   -4.1691   -0.0652   -0.8328 C   0  0  0  0  0  0  0  0  0  0  0  0
   -3.5318    0.5157   -1.7964 O   0  0  0  0  0  0  0  0  0  0  0  0
   -5.3113   -0.6907   -0.9192 N   0  0  0  0  0  0  0  0  0  0  0  0
   -6.5579   -1.3732   -1.0140 C   0  0  0  0  0  0  0  0  0  0  0  0
   -6.6266   -2.4801   -1.9227 C   0  0  0  0  0  0  0  0  0  0  0  0
   -6.6644   -3.3648   -2.6605 N   0  0  0  0  0  0  0  0  0  0  0  0
   -5.5088    3.9059    2.0582 H   0  0  0  0  0  0  0  0  0  0  0  0
   -4.7190    4.1424    0.4904 H   0  0  0  0  0  0  0  0  0  0  0  0
   -3.6574    3.7636    1.8672 H   0  0  0  0  0  0  0  0  0  0  0  0
   -4.6215    1.5956    3.1758 H   0  0  0  0  0  0  0  0  0  0  0  0
   -6.2520    2.1131    2.7089 H   0  0  0  0  0  0  0  0  0  0  0  0
   -5.7510    0.4471    2.2766 H   0  0  0  0  0  0  0  0  0  0  0  0
   -2.8436    1.7545    1.7461 H   0  0  0  0  0  0  0  0  0  0  0  0
   -3.0355    2.1915    0.0110 H   0  0  0  0  0  0  0  0  0  0  0  0
   -3.7183   -0.5511    1.2579 H   0  0  0  0  0  0  0  0  0  0  0  0
   -1.5041    0.7541   -0.1139 H   0  0  0  0  0  0  0  0  0  0  0  0
   -1.7832   -1.2973   -1.5068 H   0  0  0  0  0  0  0  0  0  0  0  0
    0.0222   -0.5446    1.6303 H   0  0  0  0  0  0  0  0  0  0  0  0
    2.4361   -0.2484    1.6571 H   0  0  0  0  0  0  0  0  0  0  0  0
    2.7585   -1.2161   -2.4435 H   0  0  0  0  0  0  0  0  0  0  0  0
    0.3428   -1.5487   -2.5317 H   0  0  0  0  0  0  0  0  0  0  0  0
    4.6772   -1.9089   -1.7791 H   0  0  0  0  0  0  0  0  0  0  0  0
    7.1309   -1.5780   -1.5446 H   0  0  0  0  0  0  0  0  0  0  0  0
    6.4571    1.2932    1.5461 H   0  0  0  0  0  0  0  0  0  0  0  0
    4.0432    0.9285    1.2648 H   0  0  0  0  0  0  0  0  0  0  0  0
    8.9391    2.4318   -0.3664 H   0  0  0  0  0  0  0  0  0  0  0  0
   10.2191    1.4371   -1.1362 H   0  0  0  0  0  0  0  0  0  0  0  0
    8.5854    1.4165   -1.8379 H   0  0  0  0  0  0  0  0  0  0  0  0
   -5.4343   -0.3962   -2.2376 H   0  0  0  0  0  0  0  0  0  0  0  0
   -7.4328   -0.6806   -1.1805 H   0  0  0  0  0  0  0  0  0  0  0  0
   -6.8077   -1.8157    0.0152 H   0  0  0  0  0  0  0  0  0  0  0  0
  1  2  1  0
  2  3  1  0
  2  4  1  0
  2  5  1  0
  5  6  1  0
  6  7  1  0
  7  8  1  0
  8  9  1  0
  9 10  2  0
 10 11  1  0
 11 12  2  0
 12 13  1  0
 13 14  2  0
 12 15  1  0
 15 16  2  0
 16 17  1  0
 17 18  2  0
 18 19  1  0
 19 20  2  0
 18 21  1  0
 21 22  1  0
 21 23  2  0
 21 24  2  0
  8 25  1  0
 25 26  1  0
 25 27  1  0
 25 28  1  0
  6 29  1  0
 29 30  2  0
 29 31  1  0
 31 32  1  0
 32 33  1  0
 33 34  3  0
 14  9  1  0
 20 15  1  0
  1 35  1  0
  1 36  1  0
  1 37  1  0
  3 38  1  0
  3 39  1  0
  3 40  1  0
  5 41  1  0
  5 42  1  0
  6 43  1  1
  7 44  1  0
  8 45  1  6
 10 46  1  0
 11 47  1  0
 13 48  1  0
 14 49  1  0
 16 50  1  0
 17 51  1  0
 19 52  1  0
 20 53  1  0
 22 54  1  0
 22 55  1  0
 22 56  1  0
 31 57  1  0
 32 58  1  0
 32 59  1  0
M  END
$$$$
[H]c1c([H])c(C#Cc2c([H])c(O[C@@]([H])(C([H])([H])[H])C([H])([H])OC([H])([H])[H])c([H])c(C(=O)N([H])c3nn(C([H])([H])[H])c([H])c3[H])c2[H])c([H])c(OC([H])([H])[H])c1[H]
     RDKit          3D

 56 58  0  0  0  0  0  0  0  0999 V2000
   -4.0665    5.5499   -0.3913 C   0  0  0  0  0  0  0  0  0  0  0  0
   -2.9384    5.3894    0.3497 O   0  0  0  0  0  0  0  0  0  0  0  0
   -1.8710    4.8174   -0.2251 C   0  0  0  0  0  0  0  0  0  0  0  0
   -2.0015    3.4056   -0.7455 C   0  0  2  0  0  0  0  0  0  0  0  0
   -2.8376    3.2761   -1.9868 C   0  0  0  0  0  0  0  0  0  0  0  0
   -2.3930    2.5003    0.2017 O   0  0  0  0  0  0  0  0  0  0  0  0
   -1.6860    1.4600    0.7125 C   0  0  0  0  0  0  0  0  0  0  0  0
   -0.4068    1.1333    0.3450 C   0  0  0  0  0  0  0  0  0  0  0  0
    0.2913    0.0452    0.8999 C   0  0  0  0  0  0  0  0  0  0  0  0
   -0.3443   -0.7106    1.8449 C   0  0  0  0  0  0  0  0  0  0  0  0
   -1.6353   -0.4382    2.2635 C   0  0  0  0  0  0  0  0  0  0  0  0
   -2.2681    0.6287    1.6935 C   0  0  0  0  0  0  0  0  0  0  0  0
   -2.2792   -1.2790    3.2857 C   0  0  0  0  0  0  0  0  0  0  0  0
   -2.1196   -0.9198    4.5005 O   0  0  0  0  0  0  0  0  0  0  0  0
   -3.0351   -2.4178    3.0084 N   0  0  0  0  0  0  0  0  0  0  0  0
   -3.2498   -2.8698    1.6787 C   0  0  0  0  0  0  0  0  0  0  0  0
   -3.9883   -3.9945    1.2905 C   0  0  0  0  0  0  0  0  0  0  0  0
   -3.9148   -4.0265   -0.0736 C   0  0  0  0  0  0  0  0  0  0  0  0
   -3.1808   -2.9947   -0.5263 N   0  0  0  0  0  0  0  0  0  0  0  0
   -2.9136   -2.7465   -1.9335 C   0  0  0  0  0  0  0  0  0  0  0  0
   -2.8020   -2.3298    0.5296 N   0  0  0  0  0  0  0  0  0  0  0  0
    1.6221   -0.1809    0.4230 C   0  0  0  0  0  0  0  0  0  0  0  0
    2.7484   -0.3893    0.0325 C   0  0  0  0  0  0  0  0  0  0  0  0
    4.0848   -0.6259   -0.4539 C   0  0  0  0  0  0  0  0  0  0  0  0
    4.6741    0.1868   -1.4001 C   0  0  0  0  0  0  0  0  0  0  0  0
    5.9489   -0.0278   -1.8731 C   0  0  0  0  0  0  0  0  0  0  0  0
    6.6474   -1.1021   -1.3689 C   0  0  0  0  0  0  0  0  0  0  0  0
    6.0870   -1.9459   -0.4126 C   0  0  0  0  0  0  0  0  0  0  0  0
    6.7676   -3.0259    0.1051 O   0  0  0  0  0  0  0  0  0  0  0  0
    8.0964   -3.2888   -0.3565 C   0  0  0  0  0  0  0  0  0  0  0  0
    4.7989   -1.6930    0.0366 C   0  0  0  0  0  0  0  0  0  0  0  0
   -3.8905    6.1624   -1.3124 H   0  0  0  0  0  0  0  0  0  0  0  0
   -4.5760    4.6049   -0.5475 H   0  0  0  0  0  0  0  0  0  0  0  0
   -4.7794    6.2159    0.2075 H   0  0  0  0  0  0  0  0  0  0  0  0
   -1.4844    5.4193   -1.0899 H   0  0  0  0  0  0  0  0  0  0  0  0
   -1.0121    4.8262    0.5003 H   0  0  0  0  0  0  0  0  0  0  0  0
   -0.9324    3.1594   -1.0750 H   0  0  0  0  0  0  0  0  0  0  0  0
   -3.0305    4.2487   -2.4560 H   0  0  0  0  0  0  0  0  0  0  0  0
   -3.7861    2.7179   -1.7326 H   0  0  0  0  0  0  0  0  0  0  0  0
   -2.2781    2.6525   -2.7512 H   0  0  0  0  0  0  0  0  0  0  0  0
    0.0906    1.7327   -0.4012 H   0  0  0  0  0  0  0  0  0  0  0  0
    0.2018   -1.5543    2.2728 H   0  0  0  0  0  0  0  0  0  0  0  0
   -3.2789    0.8689    1.9989 H   0  0  0  0  0  0  0  0  0  0  0  0
   -3.4612   -2.9644    3.7809 H   0  0  0  0  0  0  0  0  0  0  0  0
   -4.4912   -4.6627    1.9792 H   0  0  0  0  0  0  0  0  0  0  0  0
   -4.3902   -4.7890   -0.6987 H   0  0  0  0  0  0  0  0  0  0  0  0
   -2.5430   -1.7112   -2.0326 H   0  0  0  0  0  0  0  0  0  0  0  0
   -3.8490   -2.8054   -2.5241 H   0  0  0  0  0  0  0  0  0  0  0  0
   -2.1446   -3.4656   -2.3026 H   0  0  0  0  0  0  0  0  0  0  0  0
    4.1199    1.0189   -1.7839 H   0  0  0  0  0  0  0  0  0  0  0  0
    6.4368    0.5870   -2.6101 H   0  0  0  0  0  0  0  0  0  0  0  0
    7.6435   -1.2960   -1.7176 H   0  0  0  0  0  0  0  0  0  0  0  0
    8.5981   -4.0442    0.2824 H   0  0  0  0  0  0  0  0  0  0  0  0
    7.9825   -3.6280   -1.4094 H   0  0  0  0  0  0  0  0  0  0  0  0
    8.7018   -2.3622   -0.2685 H   0  0  0  0  0  0  0  0  0  0  0  0
    4.3174   -2.3174    0.7780 H   0  0  0  0  0  0  0  0  0  0  0  0
  1  2  1  0
  2  3  1  0
  3  4  1  0
  4  5  1  0
  4  6  1  0
  6  7  1  0
  7  8  2  0
  8  9  1  0
  9 10  2  0
 10 11  1  0
 11 12  2  0
 11 13  1  0
 13 14  2  0
 13 15  1  0
 15 16  1  0
 16 17  1  0
 17 18  2  0
 18 19  1  0
 19 20  1  0
 19 21  1  0
  9 22  1  0
 22 23  3  0
 23 24  1  0
 24 25  2  0
 25 26  1  0
 26 27  2  0
 27 28  1  0
 28 29  1  0
 29 30  1  0
 28 31  2  0
 12  7  1  0
 21 16  2  0
 31 24  1  0
  1 32  1  0
  1 33  1  0
  1 34  1  0
  3 35  1  0
  3 36  1  0
  4 37  1  6
  5 38  1  0
  5 39  1  0
  5 40  1  0
  8 41  1  0
 10 42  1  0
 12 43  1  0
 15 44  1  0
 17 45  1  0
 18 46  1  0
 20 47  1  0
 20 48  1  0
 20 49  1  0
 25 50  1  0
 26 51  1  0
 27 52  1  0
 30 53  1  0
 30 54  1  0
 30 55  1  0
 31 56  1  0
M  END
$$$$
[H]c1c(-c2c([H])c([H])c(N([H])C(=O)N([H])c3c([H])c([H])c(N4C([H])([H])C([H])([H])OC([H])([H])C4([H])[H])c([H])c3[H])c([H])c2[H])nc(N2C([H])([H])C([H])([H])OC([H])([H])[C@@]2([H])C([H])([H])[H])nc1N1C([H])([H])C([H])([H])OC([H])([H])C1([H])[H]
     RDKit          3D

 78 83  0  0  0  0  0  0  0  0999 V2000
   -6.9095   -1.7641    2.3237 C   0  0  0  0  0  0  0  0  0  0  0  0
   -7.1534   -2.1313    0.8677 C   0  0  2  0  0  0  0  0  0  0  0  0
   -7.5066   -3.6166    0.8339 C   0  0  0  0  0  0  0  0  0  0  0  0
   -6.4873   -4.4404    1.2496 O   0  0  0  0  0  0  0  0  0  0  0  0
   -5.2388   -4.1282    0.7851 C   0  0  0  0  0  0  0  0  0  0  0  0
   -5.2721   -3.1657   -0.3728 C   0  0  0  0  0  0  0  0  0  0  0  0
   -5.9517   -1.9791    0.1075 N   0  0  0  0  0  0  0  0  0  0  0  0
   -5.3527   -0.7209   -0.2224 C   0  0  0  0  0  0  0  0  0  0  0  0
   -6.1083    0.3047   -0.6435 N   0  0  0  0  0  0  0  0  0  0  0  0
   -5.5924    1.4920   -0.9231 C   0  0  0  0  0  0  0  0  0  0  0  0
   -4.2004    1.6592   -0.7665 C   0  0  0  0  0  0  0  0  0  0  0  0
   -3.4310    0.6140   -0.3350 C   0  0  0  0  0  0  0  0  0  0  0  0
   -4.0358   -0.5679   -0.0710 N   0  0  0  0  0  0  0  0  0  0  0  0
   -2.0063    0.7471   -0.1178 C   0  0  0  0  0  0  0  0  0  0  0  0
   -1.3000    1.8655   -0.3837 C   0  0  0  0  0  0  0  0  0  0  0  0
    0.0743    1.9596   -0.1533 C   0  0  0  0  0  0  0  0  0  0  0  0
    0.7407    0.8391    0.3766 C   0  0  0  0  0  0  0  0  0  0  0  0
    2.0874    0.8425    0.5843 N   0  0  0  0  0  0  0  0  0  0  0  0
    3.3976    0.8543    0.7933 C   0  0  0  0  0  0  0  0  0  0  0  0
    4.0273    1.6455    1.5605 O   0  0  0  0  0  0  0  0  0  0  0  0
    4.2116   -0.1102    0.0946 N   0  0  0  0  0  0  0  0  0  0  0  0
    5.6072   -0.2353    0.1793 C   0  0  0  0  0  0  0  0  0  0  0  0
    6.1951   -1.4387   -0.3130 C   0  0  0  0  0  0  0  0  0  0  0  0
    7.5559   -1.6277   -0.2951 C   0  0  0  0  0  0  0  0  0  0  0  0
    8.4089   -0.6973    0.1820 C   0  0  0  0  0  0  0  0  0  0  0  0
    7.8737    0.4743    0.6621 C   0  0  0  0  0  0  0  0  0  0  0  0
    6.4788    0.6976    0.6587 C   0  0  0  0  0  0  0  0  0  0  0  0
    9.8471   -0.8527    0.2005 N   0  0  0  0  0  0  0  0  0  0  0  0
   10.6402    0.3649    0.0277 C   0  0  0  0  0  0  0  0  0  0  0  0
   12.0698   -0.0144   -0.1926 C   0  0  0  0  0  0  0  0  0  0  0  0
   12.1304   -1.1163   -1.0843 O   0  0  0  0  0  0  0  0  0  0  0  0
   11.7112   -2.2709   -0.4350 C   0  0  0  0  0  0  0  0  0  0  0  0
   10.4593   -2.1298    0.3726 C   0  0  0  0  0  0  0  0  0  0  0  0
    0.0108   -0.2986    0.6492 C   0  0  0  0  0  0  0  0  0  0  0  0
   -1.3264   -0.3668    0.4165 C   0  0  0  0  0  0  0  0  0  0  0  0
   -6.2939    2.6486   -1.3440 N   0  0  0  0  0  0  0  0  0  0  0  0
   -5.6807    3.5206   -2.3574 C   0  0  0  0  0  0  0  0  0  0  0  0
   -6.8101    4.1441   -3.1350 C   0  0  0  0  0  0  0  0  0  0  0  0
   -7.4537    4.9933   -2.2131 O   0  0  0  0  0  0  0  0  0  0  0  0
   -8.1789    4.2765   -1.2925 C   0  0  0  0  0  0  0  0  0  0  0  0
   -7.5654    3.0305   -0.7787 C   0  0  0  0  0  0  0  0  0  0  0  0
   -7.1245   -2.6338    2.9446 H   0  0  0  0  0  0  0  0  0  0  0  0
   -5.7989   -1.5543    2.4025 H   0  0  0  0  0  0  0  0  0  0  0  0
   -7.4748   -0.8398    2.5785 H   0  0  0  0  0  0  0  0  0  0  0  0
   -8.0212   -1.6035    0.4382 H   0  0  0  0  0  0  0  0  0  0  0  0
   -7.8699   -3.8908   -0.2054 H   0  0  0  0  0  0  0  0  0  0  0  0
   -8.3937   -3.8111    1.5017 H   0  0  0  0  0  0  0  0  0  0  0  0
   -4.6827   -3.6037    1.6248 H   0  0  0  0  0  0  0  0  0  0  0  0
   -4.6315   -5.0473    0.5629 H   0  0  0  0  0  0  0  0  0  0  0  0
   -4.2586   -2.9739   -0.7167 H   0  0  0  0  0  0  0  0  0  0  0  0
   -5.8169   -3.6077   -1.2496 H   0  0  0  0  0  0  0  0  0  0  0  0
   -3.7546    2.6095   -0.9915 H   0  0  0  0  0  0  0  0  0  0  0  0
   -1.7906    2.7577   -0.7932 H   0  0  0  0  0  0  0  0  0  0  0  0
    0.6471    2.8461   -0.3689 H   0  0  0  0  0  0  0  0  0  0  0  0
    1.9202    1.8144    1.5828 H   0  0  0  0  0  0  0  0  0  0  0  0
    3.6626   -0.7763   -0.5455 H   0  0  0  0  0  0  0  0  0  0  0  0
    5.5052   -2.1842   -0.6914 H   0  0  0  0  0  0  0  0  0  0  0  0
    7.9543   -2.5823   -0.6926 H   0  0  0  0  0  0  0  0  0  0  0  0
    8.5064    1.2612    1.0680 H   0  0  0  0  0  0  0  0  0  0  0  0
    6.1191    1.6474    1.0316 H   0  0  0  0  0  0  0  0  0  0  0  0
   10.2436    1.0053   -0.8164 H   0  0  0  0  0  0  0  0  0  0  0  0
   10.4995    0.9724    0.9510 H   0  0  0  0  0  0  0  0  0  0  0  0
   12.5083   -0.3290    0.7825 H   0  0  0  0  0  0  0  0  0  0  0  0
   12.6068    0.7907   -0.7018 H   0  0  0  0  0  0  0  0  0  0  0  0
   12.5565   -2.6745    0.2036 H   0  0  0  0  0  0  0  0  0  0  0  0
   11.5285   -3.0510   -1.2319 H   0  0  0  0  0  0  0  0  0  0  0  0
    9.7376   -2.9579    0.0971 H   0  0  0  0  0  0  0  0  0  0  0  0
   10.7160   -2.2684    1.4640 H   0  0  0  0  0  0  0  0  0  0  0  0
    0.5618   -1.1617    1.0691 H   0  0  0  0  0  0  0  0  0  0  0  0
   -1.8889   -1.2485    0.6348 H   0  0  0  0  0  0  0  0  0  0  0  0
   -5.2391    4.3827   -1.7586 H   0  0  0  0  0  0  0  0  0  0  0  0
   -4.9182    3.0200   -2.9425 H   0  0  0  0  0  0  0  0  0  0  0  0
   -7.5182    3.3123   -3.4128 H   0  0  0  0  0  0  0  0  0  0  0  0
   -6.4890    4.7383   -4.0078 H   0  0  0  0  0  0  0  0  0  0  0  0
   -8.3579    4.9662   -0.4115 H   0  0  0  0  0  0  0  0  0  0  0  0
   -9.2239    4.1248   -1.6916 H   0  0  0  0  0  0  0  0  0  0  0  0
   -7.4247    3.0653    0.3516 H   0  0  0  0  0  0  0  0  0  0  0  0
   -8.2674    2.1841   -0.9164 H   0  0  0  0  0  0  0  0  0  0  0  0
  1  2  1  0
  2  3  1  0
  3  4  1  0
  4  5  1  0
  5  6  1  0
  6  7  1  0
  7  8  1  0
  8  9  2  0
  9 10  1  0
 10 11  2  0
 11 12  1  0
 12 13  2  0
 12 14  1  0
 14 15  2  0
 15 16  1  0
 16 17  2  0
 17 18  1  0
 18 19  1  0
 19 20  2  0
 19 21  1  0
 21 22  1  0
 22 23  2  0
 23 24  1  0
 24 25  2  0
 25 26  1  0
 26 27  2  0
 25 28  1  0
 28 29  1  0
 29 30  1  0
 30 31  1  0
 31 32  1  0
 32 33  1  0
 17 34  1  0
 34 35  2  0
 10 36  1  0
 36 37  1  0
 37 38  1  0
 38 39  1  0
 39 40  1  0
 40 41  1  0
  7  2  1  0
 13  8  1  0
 35 14  1  0
 41 36  1  0
 27 22  1  0
 33 28  1  0
  1 42  1  0
  1 43  1  0
  1 44  1  0
  2 45  1  6
  3 46  1  0
  3 47  1  0
  5 48  1  0
  5 49  1  0
  6 50  1  0
  6 51  1  0
 11 52  1  0
 15 53  1  0
 16 54  1  0
 18 55  1  0
 21 56  1  0
 23 57  1  0
 24 58  1  0
 26 59  1  0
 27 60  1  0
 29 61  1  0
 29 62  1  0
 30 63  1  0
 30 64  1  0
 32 65  1  0
 32 66  1  0
 33 67  1  0
 33 68  1  0
 34 69  1  0
 35 70  1  0
 37 71  1  0
 37 72  1  0
 38 73  1  0
 38 74  1  0
 40 75  1  0
 40 76  1  0
 41 77  1  0
 41 78  1  0
M  END
$$$$
[H]c1c([H])c([H])c(C([H])([H])OC(c2nc3c(N([H])[H])nc([H])n(C([H])([H])c4c([H])c([H])c(OC([H])([H])[H])c(OC5([H])C([H])([H])C([H])([H])C([H])([H])C5([H])[H])c4[H])c-3n2)(C([H])([H])[H])C([H])([H])[H])c([H])c1[H]
     RDKit          3D

 69 73  0  0  0  0  0  0  0  0999 V2000
   -5.4592   -3.1731   -1.6363 C   0  0  0  0  0  0  0  0  0  0  0  0
   -5.4098   -1.9856   -0.8827 O   0  0  0  0  0  0  0  0  0  0  0  0
   -4.2653   -1.5480   -0.2372 C   0  0  0  0  0  0  0  0  0  0  0  0
   -3.1119   -2.2942   -0.3285 C   0  0  0  0  0  0  0  0  0  0  0  0
   -1.9256   -1.8911    0.3068 C   0  0  0  0  0  0  0  0  0  0  0  0
   -1.9171   -0.7367    1.0252 C   0  0  0  0  0  0  0  0  0  0  0  0
   -0.7492   -0.2027    1.7244 C   0  0  0  0  0  0  0  0  0  0  0  0
    0.1299    0.5697    0.8738 N   0  0  0  0  0  0  0  0  0  0  0  0
   -0.2617    1.8125    0.4500 C   0  0  0  0  0  0  0  0  0  0  0  0
    0.4843    2.5383   -0.3836 N   0  0  0  0  0  0  0  0  0  0  0  0
    1.6904    2.0763   -0.8645 C   0  0  0  0  0  0  0  0  0  0  0  0
    2.4898    2.8335   -1.7522 N   0  0  0  0  0  0  0  0  0  0  0  0
    2.1003    0.8461   -0.4566 C   0  0  0  0  0  0  0  0  0  0  0  0
    3.2170    0.1450   -0.6847 N   0  0  0  0  0  0  0  0  0  0  0  0
    3.1531   -1.0249    0.0144 C   0  0  0  0  0  0  0  0  0  0  0  0
    2.0176   -1.0843    0.6853 N   0  0  0  0  0  0  0  0  0  0  0  0
    1.2809    0.0428    0.4633 C   0  0  0  0  0  0  0  0  0  0  0  0
    4.3044   -1.9839    0.0402 C   0  0  0  0  0  0  0  0  0  0  0  0
    3.6786   -3.2911    0.7571 C   0  0  0  0  0  0  0  0  0  0  0  0
    4.6911   -2.5139   -1.2732 C   0  0  0  0  0  0  0  0  0  0  0  0
    5.2551   -1.6418    0.8804 O   0  0  0  0  0  0  0  0  0  0  0  0
    5.8841   -0.5995    1.2449 C   0  0  0  0  0  0  0  0  0  0  0  0
    6.7070    0.3280    0.4697 C   0  0  0  0  0  0  0  0  0  0  0  0
    7.0034    0.3189   -0.8409 C   0  0  0  0  0  0  0  0  0  0  0  0
    7.8124    1.2847   -1.4584 C   0  0  0  0  0  0  0  0  0  0  0  0
    8.3494    2.3095   -0.7108 C   0  0  0  0  0  0  0  0  0  0  0  0
    8.0543    2.3249    0.6264 C   0  0  0  0  0  0  0  0  0  0  0  0
    7.2756    1.3938    1.2061 C   0  0  0  0  0  0  0  0  0  0  0  0
   -3.1010    0.0020    1.1035 C   0  0  0  0  0  0  0  0  0  0  0  0
   -4.2819   -0.3577    0.4982 C   0  0  0  0  0  0  0  0  0  0  0  0
   -5.3579    0.3903    0.6240 O   0  0  0  0  0  0  0  0  0  0  0  0
   -6.6719    0.5054    0.3443 C   0  0  0  0  0  0  0  0  0  0  0  0
   -7.4872    0.9797    1.5506 C   0  0  0  0  0  0  0  0  0  0  0  0
   -7.9251    2.3919    1.2164 C   0  0  0  0  0  0  0  0  0  0  0  0
   -8.0646    2.3533   -0.2911 C   0  0  0  0  0  0  0  0  0  0  0  0
   -6.8497    1.5974   -0.7012 C   0  0  0  0  0  0  0  0  0  0  0  0
   -4.6226   -3.2633   -2.3587 H   0  0  0  0  0  0  0  0  0  0  0  0
   -5.4953   -4.0350   -0.9512 H   0  0  0  0  0  0  0  0  0  0  0  0
   -6.3944   -3.1665   -2.2792 H   0  0  0  0  0  0  0  0  0  0  0  0
   -3.0762   -3.2182   -0.8776 H   0  0  0  0  0  0  0  0  0  0  0  0
   -1.0212   -2.4816    0.2266 H   0  0  0  0  0  0  0  0  0  0  0  0
   -0.1666   -0.9912    2.2601 H   0  0  0  0  0  0  0  0  0  0  0  0
   -1.0937    0.5002    2.5283 H   0  0  0  0  0  0  0  0  0  0  0  0
   -1.2110    2.1521    0.8357 H   0  0  0  0  0  0  0  0  0  0  0  0
    2.6009    2.6733   -2.7709 H   0  0  0  0  0  0  0  0  0  0  0  0
    3.0438    3.6521   -1.3407 H   0  0  0  0  0  0  0  0  0  0  0  0
    4.3536   -4.1106    0.5528 H   0  0  0  0  0  0  0  0  0  0  0  0
    2.7492   -3.4041    0.1591 H   0  0  0  0  0  0  0  0  0  0  0  0
    3.4549   -3.0175    1.7721 H   0  0  0  0  0  0  0  0  0  0  0  0
    5.7763   -2.7511   -1.3308 H   0  0  0  0  0  0  0  0  0  0  0  0
    4.0672   -3.4094   -1.5898 H   0  0  0  0  0  0  0  0  0  0  0  0
    4.5348   -1.7338   -2.0762 H   0  0  0  0  0  0  0  0  0  0  0  0
    6.6475   -0.9510    2.0840 H   0  0  0  0  0  0  0  0  0  0  0  0
    5.2373    0.0698    1.9897 H   0  0  0  0  0  0  0  0  0  0  0  0
    6.6143   -0.4477   -1.4887 H   0  0  0  0  0  0  0  0  0  0  0  0
    7.9997    1.2169   -2.4965 H   0  0  0  0  0  0  0  0  0  0  0  0
    8.9605    3.0418   -1.1976 H   0  0  0  0  0  0  0  0  0  0  0  0
    8.5084    3.1569    1.1917 H   0  0  0  0  0  0  0  0  0  0  0  0
    7.0517    1.4143    2.2698 H   0  0  0  0  0  0  0  0  0  0  0  0
   -3.0783    0.9114    1.6720 H   0  0  0  0  0  0  0  0  0  0  0  0
   -7.1783   -0.4129   -0.0732 H   0  0  0  0  0  0  0  0  0  0  0  0
   -6.7741    1.0572    2.4215 H   0  0  0  0  0  0  0  0  0  0  0  0
   -8.3182    0.3196    1.7879 H   0  0  0  0  0  0  0  0  0  0  0  0
   -7.1497    3.1301    1.4623 H   0  0  0  0  0  0  0  0  0  0  0  0
   -8.8519    2.6689    1.7074 H   0  0  0  0  0  0  0  0  0  0  0  0
   -8.0270    3.3976   -0.7040 H   0  0  0  0  0  0  0  0  0  0  0  0
   -9.0180    1.8970   -0.5711 H   0  0  0  0  0  0  0  0  0  0  0  0
   -6.9011    1.1440   -1.7212 H   0  0  0  0  0  0  0  0  0  0  0  0
   -5.9619    2.2751   -0.7159 H   0  0  0  0  0  0  0  0  0  0  0  0
  1  2  1  0
  2  3  1  0
  3  4  2  0
  4  5  1  0
  5  6  2  0
  6  7  1  0
  7  8  1  0
  8  9  1  0
  9 10  2  0
 10 11  1  0
 11 12  1  0
 11 13  2  0
 13 14  1  0
 14 15  2  0
 15 16  1  0
 16 17  2  0
 15 18  1  0
 18 19  1  0
 18 20  1  0
 18 21  1  0
 21 22  1  0
 22 23  1  0
 23 24  2  0
 24 25  1  0
 25 26  2  0
 26 27  1  0
 27 28  2  0
  6 29  1  0
 29 30  2  0
 30 31  1  0
 31 32  1  0
 32 33  1  0
 33 34  1  0
 34 35  1  0
 35 36  1  0
 30  3  1  0
 36 32  1  0
 17  8  1  0
 28 23  1  0
 17 13  1  0
  1 37  1  0
  1 38  1  0
  1 39  1  0
  4 40  1  0
  5 41  1  0
  7 42  1  0
  7 43  1  0
  9 44  1  0
 12 45  1  0
 12 46  1  0
 19 47  1  0
 19 48  1  0
 19 49  1  0
 20 50  1  0
 20 51  1  0
 20 52  1  0
 22 53  1  0
 22 54  1  0
 24 55  1  0
 25 56  1  0
 26 57  1  0
 27 58  1  0
 28 59  1  0
 29 60  1  0
 32 61  1  0
 33 62  1  0
 33 63  1  0
 34 64  1  0
 34 65  1  0
 35 66  1  0
 35 67  1  0
 36 68  1  0
 36 69  1  0
M  END
$$$$
[H]Oc1c([H])c([H])c(C([H])([H])[C@@]2([H])C(=O)N([H])[C@@]([H])(C([H])([H])C([H])([H])C([H])([H])C([H])([H])N([H])[H])C(=O)N([H])[C@@]([H])(C([H])([H])c3c([H])n([H])c4c([H])c([H])c([H])c([H])c34)C(=O)N([H])[C@@]([H])([C@@]([H])(C([H])([H])[H])C([H])([H])C([H])([H])[H])C(=O)N([H])[C@@]([H])(C([H])([H])C(=O)N([H])[H])C(=O)N2[H])c([H])c1[H]
     RDKit          3D

 99102  0  0  0  0  0  0  0  0999 V2000
    4.1349   -3.7229   -3.0119 C   0  0  0  0  0  0  0  0  0  0  0  0
    2.7902   -3.4613   -2.3777 C   0  0  0  0  0  0  0  0  0  0  0  0
    2.9337   -2.9988   -0.9412 C   0  0  2  0  0  0  0  0  0  0  0  0
    3.6352   -4.0702   -0.1715 C   0  0  0  0  0  0  0  0  0  0  0  0
    1.6069   -2.5813   -0.3577 C   0  0  2  0  0  0  0  0  0  0  0  0
    1.7977   -2.1531    1.0060 N   0  0  0  0  0  0  0  0  0  0  0  0
    1.7974   -0.8247    1.4837 C   0  0  0  0  0  0  0  0  0  0  0  0
    1.1110   -0.5494    2.5073 O   0  0  0  0  0  0  0  0  0  0  0  0
    2.5546    0.2935    0.8676 C   0  0  2  0  0  0  0  0  0  0  0  0
    3.8272    0.4360    1.6352 C   0  0  0  0  0  0  0  0  0  0  0  0
    4.7439    1.5053    1.2177 C   0  0  0  0  0  0  0  0  0  0  0  0
    5.8133    1.4169    0.3219 C   0  0  0  0  0  0  0  0  0  0  0  0
    6.4042    2.6035    0.1596 N   0  0  0  0  0  0  0  0  0  0  0  0
    5.7288    3.4796    0.9477 C   0  0  0  0  0  0  0  0  0  0  0  0
    5.9907    4.8230    1.1152 C   0  0  0  0  0  0  0  0  0  0  0  0
    5.1958    5.5738    1.9881 C   0  0  0  0  0  0  0  0  0  0  0  0
    4.1782    4.9267    2.6460 C   0  0  0  0  0  0  0  0  0  0  0  0
    3.9345    3.5902    2.4646 C   0  0  0  0  0  0  0  0  0  0  0  0
    4.7019    2.8123    1.6055 C   0  0  0  0  0  0  0  0  0  0  0  0
    1.8502    1.5188    0.7339 N   0  0  0  0  0  0  0  0  0  0  0  0
    0.5729    1.9003    1.1307 C   0  0  0  0  0  0  0  0  0  0  0  0
    0.4133    2.8025    2.0319 O   0  0  0  0  0  0  0  0  0  0  0  0
   -0.7305    1.3747    0.6210 C   0  0  2  0  0  0  0  0  0  0  0  0
   -1.1886    2.1895   -0.5726 C   0  0  0  0  0  0  0  0  0  0  0  0
   -0.2343    2.1529   -1.7113 C   0  0  0  0  0  0  0  0  0  0  0  0
   -0.7088    2.9774   -2.8891 C   0  0  0  0  0  0  0  0  0  0  0  0
   -0.8622    4.4210   -2.4703 C   0  0  0  0  0  0  0  0  0  0  0  0
    0.4143    4.9356   -2.0018 N   0  0  0  0  0  0  0  0  0  0  0  0
   -1.7532    1.3047    1.6460 N   0  0  0  0  0  0  0  0  0  0  0  0
   -2.7255    0.3042    1.8146 C   0  0  0  0  0  0  0  0  0  0  0  0
   -3.1874    0.1435    3.0010 O   0  0  0  0  0  0  0  0  0  0  0  0
   -3.2551   -0.5697    0.7539 C   0  0  2  0  0  0  0  0  0  0  0  0
   -4.6537   -0.2766    0.3663 C   0  0  0  0  0  0  0  0  0  0  0  0
   -5.6911   -0.3833    1.3700 C   0  0  0  0  0  0  0  0  0  0  0  0
   -6.0937    0.6635    2.1499 C   0  0  0  0  0  0  0  0  0  0  0  0
   -7.0817    0.5969    3.1108 C   0  0  0  0  0  0  0  0  0  0  0  0
   -7.7136   -0.6197    3.3009 C   0  0  0  0  0  0  0  0  0  0  0  0
   -8.7183   -0.6884    4.2767 O   0  0  0  0  0  0  0  0  0  0  0  0
   -7.3489   -1.6863    2.5522 C   0  0  0  0  0  0  0  0  0  0  0  0
   -6.3424   -1.5875    1.5846 C   0  0  0  0  0  0  0  0  0  0  0  0
   -3.0789   -1.9769    1.0185 N   0  0  0  0  0  0  0  0  0  0  0  0
   -2.0535   -2.7937    0.5152 C   0  0  0  0  0  0  0  0  0  0  0  0
   -1.5598   -3.6294    1.3564 O   0  0  0  0  0  0  0  0  0  0  0  0
   -1.5152   -2.7746   -0.8478 C   0  0  2  0  0  0  0  0  0  0  0  0
   -2.5723   -2.8345   -1.9194 C   0  0  0  0  0  0  0  0  0  0  0  0
   -1.9214   -2.8108   -3.2587 C   0  0  0  0  0  0  0  0  0  0  0  0
   -2.7431   -2.8580   -4.4245 N   0  0  0  0  0  0  0  0  0  0  0  0
   -0.6599   -2.7496   -3.3335 O   0  0  0  0  0  0  0  0  0  0  0  0
   -0.5506   -3.8087   -1.0373 N   0  0  0  0  0  0  0  0  0  0  0  0
    0.7291   -3.7918   -0.4253 C   0  0  0  0  0  0  0  0  0  0  0  0
    1.2032   -4.8379    0.1107 O   0  0  0  0  0  0  0  0  0  0  0  0
    3.9910   -3.5809   -4.1220 H   0  0  0  0  0  0  0  0  0  0  0  0
    4.3995   -4.8175   -2.9244 H   0  0  0  0  0  0  0  0  0  0  0  0
    4.9318   -3.0923   -2.6254 H   0  0  0  0  0  0  0  0  0  0  0  0
    2.2357   -2.6593   -2.9377 H   0  0  0  0  0  0  0  0  0  0  0  0
    2.1894   -4.3701   -2.4887 H   0  0  0  0  0  0  0  0  0  0  0  0
    3.6074   -2.1217   -0.9847 H   0  0  0  0  0  0  0  0  0  0  0  0
    4.7525   -3.8967   -0.2196 H   0  0  0  0  0  0  0  0  0  0  0  0
    3.5295   -5.0940   -0.6367 H   0  0  0  0  0  0  0  0  0  0  0  0
    3.4101   -4.0994    0.9034 H   0  0  0  0  0  0  0  0  0  0  0  0
    1.2062   -1.7636   -0.9968 H   0  0  0  0  0  0  0  0  0  0  0  0
    1.9510   -2.9342    1.7125 H   0  0  0  0  0  0  0  0  0  0  0  0
    2.7639   -0.0456   -0.1894 H   0  0  0  0  0  0  0  0  0  0  0  0
    4.3751   -0.5564    1.6693 H   0  0  0  0  0  0  0  0  0  0  0  0
    3.5790    0.5957    2.7323 H   0  0  0  0  0  0  0  0  0  0  0  0
    6.0990    0.4983   -0.1586 H   0  0  0  0  0  0  0  0  0  0  0  0
    7.2336    2.8255   -0.4573 H   0  0  0  0  0  0  0  0  0  0  0  0
    6.7840    5.3505    0.6093 H   0  0  0  0  0  0  0  0  0  0  0  0
    5.3718    6.6285    2.1441 H   0  0  0  0  0  0  0  0  0  0  0  0
    3.5532    5.4793    3.3220 H   0  0  0  0  0  0  0  0  0  0  0  0
    3.1248    3.0948    2.9976 H   0  0  0  0  0  0  0  0  0  0  0  0
    2.4070    2.2829    0.2246 H   0  0  0  0  0  0  0  0  0  0  0  0
   -0.5502    0.3482    0.2436 H   0  0  0  0  0  0  0  0  0  0  0  0
   -1.3449    3.2152   -0.1941 H   0  0  0  0  0  0  0  0  0  0  0  0
   -2.1748    1.8390   -0.9258 H   0  0  0  0  0  0  0  0  0  0  0  0
   -0.1515    1.0984   -2.1105 H   0  0  0  0  0  0  0  0  0  0  0  0
    0.7826    2.4928   -1.4926 H   0  0  0  0  0  0  0  0  0  0  0  0
   -1.6353    2.5906   -3.3232 H   0  0  0  0  0  0  0  0  0  0  0  0
    0.0905    2.9317   -3.6753 H   0  0  0  0  0  0  0  0  0  0  0  0
   -1.2214    5.0103   -3.3610 H   0  0  0  0  0  0  0  0  0  0  0  0
   -1.6126    4.5624   -1.6796 H   0  0  0  0  0  0  0  0  0  0  0  0
    0.9201    5.2691   -2.8680 H   0  0  0  0  0  0  0  0  0  0  0  0
    0.2772    5.7776   -1.3811 H   0  0  0  0  0  0  0  0  0  0  0  0
   -1.7595    2.0963    2.3320 H   0  0  0  0  0  0  0  0  0  0  0  0
   -2.6122   -0.3731   -0.1571 H   0  0  0  0  0  0  0  0  0  0  0  0
   -4.6733    0.7910   -0.0166 H   0  0  0  0  0  0  0  0  0  0  0  0
   -4.9276   -0.8624   -0.5637 H   0  0  0  0  0  0  0  0  0  0  0  0
   -5.6117    1.6148    2.0153 H   0  0  0  0  0  0  0  0  0  0  0  0
   -7.3910    1.4347    3.7221 H   0  0  0  0  0  0  0  0  0  0  0  0
   -8.9729    0.1036    4.8166 H   0  0  0  0  0  0  0  0  0  0  0  0
   -7.8601   -2.6445    2.7154 H   0  0  0  0  0  0  0  0  0  0  0  0
   -6.1275   -2.4944    1.0431 H   0  0  0  0  0  0  0  0  0  0  0  0
   -3.7856   -2.4401    1.6498 H   0  0  0  0  0  0  0  0  0  0  0  0
   -0.9891   -1.7832   -0.9882 H   0  0  0  0  0  0  0  0  0  0  0  0
   -3.2202   -1.9201   -1.8975 H   0  0  0  0  0  0  0  0  0  0  0  0
   -3.2485   -3.6958   -1.8098 H   0  0  0  0  0  0  0  0  0  0  0  0
   -3.6755   -2.4151   -4.3833 H   0  0  0  0  0  0  0  0  0  0  0  0
   -2.3712   -3.3439   -5.2916 H   0  0  0  0  0  0  0  0  0  0  0  0
   -0.7685   -4.6345   -1.6520 H   0  0  0  0  0  0  0  0  0  0  0  0
  1  2  1  0
  2  3  1  0
  3  4  1  0
  3  5  1  0
  5  6  1  0
  6  7  1  0
  7  8  2  0
  7  9  1  0
  9 10  1  0
 10 11  1  0
 11 12  2  0
 12 13  1  0
 13 14  1  0
 14 15  2  0
 15 16  1  0
 16 17  2  0
 17 18  1  0
 18 19  2  0
  9 20  1  0
 20 21  1  0
 21 22  2  0
 21 23  1  0
 23 24  1  0
 24 25  1  0
 25 26  1  0
 26 27  1  0
 27 28  1  0
 23 29  1  0
 29 30  1  0
 30 31  2  0
 30 32  1  0
 32 33  1  0
 33 34  1  0
 34 35  2  0
 35 36  1  0
 36 37  2  0
 37 38  1  0
 37 39  1  0
 39 40  2  0
 32 41  1  0
 41 42  1  0
 42 43  2  0
 42 44  1  0
 44 45  1  0
 45 46  1  0
 46 47  1  0
 46 48  2  0
 44 49  1  0
 49 50  1  0
 50 51  2  0
 50  5  1  0
 19 11  1  0
 40 34  1  0
 19 14  1  0
  1 52  1  0
  1 53  1  0
  1 54  1  0
  2 55  1  0
  2 56  1  0
  3 57  1  6
  4 58  1  0
  4 59  1  0
  4 60  1  0
  5 61  1  6
  6 62  1  0
  9 63  1  6
 10 64  1  0
 10 65  1  0
 12 66  1  0
 13 67  1  0
 15 68  1  0
 16 69  1  0
 17 70  1  0
 18 71  1  0
 20 72  1  0
 23 73  1  6
 24 74  1  0
 24 75  1  0
 25 76  1  0
 25 77  1  0
 26 78  1  0
 26 79  1  0
 27 80  1  0
 27 81  1  0
 28 82  1  0
 28 83  1  0
 29 84  1  0
 32 85  1  6
 33 86  1  0
 33 87  1  0
 35 88  1  0
 36 89  1  0
 38 90  1  0
 39 91  1  0
 40 92  1  0
 41 93  1  0
 44 94  1  6
 45 95  1  0
 45 96  1  0
 47 97  1  0
 47 98  1  0
 49 99  1  0
M  END
$$$$
[H]OC(=O)C([H])([H])[C@@]([H])(C(=O)C([H])([H])Oc1c([H])c([H])c([H])c([H])c1[H])N([H])C(=O)[C@@]([H])(N([H])C(=O)[C@@]([H])(N([H])C(=O)OC([H])([H])c1c([H])c([H])c([H])c([H])c1[H])C([H])(C([H])([H])[H])C([H])([H])[H])C([H])([H])[H]
     RDKit          3D

 71 72  0  0  0  0  0  0  0  0999 V2000
    1.9144    1.9116    1.9726 C   0  0  0  0  0  0  0  0  0  0  0  0
    2.4222    0.5118    2.0023 C   0  0  0  0  0  0  0  0  0  0  0  0
    3.4027    0.2678    3.1318 C   0  0  0  0  0  0  0  0  0  0  0  0
    3.0811    0.0720    0.7002 C   0  0  2  0  0  0  0  0  0  0  0  0
    4.2041    0.8935    0.3737 N   0  0  0  0  0  0  0  0  0  0  0  0
    5.5648    0.5642    0.4660 C   0  0  0  0  0  0  0  0  0  0  0  0
    5.8964   -0.5688    0.8770 O   0  0  0  0  0  0  0  0  0  0  0  0
    6.5740    1.4471    0.1208 O   0  0  0  0  0  0  0  0  0  0  0  0
    7.9365    1.2303    0.1827 C   0  0  0  0  0  0  0  0  0  0  0  0
    8.4657    0.1174   -0.6356 C   0  0  0  0  0  0  0  0  0  0  0  0
    9.7318   -0.4005   -0.4133 C   0  0  0  0  0  0  0  0  0  0  0  0
   10.2161   -1.4329   -1.1781 C   0  0  0  0  0  0  0  0  0  0  0  0
    9.4496   -1.9899   -2.1994 C   0  0  0  0  0  0  0  0  0  0  0  0
    8.1972   -1.4582   -2.4005 C   0  0  0  0  0  0  0  0  0  0  0  0
    7.7093   -0.4196   -1.6318 C   0  0  0  0  0  0  0  0  0  0  0  0
    2.0650   -0.0058   -0.3783 C   0  0  0  0  0  0  0  0  0  0  0  0
    2.1838    0.5792   -1.4762 O   0  0  0  0  0  0  0  0  0  0  0  0
    0.8885   -0.7834   -0.1578 N   0  0  0  0  0  0  0  0  0  0  0  0
   -0.1586   -0.8950   -1.1738 C   0  0  1  0  0  0  0  0  0  0  0  0
   -0.4769   -2.3368   -1.4958 C   0  0  0  0  0  0  0  0  0  0  0  0
   -1.3308   -0.1538   -0.6697 C   0  0  0  0  0  0  0  0  0  0  0  0
   -1.2764    0.4076    0.4444 O   0  0  0  0  0  0  0  0  0  0  0  0
   -2.5051   -0.0773   -1.4383 N   0  0  0  0  0  0  0  0  0  0  0  0
   -3.6419    0.6843   -0.8785 C   0  0  1  0  0  0  0  0  0  0  0  0
   -3.8678    1.8105   -1.8541 C   0  0  0  0  0  0  0  0  0  0  0  0
   -4.9523    2.7300   -1.5472 C   0  0  0  0  0  0  0  0  0  0  0  0
   -4.8297    3.6907   -0.5617 O   0  0  0  0  0  0  0  0  0  0  0  0
   -6.0641    2.6879   -2.1771 O   0  0  0  0  0  0  0  0  0  0  0  0
   -4.7723   -0.2414   -0.7233 C   0  0  0  0  0  0  0  0  0  0  0  0
   -4.7134   -1.3215   -1.3297 O   0  0  0  0  0  0  0  0  0  0  0  0
   -5.9749    0.0168    0.1082 C   0  0  0  0  0  0  0  0  0  0  0  0
   -6.8991   -1.0509   -0.0895 O   0  0  0  0  0  0  0  0  0  0  0  0
   -8.1103   -1.0385    0.5911 C   0  0  0  0  0  0  0  0  0  0  0  0
   -8.9918   -2.0773    0.3840 C   0  0  0  0  0  0  0  0  0  0  0  0
  -10.1963   -2.0569    1.0663 C   0  0  0  0  0  0  0  0  0  0  0  0
  -10.5160   -1.0376    1.9269 C   0  0  0  0  0  0  0  0  0  0  0  0
   -9.6311   -0.0075    2.1261 C   0  0  0  0  0  0  0  0  0  0  0  0
   -8.4321   -0.0093    1.4595 C   0  0  0  0  0  0  0  0  0  0  0  0
    0.8044    1.9797    2.1480 H   0  0  0  0  0  0  0  0  0  0  0  0
    2.0976    2.4372    1.0122 H   0  0  0  0  0  0  0  0  0  0  0  0
    2.3757    2.4533    2.8363 H   0  0  0  0  0  0  0  0  0  0  0  0
    1.5642   -0.1675    2.1678 H   0  0  0  0  0  0  0  0  0  0  0  0
    2.8898    0.3472    4.1269 H   0  0  0  0  0  0  0  0  0  0  0  0
    4.1712    1.0516    3.1155 H   0  0  0  0  0  0  0  0  0  0  0  0
    3.8103   -0.7600    3.0762 H   0  0  0  0  0  0  0  0  0  0  0  0
    3.4418   -0.9536    0.9031 H   0  0  0  0  0  0  0  0  0  0  0  0
    3.9672    1.8711    0.0188 H   0  0  0  0  0  0  0  0  0  0  0  0
    8.4342    2.1586   -0.2299 H   0  0  0  0  0  0  0  0  0  0  0  0
    8.3268    1.1606    1.2347 H   0  0  0  0  0  0  0  0  0  0  0  0
   10.2947    0.0616    0.3915 H   0  0  0  0  0  0  0  0  0  0  0  0
   11.2231   -1.8318   -0.9893 H   0  0  0  0  0  0  0  0  0  0  0  0
    9.8208   -2.8033   -2.8073 H   0  0  0  0  0  0  0  0  0  0  0  0
    7.5483   -1.8530   -3.1866 H   0  0  0  0  0  0  0  0  0  0  0  0
    6.7027   -0.0367   -1.8451 H   0  0  0  0  0  0  0  0  0  0  0  0
    0.7091   -1.3106    0.7268 H   0  0  0  0  0  0  0  0  0  0  0  0
    0.2093   -0.3499   -2.0807 H   0  0  0  0  0  0  0  0  0  0  0  0
   -0.7220   -2.9237   -0.6020 H   0  0  0  0  0  0  0  0  0  0  0  0
    0.3394   -2.7942   -2.0997 H   0  0  0  0  0  0  0  0  0  0  0  0
   -1.3692   -2.3215   -2.1600 H   0  0  0  0  0  0  0  0  0  0  0  0
   -2.5781   -0.5370   -2.3669 H   0  0  0  0  0  0  0  0  0  0  0  0
   -3.3507    1.0950    0.0930 H   0  0  0  0  0  0  0  0  0  0  0  0
   -2.9059    2.4049   -1.8789 H   0  0  0  0  0  0  0  0  0  0  0  0
   -3.9801    1.4228   -2.9015 H   0  0  0  0  0  0  0  0  0  0  0  0
   -5.6035    4.2032   -0.1996 H   0  0  0  0  0  0  0  0  0  0  0  0
   -6.3966    1.0041    0.0171 H   0  0  0  0  0  0  0  0  0  0  0  0
   -5.6138   -0.0897    1.1856 H   0  0  0  0  0  0  0  0  0  0  0  0
   -8.7876   -2.9065   -0.2866 H   0  0  0  0  0  0  0  0  0  0  0  0
  -10.9156   -2.8407    0.9396 H   0  0  0  0  0  0  0  0  0  0  0  0
  -11.4452   -1.0171    2.4559 H   0  0  0  0  0  0  0  0  0  0  0  0
   -9.8821    0.7844    2.7960 H   0  0  0  0  0  0  0  0  0  0  0  0
   -7.7427    0.8018    1.6194 H   0  0  0  0  0  0  0  0  0  0  0  0
  1  2  1  0
  2  3  1  0
  2  4  1  0
  4  5  1  0
  5  6  1  0
  6  7  2  0
  6  8  1  0
  8  9  1  0
  9 10  1  0
 10 11  2  0
 11 12  1  0
 12 13  2  0
 13 14  1  0
 14 15  2  0
  4 16  1  0
 16 17  2  0
 16 18  1  0
 18 19  1  0
 19 20  1  0
 19 21  1  0
 21 22  2  0
 21 23  1  0
 23 24  1  0
 24 25  1  0
 25 26  1  0
 26 27  1  0
 26 28  2  0
 24 29  1  0
 29 30  2  0
 29 31  1  0
 31 32  1  0
 32 33  1  0
 33 34  2  0
 34 35  1  0
 35 36  2  0
 36 37  1  0
 37 38  2  0
 15 10  1  0
 38 33  1  0
  1 39  1  0
  1 40  1  0
  1 41  1  0
  2 42  1  0
  3 43  1  0
  3 44  1  0
  3 45  1  0
  4 46  1  1
  5 47  1  0
  9 48  1  0
  9 49  1  0
 11 50  1  0
 12 51  1  0
 13 52  1  0
 14 53  1  0
 15 54  1  0
 18 55  1  0
 19 56  1  6
 20 57  1  0
 20 58  1  0
 20 59  1  0
 23 60  1  0
 24 61  1  1
 25 62  1  0
 25 63  1  0
 27 64  1  0
 31 65  1  0
 31 66  1  0
 34 67  1  0
 35 68  1  0
 36 69  1  0
 37 70  1  0
 38 71  1  0
M  END
$$$$
[H]c1nc(C([H])([H])[H])c([H])c(-c2nc(-c3c([H])c([H])c(Cl)c(Cl)c3[H])n3c2C([H])([H])C([H])([H])O[C@]([H])(C([H])([H])[H])C3([H])[H])c1[H]
     RDKit          3D

 45 48  0  0  0  0  0  0  0  0999 V2000
   -2.0473    3.9232   -0.6646 C   0  0  0  0  0  0  0  0  0  0  0  0
   -1.0160    2.8973   -0.2281 C   0  0  2  0  0  0  0  0  0  0  0  0
   -1.7919    1.5757   -0.1107 C   0  0  0  0  0  0  0  0  0  0  0  0
   -0.9168    0.4457    0.0308 N   0  0  0  0  0  0  0  0  0  0  0  0
    0.4146    0.5897    0.2895 C   0  0  0  0  0  0  0  0  0  0  0  0
    1.2570    1.7378    0.5354 C   0  0  0  0  0  0  0  0  0  0  0  0
    0.6830    2.8719    1.3171 C   0  0  0  0  0  0  0  0  0  0  0  0
   -0.6152    3.1895    1.0714 O   0  0  0  0  0  0  0  0  0  0  0  0
    0.9074   -0.6962    0.2967 C   0  0  0  0  0  0  0  0  0  0  0  0
   -0.0883   -1.5222    0.0578 N   0  0  0  0  0  0  0  0  0  0  0  0
   -1.2421   -0.8205   -0.1104 C   0  0  0  0  0  0  0  0  0  0  0  0
   -2.5087   -1.4641   -0.4220 C   0  0  0  0  0  0  0  0  0  0  0  0
   -2.4523   -2.8012   -0.8410 C   0  0  0  0  0  0  0  0  0  0  0  0
   -3.6163   -3.4681   -1.1029 C   0  0  0  0  0  0  0  0  0  0  0  0
   -4.8411   -2.8622   -0.9662 C   0  0  0  0  0  0  0  0  0  0  0  0
   -6.2764   -3.7753   -1.3186 Cl  0  0  0  0  0  0  0  0  0  0  0  0
   -4.9296   -1.5722   -0.5628 C   0  0  0  0  0  0  0  0  0  0  0  0
   -6.4600   -0.7383   -0.3680 Cl  0  0  0  0  0  0  0  0  0  0  0  0
   -3.7355   -0.8808   -0.2911 C   0  0  0  0  0  0  0  0  0  0  0  0
    2.2775   -1.1774    0.5201 C   0  0  0  0  0  0  0  0  0  0  0  0
    2.4913   -2.2298    1.3791 C   0  0  0  0  0  0  0  0  0  0  0  0
    3.7851   -2.7218    1.6040 C   0  0  0  0  0  0  0  0  0  0  0  0
    4.7995   -2.1298    0.9529 N   0  0  0  0  0  0  0  0  0  0  0  0
    4.6516   -1.1029    0.1056 C   0  0  0  0  0  0  0  0  0  0  0  0
    5.8036   -0.4678   -0.6024 C   0  0  0  0  0  0  0  0  0  0  0  0
    3.3569   -0.6196   -0.1118 C   0  0  0  0  0  0  0  0  0  0  0  0
   -3.0796    3.5907   -0.4804 H   0  0  0  0  0  0  0  0  0  0  0  0
   -1.9323    4.1406   -1.7370 H   0  0  0  0  0  0  0  0  0  0  0  0
   -1.8656    4.8786   -0.1119 H   0  0  0  0  0  0  0  0  0  0  0  0
   -0.2083    2.8084   -0.9557 H   0  0  0  0  0  0  0  0  0  0  0  0
   -2.4746    1.4977   -0.9864 H   0  0  0  0  0  0  0  0  0  0  0  0
   -2.3991    1.6913    0.7969 H   0  0  0  0  0  0  0  0  0  0  0  0
    1.6213    2.1375   -0.4331 H   0  0  0  0  0  0  0  0  0  0  0  0
    2.2157    1.4297    1.0630 H   0  0  0  0  0  0  0  0  0  0  0  0
    1.2872    3.7966    1.2263 H   0  0  0  0  0  0  0  0  0  0  0  0
    0.7603    2.5861    2.4080 H   0  0  0  0  0  0  0  0  0  0  0  0
   -1.4754   -3.2721   -0.9489 H   0  0  0  0  0  0  0  0  0  0  0  0
   -3.5270   -4.5109   -1.4277 H   0  0  0  0  0  0  0  0  0  0  0  0
   -3.8890    0.1249    0.0517 H   0  0  0  0  0  0  0  0  0  0  0  0
    1.6973   -2.7334    1.9229 H   0  0  0  0  0  0  0  0  0  0  0  0
    3.9410   -3.5492    2.2812 H   0  0  0  0  0  0  0  0  0  0  0  0
    6.1973    0.4015   -0.0294 H   0  0  0  0  0  0  0  0  0  0  0  0
    5.4629   -0.1513   -1.5955 H   0  0  0  0  0  0  0  0  0  0  0  0
    6.5793   -1.2500   -0.7193 H   0  0  0  0  0  0  0  0  0  0  0  0
    3.1988    0.2028   -0.7844 H   0  0  0  0  0  0  0  0  0  0  0  0
  1  2  1  0
  2  3  1  0
  3  4  1  0
  4  5  1  0
  5  6  1  0
  6  7  1  0
  7  8  1  0
  5  9  2  0
  9 10  1  0
 10 11  2  0
 11 12  1  0
 12 13  2  0
 13 14  1  0
 14 15  2  0
 15 16  1  0
 15 17  1  0
 17 18  1  0
 17 19  2  0
  9 20  1  0
 20 21  2  0
 21 22  1  0
 22 23  2  0
 23 24  1  0
 24 25  1  0
 24 26  2  0
  8  2  1  0
 19 12  1  0
 26 20  1  0
 11  4  1  0
  1 27  1  0
  1 28  1  0
  1 29  1  0
  2 30  1  6
  3 31  1  0
  3 32  1  0
  6 33  1  0
  6 34  1  0
  7 35  1  0
  7 36  1  0
 13 37  1  0
 14 38  1  0
 19 39  1  0
 21 40  1  0
 22 41  1  0
 25 42  1  0
 25 43  1  0
 25 44  1  0
 26 45  1  0
M  END
$$$$
[H]O[C@]1([H])[C@@]([H])(OP(=O)(O[H])O[H])O[C@]([H])(C([H])([H])OP(=O)(O[H])O[H])[C@@]([H])(O[H])[C@@]1([H])O[H]
     RDKit          3D

 34 34  0  0  0  0  0  0  0  0999 V2000
   -0.9135   -2.1761   -0.9567 O   0  0  0  0  0  0  0  0  0  0  0  0
   -0.5903   -1.3954    0.1633 C   0  0  2  0  0  0  0  0  0  0  0  0
   -0.3255    0.0149   -0.3036 C   0  0  1  0  0  0  0  0  0  0  0  0
   -1.5976    0.8497   -0.2877 C   0  0  0  0  0  0  0  0  0  0  0  0
   -2.6558    0.0430   -0.6614 O   0  0  0  0  0  0  0  0  0  0  0  0
   -4.1545    0.7100   -0.2691 P   0  0  0  0  0  0  0  0  0  0  0  0
   -4.0288    1.4910    1.2337 O   0  0  0  0  0  0  0  0  0  0  0  0
   -5.2441   -0.5898   -0.1458 O   0  0  0  0  0  0  0  0  0  0  0  0
   -4.5967    1.7032   -1.3077 O   0  0  0  0  0  0  0  0  0  0  0  0
    0.5887    0.6433    0.5532 O   0  0  0  0  0  0  0  0  0  0  0  0
    1.8644    0.1969    0.1869 C   0  0  2  0  0  0  0  0  0  0  0  0
    2.1845    0.8161   -1.0117 O   0  0  0  0  0  0  0  0  0  0  0  0
    3.0555    2.2513   -0.7653 P   0  0  0  0  0  0  0  0  0  0  0  0
    4.6018    1.9162   -0.1433 O   0  0  0  0  0  0  0  0  0  0  0  0
    2.2012    3.2161    0.3404 O   0  0  0  0  0  0  0  0  0  0  0  0
    3.1829    2.9496   -2.0935 O   0  0  0  0  0  0  0  0  0  0  0  0
    1.8260   -1.3010   -0.0890 C   0  0  1  0  0  0  0  0  0  0  0  0
    3.0675   -1.8684    0.2213 O   0  0  0  0  0  0  0  0  0  0  0  0
    0.7180   -1.9390    0.7264 C   0  0  2  0  0  0  0  0  0  0  0  0
    0.8094   -3.3141    0.5783 O   0  0  0  0  0  0  0  0  0  0  0  0
   -0.5004   -1.8453   -1.7831 H   0  0  0  0  0  0  0  0  0  0  0  0
   -1.4093   -1.4507    0.9035 H   0  0  0  0  0  0  0  0  0  0  0  0
    0.0783   -0.0279   -1.3445 H   0  0  0  0  0  0  0  0  0  0  0  0
   -1.7409    1.3276    0.6998 H   0  0  0  0  0  0  0  0  0  0  0  0
   -1.4732    1.6265   -1.0643 H   0  0  0  0  0  0  0  0  0  0  0  0
   -4.2887    0.8964    1.9803 H   0  0  0  0  0  0  0  0  0  0  0  0
   -5.1175   -0.9420    0.7826 H   0  0  0  0  0  0  0  0  0  0  0  0
    2.5790    0.4221    0.9985 H   0  0  0  0  0  0  0  0  0  0  0  0
    4.5288    1.1635    0.5099 H   0  0  0  0  0  0  0  0  0  0  0  0
    1.2331    3.0877    0.1702 H   0  0  0  0  0  0  0  0  0  0  0  0
    1.5679   -1.4721   -1.1612 H   0  0  0  0  0  0  0  0  0  0  0  0
    3.6868   -1.5683   -0.4972 H   0  0  0  0  0  0  0  0  0  0  0  0
    0.7889   -1.6374    1.7844 H   0  0  0  0  0  0  0  0  0  0  0  0
    0.0741   -3.7978    1.0178 H   0  0  0  0  0  0  0  0  0  0  0  0
  1  2  1  0
  2  3  1  0
  3  4  1  0
  4  5  1  0
  5  6  1  0
  6  7  1  0
  6  8  1  0
  6  9  2  0
  3 10  1  0
 10 11  1  0
 11 12  1  0
 12 13  1  0
 13 14  1  0
 13 15  1  0
 13 16  2  0
 11 17  1  0
 17 18  1  0
 17 19  1  0
 19 20  1  0
 19  2  1  0
  1 21  1  0
  2 22  1  1
  3 23  1  6
  4 24  1  0
  4 25  1  0
  7 26  1  0
  8 27  1  0
 11 28  1  1
 14 29  1  0
 15 30  1  0
 17 31  1  6
 18 32  1  0
 19 33  1  1
 20 34  1  0
M  END
$$$$
[H]c1c([H])c([H])c(C([H])([H])OC(c2nc3c(N([H])[H])nc([H])n(C([H])([H])c4c([H])c([H])c(OC([H])([H])[H])c(OC5([H])C([H])([H])C([H])([H])C([H])([H])C5([H])[H])c4[H])c-3n2)(C([H])([H])[H])C([H])([H])[H])c([H])c1[H]
     RDKit          3D

 69 73  0  0  0  0  0  0  0  0999 V2000
   -5.4592   -3.1731   -1.6363 C   0  0  0  0  0  0  0  0  0  0  0  0
   -5.4098   -1.9856   -0.8827 O   0  0  0  0  0  0  0  0  0  0  0  0
   -4.2653   -1.5480   -0.2372 C   0  0  0  0  0  0  0  0  0  0  0  0
   -3.1119   -2.2942   -0.3285 C   0  0  0  0  0  0  0  0  0  0  0  0
   -1.9256   -1.8911    0.3068 C   0  0  0  0  0  0  0  0  0  0  0  0
   -1.9171   -0.7367    1.0252 C   0  0  0  0  0  0  0  0  0  0  0  0
   -0.7492   -0.2027    1.7244 C   0  0  0  0  0  0  0  0  0  0  0  0
    0.1299    0.5697    0.8738 N   0  0  0  0  0  0  0  0  0  0  0  0
   -0.2617    1.8125    0.4500 C   0  0  0  0  0  0  0  0  0  0  0  0
    0.4843    2.5383   -0.3836 N   0  0  0  0  0  0  0  0  0  0  0  0
    1.6904    2.0763   -0.8645 C   0  0  0  0  0  0  0  0  0  0  0  0
    2.4898    2.8335   -1.7522 N   0  0  0  0  0  0  0  0  0  0  0  0
    2.1003    0.8461   -0.4566 C   0  0  0  0  0  0  0  0  0  0  0  0
    3.2170    0.1450   -0.6847 N   0  0  0  0  0  0  0  0  0  0  0  0
    3.1531   -1.0249    0.0144 C   0  0  0  0  0  0  0  0  0  0  0  0
    2.0176   -1.0843    0.6853 N   0  0  0  0  0  0  0  0  0  0  0  0
    1.2809    0.0428    0.4633 C   0  0  0  0  0  0  0  0  0  0  0  0
    4.3044   -1.9839    0.0402 C   0  0  0  0  0  0  0  0  0  0  0  0
    3.6786   -3.2911    0.7571 C   0  0  0  0  0  0  0  0  0  0  0  0
    4.6911   -2.5139   -1.2732 C   0  0  0  0  0  0  0  0  0  0  0  0
    5.2551   -1.6418    0.8804 O   0  0  0  0  0  0  0  0  0  0  0  0
    5.8841   -0.5995    1.2449 C   0  0  0  0  0  0  0  0  0  0  0  0
    6.7070    0.3280    0.4697 C   0  0  0  0  0  0  0  0  0  0  0  0
    7.0034    0.3189   -0.8409 C   0  0  0  0  0  0  0  0  0  0  0  0
    7.8124    1.2847   -1.4584 C   0  0  0  0  0  0  0  0  0  0  0  0
    8.3494    2.3095   -0.7108 C   0  0  0  0  0  0  0  0  0  0  0  0
    8.0543    2.3249    0.6264 C   0  0  0  0  0  0  0  0  0  0  0  0
    7.2756    1.3938    1.2061 C   0  0  0  0  0  0  0  0  0  0  0  0
   -3.1010    0.0020    1.1035 C   0  0  0  0  0  0  0  0  0  0  0  0
   -4.2819   -0.3577    0.4982 C   0  0  0  0  0  0  0  0  0  0  0  0
   -5.3579    0.3903    0.6240 O   0  0  0  0  0  0  0  0  0  0  0  0
   -6.6719    0.5054    0.3443 C   0  0  0  0  0  0  0  0  0  0  0  0
   -7.4872    0.9797    1.5506 C   0  0  0  0  0  0  0  0  0  0  0  0
   -7.9251    2.3919    1.2164 C   0  0  0  0  0  0  0  0  0  0  0  0
   -8.0646    2.3533   -0.2911 C   0  0  0  0  0  0  0  0  0  0  0  0
   -6.8497    1.5974   -0.7012 C   0  0  0  0  0  0  0  0  0  0  0  0
   -4.6226   -3.2633   -2.3587 H   0  0  0  0  0  0  0  0  0  0  0  0
   -5.4953   -4.0350   -0.9512 H   0  0  0  0  0  0  0  0  0  0  0  0
   -6.3944   -3.1665   -2.2792 H   0  0  0  0  0  0  0  0  0  0  0  0
   -3.0762   -3.2182   -0.8776 H   0  0  0  0  0  0  0  0  0  0  0  0
   -1.0212   -2.4816    0.2266 H   0  0  0  0  0  0  0  0  0  0  0  0
   -0.1666   -0.9912    2.2601 H   0  0  0  0  0  0  0  0  0  0  0  0
   -1.0937    0.5002    2.5283 H   0  0  0  0  0  0  0  0  0  0  0  0
   -1.2110    2.1521    0.8357 H   0  0  0  0  0  0  0  0  0  0  0  0
    2.6009    2.6733   -2.7709 H   0  0  0  0  0  0  0  0  0  0  0  0
    3.0438    3.6521   -1.3407 H   0  0  0  0  0  0  0  0  0  0  0  0
    4.3536   -4.1106    0.5528 H   0  0  0  0  0  0  0  0  0  0  0  0
    2.7492   -3.4041    0.1591 H   0  0  0  0  0  0  0  0  0  0  0  0
    3.4549   -3.0175    1.7721 H   0  0  0  0  0  0  0  0  0  0  0  0
    5.7763   -2.7511   -1.3308 H   0  0  0  0  0  0  0  0  0  0  0  0
    4.0672   -3.4094   -1.5898 H   0  0  0  0  0  0  0  0  0  0  0  0
    4.5348   -1.7338   -2.0762 H   0  0  0  0  0  0  0  0  0  0  0  0
    6.6475   -0.9510    2.0840 H   0  0  0  0  0  0  0  0  0  0  0  0
    5.2373    0.0698    1.9897 H   0  0  0  0  0  0  0  0  0  0  0  0
    6.6143   -0.4477   -1.4887 H   0  0  0  0  0  0  0  0  0  0  0  0
    7.9997    1.2169   -2.4965 H   0  0  0  0  0  0  0  0  0  0  0  0
    8.9605    3.0418   -1.1976 H   0  0  0  0  0  0  0  0  0  0  0  0
    8.5084    3.1569    1.1917 H   0  0  0  0  0  0  0  0  0  0  0  0
    7.0517    1.4143    2.2698 H   0  0  0  0  0  0  0  0  0  0  0  0
   -3.0783    0.9114    1.6720 H   0  0  0  0  0  0  0  0  0  0  0  0
   -7.1783   -0.4129   -0.0732 H   0  0  0  0  0  0  0  0  0  0  0  0
   -6.7741    1.0572    2.4215 H   0  0  0  0  0  0  0  0  0  0  0  0
   -8.3182    0.3196    1.7879 H   0  0  0  0  0  0  0  0  0  0  0  0
   -7.1497    3.1301    1.4623 H   0  0  0  0  0  0  0  0  0  0  0  0
   -8.8519    2.6689    1.7074 H   0  0  0  0  0  0  0  0  0  0  0  0
   -8.0270    3.3976   -0.7040 H   0  0  0  0  0  0  0  0  0  0  0  0
   -9.0180    1.8970   -0.5711 H   0  0  0  0  0  0  0  0  0  0  0  0
   -6.9011    1.1440   -1.7212 H   0  0  0  0  0  0  0  0  0  0  0  0
   -5.9619    2.2751   -0.7159 H   0  0  0  0  0  0  0  0  0  0  0  0
  1  2  1  0
  2  3  1  0
  3  4  2  0
  4  5  1  0
  5  6  2  0
  6  7  1  0
  7  8  1  0
  8  9  1  0
  9 10  2  0
 10 11  1  0
 11 12  1  0
 11 13  2  0
 13 14  1  0
 14 15  2  0
 15 16  1  0
 16 17  2  0
 15 18  1  0
 18 19  1  0
 18 20  1  0
 18 21  1  0
 21 22  1  0
 22 23  1  0
 23 24  2  0
 24 25  1  0
 25 26  2  0
 26 27  1  0
 27 28  2  0
  6 29  1  0
 29 30  2  0
 30 31  1  0
 31 32  1  0
 32 33  1  0
 33 34  1  0
 34 35  1  0
 35 36  1  0
 30  3  1  0
 36 32  1  0
 17  8  1  0
 28 23  1  0
 17 13  1  0
  1 37  1  0
  1 38  1  0
  1 39  1  0
  4 40  1  0
  5 41  1  0
  7 42  1  0
  7 43  1  0
  9 44  1  0
 12 45  1  0
 12 46  1  0
 19 47  1  0
 19 48  1  0
 19 49  1  0
 20 50  1  0
 20 51  1  0
 20 52  1  0
 22 53  1  0
 22 54  1  0
 24 55  1  0
 25 56  1  0
 26 57  1  0
 27 58  1  0
 28 59  1  0
 29 60  1  0
 32 61  1  0
 33 62  1  0
 33 63  1  0
 34 64  1  0
 34 65  1  0
 35 66  1  0
 35 67  1  0
 36 68  1  0
 36 69  1  0
M  END
$$$$
[H]c1c([H])c([H])c(C([H])([H])[C@@]2([H])C(=O)N([H])[C@@]([H])(C([H])([H])c3c([H])c([H])c([H])c([H])c3[H])C(=O)N([H])[C@@]([H])(C([H])([H])c3c([H])n([H])c4c([H])c([H])c([H])c([H])c34)C(=O)N([H])[C@]([H])(C([H])([H])c3c([H])n([H])c4c([H])c([H])c([H])c([H])c34)C(=O)N([H])[C@@]([H])(C([H])([H])C([H])([H])C([H])([H])C([H])([H])N([H])[H])C(=O)N([H])[C@@]([H])(C([H])(C([H])([H])[H])C([H])([H])[H])C(=O)N2[H])c([H])c1[H]
     RDKit          3D

125131  0  0  0  0  0  0  0  0999 V2000
    0.6226   -6.4375    2.0781 C   0  0  0  0  0  0  0  0  0  0  0  0
    1.2997   -5.7098    0.9712 C   0  0  0  0  0  0  0  0  0  0  0  0
    2.7709   -5.8943    1.0623 C   0  0  0  0  0  0  0  0  0  0  0  0
    0.8520   -4.2673    0.7916 C   0  0  2  0  0  0  0  0  0  0  0  0
   -0.5653   -4.1983    0.4928 N   0  0  0  0  0  0  0  0  0  0  0  0
   -1.3079   -3.2865   -0.2211 C   0  0  0  0  0  0  0  0  0  0  0  0
   -1.9410   -3.7257   -1.2642 O   0  0  0  0  0  0  0  0  0  0  0  0
   -1.5326   -1.8305   -0.0135 C   0  0  2  0  0  0  0  0  0  0  0  0
   -3.0321   -1.6155   -0.0471 C   0  0  0  0  0  0  0  0  0  0  0  0
   -3.6279   -2.4495    1.0710 C   0  0  0  0  0  0  0  0  0  0  0  0
   -5.1375   -2.2764    1.0737 C   0  0  0  0  0  0  0  0  0  0  0  0
   -5.6679   -3.1241    2.2069 C   0  0  0  0  0  0  0  0  0  0  0  0
   -5.0405   -2.5981    3.4189 N   0  0  0  0  0  0  0  0  0  0  0  0
   -0.8266   -1.0197   -0.9740 N   0  0  0  0  0  0  0  0  0  0  0  0
   -1.1954   -0.2183   -2.0131 C   0  0  0  0  0  0  0  0  0  0  0  0
   -1.0961   -0.7126   -3.2122 O   0  0  0  0  0  0  0  0  0  0  0  0
   -1.7177    1.1940   -2.0886 C   0  0  1  0  0  0  0  0  0  0  0  0
   -2.9190    1.1507   -2.9937 C   0  0  0  0  0  0  0  0  0  0  0  0
   -3.6212    2.3894   -3.2748 C   0  0  0  0  0  0  0  0  0  0  0  0
   -3.2956    3.1760   -4.3955 C   0  0  0  0  0  0  0  0  0  0  0  0
   -4.0913    4.2391   -4.3408 N   0  0  0  0  0  0  0  0  0  0  0  0
   -4.8981    4.2008   -3.2817 C   0  0  0  0  0  0  0  0  0  0  0  0
   -5.8751    5.0680   -2.8534 C   0  0  0  0  0  0  0  0  0  0  0  0
   -6.5777    4.7613   -1.7226 C   0  0  0  0  0  0  0  0  0  0  0  0
   -6.3099    3.6113   -1.0325 C   0  0  0  0  0  0  0  0  0  0  0  0
   -5.3391    2.7438   -1.4516 C   0  0  0  0  0  0  0  0  0  0  0  0
   -4.6141    3.0282   -2.5889 C   0  0  0  0  0  0  0  0  0  0  0  0
   -1.8435    1.8728   -0.8606 N   0  0  0  0  0  0  0  0  0  0  0  0
   -0.9655    2.7315   -0.1601 C   0  0  0  0  0  0  0  0  0  0  0  0
   -1.3188    3.9897   -0.1322 O   0  0  0  0  0  0  0  0  0  0  0  0
    0.2760    2.4514    0.5415 C   0  0  2  0  0  0  0  0  0  0  0  0
    0.2501    2.5940    2.0361 C   0  0  0  0  0  0  0  0  0  0  0  0
   -0.1309    3.8899    2.5899 C   0  0  0  0  0  0  0  0  0  0  0  0
    0.6767    5.0012    2.8080 C   0  0  0  0  0  0  0  0  0  0  0  0
   -0.0103    6.0377    3.2710 N   0  0  0  0  0  0  0  0  0  0  0  0
   -1.2965    5.6114    3.3648 C   0  0  0  0  0  0  0  0  0  0  0  0
   -2.3650    6.3501    3.8254 C   0  0  0  0  0  0  0  0  0  0  0  0
   -3.6022    5.7219    3.8739 C   0  0  0  0  0  0  0  0  0  0  0  0
   -3.7287    4.3935    3.4659 C   0  0  0  0  0  0  0  0  0  0  0  0
   -2.6550    3.6747    3.0092 C   0  0  0  0  0  0  0  0  0  0  0  0
   -1.3993    4.2898    2.9514 C   0  0  0  0  0  0  0  0  0  0  0  0
    1.4514    3.1238   -0.0421 N   0  0  0  0  0  0  0  0  0  0  0  0
    2.7497    2.6461   -0.0983 C   0  0  0  0  0  0  0  0  0  0  0  0
    3.6685    3.5321   -0.0467 O   0  0  0  0  0  0  0  0  0  0  0  0
    3.2656    1.2632   -0.2088 C   0  0  2  0  0  0  0  0  0  0  0  0
    2.8101    0.6709   -1.4954 C   0  0  0  0  0  0  0  0  0  0  0  0
    3.3237    1.4570   -2.6459 C   0  0  0  0  0  0  0  0  0  0  0  0
    2.6586    2.4627   -3.2865 C   0  0  0  0  0  0  0  0  0  0  0  0
    3.2487    3.1371   -4.3657 C   0  0  0  0  0  0  0  0  0  0  0  0
    4.5027    2.8175   -4.8167 C   0  0  0  0  0  0  0  0  0  0  0  0
    5.1832    1.8078   -4.1818 C   0  0  0  0  0  0  0  0  0  0  0  0
    4.5976    1.1621   -3.1350 C   0  0  0  0  0  0  0  0  0  0  0  0
    3.0484    0.4820    0.9783 N   0  0  0  0  0  0  0  0  0  0  0  0
    2.6800   -0.8256    1.2138 C   0  0  0  0  0  0  0  0  0  0  0  0
    1.5176   -0.9888    1.7544 O   0  0  0  0  0  0  0  0  0  0  0  0
    3.3647   -2.1210    0.9712 C   0  0  2  0  0  0  0  0  0  0  0  0
    4.8553   -1.9628    0.8828 C   0  0  0  0  0  0  0  0  0  0  0  0
    5.6268   -3.1841    0.6678 C   0  0  0  0  0  0  0  0  0  0  0  0
    5.9768   -3.6362   -0.5738 C   0  0  0  0  0  0  0  0  0  0  0  0
    6.7203   -4.7969   -0.7655 C   0  0  0  0  0  0  0  0  0  0  0  0
    7.1177   -5.5139    0.3210 C   0  0  0  0  0  0  0  0  0  0  0  0
    6.7894   -5.0974    1.5894 C   0  0  0  0  0  0  0  0  0  0  0  0
    6.0598   -3.9576    1.7587 C   0  0  0  0  0  0  0  0  0  0  0  0
    2.8479   -2.8795   -0.1206 N   0  0  0  0  0  0  0  0  0  0  0  0
    1.7238   -3.6893   -0.2381 C   0  0  0  0  0  0  0  0  0  0  0  0
    1.3543   -4.0070   -1.4415 O   0  0  0  0  0  0  0  0  0  0  0  0
    1.0619   -7.4862    2.0644 H   0  0  0  0  0  0  0  0  0  0  0  0
   -0.4457   -6.5958    1.9263 H   0  0  0  0  0  0  0  0  0  0  0  0
    0.9051   -6.0557    3.0832 H   0  0  0  0  0  0  0  0  0  0  0  0
    0.9763   -6.2274    0.0177 H   0  0  0  0  0  0  0  0  0  0  0  0
    2.9616   -6.9883    0.8349 H   0  0  0  0  0  0  0  0  0  0  0  0
    3.3677   -5.3672    0.2908 H   0  0  0  0  0  0  0  0  0  0  0  0
    3.1814   -5.7652    2.0820 H   0  0  0  0  0  0  0  0  0  0  0  0
    1.0506   -3.7883    1.7737 H   0  0  0  0  0  0  0  0  0  0  0  0
   -1.1164   -5.0270    0.9094 H   0  0  0  0  0  0  0  0  0  0  0  0
   -1.2240   -1.5403    1.0094 H   0  0  0  0  0  0  0  0  0  0  0  0
   -3.4154   -2.0388   -0.9835 H   0  0  0  0  0  0  0  0  0  0  0  0
   -3.3299   -0.5831    0.1537 H   0  0  0  0  0  0  0  0  0  0  0  0
   -3.2130   -2.2079    2.0646 H   0  0  0  0  0  0  0  0  0  0  0  0
   -3.4354   -3.5415    0.8427 H   0  0  0  0  0  0  0  0  0  0  0  0
   -5.5439   -2.6017    0.0848 H   0  0  0  0  0  0  0  0  0  0  0  0
   -5.3691   -1.2078    1.1774 H   0  0  0  0  0  0  0  0  0  0  0  0
   -5.2952   -4.1594    2.0599 H   0  0  0  0  0  0  0  0  0  0  0  0
   -6.7759   -3.0702    2.3107 H   0  0  0  0  0  0  0  0  0  0  0  0
   -5.3399   -3.1194    4.2488 H   0  0  0  0  0  0  0  0  0  0  0  0
   -5.1947   -1.5827    3.5354 H   0  0  0  0  0  0  0  0  0  0  0  0
    0.2483   -1.0829   -0.8330 H   0  0  0  0  0  0  0  0  0  0  0  0
   -0.9582    1.7807   -2.7348 H   0  0  0  0  0  0  0  0  0  0  0  0
   -3.6275    0.4152   -2.4932 H   0  0  0  0  0  0  0  0  0  0  0  0
   -2.6705    0.6029   -3.9542 H   0  0  0  0  0  0  0  0  0  0  0  0
   -2.5394    2.9200   -5.1263 H   0  0  0  0  0  0  0  0  0  0  0  0
   -4.0738    5.0142   -5.0609 H   0  0  0  0  0  0  0  0  0  0  0  0
   -6.0813    5.9806   -3.4093 H   0  0  0  0  0  0  0  0  0  0  0  0
   -7.3463    5.4469   -1.3887 H   0  0  0  0  0  0  0  0  0  0  0  0
   -6.9017    3.4229   -0.1418 H   0  0  0  0  0  0  0  0  0  0  0  0
   -5.1073    1.8151   -0.9172 H   0  0  0  0  0  0  0  0  0  0  0  0
   -2.7998    1.6912   -0.3717 H   0  0  0  0  0  0  0  0  0  0  0  0
    0.4949    1.3282    0.4045 H   0  0  0  0  0  0  0  0  0  0  0  0
   -0.5287    1.8389    2.3849 H   0  0  0  0  0  0  0  0  0  0  0  0
    1.2044    2.2136    2.4608 H   0  0  0  0  0  0  0  0  0  0  0  0
    1.7416    5.0217    2.6232 H   0  0  0  0  0  0  0  0  0  0  0  0
    0.3684    6.9878    3.5118 H   0  0  0  0  0  0  0  0  0  0  0  0
   -2.2597    7.3707    4.1389 H   0  0  0  0  0  0  0  0  0  0  0  0
   -4.4297    6.3121    4.2360 H   0  0  0  0  0  0  0  0  0  0  0  0
   -4.7119    3.9504    3.5254 H   0  0  0  0  0  0  0  0  0  0  0  0
   -2.7211    2.6455    2.6870 H   0  0  0  0  0  0  0  0  0  0  0  0
    1.2095    4.0815   -0.4508 H   0  0  0  0  0  0  0  0  0  0  0  0
    4.4056    1.3465   -0.2739 H   0  0  0  0  0  0  0  0  0  0  0  0
    1.6918    0.7314   -1.5715 H   0  0  0  0  0  0  0  0  0  0  0  0
    3.0647   -0.3622   -1.6852 H   0  0  0  0  0  0  0  0  0  0  0  0
    1.6751    2.7390   -2.9771 H   0  0  0  0  0  0  0  0  0  0  0  0
    2.7055    3.9318   -4.8586 H   0  0  0  0  0  0  0  0  0  0  0  0
    4.9937    3.3142   -5.6502 H   0  0  0  0  0  0  0  0  0  0  0  0
    6.1864    1.4983   -4.4874 H   0  0  0  0  0  0  0  0  0  0  0  0
    5.1462    0.3690   -2.6484 H   0  0  0  0  0  0  0  0  0  0  0  0
    3.2238    1.1287    1.8459 H   0  0  0  0  0  0  0  0  0  0  0  0
    3.2163   -2.7860    1.8835 H   0  0  0  0  0  0  0  0  0  0  0  0
    5.1825   -1.5270    1.8773 H   0  0  0  0  0  0  0  0  0  0  0  0
    5.1237   -1.1526    0.1567 H   0  0  0  0  0  0  0  0  0  0  0  0
    5.7032   -3.1150   -1.4772 H   0  0  0  0  0  0  0  0  0  0  0  0
    6.9954   -5.1536   -1.7543 H   0  0  0  0  0  0  0  0  0  0  0  0
    7.6970   -6.4182    0.2233 H   0  0  0  0  0  0  0  0  0  0  0  0
    7.1129   -5.6767    2.4372 H   0  0  0  0  0  0  0  0  0  0  0  0
    5.7749   -3.5844    2.7436 H   0  0  0  0  0  0  0  0  0  0  0  0
    3.4390   -2.7976   -1.0173 H   0  0  0  0  0  0  0  0  0  0  0  0
  1  2  1  0
  2  3  1  0
  2  4  1  0
  4  5  1  0
  5  6  1  0
  6  7  2  0
  6  8  1  0
  8  9  1  0
  9 10  1  0
 10 11  1  0
 11 12  1  0
 12 13  1  0
  8 14  1  0
 14 15  1  0
 15 16  2  0
 15 17  1  0
 17 18  1  0
 18 19  1  0
 19 20  2  0
 20 21  1  0
 21 22  1  0
 22 23  2  0
 23 24  1  0
 24 25  2  0
 25 26  1  0
 26 27  2  0
 17 28  1  0
 28 29  1  0
 29 30  2  0
 29 31  1  0
 31 32  1  0
 32 33  1  0
 33 34  2  0
 34 35  1  0
 35 36  1  0
 36 37  2  0
 37 38  1  0
 38 39  2  0
 39 40  1  0
 40 41  2  0
 31 42  1  0
 42 43  1  0
 43 44  2  0
 43 45  1  0
 45 46  1  0
 46 47  1  0
 47 48  2  0
 48 49  1  0
 49 50  2  0
 50 51  1  0
 51 52  2  0
 45 53  1  0
 53 54  1  0
 54 55  2  0
 54 56  1  0
 56 57  1  0
 57 58  1  0
 58 59  2  0
 59 60  1  0
 60 61  2  0
 61 62  1  0
 62 63  2  0
 56 64  1  0
 64 65  1  0
 65 66  2  0
 65  4  1  0
 27 19  1  0
 41 33  1  0
 52 47  1  0
 63 58  1  0
 27 22  1  0
 41 36  1  0
  1 67  1  0
  1 68  1  0
  1 69  1  0
  2 70  1  0
  3 71  1  0
  3 72  1  0
  3 73  1  0
  4 74  1  1
  5 75  1  0
  8 76  1  1
  9 77  1  0
  9 78  1  0
 10 79  1  0
 10 80  1  0
 11 81  1  0
 11 82  1  0
 12 83  1  0
 12 84  1  0
 13 85  1  0
 13 86  1  0
 14 87  1  0
 17 88  1  6
 18 89  1  0
 18 90  1  0
 20 91  1  0
 21 92  1  0
 23 93  1  0
 24 94  1  0
 25 95  1  0
 26 96  1  0
 28 97  1  0
 31 98  1  1
 32 99  1  0
 32100  1  0
 34101  1  0
 35102  1  0
 37103  1  0
 38104  1  0
 39105  1  0
 40106  1  0
 42107  1  0
 45108  1  6
 46109  1  0
 46110  1  0
 48111  1  0
 49112  1  0
 50113  1  0
 51114  1  0
 52115  1  0
 53116  1  0
 56117  1  1
 57118  1  0
 57119  1  0
 59120  1  0
 60121  1  0
 61122  1  0
 62123  1  0
 63124  1  0
 64125  1  0
M  END
$$$$
[H]Oc1c([H])c([H])c(C([H])([H])[C@@]([H])(C(=O)N2C([H])([H])C([H])([H])C([H])([H])[C@@]2([H])C(=O)N([H])[C@]([H])(C(=O)N([H])[C@]([H])(C(=O)N([H])[C@]([H])(C(=O)N([H])[C@]([H])(C(=O)N([H])[H])C([H])([H])c2c([H])c([H])c([H])c([H])c2[H])C([H])([H])C(=O)N([H])[H])C([H])([H])c2c([H])n([H])c3c([H])c([H])c([H])c([H])c23)C([H])([H])C([H])(C([H])([H])[H])C([H])([H])[H])N([H])[H])c([H])c1[H]
     RDKit          3D

116120  0  0  0  0  0  0  0  0999 V2000
    2.4168   -3.6903    3.1251 C   0  0  0  0  0  0  0  0  0  0  0  0
    2.6952   -2.9437    1.8065 C   0  0  0  0  0  0  0  0  0  0  0  0
    3.3399   -3.9853    0.9065 C   0  0  0  0  0  0  0  0  0  0  0  0
    1.3253   -2.5284    1.2914 C   0  0  0  0  0  0  0  0  0  0  0  0
    1.3762   -1.7646    0.0017 C   0  0  2  0  0  0  0  0  0  0  0  0
    2.0972   -0.5340    0.0406 N   0  0  0  0  0  0  0  0  0  0  0  0
    3.3375   -0.3017   -0.5939 C   0  0  0  0  0  0  0  0  0  0  0  0
    3.9246   -1.1742   -1.2645 O   0  0  0  0  0  0  0  0  0  0  0  0
    3.9791    1.0551   -0.4530 C   0  0  2  0  0  0  0  0  0  0  0  0
    3.5045    1.8261   -1.6920 C   0  0  0  0  0  0  0  0  0  0  0  0
    4.4177    1.2139   -2.7560 C   0  0  0  0  0  0  0  0  0  0  0  0
    5.6946    0.8791   -2.0315 C   0  0  0  0  0  0  0  0  0  0  0  0
    5.4026    1.0397   -0.6507 N   0  0  0  0  0  0  0  0  0  0  0  0
    6.3129    1.1975    0.4100 C   0  0  0  0  0  0  0  0  0  0  0  0
    5.8543    1.3967    1.6118 O   0  0  0  0  0  0  0  0  0  0  0  0
    7.7938    1.1729    0.3737 C   0  0  1  0  0  0  0  0  0  0  0  0
    8.3227    0.6026   -0.8680 N   0  0  0  0  0  0  0  0  0  0  0  0
    8.3316    2.5964    0.5064 C   0  0  0  0  0  0  0  0  0  0  0  0
    9.7799    2.7137    0.5151 C   0  0  0  0  0  0  0  0  0  0  0  0
   10.4846    2.8497   -0.6532 C   0  0  0  0  0  0  0  0  0  0  0  0
   11.8698    2.9883   -0.6615 C   0  0  0  0  0  0  0  0  0  0  0  0
   12.5353    2.9880    0.5158 C   0  0  0  0  0  0  0  0  0  0  0  0
   13.9333    3.1287    0.5282 O   0  0  0  0  0  0  0  0  0  0  0  0
   11.8445    2.8500    1.7259 C   0  0  0  0  0  0  0  0  0  0  0  0
   10.4838    2.7145    1.7210 C   0  0  0  0  0  0  0  0  0  0  0  0
   -0.0015   -1.5990   -0.5225 C   0  0  0  0  0  0  0  0  0  0  0  0
   -0.1899   -0.8393   -1.5355 O   0  0  0  0  0  0  0  0  0  0  0  0
   -1.1588   -2.2140    0.0120 N   0  0  0  0  0  0  0  0  0  0  0  0
   -2.4710   -2.0130   -0.5378 C   0  0  1  0  0  0  0  0  0  0  0  0
   -3.3119   -3.2413   -0.6797 C   0  0  0  0  0  0  0  0  0  0  0  0
   -2.8232   -4.2862   -1.5728 C   0  0  0  0  0  0  0  0  0  0  0  0
   -3.2304   -4.4451   -2.9018 C   0  0  0  0  0  0  0  0  0  0  0  0
   -2.5764   -5.4605   -3.4144 N   0  0  0  0  0  0  0  0  0  0  0  0
   -1.7365   -6.0165   -2.5131 C   0  0  0  0  0  0  0  0  0  0  0  0
   -0.8657   -7.0846   -2.5811 C   0  0  0  0  0  0  0  0  0  0  0  0
   -0.1095   -7.4660   -1.4922 C   0  0  0  0  0  0  0  0  0  0  0  0
   -0.2558   -6.7402   -0.3293 C   0  0  0  0  0  0  0  0  0  0  0  0
   -1.1300   -5.6773   -0.2803 C   0  0  0  0  0  0  0  0  0  0  0  0
   -1.9050   -5.2602   -1.3481 C   0  0  0  0  0  0  0  0  0  0  0  0
   -3.1888   -0.9822    0.2716 C   0  0  0  0  0  0  0  0  0  0  0  0
   -2.9389   -0.9099    1.4926 O   0  0  0  0  0  0  0  0  0  0  0  0
   -4.1190   -0.1008   -0.3066 N   0  0  0  0  0  0  0  0  0  0  0  0
   -4.8584    0.9313    0.3473 C   0  0  1  0  0  0  0  0  0  0  0  0
   -4.1028    2.2626    0.2958 C   0  0  0  0  0  0  0  0  0  0  0  0
   -3.8316    2.7546   -1.0409 C   0  0  0  0  0  0  0  0  0  0  0  0
   -4.0830    2.1239   -2.2768 N   0  0  0  0  0  0  0  0  0  0  0  0
   -3.2931    3.9129   -1.1283 O   0  0  0  0  0  0  0  0  0  0  0  0
   -6.2360    1.0792   -0.1176 C   0  0  0  0  0  0  0  0  0  0  0  0
   -6.6809    0.3013   -0.9945 O   0  0  0  0  0  0  0  0  0  0  0  0
   -7.1357    2.0798    0.3662 N   0  0  0  0  0  0  0  0  0  0  0  0
   -8.4904    2.1972   -0.1420 C   0  0  1  0  0  0  0  0  0  0  0  0
   -9.5344    2.0703    0.9108 C   0  0  0  0  0  0  0  0  0  0  0  0
   -9.4582    3.0625    2.0022 C   0  0  0  0  0  0  0  0  0  0  0  0
  -10.1135    4.2712    2.0298 C   0  0  0  0  0  0  0  0  0  0  0  0
   -9.9536    5.1319    3.1013 C   0  0  0  0  0  0  0  0  0  0  0  0
   -9.1418    4.8028    4.1599 C   0  0  0  0  0  0  0  0  0  0  0  0
   -8.4846    3.5701    4.1163 C   0  0  0  0  0  0  0  0  0  0  0  0
   -8.6194    2.6956    3.0712 C   0  0  0  0  0  0  0  0  0  0  0  0
   -8.6127    3.5006   -0.8343 C   0  0  0  0  0  0  0  0  0  0  0  0
   -9.7768    3.8705   -1.5308 N   0  0  0  0  0  0  0  0  0  0  0  0
   -7.6468    4.3310   -0.8176 O   0  0  0  0  0  0  0  0  0  0  0  0
    3.1688   -4.5047    3.2796 H   0  0  0  0  0  0  0  0  0  0  0  0
    1.4277   -4.1992    3.0194 H   0  0  0  0  0  0  0  0  0  0  0  0
    2.3662   -2.9970    3.9835 H   0  0  0  0  0  0  0  0  0  0  0  0
    3.3268   -2.0626    1.9550 H   0  0  0  0  0  0  0  0  0  0  0  0
    2.4909   -4.4528    0.3281 H   0  0  0  0  0  0  0  0  0  0  0  0
    3.7797   -4.7762    1.5339 H   0  0  0  0  0  0  0  0  0  0  0  0
    4.1243   -3.5738    0.2642 H   0  0  0  0  0  0  0  0  0  0  0  0
    0.8273   -1.9780    2.0923 H   0  0  0  0  0  0  0  0  0  0  0  0
    0.7816   -3.4848    1.0986 H   0  0  0  0  0  0  0  0  0  0  0  0
    1.8915   -2.4657   -0.7358 H   0  0  0  0  0  0  0  0  0  0  0  0
    1.6727    0.2759    0.5805 H   0  0  0  0  0  0  0  0  0  0  0  0
    3.6672    1.5736    0.4716 H   0  0  0  0  0  0  0  0  0  0  0  0
    3.7469    2.9017   -1.6157 H   0  0  0  0  0  0  0  0  0  0  0  0
    2.4543    1.6320   -1.9014 H   0  0  0  0  0  0  0  0  0  0  0  0
    4.6469    1.9584   -3.5404 H   0  0  0  0  0  0  0  0  0  0  0  0
    3.9506    0.3249   -3.2228 H   0  0  0  0  0  0  0  0  0  0  0  0
    6.5251    1.5433   -2.3821 H   0  0  0  0  0  0  0  0  0  0  0  0
    5.9815   -0.1995   -2.2033 H   0  0  0  0  0  0  0  0  0  0  0  0
    8.2008    0.5795    1.2117 H   0  0  0  0  0  0  0  0  0  0  0  0
    9.3572    0.4723   -0.6902 H   0  0  0  0  0  0  0  0  0  0  0  0
    7.9699   -0.4011   -0.9233 H   0  0  0  0  0  0  0  0  0  0  0  0
    7.8797    3.1032    1.3754 H   0  0  0  0  0  0  0  0  0  0  0  0
    7.9560    3.1037   -0.4373 H   0  0  0  0  0  0  0  0  0  0  0  0
    9.9683    2.8497   -1.6300 H   0  0  0  0  0  0  0  0  0  0  0  0
   12.3517    3.0920   -1.6322 H   0  0  0  0  0  0  0  0  0  0  0  0
   14.4883    2.2769    0.4850 H   0  0  0  0  0  0  0  0  0  0  0  0
   12.4484    2.8628    2.6316 H   0  0  0  0  0  0  0  0  0  0  0  0
    9.9484    2.6073    2.6692 H   0  0  0  0  0  0  0  0  0  0  0  0
   -1.0500   -2.8171    0.8593 H   0  0  0  0  0  0  0  0  0  0  0  0
   -2.2860   -1.5824   -1.5715 H   0  0  0  0  0  0  0  0  0  0  0  0
   -4.3425   -2.9339   -1.0382 H   0  0  0  0  0  0  0  0  0  0  0  0
   -3.5308   -3.7005    0.3271 H   0  0  0  0  0  0  0  0  0  0  0  0
   -3.9671   -3.8237   -3.3997 H   0  0  0  0  0  0  0  0  0  0  0  0
   -2.6517   -5.8392   -4.3940 H   0  0  0  0  0  0  0  0  0  0  0  0
   -0.7596   -7.6448   -3.4926 H   0  0  0  0  0  0  0  0  0  0  0  0
    0.5668   -8.3156   -1.5867 H   0  0  0  0  0  0  0  0  0  0  0  0
    0.3425   -7.0479    0.5128 H   0  0  0  0  0  0  0  0  0  0  0  0
   -1.2409   -5.1386    0.6335 H   0  0  0  0  0  0  0  0  0  0  0  0
   -4.2667   -0.2516   -1.3613 H   0  0  0  0  0  0  0  0  0  0  0  0
   -4.8730    0.6992    1.4517 H   0  0  0  0  0  0  0  0  0  0  0  0
   -4.6365    3.0211    0.9093 H   0  0  0  0  0  0  0  0  0  0  0  0
   -3.1430    2.0769    0.8316 H   0  0  0  0  0  0  0  0  0  0  0  0
   -4.9769    2.2810   -2.7434 H   0  0  0  0  0  0  0  0  0  0  0  0
   -3.3504    1.5111   -2.6930 H   0  0  0  0  0  0  0  0  0  0  0  0
   -6.8449    2.7624    1.1014 H   0  0  0  0  0  0  0  0  0  0  0  0
   -8.7016    1.4265   -0.9155 H   0  0  0  0  0  0  0  0  0  0  0  0
   -9.5020    1.0334    1.3491 H   0  0  0  0  0  0  0  0  0  0  0  0
  -10.5272    2.1686    0.3763 H   0  0  0  0  0  0  0  0  0  0  0  0
  -10.7657    4.5274    1.2031 H   0  0  0  0  0  0  0  0  0  0  0  0
  -10.4900    6.0940    3.0893 H   0  0  0  0  0  0  0  0  0  0  0  0
   -9.0197    5.4675    4.9899 H   0  0  0  0  0  0  0  0  0  0  0  0
   -7.8476    3.3201    4.9612 H   0  0  0  0  0  0  0  0  0  0  0  0
   -8.0968    1.7328    3.0512 H   0  0  0  0  0  0  0  0  0  0  0  0
  -10.3165    4.7177   -1.2583 H   0  0  0  0  0  0  0  0  0  0  0  0
  -10.1125    3.2897   -2.3352 H   0  0  0  0  0  0  0  0  0  0  0  0
  1  2  1  0
  2  3  1  0
  2  4  1  0
  4  5  1  0
  5  6  1  0
  6  7  1  0
  7  8  2  0
  7  9  1  0
  9 10  1  0
 10 11  1  0
 11 12  1  0
 12 13  1  0
 13 14  1  0
 14 15  2  0
 14 16  1  0
 16 17  1  0
 16 18  1  0
 18 19  1  0
 19 20  2  0
 20 21  1  0
 21 22  2  0
 22 23  1  0
 22 24  1  0
 24 25  2  0
  5 26  1  0
 26 27  2  0
 26 28  1  0
 28 29  1  0
 29 30  1  0
 30 31  1  0
 31 32  2  0
 32 33  1  0
 33 34  1  0
 34 35  2  0
 35 36  1  0
 36 37  2  0
 37 38  1  0
 38 39  2  0
 29 40  1  0
 40 41  2  0
 40 42  1  0
 42 43  1  0
 43 44  1  0
 44 45  1  0
 45 46  1  0
 45 47  2  0
 43 48  1  0
 48 49  2  0
 48 50  1  0
 50 51  1  0
 51 52  1  0
 52 53  1  0
 53 54  2  0
 54 55  1  0
 55 56  2  0
 56 57  1  0
 57 58  2  0
 51 59  1  0
 59 60  1  0
 59 61  2  0
 13  9  1  0
 25 19  1  0
 39 31  1  0
 58 53  1  0
 39 34  1  0
  1 62  1  0
  1 63  1  0
  1 64  1  0
  2 65  1  0
  3 66  1  0
  3 67  1  0
  3 68  1  0
  4 69  1  0
  4 70  1  0
  5 71  1  6
  6 72  1  0
  9 73  1  1
 10 74  1  0
 10 75  1  0
 11 76  1  0
 11 77  1  0
 12 78  1  0
 12 79  1  0
 16 80  1  1
 17 81  1  0
 17 82  1  0
 18 83  1  0
 18 84  1  0
 20 85  1  0
 21 86  1  0
 23 87  1  0
 24 88  1  0
 25 89  1  0
 28 90  1  0
 29 91  1  6
 30 92  1  0
 30 93  1  0
 32 94  1  0
 33 95  1  0
 35 96  1  0
 36 97  1  0
 37 98  1  0
 38 99  1  0
 42100  1  0
 43101  1  1
 44102  1  0
 44103  1  0
 46104  1  0
 46105  1  0
 50106  1  0
 51107  1  6
 52108  1  0
 52109  1  0
 54110  1  0
 55111  1  0
 56112  1  0
 57113  1  0
 58114  1  0
 60115  1  0
 60116  1  0
M  END
$$$$
[H]Oc1c([H])c(C([H])([H])[H])c2c(oc(=O)c3c(O[H])c([H])c(OC([H])([H])[H])c([H])c32)c1O[H]
     RDKit          3D

 33 35  0  0  0  0  0  0  0  0999 V2000
    3.9081   -1.4397   -0.4085 C   0  0  0  0  0  0  0  0  0  0  0  0
    3.8448   -0.0424   -0.2785 O   0  0  0  0  0  0  0  0  0  0  0  0
    2.6523    0.6233   -0.1303 C   0  0  0  0  0  0  0  0  0  0  0  0
    2.6105    1.9874   -0.0049 C   0  0  0  0  0  0  0  0  0  0  0  0
    1.4370    2.6660    0.1428 C   0  0  0  0  0  0  0  0  0  0  0  0
    1.3731    4.0551    0.2718 O   0  0  0  0  0  0  0  0  0  0  0  0
    0.2682    1.9415    0.1647 C   0  0  0  0  0  0  0  0  0  0  0  0
    0.2805    0.5484    0.0395 C   0  0  0  0  0  0  0  0  0  0  0  0
    1.4558   -0.1263   -0.1089 C   0  0  0  0  0  0  0  0  0  0  0  0
   -0.9249   -0.1348    0.0620 C   0  0  0  0  0  0  0  0  0  0  0  0
   -0.9599   -1.4952   -0.0541 C   0  0  0  0  0  0  0  0  0  0  0  0
    0.1738   -2.3777   -0.1851 C   0  0  0  0  0  0  0  0  0  0  0  0
   -2.2594   -2.0742   -0.0181 C   0  0  0  0  0  0  0  0  0  0  0  0
   -3.4034   -1.3403    0.1230 C   0  0  0  0  0  0  0  0  0  0  0  0
   -4.6452   -1.9473    0.1526 O   0  0  0  0  0  0  0  0  0  0  0  0
   -3.3156    0.0109    0.2360 C   0  0  0  0  0  0  0  0  0  0  0  0
   -4.4509    0.7932    0.3813 O   0  0  0  0  0  0  0  0  0  0  0  0
   -2.0864    0.6288    0.2076 C   0  0  0  0  0  0  0  0  0  0  0  0
   -2.0471    1.9427    0.3214 O   0  0  0  0  0  0  0  0  0  0  0  0
   -0.9422    2.6147    0.3066 C   0  0  0  0  0  0  0  0  0  0  0  0
   -0.9260    3.8544    0.4160 O   0  0  0  0  0  0  0  0  0  0  0  0
    3.3644   -1.9641    0.4174 H   0  0  0  0  0  0  0  0  0  0  0  0
    4.9476   -1.8210   -0.3623 H   0  0  0  0  0  0  0  0  0  0  0  0
    3.4139   -1.7501   -1.3534 H   0  0  0  0  0  0  0  0  0  0  0  0
    3.5185    2.5673   -0.0196 H   0  0  0  0  0  0  0  0  0  0  0  0
    2.1633    4.6553    0.2669 H   0  0  0  0  0  0  0  0  0  0  0  0
    1.6154   -1.1341   -0.2232 H   0  0  0  0  0  0  0  0  0  0  0  0
    0.6370   -2.5039   -1.1871 H   0  0  0  0  0  0  0  0  0  0  0  0
    0.7987   -2.5834    0.7157 H   0  0  0  0  0  0  0  0  0  0  0  0
   -0.2937   -3.4423   -0.1810 H   0  0  0  0  0  0  0  0  0  0  0  0
   -2.3326   -3.1543   -0.1094 H   0  0  0  0  0  0  0  0  0  0  0  0
   -5.4554   -1.3586    0.2585 H   0  0  0  0  0  0  0  0  0  0  0  0
   -4.4204    1.8005    0.4679 H   0  0  0  0  0  0  0  0  0  0  0  0
  1  2  1  0
  2  3  1  0
  3  4  2  0
  4  5  1  0
  5  6  1  0
  5  7  2  0
  7  8  1  0
  8  9  2  0
  8 10  1  0
 10 11  2  0
 11 12  1  0
 11 13  1  0
 13 14  2  0
 14 15  1  0
 14 16  1  0
 16 17  1  0
 16 18  2  0
 18 19  1  0
 19 20  1  0
 20 21  2  0
  9  3  1  0
 18 10  1  0
 20  7  1  0
  1 22  1  0
  1 23  1  0
  1 24  1  0
  4 25  1  0
  6 26  1  0
  9 27  1  0
 12 28  1  0
 12 29  1  0
 12 30  1  0
 13 31  1  0
 15 32  1  0
 17 33  1  0
M  END
$$$$
[H]ON([H])C(=O)[C@@]([H])(N([H])[H])[C@]([H])(C(=O)N([H])[C@]([H])(C(=O)N([H])C([H])([H])[H])C(C([H])([H])[H])(C([H])([H])[H])C([H])([H])[H])C([H])([H])C([H])(C([H])([H])[H])C([H])([H])[H]
     RDKit          3D

 53 52  0  0  0  0  0  0  0  0999 V2000
    3.5502   -2.8918   -2.4708 C   0  0  0  0  0  0  0  0  0  0  0  0
    2.7277   -2.5159   -1.4291 N   0  0  0  0  0  0  0  0  0  0  0  0
    1.9160   -2.1450   -0.4011 C   0  0  0  0  0  0  0  0  0  0  0  0
    1.1979   -2.9025    0.2810 O   0  0  0  0  0  0  0  0  0  0  0  0
    1.7976   -0.6869    0.0382 C   0  0  1  0  0  0  0  0  0  0  0  0
    0.4564   -0.4015    0.4555 N   0  0  0  0  0  0  0  0  0  0  0  0
   -0.2642    0.6332   -0.1479 C   0  0  0  0  0  0  0  0  0  0  0  0
    0.3748    1.2634   -1.0854 O   0  0  0  0  0  0  0  0  0  0  0  0
   -1.6034    1.1326    0.0889 C   0  0  2  0  0  0  0  0  0  0  0  0
   -2.6870    0.5242   -0.6683 C   0  0  0  0  0  0  0  0  0  0  0  0
   -3.0290   -0.9140   -0.5706 C   0  0  0  0  0  0  0  0  0  0  0  0
   -2.0092   -1.9218   -0.9746 C   0  0  0  0  0  0  0  0  0  0  0  0
   -4.2849   -1.1935   -1.4406 C   0  0  0  0  0  0  0  0  0  0  0  0
   -1.5156    2.6623   -0.1176 C   0  0  2  0  0  0  0  0  0  0  0  0
   -0.5698    3.1462    0.8771 N   0  0  0  0  0  0  0  0  0  0  0  0
   -2.7864    3.3563   -0.0642 C   0  0  0  0  0  0  0  0  0  0  0  0
   -3.6260    3.3481   -1.0340 O   0  0  0  0  0  0  0  0  0  0  0  0
   -3.1719    4.0872    1.0783 N   0  0  0  0  0  0  0  0  0  0  0  0
   -4.3409    4.7487    1.1738 O   0  0  0  0  0  0  0  0  0  0  0  0
    2.8145   -0.4618    1.1582 C   0  0  0  0  0  0  0  0  0  0  0  0
    2.7545    0.9552    1.6676 C   0  0  0  0  0  0  0  0  0  0  0  0
    4.2319   -0.6265    0.5910 C   0  0  0  0  0  0  0  0  0  0  0  0
    2.6712   -1.4419    2.2831 C   0  0  0  0  0  0  0  0  0  0  0  0
    4.2525   -3.7242   -2.1854 H   0  0  0  0  0  0  0  0  0  0  0  0
    3.0175   -3.2462   -3.4080 H   0  0  0  0  0  0  0  0  0  0  0  0
    4.2165   -2.0109   -2.7797 H   0  0  0  0  0  0  0  0  0  0  0  0
    2.2960   -3.8190   -1.3462 H   0  0  0  0  0  0  0  0  0  0  0  0
    2.0663   -0.0469   -0.8378 H   0  0  0  0  0  0  0  0  0  0  0  0
    0.0213   -0.9613    1.2062 H   0  0  0  0  0  0  0  0  0  0  0  0
   -1.8707    1.0447    1.2096 H   0  0  0  0  0  0  0  0  0  0  0  0
   -3.6930    1.0530   -0.4890 H   0  0  0  0  0  0  0  0  0  0  0  0
   -2.5855    0.7213   -1.8008 H   0  0  0  0  0  0  0  0  0  0  0  0
   -3.3571   -1.1993    0.4746 H   0  0  0  0  0  0  0  0  0  0  0  0
   -1.5731   -2.4648   -0.0971 H   0  0  0  0  0  0  0  0  0  0  0  0
   -2.5447   -2.7619   -1.5302 H   0  0  0  0  0  0  0  0  0  0  0  0
   -1.2663   -1.5735   -1.6977 H   0  0  0  0  0  0  0  0  0  0  0  0
   -4.5682   -2.2566   -1.3541 H   0  0  0  0  0  0  0  0  0  0  0  0
   -3.9812   -1.0018   -2.4932 H   0  0  0  0  0  0  0  0  0  0  0  0
   -5.1293   -0.5756   -1.1419 H   0  0  0  0  0  0  0  0  0  0  0  0
   -1.0440    2.8767   -1.1020 H   0  0  0  0  0  0  0  0  0  0  0  0
   -0.6987    4.1608    1.0784 H   0  0  0  0  0  0  0  0  0  0  0  0
   -0.5540    2.5267    1.6928 H   0  0  0  0  0  0  0  0  0  0  0  0
   -2.5426    4.1265    1.8954 H   0  0  0  0  0  0  0  0  0  0  0  0
   -5.0437    4.3674    0.6059 H   0  0  0  0  0  0  0  0  0  0  0  0
    3.4974    1.5995    1.1484 H   0  0  0  0  0  0  0  0  0  0  0  0
    1.7402    1.3699    1.5827 H   0  0  0  0  0  0  0  0  0  0  0  0
    3.0302    0.9597    2.7510 H   0  0  0  0  0  0  0  0  0  0  0  0
    4.9165   -0.1894    1.3597 H   0  0  0  0  0  0  0  0  0  0  0  0
    4.2927   -0.0501   -0.3632 H   0  0  0  0  0  0  0  0  0  0  0  0
    4.4776   -1.6982    0.4777 H   0  0  0  0  0  0  0  0  0  0  0  0
    2.8861   -2.4792    1.9974 H   0  0  0  0  0  0  0  0  0  0  0  0
    1.6942   -1.3540    2.8044 H   0  0  0  0  0  0  0  0  0  0  0  0
    3.4423   -1.1475    3.0536 H   0  0  0  0  0  0  0  0  0  0  0  0
  1  2  1  0
  2  3  1  0
  3  4  2  0
  3  5  1  0
  5  6  1  0
  6  7  1  0
  7  8  2  0
  7  9  1  0
  9 10  1  0
 10 11  1  0
 11 12  1  0
 11 13  1  0
  9 14  1  0
 14 15  1  0
 14 16  1  0
 16 17  2  0
 16 18  1  0
 18 19  1  0
  5 20  1  0
 20 21  1  0
 20 22  1  0
 20 23  1  0
  1 24  1  0
  1 25  1  0
  1 26  1  0
  2 27  1  0
  5 28  1  6
  6 29  1  0
  9 30  1  1
 10 31  1  0
 10 32  1  0
 11 33  1  0
 12 34  1  0
 12 35  1  0
 12 36  1  0
 13 37  1  0
 13 38  1  0
 13 39  1  0
 14 40  1  6
 15 41  1  0
 15 42  1  0
 18 43  1  0
 19 44  1  0
 21 45  1  0
 21 46  1  0
 21 47  1  0
 22 48  1  0
 22 49  1  0
 22 50  1  0
 23 51  1  0
 23 52  1  0
 23 53  1  0
M  END
$$$$
[H]N=C(N([H])[H])N([H])C([H])([H])C([H])([H])C([H])([H])[C@@]([H])(C(=O)c1nc([H])c([H])s1)N([H])C(=O)[C@@]([H])(N([H])C(=O)[C@@]([H])(N([H])C(=O)C([H])([H])[H])C([H])([H])C([H])([H])C(=O)N([H])[H])C([H])([H])C([H])(C([H])([H])[H])C([H])([H])[H]
     RDKit          3D

 72 72  0  0  0  0  0  0  0  0999 V2000
    0.5129   -2.6647   -2.4349 C   0  0  0  0  0  0  0  0  0  0  0  0
   -0.6135   -3.1259   -1.5914 C   0  0  0  0  0  0  0  0  0  0  0  0
   -0.4159   -4.6459   -1.4262 C   0  0  0  0  0  0  0  0  0  0  0  0
   -0.7149   -2.5729   -0.2353 C   0  0  0  0  0  0  0  0  0  0  0  0
   -0.8604   -1.1178   -0.0534 C   0  0  2  0  0  0  0  0  0  0  0  0
   -2.0342   -0.5213   -0.6687 N   0  0  0  0  0  0  0  0  0  0  0  0
   -3.0796    0.0090    0.0784 C   0  0  0  0  0  0  0  0  0  0  0  0
   -3.0235   -0.0378    1.3471 O   0  0  0  0  0  0  0  0  0  0  0  0
   -4.2974    0.6503   -0.4990 C   0  0  2  0  0  0  0  0  0  0  0  0
   -4.0960    2.1389   -0.6012 C   0  0  0  0  0  0  0  0  0  0  0  0
   -5.2335    2.9257   -1.1575 C   0  0  0  0  0  0  0  0  0  0  0  0
   -5.5882    2.6127   -2.5481 C   0  0  0  0  0  0  0  0  0  0  0  0
   -6.7049    3.2492   -3.1939 N   0  0  0  0  0  0  0  0  0  0  0  0
   -4.9532    1.7941   -3.2343 O   0  0  0  0  0  0  0  0  0  0  0  0
   -5.4263    0.4107    0.4320 N   0  0  0  0  0  0  0  0  0  0  0  0
   -6.5903   -0.2778    0.0145 C   0  0  0  0  0  0  0  0  0  0  0  0
   -7.6909   -0.5072    0.9540 C   0  0  0  0  0  0  0  0  0  0  0  0
   -6.6629   -0.6868   -1.1698 O   0  0  0  0  0  0  0  0  0  0  0  0
    0.3578   -0.3461   -0.3315 C   0  0  0  0  0  0  0  0  0  0  0  0
    0.3409    0.5962   -1.1525 O   0  0  0  0  0  0  0  0  0  0  0  0
    1.5520   -0.6611    0.3364 N   0  0  0  0  0  0  0  0  0  0  0  0
    2.8218    0.1336    0.0883 C   0  0  1  0  0  0  0  0  0  0  0  0
    2.6728    1.3327    0.9860 C   0  0  0  0  0  0  0  0  0  0  0  0
    3.6290    2.3849    1.1104 C   0  0  0  0  0  0  0  0  0  0  0  0
    4.9747    2.3515    1.6756 C   0  0  0  0  0  0  0  0  0  0  0  0
    5.1953    2.0228    3.0291 N   0  0  0  0  0  0  0  0  0  0  0  0
    5.0953    0.7897    3.6855 C   0  0  0  0  0  0  0  0  0  0  0  0
    3.9192    0.3381    4.3400 N   0  0  0  0  0  0  0  0  0  0  0  0
    6.1027   -0.0449    3.7590 N   0  0  0  0  0  0  0  0  0  0  0  0
    3.9031   -0.7403    0.4309 C   0  0  0  0  0  0  0  0  0  0  0  0
    3.7171   -1.5949    1.3828 O   0  0  0  0  0  0  0  0  0  0  0  0
    5.2254   -0.8052   -0.1719 C   0  0  0  0  0  0  0  0  0  0  0  0
    5.7679   -0.1487   -1.1803 N   0  0  0  0  0  0  0  0  0  0  0  0
    7.0073   -0.3302   -1.4986 C   0  0  0  0  0  0  0  0  0  0  0  0
    7.7354   -1.2217   -0.7573 C   0  0  0  0  0  0  0  0  0  0  0  0
    6.5726   -1.7512    0.3636 S   0  0  0  0  0  0  0  0  0  0  0  0
    0.5867   -3.4177   -3.2837 H   0  0  0  0  0  0  0  0  0  0  0  0
    0.3752   -1.7074   -2.9437 H   0  0  0  0  0  0  0  0  0  0  0  0
    1.4680   -2.7716   -1.8869 H   0  0  0  0  0  0  0  0  0  0  0  0
   -1.6039   -3.0608   -2.1011 H   0  0  0  0  0  0  0  0  0  0  0  0
    0.6563   -4.7503   -1.1576 H   0  0  0  0  0  0  0  0  0  0  0  0
   -0.5467   -5.0632   -2.4570 H   0  0  0  0  0  0  0  0  0  0  0  0
   -1.1160   -5.0671   -0.7018 H   0  0  0  0  0  0  0  0  0  0  0  0
   -1.5949   -3.0603    0.2770 H   0  0  0  0  0  0  0  0  0  0  0  0
    0.1591   -2.8989    0.3771 H   0  0  0  0  0  0  0  0  0  0  0  0
   -1.0215   -0.9759    1.0710 H   0  0  0  0  0  0  0  0  0  0  0  0
   -2.0713   -0.5081   -1.7088 H   0  0  0  0  0  0  0  0  0  0  0  0
   -4.6042    0.2485   -1.4660 H   0  0  0  0  0  0  0  0  0  0  0  0
   -3.9522    2.5108    0.4675 H   0  0  0  0  0  0  0  0  0  0  0  0
   -3.1537    2.3964   -1.1395 H   0  0  0  0  0  0  0  0  0  0  0  0
   -6.1614    2.6763   -0.5475 H   0  0  0  0  0  0  0  0  0  0  0  0
   -5.0910    4.0221   -0.9834 H   0  0  0  0  0  0  0  0  0  0  0  0
   -7.1715    2.8067   -4.0051 H   0  0  0  0  0  0  0  0  0  0  0  0
   -7.0658    4.1670   -2.8538 H   0  0  0  0  0  0  0  0  0  0  0  0
   -5.3536    0.7592    1.3989 H   0  0  0  0  0  0  0  0  0  0  0  0
   -8.6048   -0.8537    0.4053 H   0  0  0  0  0  0  0  0  0  0  0  0
   -7.4300   -1.2717    1.7335 H   0  0  0  0  0  0  0  0  0  0  0  0
   -8.0005    0.4135    1.4893 H   0  0  0  0  0  0  0  0  0  0  0  0
    1.5890   -1.4433    1.0139 H   0  0  0  0  0  0  0  0  0  0  0  0
    2.7880    0.4922   -0.9568 H   0  0  0  0  0  0  0  0  0  0  0  0
    2.3121    1.0010    2.0043 H   0  0  0  0  0  0  0  0  0  0  0  0
    1.7102    1.8381    0.5203 H   0  0  0  0  0  0  0  0  0  0  0  0
    3.7794    2.9128    0.0614 H   0  0  0  0  0  0  0  0  0  0  0  0
    3.1099    3.2851    1.6347 H   0  0  0  0  0  0  0  0  0  0  0  0
    5.7795    1.8872    1.0379 H   0  0  0  0  0  0  0  0  0  0  0  0
    5.3409    3.4658    1.5981 H   0  0  0  0  0  0  0  0  0  0  0  0
    5.4868    2.8287    3.7103 H   0  0  0  0  0  0  0  0  0  0  0  0
    3.4282    0.9352    5.0229 H   0  0  0  0  0  0  0  0  0  0  0  0
    3.5456   -0.6179    4.1285 H   0  0  0  0  0  0  0  0  0  0  0  0
    7.0135    0.1669    3.3420 H   0  0  0  0  0  0  0  0  0  0  0  0
    7.4959    0.2138   -2.3308 H   0  0  0  0  0  0  0  0  0  0  0  0
    8.8013   -1.4972   -0.8787 H   0  0  0  0  0  0  0  0  0  0  0  0
  1  2  1  0
  2  3  1  0
  2  4  1  0
  4  5  1  0
  5  6  1  0
  6  7  1  0
  7  8  2  0
  7  9  1  0
  9 10  1  0
 10 11  1  0
 11 12  1  0
 12 13  1  0
 12 14  2  0
  9 15  1  0
 15 16  1  0
 16 17  1  0
 16 18  2  0
  5 19  1  0
 19 20  2  0
 19 21  1  0
 21 22  1  0
 22 23  1  0
 23 24  1  0
 24 25  1  0
 25 26  1  0
 26 27  1  0
 27 28  1  0
 27 29  2  3
 22 30  1  0
 30 31  2  0
 30 32  1  0
 32 33  2  0
 33 34  1  0
 34 35  2  0
 35 36  1  0
 36 32  1  0
  1 37  1  0
  1 38  1  0
  1 39  1  0
  2 40  1  0
  3 41  1  0
  3 42  1  0
  3 43  1  0
  4 44  1  0
  4 45  1  0
  5 46  1  1
  6 47  1  0
  9 48  1  6
 10 49  1  0
 10 50  1  0
 11 51  1  0
 11 52  1  0
 13 53  1  0
 13 54  1  0
 15 55  1  0
 17 56  1  0
 17 57  1  0
 17 58  1  0
 21 59  1  0
 22 60  1  6
 23 61  1  0
 23 62  1  0
 24 63  1  0
 24 64  1  0
 25 65  1  0
 25 66  1  0
 26 67  1  0
 28 68  1  0
 28 69  1  0
 29 70  1  0
 34 71  1  0
 35 72  1  0
M  END
$$$$
[H]c1nc([H])c(-c2nnc(N3C([H])([H])[C@@]4([H])N(C([H])([H])[H])C([H])([H])[C@]3([H])C4([H])[H])c([H])c2[H])c([H])c1[H]
     RDKit          3D

 37 40  0  0  0  0  0  0  0  0999 V2000
   -5.5002   -0.1376    0.0871 C   0  0  0  0  0  0  0  0  0  0  0  0
   -4.2280   -0.8290    0.0739 N   0  0  0  0  0  0  0  0  0  0  0  0
   -3.3403   -0.0999    0.9667 C   0  0  0  0  0  0  0  0  0  0  0  0
   -2.4072    0.7089    0.0977 C   0  0  2  0  0  0  0  0  0  0  0  0
   -3.2961    0.8508   -1.1544 C   0  0  0  0  0  0  0  0  0  0  0  0
   -3.6066   -0.6577   -1.2107 C   0  0  1  0  0  0  0  0  0  0  0  0
   -2.1793   -1.1938   -1.1799 C   0  0  0  0  0  0  0  0  0  0  0  0
   -1.4230   -0.2069   -0.4160 N   0  0  0  0  0  0  0  0  0  0  0  0
   -0.0343   -0.1264   -0.1990 C   0  0  0  0  0  0  0  0  0  0  0  0
    0.4841    0.8793    0.5725 C   0  0  0  0  0  0  0  0  0  0  0  0
    1.8644    0.9589    0.7872 C   0  0  0  0  0  0  0  0  0  0  0  0
    2.7167    0.0402    0.2345 C   0  0  0  0  0  0  0  0  0  0  0  0
    2.1383   -0.9371   -0.5238 N   0  0  0  0  0  0  0  0  0  0  0  0
    0.8399   -1.0133   -0.7267 N   0  0  0  0  0  0  0  0  0  0  0  0
    4.1613    0.0725    0.4230 C   0  0  0  0  0  0  0  0  0  0  0  0
    4.9549   -0.9104   -0.1819 C   0  0  0  0  0  0  0  0  0  0  0  0
    6.3232   -0.9074   -0.0228 C   0  0  0  0  0  0  0  0  0  0  0  0
    6.9557    0.0567    0.7323 C   0  0  0  0  0  0  0  0  0  0  0  0
    6.1860    0.9940    1.3076 N   0  0  0  0  0  0  0  0  0  0  0  0
    4.8263    1.0128    1.1650 C   0  0  0  0  0  0  0  0  0  0  0  0
   -6.1655   -0.7258    0.7788 H   0  0  0  0  0  0  0  0  0  0  0  0
   -5.4304    0.8735    0.5573 H   0  0  0  0  0  0  0  0  0  0  0  0
   -5.9399   -0.0118   -0.9103 H   0  0  0  0  0  0  0  0  0  0  0  0
   -2.7195   -0.8856    1.4763 H   0  0  0  0  0  0  0  0  0  0  0  0
   -3.8660    0.4793    1.7214 H   0  0  0  0  0  0  0  0  0  0  0  0
   -2.0803    1.6370    0.4948 H   0  0  0  0  0  0  0  0  0  0  0  0
   -4.1851    1.4433   -0.9565 H   0  0  0  0  0  0  0  0  0  0  0  0
   -2.7050    1.1312   -2.0248 H   0  0  0  0  0  0  0  0  0  0  0  0
   -4.1762   -0.9452   -2.0671 H   0  0  0  0  0  0  0  0  0  0  0  0
   -1.7899   -1.3215   -2.2049 H   0  0  0  0  0  0  0  0  0  0  0  0
   -2.1562   -2.1809   -0.6734 H   0  0  0  0  0  0  0  0  0  0  0  0
   -0.1347    1.6475    1.0460 H   0  0  0  0  0  0  0  0  0  0  0  0
    2.2628    1.7675    1.4053 H   0  0  0  0  0  0  0  0  0  0  0  0
    4.4374   -1.6611   -0.7727 H   0  0  0  0  0  0  0  0  0  0  0  0
    6.9412   -1.6658   -0.4889 H   0  0  0  0  0  0  0  0  0  0  0  0
    8.0323    0.0718    0.8664 H   0  0  0  0  0  0  0  0  0  0  0  0
    4.2395    1.7923    1.6496 H   0  0  0  0  0  0  0  0  0  0  0  0
  1  2  1  0
  2  3  1  0
  3  4  1  0
  4  5  1  0
  5  6  1  0
  6  7  1  0
  7  8  1  0
  8  9  1  0
  9 10  2  0
 10 11  1  0
 11 12  2  0
 12 13  1  0
 13 14  2  0
 12 15  1  0
 15 16  2  0
 16 17  1  0
 17 18  2  0
 18 19  1  0
 19 20  2  0
  6  2  1  0
 14  9  1  0
 20 15  1  0
  8  4  1  0
  1 21  1  0
  1 22  1  0
  1 23  1  0
  3 24  1  0
  3 25  1  0
  4 26  1  1
  5 27  1  0
  5 28  1  0
  6 29  1  6
  7 30  1  0
  7 31  1  0
 10 32  1  0
 11 33  1  0
 16 34  1  0
 17 35  1  0
 18 36  1  0
 20 37  1  0
M  END
$$$$
[H]c1c([H])c([H])c(C([H])([H])[C@@]([H])(C(=O)N2C([H])([H])C([H])([H])C([H])([H])[C@@]2([H])C(=O)N([H])[C@]([H])(C(=O)N([H])[H])C([H])([H])c2c([H])n([H])c3c([H])c([H])c([H])c([H])c23)N([H])C(=O)OC(C([H])([H])[H])(C([H])([H])[H])C([H])([H])[H])c([H])c1[H]
     RDKit          3D

 77 80  0  0  0  0  0  0  0  0999 V2000
   -5.9628   -2.2374    3.1839 C   0  0  0  0  0  0  0  0  0  0  0  0
   -6.2360   -0.7861    2.8605 C   0  0  0  0  0  0  0  0  0  0  0  0
   -6.6943   -0.1180    4.1498 C   0  0  0  0  0  0  0  0  0  0  0  0
   -7.3879   -0.7213    1.9104 C   0  0  0  0  0  0  0  0  0  0  0  0
   -5.0502   -0.2215    2.3746 O   0  0  0  0  0  0  0  0  0  0  0  0
   -4.3551   -0.6136    1.2713 C   0  0  0  0  0  0  0  0  0  0  0  0
   -4.7982   -1.5783    0.6019 O   0  0  0  0  0  0  0  0  0  0  0  0
   -3.1647    0.0423    0.8782 N   0  0  0  0  0  0  0  0  0  0  0  0
   -2.3887   -0.3319   -0.2876 C   0  0  1  0  0  0  0  0  0  0  0  0
   -2.5541    0.7321   -1.3674 C   0  0  0  0  0  0  0  0  0  0  0  0
   -2.1469    2.0644   -0.9347 C   0  0  0  0  0  0  0  0  0  0  0  0
   -3.1075    2.8839   -0.3600 C   0  0  0  0  0  0  0  0  0  0  0  0
   -2.8422    4.1467    0.0795 C   0  0  0  0  0  0  0  0  0  0  0  0
   -1.5729    4.6540   -0.0412 C   0  0  0  0  0  0  0  0  0  0  0  0
   -0.5956    3.8694   -0.6064 C   0  0  0  0  0  0  0  0  0  0  0  0
   -0.8893    2.5978   -1.0422 C   0  0  0  0  0  0  0  0  0  0  0  0
   -0.9932   -0.6830    0.0022 C   0  0  0  0  0  0  0  0  0  0  0  0
   -0.5774   -0.4401    1.1876 O   0  0  0  0  0  0  0  0  0  0  0  0
   -0.1144   -1.2665   -0.9474 N   0  0  0  0  0  0  0  0  0  0  0  0
   -0.4292   -1.6228   -2.3017 C   0  0  0  0  0  0  0  0  0  0  0  0
    0.3721   -2.8885   -2.5238 C   0  0  0  0  0  0  0  0  0  0  0  0
    1.2320   -3.0813   -1.2920 C   0  0  0  0  0  0  0  0  0  0  0  0
    1.2597   -1.6391   -0.7488 C   0  0  1  0  0  0  0  0  0  0  0  0
    2.2251   -0.9153   -1.5778 C   0  0  0  0  0  0  0  0  0  0  0  0
    1.8590    0.0630   -2.2631 O   0  0  0  0  0  0  0  0  0  0  0  0
    3.5824   -1.3202   -1.6120 N   0  0  0  0  0  0  0  0  0  0  0  0
    4.5982   -0.7029   -2.3801 C   0  0  1  0  0  0  0  0  0  0  0  0
    5.7723   -0.1986   -1.6003 C   0  0  0  0  0  0  0  0  0  0  0  0
    5.4017    0.8130   -0.6077 C   0  0  0  0  0  0  0  0  0  0  0  0
    5.4576    2.1938   -0.8230 C   0  0  0  0  0  0  0  0  0  0  0  0
    5.0176    2.8098    0.2779 N   0  0  0  0  0  0  0  0  0  0  0  0
    4.6704    1.8993    1.2199 C   0  0  0  0  0  0  0  0  0  0  0  0
    4.1812    2.0462    2.5056 C   0  0  0  0  0  0  0  0  0  0  0  0
    3.9171    0.9455    3.2840 C   0  0  0  0  0  0  0  0  0  0  0  0
    4.1564   -0.2914    2.7400 C   0  0  0  0  0  0  0  0  0  0  0  0
    4.6419   -0.4310    1.4623 C   0  0  0  0  0  0  0  0  0  0  0  0
    4.9121    0.6561    0.6650 C   0  0  0  0  0  0  0  0  0  0  0  0
    5.1413   -1.5950   -3.4482 C   0  0  0  0  0  0  0  0  0  0  0  0
    6.1497   -1.2274   -4.3404 N   0  0  0  0  0  0  0  0  0  0  0  0
    4.6402   -2.7554   -3.5325 O   0  0  0  0  0  0  0  0  0  0  0  0
   -6.0540   -2.8681    2.2839 H   0  0  0  0  0  0  0  0  0  0  0  0
   -5.0265   -2.3815    3.7452 H   0  0  0  0  0  0  0  0  0  0  0  0
   -6.7964   -2.5541    3.8692 H   0  0  0  0  0  0  0  0  0  0  0  0
   -7.1181    0.8983    3.9349 H   0  0  0  0  0  0  0  0  0  0  0  0
   -7.5302   -0.7018    4.5861 H   0  0  0  0  0  0  0  0  0  0  0  0
   -5.8931   -0.0805    4.9062 H   0  0  0  0  0  0  0  0  0  0  0  0
   -7.9413   -1.6784    1.9719 H   0  0  0  0  0  0  0  0  0  0  0  0
   -8.1492    0.0615    2.2043 H   0  0  0  0  0  0  0  0  0  0  0  0
   -7.0821   -0.6155    0.8428 H   0  0  0  0  0  0  0  0  0  0  0  0
   -2.8238    0.8379    1.4533 H   0  0  0  0  0  0  0  0  0  0  0  0
   -2.8835   -1.2393   -0.7184 H   0  0  0  0  0  0  0  0  0  0  0  0
   -3.6525    0.7561   -1.6364 H   0  0  0  0  0  0  0  0  0  0  0  0
   -2.0430    0.4657   -2.2938 H   0  0  0  0  0  0  0  0  0  0  0  0
   -4.1310    2.5059   -0.2524 H   0  0  0  0  0  0  0  0  0  0  0  0
   -3.5995    4.7805    0.5287 H   0  0  0  0  0  0  0  0  0  0  0  0
   -1.3512    5.6724    0.3115 H   0  0  0  0  0  0  0  0  0  0  0  0
    0.4235    4.2706   -0.7089 H   0  0  0  0  0  0  0  0  0  0  0  0
   -0.0918    2.0166   -1.4798 H   0  0  0  0  0  0  0  0  0  0  0  0
   -1.5300   -1.8377   -2.4224 H   0  0  0  0  0  0  0  0  0  0  0  0
   -0.2034   -0.8496   -3.0485 H   0  0  0  0  0  0  0  0  0  0  0  0
    1.0273   -2.7125   -3.4044 H   0  0  0  0  0  0  0  0  0  0  0  0
   -0.2864   -3.7662   -2.6571 H   0  0  0  0  0  0  0  0  0  0  0  0
    0.6949   -3.6801   -0.5409 H   0  0  0  0  0  0  0  0  0  0  0  0
    2.2350   -3.4362   -1.5218 H   0  0  0  0  0  0  0  0  0  0  0  0
    1.5397   -1.6521    0.3303 H   0  0  0  0  0  0  0  0  0  0  0  0
    3.8669   -2.1528   -1.0236 H   0  0  0  0  0  0  0  0  0  0  0  0
    4.1161    0.1552   -2.9354 H   0  0  0  0  0  0  0  0  0  0  0  0
    6.5508    0.2604   -2.2644 H   0  0  0  0  0  0  0  0  0  0  0  0
    6.2960   -1.0207   -1.0522 H   0  0  0  0  0  0  0  0  0  0  0  0
    5.7975    2.6704   -1.7226 H   0  0  0  0  0  0  0  0  0  0  0  0
    4.9317    3.8412    0.4445 H   0  0  0  0  0  0  0  0  0  0  0  0
    3.9884    3.0389    2.9457 H   0  0  0  0  0  0  0  0  0  0  0  0
    3.5336    1.0158    4.2961 H   0  0  0  0  0  0  0  0  0  0  0  0
    3.9664   -1.2015    3.3151 H   0  0  0  0  0  0  0  0  0  0  0  0
    4.8304   -1.4147    1.0699 H   0  0  0  0  0  0  0  0  0  0  0  0
    7.0284   -1.7731   -4.4427 H   0  0  0  0  0  0  0  0  0  0  0  0
    6.0328   -0.3814   -4.9304 H   0  0  0  0  0  0  0  0  0  0  0  0
  1  2  1  0
  2  3  1  0
  2  4  1  0
  2  5  1  0
  5  6  1  0
  6  7  2  0
  6  8  1  0
  8  9  1  0
  9 10  1  0
 10 11  1  0
 11 12  2  0
 12 13  1  0
 13 14  2  0
 14 15  1  0
 15 16  2  0
  9 17  1  0
 17 18  2  0
 17 19  1  0
 19 20  1  0
 20 21  1  0
 21 22  1  0
 22 23  1  0
 23 24  1  0
 24 25  2  0
 24 26  1  0
 26 27  1  0
 27 28  1  0
 28 29  1  0
 29 30  2  0
 30 31  1  0
 31 32  1  0
 32 33  2  0
 33 34  1  0
 34 35  2  0
 35 36  1  0
 36 37  2  0
 27 38  1  0
 38 39  1  0
 38 40  2  0
 16 11  1  0
 23 19  1  0
 37 29  1  0
 37 32  1  0
  1 41  1  0
  1 42  1  0
  1 43  1  0
  3 44  1  0
  3 45  1  0
  3 46  1  0
  4 47  1  0
  4 48  1  0
  4 49  1  0
  8 50  1  0
  9 51  1  6
 10 52  1  0
 10 53  1  0
 12 54  1  0
 13 55  1  0
 14 56  1  0
 15 57  1  0
 16 58  1  0
 20 59  1  0
 20 60  1  0
 21 61  1  0
 21 62  1  0
 22 63  1  0
 22 64  1  0
 23 65  1  1
 26 66  1  0
 27 67  1  6
 28 68  1  0
 28 69  1  0
 30 70  1  0
 31 71  1  0
 33 72  1  0
 34 73  1  0
 35 74  1  0
 36 75  1  0
 39 76  1  0
 39 77  1  0
M  END
$$$$
[H]OC([H])([H])[C@@]1(O[H])C([H])([H])[C@@]2([H])O[C@]1(C([H])([H])[H])n1c3c([H])c([H])c([H])c([H])c3c3c4c(c5c6c([H])c([H])c([H])c([H])c6n2c5c31)C(=O)N([H])C4([H])[H]
     RDKit          3D

 54 61  0  0  0  0  0  0  0  0999 V2000
    3.1800    0.8838    1.3878 C   0  0  0  0  0  0  0  0  0  0  0  0
    2.1176    0.2237    0.5774 C   0  0  2  0  0  0  0  0  0  0  0  0
    1.6968   -0.7870    1.4854 O   0  0  0  0  0  0  0  0  0  0  0  0
    1.2511   -1.8639    0.7986 C   0  0  2  0  0  0  0  0  0  0  0  0
    2.0328   -1.9517   -0.4419 C   0  0  0  0  0  0  0  0  0  0  0  0
    2.6347   -0.5714   -0.5849 C   0  0  1  0  0  0  0  0  0  0  0  0
    2.2138   -0.0799   -1.8115 O   0  0  0  0  0  0  0  0  0  0  0  0
    4.1191   -0.7109   -0.6110 C   0  0  0  0  0  0  0  0  0  0  0  0
    4.4589   -1.5975   -1.6334 O   0  0  0  0  0  0  0  0  0  0  0  0
   -0.2014   -1.7853    0.5955 N   0  0  0  0  0  0  0  0  0  0  0  0
   -1.1044   -2.7499    0.6347 C   0  0  0  0  0  0  0  0  0  0  0  0
   -0.9179   -4.0868    0.8734 C   0  0  0  0  0  0  0  0  0  0  0  0
   -2.0299   -4.9199    0.8648 C   0  0  0  0  0  0  0  0  0  0  0  0
   -3.2823   -4.4161    0.6235 C   0  0  0  0  0  0  0  0  0  0  0  0
   -3.4758   -3.0511    0.3794 C   0  0  0  0  0  0  0  0  0  0  0  0
   -2.3768   -2.2421    0.3902 C   0  0  0  0  0  0  0  0  0  0  0  0
   -2.2053   -0.8905    0.1945 C   0  0  0  0  0  0  0  0  0  0  0  0
   -3.0670    0.1511   -0.0975 C   0  0  0  0  0  0  0  0  0  0  0  0
   -4.5001    0.2660   -0.2996 C   0  0  0  0  0  0  0  0  0  0  0  0
   -5.3884   -0.5871   -0.2658 O   0  0  0  0  0  0  0  0  0  0  0  0
   -4.7851    1.6416   -0.5724 N   0  0  0  0  0  0  0  0  0  0  0  0
   -3.5735    2.4248   -0.5610 C   0  0  0  0  0  0  0  0  0  0  0  0
   -2.5314    1.4168   -0.2472 C   0  0  0  0  0  0  0  0  0  0  0  0
   -1.1701    1.6669   -0.1133 C   0  0  0  0  0  0  0  0  0  0  0  0
   -0.3770    2.7657   -0.2198 C   0  0  0  0  0  0  0  0  0  0  0  0
   -0.7006    4.0705   -0.5126 C   0  0  0  0  0  0  0  0  0  0  0  0
    0.3203    5.0230   -0.5829 C   0  0  0  0  0  0  0  0  0  0  0  0
    1.6233    4.6180   -0.3553 C   0  0  0  0  0  0  0  0  0  0  0  0
    1.9232    3.2989   -0.0625 C   0  0  0  0  0  0  0  0  0  0  0  0
    0.9354    2.3466    0.0129 C   0  0  0  0  0  0  0  0  0  0  0  0
    0.9590    1.0103    0.2643 N   0  0  0  0  0  0  0  0  0  0  0  0
   -0.3578    0.6223    0.1746 C   0  0  0  0  0  0  0  0  0  0  0  0
   -0.8544   -0.6533    0.3299 C   0  0  0  0  0  0  0  0  0  0  0  0
    4.0624    1.2462    0.8471 H   0  0  0  0  0  0  0  0  0  0  0  0
    3.5596    0.1949    2.1815 H   0  0  0  0  0  0  0  0  0  0  0  0
    2.7312    1.7230    1.9466 H   0  0  0  0  0  0  0  0  0  0  0  0
    1.4219   -2.7643    1.4120 H   0  0  0  0  0  0  0  0  0  0  0  0
    1.4720   -2.2700   -1.3403 H   0  0  0  0  0  0  0  0  0  0  0  0
    2.8377   -2.7359   -0.3258 H   0  0  0  0  0  0  0  0  0  0  0  0
    2.8799   -0.3390   -2.4928 H   0  0  0  0  0  0  0  0  0  0  0  0
    4.5238   -1.1579    0.3296 H   0  0  0  0  0  0  0  0  0  0  0  0
    4.6358    0.2581   -0.8438 H   0  0  0  0  0  0  0  0  0  0  0  0
    4.7979   -2.4633   -1.2908 H   0  0  0  0  0  0  0  0  0  0  0  0
    0.0592   -4.4684    1.0598 H   0  0  0  0  0  0  0  0  0  0  0  0
   -1.8569   -5.9719    1.0560 H   0  0  0  0  0  0  0  0  0  0  0  0
   -4.1224   -5.0759    0.6219 H   0  0  0  0  0  0  0  0  0  0  0  0
   -4.4721   -2.7398    0.2018 H   0  0  0  0  0  0  0  0  0  0  0  0
   -5.7336    2.0654   -0.7610 H   0  0  0  0  0  0  0  0  0  0  0  0
   -3.6366    3.2333    0.1993 H   0  0  0  0  0  0  0  0  0  0  0  0
   -3.3846    2.8954   -1.5673 H   0  0  0  0  0  0  0  0  0  0  0  0
   -1.7294    4.3700   -0.6881 H   0  0  0  0  0  0  0  0  0  0  0  0
    0.0587    6.0490   -0.8135 H   0  0  0  0  0  0  0  0  0  0  0  0
    2.3774    5.3965   -0.4223 H   0  0  0  0  0  0  0  0  0  0  0  0
    2.9510    3.0689    0.0761 H   0  0  0  0  0  0  0  0  0  0  0  0
  2  1  1  1
  2  3  1  0
  3  4  1  0
  4  5  1  0
  5  6  1  0
  6  7  1  6
  6  8  1  0
  8  9  1  0
  4 10  1  0
 10 11  1  0
 11 12  2  0
 12 13  1  0
 13 14  2  0
 14 15  1  0
 15 16  2  0
 16 17  1  0
 17 18  2  0
 18 19  1  0
 19 20  2  0
 19 21  1  0
 21 22  1  0
 22 23  1  0
 23 24  2  0
 24 25  1  0
 25 26  2  0
 26 27  1  0
 27 28  2  0
 28 29  1  0
 29 30  2  0
 30 31  1  0
 31 32  1  0
 32 33  2  0
  6  2  1  0
 33 10  1  0
 31  2  1  0
 16 11  1  0
 33 17  1  0
 23 18  1  0
 32 24  1  0
 30 25  1  0
  1 34  1  0
  1 35  1  0
  1 36  1  0
  4 37  1  1
  5 38  1  0
  5 39  1  0
  7 40  1  0
  8 41  1  0
  8 42  1  0
  9 43  1  0
 12 44  1  0
 13 45  1  0
 14 46  1  0
 15 47  1  0
 21 48  1  0
 22 49  1  0
 22 50  1  0
 26 51  1  0
 27 52  1  0
 28 53  1  0
 29 54  1  0
M  END
$$$$
[H]c1c([H])c([H])c(OC([H])([H])c2c([H])c([H])c([H])c(N3C(N([H])[H])=NC(N([H])[H])=NC3(C([H])([H])[H])C([H])([H])[H])c2[H])c([H])c1[H]
     RDKit          3D

 45 47  0  0  0  0  0  0  0  0999 V2000
   -2.1164   -1.5522   -0.9954 C   0  0  0  0  0  0  0  0  0  0  0  0
   -2.6314   -1.1058    0.3917 C   0  0  0  0  0  0  0  0  0  0  0  0
   -1.8932   -1.9605    1.4195 C   0  0  0  0  0  0  0  0  0  0  0  0
   -4.0267   -1.3381    0.4035 N   0  0  0  0  0  0  0  0  0  0  0  0
   -4.9115   -0.4307    0.5351 C   0  0  0  0  0  0  0  0  0  0  0  0
   -6.2715   -0.8812    0.5203 N   0  0  0  0  0  0  0  0  0  0  0  0
   -4.5919    0.9497    0.6886 N   0  0  0  0  0  0  0  0  0  0  0  0
   -3.3347    1.2377    0.6871 C   0  0  0  0  0  0  0  0  0  0  0  0
   -2.8935    2.6007    0.8351 N   0  0  0  0  0  0  0  0  0  0  0  0
   -2.3106    0.2832    0.5461 N   0  0  0  0  0  0  0  0  0  0  0  0
   -0.9247    0.7207    0.5587 C   0  0  0  0  0  0  0  0  0  0  0  0
   -0.2479    0.7839    1.7532 C   0  0  0  0  0  0  0  0  0  0  0  0
    1.0547    1.1839    1.8530 C   0  0  0  0  0  0  0  0  0  0  0  0
    1.7308    1.5411    0.7228 C   0  0  0  0  0  0  0  0  0  0  0  0
    1.0856    1.4902   -0.4897 C   0  0  0  0  0  0  0  0  0  0  0  0
    1.8516    1.8858   -1.6981 C   0  0  0  0  0  0  0  0  0  0  0  0
    3.2028    1.6549   -1.4741 O   0  0  0  0  0  0  0  0  0  0  0  0
    3.8390    0.4792   -1.2059 C   0  0  0  0  0  0  0  0  0  0  0  0
    5.2185    0.5562   -1.0159 C   0  0  0  0  0  0  0  0  0  0  0  0
    5.9195   -0.5947   -0.7427 C   0  0  0  0  0  0  0  0  0  0  0  0
    5.3223   -1.8204   -0.6480 C   0  0  0  0  0  0  0  0  0  0  0  0
    3.9647   -1.8962   -0.8351 C   0  0  0  0  0  0  0  0  0  0  0  0
    3.2500   -0.7578   -1.1086 C   0  0  0  0  0  0  0  0  0  0  0  0
   -0.2508    1.0787   -0.5836 C   0  0  0  0  0  0  0  0  0  0  0  0
   -2.6733   -2.4438   -1.3480 H   0  0  0  0  0  0  0  0  0  0  0  0
   -2.3308   -0.7478   -1.7397 H   0  0  0  0  0  0  0  0  0  0  0  0
   -1.0567   -1.8014   -0.9533 H   0  0  0  0  0  0  0  0  0  0  0  0
   -2.0829   -1.6396    2.4421 H   0  0  0  0  0  0  0  0  0  0  0  0
   -2.2593   -2.9963    1.2812 H   0  0  0  0  0  0  0  0  0  0  0  0
   -0.8260   -1.9470    1.1301 H   0  0  0  0  0  0  0  0  0  0  0  0
   -6.7973   -0.8220    1.4056 H   0  0  0  0  0  0  0  0  0  0  0  0
   -6.7197   -1.2511   -0.3297 H   0  0  0  0  0  0  0  0  0  0  0  0
   -2.3897    3.0857    0.0822 H   0  0  0  0  0  0  0  0  0  0  0  0
   -3.1067    3.0608    1.7264 H   0  0  0  0  0  0  0  0  0  0  0  0
   -0.7813    0.5017    2.6482 H   0  0  0  0  0  0  0  0  0  0  0  0
    1.5526    1.2216    2.8015 H   0  0  0  0  0  0  0  0  0  0  0  0
    2.7756    1.8588    0.8276 H   0  0  0  0  0  0  0  0  0  0  0  0
    1.6136    2.9467   -1.9002 H   0  0  0  0  0  0  0  0  0  0  0  0
    1.4468    1.2619   -2.5428 H   0  0  0  0  0  0  0  0  0  0  0  0
    5.7606    1.4841   -1.0744 H   0  0  0  0  0  0  0  0  0  0  0  0
    6.9982   -0.5226   -0.5958 H   0  0  0  0  0  0  0  0  0  0  0  0
    5.9199   -2.7058   -0.4292 H   0  0  0  0  0  0  0  0  0  0  0  0
    3.4849   -2.8688   -0.7609 H   0  0  0  0  0  0  0  0  0  0  0  0
    2.1763   -0.8266   -1.2605 H   0  0  0  0  0  0  0  0  0  0  0  0
   -0.7396    1.0434   -1.5282 H   0  0  0  0  0  0  0  0  0  0  0  0
  1  2  1  0
  2  3  1  0
  2  4  1  0
  4  5  2  0
  5  6  1  0
  5  7  1  0
  7  8  2  0
  8  9  1  0
  8 10  1  0
 10 11  1  0
 11 12  2  0
 12 13  1  0
 13 14  2  0
 14 15  1  0
 15 16  1  0
 16 17  1  0
 17 18  1  0
 18 19  2  0
 19 20  1  0
 20 21  2  0
 21 22  1  0
 22 23  2  0
 15 24  2  0
 10  2  1  0
 24 11  1  0
 23 18  1  0
  1 25  1  0
  1 26  1  0
  1 27  1  0
  3 28  1  0
  3 29  1  0
  3 30  1  0
  6 31  1  0
  6 32  1  0
  9 33  1  0
  9 34  1  0
 12 35  1  0
 13 36  1  0
 14 37  1  0
 16 38  1  0
 16 39  1  0
 19 40  1  0
 20 41  1  0
 21 42  1  0
 22 43  1  0
 23 44  1  0
 24 45  1  0
M  END
$$$$
[H]/C(C(=O)N([H])[C@]([H])(c1c([H])c([H])c(C(C([H])([H])[H])(C([H])([H])[H])C([H])([H])[H])c([H])c1[H])C([H])([H])[H])=C(/[H])c1c([H])c([H])c([H])c([H])c1C([H])([H])[H]
     RDKit          3D

 51 52  0  0  0  0  0  0  0  0999 V2000
   -0.5499   -0.6722    3.2520 C   0  0  0  0  0  0  0  0  0  0  0  0
   -0.3905   -1.1479    1.8022 C   0  0  2  0  0  0  0  0  0  0  0  0
    0.8666   -0.6825    1.2669 N   0  0  0  0  0  0  0  0  0  0  0  0
    1.8875   -1.6159    1.0159 C   0  0  0  0  0  0  0  0  0  0  0  0
    1.6501   -2.8265    1.2772 O   0  0  0  0  0  0  0  0  0  0  0  0
    3.2130   -1.3053    0.4716 C   0  0  0  0  0  0  0  0  0  0  0  0
    3.6254   -0.1304    0.1490 C   0  0  0  0  0  0  0  0  0  0  0  0
    4.8539    0.3778   -0.3828 C   0  0  0  0  0  0  0  0  0  0  0  0
    4.8403    1.7147   -0.8555 C   0  0  0  0  0  0  0  0  0  0  0  0
    5.9346    2.3400   -1.3771 C   0  0  0  0  0  0  0  0  0  0  0  0
    7.1329    1.6520   -1.4602 C   0  0  0  0  0  0  0  0  0  0  0  0
    7.2150    0.3561   -1.0206 C   0  0  0  0  0  0  0  0  0  0  0  0
    6.0660   -0.2379   -0.4932 C   0  0  0  0  0  0  0  0  0  0  0  0
    6.2512   -1.6043    0.0191 C   0  0  0  0  0  0  0  0  0  0  0  0
   -1.5658   -0.6738    1.0833 C   0  0  0  0  0  0  0  0  0  0  0  0
   -1.6246   -0.3270   -0.2516 C   0  0  0  0  0  0  0  0  0  0  0  0
   -2.8256    0.0771   -0.8082 C   0  0  0  0  0  0  0  0  0  0  0  0
   -3.9897    0.1512   -0.0766 C   0  0  0  0  0  0  0  0  0  0  0  0
   -3.9534   -0.1894    1.2554 C   0  0  0  0  0  0  0  0  0  0  0  0
   -2.7566   -0.5894    1.7984 C   0  0  0  0  0  0  0  0  0  0  0  0
   -5.2724    0.5792   -0.6859 C   0  0  0  0  0  0  0  0  0  0  0  0
   -6.2307   -0.6063   -0.5520 C   0  0  0  0  0  0  0  0  0  0  0  0
   -5.1396    1.0224   -2.1101 C   0  0  0  0  0  0  0  0  0  0  0  0
   -5.8625    1.7112    0.1364 C   0  0  0  0  0  0  0  0  0  0  0  0
    0.4462   -0.3476    3.6731 H   0  0  0  0  0  0  0  0  0  0  0  0
   -1.1482    0.2642    3.2550 H   0  0  0  0  0  0  0  0  0  0  0  0
   -1.0783   -1.4000    3.8813 H   0  0  0  0  0  0  0  0  0  0  0  0
   -0.3962   -2.2405    1.8619 H   0  0  0  0  0  0  0  0  0  0  0  0
    1.0101    0.3160    1.0657 H   0  0  0  0  0  0  0  0  0  0  0  0
    3.8564   -2.1285    0.2997 H   0  0  0  0  0  0  0  0  0  0  0  0
    2.8390    0.6492    0.3517 H   0  0  0  0  0  0  0  0  0  0  0  0
    3.9114    2.2677   -0.8013 H   0  0  0  0  0  0  0  0  0  0  0  0
    5.8769    3.3681   -1.7263 H   0  0  0  0  0  0  0  0  0  0  0  0
    7.9567    2.2083   -1.8876 H   0  0  0  0  0  0  0  0  0  0  0  0
    8.1516   -0.1711   -1.0876 H   0  0  0  0  0  0  0  0  0  0  0  0
    5.8885   -2.4070   -0.6133 H   0  0  0  0  0  0  0  0  0  0  0  0
    7.3764   -1.7487    0.2018 H   0  0  0  0  0  0  0  0  0  0  0  0
    5.8639   -1.6359    1.0708 H   0  0  0  0  0  0  0  0  0  0  0  0
   -0.7022   -0.3921   -0.8023 H   0  0  0  0  0  0  0  0  0  0  0  0
   -2.8399    0.3498   -1.8665 H   0  0  0  0  0  0  0  0  0  0  0  0
   -4.8744   -0.1415    1.8340 H   0  0  0  0  0  0  0  0  0  0  0  0
   -2.7769   -0.8570    2.8669 H   0  0  0  0  0  0  0  0  0  0  0  0
   -6.6847   -0.5775    0.4579 H   0  0  0  0  0  0  0  0  0  0  0  0
   -5.5970   -1.5166   -0.6182 H   0  0  0  0  0  0  0  0  0  0  0  0
   -6.9644   -0.6586   -1.3612 H   0  0  0  0  0  0  0  0  0  0  0  0
   -6.1459    1.3406   -2.4544 H   0  0  0  0  0  0  0  0  0  0  0  0
   -4.7611    0.1742   -2.7118 H   0  0  0  0  0  0  0  0  0  0  0  0
   -4.4423    1.8873   -2.1382 H   0  0  0  0  0  0  0  0  0  0  0  0
   -5.8640    1.4825    1.2101 H   0  0  0  0  0  0  0  0  0  0  0  0
   -5.3302    2.6624   -0.0010 H   0  0  0  0  0  0  0  0  0  0  0  0
   -6.9463    1.8794   -0.1290 H   0  0  0  0  0  0  0  0  0  0  0  0
  1  2  1  0
  2  3  1  0
  3  4  1  0
  4  5  2  0
  4  6  1  0
  6  7  2  0
  7  8  1  0
  8  9  2  0
  9 10  1  0
 10 11  2  0
 11 12  1  0
 12 13  2  0
 13 14  1  0
  2 15  1  0
 15 16  2  0
 16 17  1  0
 17 18  2  0
 18 19  1  0
 19 20  2  0
 18 21  1  0
 21 22  1  0
 21 23  1  0
 21 24  1  0
 13  8  1  0
 20 15  1  0
  1 25  1  0
  1 26  1  0
  1 27  1  0
  2 28  1  1
  3 29  1  0
  6 30  1  0
  7 31  1  0
  9 32  1  0
 10 33  1  0
 11 34  1  0
 12 35  1  0
 14 36  1  0
 14 37  1  0
 14 38  1  0
 16 39  1  0
 17 40  1  0
 19 41  1  0
 20 42  1  0
 22 43  1  0
 22 44  1  0
 22 45  1  0
 23 46  1  0
 23 47  1  0
 23 48  1  0
 24 49  1  0
 24 50  1  0
 24 51  1  0
M  END
$$$$
[H]OC(=O)C([H])([H])N(C([H])([H])c1c([H])c([H])c([H])c([H])c1[H])S(=O)(=O)c1c([H])c([H])c(C(=O)N2C([H])([H])C([H])([H])C([H])([H])[C@@]2([H])C(=O)N([H])C2([H])C([H])([H])C([H])([H])C([H])([H])C([H])([H])C([H])([H])C2([H])[H])c([H])c1[H]
     RDKit          3D

 73 76  0  0  0  0  0  0  0  0999 V2000
    6.7251   -3.7719    1.4353 O   0  0  0  0  0  0  0  0  0  0  0  0
    5.7868   -3.2233    2.2930 C   0  0  0  0  0  0  0  0  0  0  0  0
    5.4158   -3.8788    3.2834 O   0  0  0  0  0  0  0  0  0  0  0  0
    5.2528   -1.8865    2.0149 C   0  0  0  0  0  0  0  0  0  0  0  0
    5.7963   -1.3001    0.8323 N   0  0  0  0  0  0  0  0  0  0  0  0
    6.1032    0.0713    1.0427 C   0  0  0  0  0  0  0  0  0  0  0  0
    7.4289    0.4763    0.5315 C   0  0  0  0  0  0  0  0  0  0  0  0
    7.7728    1.8085    0.6234 C   0  0  0  0  0  0  0  0  0  0  0  0
    8.9799    2.3059    0.1929 C   0  0  0  0  0  0  0  0  0  0  0  0
    9.8977    1.4322   -0.3605 C   0  0  0  0  0  0  0  0  0  0  0  0
    9.5538    0.0973   -0.4531 C   0  0  0  0  0  0  0  0  0  0  0  0
    8.3386   -0.3940   -0.0180 C   0  0  0  0  0  0  0  0  0  0  0  0
    4.9157   -1.6614   -0.5794 S   0  0  0  0  0  0  0  0  0  0  0  0
    5.6272   -1.1524   -1.7961 O   0  0  0  0  0  0  0  0  0  0  0  0
    4.8200   -3.1647   -0.7093 O   0  0  0  0  0  0  0  0  0  0  0  0
    3.2689   -1.0620   -0.5058 C   0  0  0  0  0  0  0  0  0  0  0  0
    2.9233    0.1631   -1.0066 C   0  0  0  0  0  0  0  0  0  0  0  0
    1.6315    0.6335   -0.9289 C   0  0  0  0  0  0  0  0  0  0  0  0
    0.6034   -0.0672   -0.3569 C   0  0  0  0  0  0  0  0  0  0  0  0
    0.9773   -1.3340    0.1568 C   0  0  0  0  0  0  0  0  0  0  0  0
    2.2637   -1.7955    0.0756 C   0  0  0  0  0  0  0  0  0  0  0  0
   -0.7645    0.3555   -0.2541 C   0  0  0  0  0  0  0  0  0  0  0  0
   -1.5310   -0.4370    0.4249 O   0  0  0  0  0  0  0  0  0  0  0  0
   -1.4111    1.5158   -0.7870 N   0  0  0  0  0  0  0  0  0  0  0  0
   -0.9318    2.5871   -1.5918 C   0  0  0  0  0  0  0  0  0  0  0  0
   -2.1582    3.3926   -1.9723 C   0  0  0  0  0  0  0  0  0  0  0  0
   -3.1352    3.1047   -0.8437 C   0  0  0  0  0  0  0  0  0  0  0  0
   -2.8172    1.7166   -0.4829 C   0  0  1  0  0  0  0  0  0  0  0  0
   -3.6647    0.7026   -1.1622 C   0  0  0  0  0  0  0  0  0  0  0  0
   -3.1202   -0.0088   -2.0495 O   0  0  0  0  0  0  0  0  0  0  0  0
   -5.0174    0.5873   -0.7833 N   0  0  0  0  0  0  0  0  0  0  0  0
   -5.9497   -0.3575   -1.3650 C   0  0  0  0  0  0  0  0  0  0  0  0
   -6.1238   -1.4738   -0.3302 C   0  0  0  0  0  0  0  0  0  0  0  0
   -6.9552   -1.0035    0.8204 C   0  0  0  0  0  0  0  0  0  0  0  0
   -8.3644   -1.5677    0.6566 C   0  0  0  0  0  0  0  0  0  0  0  0
   -9.0912   -0.6137   -0.2803 C   0  0  0  0  0  0  0  0  0  0  0  0
   -8.4348   -0.6501   -1.6586 C   0  0  0  0  0  0  0  0  0  0  0  0
   -7.2557    0.2604   -1.7610 C   0  0  0  0  0  0  0  0  0  0  0  0
    7.7379   -3.6601    1.5938 H   0  0  0  0  0  0  0  0  0  0  0  0
    4.1574   -1.8449    1.9559 H   0  0  0  0  0  0  0  0  0  0  0  0
    5.5404   -1.2311    2.8870 H   0  0  0  0  0  0  0  0  0  0  0  0
    6.1463    0.2499    2.1585 H   0  0  0  0  0  0  0  0  0  0  0  0
    5.3572    0.7457    0.5694 H   0  0  0  0  0  0  0  0  0  0  0  0
    7.0739    2.5387    1.0516 H   0  0  0  0  0  0  0  0  0  0  0  0
    9.1997    3.3729    0.2905 H   0  0  0  0  0  0  0  0  0  0  0  0
   10.8636    1.8237   -0.7042 H   0  0  0  0  0  0  0  0  0  0  0  0
   10.2642   -0.6006   -0.8875 H   0  0  0  0  0  0  0  0  0  0  0  0
    8.0801   -1.4496   -0.0976 H   0  0  0  0  0  0  0  0  0  0  0  0
    3.6890    0.8112   -1.4931 H   0  0  0  0  0  0  0  0  0  0  0  0
    1.4432    1.6220   -1.3415 H   0  0  0  0  0  0  0  0  0  0  0  0
    0.1925   -1.9181    0.6136 H   0  0  0  0  0  0  0  0  0  0  0  0
    2.5047   -2.7861    0.4865 H   0  0  0  0  0  0  0  0  0  0  0  0
   -0.4177    2.2399   -2.5253 H   0  0  0  0  0  0  0  0  0  0  0  0
   -0.1956    3.2408   -1.0611 H   0  0  0  0  0  0  0  0  0  0  0  0
   -1.9226    4.4787   -2.0447 H   0  0  0  0  0  0  0  0  0  0  0  0
   -2.5201    2.9699   -2.9336 H   0  0  0  0  0  0  0  0  0  0  0  0
   -4.1622    3.2502   -1.2440 H   0  0  0  0  0  0  0  0  0  0  0  0
   -2.9247    3.8496   -0.0367 H   0  0  0  0  0  0  0  0  0  0  0  0
   -2.8938    1.6126    0.6293 H   0  0  0  0  0  0  0  0  0  0  0  0
   -5.3935    1.2070   -0.0408 H   0  0  0  0  0  0  0  0  0  0  0  0
   -5.5267   -0.8729   -2.2660 H   0  0  0  0  0  0  0  0  0  0  0  0
   -6.4589   -2.4180   -0.7968 H   0  0  0  0  0  0  0  0  0  0  0  0
   -5.0798   -1.6727    0.0583 H   0  0  0  0  0  0  0  0  0  0  0  0
   -7.0758    0.1112    0.8496 H   0  0  0  0  0  0  0  0  0  0  0  0
   -6.5615   -1.3755    1.8038 H   0  0  0  0  0  0  0  0  0  0  0  0
   -8.3337   -2.5808    0.1914 H   0  0  0  0  0  0  0  0  0  0  0  0
   -8.8538   -1.5450    1.6315 H   0  0  0  0  0  0  0  0  0  0  0  0
  -10.1555   -0.8856   -0.3133 H   0  0  0  0  0  0  0  0  0  0  0  0
   -9.0003    0.4167    0.1233 H   0  0  0  0  0  0  0  0  0  0  0  0
   -8.2328   -1.6966   -1.9763 H   0  0  0  0  0  0  0  0  0  0  0  0
   -9.2077   -0.2515   -2.3686 H   0  0  0  0  0  0  0  0  0  0  0  0
   -7.4933    1.1605   -1.1180 H   0  0  0  0  0  0  0  0  0  0  0  0
   -7.1967    0.6810   -2.7925 H   0  0  0  0  0  0  0  0  0  0  0  0
  1  2  1  0
  2  3  2  0
  2  4  1  0
  4  5  1  0
  5  6  1  0
  6  7  1  0
  7  8  2  0
  8  9  1  0
  9 10  2  0
 10 11  1  0
 11 12  2  0
  5 13  1  0
 13 14  2  0
 13 15  2  0
 13 16  1  0
 16 17  2  0
 17 18  1  0
 18 19  2  0
 19 20  1  0
 20 21  2  0
 19 22  1  0
 22 23  2  0
 22 24  1  0
 24 25  1  0
 25 26  1  0
 26 27  1  0
 27 28  1  0
 28 29  1  0
 29 30  2  0
 29 31  1  0
 31 32  1  0
 32 33  1  0
 33 34  1  0
 34 35  1  0
 35 36  1  0
 36 37  1  0
 37 38  1  0
 12  7  1  0
 21 16  1  0
 28 24  1  0
 38 32  1  0
  1 39  1  0
  4 40  1  0
  4 41  1  0
  6 42  1  0
  6 43  1  0
  8 44  1  0
  9 45  1  0
 10 46  1  0
 11 47  1  0
 12 48  1  0
 17 49  1  0
 18 50  1  0
 20 51  1  0
 21 52  1  0
 25 53  1  0
 25 54  1  0
 26 55  1  0
 26 56  1  0
 27 57  1  0
 27 58  1  0
 28 59  1  1
 31 60  1  0
 32 61  1  0
 33 62  1  0
 33 63  1  0
 34 64  1  0
 34 65  1  0
 35 66  1  0
 35 67  1  0
 36 68  1  0
 36 69  1  0
 37 70  1  0
 37 71  1  0
 38 72  1  0
 38 73  1  0
M  END
$$$$
[H]Oc1c([H])c(C([H])([H])[H])c2c(oc(=O)c3c(O[H])c([H])c(O[H])c([H])c32)c1[H]
     RDKit          3D

 29 31  0  0  0  0  0  0  0  0999 V2000
   -1.5540    2.0115   -0.0779 C   0  0  0  0  0  0  0  0  0  0  0  0
   -1.6875    0.5760    0.0494 C   0  0  0  0  0  0  0  0  0  0  0  0
   -2.9993    0.0311    0.1531 C   0  0  0  0  0  0  0  0  0  0  0  0
   -3.2530   -1.3047    0.2737 C   0  0  0  0  0  0  0  0  0  0  0  0
   -4.5438   -1.7832    0.3710 O   0  0  0  0  0  0  0  0  0  0  0  0
   -2.2059   -2.1757    0.2976 C   0  0  0  0  0  0  0  0  0  0  0  0
   -0.9131   -1.7095    0.2013 C   0  0  0  0  0  0  0  0  0  0  0  0
    0.0740   -2.5715    0.2271 O   0  0  0  0  0  0  0  0  0  0  0  0
    1.3147   -2.2232    0.1427 C   0  0  0  0  0  0  0  0  0  0  0  0
    2.2415   -3.0642    0.1693 O   0  0  0  0  0  0  0  0  0  0  0  0
    1.6542   -0.8950    0.0192 C   0  0  0  0  0  0  0  0  0  0  0  0
    2.9696   -0.5208   -0.0696 C   0  0  0  0  0  0  0  0  0  0  0  0
    3.9322   -1.5159   -0.0322 O   0  0  0  0  0  0  0  0  0  0  0  0
    3.2978    0.8039   -0.1911 C   0  0  0  0  0  0  0  0  0  0  0  0
    2.3256    1.7611   -0.2250 C   0  0  0  0  0  0  0  0  0  0  0  0
    2.6257    3.1012   -0.3464 O   0  0  0  0  0  0  0  0  0  0  0  0
    0.9672    1.3930   -0.1348 C   0  0  0  0  0  0  0  0  0  0  0  0
    0.6594    0.0754   -0.0150 C   0  0  0  0  0  0  0  0  0  0  0  0
   -0.6661   -0.3326    0.0778 C   0  0  0  0  0  0  0  0  0  0  0  0
   -2.6501    2.3997   -0.0722 H   0  0  0  0  0  0  0  0  0  0  0  0
   -1.3408    2.4378   -1.0826 H   0  0  0  0  0  0  0  0  0  0  0  0
   -1.2712    2.5988    0.8209 H   0  0  0  0  0  0  0  0  0  0  0  0
   -3.8357    0.6980    0.1365 H   0  0  0  0  0  0  0  0  0  0  0  0
   -5.0476   -2.0276   -0.4797 H   0  0  0  0  0  0  0  0  0  0  0  0
   -2.3586   -3.2327    0.3908 H   0  0  0  0  0  0  0  0  0  0  0  0
    4.8965   -1.2344   -0.0979 H   0  0  0  0  0  0  0  0  0  0  0  0
    4.3544    1.0599   -0.2590 H   0  0  0  0  0  0  0  0  0  0  0  0
    2.6827    3.4649   -1.3101 H   0  0  0  0  0  0  0  0  0  0  0  0
    0.3312    2.1787   -0.1676 H   0  0  0  0  0  0  0  0  0  0  0  0
  1  2  1  0
  2  3  2  0
  3  4  1  0
  4  5  1  0
  4  6  2  0
  6  7  1  0
  7  8  1  0
  8  9  1  0
  9 10  2  0
  9 11  1  0
 11 12  2  0
 12 13  1  0
 12 14  1  0
 14 15  2  0
 15 16  1  0
 15 17  1  0
 17 18  2  0
 18 19  1  0
 19  2  1  0
 19  7  2  0
 18 11  1  0
  1 20  1  0
  1 21  1  0
  1 22  1  0
  3 23  1  0
  5 24  1  0
  6 25  1  0
 13 26  1  0
 14 27  1  0
 16 28  1  0
 17 29  1  0
M  END
$$$$
[H]OC(=O)c1[se]c(-c2c([H])c([H])c(OC([H])([H])c3c([H])c([H])c([H])c([H])c3[H])c(C#N)c2[H])nc1C([H])([H])[H]
     RDKit          3D

 39 41  0  0  0  0  0  0  0  0999 V2000
    4.8403    2.7278    0.2045 C   0  0  0  0  0  0  0  0  0  0  0  0
    4.3267    1.2857    0.0122 C   0  0  0  0  0  0  0  0  0  0  0  0
    3.1359    0.9759    0.2078 N   0  0  0  0  0  0  0  0  0  0  0  0
    2.4643   -0.0881    0.1299 C   0  0  0  0  0  0  0  0  0  0  0  0
    4.1217   -1.2932   -0.4884 Se  0  0  0  0  0  2  0  0  0  0  0  0
    5.3106    0.4418   -0.3820 C   0  0  0  0  0  0  0  0  0  0  0  0
    6.7020    0.4654   -0.6821 C   0  0  0  0  0  0  0  0  0  0  0  0
    7.5290    1.5447   -0.6352 O   0  0  0  0  0  0  0  0  0  0  0  0
    7.2454   -0.6389   -1.0349 O   0  0  0  0  0  0  0  0  0  0  0  0
    1.1573   -0.6645    0.2945 C   0  0  0  0  0  0  0  0  0  0  0  0
    0.1508    0.1672    0.6910 C   0  0  0  0  0  0  0  0  0  0  0  0
   -1.1139   -0.3393    0.8611 C   0  0  0  0  0  0  0  0  0  0  0  0
   -1.4184   -1.6683    0.6463 C   0  0  0  0  0  0  0  0  0  0  0  0
   -2.6797   -2.2146    0.8085 O   0  0  0  0  0  0  0  0  0  0  0  0
   -3.8420   -1.5373    1.1935 C   0  0  0  0  0  0  0  0  0  0  0  0
   -4.2361   -0.4822    0.2273 C   0  0  0  0  0  0  0  0  0  0  0  0
   -3.8350   -0.5071   -1.1114 C   0  0  0  0  0  0  0  0  0  0  0  0
   -4.2185    0.4915   -1.9898 C   0  0  0  0  0  0  0  0  0  0  0  0
   -5.0044    1.5383   -1.5759 C   0  0  0  0  0  0  0  0  0  0  0  0
   -5.4035    1.5690   -0.2568 C   0  0  0  0  0  0  0  0  0  0  0  0
   -5.0209    0.5717    0.6217 C   0  0  0  0  0  0  0  0  0  0  0  0
   -0.3698   -2.4976    0.2415 C   0  0  0  0  0  0  0  0  0  0  0  0
    0.8693   -1.9815    0.0792 C   0  0  0  0  0  0  0  0  0  0  0  0
   -0.6673   -3.8774    0.0150 C   0  0  0  0  0  0  0  0  0  0  0  0
   -0.8911   -4.9993   -0.1588 N   0  0  0  0  0  0  0  0  0  0  0  0
    5.0992    3.0573   -0.8300 H   0  0  0  0  0  0  0  0  0  0  0  0
    4.0759    3.3982    0.5713 H   0  0  0  0  0  0  0  0  0  0  0  0
    5.6830    2.7417    0.9004 H   0  0  0  0  0  0  0  0  0  0  0  0
    8.0238    1.7874    0.2130 H   0  0  0  0  0  0  0  0  0  0  0  0
    0.3411    1.2074    0.8692 H   0  0  0  0  0  0  0  0  0  0  0  0
   -1.9191    0.3268    1.1902 H   0  0  0  0  0  0  0  0  0  0  0  0
   -4.6858   -2.2551    1.3333 H   0  0  0  0  0  0  0  0  0  0  0  0
   -3.6479   -1.0786    2.1859 H   0  0  0  0  0  0  0  0  0  0  0  0
   -3.2189   -1.3259   -1.4401 H   0  0  0  0  0  0  0  0  0  0  0  0
   -3.9186    0.4926   -3.0343 H   0  0  0  0  0  0  0  0  0  0  0  0
   -5.3049    2.3253   -2.2738 H   0  0  0  0  0  0  0  0  0  0  0  0
   -6.0209    2.3831    0.0868 H   0  0  0  0  0  0  0  0  0  0  0  0
   -5.3409    0.6023    1.6661 H   0  0  0  0  0  0  0  0  0  0  0  0
    1.6813   -2.6523   -0.2403 H   0  0  0  0  0  0  0  0  0  0  0  0
  1  2  1  0
  2  3  1  0
  3  4  2  0
  4  5  1  0
  5  6  1  0
  6  7  1  0
  7  8  1  0
  7  9  2  0
  4 10  1  0
 10 11  2  0
 11 12  1  0
 12 13  2  0
 13 14  1  0
 14 15  1  0
 15 16  1  0
 16 17  2  0
 17 18  1  0
 18 19  2  0
 19 20  1  0
 20 21  2  0
 13 22  1  0
 22 23  2  0
 22 24  1  0
 24 25  3  0
  6  2  2  0
 23 10  1  0
 21 16  1  0
  1 26  1  0
  1 27  1  0
  1 28  1  0
  8 29  1  0
 11 30  1  0
 12 31  1  0
 15 32  1  0
 15 33  1  0
 17 34  1  0
 18 35  1  0
 19 36  1  0
 20 37  1  0
 21 38  1  0
 23 39  1  0
M  END
$$$$
[H]C([H])=C([H])C(=O)N([H])c1c([H])c([H])c([H])c(C([H])([H])N([H])c2nc(N([H])c3c([H])c([H])c(N4C([H])([H])C([H])([H])N(C([H])([H])[H])C([H])([H])C4([H])[H])c([H])c3OC([H])([H])[H])nc([H])c2Cl)c1[H]
     RDKit          3D

 66 69  0  0  0  0  0  0  0  0999 V2000
   -3.6752   -1.0558    3.0120 C   0  0  0  0  0  0  0  0  0  0  0  0
   -2.7428   -0.8658    1.9691 O   0  0  0  0  0  0  0  0  0  0  0  0
   -3.1436   -0.5826    0.6632 C   0  0  0  0  0  0  0  0  0  0  0  0
   -4.4833   -0.4828    0.3718 C   0  0  0  0  0  0  0  0  0  0  0  0
   -4.9399   -0.2002   -0.9238 C   0  0  0  0  0  0  0  0  0  0  0  0
   -3.9780   -0.0305   -1.8780 C   0  0  0  0  0  0  0  0  0  0  0  0
   -2.6040   -0.1362   -1.5626 C   0  0  0  0  0  0  0  0  0  0  0  0
   -2.1619   -0.4081   -0.3140 C   0  0  0  0  0  0  0  0  0  0  0  0
   -0.8267   -0.5154    0.0542 N   0  0  0  0  0  0  0  0  0  0  0  0
    0.3283   -0.3966   -0.7489 C   0  0  0  0  0  0  0  0  0  0  0  0
    0.3095   -0.1547   -2.0569 N   0  0  0  0  0  0  0  0  0  0  0  0
    1.3926   -0.0301   -2.8433 C   0  0  0  0  0  0  0  0  0  0  0  0
    2.6094   -0.1699   -2.2106 C   0  0  0  0  0  0  0  0  0  0  0  0
    4.0754   -0.0292   -3.1288 Cl  0  0  0  0  0  0  0  0  0  0  0  0
    2.6607   -0.4233   -0.8435 C   0  0  0  0  0  0  0  0  0  0  0  0
    3.9431   -0.5514   -0.2522 N   0  0  0  0  0  0  0  0  0  0  0  0
    4.0848   -0.8181    1.1705 C   0  0  0  0  0  0  0  0  0  0  0  0
    5.4917   -0.8909    1.5789 C   0  0  0  0  0  0  0  0  0  0  0  0
    5.9377   -1.8786    2.4331 C   0  0  0  0  0  0  0  0  0  0  0  0
    7.2626   -1.9472    2.8176 C   0  0  0  0  0  0  0  0  0  0  0  0
    8.1780   -0.9959    2.3330 C   0  0  0  0  0  0  0  0  0  0  0  0
    7.7480   -0.0109    1.4842 C   0  0  0  0  0  0  0  0  0  0  0  0
    8.5620    0.9747    0.9093 N   0  0  0  0  0  0  0  0  0  0  0  0
    9.9441    0.8614    0.7514 C   0  0  0  0  0  0  0  0  0  0  0  0
   10.5956   -0.1288    1.0977 O   0  0  0  0  0  0  0  0  0  0  0  0
   10.6862    1.9719    0.1404 C   0  0  0  0  0  0  0  0  0  0  0  0
   11.9909    1.8952   -0.0237 C   0  0  0  0  0  0  0  0  0  0  0  0
    6.3870    0.0364    1.1070 C   0  0  0  0  0  0  0  0  0  0  0  0
    1.5484   -0.5347   -0.1271 N   0  0  0  0  0  0  0  0  0  0  0  0
   -6.3391   -0.1112   -1.1675 N   0  0  0  0  0  0  0  0  0  0  0  0
   -7.3070   -0.4928   -0.1396 C   0  0  0  0  0  0  0  0  0  0  0  0
   -8.6779   -0.4480   -0.7769 C   0  0  0  0  0  0  0  0  0  0  0  0
   -8.9821    0.8625   -1.3111 N   0  0  0  0  0  0  0  0  0  0  0  0
   -9.4696    1.7675   -0.2906 C   0  0  0  0  0  0  0  0  0  0  0  0
   -7.9262    1.4125   -2.0928 C   0  0  0  0  0  0  0  0  0  0  0  0
   -6.8528    0.3615   -2.4192 C   0  0  0  0  0  0  0  0  0  0  0  0
   -4.5024   -1.7016    2.6836 H   0  0  0  0  0  0  0  0  0  0  0  0
   -4.1110   -0.0407    3.2152 H   0  0  0  0  0  0  0  0  0  0  0  0
   -3.2153   -1.3856    3.9439 H   0  0  0  0  0  0  0  0  0  0  0  0
   -5.2534   -0.6177    1.1286 H   0  0  0  0  0  0  0  0  0  0  0  0
   -4.2650    0.1862   -2.9101 H   0  0  0  0  0  0  0  0  0  0  0  0
   -1.9529    0.0216   -2.4105 H   0  0  0  0  0  0  0  0  0  0  0  0
   -0.6282   -0.7209    1.1184 H   0  0  0  0  0  0  0  0  0  0  0  0
    1.2907    0.1671   -3.9020 H   0  0  0  0  0  0  0  0  0  0  0  0
    4.7878   -0.4556   -0.8296 H   0  0  0  0  0  0  0  0  0  0  0  0
    3.5708   -1.7875    1.3682 H   0  0  0  0  0  0  0  0  0  0  0  0
    3.5031   -0.0529    1.7152 H   0  0  0  0  0  0  0  0  0  0  0  0
    5.2058   -2.5934    2.7860 H   0  0  0  0  0  0  0  0  0  0  0  0
    7.6212   -2.7079    3.4788 H   0  0  0  0  0  0  0  0  0  0  0  0
    9.1972   -1.0395    2.6417 H   0  0  0  0  0  0  0  0  0  0  0  0
    8.0793    1.8751    0.5775 H   0  0  0  0  0  0  0  0  0  0  0  0
   10.1888    2.8721   -0.1879 H   0  0  0  0  0  0  0  0  0  0  0  0
   12.5072    0.9810    0.3077 H   0  0  0  0  0  0  0  0  0  0  0  0
   12.5621    2.6953   -0.4693 H   0  0  0  0  0  0  0  0  0  0  0  0
    6.0158    0.8042    0.4364 H   0  0  0  0  0  0  0  0  0  0  0  0
   -7.2724    0.1778    0.7226 H   0  0  0  0  0  0  0  0  0  0  0  0
   -7.1105   -1.5658    0.1153 H   0  0  0  0  0  0  0  0  0  0  0  0
   -8.7747   -1.1863   -1.5948 H   0  0  0  0  0  0  0  0  0  0  0  0
   -9.4365   -0.6764   -0.0023 H   0  0  0  0  0  0  0  0  0  0  0  0
   -9.0012    2.7719   -0.5022 H   0  0  0  0  0  0  0  0  0  0  0  0
  -10.5557    1.8033   -0.2394 H   0  0  0  0  0  0  0  0  0  0  0  0
   -9.0347    1.4627    0.6994 H   0  0  0  0  0  0  0  0  0  0  0  0
   -8.2661    1.8395   -3.0651 H   0  0  0  0  0  0  0  0  0  0  0  0
   -7.3906    2.2077   -1.5301 H   0  0  0  0  0  0  0  0  0  0  0  0
   -7.2911   -0.4498   -3.0409 H   0  0  0  0  0  0  0  0  0  0  0  0
   -6.0943    0.8809   -3.0366 H   0  0  0  0  0  0  0  0  0  0  0  0
  1  2  1  0
  2  3  1  0
  3  4  2  0
  4  5  1  0
  5  6  2  0
  6  7  1  0
  7  8  2  0
  8  9  1  0
  9 10  1  0
 10 11  2  0
 11 12  1  0
 12 13  2  0
 13 14  1  0
 13 15  1  0
 15 16  1  0
 16 17  1  0
 17 18  1  0
 18 19  2  0
 19 20  1  0
 20 21  2  0
 21 22  1  0
 22 23  1  0
 23 24  1  0
 24 25  2  0
 24 26  1  0
 26 27  2  3
 22 28  2  0
 15 29  2  0
  5 30  1  0
 30 31  1  0
 31 32  1  0
 32 33  1  0
 33 34  1  0
 33 35  1  0
 35 36  1  0
  8  3  1  0
 29 10  1  0
 36 30  1  0
 28 18  1  0
  1 37  1  0
  1 38  1  0
  1 39  1  0
  4 40  1  0
  6 41  1  0
  7 42  1  0
  9 43  1  0
 12 44  1  0
 16 45  1  0
 17 46  1  0
 17 47  1  0
 19 48  1  0
 20 49  1  0
 21 50  1  0
 23 51  1  0
 26 52  1  0
 27 53  1  0
 27 54  1  0
 28 55  1  0
 31 56  1  0
 31 57  1  0
 32 58  1  0
 32 59  1  0
 34 60  1  0
 34 61  1  0
 34 62  1  0
 35 63  1  0
 35 64  1  0
 36 65  1  0
 36 66  1  0
M  END
$$$$
[H]c1nc2c(N([H])C3([H])C([H])([H])C3([H])[H])nc(N([H])c3c([H])c(C#N)c([H])c(N4C([H])([H])C([H])([H])C([H])(N5C([H])([H])C([H])([H])OC([H])([H])C5([H])[H])C([H])([H])C4([H])[H])c3Cl)nn2c1C#N
     RDKit          3D

 64 69  0  0  0  0  0  0  0  0999 V2000
   -0.3438   -2.2018    1.2102 Cl  0  0  0  0  0  0  0  0  0  0  0  0
    0.2167   -0.8015    0.3119 C   0  0  0  0  0  0  0  0  0  0  0  0
    1.6005   -0.6434    0.0727 C   0  0  0  0  0  0  0  0  0  0  0  0
    2.4477   -1.6182    0.5912 N   0  0  0  0  0  0  0  0  0  0  0  0
    3.8581   -1.6781    0.5391 C   0  0  0  0  0  0  0  0  0  0  0  0
    4.6835   -0.8010   -0.0195 N   0  0  0  0  0  0  0  0  0  0  0  0
    6.0166   -0.8733   -0.0591 C   0  0  0  0  0  0  0  0  0  0  0  0
    6.8431    0.0930   -0.6670 N   0  0  0  0  0  0  0  0  0  0  0  0
    6.3372    1.2780   -1.3206 C   0  0  0  0  0  0  0  0  0  0  0  0
    7.4171    2.1951   -1.9104 C   0  0  0  0  0  0  0  0  0  0  0  0
    6.5741    2.6312   -0.7663 C   0  0  0  0  0  0  0  0  0  0  0  0
    6.6278   -1.9781    0.5435 C   0  0  0  0  0  0  0  0  0  0  0  0
    7.9165   -2.3396    0.6745 N   0  0  0  0  0  0  0  0  0  0  0  0
    7.9120   -3.4983    1.3461 C   0  0  0  0  0  0  0  0  0  0  0  0
    6.6191   -3.8593    1.6341 C   0  0  0  0  0  0  0  0  0  0  0  0
    6.1276   -5.0129    2.3325 C   0  0  0  0  0  0  0  0  0  0  0  0
    5.7457   -5.9362    2.8892 N   0  0  0  0  0  0  0  0  0  0  0  0
    5.8148   -2.8765    1.1137 N   0  0  0  0  0  0  0  0  0  0  0  0
    4.4994   -2.7494    1.1205 N   0  0  0  0  0  0  0  0  0  0  0  0
    2.0035    0.4472   -0.6516 C   0  0  0  0  0  0  0  0  0  0  0  0
    1.1116    1.3877   -1.1506 C   0  0  0  0  0  0  0  0  0  0  0  0
   -0.2194    1.2075   -0.9021 C   0  0  0  0  0  0  0  0  0  0  0  0
   -0.6816    0.1077   -0.1656 C   0  0  0  0  0  0  0  0  0  0  0  0
   -2.0832    0.0632    0.0546 N   0  0  0  0  0  0  0  0  0  0  0  0
   -2.9784    0.8056   -0.8311 C   0  0  0  0  0  0  0  0  0  0  0  0
   -4.2502    0.0192   -1.0695 C   0  0  0  0  0  0  0  0  0  0  0  0
   -4.9464   -0.3062    0.2352 C   0  0  0  0  0  0  0  0  0  0  0  0
   -4.0313    0.0156    1.4146 C   0  0  0  0  0  0  0  0  0  0  0  0
   -2.6800   -0.6465    1.1339 C   0  0  0  0  0  0  0  0  0  0  0  0
   -6.2385    0.2910    0.3738 N   0  0  0  0  0  0  0  0  0  0  0  0
   -7.1287   -0.1970   -0.6354 C   0  0  0  0  0  0  0  0  0  0  0  0
   -8.5350    0.2601   -0.2351 C   0  0  0  0  0  0  0  0  0  0  0  0
   -8.5242    1.6557   -0.3723 O   0  0  0  0  0  0  0  0  0  0  0  0
   -7.6511    2.2149    0.5289 C   0  0  0  0  0  0  0  0  0  0  0  0
   -6.2280    1.7384    0.2923 C   0  0  0  0  0  0  0  0  0  0  0  0
    1.6112    2.5089   -1.9051 C   0  0  0  0  0  0  0  0  0  0  0  0
    2.0065    3.4153   -2.5345 N   0  0  0  0  0  0  0  0  0  0  0  0
    1.9792   -2.4458    1.1026 H   0  0  0  0  0  0  0  0  0  0  0  0
    7.8750   -0.0501   -0.6469 H   0  0  0  0  0  0  0  0  0  0  0  0
    5.4111    1.1435   -1.9248 H   0  0  0  0  0  0  0  0  0  0  0  0
    7.2389    2.6297   -2.9137 H   0  0  0  0  0  0  0  0  0  0  0  0
    8.4775    1.9168   -1.7488 H   0  0  0  0  0  0  0  0  0  0  0  0
    5.8291    3.4221   -1.0212 H   0  0  0  0  0  0  0  0  0  0  0  0
    6.9801    2.7516    0.2517 H   0  0  0  0  0  0  0  0  0  0  0  0
    8.8007   -4.0685    1.6219 H   0  0  0  0  0  0  0  0  0  0  0  0
    3.0315    0.6329   -0.8748 H   0  0  0  0  0  0  0  0  0  0  0  0
   -0.8933    1.9618   -1.3011 H   0  0  0  0  0  0  0  0  0  0  0  0
   -3.1413    1.8263   -0.4974 H   0  0  0  0  0  0  0  0  0  0  0  0
   -2.4698    0.8440   -1.8253 H   0  0  0  0  0  0  0  0  0  0  0  0
   -4.9019    0.6120   -1.7314 H   0  0  0  0  0  0  0  0  0  0  0  0
   -3.9635   -0.8962   -1.6254 H   0  0  0  0  0  0  0  0  0  0  0  0
   -5.0852   -1.4057    0.2590 H   0  0  0  0  0  0  0  0  0  0  0  0
   -3.9317    1.0972    1.5105 H   0  0  0  0  0  0  0  0  0  0  0  0
   -4.4568   -0.4126    2.3400 H   0  0  0  0  0  0  0  0  0  0  0  0
   -2.9170   -1.7004    0.9162 H   0  0  0  0  0  0  0  0  0  0  0  0
   -2.1409   -0.5743    2.1031 H   0  0  0  0  0  0  0  0  0  0  0  0
   -6.9124    0.2864   -1.6059 H   0  0  0  0  0  0  0  0  0  0  0  0
   -7.1230   -1.3120   -0.6930 H   0  0  0  0  0  0  0  0  0  0  0  0
   -9.2965   -0.1583   -0.8939 H   0  0  0  0  0  0  0  0  0  0  0  0
   -8.7152    0.0465    0.8400 H   0  0  0  0  0  0  0  0  0  0  0  0
   -7.6979    3.3269    0.3820 H   0  0  0  0  0  0  0  0  0  0  0  0
   -7.8921    1.9520    1.5827 H   0  0  0  0  0  0  0  0  0  0  0  0
   -5.6049    2.1773    1.0772 H   0  0  0  0  0  0  0  0  0  0  0  0
   -5.9504    2.0789   -0.7358 H   0  0  0  0  0  0  0  0  0  0  0  0
  1  2  1  0
  2  3  2  0
  3  4  1  0
  4  5  1  0
  5  6  1  0
  6  7  2  0
  7  8  1  0
  8  9  1  0
  9 10  1  0
 10 11  1  0
  7 12  1  0
 12 13  2  0
 13 14  1  0
 14 15  2  0
 15 16  1  0
 16 17  3  0
 15 18  1  0
 18 19  1  0
  3 20  1  0
 20 21  2  0
 21 22  1  0
 22 23  2  0
 23 24  1  0
 24 25  1  0
 25 26  1  0
 26 27  1  0
 27 28  1  0
 28 29  1  0
 27 30  1  0
 30 31  1  0
 31 32  1  0
 32 33  1  0
 33 34  1  0
 34 35  1  0
 21 36  1  0
 36 37  3  0
 23  2  1  0
 29 24  1  0
 35 30  1  0
 19  5  2  0
 11  9  1  0
 18 12  1  0
  4 38  1  0
  8 39  1  0
  9 40  1  0
 10 41  1  0
 10 42  1  0
 11 43  1  0
 11 44  1  0
 14 45  1  0
 20 46  1  0
 22 47  1  0
 25 48  1  0
 25 49  1  0
 26 50  1  0
 26 51  1  0
 27 52  1  0
 28 53  1  0
 28 54  1  0
 29 55  1  0
 29 56  1  0
 31 57  1  0
 31 58  1  0
 32 59  1  0
 32 60  1  0
 34 61  1  0
 34 62  1  0
 35 63  1  0
 35 64  1  0
M  END
$$$$
[H]c1c([H])c([H])c2c(N3C([H])([H])C([H])([H])N(C(=O)C([H])([H])Oc4c([H])c([H])c5c([H])c([H])c([H])c(N6C([H])([H])C([H])([H])N(C([H])([H])[H])C([H])([H])C6([H])[H])c5c4[H])C([H])([H])C3([H])[H])c([H])c([H])c([H])c2c1[H]
     RDKit          3D

 71 76  0  0  0  0  0  0  0  0999 V2000
    9.3586   -0.2887   -0.5829 C   0  0  0  0  0  0  0  0  0  0  0  0
    8.3757   -1.2930   -0.3122 N   0  0  0  0  0  0  0  0  0  0  0  0
    7.4673   -1.5874   -1.3387 C   0  0  0  0  0  0  0  0  0  0  0  0
    6.0216   -1.1813   -1.0875 C   0  0  0  0  0  0  0  0  0  0  0  0
    5.9952   -0.4512    0.1620 N   0  0  0  0  0  0  0  0  0  0  0  0
    6.5591   -1.0855    1.3448 C   0  0  0  0  0  0  0  0  0  0  0  0
    7.9834   -1.4357    1.0371 C   0  0  0  0  0  0  0  0  0  0  0  0
    5.4332    0.8521    0.2113 C   0  0  0  0  0  0  0  0  0  0  0  0
    6.2582    1.9663    0.3768 C   0  0  0  0  0  0  0  0  0  0  0  0
    5.7332    3.2214    0.3982 C   0  0  0  0  0  0  0  0  0  0  0  0
    4.3886    3.4495    0.2606 C   0  0  0  0  0  0  0  0  0  0  0  0
    3.5391    2.3722    0.0957 C   0  0  0  0  0  0  0  0  0  0  0  0
    2.1802    2.5852   -0.0360 C   0  0  0  0  0  0  0  0  0  0  0  0
    1.3449    1.4993   -0.1912 C   0  0  0  0  0  0  0  0  0  0  0  0
    1.8207    0.2306   -0.2167 C   0  0  0  0  0  0  0  0  0  0  0  0
    1.0678   -0.9200   -0.3635 O   0  0  0  0  0  0  0  0  0  0  0  0
   -0.3011   -1.0396   -0.4956 C   0  0  0  0  0  0  0  0  0  0  0  0
   -1.1031   -0.5702    0.6523 C   0  0  0  0  0  0  0  0  0  0  0  0
   -0.5330   -0.1584    1.7089 O   0  0  0  0  0  0  0  0  0  0  0  0
   -2.5193   -0.5689    0.6004 N   0  0  0  0  0  0  0  0  0  0  0  0
   -3.1514   -1.0384   -0.6151 C   0  0  0  0  0  0  0  0  0  0  0  0
   -4.5796   -1.4896   -0.3844 C   0  0  0  0  0  0  0  0  0  0  0  0
   -5.2318   -0.3882    0.3053 N   0  0  0  0  0  0  0  0  0  0  0  0
   -4.7185   -0.0318    1.6005 C   0  0  0  0  0  0  0  0  0  0  0  0
   -3.2456   -0.1050    1.7512 C   0  0  0  0  0  0  0  0  0  0  0  0
   -6.3256    0.3465   -0.2071 C   0  0  0  0  0  0  0  0  0  0  0  0
   -6.1908    1.6830   -0.5835 C   0  0  0  0  0  0  0  0  0  0  0  0
   -7.2333    2.4023   -1.0987 C   0  0  0  0  0  0  0  0  0  0  0  0
   -8.4499    1.7965   -1.2517 C   0  0  0  0  0  0  0  0  0  0  0  0
   -8.6389    0.4790   -0.8959 C   0  0  0  0  0  0  0  0  0  0  0  0
   -9.8871   -0.0787   -1.0661 C   0  0  0  0  0  0  0  0  0  0  0  0
  -10.0540   -1.3946   -0.6973 C   0  0  0  0  0  0  0  0  0  0  0  0
   -9.0373   -2.1368   -0.1809 C   0  0  0  0  0  0  0  0  0  0  0  0
   -7.7972   -1.5541   -0.0210 C   0  0  0  0  0  0  0  0  0  0  0  0
   -7.5585   -0.2388   -0.3705 C   0  0  0  0  0  0  0  0  0  0  0  0
    3.1946    0.0284   -0.0830 C   0  0  0  0  0  0  0  0  0  0  0  0
    4.0700    1.0756    0.0724 C   0  0  0  0  0  0  0  0  0  0  0  0
   10.3372   -0.8076   -0.6921 H   0  0  0  0  0  0  0  0  0  0  0  0
    9.4203    0.3620    0.3366 H   0  0  0  0  0  0  0  0  0  0  0  0
    9.1116    0.3489   -1.4426 H   0  0  0  0  0  0  0  0  0  0  0  0
    7.5063   -2.6984   -1.5240 H   0  0  0  0  0  0  0  0  0  0  0  0
    7.8022   -1.0643   -2.2684 H   0  0  0  0  0  0  0  0  0  0  0  0
    5.3917   -2.1004   -1.0708 H   0  0  0  0  0  0  0  0  0  0  0  0
    5.6509   -0.5361   -1.9064 H   0  0  0  0  0  0  0  0  0  0  0  0
    6.4363   -0.3845    2.1886 H   0  0  0  0  0  0  0  0  0  0  0  0
    5.9955   -2.0120    1.5596 H   0  0  0  0  0  0  0  0  0  0  0  0
    8.1815   -2.5055    1.3400 H   0  0  0  0  0  0  0  0  0  0  0  0
    8.6124   -0.8027    1.7328 H   0  0  0  0  0  0  0  0  0  0  0  0
    7.3043    1.8172    0.4864 H   0  0  0  0  0  0  0  0  0  0  0  0
    6.3780    4.0978    0.5279 H   0  0  0  0  0  0  0  0  0  0  0  0
    3.9477    4.4479    0.2745 H   0  0  0  0  0  0  0  0  0  0  0  0
    1.7453    3.5581   -0.0230 H   0  0  0  0  0  0  0  0  0  0  0  0
    0.2558    1.6468   -0.3111 H   0  0  0  0  0  0  0  0  0  0  0  0
   -0.7141   -0.5799   -1.4194 H   0  0  0  0  0  0  0  0  0  0  0  0
   -0.5264   -2.1426   -0.5927 H   0  0  0  0  0  0  0  0  0  0  0  0
   -3.0810   -0.2353   -1.3761 H   0  0  0  0  0  0  0  0  0  0  0  0
   -2.5558   -1.8905   -0.9843 H   0  0  0  0  0  0  0  0  0  0  0  0
   -5.0330   -1.7339   -1.3462 H   0  0  0  0  0  0  0  0  0  0  0  0
   -4.5348   -2.3363    0.3229 H   0  0  0  0  0  0  0  0  0  0  0  0
   -5.0455    1.0094    1.8906 H   0  0  0  0  0  0  0  0  0  0  0  0
   -5.2313   -0.6796    2.3706 H   0  0  0  0  0  0  0  0  0  0  0  0
   -2.9900   -0.8027    2.5943 H   0  0  0  0  0  0  0  0  0  0  0  0
   -2.7697    0.8682    2.0531 H   0  0  0  0  0  0  0  0  0  0  0  0
   -5.2002    2.1007   -0.4359 H   0  0  0  0  0  0  0  0  0  0  0  0
   -7.1038    3.4272   -1.3805 H   0  0  0  0  0  0  0  0  0  0  0  0
   -9.2990    2.3427   -1.6591 H   0  0  0  0  0  0  0  0  0  0  0  0
  -10.7024    0.4826   -1.4695 H   0  0  0  0  0  0  0  0  0  0  0  0
  -11.0357   -1.8614   -0.8223 H   0  0  0  0  0  0  0  0  0  0  0  0
   -9.1296   -3.1737    0.1211 H   0  0  0  0  0  0  0  0  0  0  0  0
   -6.9630   -2.1379    0.4045 H   0  0  0  0  0  0  0  0  0  0  0  0
    3.6028   -0.9762   -0.0876 H   0  0  0  0  0  0  0  0  0  0  0  0
  1  2  1  0
  2  3  1  0
  3  4  1  0
  4  5  1  0
  5  6  1  0
  6  7  1  0
  5  8  1  0
  8  9  2  0
  9 10  1  0
 10 11  2  0
 11 12  1  0
 12 13  2  0
 13 14  1  0
 14 15  2  0
 15 16  1  0
 16 17  1  0
 17 18  1  0
 18 19  2  0
 18 20  1  0
 20 21  1  0
 21 22  1  0
 22 23  1  0
 23 24  1  0
 24 25  1  0
 23 26  1  0
 26 27  2  0
 27 28  1  0
 28 29  2  0
 29 30  1  0
 30 31  2  0
 31 32  1  0
 32 33  2  0
 33 34  1  0
 34 35  2  0
 15 36  1  0
 36 37  2  0
  7  2  1  0
 37  8  1  0
 37 12  1  0
 25 20  1  0
 35 26  1  0
 35 30  1  0
  1 38  1  0
  1 39  1  0
  1 40  1  0
  3 41  1  0
  3 42  1  0
  4 43  1  0
  4 44  1  0
  6 45  1  0
  6 46  1  0
  7 47  1  0
  7 48  1  0
  9 49  1  0
 10 50  1  0
 11 51  1  0
 13 52  1  0
 14 53  1  0
 17 54  1  0
 17 55  1  0
 21 56  1  0
 21 57  1  0
 22 58  1  0
 22 59  1  0
 24 60  1  0
 24 61  1  0
 25 62  1  0
 25 63  1  0
 27 64  1  0
 28 65  1  0
 29 66  1  0
 31 67  1  0
 32 68  1  0
 33 69  1  0
 34 70  1  0
 36 71  1  0
M  END
$$$$
[H]C1=C(C(=O)[O-])N2C(=O)/C(=C(\[H])c3nc4c([H])c([H])c([H])c([H])n4c3[H])[C@@]2([H])S1
     RDKit          3D

 29 32  0  0  0  0  0  0  0  0999 V2000
   -6.3898   -0.0933   -1.7488 O   0  0  0  0  0  0  0  0  0  0  0  0
   -5.6090    0.2071   -0.6392 C   0  0  0  0  0  0  0  0  0  0  0  0
   -6.1786    0.7023    0.3469 O   0  0  0  0  0  0  0  0  0  0  0  0
   -4.1734   -0.0597   -0.6591 C   0  0  0  0  0  0  0  0  0  0  0  0
   -3.5712   -0.5845   -1.7049 C   0  0  0  0  0  0  0  0  0  0  0  0
   -1.8420   -0.7156   -1.2616 S   0  0  0  0  0  0  0  0  0  0  0  0
   -1.9712    0.6062    0.0284 C   0  0  1  0  0  0  0  0  0  0  0  0
   -3.3431    0.1978    0.4382 N   0  0  0  0  0  0  0  0  0  0  0  0
   -2.8441    0.3515    1.7846 C   0  0  0  0  0  0  0  0  0  0  0  0
   -3.3542    0.5002    2.9151 O   0  0  0  0  0  0  0  0  0  0  0  0
   -1.4533    0.2674    1.3391 C   0  0  0  0  0  0  0  0  0  0  0  0
   -0.2983    0.0047    1.8908 C   0  0  0  0  0  0  0  0  0  0  0  0
    0.9374    0.0131    1.0899 C   0  0  0  0  0  0  0  0  0  0  0  0
    2.0051   -0.8394    1.2378 C   0  0  0  0  0  0  0  0  0  0  0  0
    2.9625   -0.5463    0.3371 N   0  0  0  0  0  0  0  0  0  0  0  0
    4.1745   -1.0754    0.0766 C   0  0  0  0  0  0  0  0  0  0  0  0
    4.9753   -0.5669   -0.9339 C   0  0  0  0  0  0  0  0  0  0  0  0
    4.5153    0.4981   -1.6792 C   0  0  0  0  0  0  0  0  0  0  0  0
    3.2687    1.0092   -1.3789 C   0  0  0  0  0  0  0  0  0  0  0  0
    2.4736    0.5035   -0.3749 C   0  0  0  0  0  0  0  0  0  0  0  0
    1.2522    0.8385    0.0816 N   0  0  0  0  0  0  0  0  0  0  0  0
   -3.9948   -0.8733   -2.6170 H   0  0  0  0  0  0  0  0  0  0  0  0
   -1.8953    1.6156   -0.3569 H   0  0  0  0  0  0  0  0  0  0  0  0
   -0.1910   -0.2294    2.9523 H   0  0  0  0  0  0  0  0  0  0  0  0
    2.0902   -1.6357    1.9605 H   0  0  0  0  0  0  0  0  0  0  0  0
    4.5528   -1.9113    0.6504 H   0  0  0  0  0  0  0  0  0  0  0  0
    5.9492   -0.9829   -1.1525 H   0  0  0  0  0  0  0  0  0  0  0  0
    5.0694    0.9560   -2.4821 H   0  0  0  0  0  0  0  0  0  0  0  0
    2.8833    1.8427   -1.9452 H   0  0  0  0  0  0  0  0  0  0  0  0
  1  2  1  0
  2  3  2  0
  2  4  1  0
  4  5  2  0
  5  6  1  0
  6  7  1  0
  7  8  1  0
  8  9  1  0
  9 10  2  0
  9 11  1  0
 11 12  2  0
 12 13  1  0
 13 14  2  0
 14 15  1  0
 15 16  1  0
 16 17  2  0
 17 18  1  0
 18 19  2  0
 19 20  1  0
 20 21  2  0
  8  4  1  0
 21 13  1  0
 11  7  1  0
 20 15  1  0
  5 22  1  0
  7 23  1  6
 12 24  1  0
 14 25  1  0
 16 26  1  0
 17 27  1  0
 18 28  1  0
 19 29  1  0
M  CHG  1   1  -1
M  END
$$$$
[H]c1c([H])c([H])c(C([H])([H])[H])c(N2C([H])([H])C([H])([H])N(C(=O)C([H])([H])Oc3c([H])c([H])c4c([H])c([H])c([H])c(N5C([H])([H])C([H])([H])N(C([H])([H])[H])C([H])([H])C5([H])[H])c4c3[H])C([H])([H])C2([H])[H])c1[H]
     RDKit          3D

 68 72  0  0  0  0  0  0  0  0999 V2000
   -8.1705    2.6591    0.0359 C   0  0  0  0  0  0  0  0  0  0  0  0
   -7.0541    1.7628   -0.2056 N   0  0  0  0  0  0  0  0  0  0  0  0
   -6.2571    1.5611    0.9799 C   0  0  0  0  0  0  0  0  0  0  0  0
   -5.9164    0.1157    1.2268 C   0  0  0  0  0  0  0  0  0  0  0  0
   -5.6298   -0.6224    0.0473 N   0  0  0  0  0  0  0  0  0  0  0  0
   -6.1846   -0.2131   -1.2223 C   0  0  0  0  0  0  0  0  0  0  0  0
   -7.4371    0.5714   -0.8907 C   0  0  0  0  0  0  0  0  0  0  0  0
   -4.8003   -1.7642    0.0955 C   0  0  0  0  0  0  0  0  0  0  0  0
   -5.3768   -3.0423   -0.0013 C   0  0  0  0  0  0  0  0  0  0  0  0
   -4.6195   -4.1844    0.0799 C   0  0  0  0  0  0  0  0  0  0  0  0
   -3.2724   -4.0515    0.2592 C   0  0  0  0  0  0  0  0  0  0  0  0
   -2.6547   -2.8409    0.3593 C   0  0  0  0  0  0  0  0  0  0  0  0
   -1.2740   -2.7358    0.5336 C   0  0  0  0  0  0  0  0  0  0  0  0
   -0.7245   -1.4749    0.6158 C   0  0  0  0  0  0  0  0  0  0  0  0
   -1.4707   -0.3289    0.5332 C   0  0  0  0  0  0  0  0  0  0  0  0
   -0.9632    0.9488    0.6066 O   0  0  0  0  0  0  0  0  0  0  0  0
    0.3786    1.2870    0.7524 C   0  0  0  0  0  0  0  0  0  0  0  0
    1.2484    0.8789   -0.3692 C   0  0  0  0  0  0  0  0  0  0  0  0
    0.7306    0.3497   -1.3792 O   0  0  0  0  0  0  0  0  0  0  0  0
    2.6590    1.0640   -0.3488 N   0  0  0  0  0  0  0  0  0  0  0  0
    3.4403    0.6353   -1.4718 C   0  0  0  0  0  0  0  0  0  0  0  0
    4.6810   -0.1281   -1.0462 C   0  0  0  0  0  0  0  0  0  0  0  0
    5.3786    0.5445    0.0220 N   0  0  0  0  0  0  0  0  0  0  0  0
    4.6107    0.9925    1.1538 C   0  0  0  0  0  0  0  0  0  0  0  0
    3.3335    1.6788    0.7732 C   0  0  0  0  0  0  0  0  0  0  0  0
    6.7980    0.7605   -0.0418 C   0  0  0  0  0  0  0  0  0  0  0  0
    7.3362    2.0250   -0.0336 C   0  0  0  0  0  0  0  0  0  0  0  0
    8.6978    2.2203   -0.0968 C   0  0  0  0  0  0  0  0  0  0  0  0
    9.5564    1.1418   -0.1701 C   0  0  0  0  0  0  0  0  0  0  0  0
    9.0351   -0.1240   -0.1790 C   0  0  0  0  0  0  0  0  0  0  0  0
    7.6492   -0.3108   -0.1144 C   0  0  0  0  0  0  0  0  0  0  0  0
    7.1402   -1.7065   -0.1250 C   0  0  0  0  0  0  0  0  0  0  0  0
   -2.8519   -0.4557    0.3594 C   0  0  0  0  0  0  0  0  0  0  0  0
   -3.4410   -1.6886    0.2743 C   0  0  0  0  0  0  0  0  0  0  0  0
   -8.4408    2.7051    1.1099 H   0  0  0  0  0  0  0  0  0  0  0  0
   -9.0397    2.2387   -0.5203 H   0  0  0  0  0  0  0  0  0  0  0  0
   -7.9063    3.6440   -0.3933 H   0  0  0  0  0  0  0  0  0  0  0  0
   -5.2998    2.1083    0.8576 H   0  0  0  0  0  0  0  0  0  0  0  0
   -6.7393    1.9559    1.8963 H   0  0  0  0  0  0  0  0  0  0  0  0
   -6.7524   -0.3804    1.8184 H   0  0  0  0  0  0  0  0  0  0  0  0
   -5.0562    0.0747    1.9143 H   0  0  0  0  0  0  0  0  0  0  0  0
   -5.4697    0.5191   -1.6856 H   0  0  0  0  0  0  0  0  0  0  0  0
   -6.3982   -1.0734   -1.8863 H   0  0  0  0  0  0  0  0  0  0  0  0
   -8.1585   -0.0619   -0.3167 H   0  0  0  0  0  0  0  0  0  0  0  0
   -7.9082    0.8502   -1.8422 H   0  0  0  0  0  0  0  0  0  0  0  0
   -6.4506   -3.1497   -0.1444 H   0  0  0  0  0  0  0  0  0  0  0  0
   -5.0934   -5.1704    0.0016 H   0  0  0  0  0  0  0  0  0  0  0  0
   -2.6323   -4.9393    0.3296 H   0  0  0  0  0  0  0  0  0  0  0  0
   -0.7250   -3.6529    0.5929 H   0  0  0  0  0  0  0  0  0  0  0  0
    0.3564   -1.4252    0.7671 H   0  0  0  0  0  0  0  0  0  0  0  0
    0.4171    2.4110    0.8397 H   0  0  0  0  0  0  0  0  0  0  0  0
    0.8281    0.8472    1.6894 H   0  0  0  0  0  0  0  0  0  0  0  0
    2.8485   -0.0120   -2.1585 H   0  0  0  0  0  0  0  0  0  0  0  0
    3.7702    1.5037   -2.0702 H   0  0  0  0  0  0  0  0  0  0  0  0
    5.3670   -0.2864   -1.8953 H   0  0  0  0  0  0  0  0  0  0  0  0
    4.3270   -1.1162   -0.6550 H   0  0  0  0  0  0  0  0  0  0  0  0
    5.2314    1.6564    1.7876 H   0  0  0  0  0  0  0  0  0  0  0  0
    4.3646    0.0907    1.7729 H   0  0  0  0  0  0  0  0  0  0  0  0
    3.5805    2.7292    0.4469 H   0  0  0  0  0  0  0  0  0  0  0  0
    2.6407    1.7491    1.6086 H   0  0  0  0  0  0  0  0  0  0  0  0
    6.6515    2.8732    0.0248 H   0  0  0  0  0  0  0  0  0  0  0  0
    9.1246    3.2181   -0.0903 H   0  0  0  0  0  0  0  0  0  0  0  0
   10.6277    1.3442   -0.2184 H   0  0  0  0  0  0  0  0  0  0  0  0
    9.7059   -0.9563   -0.2361 H   0  0  0  0  0  0  0  0  0  0  0  0
    7.9735   -2.4148    0.1592 H   0  0  0  0  0  0  0  0  0  0  0  0
    6.2693   -1.8491    0.5441 H   0  0  0  0  0  0  0  0  0  0  0  0
    6.8459   -2.0151   -1.1427 H   0  0  0  0  0  0  0  0  0  0  0  0
   -3.4346    0.4591    0.2814 H   0  0  0  0  0  0  0  0  0  0  0  0
  1  2  1  0
  2  3  1  0
  3  4  1  0
  4  5  1  0
  5  6  1  0
  6  7  1  0
  5  8  1  0
  8  9  2  0
  9 10  1  0
 10 11  2  0
 11 12  1  0
 12 13  2  0
 13 14  1  0
 14 15  2  0
 15 16  1  0
 16 17  1  0
 17 18  1  0
 18 19  2  0
 18 20  1  0
 20 21  1  0
 21 22  1  0
 22 23  1  0
 23 24  1  0
 24 25  1  0
 23 26  1  0
 26 27  2  0
 27 28  1  0
 28 29  2  0
 29 30  1  0
 30 31  2  0
 31 32  1  0
 15 33  1  0
 33 34  2  0
  7  2  1  0
 34  8  1  0
 34 12  1  0
 25 20  1  0
 31 26  1  0
  1 35  1  0
  1 36  1  0
  1 37  1  0
  3 38  1  0
  3 39  1  0
  4 40  1  0
  4 41  1  0
  6 42  1  0
  6 43  1  0
  7 44  1  0
  7 45  1  0
  9 46  1  0
 10 47  1  0
 11 48  1  0
 13 49  1  0
 14 50  1  0
 17 51  1  0
 17 52  1  0
 21 53  1  0
 21 54  1  0
 22 55  1  0
 22 56  1  0
 24 57  1  0
 24 58  1  0
 25 59  1  0
 25 60  1  0
 27 61  1  0
 28 62  1  0
 29 63  1  0
 30 64  1  0
 32 65  1  0
 32 66  1  0
 32 67  1  0
 33 68  1  0
M  END
$$$$
[H]OC(=O)c1c(O[H])c([H])c2c(O[H])c([H])c(O[H])c([H])c2c1[H]
     RDKit          3D

 24 25  0  0  0  0  0  0  0  0999 V2000
    4.3189    0.2222    0.7197 O   0  0  0  0  0  0  0  0  0  0  0  0
    3.2704    0.6415   -0.0453 C   0  0  0  0  0  0  0  0  0  0  0  0
    3.5565    1.4578   -0.9964 O   0  0  0  0  0  0  0  0  0  0  0  0
    1.8970    0.2266    0.1540 C   0  0  0  0  0  0  0  0  0  0  0  0
    0.9331    0.7555   -0.7279 C   0  0  0  0  0  0  0  0  0  0  0  0
   -0.3893    0.4347   -0.6340 C   0  0  0  0  0  0  0  0  0  0  0  0
   -1.3401    0.9579   -1.5060 C   0  0  0  0  0  0  0  0  0  0  0  0
   -2.6765    0.6417   -1.4211 C   0  0  0  0  0  0  0  0  0  0  0  0
   -3.6172    1.1741   -2.3022 O   0  0  0  0  0  0  0  0  0  0  0  0
   -3.0413   -0.2283   -0.4213 C   0  0  0  0  0  0  0  0  0  0  0  0
   -2.0924   -0.7610    0.4621 C   0  0  0  0  0  0  0  0  0  0  0  0
   -2.5314   -1.6209    1.4322 O   0  0  0  0  0  0  0  0  0  0  0  0
   -0.7477   -0.4397    0.3727 C   0  0  0  0  0  0  0  0  0  0  0  0
    0.1750   -0.9647    1.2405 C   0  0  0  0  0  0  0  0  0  0  0  0
    1.5491   -0.6378    1.1509 C   0  0  0  0  0  0  0  0  0  0  0  0
    2.4108   -1.2013    2.0524 O   0  0  0  0  0  0  0  0  0  0  0  0
    5.0293   -0.4151    0.4118 H   0  0  0  0  0  0  0  0  0  0  0  0
    1.2335    1.4445   -1.5172 H   0  0  0  0  0  0  0  0  0  0  0  0
   -1.0076    1.6413   -2.2807 H   0  0  0  0  0  0  0  0  0  0  0  0
   -4.1169    2.0226   -2.1534 H   0  0  0  0  0  0  0  0  0  0  0  0
   -4.0892   -0.4872   -0.3410 H   0  0  0  0  0  0  0  0  0  0  0  0
   -1.9899   -2.0792    2.1285 H   0  0  0  0  0  0  0  0  0  0  0  0
   -0.0882   -1.6421    2.0238 H   0  0  0  0  0  0  0  0  0  0  0  0
    3.3541   -1.1430    2.1979 H   0  0  0  0  0  0  0  0  0  0  0  0
  1  2  1  0
  2  3  2  0
  2  4  1  0
  4  5  2  0
  5  6  1  0
  6  7  2  0
  7  8  1  0
  8  9  1  0
  8 10  2  0
 10 11  1  0
 11 12  1  0
 11 13  2  0
 13 14  1  0
 14 15  2  0
 15 16  1  0
 15  4  1  0
 13  6  1  0
  1 17  1  0
  5 18  1  0
  7 19  1  0
  9 20  1  0
 10 21  1  0
 12 22  1  0
 14 23  1  0
 16 24  1  0
M  END
$$$$
[H]C1=C([H])C([H])(F)C([H])([H])C([H])=C1N([H])C(=O)C1(C(=O)N([H])c2c([H])c([H])c(Oc3c([H])c([H])nc4c([H])c(OC([H])([H])C([H])([H])C([H])([H])N5C([H])([H])C([H])([H])C([H])([H])C5([H])[H])c(OC([H])([H])[H])c([H])c34)c(F)c2[H])C([H])([H])C1([H])[H]
     RDKit          3D

 81 86  0  0  0  0  0  0  0  0999 V2000
   -3.5877    0.0230   -2.5605 C   0  0  0  0  0  0  0  0  0  0  0  0
   -4.4433   -0.0435   -1.4508 O   0  0  0  0  0  0  0  0  0  0  0  0
   -3.9880   -0.2494   -0.1491 C   0  0  0  0  0  0  0  0  0  0  0  0
   -2.6478   -0.3994    0.1096 C   0  0  0  0  0  0  0  0  0  0  0  0
   -2.1587   -0.6042    1.3755 C   0  0  0  0  0  0  0  0  0  0  0  0
   -0.7923   -0.7567    1.6112 C   0  0  0  0  0  0  0  0  0  0  0  0
    0.0250   -0.6916    0.5279 O   0  0  0  0  0  0  0  0  0  0  0  0
    1.3913   -0.8525    0.4754 C   0  0  0  0  0  0  0  0  0  0  0  0
    2.2342    0.1729    0.0692 C   0  0  0  0  0  0  0  0  0  0  0  0
    3.5918   -0.0103    0.0220 C   0  0  0  0  0  0  0  0  0  0  0  0
    4.2120   -1.2204    0.3732 C   0  0  0  0  0  0  0  0  0  0  0  0
    5.6358   -1.3113    0.3171 N   0  0  0  0  0  0  0  0  0  0  0  0
    6.4056   -2.4553    0.1478 C   0  0  0  0  0  0  0  0  0  0  0  0
    5.7718   -3.5663    0.0427 O   0  0  0  0  0  0  0  0  0  0  0  0
    7.8601   -2.5227    0.0895 C   0  0  0  0  0  0  0  0  0  0  0  0
    8.4588   -3.8753   -0.2867 C   0  0  0  0  0  0  0  0  0  0  0  0
    8.4428   -3.4847    1.1392 C   0  0  0  0  0  0  0  0  0  0  0  0
    8.7035   -1.3424   -0.2300 C   0  0  0  0  0  0  0  0  0  0  0  0
    9.9255   -1.4864    0.1717 O   0  0  0  0  0  0  0  0  0  0  0  0
    8.2626   -0.2155   -0.8859 N   0  0  0  0  0  0  0  0  0  0  0  0
    8.9663    0.9916   -1.2279 C   0  0  0  0  0  0  0  0  0  0  0  0
   10.2261    1.1961   -0.9431 C   0  0  0  0  0  0  0  0  0  0  0  0
   10.9546    2.4310   -1.2907 C   0  0  0  0  0  0  0  0  0  0  0  0
   10.1946    3.4846   -1.9837 C   0  0  0  0  0  0  0  0  0  0  0  0
   10.2335    4.6437   -1.1848 F   0  0  0  0  0  0  0  0  0  0  0  0
    8.8021    3.1813   -2.2644 C   0  0  0  0  0  0  0  0  0  0  0  0
    8.2359    2.0634   -1.9301 C   0  0  0  0  0  0  0  0  0  0  0  0
    3.3805   -2.2291    0.7736 C   0  0  0  0  0  0  0  0  0  0  0  0
    1.9865   -2.0377    0.8203 C   0  0  0  0  0  0  0  0  0  0  0  0
    1.2365   -3.0982    1.2142 F   0  0  0  0  0  0  0  0  0  0  0  0
   -0.4287   -0.9581    2.9201 C   0  0  0  0  0  0  0  0  0  0  0  0
   -1.3521   -1.0070    3.9339 C   0  0  0  0  0  0  0  0  0  0  0  0
   -2.6377   -0.8567    3.6575 N   0  0  0  0  0  0  0  0  0  0  0  0
   -3.0892   -0.6527    2.3915 C   0  0  0  0  0  0  0  0  0  0  0  0
   -4.4416   -0.5052    2.1646 C   0  0  0  0  0  0  0  0  0  0  0  0
   -4.8811   -0.3029    0.8827 C   0  0  0  0  0  0  0  0  0  0  0  0
   -6.2490   -0.1596    0.6965 O   0  0  0  0  0  0  0  0  0  0  0  0
   -7.1921   -0.2052    1.7204 C   0  0  0  0  0  0  0  0  0  0  0  0
   -8.5663   -0.0150    1.1322 C   0  0  0  0  0  0  0  0  0  0  0  0
   -8.6955    1.3020    0.4220 C   0  0  0  0  0  0  0  0  0  0  0  0
  -10.0037    1.4621   -0.1281 N   0  0  0  0  0  0  0  0  0  0  0  0
  -10.2287    2.6808   -0.8350 C   0  0  0  0  0  0  0  0  0  0  0  0
  -11.1566    2.3511   -2.0081 C   0  0  0  0  0  0  0  0  0  0  0  0
  -11.7165    1.0092   -1.5741 C   0  0  0  0  0  0  0  0  0  0  0  0
  -10.4689    0.3786   -0.9383 C   0  0  0  0  0  0  0  0  0  0  0  0
   -4.1462    0.4826   -3.4058 H   0  0  0  0  0  0  0  0  0  0  0  0
   -2.7486    0.7305   -2.3481 H   0  0  0  0  0  0  0  0  0  0  0  0
   -3.2042   -0.9751   -2.8684 H   0  0  0  0  0  0  0  0  0  0  0  0
   -1.9172   -0.3599   -0.6920 H   0  0  0  0  0  0  0  0  0  0  0  0
    1.7492    1.1006   -0.1989 H   0  0  0  0  0  0  0  0  0  0  0  0
    4.2444    0.7990   -0.2985 H   0  0  0  0  0  0  0  0  0  0  0  0
    6.1068   -0.3582    0.4880 H   0  0  0  0  0  0  0  0  0  0  0  0
    7.7266   -4.6220   -0.6534 H   0  0  0  0  0  0  0  0  0  0  0  0
    9.4183   -3.8918   -0.8472 H   0  0  0  0  0  0  0  0  0  0  0  0
    9.4104   -3.1476    1.6028 H   0  0  0  0  0  0  0  0  0  0  0  0
    7.7630   -3.9592    1.8454 H   0  0  0  0  0  0  0  0  0  0  0  0
    7.2650   -0.2466   -1.2614 H   0  0  0  0  0  0  0  0  0  0  0  0
   10.8241    0.4296   -0.4110 H   0  0  0  0  0  0  0  0  0  0  0  0
   11.8456    2.1794   -1.9484 H   0  0  0  0  0  0  0  0  0  0  0  0
   11.3908    2.8108   -0.3161 H   0  0  0  0  0  0  0  0  0  0  0  0
   10.6645    3.7949   -2.9610 H   0  0  0  0  0  0  0  0  0  0  0  0
    8.2315    3.9729   -2.7929 H   0  0  0  0  0  0  0  0  0  0  0  0
    7.1670    1.8981   -2.1758 H   0  0  0  0  0  0  0  0  0  0  0  0
    3.7856   -3.1876    1.0764 H   0  0  0  0  0  0  0  0  0  0  0  0
    0.6075   -1.0712    3.1537 H   0  0  0  0  0  0  0  0  0  0  0  0
   -1.0717   -1.1659    4.9745 H   0  0  0  0  0  0  0  0  0  0  0  0
   -5.1120   -0.5552    3.0169 H   0  0  0  0  0  0  0  0  0  0  0  0
   -7.1820   -1.2490    2.1462 H   0  0  0  0  0  0  0  0  0  0  0  0
   -6.9796    0.4646    2.5680 H   0  0  0  0  0  0  0  0  0  0  0  0
   -9.3685   -0.0413    1.9143 H   0  0  0  0  0  0  0  0  0  0  0  0
   -8.7385   -0.8568    0.4359 H   0  0  0  0  0  0  0  0  0  0  0  0
   -8.5595    2.1075    1.1881 H   0  0  0  0  0  0  0  0  0  0  0  0
   -7.8715    1.4342   -0.3151 H   0  0  0  0  0  0  0  0  0  0  0  0
  -10.7856    3.4045   -0.1999 H   0  0  0  0  0  0  0  0  0  0  0  0
   -9.3011    3.1863   -1.1756 H   0  0  0  0  0  0  0  0  0  0  0  0
  -11.9700    3.1048   -2.1030 H   0  0  0  0  0  0  0  0  0  0  0  0
  -10.5960    2.2617   -2.9622 H   0  0  0  0  0  0  0  0  0  0  0  0
  -12.4672    1.2054   -0.7918 H   0  0  0  0  0  0  0  0  0  0  0  0
  -12.0978    0.4163   -2.4102 H   0  0  0  0  0  0  0  0  0  0  0  0
  -10.7030   -0.5229   -0.3684 H   0  0  0  0  0  0  0  0  0  0  0  0
   -9.7919    0.1704   -1.8195 H   0  0  0  0  0  0  0  0  0  0  0  0
  1  2  1  0
  2  3  1  0
  3  4  2  0
  4  5  1  0
  5  6  2  0
  6  7  1  0
  7  8  1  0
  8  9  2  0
  9 10  1  0
 10 11  2  0
 11 12  1  0
 12 13  1  0
 13 14  2  0
 13 15  1  0
 15 16  1  0
 16 17  1  0
 15 18  1  0
 18 19  2  0
 18 20  1  0
 20 21  1  0
 21 22  2  0
 22 23  1  0
 23 24  1  0
 24 25  1  0
 24 26  1  0
 26 27  2  0
 11 28  1  0
 28 29  2  0
 29 30  1  0
  6 31  1  0
 31 32  2  0
 32 33  1  0
 33 34  2  0
 34 35  1  0
 35 36  2  0
 36 37  1  0
 37 38  1  0
 38 39  1  0
 39 40  1  0
 40 41  1  0
 41 42  1  0
 42 43  1  0
 43 44  1  0
 44 45  1  0
 36  3  1  0
 45 41  1  0
 34  5  1  0
 29  8  1  0
 17 15  1  0
 27 21  1  0
  1 46  1  0
  1 47  1  0
  1 48  1  0
  4 49  1  0
  9 50  1  0
 10 51  1  0
 12 52  1  0
 16 53  1  0
 16 54  1  0
 17 55  1  0
 17 56  1  0
 20 57  1  0
 22 58  1  0
 23 59  1  0
 23 60  1  0
 24 61  1  0
 26 62  1  0
 27 63  1  0
 28 64  1  0
 31 65  1  0
 32 66  1  0
 35 67  1  0
 38 68  1  0
 38 69  1  0
 39 70  1  0
 39 71  1  0
 40 72  1  0
 40 73  1  0
 42 74  1  0
 42 75  1  0
 43 76  1  0
 43 77  1  0
 44 78  1  0
 44 79  1  0
 45 80  1  0
 45 81  1  0
M  END
$$$$
[H]Oc1c([H])c(-c2c([H])c([H])c([H])c(C#N)c2[H])nc2c([H])c(OC([H])([H])[H])c(-c3oc([H])nc3[H])c([H])c12
     RDKit          3D

 39 42  0  0  0  0  0  0  0  0999 V2000
    3.2863    3.1367    0.1056 C   0  0  0  0  0  0  0  0  0  0  0  0
    3.5490    1.7699    0.0830 O   0  0  0  0  0  0  0  0  0  0  0  0
    2.5920    0.7788    0.0512 C   0  0  0  0  0  0  0  0  0  0  0  0
    1.2629    1.1299    0.0402 C   0  0  0  0  0  0  0  0  0  0  0  0
    0.2612    0.1499    0.0081 C   0  0  0  0  0  0  0  0  0  0  0  0
   -1.0344    0.4912   -0.0027 N   0  0  0  0  0  0  0  0  0  0  0  0
   -2.0249   -0.4471   -0.0339 C   0  0  0  0  0  0  0  0  0  0  0  0
   -1.6913   -1.7766   -0.0549 C   0  0  0  0  0  0  0  0  0  0  0  0
   -0.3577   -2.1786   -0.0448 C   0  0  0  0  0  0  0  0  0  0  0  0
    0.0161   -3.4998   -0.0650 O   0  0  0  0  0  0  0  0  0  0  0  0
    0.6096   -1.1845   -0.0128 C   0  0  0  0  0  0  0  0  0  0  0  0
    1.9600   -1.4922   -0.0007 C   0  0  0  0  0  0  0  0  0  0  0  0
    2.9703   -0.5442    0.0310 C   0  0  0  0  0  0  0  0  0  0  0  0
    4.3756   -0.9044    0.0429 C   0  0  0  0  0  0  0  0  0  0  0  0
    4.9144   -2.1651    0.0259 C   0  0  0  0  0  0  0  0  0  0  0  0
    6.2738   -2.0601    0.0461 N   0  0  0  0  0  0  0  0  0  0  0  0
    6.5229   -0.7484    0.0745 C   0  0  0  0  0  0  0  0  0  0  0  0
    5.3826   -0.0760    0.0722 O   0  0  0  0  0  0  0  0  0  0  0  0
   -3.4218   -0.0549   -0.0451 C   0  0  0  0  0  0  0  0  0  0  0  0
   -4.4718   -0.9339   -0.0759 C   0  0  0  0  0  0  0  0  0  0  0  0
   -5.7915   -0.5265   -0.0858 C   0  0  0  0  0  0  0  0  0  0  0  0
   -6.0717    0.8074   -0.0640 C   0  0  0  0  0  0  0  0  0  0  0  0
   -5.0619    1.7391   -0.0327 C   0  0  0  0  0  0  0  0  0  0  0  0
   -3.7721    1.3026   -0.0238 C   0  0  0  0  0  0  0  0  0  0  0  0
   -5.4369    3.1228   -0.0112 C   0  0  0  0  0  0  0  0  0  0  0  0
   -5.7384    4.2406    0.0023 N   0  0  0  0  0  0  0  0  0  0  0  0
    3.2068    3.5614    1.1273 H   0  0  0  0  0  0  0  0  0  0  0  0
    4.1841    3.6485   -0.3489 H   0  0  0  0  0  0  0  0  0  0  0  0
    2.4325    3.4480   -0.5262 H   0  0  0  0  0  0  0  0  0  0  0  0
    0.9574    2.1648    0.0559 H   0  0  0  0  0  0  0  0  0  0  0  0
   -2.3997   -2.5957   -0.0800 H   0  0  0  0  0  0  0  0  0  0  0  0
   -0.6634   -4.2342   -0.0882 H   0  0  0  0  0  0  0  0  0  0  0  0
    2.2326   -2.5308   -0.0169 H   0  0  0  0  0  0  0  0  0  0  0  0
    4.3717   -3.1115    0.0006 H   0  0  0  0  0  0  0  0  0  0  0  0
    7.5286   -0.3385    0.0958 H   0  0  0  0  0  0  0  0  0  0  0  0
   -4.2789   -1.9984   -0.0937 H   0  0  0  0  0  0  0  0  0  0  0  0
   -6.5811   -1.2572   -0.1103 H   0  0  0  0  0  0  0  0  0  0  0  0
   -7.1171    1.1192   -0.0720 H   0  0  0  0  0  0  0  0  0  0  0  0
   -2.9760    2.0478    0.0011 H   0  0  0  0  0  0  0  0  0  0  0  0
  1  2  1  0
  2  3  1  0
  3  4  2  0
  4  5  1  0
  5  6  2  0
  6  7  1  0
  7  8  2  0
  8  9  1  0
  9 10  1  0
  9 11  2  0
 11 12  1  0
 12 13  2  0
 13 14  1  0
 14 15  2  0
 15 16  1  0
 16 17  2  0
 17 18  1  0
  7 19  1  0
 19 20  2  0
 20 21  1  0
 21 22  2  0
 22 23  1  0
 23 24  2  0
 23 25  1  0
 25 26  3  0
 13  3  1  0
 18 14  1  0
 24 19  1  0
 11  5  1  0
  1 27  1  0
  1 28  1  0
  1 29  1  0
  4 30  1  0
  8 31  1  0
 10 32  1  0
 12 33  1  0
 15 34  1  0
 17 35  1  0
 20 36  1  0
 21 37  1  0
 22 38  1  0
 24 39  1  0
M  END
$$$$
[H]Oc1c([H])c([H])c(-c2nc3c([H])c(O[H])c([H])c(Br)c3o2)c([H])c1[H]
     RDKit          3D

 26 28  0  0  0  0  0  0  0  0999 V2000
    5.7545    0.5448    0.6543 O   0  0  0  0  0  0  0  0  0  0  0  0
    4.3758    0.4166    0.4486 C   0  0  0  0  0  0  0  0  0  0  0  0
    3.8252    0.6280   -0.7835 C   0  0  0  0  0  0  0  0  0  0  0  0
    2.4478    0.4934   -0.9603 C   0  0  0  0  0  0  0  0  0  0  0  0
    1.6538    0.1525    0.0909 C   0  0  0  0  0  0  0  0  0  0  0  0
    2.2448   -0.0527    1.3180 C   0  0  0  0  0  0  0  0  0  0  0  0
    3.5921    0.0680    1.5391 C   0  0  0  0  0  0  0  0  0  0  0  0
    0.1932   -0.0044   -0.0348 C   0  0  0  0  0  0  0  0  0  0  0  0
   -0.5336    0.1591   -1.1548 N   0  0  0  0  0  0  0  0  0  0  0  0
   -1.8464   -0.0671   -0.8945 C   0  0  0  0  0  0  0  0  0  0  0  0
   -3.0040   -0.0494   -1.6159 C   0  0  0  0  0  0  0  0  0  0  0  0
   -4.2452   -0.3281   -1.0863 C   0  0  0  0  0  0  0  0  0  0  0  0
   -5.4132   -0.3037   -1.8429 O   0  0  0  0  0  0  0  0  0  0  0  0
   -4.2810   -0.6421    0.2684 C   0  0  0  0  0  0  0  0  0  0  0  0
   -3.1203   -0.6649    1.0140 C   0  0  0  0  0  0  0  0  0  0  0  0
   -3.2196   -1.0993    2.8608 Br  0  0  0  0  0  0  0  0  0  0  0  0
   -1.8828   -0.3785    0.4486 C   0  0  0  0  0  0  0  0  0  0  0  0
   -0.6552   -0.3277    0.9090 O   0  0  0  0  0  0  0  0  0  0  0  0
    6.1788    0.3929    1.5551 H   0  0  0  0  0  0  0  0  0  0  0  0
    4.4213    0.8975   -1.6316 H   0  0  0  0  0  0  0  0  0  0  0  0
    1.9839    0.6545   -1.9237 H   0  0  0  0  0  0  0  0  0  0  0  0
    1.6169   -0.3235    2.1546 H   0  0  0  0  0  0  0  0  0  0  0  0
    4.0143   -0.1040    2.5270 H   0  0  0  0  0  0  0  0  0  0  0  0
   -2.9494    0.1969   -2.6640 H   0  0  0  0  0  0  0  0  0  0  0  0
   -5.8981    0.6015   -1.8782 H   0  0  0  0  0  0  0  0  0  0  0  0
   -5.2538   -0.8601    0.6821 H   0  0  0  0  0  0  0  0  0  0  0  0
  1  2  1  0
  2  3  2  0
  3  4  1  0
  4  5  2  0
  5  6  1  0
  6  7  2  0
  5  8  1  0
  8  9  2  0
  9 10  1  0
 10 11  2  0
 11 12  1  0
 12 13  1  0
 12 14  2  0
 14 15  1  0
 15 16  1  0
 15 17  2  0
 17 18  1  0
  7  2  1  0
 18  8  1  0
 17 10  1  0
  1 19  1  0
  3 20  1  0
  4 21  1  0
  6 22  1  0
  7 23  1  0
 11 24  1  0
 13 25  1  0
 14 26  1  0
M  END
$$$$
[H]/C(C(=O)N([H])c1c(OC([H])([H])C([H])([H])[H])c([H])c2nc([H])nc(N([H])c3c([H])c([H])c(F)c(Cl)c3[H])c2c1[H])=C(/[H])C([H])([H])N1C([H])([H])[C@]2([H])OC([H])([H])C([H])([H])O[C@]2([H])C1([H])[H]
     RDKit          3D

 64 68  0  0  0  0  0  0  0  0999 V2000
   -1.8317   -5.7401   -1.0797 C   0  0  0  0  0  0  0  0  0  0  0  0
   -0.9852   -4.7790   -1.8686 C   0  0  0  0  0  0  0  0  0  0  0  0
   -0.8687   -3.5059   -1.3110 O   0  0  0  0  0  0  0  0  0  0  0  0
   -1.9057   -2.6196   -1.0762 C   0  0  0  0  0  0  0  0  0  0  0  0
   -3.1914   -2.9286   -1.3925 C   0  0  0  0  0  0  0  0  0  0  0  0
   -4.2008   -2.0048   -1.1379 C   0  0  0  0  0  0  0  0  0  0  0  0
   -5.4437   -2.3363   -1.4561 N   0  0  0  0  0  0  0  0  0  0  0  0
   -6.4427   -1.4784   -1.2259 C   0  0  0  0  0  0  0  0  0  0  0  0
   -6.1488   -0.3137   -0.6813 N   0  0  0  0  0  0  0  0  0  0  0  0
   -4.9390    0.1175   -0.3248 C   0  0  0  0  0  0  0  0  0  0  0  0
   -4.6949    1.3713    0.2367 N   0  0  0  0  0  0  0  0  0  0  0  0
   -5.6570    2.3666    0.5621 C   0  0  0  0  0  0  0  0  0  0  0  0
   -6.9905    2.1611    0.7247 C   0  0  0  0  0  0  0  0  0  0  0  0
   -7.8209    3.2415    1.0207 C   0  0  0  0  0  0  0  0  0  0  0  0
   -7.3569    4.5217    1.1603 C   0  0  0  0  0  0  0  0  0  0  0  0
   -8.1991    5.5582    1.4521 F   0  0  0  0  0  0  0  0  0  0  0  0
   -6.0087    4.7346    0.9977 C   0  0  0  0  0  0  0  0  0  0  0  0
   -5.4042    6.3710    1.1780 Cl  0  0  0  0  0  0  0  0  0  0  0  0
   -5.1997    3.6712    0.7069 C   0  0  0  0  0  0  0  0  0  0  0  0
   -3.8871   -0.7750   -0.5631 C   0  0  0  0  0  0  0  0  0  0  0  0
   -2.5829   -0.4941   -0.2567 C   0  0  0  0  0  0  0  0  0  0  0  0
   -1.5621   -1.3759   -0.4920 C   0  0  0  0  0  0  0  0  0  0  0  0
   -0.2100   -1.1376   -0.1818 N   0  0  0  0  0  0  0  0  0  0  0  0
    0.3282    0.0376    0.3123 C   0  0  0  0  0  0  0  0  0  0  0  0
   -0.2966    1.0662    0.5505 O   0  0  0  0  0  0  0  0  0  0  0  0
    1.7951    0.0926    0.5935 C   0  0  0  0  0  0  0  0  0  0  0  0
    2.3839    1.1612    1.0524 C   0  0  0  0  0  0  0  0  0  0  0  0
    3.8155    1.3224    1.3617 C   0  0  0  0  0  0  0  0  0  0  0  0
    4.5662    0.1628    1.0727 N   0  0  0  0  0  0  0  0  0  0  0  0
    4.7471   -0.1222   -0.3095 C   0  0  0  0  0  0  0  0  0  0  0  0
    6.2107    0.1687   -0.6211 C   0  0  1  0  0  0  0  0  0  0  0  0
    6.4190    1.3575   -1.2369 O   0  0  0  0  0  0  0  0  0  0  0  0
    7.3788    2.1902   -0.7606 C   0  0  0  0  0  0  0  0  0  0  0  0
    8.5143    1.3444   -0.1831 C   0  0  0  0  0  0  0  0  0  0  0  0
    7.9501    0.7548    0.9675 O   0  0  0  0  0  0  0  0  0  0  0  0
    6.9120   -0.0751    0.6773 C   0  0  1  0  0  0  0  0  0  0  0  0
    5.8475    0.0875    1.7346 C   0  0  0  0  0  0  0  0  0  0  0  0
   -1.1984   -6.5710   -0.6759 H   0  0  0  0  0  0  0  0  0  0  0  0
   -2.2587   -5.1643   -0.2162 H   0  0  0  0  0  0  0  0  0  0  0  0
   -2.6418   -6.1301   -1.7291 H   0  0  0  0  0  0  0  0  0  0  0  0
   -1.4052   -4.6699   -2.8985 H   0  0  0  0  0  0  0  0  0  0  0  0
    0.0433   -5.2269   -1.9575 H   0  0  0  0  0  0  0  0  0  0  0  0
   -3.4836   -3.8847   -1.8540 H   0  0  0  0  0  0  0  0  0  0  0  0
   -7.4867   -1.7504   -1.4899 H   0  0  0  0  0  0  0  0  0  0  0  0
   -3.6871    1.6359    0.4594 H   0  0  0  0  0  0  0  0  0  0  0  0
   -7.4209    1.1655    0.6447 H   0  0  0  0  0  0  0  0  0  0  0  0
   -8.8812    3.0315    1.1397 H   0  0  0  0  0  0  0  0  0  0  0  0
   -4.1338    3.9057    0.5885 H   0  0  0  0  0  0  0  0  0  0  0  0
   -2.3803    0.4686    0.1929 H   0  0  0  0  0  0  0  0  0  0  0  0
    0.4847   -1.9485   -0.3441 H   0  0  0  0  0  0  0  0  0  0  0  0
    2.3752   -0.7984    0.4175 H   0  0  0  0  0  0  0  0  0  0  0  0
    1.6988    2.0288    1.2159 H   0  0  0  0  0  0  0  0  0  0  0  0
    4.1767    2.1352    0.6538 H   0  0  0  0  0  0  0  0  0  0  0  0
    3.9347    1.6908    2.4074 H   0  0  0  0  0  0  0  0  0  0  0  0
    4.5115   -1.1970   -0.5069 H   0  0  0  0  0  0  0  0  0  0  0  0
    4.0664    0.4790   -0.9280 H   0  0  0  0  0  0  0  0  0  0  0  0
    6.5289   -0.6410   -1.3244 H   0  0  0  0  0  0  0  0  0  0  0  0
    7.7825    2.7814   -1.6147 H   0  0  0  0  0  0  0  0  0  0  0  0
    7.0404    2.8910    0.0291 H   0  0  0  0  0  0  0  0  0  0  0  0
    9.3536    1.9540    0.1854 H   0  0  0  0  0  0  0  0  0  0  0  0
    8.8076    0.5478   -0.9018 H   0  0  0  0  0  0  0  0  0  0  0  0
    7.3014   -1.1339    0.7331 H   0  0  0  0  0  0  0  0  0  0  0  0
    5.9938    1.0186    2.3184 H   0  0  0  0  0  0  0  0  0  0  0  0
    5.8380   -0.7922    2.4165 H   0  0  0  0  0  0  0  0  0  0  0  0
  1  2  1  0
  2  3  1  0
  3  4  1  0
  4  5  2  0
  5  6  1  0
  6  7  2  0
  7  8  1  0
  8  9  2  0
  9 10  1  0
 10 11  1  0
 11 12  1  0
 12 13  2  0
 13 14  1  0
 14 15  2  0
 15 16  1  0
 15 17  1  0
 17 18  1  0
 17 19  2  0
 10 20  2  0
 20 21  1  0
 21 22  2  0
 22 23  1  0
 23 24  1  0
 24 25  2  0
 24 26  1  0
 26 27  2  0
 27 28  1  0
 28 29  1  0
 29 30  1  0
 30 31  1  0
 31 32  1  0
 32 33  1  0
 33 34  1  0
 34 35  1  0
 35 36  1  0
 36 37  1  0
 22  4  1  0
 37 29  1  0
 20  6  1  0
 36 31  1  0
 19 12  1  0
  1 38  1  0
  1 39  1  0
  1 40  1  0
  2 41  1  0
  2 42  1  0
  5 43  1  0
  8 44  1  0
 11 45  1  0
 13 46  1  0
 14 47  1  0
 19 48  1  0
 21 49  1  0
 23 50  1  0
 26 51  1  0
 27 52  1  0
 28 53  1  0
 28 54  1  0
 30 55  1  0
 30 56  1  0
 31 57  1  6
 33 58  1  0
 33 59  1  0
 34 60  1  0
 34 61  1  0
 36 62  1  6
 37 63  1  0
 37 64  1  0
M  END
$$$$
[H]c1nc2c(C([H])([H])[H])c([H])c(-c3c(C([H])(C([H])([H])[H])C([H])([H])[H])c4c([H])c(C5([H])C([H])([H])C([H])([H])N(S(=O)(=O)C([H])([H])[H])C([H])([H])C5([H])[H])c([H])c([H])c4n3[H])c([H])n2n1
     RDKit          3D

 61 65  0  0  0  0  0  0  0  0999 V2000
   -2.0738   -2.5781   -1.4606 C   0  0  0  0  0  0  0  0  0  0  0  0
   -2.4436   -1.5855   -0.4531 C   0  0  0  0  0  0  0  0  0  0  0  0
   -1.7895   -2.2117    0.9026 C   0  0  0  0  0  0  0  0  0  0  0  0
   -1.9627   -0.2177   -0.4811 C   0  0  0  0  0  0  0  0  0  0  0  0
   -2.6354    0.9624   -0.1975 C   0  0  0  0  0  0  0  0  0  0  0  0
   -1.7547    1.9385   -0.0681 N   0  0  0  0  0  0  0  0  0  0  0  0
   -0.5079    1.4884   -0.2483 C   0  0  0  0  0  0  0  0  0  0  0  0
    0.6854    2.1620   -0.1201 C   0  0  0  0  0  0  0  0  0  0  0  0
    1.8377    1.4364   -0.2478 C   0  0  0  0  0  0  0  0  0  0  0  0
    1.7832    0.0640   -0.5034 C   0  0  0  0  0  0  0  0  0  0  0  0
    0.5772   -0.5659   -0.6350 C   0  0  0  0  0  0  0  0  0  0  0  0
   -0.6200    0.1394   -0.5080 C   0  0  0  0  0  0  0  0  0  0  0  0
    3.0911   -0.6732   -0.4204 C   0  0  0  0  0  0  0  0  0  0  0  0
    3.6947   -0.3354    0.9500 C   0  0  0  0  0  0  0  0  0  0  0  0
    5.1175    0.1179    0.8881 C   0  0  0  0  0  0  0  0  0  0  0  0
    5.9229   -0.7882    0.1226 N   0  0  0  0  0  0  0  0  0  0  0  0
    5.4322   -0.9512   -1.1995 C   0  0  0  0  0  0  0  0  0  0  0  0
    4.0734   -0.3718   -1.4758 C   0  0  0  0  0  0  0  0  0  0  0  0
    7.5530   -0.3499    0.2921 S   0  0  0  0  0  0  0  0  0  0  0  0
    7.9352    1.2620   -0.2926 C   0  0  0  0  0  0  0  0  0  0  0  0
    8.4389   -1.3592   -0.4164 O   0  0  0  0  0  0  0  0  0  0  0  0
    7.9279   -0.4257    1.7680 O   0  0  0  0  0  0  0  0  0  0  0  0
   -4.0704    1.0381    0.0006 C   0  0  0  0  0  0  0  0  0  0  0  0
   -4.9359    0.2202   -0.6682 C   0  0  0  0  0  0  0  0  0  0  0  0
   -6.2723    0.1794   -0.3645 C   0  0  0  0  0  0  0  0  0  0  0  0
   -7.2576   -0.7064   -1.0600 C   0  0  0  0  0  0  0  0  0  0  0  0
   -6.7233    0.9974    0.6411 C   0  0  0  0  0  0  0  0  0  0  0  0
   -7.9494    1.1905    1.1917 N   0  0  0  0  0  0  0  0  0  0  0  0
   -7.8618    2.0975    2.1730 C   0  0  0  0  0  0  0  0  0  0  0  0
   -6.5728    2.4694    2.2298 N   0  0  0  0  0  0  0  0  0  0  0  0
   -5.8684    1.7990    1.2903 N   0  0  0  0  0  0  0  0  0  0  0  0
   -4.5492    1.8391    0.9909 C   0  0  0  0  0  0  0  0  0  0  0  0
   -1.5203   -2.2088   -2.3739 H   0  0  0  0  0  0  0  0  0  0  0  0
   -3.0205   -3.1259   -1.8487 H   0  0  0  0  0  0  0  0  0  0  0  0
   -1.4909   -3.4057   -1.0532 H   0  0  0  0  0  0  0  0  0  0  0  0
   -3.4951   -1.6839   -0.1631 H   0  0  0  0  0  0  0  0  0  0  0  0
   -1.0736   -2.9754    0.6085 H   0  0  0  0  0  0  0  0  0  0  0  0
   -2.5845   -2.6125    1.5188 H   0  0  0  0  0  0  0  0  0  0  0  0
   -1.2808   -1.3973    1.4233 H   0  0  0  0  0  0  0  0  0  0  0  0
   -1.9986    2.9350    0.1406 H   0  0  0  0  0  0  0  0  0  0  0  0
    0.7748    3.2239    0.0699 H   0  0  0  0  0  0  0  0  0  0  0  0
    2.7945    1.9525   -0.1493 H   0  0  0  0  0  0  0  0  0  0  0  0
    0.5161   -1.6077   -0.8368 H   0  0  0  0  0  0  0  0  0  0  0  0
    2.8821   -1.7716   -0.4453 H   0  0  0  0  0  0  0  0  0  0  0  0
    3.1056    0.5577    1.3485 H   0  0  0  0  0  0  0  0  0  0  0  0
    3.5688   -1.1867    1.6171 H   0  0  0  0  0  0  0  0  0  0  0  0
    5.5223    0.2026    1.8996 H   0  0  0  0  0  0  0  0  0  0  0  0
    5.1962    1.1335    0.4097 H   0  0  0  0  0  0  0  0  0  0  0  0
    5.3540   -2.0504   -1.3888 H   0  0  0  0  0  0  0  0  0  0  0  0
    6.1822   -0.5557   -1.9490 H   0  0  0  0  0  0  0  0  0  0  0  0
    3.7414   -0.8461   -2.4530 H   0  0  0  0  0  0  0  0  0  0  0  0
    4.2104    0.7346   -1.6574 H   0  0  0  0  0  0  0  0  0  0  0  0
    9.0374    1.4244   -0.2224 H   0  0  0  0  0  0  0  0  0  0  0  0
    7.6681    1.3211   -1.3673 H   0  0  0  0  0  0  0  0  0  0  0  0
    7.3572    2.0379    0.2676 H   0  0  0  0  0  0  0  0  0  0  0  0
   -4.6322   -0.4141   -1.5017 H   0  0  0  0  0  0  0  0  0  0  0  0
   -6.7717   -1.2471   -1.9209 H   0  0  0  0  0  0  0  0  0  0  0  0
   -7.5033   -1.5170   -0.3263 H   0  0  0  0  0  0  0  0  0  0  0  0
   -8.1882   -0.2130   -1.3542 H   0  0  0  0  0  0  0  0  0  0  0  0
   -8.6508    2.4815    2.8122 H   0  0  0  0  0  0  0  0  0  0  0  0
   -3.9224    2.5326    1.5881 H   0  0  0  0  0  0  0  0  0  0  0  0
  1  2  1  0
  2  3  1  0
  2  4  1  0
  4  5  2  0
  5  6  1  0
  6  7  1  0
  7  8  2  0
  8  9  1  0
  9 10  2  0
 10 11  1  0
 11 12  2  0
 10 13  1  0
 13 14  1  0
 14 15  1  0
 15 16  1  0
 16 17  1  0
 17 18  1  0
 16 19  1  0
 19 20  1  0
 19 21  2  0
 19 22  2  0
  5 23  1  0
 23 24  1  0
 24 25  2  0
 25 26  1  0
 25 27  1  0
 27 28  2  0
 28 29  1  0
 29 30  2  0
 30 31  1  0
 31 32  1  0
 12  4  1  0
 18 13  1  0
 32 23  2  0
 12  7  1  0
 31 27  1  0
  1 33  1  0
  1 34  1  0
  1 35  1  0
  2 36  1  0
  3 37  1  0
  3 38  1  0
  3 39  1  0
  6 40  1  0
  8 41  1  0
  9 42  1  0
 11 43  1  0
 13 44  1  0
 14 45  1  0
 14 46  1  0
 15 47  1  0
 15 48  1  0
 17 49  1  0
 17 50  1  0
 18 51  1  0
 18 52  1  0
 20 53  1  0
 20 54  1  0
 20 55  1  0
 24 56  1  0
 26 57  1  0
 26 58  1  0
 26 59  1  0
 29 60  1  0
 32 61  1  0
M  END
$$$$
[H]ON(C([H])=O)C([H])([H])[C@]([H])(C(=O)N1C([H])([H])C([H])([H])C([H])([H])[C@@]1([H])C(=O)N([H])C1([H])C([H])([H])C([H])([H])C([H])([H])C([H])([H])C1([H])[H])C([H])([H])C1([H])C([H])([H])C([H])([H])C([H])([H])C([H])([H])C1([H])[H]
     RDKit          3D

 66 68  0  0  0  0  0  0  0  0999 V2000
   -4.3069   -1.9267    0.6024 O   0  0  0  0  0  0  0  0  0  0  0  0
   -3.2177   -2.3305   -0.0417 N   0  0  0  0  0  0  0  0  0  0  0  0
   -2.6028   -1.6379   -1.1487 C   0  0  0  0  0  0  0  0  0  0  0  0
   -1.5469   -0.6618   -0.7518 C   0  0  1  0  0  0  0  0  0  0  0  0
   -1.9510    0.4467    0.0944 C   0  0  0  0  0  0  0  0  0  0  0  0
   -2.8829    1.4998   -0.2725 C   0  0  0  0  0  0  0  0  0  0  0  0
   -2.9454    2.4593    0.9577 C   0  0  0  0  0  0  0  0  0  0  0  0
   -3.8755    3.5929    0.6735 C   0  0  0  0  0  0  0  0  0  0  0  0
   -5.3014    3.0981    0.7738 C   0  0  0  0  0  0  0  0  0  0  0  0
   -5.2718    1.6259    0.4474 C   0  0  0  0  0  0  0  0  0  0  0  0
   -4.2691    1.3058   -0.6703 C   0  0  0  0  0  0  0  0  0  0  0  0
   -0.3812   -1.4307   -0.1502 C   0  0  0  0  0  0  0  0  0  0  0  0
   -0.3911   -1.4566    1.1282 O   0  0  0  0  0  0  0  0  0  0  0  0
    0.6107   -2.0578   -0.9015 N   0  0  0  0  0  0  0  0  0  0  0  0
    0.7615   -2.0685   -2.3320 C   0  0  0  0  0  0  0  0  0  0  0  0
    1.3017   -3.4769   -2.6191 C   0  0  0  0  0  0  0  0  0  0  0  0
    2.2069   -3.7178   -1.4656 C   0  0  0  0  0  0  0  0  0  0  0  0
    1.7042   -2.8549   -0.3585 C   0  0  1  0  0  0  0  0  0  0  0  0
    2.7873   -1.9912    0.1771 C   0  0  0  0  0  0  0  0  0  0  0  0
    3.7925   -2.5240    0.7151 O   0  0  0  0  0  0  0  0  0  0  0  0
    2.7600   -0.5853    0.1193 N   0  0  0  0  0  0  0  0  0  0  0  0
    3.7961    0.2682    0.6316 C   0  0  0  0  0  0  0  0  0  0  0  0
    3.3182    1.2370    1.6625 C   0  0  0  0  0  0  0  0  0  0  0  0
    4.5246    1.9213    2.2694 C   0  0  0  0  0  0  0  0  0  0  0  0
    5.4349    2.5314    1.2547 C   0  0  0  0  0  0  0  0  0  0  0  0
    5.7148    1.6548    0.0735 C   0  0  0  0  0  0  0  0  0  0  0  0
    4.4345    1.0615   -0.4894 C   0  0  0  0  0  0  0  0  0  0  0  0
   -2.6311   -3.5564    0.4027 C   0  0  0  0  0  0  0  0  0  0  0  0
   -3.0822   -4.2457    1.3401 O   0  0  0  0  0  0  0  0  0  0  0  0
   -4.0127   -1.6032    1.5129 H   0  0  0  0  0  0  0  0  0  0  0  0
   -3.3934   -1.2616   -1.8133 H   0  0  0  0  0  0  0  0  0  0  0  0
   -2.1266   -2.4577   -1.8051 H   0  0  0  0  0  0  0  0  0  0  0  0
   -1.0364   -0.2746   -1.7244 H   0  0  0  0  0  0  0  0  0  0  0  0
   -2.2436    0.0720    1.1582 H   0  0  0  0  0  0  0  0  0  0  0  0
   -0.9692    0.9919    0.3856 H   0  0  0  0  0  0  0  0  0  0  0  0
   -2.3891    2.1819   -1.0512 H   0  0  0  0  0  0  0  0  0  0  0  0
   -3.2978    1.9199    1.8540 H   0  0  0  0  0  0  0  0  0  0  0  0
   -1.9376    2.8673    1.1609 H   0  0  0  0  0  0  0  0  0  0  0  0
   -3.7312    4.3583    1.4556 H   0  0  0  0  0  0  0  0  0  0  0  0
   -3.6755    4.0936   -0.2955 H   0  0  0  0  0  0  0  0  0  0  0  0
   -5.6577    3.2597    1.8007 H   0  0  0  0  0  0  0  0  0  0  0  0
   -5.9854    3.6290    0.0930 H   0  0  0  0  0  0  0  0  0  0  0  0
   -6.2677    1.3336    0.0585 H   0  0  0  0  0  0  0  0  0  0  0  0
   -5.0710    1.0539    1.3672 H   0  0  0  0  0  0  0  0  0  0  0  0
   -4.6125    0.3813   -1.1017 H   0  0  0  0  0  0  0  0  0  0  0  0
   -4.5318    2.0979   -1.4547 H   0  0  0  0  0  0  0  0  0  0  0  0
   -0.1582   -1.9653   -2.9163 H   0  0  0  0  0  0  0  0  0  0  0  0
    1.5584   -1.3625   -2.6677 H   0  0  0  0  0  0  0  0  0  0  0  0
    0.4663   -4.2040   -2.6625 H   0  0  0  0  0  0  0  0  0  0  0  0
    1.7687   -3.4429   -3.6011 H   0  0  0  0  0  0  0  0  0  0  0  0
    3.2809   -3.5636   -1.6954 H   0  0  0  0  0  0  0  0  0  0  0  0
    2.1199   -4.8048   -1.1885 H   0  0  0  0  0  0  0  0  0  0  0  0
    1.2965   -3.4817    0.4394 H   0  0  0  0  0  0  0  0  0  0  0  0
    1.9360   -0.1253   -0.3246 H   0  0  0  0  0  0  0  0  0  0  0  0
    4.5977   -0.3585    1.0754 H   0  0  0  0  0  0  0  0  0  0  0  0
    2.7072    2.0619    1.1944 H   0  0  0  0  0  0  0  0  0  0  0  0
    2.7524    0.7745    2.4935 H   0  0  0  0  0  0  0  0  0  0  0  0
    5.1105    1.1132    2.7898 H   0  0  0  0  0  0  0  0  0  0  0  0
    4.2497    2.7082    3.0003 H   0  0  0  0  0  0  0  0  0  0  0  0
    6.4229    2.7135    1.7603 H   0  0  0  0  0  0  0  0  0  0  0  0
    5.0496    3.5088    0.8680 H   0  0  0  0  0  0  0  0  0  0  0  0
    6.1474    2.2808   -0.7328 H   0  0  0  0  0  0  0  0  0  0  0  0
    6.4440    0.8462    0.3135 H   0  0  0  0  0  0  0  0  0  0  0  0
    3.7747    1.9261   -0.7347 H   0  0  0  0  0  0  0  0  0  0  0  0
    4.6704    0.4616   -1.3730 H   0  0  0  0  0  0  0  0  0  0  0  0
   -1.7469   -3.9094   -0.0993 H   0  0  0  0  0  0  0  0  0  0  0  0
  1  2  1  0
  2  3  1  0
  3  4  1  0
  4  5  1  0
  5  6  1  0
  6  7  1  0
  7  8  1  0
  8  9  1  0
  9 10  1  0
 10 11  1  0
  4 12  1  0
 12 13  2  0
 12 14  1  0
 14 15  1  0
 15 16  1  0
 16 17  1  0
 17 18  1  0
 18 19  1  0
 19 20  2  0
 19 21  1  0
 21 22  1  0
 22 23  1  0
 23 24  1  0
 24 25  1  0
 25 26  1  0
 26 27  1  0
  2 28  1  0
 28 29  2  0
 11  6  1  0
 18 14  1  0
 27 22  1  0
  1 30  1  0
  3 31  1  0
  3 32  1  0
  4 33  1  6
  5 34  1  0
  5 35  1  0
  6 36  1  0
  7 37  1  0
  7 38  1  0
  8 39  1  0
  8 40  1  0
  9 41  1  0
  9 42  1  0
 10 43  1  0
 10 44  1  0
 11 45  1  0
 11 46  1  0
 15 47  1  0
 15 48  1  0
 16 49  1  0
 16 50  1  0
 17 51  1  0
 17 52  1  0
 18 53  1  1
 21 54  1  0
 22 55  1  0
 23 56  1  0
 23 57  1  0
 24 58  1  0
 24 59  1  0
 25 60  1  0
 25 61  1  0
 26 62  1  0
 26 63  1  0
 27 64  1  0
 27 65  1  0
 28 66  1  0
M  END
$$$$
[H]c1nc2c(c(Oc3c([H])c([H])c(N([H])C(=O)N([H])c4c([H])c(C([H])(C([H])([H])[H])C([H])([H])[H])nn4-c4c([H])c([H])c(OC([H])([H])[H])c([H])c4[H])c4c([H])c([H])c([H])c([H])c34)c1[H])n(C1([H])C([H])([H])C1([H])[H])c(=O)n2[H]
     RDKit          3D

 75 81  0  0  0  0  0  0  0  0999 V2000
   -8.3019    4.1173   -4.6488 C   0  0  0  0  0  0  0  0  0  0  0  0
   -7.6698    2.8652   -4.8537 O   0  0  0  0  0  0  0  0  0  0  0  0
   -7.0777    2.1656   -3.8067 C   0  0  0  0  0  0  0  0  0  0  0  0
   -7.0861    2.6789   -2.5176 C   0  0  0  0  0  0  0  0  0  0  0  0
   -6.5062    1.9977   -1.4740 C   0  0  0  0  0  0  0  0  0  0  0  0
   -5.8833    0.7589   -1.6720 C   0  0  0  0  0  0  0  0  0  0  0  0
   -5.8761    0.2534   -2.9506 C   0  0  0  0  0  0  0  0  0  0  0  0
   -6.4662    0.9495   -4.0003 C   0  0  0  0  0  0  0  0  0  0  0  0
   -5.2953    0.0676   -0.5774 N   0  0  0  0  0  0  0  0  0  0  0  0
   -5.9527   -0.5042    0.4072 N   0  0  0  0  0  0  0  0  0  0  0  0
   -5.1436   -1.0530    1.2825 C   0  0  0  0  0  0  0  0  0  0  0  0
   -3.8530   -0.7998    0.7973 C   0  0  0  0  0  0  0  0  0  0  0  0
   -3.9318   -0.0963   -0.3699 C   0  0  0  0  0  0  0  0  0  0  0  0
   -2.9746    0.3799   -1.2738 N   0  0  0  0  0  0  0  0  0  0  0  0
   -1.5824    0.3835   -1.2017 C   0  0  0  0  0  0  0  0  0  0  0  0
   -1.0272    0.8628   -2.2818 O   0  0  0  0  0  0  0  0  0  0  0  0
   -0.7226   -0.0324   -0.1806 N   0  0  0  0  0  0  0  0  0  0  0  0
    0.6872    0.0079   -0.2674 C   0  0  0  0  0  0  0  0  0  0  0  0
    1.3954   -0.0428   -1.4551 C   0  0  0  0  0  0  0  0  0  0  0  0
    2.7795   -0.1030   -1.4679 C   0  0  0  0  0  0  0  0  0  0  0  0
    3.5227   -0.1173   -0.3073 C   0  0  0  0  0  0  0  0  0  0  0  0
    4.8914   -0.1800   -0.3580 O   0  0  0  0  0  0  0  0  0  0  0  0
    5.5705   -1.3035    0.0207 C   0  0  0  0  0  0  0  0  0  0  0  0
    4.9644   -2.4726    0.3821 C   0  0  0  0  0  0  0  0  0  0  0  0
    5.6618   -3.5995    0.7662 C   0  0  0  0  0  0  0  0  0  0  0  0
    6.9997   -3.5301    0.7797 N   0  0  0  0  0  0  0  0  0  0  0  0
    7.6761   -2.4130    0.4362 C   0  0  0  0  0  0  0  0  0  0  0  0
    8.9701   -2.0953    0.3590 N   0  0  0  0  0  0  0  0  0  0  0  0
    9.0557   -0.8236   -0.0586 C   0  0  0  0  0  0  0  0  0  0  0  0
   10.1521   -0.1957   -0.2442 O   0  0  0  0  0  0  0  0  0  0  0  0
    7.8235   -0.2939   -0.2577 N   0  0  0  0  0  0  0  0  0  0  0  0
    7.4502    1.0156   -0.7146 C   0  0  0  0  0  0  0  0  0  0  0  0
    8.3404    2.1966   -0.5098 C   0  0  0  0  0  0  0  0  0  0  0  0
    7.1371    2.0432    0.3480 C   0  0  0  0  0  0  0  0  0  0  0  0
    6.9516   -1.2890    0.0527 C   0  0  0  0  0  0  0  0  0  0  0  0
    2.8369   -0.0631    0.8810 C   0  0  0  0  0  0  0  0  0  0  0  0
    3.5527   -0.0215    2.0581 C   0  0  0  0  0  0  0  0  0  0  0  0
    2.8672    0.0757    3.2406 C   0  0  0  0  0  0  0  0  0  0  0  0
    1.5029    0.1344    3.3053 C   0  0  0  0  0  0  0  0  0  0  0  0
    0.7729    0.0969    2.1269 C   0  0  0  0  0  0  0  0  0  0  0  0
    1.4259   -0.0012    0.9176 C   0  0  0  0  0  0  0  0  0  0  0  0
   -5.4017   -1.7951    2.5302 C   0  0  0  0  0  0  0  0  0  0  0  0
   -4.6581   -1.1475    3.6823 C   0  0  0  0  0  0  0  0  0  0  0  0
   -4.8031   -3.1966    2.3547 C   0  0  0  0  0  0  0  0  0  0  0  0
   -7.6365    4.8527   -4.1511 H   0  0  0  0  0  0  0  0  0  0  0  0
   -8.6175    4.5126   -5.6365 H   0  0  0  0  0  0  0  0  0  0  0  0
   -9.1872    4.0252   -3.9627 H   0  0  0  0  0  0  0  0  0  0  0  0
   -7.5697    3.6481   -2.3525 H   0  0  0  0  0  0  0  0  0  0  0  0
   -6.5004    2.3781   -0.4500 H   0  0  0  0  0  0  0  0  0  0  0  0
   -5.4050   -0.7057   -3.1534 H   0  0  0  0  0  0  0  0  0  0  0  0
   -6.4644    0.5499   -5.0231 H   0  0  0  0  0  0  0  0  0  0  0  0
   -2.9572   -1.1362    1.3013 H   0  0  0  0  0  0  0  0  0  0  0  0
   -3.3599    0.7841   -2.2134 H   0  0  0  0  0  0  0  0  0  0  0  0
   -1.1216   -0.4105    0.6821 H   0  0  0  0  0  0  0  0  0  0  0  0
    0.8799   -0.0670   -2.4014 H   0  0  0  0  0  0  0  0  0  0  0  0
    3.3099   -0.1401   -2.4310 H   0  0  0  0  0  0  0  0  0  0  0  0
    3.8969   -2.5530    0.3609 H   0  0  0  0  0  0  0  0  0  0  0  0
    5.1533   -4.5323    1.0586 H   0  0  0  0  0  0  0  0  0  0  0  0
    9.7735   -2.7365    0.5869 H   0  0  0  0  0  0  0  0  0  0  0  0
    6.8140    1.0047   -1.6374 H   0  0  0  0  0  0  0  0  0  0  0  0
    9.3124    2.0852   -0.0249 H   0  0  0  0  0  0  0  0  0  0  0  0
    8.2720    3.0391   -1.2501 H   0  0  0  0  0  0  0  0  0  0  0  0
    7.3093    1.8230    1.4039 H   0  0  0  0  0  0  0  0  0  0  0  0
    6.2200    2.6409    0.1377 H   0  0  0  0  0  0  0  0  0  0  0  0
    4.6082   -0.0335    2.0860 H   0  0  0  0  0  0  0  0  0  0  0  0
    3.4467    0.1073    4.1794 H   0  0  0  0  0  0  0  0  0  0  0  0
    0.9570    0.2080    4.2227 H   0  0  0  0  0  0  0  0  0  0  0  0
   -0.2935    0.1583    2.1390 H   0  0  0  0  0  0  0  0  0  0  0  0
   -6.4675   -1.9142    2.7541 H   0  0  0  0  0  0  0  0  0  0  0  0
   -4.2340   -1.9562    4.3489 H   0  0  0  0  0  0  0  0  0  0  0  0
   -3.7660   -0.6071    3.2890 H   0  0  0  0  0  0  0  0  0  0  0  0
   -5.3246   -0.4655    4.2558 H   0  0  0  0  0  0  0  0  0  0  0  0
   -5.2462   -3.9131    3.0572 H   0  0  0  0  0  0  0  0  0  0  0  0
   -3.7012   -3.0691    2.5681 H   0  0  0  0  0  0  0  0  0  0  0  0
   -4.8750   -3.4575    1.2906 H   0  0  0  0  0  0  0  0  0  0  0  0
  1  2  1  0
  2  3  1  0
  3  4  2  0
  4  5  1  0
  5  6  2  0
  6  7  1  0
  7  8  2  0
  6  9  1  0
  9 10  1  0
 10 11  2  0
 11 12  1  0
 12 13  2  0
 13 14  1  0
 14 15  1  0
 15 16  2  0
 15 17  1  0
 17 18  1  0
 18 19  2  0
 19 20  1  0
 20 21  2  0
 21 22  1  0
 22 23  1  0
 23 24  2  0
 24 25  1  0
 25 26  2  0
 26 27  1  0
 27 28  1  0
 28 29  1  0
 29 30  2  0
 29 31  1  0
 31 32  1  0
 32 33  1  0
 33 34  1  0
 31 35  1  0
 21 36  1  0
 36 37  2  0
 37 38  1  0
 38 39  2  0
 39 40  1  0
 40 41  2  0
 11 42  1  0
 42 43  1  0
 42 44  1  0
  8  3  1  0
 13  9  1  0
 41 18  1  0
 35 23  1  0
 41 36  1  0
 35 27  2  0
 34 32  1  0
  1 45  1  0
  1 46  1  0
  1 47  1  0
  4 48  1  0
  5 49  1  0
  7 50  1  0
  8 51  1  0
 12 52  1  0
 14 53  1  0
 17 54  1  0
 19 55  1  0
 20 56  1  0
 24 57  1  0
 25 58  1  0
 28 59  1  0
 32 60  1  0
 33 61  1  0
 33 62  1  0
 34 63  1  0
 34 64  1  0
 37 65  1  0
 38 66  1  0
 39 67  1  0
 40 68  1  0
 42 69  1  0
 43 70  1  0
 43 71  1  0
 43 72  1  0
 44 73  1  0
 44 74  1  0
 44 75  1  0
M  END
$$$$
[H]OC([H])([H])[C@@]1([H])O[C@@]([H])(O[C@@]2([H])O[C@]([H])(C([H])([H])O[H])[C@]([H])(O[H])[C@]([H])(O[H])[C@@]2([H])O[H])[C@@]([H])(O[H])[C@]([H])(O[H])[C@]1([H])O[H]
     RDKit          3D

 45 46  0  0  0  0  0  0  0  0999 V2000
    4.1556    0.6978    2.3371 O   0  0  0  0  0  0  0  0  0  0  0  0
    3.7462   -0.5882    2.5842 C   0  0  0  0  0  0  0  0  0  0  0  0
    2.7145   -1.0734    1.5478 C   0  0  1  0  0  0  0  0  0  0  0  0
    1.6407   -0.2693    1.5911 O   0  0  0  0  0  0  0  0  0  0  0  0
    1.1635    0.3339    0.4726 C   0  0  2  0  0  0  0  0  0  0  0  0
    0.1958   -0.3470   -0.2076 O   0  0  0  0  0  0  0  0  0  0  0  0
   -1.0186    0.2759   -0.3317 C   0  0  2  0  0  0  0  0  0  0  0  0
   -1.9402   -0.5525    0.3563 O   0  0  0  0  0  0  0  0  0  0  0  0
   -3.0810    0.1576    0.7072 C   0  0  2  0  0  0  0  0  0  0  0  0
   -4.1101   -0.8607    1.1578 C   0  0  0  0  0  0  0  0  0  0  0  0
   -5.2804   -0.1922    1.5211 O   0  0  0  0  0  0  0  0  0  0  0  0
   -3.6379    0.9628   -0.4204 C   0  0  1  0  0  0  0  0  0  0  0  0
   -3.4515    2.3364   -0.2653 O   0  0  0  0  0  0  0  0  0  0  0  0
   -3.0589    0.4614   -1.7239 C   0  0  1  0  0  0  0  0  0  0  0  0
   -3.5608    1.2754   -2.7481 O   0  0  0  0  0  0  0  0  0  0  0  0
   -1.5395    0.4586   -1.7100 C   0  0  2  0  0  0  0  0  0  0  0  0
   -1.1517   -0.5717   -2.5844 O   0  0  0  0  0  0  0  0  0  0  0  0
    2.2309    0.6868   -0.5396 C   0  0  2  0  0  0  0  0  0  0  0  0
    1.5933    1.2051   -1.6623 O   0  0  0  0  0  0  0  0  0  0  0  0
    2.8823   -0.6097   -0.9328 C   0  0  1  0  0  0  0  0  0  0  0  0
    3.9036   -0.3135   -1.8355 O   0  0  0  0  0  0  0  0  0  0  0  0
    3.3418   -1.3915    0.2499 C   0  0  1  0  0  0  0  0  0  0  0  0
    4.7323   -1.1518    0.3723 O   0  0  0  0  0  0  0  0  0  0  0  0
    5.1522    0.7231    2.1804 H   0  0  0  0  0  0  0  0  0  0  0  0
    4.6197   -1.2711    2.6189 H   0  0  0  0  0  0  0  0  0  0  0  0
    3.2994   -0.6124    3.6040 H   0  0  0  0  0  0  0  0  0  0  0  0
    2.3827   -2.0689    1.9866 H   0  0  0  0  0  0  0  0  0  0  0  0
    0.7376    1.3293    0.8021 H   0  0  0  0  0  0  0  0  0  0  0  0
   -0.9566    1.2604    0.1722 H   0  0  0  0  0  0  0  0  0  0  0  0
   -2.8129    0.7646    1.6020 H   0  0  0  0  0  0  0  0  0  0  0  0
   -4.3879   -1.5312    0.3002 H   0  0  0  0  0  0  0  0  0  0  0  0
   -3.7643   -1.4319    2.0383 H   0  0  0  0  0  0  0  0  0  0  0  0
   -6.0646   -0.8206    1.4736 H   0  0  0  0  0  0  0  0  0  0  0  0
   -4.7335    0.7985   -0.4735 H   0  0  0  0  0  0  0  0  0  0  0  0
   -3.0875    2.4929    0.6534 H   0  0  0  0  0  0  0  0  0  0  0  0
   -3.4815   -0.5480   -1.9041 H   0  0  0  0  0  0  0  0  0  0  0  0
   -3.4045    2.2173   -2.5312 H   0  0  0  0  0  0  0  0  0  0  0  0
   -1.2506    1.4648   -2.1080 H   0  0  0  0  0  0  0  0  0  0  0  0
   -1.7949   -0.5405   -3.3406 H   0  0  0  0  0  0  0  0  0  0  0  0
    2.9363    1.4470   -0.1854 H   0  0  0  0  0  0  0  0  0  0  0  0
    1.3537    2.1514   -1.4779 H   0  0  0  0  0  0  0  0  0  0  0  0
    2.1158   -1.1867   -1.5204 H   0  0  0  0  0  0  0  0  0  0  0  0
    4.1590   -1.1134   -2.3820 H   0  0  0  0  0  0  0  0  0  0  0  0
    3.2844   -2.4852   -0.0291 H   0  0  0  0  0  0  0  0  0  0  0  0
    5.2282   -1.9695    0.5847 H   0  0  0  0  0  0  0  0  0  0  0  0
  1  2  1  0
  2  3  1  0
  3  4  1  0
  4  5  1  0
  5  6  1  0
  6  7  1  0
  7  8  1  0
  8  9  1  0
  9 10  1  0
 10 11  1  0
  9 12  1  0
 12 13  1  0
 12 14  1  0
 14 15  1  0
 14 16  1  0
 16 17  1  0
  5 18  1  0
 18 19  1  0
 18 20  1  0
 20 21  1  0
 20 22  1  0
 22 23  1  0
 22  3  1  0
 16  7  1  0
  1 24  1  0
  2 25  1  0
  2 26  1  0
  3 27  1  1
  5 28  1  1
  7 29  1  1
  9 30  1  1
 10 31  1  0
 10 32  1  0
 11 33  1  0
 12 34  1  6
 13 35  1  0
 14 36  1  6
 15 37  1  0
 16 38  1  6
 17 39  1  0
 18 40  1  1
 19 41  1  0
 20 42  1  6
 21 43  1  0
 22 44  1  6
 23 45  1  0
M  END
$$$$
[H]c1nn([H])c([H])c1-c1c([H])nn2c([H])c(-c3c([H])c([H])c(N4C([H])([H])C([H])([H])N([H])C([H])([H])C4([H])[H])c([H])c3[H])c([H])nc12
     RDKit          3D

 45 49  0  0  0  0  0  0  0  0999 V2000
   -6.3827    1.2195   -0.5296 C   0  0  0  0  0  0  0  0  0  0  0  0
   -4.9730    0.8666   -0.8806 C   0  0  0  0  0  0  0  0  0  0  0  0
   -4.2622    0.1098    0.1099 N   0  0  0  0  0  0  0  0  0  0  0  0
   -4.9849   -0.5750    1.1152 C   0  0  0  0  0  0  0  0  0  0  0  0
   -6.3735   -0.8667    0.6913 C   0  0  0  0  0  0  0  0  0  0  0  0
   -7.1135    0.2137    0.1513 N   0  0  0  0  0  0  0  0  0  0  0  0
   -2.8468    0.0616    0.0563 C   0  0  0  0  0  0  0  0  0  0  0  0
   -2.1536   -0.5384    1.0861 C   0  0  0  0  0  0  0  0  0  0  0  0
   -0.7753   -0.5770    1.0089 C   0  0  0  0  0  0  0  0  0  0  0  0
   -0.0569   -0.0524   -0.0338 C   0  0  0  0  0  0  0  0  0  0  0  0
   -0.7557    0.5441   -1.0566 C   0  0  0  0  0  0  0  0  0  0  0  0
   -2.1403    0.6010   -1.0124 C   0  0  0  0  0  0  0  0  0  0  0  0
    1.4127   -0.1223   -0.0624 C   0  0  0  0  0  0  0  0  0  0  0  0
    2.1671    0.8534   -0.6686 C   0  0  0  0  0  0  0  0  0  0  0  0
    3.5107    0.7629   -0.6799 N   0  0  0  0  0  0  0  0  0  0  0  0
    4.0850   -0.3098   -0.0805 C   0  0  0  0  0  0  0  0  0  0  0  0
    5.4365   -0.6198    0.0356 C   0  0  0  0  0  0  0  0  0  0  0  0
    5.4581   -1.8107    0.7302 C   0  0  0  0  0  0  0  0  0  0  0  0
    4.2022   -2.1972    1.0164 N   0  0  0  0  0  0  0  0  0  0  0  0
    3.3688   -1.2759    0.5183 N   0  0  0  0  0  0  0  0  0  0  0  0
    2.0266   -1.1880    0.5311 C   0  0  0  0  0  0  0  0  0  0  0  0
    6.5545    0.1654   -0.4763 C   0  0  0  0  0  0  0  0  0  0  0  0
    6.7291    1.5477   -0.3748 C   0  0  0  0  0  0  0  0  0  0  0  0
    7.8880    1.8752   -0.9762 N   0  0  0  0  0  0  0  0  0  0  0  0
    8.4659    0.7662   -1.4595 N   0  0  0  0  0  0  0  0  0  0  0  0
    7.6650   -0.2701   -1.1606 C   0  0  0  0  0  0  0  0  0  0  0  0
   -6.3714    2.1420    0.0870 H   0  0  0  0  0  0  0  0  0  0  0  0
   -6.9131    1.4760   -1.4709 H   0  0  0  0  0  0  0  0  0  0  0  0
   -4.3849    1.8258   -1.0069 H   0  0  0  0  0  0  0  0  0  0  0  0
   -4.8983    0.3201   -1.8512 H   0  0  0  0  0  0  0  0  0  0  0  0
   -4.4814   -1.5746    1.2795 H   0  0  0  0  0  0  0  0  0  0  0  0
   -4.9434   -0.0853    2.1179 H   0  0  0  0  0  0  0  0  0  0  0  0
   -6.9341   -1.2474    1.5927 H   0  0  0  0  0  0  0  0  0  0  0  0
   -6.3879   -1.7113   -0.0293 H   0  0  0  0  0  0  0  0  0  0  0  0
   -7.7703    0.6657    0.8462 H   0  0  0  0  0  0  0  0  0  0  0  0
   -2.6770   -0.9737    1.9484 H   0  0  0  0  0  0  0  0  0  0  0  0
   -0.2315   -1.0515    1.8236 H   0  0  0  0  0  0  0  0  0  0  0  0
   -0.2360    0.9794   -1.9134 H   0  0  0  0  0  0  0  0  0  0  0  0
   -2.6942    1.0647   -1.8106 H   0  0  0  0  0  0  0  0  0  0  0  0
    1.6937    1.7189   -1.1514 H   0  0  0  0  0  0  0  0  0  0  0  0
    6.3717   -2.3248    0.9865 H   0  0  0  0  0  0  0  0  0  0  0  0
    1.4712   -1.9908    1.0268 H   0  0  0  0  0  0  0  0  0  0  0  0
    5.9989    2.1692    0.1236 H   0  0  0  0  0  0  0  0  0  0  0  0
    9.3694    0.7025   -1.9746 H   0  0  0  0  0  0  0  0  0  0  0  0
    7.8666   -1.2889   -1.4201 H   0  0  0  0  0  0  0  0  0  0  0  0
  1  2  1  0
  2  3  1  0
  3  4  1  0
  4  5  1  0
  5  6  1  0
  3  7  1  0
  7  8  2  0
  8  9  1  0
  9 10  2  0
 10 11  1  0
 11 12  2  0
 10 13  1  0
 13 14  1  0
 14 15  2  0
 15 16  1  0
 16 17  2  0
 17 18  1  0
 18 19  2  0
 19 20  1  0
 20 21  1  0
 17 22  1  0
 22 23  1  0
 23 24  2  0
 24 25  1  0
 25 26  1  0
  6  1  1  0
 12  7  1  0
 21 13  2  0
 26 22  2  0
 20 16  1  0
  1 27  1  0
  1 28  1  0
  2 29  1  0
  2 30  1  0
  4 31  1  0
  4 32  1  0
  5 33  1  0
  5 34  1  0
  6 35  1  0
  8 36  1  0
  9 37  1  0
 11 38  1  0
 12 39  1  0
 14 40  1  0
 18 41  1  0
 21 42  1  0
 23 43  1  0
 25 44  1  0
 26 45  1  0
M  END
$$$$
[H]OC([H])([H])[C@@]1([H])O[C@]([H])(O[C@]2([H])O[C@]([H])(C([H])([H])O[H])[C@@]([H])(O[H])[C@@]([H])(O[H])[C@]2([H])O[H])[C@]([H])(O[H])[C@@]([H])(O[H])[C@]1([H])O[H]
     RDKit          3D

 45 46  0  0  0  0  0  0  0  0999 V2000
    5.1685   -0.5429    2.0523 O   0  0  0  0  0  0  0  0  0  0  0  0
    3.8450   -0.1241    2.0910 C   0  0  0  0  0  0  0  0  0  0  0  0
    2.9610   -1.0599    1.2526 C   0  0  1  0  0  0  0  0  0  0  0  0
    1.6620   -0.6746    1.2706 O   0  0  0  0  0  0  0  0  0  0  0  0
    1.1937    0.1680    0.3200 C   0  0  2  0  0  0  0  0  0  0  0  0
    0.1229   -0.4347   -0.3179 O   0  0  0  0  0  0  0  0  0  0  0  0
   -1.0662    0.2637   -0.2159 C   0  0  2  0  0  0  0  0  0  0  0  0
   -1.9245   -0.6343    0.4615 O   0  0  0  0  0  0  0  0  0  0  0  0
   -3.0247    0.0115    0.9968 C   0  0  2  0  0  0  0  0  0  0  0  0
   -4.0657   -1.0672    1.2640 C   0  0  0  0  0  0  0  0  0  0  0  0
   -5.2262   -0.5607    1.8041 O   0  0  0  0  0  0  0  0  0  0  0  0
   -3.6034    1.0399    0.0515 C   0  0  1  0  0  0  0  0  0  0  0  0
   -3.2634    2.3424    0.4200 O   0  0  0  0  0  0  0  0  0  0  0  0
   -3.1950    0.7685   -1.3787 C   0  0  1  0  0  0  0  0  0  0  0  0
   -3.6895    1.8197   -2.1509 O   0  0  0  0  0  0  0  0  0  0  0  0
   -1.7040    0.5996   -1.5212 C   0  0  2  0  0  0  0  0  0  0  0  0
   -1.4911   -0.3704   -2.4995 O   0  0  0  0  0  0  0  0  0  0  0  0
    2.1712    0.5215   -0.7813 C   0  0  2  0  0  0  0  0  0  0  0  0
    1.5200    1.0673   -1.8598 O   0  0  0  0  0  0  0  0  0  0  0  0
    2.7504   -0.8146   -1.2381 C   0  0  1  0  0  0  0  0  0  0  0  0
    3.4886   -0.6406   -2.3860 O   0  0  0  0  0  0  0  0  0  0  0  0
    3.5594   -1.3364   -0.0811 C   0  0  2  0  0  0  0  0  0  0  0  0
    3.7906   -2.6930   -0.3182 O   0  0  0  0  0  0  0  0  0  0  0  0
    5.8067    0.1581    1.8132 H   0  0  0  0  0  0  0  0  0  0  0  0
    3.5394   -0.1697    3.1655 H   0  0  0  0  0  0  0  0  0  0  0  0
    3.7113    0.9356    1.7925 H   0  0  0  0  0  0  0  0  0  0  0  0
    3.0149   -2.0419    1.8184 H   0  0  0  0  0  0  0  0  0  0  0  0
    0.9196    1.1241    0.8110 H   0  0  0  0  0  0  0  0  0  0  0  0
   -0.9358    1.1952    0.3686 H   0  0  0  0  0  0  0  0  0  0  0  0
   -2.7924    0.4764    1.9761 H   0  0  0  0  0  0  0  0  0  0  0  0
   -4.2474   -1.5843    0.2870 H   0  0  0  0  0  0  0  0  0  0  0  0
   -3.5853   -1.8372    1.9132 H   0  0  0  0  0  0  0  0  0  0  0  0
   -5.6935   -1.2590    2.3274 H   0  0  0  0  0  0  0  0  0  0  0  0
   -4.7079    0.9629    0.1152 H   0  0  0  0  0  0  0  0  0  0  0  0
   -3.4789    2.4221    1.3884 H   0  0  0  0  0  0  0  0  0  0  0  0
   -3.7436   -0.1451   -1.6937 H   0  0  0  0  0  0  0  0  0  0  0  0
   -3.7779    2.6443   -1.6335 H   0  0  0  0  0  0  0  0  0  0  0  0
   -1.3317    1.5663   -1.9623 H   0  0  0  0  0  0  0  0  0  0  0  0
   -1.3565    0.0024   -3.3967 H   0  0  0  0  0  0  0  0  0  0  0  0
    2.9546    1.2227   -0.4636 H   0  0  0  0  0  0  0  0  0  0  0  0
    1.9853    1.8201   -2.2672 H   0  0  0  0  0  0  0  0  0  0  0  0
    1.8792   -1.4894   -1.3735 H   0  0  0  0  0  0  0  0  0  0  0  0
    3.5105    0.3261   -2.6406 H   0  0  0  0  0  0  0  0  0  0  0  0
    4.5706   -0.8415   -0.1599 H   0  0  0  0  0  0  0  0  0  0  0  0
    3.7795   -3.1369    0.5790 H   0  0  0  0  0  0  0  0  0  0  0  0
  1  2  1  0
  2  3  1  0
  3  4  1  0
  4  5  1  0
  5  6  1  0
  6  7  1  0
  7  8  1  0
  8  9  1  0
  9 10  1  0
 10 11  1  0
  9 12  1  0
 12 13  1  0
 12 14  1  0
 14 15  1  0
 14 16  1  0
 16 17  1  0
  5 18  1  0
 18 19  1  0
 18 20  1  0
 20 21  1  0
 20 22  1  0
 22 23  1  0
 22  3  1  0
 16  7  1  0
  1 24  1  0
  2 25  1  0
  2 26  1  0
  3 27  1  1
  5 28  1  1
  7 29  1  1
  9 30  1  1
 10 31  1  0
 10 32  1  0
 11 33  1  0
 12 34  1  6
 13 35  1  0
 14 36  1  6
 15 37  1  0
 16 38  1  6
 17 39  1  0
 18 40  1  1
 19 41  1  0
 20 42  1  6
 21 43  1  0
 22 44  1  1
 23 45  1  0
M  END
$$$$
[H]ON(C([H])=O)C([H])([H])[C@]([H])(C(=O)N1C([H])([H])C([H])([H])C([H])([H])[C@@]1([H])C(=O)N([H])C1([H])C([H])([H])C([H])([H])OC([H])([H])C1([H])[H])C([H])([H])C1([H])C([H])([H])C([H])([H])C([H])([H])C1([H])[H]
     RDKit          3D

 61 63  0  0  0  0  0  0  0  0999 V2000
   -1.5375    2.2502    1.6321 O   0  0  0  0  0  0  0  0  0  0  0  0
   -2.2882    1.2617    2.1148 N   0  0  0  0  0  0  0  0  0  0  0  0
   -2.9678    0.3337    1.2332 C   0  0  0  0  0  0  0  0  0  0  0  0
   -2.2638   -0.9156    0.9060 C   0  0  1  0  0  0  0  0  0  0  0  0
   -2.9738   -1.8905    0.0430 C   0  0  0  0  0  0  0  0  0  0  0  0
   -3.4311   -1.5929   -1.3031 C   0  0  0  0  0  0  0  0  0  0  0  0
   -4.4107   -0.4935   -1.5077 C   0  0  0  0  0  0  0  0  0  0  0  0
   -5.3461   -0.9309   -2.6242 C   0  0  0  0  0  0  0  0  0  0  0  0
   -4.9556   -2.3264   -2.9524 C   0  0  0  0  0  0  0  0  0  0  0  0
   -4.2920   -2.8304   -1.7183 C   0  0  0  0  0  0  0  0  0  0  0  0
   -0.8447   -0.7791    0.6567 C   0  0  0  0  0  0  0  0  0  0  0  0
   -0.0703   -1.4016    1.4926 O   0  0  0  0  0  0  0  0  0  0  0  0
   -0.1413   -0.0801   -0.3544 N   0  0  0  0  0  0  0  0  0  0  0  0
   -0.7134    0.7053   -1.3980 C   0  0  0  0  0  0  0  0  0  0  0  0
    0.4635    1.6016   -1.8458 C   0  0  0  0  0  0  0  0  0  0  0  0
    1.6069    0.5675   -1.7919 C   0  0  0  0  0  0  0  0  0  0  0  0
    1.2880   -0.0886   -0.4982 C   0  0  1  0  0  0  0  0  0  0  0  0
    2.0576    0.4370    0.6295 C   0  0  0  0  0  0  0  0  0  0  0  0
    1.5176    0.9265    1.6258 O   0  0  0  0  0  0  0  0  0  0  0  0
    3.4718    0.3839    0.5790 N   0  0  0  0  0  0  0  0  0  0  0  0
    4.3169    0.8803    1.6457 C   0  0  0  0  0  0  0  0  0  0  0  0
    5.2650    1.9428    1.1819 C   0  0  0  0  0  0  0  0  0  0  0  0
    6.3607    1.4010    0.2953 C   0  0  0  0  0  0  0  0  0  0  0  0
    7.1187    0.5203    1.0747 O   0  0  0  0  0  0  0  0  0  0  0  0
    6.3224   -0.5855    1.3362 C   0  0  0  0  0  0  0  0  0  0  0  0
    5.1616   -0.2430    2.2446 C   0  0  0  0  0  0  0  0  0  0  0  0
   -2.4335    1.1735    3.5344 C   0  0  0  0  0  0  0  0  0  0  0  0
   -1.8541    2.0194    4.2473 O   0  0  0  0  0  0  0  0  0  0  0  0
   -1.8717    3.1493    1.7876 H   0  0  0  0  0  0  0  0  0  0  0  0
   -3.2489    0.9658    0.3470 H   0  0  0  0  0  0  0  0  0  0  0  0
   -3.9652    0.1687    1.7272 H   0  0  0  0  0  0  0  0  0  0  0  0
   -2.2921   -1.4773    1.9544 H   0  0  0  0  0  0  0  0  0  0  0  0
   -2.3369   -2.8344   -0.0163 H   0  0  0  0  0  0  0  0  0  0  0  0
   -3.8803   -2.2935    0.6126 H   0  0  0  0  0  0  0  0  0  0  0  0
   -2.6406   -1.6234   -2.1089 H   0  0  0  0  0  0  0  0  0  0  0  0
   -3.9761    0.4674   -1.8560 H   0  0  0  0  0  0  0  0  0  0  0  0
   -5.0233   -0.3066   -0.6114 H   0  0  0  0  0  0  0  0  0  0  0  0
   -6.4011   -0.7908   -2.3326 H   0  0  0  0  0  0  0  0  0  0  0  0
   -5.2029   -0.3183   -3.5507 H   0  0  0  0  0  0  0  0  0  0  0  0
   -5.8808   -2.8989   -3.2056 H   0  0  0  0  0  0  0  0  0  0  0  0
   -4.2743   -2.3405   -3.8355 H   0  0  0  0  0  0  0  0  0  0  0  0
   -5.0225   -3.0725   -0.9492 H   0  0  0  0  0  0  0  0  0  0  0  0
   -3.5688   -3.6662   -1.9285 H   0  0  0  0  0  0  0  0  0  0  0  0
   -1.5092    1.3915   -1.1357 H   0  0  0  0  0  0  0  0  0  0  0  0
   -0.9984    0.0568   -2.2796 H   0  0  0  0  0  0  0  0  0  0  0  0
    0.6092    2.4210   -1.1398 H   0  0  0  0  0  0  0  0  0  0  0  0
    0.2560    1.8807   -2.8848 H   0  0  0  0  0  0  0  0  0  0  0  0
    1.5597   -0.0437   -2.6868 H   0  0  0  0  0  0  0  0  0  0  0  0
    2.5567    1.1308   -1.7927 H   0  0  0  0  0  0  0  0  0  0  0  0
    1.5798   -1.1923   -0.6503 H   0  0  0  0  0  0  0  0  0  0  0  0
    3.9615   -0.0213   -0.2432 H   0  0  0  0  0  0  0  0  0  0  0  0
    3.6777    1.2711    2.4402 H   0  0  0  0  0  0  0  0  0  0  0  0
    5.7695    2.3400    2.1027 H   0  0  0  0  0  0  0  0  0  0  0  0
    4.8014    2.7919    0.6802 H   0  0  0  0  0  0  0  0  0  0  0  0
    5.9509    0.8990   -0.5970 H   0  0  0  0  0  0  0  0  0  0  0  0
    6.9441    2.2704   -0.0616 H   0  0  0  0  0  0  0  0  0  0  0  0
    6.9449   -1.3269    1.8429 H   0  0  0  0  0  0  0  0  0  0  0  0
    5.9323   -0.9386    0.3521 H   0  0  0  0  0  0  0  0  0  0  0  0
    5.5906    0.1442    3.1841 H   0  0  0  0  0  0  0  0  0  0  0  0
    4.5687   -1.1669    2.3707 H   0  0  0  0  0  0  0  0  0  0  0  0
   -3.0366    0.3852    3.9860 H   0  0  0  0  0  0  0  0  0  0  0  0
  1  2  1  0
  2  3  1  0
  3  4  1  0
  4  5  1  0
  5  6  1  0
  6  7  1  0
  7  8  1  0
  8  9  1  0
  9 10  1  0
  4 11  1  0
 11 12  2  0
 11 13  1  0
 13 14  1  0
 14 15  1  0
 15 16  1  0
 16 17  1  0
 17 18  1  0
 18 19  2  0
 18 20  1  0
 20 21  1  0
 21 22  1  0
 22 23  1  0
 23 24  1  0
 24 25  1  0
 25 26  1  0
  2 27  1  0
 27 28  2  0
 10  6  1  0
 17 13  1  0
 26 21  1  0
  1 29  1  0
  3 30  1  0
  3 31  1  0
  4 32  1  1
  5 33  1  0
  5 34  1  0
  6 35  1  0
  7 36  1  0
  7 37  1  0
  8 38  1  0
  8 39  1  0
  9 40  1  0
  9 41  1  0
 10 42  1  0
 10 43  1  0
 14 44  1  0
 14 45  1  0
 15 46  1  0
 15 47  1  0
 16 48  1  0
 16 49  1  0
 17 50  1  6
 20 51  1  0
 21 52  1  0
 22 53  1  0
 22 54  1  0
 23 55  1  0
 23 56  1  0
 25 57  1  0
 25 58  1  0
 26 59  1  0
 26 60  1  0
 27 61  1  0
M  END
$$$$
[H]c1c([H])c([H])c2sc(C(=O)[C@@]([H])(N([H])C(=O)[C@@]([H])(N([H])C(=O)[C@@]([H])(N([H])C(=O)C([H])([H])[H])C([H])([H])C([H])([H])C(=O)N([H])[H])C([H])([H])C([H])(C([H])([H])[H])C([H])([H])[H])C([H])([H])C([H])([H])C([H])([H])C([H])([H])N([H])[H])nc2c1[H]
     RDKit          3D

 76 77  0  0  0  0  0  0  0  0999 V2000
    1.0221   -1.1950   -3.8531 C   0  0  0  0  0  0  0  0  0  0  0  0
    0.5704   -2.0634   -2.6807 C   0  0  0  0  0  0  0  0  0  0  0  0
    1.1254   -3.4971   -2.9381 C   0  0  0  0  0  0  0  0  0  0  0  0
    1.2059   -1.6261   -1.4176 C   0  0  0  0  0  0  0  0  0  0  0  0
    0.9583   -0.2099   -0.9471 C   0  0  2  0  0  0  0  0  0  0  0  0
    1.8224    0.0198    0.2501 N   0  0  0  0  0  0  0  0  0  0  0  0
    3.1825    0.1474    0.0712 C   0  0  0  0  0  0  0  0  0  0  0  0
    3.7127    0.0529   -1.0563 O   0  0  0  0  0  0  0  0  0  0  0  0
    4.1934    0.4077    1.2132 C   0  0  2  0  0  0  0  0  0  0  0  0
    4.7757    1.7990    0.7901 C   0  0  0  0  0  0  0  0  0  0  0  0
    5.7109    2.3838    1.6984 C   0  0  0  0  0  0  0  0  0  0  0  0
    6.8645    1.7557    2.2547 C   0  0  0  0  0  0  0  0  0  0  0  0
    8.1762    1.9373    1.7555 N   0  0  0  0  0  0  0  0  0  0  0  0
    6.7633    0.9810    3.2688 O   0  0  0  0  0  0  0  0  0  0  0  0
    5.1807   -0.5637    1.0347 N   0  0  0  0  0  0  0  0  0  0  0  0
    6.1496   -1.5190    0.8741 C   0  0  0  0  0  0  0  0  0  0  0  0
    6.5683   -1.8248   -0.5875 C   0  0  0  0  0  0  0  0  0  0  0  0
    6.7807   -2.2181    1.6927 O   0  0  0  0  0  0  0  0  0  0  0  0
   -0.4391   -0.1264   -0.4455 C   0  0  0  0  0  0  0  0  0  0  0  0
   -0.6228   -0.0598    0.7819 O   0  0  0  0  0  0  0  0  0  0  0  0
   -1.5184   -0.1358   -1.3577 N   0  0  0  0  0  0  0  0  0  0  0  0
   -2.8903   -0.1029   -0.9671 C   0  0  1  0  0  0  0  0  0  0  0  0
   -3.2256   -0.5444    0.3712 C   0  0  0  0  0  0  0  0  0  0  0  0
   -2.9446   -2.0164    0.6072 C   0  0  0  0  0  0  0  0  0  0  0  0
   -3.7924   -2.9471   -0.2199 C   0  0  0  0  0  0  0  0  0  0  0  0
   -5.2833   -2.8264    0.1188 C   0  0  0  0  0  0  0  0  0  0  0  0
   -5.3502   -3.1625    1.5609 N   0  0  0  0  0  0  0  0  0  0  0  0
   -3.5244    1.1054   -1.4847 C   0  0  0  0  0  0  0  0  0  0  0  0
   -3.4048    1.3148   -2.7574 O   0  0  0  0  0  0  0  0  0  0  0  0
   -4.2524    2.0534   -0.6634 C   0  0  0  0  0  0  0  0  0  0  0  0
   -4.4330    2.1291    0.6278 N   0  0  0  0  0  0  0  0  0  0  0  0
   -5.1232    3.0992    1.1584 C   0  0  0  0  0  0  0  0  0  0  0  0
   -5.3289    3.2723    2.5626 C   0  0  0  0  0  0  0  0  0  0  0  0
   -6.0594    4.3849    2.9595 C   0  0  0  0  0  0  0  0  0  0  0  0
   -6.6024    5.3253    2.1372 C   0  0  0  0  0  0  0  0  0  0  0  0
   -6.3870    5.1384    0.7691 C   0  0  0  0  0  0  0  0  0  0  0  0
   -5.6519    4.0268    0.3169 C   0  0  0  0  0  0  0  0  0  0  0  0
   -5.1234    3.4612   -1.2118 S   0  0  0  0  0  0  0  0  0  0  0  0
    0.2444   -0.4840   -4.1849 H   0  0  0  0  0  0  0  0  0  0  0  0
    1.1610   -1.9029   -4.6872 H   0  0  0  0  0  0  0  0  0  0  0  0
    1.9659   -0.7267   -3.5876 H   0  0  0  0  0  0  0  0  0  0  0  0
   -0.4983   -2.1503   -2.6436 H   0  0  0  0  0  0  0  0  0  0  0  0
    1.1916   -3.6286   -4.0230 H   0  0  0  0  0  0  0  0  0  0  0  0
    2.1849   -3.5791   -2.5272 H   0  0  0  0  0  0  0  0  0  0  0  0
    0.4989   -4.2501   -2.4282 H   0  0  0  0  0  0  0  0  0  0  0  0
    2.3161   -1.7625   -1.5469 H   0  0  0  0  0  0  0  0  0  0  0  0
    0.8382   -2.3340   -0.6304 H   0  0  0  0  0  0  0  0  0  0  0  0
    1.2395    0.5072   -1.6930 H   0  0  0  0  0  0  0  0  0  0  0  0
    1.3665    0.0483    1.1542 H   0  0  0  0  0  0  0  0  0  0  0  0
    3.6825    0.5509    2.1086 H   0  0  0  0  0  0  0  0  0  0  0  0
    3.8268    2.4438    0.7732 H   0  0  0  0  0  0  0  0  0  0  0  0
    5.0700    1.7433   -0.2649 H   0  0  0  0  0  0  0  0  0  0  0  0
    6.2103    3.3215    1.1081 H   0  0  0  0  0  0  0  0  0  0  0  0
    5.2186    3.0217    2.5213 H   0  0  0  0  0  0  0  0  0  0  0  0
    8.7838    1.1461    1.5606 H   0  0  0  0  0  0  0  0  0  0  0  0
    8.5162    2.9059    1.6078 H   0  0  0  0  0  0  0  0  0  0  0  0
    5.0817   -0.9234    2.3395 H   0  0  0  0  0  0  0  0  0  0  0  0
    6.7721   -0.8920   -1.1154 H   0  0  0  0  0  0  0  0  0  0  0  0
    7.4536   -2.4618   -0.5944 H   0  0  0  0  0  0  0  0  0  0  0  0
    5.6599   -2.2703   -1.0412 H   0  0  0  0  0  0  0  0  0  0  0  0
   -1.2865   -0.1003   -2.3886 H   0  0  0  0  0  0  0  0  0  0  0  0
   -3.3623   -0.9696   -1.7008 H   0  0  0  0  0  0  0  0  0  0  0  0
   -4.3663   -0.4878    0.5631 H   0  0  0  0  0  0  0  0  0  0  0  0
   -2.8470    0.0603    1.2161 H   0  0  0  0  0  0  0  0  0  0  0  0
   -3.0519   -2.2172    1.6767 H   0  0  0  0  0  0  0  0  0  0  0  0
   -1.8890   -2.2925    0.3698 H   0  0  0  0  0  0  0  0  0  0  0  0
   -3.6772   -2.8252   -1.2832 H   0  0  0  0  0  0  0  0  0  0  0  0
   -3.5417   -4.0018    0.0419 H   0  0  0  0  0  0  0  0  0  0  0  0
   -5.6675   -1.8279   -0.0579 H   0  0  0  0  0  0  0  0  0  0  0  0
   -5.7843   -3.6169   -0.4733 H   0  0  0  0  0  0  0  0  0  0  0  0
   -4.7285   -4.0033    1.7844 H   0  0  0  0  0  0  0  0  0  0  0  0
   -6.3373   -3.3238    1.8471 H   0  0  0  0  0  0  0  0  0  0  0  0
   -4.9435    2.6205    3.2860 H   0  0  0  0  0  0  0  0  0  0  0  0
   -6.2002    4.5235    4.0278 H   0  0  0  0  0  0  0  0  0  0  0  0
   -7.1460    6.1627    2.5406 H   0  0  0  0  0  0  0  0  0  0  0  0
   -6.7604    5.8200    0.0580 H   0  0  0  0  0  0  0  0  0  0  0  0
  1  2  1  0
  2  3  1  0
  2  4  1  0
  4  5  1  0
  5  6  1  0
  6  7  1  0
  7  8  2  0
  7  9  1  0
  9 10  1  0
 10 11  1  0
 11 12  1  0
 12 13  1  0
 12 14  2  0
  9 15  1  0
 15 16  1  0
 16 17  1  0
 16 18  2  0
  5 19  1  0
 19 20  2  0
 19 21  1  0
 21 22  1  0
 22 23  1  0
 23 24  1  0
 24 25  1  0
 25 26  1  0
 26 27  1  0
 22 28  1  0
 28 29  2  0
 28 30  1  0
 30 31  2  0
 31 32  1  0
 32 33  2  0
 33 34  1  0
 34 35  2  0
 35 36  1  0
 36 37  2  0
 37 38  1  0
 38 30  1  0
 37 32  1  0
  1 39  1  0
  1 40  1  0
  1 41  1  0
  2 42  1  0
  3 43  1  0
  3 44  1  0
  3 45  1  0
  4 46  1  0
  4 47  1  0
  5 48  1  6
  6 49  1  0
  9 50  1  1
 10 51  1  0
 10 52  1  0
 11 53  1  0
 11 54  1  0
 13 55  1  0
 13 56  1  0
 15 57  1  0
 17 58  1  0
 17 59  1  0
 17 60  1  0
 21 61  1  0
 22 62  1  6
 23 63  1  0
 23 64  1  0
 24 65  1  0
 24 66  1  0
 25 67  1  0
 25 68  1  0
 26 69  1  0
 26 70  1  0
 27 71  1  0
 27 72  1  0
 33 73  1  0
 34 74  1  0
 35 75  1  0
 36 76  1  0
M  END
$$$$
[H]c1nc(N([H])c2c([H])c([H])c(N3C([H])([H])C([H])([H])N(C([H])(C([H])([H])[H])C([H])([H])[H])C([H])([H])C3([H])[H])c([H])c2OC([H])([H])[H])nc(N([H])c2c([H])c([H])c([H])c([H])c2S(=O)(=O)C([H])(C([H])([H])[H])C([H])([H])[H])c1Cl
     RDKit          3D

 73 76  0  0  0  0  0  0  0  0999 V2000
    1.7459   -4.0589   -0.0736 C   0  0  0  0  0  0  0  0  0  0  0  0
    0.9975   -2.8664   -0.1438 O   0  0  0  0  0  0  0  0  0  0  0  0
    1.6912   -1.6509    0.0131 C   0  0  0  0  0  0  0  0  0  0  0  0
    3.0377   -1.6397    0.2223 C   0  0  0  0  0  0  0  0  0  0  0  0
    3.7807   -0.4723    0.3845 C   0  0  0  0  0  0  0  0  0  0  0  0
    3.0658    0.6903    0.3198 C   0  0  0  0  0  0  0  0  0  0  0  0
    1.6705    0.7103    0.1044 C   0  0  0  0  0  0  0  0  0  0  0  0
    0.9847   -0.4408   -0.0488 C   0  0  0  0  0  0  0  0  0  0  0  0
   -0.3913   -0.5412   -0.2119 N   0  0  0  0  0  0  0  0  0  0  0  0
   -1.2589    0.4838   -0.6389 C   0  0  0  0  0  0  0  0  0  0  0  0
   -0.7856    1.6851   -0.9759 N   0  0  0  0  0  0  0  0  0  0  0  0
   -1.5619    2.6913   -1.3993 C   0  0  0  0  0  0  0  0  0  0  0  0
   -2.9101    2.4276   -1.4737 C   0  0  0  0  0  0  0  0  0  0  0  0
   -4.0353    3.6674   -2.0239 Cl  0  0  0  0  0  0  0  0  0  0  0  0
   -3.4422    1.1933   -1.1316 C   0  0  0  0  0  0  0  0  0  0  0  0
   -4.8349    0.9794   -1.2123 N   0  0  0  0  0  0  0  0  0  0  0  0
   -5.6066   -0.1435   -0.9296 C   0  0  0  0  0  0  0  0  0  0  0  0
   -5.1155   -1.3905   -0.5878 C   0  0  0  0  0  0  0  0  0  0  0  0
   -5.9217   -2.4986   -0.3254 C   0  0  0  0  0  0  0  0  0  0  0  0
   -7.2735   -2.3263   -0.4156 C   0  0  0  0  0  0  0  0  0  0  0  0
   -7.7793   -1.0913   -0.7551 C   0  0  0  0  0  0  0  0  0  0  0  0
   -7.0095    0.0175   -1.0186 C   0  0  0  0  0  0  0  0  0  0  0  0
   -7.7703    1.5041   -1.4481 S   0  0  0  0  0  0  0  0  0  0  0  0
   -7.4722    1.9809   -2.8289 O   0  0  0  0  0  0  0  0  0  0  0  0
   -7.3778    2.6273   -0.4952 O   0  0  0  0  0  0  0  0  0  0  0  0
   -9.5405    1.3079   -1.3496 C   0  0  0  0  0  0  0  0  0  0  0  0
   -9.9592    1.1802    0.0874 C   0  0  0  0  0  0  0  0  0  0  0  0
  -10.2285    2.5513   -1.9020 C   0  0  0  0  0  0  0  0  0  0  0  0
   -2.6111    0.2446   -0.7211 N   0  0  0  0  0  0  0  0  0  0  0  0
    5.1682   -0.5539    0.5818 N   0  0  0  0  0  0  0  0  0  0  0  0
    5.8628   -1.7748    0.2060 C   0  0  0  0  0  0  0  0  0  0  0  0
    7.3232   -1.4714   -0.0646 C   0  0  0  0  0  0  0  0  0  0  0  0
    7.9345   -0.6523    0.8881 N   0  0  0  0  0  0  0  0  0  0  0  0
    7.1917    0.1331    1.7760 C   0  0  0  0  0  0  0  0  0  0  0  0
    5.8747    0.5689    1.1616 C   0  0  0  0  0  0  0  0  0  0  0  0
    9.1432   -0.0162    0.4705 C   0  0  0  0  0  0  0  0  0  0  0  0
    8.9334    0.9402   -0.6607 C   0  0  0  0  0  0  0  0  0  0  0  0
    9.8709    0.7000    1.5903 C   0  0  0  0  0  0  0  0  0  0  0  0
    2.4065   -4.2087   -0.9522 H   0  0  0  0  0  0  0  0  0  0  0  0
    1.0472   -4.9400   -0.0748 H   0  0  0  0  0  0  0  0  0  0  0  0
    2.3814   -4.1196    0.8473 H   0  0  0  0  0  0  0  0  0  0  0  0
    3.5668   -2.6048    0.2638 H   0  0  0  0  0  0  0  0  0  0  0  0
    3.6235    1.6255    0.4403 H   0  0  0  0  0  0  0  0  0  0  0  0
    1.2279    1.7107    0.0988 H   0  0  0  0  0  0  0  0  0  0  0  0
   -0.8756   -1.4990    0.0159 H   0  0  0  0  0  0  0  0  0  0  0  0
   -1.2173    3.6679   -1.6798 H   0  0  0  0  0  0  0  0  0  0  0  0
   -5.3783    1.8309   -1.5609 H   0  0  0  0  0  0  0  0  0  0  0  0
   -4.0528   -1.5803   -0.5095 H   0  0  0  0  0  0  0  0  0  0  0  0
   -5.5189   -3.4453   -0.0664 H   0  0  0  0  0  0  0  0  0  0  0  0
   -7.9757   -3.1563   -0.2235 H   0  0  0  0  0  0  0  0  0  0  0  0
   -8.8789   -1.0194   -0.8200 H   0  0  0  0  0  0  0  0  0  0  0  0
   -9.8828    0.4780   -1.9853 H   0  0  0  0  0  0  0  0  0  0  0  0
   -9.0611    0.8334    0.6781 H   0  0  0  0  0  0  0  0  0  0  0  0
  -10.8027    0.4809    0.2508 H   0  0  0  0  0  0  0  0  0  0  0  0
  -10.1828    2.1843    0.4997 H   0  0  0  0  0  0  0  0  0  0  0  0
  -10.4409    3.2339   -1.0589 H   0  0  0  0  0  0  0  0  0  0  0  0
  -11.1218    2.2869   -2.4853 H   0  0  0  0  0  0  0  0  0  0  0  0
   -9.5074    3.0974   -2.5678 H   0  0  0  0  0  0  0  0  0  0  0  0
    5.3522   -2.2139   -0.6686 H   0  0  0  0  0  0  0  0  0  0  0  0
    5.8157   -2.4980    1.0338 H   0  0  0  0  0  0  0  0  0  0  0  0
    7.3323   -0.9736   -1.0730 H   0  0  0  0  0  0  0  0  0  0  0  0
    7.9121   -2.4086   -0.2102 H   0  0  0  0  0  0  0  0  0  0  0  0
    6.9693   -0.3588    2.7620 H   0  0  0  0  0  0  0  0  0  0  0  0
    7.7416    1.1062    1.9612 H   0  0  0  0  0  0  0  0  0  0  0  0
    6.0173    1.4117    0.4570 H   0  0  0  0  0  0  0  0  0  0  0  0
    5.2799    1.0039    2.0119 H   0  0  0  0  0  0  0  0  0  0  0  0
    9.8669   -0.8087    0.1180 H   0  0  0  0  0  0  0  0  0  0  0  0
    9.1949    1.9866   -0.3556 H   0  0  0  0  0  0  0  0  0  0  0  0
    9.5418    0.6374   -1.5545 H   0  0  0  0  0  0  0  0  0  0  0  0
    7.8848    0.9654   -0.9567 H   0  0  0  0  0  0  0  0  0  0  0  0
    9.7553    0.1812    2.5611 H   0  0  0  0  0  0  0  0  0  0  0  0
   10.9623    0.6603    1.3458 H   0  0  0  0  0  0  0  0  0  0  0  0
    9.6264    1.7570    1.6876 H   0  0  0  0  0  0  0  0  0  0  0  0
  1  2  1  0
  2  3  1  0
  3  4  2  0
  4  5  1  0
  5  6  2  0
  6  7  1  0
  7  8  2  0
  8  9  1  0
  9 10  1  0
 10 11  2  0
 11 12  1  0
 12 13  2  0
 13 14  1  0
 13 15  1  0
 15 16  1  0
 16 17  1  0
 17 18  2  0
 18 19  1  0
 19 20  2  0
 20 21  1  0
 21 22  2  0
 22 23  1  0
 23 24  2  0
 23 25  2  0
 23 26  1  0
 26 27  1  0
 26 28  1  0
 15 29  2  0
  5 30  1  0
 30 31  1  0
 31 32  1  0
 32 33  1  0
 33 34  1  0
 34 35  1  0
 33 36  1  0
 36 37  1  0
 36 38  1  0
  8  3  1  0
 29 10  1  0
 35 30  1  0
 22 17  1  0
  1 39  1  0
  1 40  1  0
  1 41  1  0
  4 42  1  0
  6 43  1  0
  7 44  1  0
  9 45  1  0
 12 46  1  0
 16 47  1  0
 18 48  1  0
 19 49  1  0
 20 50  1  0
 21 51  1  0
 26 52  1  0
 27 53  1  0
 27 54  1  0
 27 55  1  0
 28 56  1  0
 28 57  1  0
 28 58  1  0
 31 59  1  0
 31 60  1  0
 32 61  1  0
 32 62  1  0
 34 63  1  0
 34 64  1  0
 35 65  1  0
 35 66  1  0
 36 67  1  0
 37 68  1  0
 37 69  1  0
 37 70  1  0
 38 71  1  0
 38 72  1  0
 38 73  1  0
M  END
$$$$
[H]OC(=O)c1[se]c(-c2c([H])c([H])c(-c3c([H])c([H])c([H])c([H])c3[H])c(C(F)(F)F)c2[H])nc1C([H])([H])[H]
     RDKit          3D

 37 39  0  0  0  0  0  0  0  0999 V2000
   -5.5383    1.3865   -1.4169 C   0  0  0  0  0  0  0  0  0  0  0  0
   -4.5041    0.5913   -0.5749 C   0  0  0  0  0  0  0  0  0  0  0  0
   -3.2711    0.7064   -0.7177 N   0  0  0  0  0  0  0  0  0  0  0  0
   -2.2434    0.2149   -0.2031 C   0  0  0  0  0  0  0  0  0  0  0  0
   -3.3903   -1.0443    1.1721 Se  0  0  0  0  0  2  0  0  0  0  0  0
   -5.1083   -0.2353    0.3257 C   0  0  0  0  0  0  0  0  0  0  0  0
   -6.4463   -0.5719    0.7088 C   0  0  0  0  0  0  0  0  0  0  0  0
   -6.6433   -1.4983    1.7108 O   0  0  0  0  0  0  0  0  0  0  0  0
   -7.3878   -0.0248    0.1331 O   0  0  0  0  0  0  0  0  0  0  0  0
   -0.8214    0.1514   -0.1562 C   0  0  0  0  0  0  0  0  0  0  0  0
   -0.0993    0.9436   -1.0215 C   0  0  0  0  0  0  0  0  0  0  0  0
    1.2530    0.9575   -1.0568 C   0  0  0  0  0  0  0  0  0  0  0  0
    1.9803    0.1318   -0.1774 C   0  0  0  0  0  0  0  0  0  0  0  0
    3.4321    0.1516   -0.2180 C   0  0  0  0  0  0  0  0  0  0  0  0
    4.1141   -0.7295   -1.0240 C   0  0  0  0  0  0  0  0  0  0  0  0
    5.5028   -0.7330   -1.1038 C   0  0  0  0  0  0  0  0  0  0  0  0
    6.2338    0.1607   -0.3652 C   0  0  0  0  0  0  0  0  0  0  0  0
    5.5770    1.0520    0.4481 C   0  0  0  0  0  0  0  0  0  0  0  0
    4.1936    1.0388    0.5132 C   0  0  0  0  0  0  0  0  0  0  0  0
    1.2833   -0.6607    0.6876 C   0  0  0  0  0  0  0  0  0  0  0  0
   -0.1242   -0.6476    0.6949 C   0  0  0  0  0  0  0  0  0  0  0  0
    1.9651   -1.5625    1.6470 C   0  0  0  0  0  0  0  0  0  0  0  0
    1.0233   -2.2481    2.4231 F   0  0  0  0  0  0  0  0  0  0  0  0
    2.8839   -0.9491    2.4379 F   0  0  0  0  0  0  0  0  0  0  0  0
    2.6066   -2.5507    0.9113 F   0  0  0  0  0  0  0  0  0  0  0  0
   -6.1843    1.9662   -0.7282 H   0  0  0  0  0  0  0  0  0  0  0  0
   -5.0560    2.0675   -2.0996 H   0  0  0  0  0  0  0  0  0  0  0  0
   -6.1775    0.6765   -1.9637 H   0  0  0  0  0  0  0  0  0  0  0  0
   -6.2442   -1.4287    2.6343 H   0  0  0  0  0  0  0  0  0  0  0  0
   -0.6566    1.5925   -1.7128 H   0  0  0  0  0  0  0  0  0  0  0  0
    1.8009    1.5752   -1.7312 H   0  0  0  0  0  0  0  0  0  0  0  0
    3.5569   -1.4465   -1.6204 H   0  0  0  0  0  0  0  0  0  0  0  0
    6.0084   -1.4370   -1.7455 H   0  0  0  0  0  0  0  0  0  0  0  0
    7.3235    0.1934   -0.3970 H   0  0  0  0  0  0  0  0  0  0  0  0
    6.1309    1.7712    1.0444 H   0  0  0  0  0  0  0  0  0  0  0  0
    3.6654    1.7303    1.1452 H   0  0  0  0  0  0  0  0  0  0  0  0
   -0.6384   -1.2911    1.3966 H   0  0  0  0  0  0  0  0  0  0  0  0
  1  2  1  0
  2  3  1  0
  3  4  2  0
  4  5  1  0
  5  6  1  0
  6  7  1  0
  7  8  1  0
  7  9  2  0
  4 10  1  0
 10 11  2  0
 11 12  1  0
 12 13  2  0
 13 14  1  0
 14 15  2  0
 15 16  1  0
 16 17  2  0
 17 18  1  0
 18 19  2  0
 13 20  1  0
 20 21  2  0
 20 22  1  0
 22 23  1  0
 22 24  1  0
 22 25  1  0
  6  2  2  0
 21 10  1  0
 19 14  1  0
  1 26  1  0
  1 27  1  0
  1 28  1  0
  8 29  1  0
 11 30  1  0
 12 31  1  0
 15 32  1  0
 16 33  1  0
 17 34  1  0
 18 35  1  0
 19 36  1  0
 21 37  1  0
M  END
$$$$
[H]N=C(N([H])[H])N([H])C([H])([H])C([H])([H])C([H])([H])[C@@]1([H])C(=O)N([H])[C@@]([H])(C([H])([H])c2c([H])nc([H])n2[H])C(=O)N([H])[C@@]([H])(C([H])([H])c2c([H])nc([H])n2[H])C(=O)N([H])[C@@]([H])(C([H])([H])c2c([H])nc([H])n2[H])C(=O)N([H])[C@@]([H])(C([H])([H])O[H])C(=O)N1[H]
     RDKit          3D

 85 88  0  0  0  0  0  0  0  0999 V2000
    7.0364   -2.8242    2.6925 N   0  0  0  0  0  0  0  0  0  0  0  0
    6.5393   -3.1327    1.4072 C   0  0  0  0  0  0  0  0  0  0  0  0
    6.0809   -4.3195    1.1877 N   0  0  0  0  0  0  0  0  0  0  0  0
    6.5579   -2.1366    0.4045 N   0  0  0  0  0  0  0  0  0  0  0  0
    5.3125   -1.3725    0.1742 C   0  0  0  0  0  0  0  0  0  0  0  0
    5.0639   -0.5240    1.3755 C   0  0  0  0  0  0  0  0  0  0  0  0
    3.9145    0.3893    1.3990 C   0  0  0  0  0  0  0  0  0  0  0  0
    2.5713   -0.2401    1.2921 C   0  0  2  0  0  0  0  0  0  0  0  0
    2.3764   -0.9295    0.0767 N   0  0  0  0  0  0  0  0  0  0  0  0
    1.5265   -2.0238   -0.1945 C   0  0  0  0  0  0  0  0  0  0  0  0
    1.8596   -2.7741   -1.1784 O   0  0  0  0  0  0  0  0  0  0  0  0
    0.3044   -2.4023    0.5201 C   0  0  2  0  0  0  0  0  0  0  0  0
    0.5736   -3.3415    1.6798 C   0  0  0  0  0  0  0  0  0  0  0  0
    1.1261   -4.5334    1.2862 O   0  0  0  0  0  0  0  0  0  0  0  0
   -0.6265   -3.1114   -0.3491 N   0  0  0  0  0  0  0  0  0  0  0  0
   -1.6425   -2.4545   -1.0809 C   0  0  0  0  0  0  0  0  0  0  0  0
   -2.0039   -2.8690   -2.2345 O   0  0  0  0  0  0  0  0  0  0  0  0
   -2.3425   -1.2566   -0.5579 C   0  0  2  0  0  0  0  0  0  0  0  0
   -3.1904   -1.7483    0.6161 C   0  0  0  0  0  0  0  0  0  0  0  0
   -4.1832   -2.7732    0.1995 C   0  0  0  0  0  0  0  0  0  0  0  0
   -4.0245   -4.1426    0.1531 C   0  0  0  0  0  0  0  0  0  0  0  0
   -5.1929   -4.6703   -0.2834 N   0  0  0  0  0  0  0  0  0  0  0  0
   -6.0783   -3.6858   -0.5123 C   0  0  0  0  0  0  0  0  0  0  0  0
   -5.4425   -2.5404   -0.2117 N   0  0  0  0  0  0  0  0  0  0  0  0
   -3.1955   -0.6840   -1.5675 N   0  0  0  0  0  0  0  0  0  0  0  0
   -3.3383    0.6894   -1.8575 C   0  0  0  0  0  0  0  0  0  0  0  0
   -4.2549    1.0039   -2.6687 O   0  0  0  0  0  0  0  0  0  0  0  0
   -2.4877    1.7744   -1.2753 C   0  0  2  0  0  0  0  0  0  0  0  0
   -3.2454    3.0667   -1.4261 C   0  0  0  0  0  0  0  0  0  0  0  0
   -4.5304    3.0725   -0.7273 C   0  0  0  0  0  0  0  0  0  0  0  0
   -5.4679    4.1194   -0.7329 C   0  0  0  0  0  0  0  0  0  0  0  0
   -6.5194    3.8098    0.0070 N   0  0  0  0  0  0  0  0  0  0  0  0
   -6.2941    2.5811    0.4997 C   0  0  0  0  0  0  0  0  0  0  0  0
   -5.0814    2.1403    0.0481 N   0  0  0  0  0  0  0  0  0  0  0  0
   -1.2152    1.8128   -1.9530 N   0  0  0  0  0  0  0  0  0  0  0  0
    0.0648    1.8032   -1.4129 C   0  0  0  0  0  0  0  0  0  0  0  0
    0.9770    1.3003   -2.1686 O   0  0  0  0  0  0  0  0  0  0  0  0
    0.5010    2.2981   -0.0854 C   0  0  2  0  0  0  0  0  0  0  0  0
    1.7501    3.1310   -0.1782 C   0  0  0  0  0  0  0  0  0  0  0  0
    1.5649    4.3497   -1.0341 C   0  0  0  0  0  0  0  0  0  0  0  0
    1.7892    4.5085   -2.3793 C   0  0  0  0  0  0  0  0  0  0  0  0
    1.4721    5.7764   -2.6924 N   0  0  0  0  0  0  0  0  0  0  0  0
    1.0546    6.4438   -1.6138 C   0  0  0  0  0  0  0  0  0  0  0  0
    1.1141    5.5634   -0.6016 N   0  0  0  0  0  0  0  0  0  0  0  0
    0.4902    1.3236    0.9698 N   0  0  0  0  0  0  0  0  0  0  0  0
    1.4823    0.6969    1.6993 C   0  0  0  0  0  0  0  0  0  0  0  0
    1.5078    0.9369    2.9707 O   0  0  0  0  0  0  0  0  0  0  0  0
    7.7535   -2.0855    2.7850 H   0  0  0  0  0  0  0  0  0  0  0  0
    6.6677   -3.3465    3.5084 H   0  0  0  0  0  0  0  0  0  0  0  0
    5.6984   -4.5937    0.2380 H   0  0  0  0  0  0  0  0  0  0  0  0
    7.3969   -1.9326   -0.1577 H   0  0  0  0  0  0  0  0  0  0  0  0
    5.4627   -0.7885   -0.7500 H   0  0  0  0  0  0  0  0  0  0  0  0
    4.5470   -2.1693   -0.0015 H   0  0  0  0  0  0  0  0  0  0  0  0
    6.0182    0.0596    1.6152 H   0  0  0  0  0  0  0  0  0  0  0  0
    5.0242   -1.2554    2.2549 H   0  0  0  0  0  0  0  0  0  0  0  0
    4.0088    1.0666    0.4901 H   0  0  0  0  0  0  0  0  0  0  0  0
    3.9660    1.1208    2.2554 H   0  0  0  0  0  0  0  0  0  0  0  0
    2.6242   -1.0829    2.0886 H   0  0  0  0  0  0  0  0  0  0  0  0
    2.9565   -0.5564   -0.7526 H   0  0  0  0  0  0  0  0  0  0  0  0
   -0.2751   -1.5659    0.9472 H   0  0  0  0  0  0  0  0  0  0  0  0
   -0.4481   -3.5837    2.1019 H   0  0  0  0  0  0  0  0  0  0  0  0
    1.1168   -2.8744    2.5184 H   0  0  0  0  0  0  0  0  0  0  0  0
    0.7494   -5.3371    1.7326 H   0  0  0  0  0  0  0  0  0  0  0  0
   -0.5201   -4.1407   -0.4223 H   0  0  0  0  0  0  0  0  0  0  0  0
   -1.6479   -0.5211   -0.1303 H   0  0  0  0  0  0  0  0  0  0  0  0
   -2.5529   -2.1549    1.4030 H   0  0  0  0  0  0  0  0  0  0  0  0
   -3.7550   -0.8796    1.0043 H   0  0  0  0  0  0  0  0  0  0  0  0
   -3.1498   -4.6845    0.4108 H   0  0  0  0  0  0  0  0  0  0  0  0
   -7.0973   -3.7791   -0.8661 H   0  0  0  0  0  0  0  0  0  0  0  0
   -5.9177   -1.6007   -0.3045 H   0  0  0  0  0  0  0  0  0  0  0  0
   -3.7555   -1.3963   -2.1271 H   0  0  0  0  0  0  0  0  0  0  0  0
   -2.3212    1.5531   -0.1958 H   0  0  0  0  0  0  0  0  0  0  0  0
   -3.4781    3.1549   -2.5293 H   0  0  0  0  0  0  0  0  0  0  0  0
   -2.6218    3.9568   -1.2126 H   0  0  0  0  0  0  0  0  0  0  0  0
   -5.2756    5.0296   -1.2962 H   0  0  0  0  0  0  0  0  0  0  0  0
   -6.9783    2.0575    1.1423 H   0  0  0  0  0  0  0  0  0  0  0  0
   -4.6967    1.2092    0.3097 H   0  0  0  0  0  0  0  0  0  0  0  0
   -1.2869    1.8558   -3.0199 H   0  0  0  0  0  0  0  0  0  0  0  0
   -0.3039    3.1015    0.1372 H   0  0  0  0  0  0  0  0  0  0  0  0
    2.0924    3.4710    0.7949 H   0  0  0  0  0  0  0  0  0  0  0  0
    2.5364    2.5232   -0.6874 H   0  0  0  0  0  0  0  0  0  0  0  0
    2.1585    3.7443   -3.0499 H   0  0  0  0  0  0  0  0  0  0  0  0
    0.7259    7.4939   -1.5406 H   0  0  0  0  0  0  0  0  0  0  0  0
    0.8501    5.7823    0.3806 H   0  0  0  0  0  0  0  0  0  0  0  0
   -0.5256    1.0471    1.2440 H   0  0  0  0  0  0  0  0  0  0  0  0
  1  2  1  0
  2  3  2  3
  2  4  1  0
  4  5  1  0
  5  6  1  0
  6  7  1  0
  7  8  1  0
  8  9  1  0
  9 10  1  0
 10 11  2  0
 10 12  1  0
 12 13  1  0
 13 14  1  0
 12 15  1  0
 15 16  1  0
 16 17  2  0
 16 18  1  0
 18 19  1  0
 19 20  1  0
 20 21  2  0
 21 22  1  0
 22 23  2  0
 23 24  1  0
 18 25  1  0
 25 26  1  0
 26 27  2  0
 26 28  1  0
 28 29  1  0
 29 30  1  0
 30 31  2  0
 31 32  1  0
 32 33  2  0
 33 34  1  0
 28 35  1  0
 35 36  1  0
 36 37  2  0
 36 38  1  0
 38 39  1  0
 39 40  1  0
 40 41  2  0
 41 42  1  0
 42 43  2  0
 43 44  1  0
 38 45  1  0
 45 46  1  0
 46 47  2  0
 46  8  1  0
 24 20  1  0
 34 30  1  0
 44 40  1  0
  1 48  1  0
  1 49  1  0
  3 50  1  0
  4 51  1  0
  5 52  1  0
  5 53  1  0
  6 54  1  0
  6 55  1  0
  7 56  1  0
  7 57  1  0
  8 58  1  1
  9 59  1  0
 12 60  1  1
 13 61  1  0
 13 62  1  0
 14 63  1  0
 15 64  1  0
 18 65  1  1
 19 66  1  0
 19 67  1  0
 21 68  1  0
 23 69  1  0
 24 70  1  0
 25 71  1  0
 28 72  1  1
 29 73  1  0
 29 74  1  0
 31 75  1  0
 33 76  1  0
 34 77  1  0
 35 78  1  0
 38 79  1  1
 39 80  1  0
 39 81  1  0
 41 82  1  0
 43 83  1  0
 44 84  1  0
 45 85  1  0
M  END
$$$$
[H]c1nc(N([H])c2c([H])c([H])c(OC([H])([H])c3c([H])c([H])c([H])c(F)c3[H])c(Cl)c2[H])c2c([H])c(-c3oc(C([H])([H])N([H])C([H])([H])C([H])([H])S(=O)(=O)C([H])([H])[H])c([H])c3[H])c([H])c([H])c2n1
     RDKit          3D

 66 70  0  0  0  0  0  0  0  0999 V2000
  -10.9120    0.8479   -0.2841 C   0  0  0  0  0  0  0  0  0  0  0  0
  -10.1733   -0.7401   -0.2927 S   0  0  0  0  0  0  0  0  0  0  0  0
  -11.0856   -1.8806   -0.4942 O   0  0  0  0  0  0  0  0  0  0  0  0
   -9.1107   -0.7368   -1.3861 O   0  0  0  0  0  0  0  0  0  0  0  0
   -9.2298   -1.0230    1.2375 C   0  0  0  0  0  0  0  0  0  0  0  0
   -8.2208    0.0653    1.2856 C   0  0  0  0  0  0  0  0  0  0  0  0
   -7.2178    0.0463    2.3240 N   0  0  0  0  0  0  0  0  0  0  0  0
   -6.3829   -1.1449    2.1160 C   0  0  0  0  0  0  0  0  0  0  0  0
   -4.9405   -0.8460    2.1683 C   0  0  0  0  0  0  0  0  0  0  0  0
   -3.9962   -1.0545    3.1064 C   0  0  0  0  0  0  0  0  0  0  0  0
   -2.8087   -0.5531    2.5308 C   0  0  0  0  0  0  0  0  0  0  0  0
   -3.0981   -0.0798    1.3069 C   0  0  0  0  0  0  0  0  0  0  0  0
   -4.3769   -0.2745    1.1382 O   0  0  0  0  0  0  0  0  0  0  0  0
   -2.2626    0.5529    0.2573 C   0  0  0  0  0  0  0  0  0  0  0  0
   -2.9159    1.2428   -0.7690 C   0  0  0  0  0  0  0  0  0  0  0  0
   -2.2397    1.7530   -1.8441 C   0  0  0  0  0  0  0  0  0  0  0  0
   -0.8824    1.5983   -1.9432 C   0  0  0  0  0  0  0  0  0  0  0  0
   -0.1823    2.0411   -3.0037 N   0  0  0  0  0  0  0  0  0  0  0  0
    1.1368    1.8409   -3.1108 C   0  0  0  0  0  0  0  0  0  0  0  0
    1.7801    1.1832   -2.1383 N   0  0  0  0  0  0  0  0  0  0  0  0
    1.1560    0.7006   -1.0310 C   0  0  0  0  0  0  0  0  0  0  0  0
    1.8969    0.0059   -0.0315 N   0  0  0  0  0  0  0  0  0  0  0  0
    3.2864   -0.1599   -0.3726 C   0  0  0  0  0  0  0  0  0  0  0  0
    4.2732    0.7634   -0.1494 C   0  0  0  0  0  0  0  0  0  0  0  0
    5.5719    0.5446   -0.5949 C   0  0  0  0  0  0  0  0  0  0  0  0
    5.9239   -0.5931   -1.2744 C   0  0  0  0  0  0  0  0  0  0  0  0
    7.1246   -0.8891   -1.7599 O   0  0  0  0  0  0  0  0  0  0  0  0
    8.3834   -0.5252   -1.8794 C   0  0  0  0  0  0  0  0  0  0  0  0
    9.2962   -0.3338   -0.7474 C   0  0  0  0  0  0  0  0  0  0  0  0
   10.6651   -0.1244   -1.0653 C   0  0  0  0  0  0  0  0  0  0  0  0
   11.5659    0.0710   -0.0528 C   0  0  0  0  0  0  0  0  0  0  0  0
   11.1922    0.0741    1.2996 C   0  0  0  0  0  0  0  0  0  0  0  0
    9.8682   -0.1273    1.6172 C   0  0  0  0  0  0  0  0  0  0  0  0
    9.3767   -0.1354    2.8873 F   0  0  0  0  0  0  0  0  0  0  0  0
    8.9537   -0.3282    0.5689 C   0  0  0  0  0  0  0  0  0  0  0  0
    4.8800   -1.5264   -1.4809 C   0  0  0  0  0  0  0  0  0  0  0  0
    5.2620   -3.0305   -2.3289 Cl  0  0  0  0  0  0  0  0  0  0  0  0
    3.6060   -1.3162   -1.0441 C   0  0  0  0  0  0  0  0  0  0  0  0
   -0.1800    0.9108   -0.9322 C   0  0  0  0  0  0  0  0  0  0  0  0
   -0.9092    0.4065    0.1487 C   0  0  0  0  0  0  0  0  0  0  0  0
  -10.1351    1.6306   -0.5653 H   0  0  0  0  0  0  0  0  0  0  0  0
  -11.6823    0.9639   -1.0866 H   0  0  0  0  0  0  0  0  0  0  0  0
  -11.2980    1.1246    0.6963 H   0  0  0  0  0  0  0  0  0  0  0  0
   -8.6915   -1.9883    1.0959 H   0  0  0  0  0  0  0  0  0  0  0  0
   -9.9572   -1.0221    2.0441 H   0  0  0  0  0  0  0  0  0  0  0  0
   -7.7183    0.1939    0.2706 H   0  0  0  0  0  0  0  0  0  0  0  0
   -8.8020    1.0291    1.3927 H   0  0  0  0  0  0  0  0  0  0  0  0
   -6.6524    0.9000    2.2736 H   0  0  0  0  0  0  0  0  0  0  0  0
   -6.6491   -1.6610    1.1870 H   0  0  0  0  0  0  0  0  0  0  0  0
   -6.6487   -1.8315    2.9648 H   0  0  0  0  0  0  0  0  0  0  0  0
   -4.0265   -1.4903    4.0785 H   0  0  0  0  0  0  0  0  0  0  0  0
   -1.8139   -0.5513    2.9916 H   0  0  0  0  0  0  0  0  0  0  0  0
   -4.0152    1.3510   -0.6756 H   0  0  0  0  0  0  0  0  0  0  0  0
   -2.7459    2.2925   -2.6309 H   0  0  0  0  0  0  0  0  0  0  0  0
    1.6727    2.2038   -3.9522 H   0  0  0  0  0  0  0  0  0  0  0  0
    1.5564   -0.3587    0.8617 H   0  0  0  0  0  0  0  0  0  0  0  0
    3.9907    1.6725    0.3839 H   0  0  0  0  0  0  0  0  0  0  0  0
    6.3146    1.2931   -0.4064 H   0  0  0  0  0  0  0  0  0  0  0  0
    8.8915   -1.3249   -2.5793 H   0  0  0  0  0  0  0  0  0  0  0  0
    8.5319    0.3916   -2.5868 H   0  0  0  0  0  0  0  0  0  0  0  0
   10.9212   -0.1340   -2.1029 H   0  0  0  0  0  0  0  0  0  0  0  0
   12.5957    0.2285   -0.2957 H   0  0  0  0  0  0  0  0  0  0  0  0
   11.9030    0.2273    2.0930 H   0  0  0  0  0  0  0  0  0  0  0  0
    7.9321   -0.5033    0.8574 H   0  0  0  0  0  0  0  0  0  0  0  0
    2.8310   -2.0850   -1.2350 H   0  0  0  0  0  0  0  0  0  0  0  0
   -0.3785   -0.1164    0.9436 H   0  0  0  0  0  0  0  0  0  0  0  0
  1  2  1  0
  2  3  2  0
  2  4  2  0
  2  5  1  0
  5  6  1  0
  6  7  1  0
  7  8  1  0
  8  9  1  0
  9 10  2  0
 10 11  1  0
 11 12  2  0
 12 13  1  0
 12 14  1  0
 14 15  2  0
 15 16  1  0
 16 17  2  0
 17 18  1  0
 18 19  2  0
 19 20  1  0
 20 21  2  0
 21 22  1  0
 22 23  1  0
 23 24  2  0
 24 25  1  0
 25 26  2  0
 26 27  1  0
 27 28  1  0
 28 29  1  0
 29 30  2  0
 30 31  1  0
 31 32  2  0
 32 33  1  0
 33 34  1  0
 33 35  2  0
 26 36  1  0
 36 37  1  0
 36 38  2  0
 21 39  1  0
 39 40  2  0
 13  9  1  0
 40 14  1  0
 39 17  1  0
 38 23  1  0
 35 29  1  0
  1 41  1  0
  1 42  1  0
  1 43  1  0
  5 44  1  0
  5 45  1  0
  6 46  1  0
  6 47  1  0
  7 48  1  0
  8 49  1  0
  8 50  1  0
 10 51  1  0
 11 52  1  0
 15 53  1  0
 16 54  1  0
 19 55  1  0
 22 56  1  0
 24 57  1  0
 25 58  1  0
 28 59  1  0
 28 60  1  0
 30 61  1  0
 31 62  1  0
 32 63  1  0
 35 64  1  0
 38 65  1  0
 40 66  1  0
M  END
$$$$
[H]c1nc2c(OC([H])([H])[H])c([H])c(-c3c(C([H])(C([H])([H])[H])C([H])([H])[H])c4c([H])c(C5([H])C([H])([H])C([H])([H])N(C([H])([H])C(=O)N(C([H])([H])[H])C([H])([H])[H])C([H])([H])C5([H])[H])c([H])c([H])c4n3[H])c([H])n2n1
     RDKit          3D

 69 73  0  0  0  0  0  0  0  0999 V2000
    9.1177   -1.6563   -1.3352 C   0  0  0  0  0  0  0  0  0  0  0  0
    8.2564   -1.1179   -0.6185 O   0  0  0  0  0  0  0  0  0  0  0  0
    7.2751   -0.5501    0.1107 C   0  0  0  0  0  0  0  0  0  0  0  0
    5.9670   -0.5119   -0.3077 C   0  0  0  0  0  0  0  0  0  0  0  0
    4.9758    0.0902    0.4844 C   0  0  0  0  0  0  0  0  0  0  0  0
    5.3924    0.6224    1.6651 C   0  0  0  0  0  0  0  0  0  0  0  0
    6.6929    0.5687    2.0521 N   0  0  0  0  0  0  0  0  0  0  0  0
    7.2788    1.0364    3.1727 N   0  0  0  0  0  0  0  0  0  0  0  0
    8.5896    0.7639    3.1423 C   0  0  0  0  0  0  0  0  0  0  0  0
    8.8054    0.1213    1.9846 N   0  0  0  0  0  0  0  0  0  0  0  0
    7.6432    0.0056    1.3220 C   0  0  0  0  0  0  0  0  0  0  0  0
    3.6030    0.0830   -0.0354 C   0  0  0  0  0  0  0  0  0  0  0  0
    3.3233   -0.4006   -1.2787 N   0  0  0  0  0  0  0  0  0  0  0  0
    2.0085   -0.3530   -1.5143 C   0  0  0  0  0  0  0  0  0  0  0  0
    1.3377   -0.7558   -2.6560 C   0  0  0  0  0  0  0  0  0  0  0  0
   -0.0283   -0.6146   -2.6708 C   0  0  0  0  0  0  0  0  0  0  0  0
   -0.7363   -0.1037   -1.6317 C   0  0  0  0  0  0  0  0  0  0  0  0
    0.0119    0.2915   -0.4934 C   0  0  0  0  0  0  0  0  0  0  0  0
    1.3716    0.1728   -0.4180 C   0  0  0  0  0  0  0  0  0  0  0  0
    2.3907    0.4423    0.5072 C   0  0  0  0  0  0  0  0  0  0  0  0
    2.1657    1.0624    1.8106 C   0  0  0  0  0  0  0  0  0  0  0  0
    0.7641    0.8882    2.4001 C   0  0  0  0  0  0  0  0  0  0  0  0
    2.3673    2.6071    1.6443 C   0  0  0  0  0  0  0  0  0  0  0  0
   -2.1766    0.0407   -1.5128 C   0  0  0  0  0  0  0  0  0  0  0  0
   -3.0003    0.2318   -2.7147 C   0  0  0  0  0  0  0  0  0  0  0  0
   -4.4699   -0.0268   -2.3945 C   0  0  0  0  0  0  0  0  0  0  0  0
   -4.7886    0.2201   -1.0009 N   0  0  0  0  0  0  0  0  0  0  0  0
   -6.1781   -0.1634   -0.8160 C   0  0  0  0  0  0  0  0  0  0  0  0
   -6.6681    0.0503    0.5547 C   0  0  0  0  0  0  0  0  0  0  0  0
   -5.9595    0.5241    1.4567 O   0  0  0  0  0  0  0  0  0  0  0  0
   -8.0048   -0.3009    0.8581 N   0  0  0  0  0  0  0  0  0  0  0  0
   -8.5413   -0.1157    2.1945 C   0  0  0  0  0  0  0  0  0  0  0  0
   -8.8841   -0.8593   -0.1466 C   0  0  0  0  0  0  0  0  0  0  0  0
   -4.0290   -0.6328   -0.0948 C   0  0  0  0  0  0  0  0  0  0  0  0
   -2.7804   -1.1649   -0.7466 C   0  0  0  0  0  0  0  0  0  0  0  0
    9.5492   -1.0503   -2.2112 H   0  0  0  0  0  0  0  0  0  0  0  0
   10.0470   -2.1527   -0.8529 H   0  0  0  0  0  0  0  0  0  0  0  0
    8.7216   -2.5696   -1.9223 H   0  0  0  0  0  0  0  0  0  0  0  0
    5.7449   -0.9628   -1.2565 H   0  0  0  0  0  0  0  0  0  0  0  0
    4.7355    1.1152    2.3410 H   0  0  0  0  0  0  0  0  0  0  0  0
    9.3633    0.9762    3.8515 H   0  0  0  0  0  0  0  0  0  0  0  0
    4.0342   -0.7517   -1.9582 H   0  0  0  0  0  0  0  0  0  0  0  0
    1.8401   -1.1638   -3.5083 H   0  0  0  0  0  0  0  0  0  0  0  0
   -0.5640   -0.9186   -3.5443 H   0  0  0  0  0  0  0  0  0  0  0  0
   -0.5320    0.7120    0.3102 H   0  0  0  0  0  0  0  0  0  0  0  0
    2.8233    0.7517    2.6131 H   0  0  0  0  0  0  0  0  0  0  0  0
    0.1560    1.7584    2.1688 H   0  0  0  0  0  0  0  0  0  0  0  0
    0.8497    0.9111    3.5473 H   0  0  0  0  0  0  0  0  0  0  0  0
    0.3471   -0.1052    2.2092 H   0  0  0  0  0  0  0  0  0  0  0  0
    1.4072    2.9890    1.2562 H   0  0  0  0  0  0  0  0  0  0  0  0
    2.6485    3.0001    2.6333 H   0  0  0  0  0  0  0  0  0  0  0  0
    3.1805    2.6949    0.8981 H   0  0  0  0  0  0  0  0  0  0  0  0
   -2.3871    0.8973   -0.8024 H   0  0  0  0  0  0  0  0  0  0  0  0
   -2.9224    1.2709   -3.0886 H   0  0  0  0  0  0  0  0  0  0  0  0
   -2.7670   -0.4187   -3.5684 H   0  0  0  0  0  0  0  0  0  0  0  0
   -4.7854   -1.0475   -2.6199 H   0  0  0  0  0  0  0  0  0  0  0  0
   -5.0799    0.6772   -2.9867 H   0  0  0  0  0  0  0  0  0  0  0  0
   -6.8301    0.3095   -1.5960 H   0  0  0  0  0  0  0  0  0  0  0  0
   -6.2238   -1.2587   -1.0388 H   0  0  0  0  0  0  0  0  0  0  0  0
   -9.6199   -0.3316    2.2321 H   0  0  0  0  0  0  0  0  0  0  0  0
   -8.0193   -0.8614    2.8485 H   0  0  0  0  0  0  0  0  0  0  0  0
   -8.3750    0.9216    2.5440 H   0  0  0  0  0  0  0  0  0  0  0  0
   -9.7103   -1.4460    0.3049 H   0  0  0  0  0  0  0  0  0  0  0  0
   -9.2468   -0.0253   -0.7916 H   0  0  0  0  0  0  0  0  0  0  0  0
   -8.2339   -1.5105   -0.7889 H   0  0  0  0  0  0  0  0  0  0  0  0
   -3.6841    0.0486    0.7371 H   0  0  0  0  0  0  0  0  0  0  0  0
   -4.6175   -1.4157    0.3805 H   0  0  0  0  0  0  0  0  0  0  0  0
   -2.0229   -1.3291    0.0785 H   0  0  0  0  0  0  0  0  0  0  0  0
   -2.9197   -2.0276   -1.3931 H   0  0  0  0  0  0  0  0  0  0  0  0
  1  2  1  0
  2  3  1  0
  3  4  2  0
  4  5  1  0
  5  6  2  0
  6  7  1  0
  7  8  1  0
  8  9  2  0
  9 10  1  0
 10 11  2  0
  5 12  1  0
 12 13  1  0
 13 14  1  0
 14 15  2  0
 15 16  1  0
 16 17  2  0
 17 18  1  0
 18 19  2  0
 19 20  1  0
 20 21  1  0
 21 22  1  0
 21 23  1  0
 17 24  1  0
 24 25  1  0
 25 26  1  0
 26 27  1  0
 27 28  1  0
 28 29  1  0
 29 30  2  0
 29 31  1  0
 31 32  1  0
 31 33  1  0
 27 34  1  0
 34 35  1  0
 11  3  1  0
 20 12  2  0
 35 24  1  0
 11  7  1  0
 19 14  1  0
  1 36  1  0
  1 37  1  0
  1 38  1  0
  4 39  1  0
  6 40  1  0
  9 41  1  0
 13 42  1  0
 15 43  1  0
 16 44  1  0
 18 45  1  0
 21 46  1  0
 22 47  1  0
 22 48  1  0
 22 49  1  0
 23 50  1  0
 23 51  1  0
 23 52  1  0
 24 53  1  0
 25 54  1  0
 25 55  1  0
 26 56  1  0
 26 57  1  0
 28 58  1  0
 28 59  1  0
 32 60  1  0
 32 61  1  0
 32 62  1  0
 33 63  1  0
 33 64  1  0
 33 65  1  0
 34 66  1  0
 34 67  1  0
 35 68  1  0
 35 69  1  0
M  END
$$$$
[H]c1nc2c(nc(N([H])c3c([H])c([H])c(S(=O)(=O)N([H])[H])c([H])c3[H])n2C([H])([H])C([H])([H])[H])c(C#N)c1[H]
     RDKit          3D

 38 40  0  0  0  0  0  0  0  0999 V2000
   -2.2320   -3.5278    0.8755 C   0  0  0  0  0  0  0  0  0  0  0  0
   -2.3801   -2.1750    1.5426 C   0  0  0  0  0  0  0  0  0  0  0  0
   -2.2173   -1.0928    0.5932 N   0  0  0  0  0  0  0  0  0  0  0  0
   -1.0758   -0.4428    0.2362 C   0  0  0  0  0  0  0  0  0  0  0  0
    0.1953   -0.7593    0.7959 N   0  0  0  0  0  0  0  0  0  0  0  0
    1.4308   -0.1668    0.4884 C   0  0  0  0  0  0  0  0  0  0  0  0
    2.5214   -0.4870    1.3118 C   0  0  0  0  0  0  0  0  0  0  0  0
    3.7726    0.0351    1.0830 C   0  0  0  0  0  0  0  0  0  0  0  0
    4.0047    0.9002    0.0270 C   0  0  0  0  0  0  0  0  0  0  0  0
    2.9552    1.2300   -0.7941 C   0  0  0  0  0  0  0  0  0  0  0  0
    1.6846    0.6888   -0.5475 C   0  0  0  0  0  0  0  0  0  0  0  0
    5.6101    1.5384   -0.2245 S   0  0  0  0  0  0  0  0  0  0  0  0
    5.8043    3.0160    0.6455 N   0  0  0  0  0  0  0  0  0  0  0  0
    6.6082    0.5574    0.3691 O   0  0  0  0  0  0  0  0  0  0  0  0
    5.9443    1.7020   -1.6682 O   0  0  0  0  0  0  0  0  0  0  0  0
   -1.4049    0.4880   -0.6764 N   0  0  0  0  0  0  0  0  0  0  0  0
   -2.7000    0.4493   -0.9058 C   0  0  0  0  0  0  0  0  0  0  0  0
   -3.4985    1.2100   -1.7598 C   0  0  0  0  0  0  0  0  0  0  0  0
   -4.8416    0.9129   -1.7644 C   0  0  0  0  0  0  0  0  0  0  0  0
   -5.3542   -0.0866   -0.9616 C   0  0  0  0  0  0  0  0  0  0  0  0
   -4.5574   -0.8000   -0.1509 N   0  0  0  0  0  0  0  0  0  0  0  0
   -3.2168   -0.5400   -0.1130 C   0  0  0  0  0  0  0  0  0  0  0  0
   -2.9517    2.2450   -2.5880 C   0  0  0  0  0  0  0  0  0  0  0  0
   -2.5235    3.0934   -3.2697 N   0  0  0  0  0  0  0  0  0  0  0  0
   -2.8548   -4.2483    1.4489 H   0  0  0  0  0  0  0  0  0  0  0  0
   -2.5078   -3.4874   -0.1995 H   0  0  0  0  0  0  0  0  0  0  0  0
   -1.1757   -3.8806    0.9789 H   0  0  0  0  0  0  0  0  0  0  0  0
   -1.6228   -2.1409    2.3588 H   0  0  0  0  0  0  0  0  0  0  0  0
   -3.3691   -2.1162    1.9936 H   0  0  0  0  0  0  0  0  0  0  0  0
    0.1852   -1.5366    1.5238 H   0  0  0  0  0  0  0  0  0  0  0  0
    2.3631   -1.1555    2.1370 H   0  0  0  0  0  0  0  0  0  0  0  0
    4.6247   -0.2097    1.7191 H   0  0  0  0  0  0  0  0  0  0  0  0
    3.1055    1.9086   -1.6341 H   0  0  0  0  0  0  0  0  0  0  0  0
    0.8931    0.9683   -1.2200 H   0  0  0  0  0  0  0  0  0  0  0  0
    5.3274    3.8275    0.1513 H   0  0  0  0  0  0  0  0  0  0  0  0
    5.4299    2.9174    1.5951 H   0  0  0  0  0  0  0  0  0  0  0  0
   -5.5381    1.4568   -2.4007 H   0  0  0  0  0  0  0  0  0  0  0  0
   -6.4386   -0.2919   -0.9966 H   0  0  0  0  0  0  0  0  0  0  0  0
  1  2  1  0
  2  3  1  0
  3  4  1  0
  4  5  1  0
  5  6  1  0
  6  7  2  0
  7  8  1  0
  8  9  2  0
  9 10  1  0
 10 11  2  0
  9 12  1  0
 12 13  1  0
 12 14  2  0
 12 15  2  0
  4 16  2  0
 16 17  1  0
 17 18  2  0
 18 19  1  0
 19 20  2  0
 20 21  1  0
 21 22  2  0
 18 23  1  0
 23 24  3  0
 22  3  1  0
 11  6  1  0
 22 17  1  0
  1 25  1  0
  1 26  1  0
  1 27  1  0
  2 28  1  0
  2 29  1  0
  5 30  1  0
  7 31  1  0
  8 32  1  0
 10 33  1  0
 11 34  1  0
 13 35  1  0
 13 36  1  0
 19 37  1  0
 20 38  1  0
M  END
$$$$
[H]O[C@@]1([H])C([H])([H])C([H])([H])[C@@]2([H])[C@@]3([H])C([H])([H])C([H])([H])[C@]([H])(OC(=O)c4c([H])c([H])c(C(C([H])([H])[H])(C([H])([H])[H])C([H])([H])[H])c([H])c4[H])[C@]4(C([H])([H])[H])C(=O)O[C@]([H])(C([H])([H])[H])[C@@]4(C([H])([H])[H])C([H])([H])C([H])([H])[C@]3([H])[C@@]2(C([H])([H])[H])C([H])([H])C1([H])[H]
     RDKit          3D

 86 90  0  0  0  0  0  0  0  0999 V2000
    0.7215   -4.4093    2.4150 C   0  0  0  0  0  0  0  0  0  0  0  0
    0.7572   -4.1616    0.9379 C   0  0  1  0  0  0  0  0  0  0  0  0
   -0.3743   -4.5591    0.2760 O   0  0  0  0  0  0  0  0  0  0  0  0
   -0.6308   -3.6805   -0.7775 C   0  0  0  0  0  0  0  0  0  0  0  0
   -1.6660   -3.8753   -1.4803 O   0  0  0  0  0  0  0  0  0  0  0  0
    0.4566   -2.6870   -0.8107 C   0  0  1  0  0  0  0  0  0  0  0  0
    1.4491   -3.2928   -1.7896 C   0  0  0  0  0  0  0  0  0  0  0  0
   -0.0528   -1.4174   -1.3805 C   0  0  2  0  0  0  0  0  0  0  0  0
    1.0297   -0.3938   -1.7224 C   0  0  0  0  0  0  0  0  0  0  0  0
    1.0454    0.8066   -0.8584 C   0  0  0  0  0  0  0  0  0  0  0  0
    2.0793    0.9564    0.1710 C   0  0  2  0  0  0  0  0  0  0  0  0
    3.2516    1.8852   -0.0939 C   0  0  2  0  0  0  0  0  0  0  0  0
    3.7831    1.8163   -1.4852 C   0  0  0  0  0  0  0  0  0  0  0  0
    5.0597    2.5739   -1.6667 C   0  0  0  0  0  0  0  0  0  0  0  0
    5.7117    3.0637   -0.4154 C   0  0  2  0  0  0  0  0  0  0  0  0
    6.7846    3.8735   -0.7943 O   0  0  0  0  0  0  0  0  0  0  0  0
    6.3092    1.9284    0.3877 C   0  0  0  0  0  0  0  0  0  0  0  0
    5.4363    0.7193    0.4489 C   0  0  0  0  0  0  0  0  0  0  0  0
    4.0197    0.9995    0.8664 C   0  0  1  0  0  0  0  0  0  0  0  0
    3.8413    1.4635    2.2816 C   0  0  0  0  0  0  0  0  0  0  0  0
    3.0517   -0.0939    0.4301 C   0  0  1  0  0  0  0  0  0  0  0  0
    2.6451   -1.0534    1.5333 C   0  0  0  0  0  0  0  0  0  0  0  0
    2.3337   -2.3582    0.8878 C   0  0  0  0  0  0  0  0  0  0  0  0
    0.9123   -2.6585    0.5955 C   0  0  2  0  0  0  0  0  0  0  0  0
   -0.0610   -1.9735    1.5045 C   0  0  0  0  0  0  0  0  0  0  0  0
   -1.1750   -0.8136   -0.8077 O   0  0  0  0  0  0  0  0  0  0  0  0
   -2.4319   -0.7066   -1.3280 C   0  0  0  0  0  0  0  0  0  0  0  0
   -2.6351   -1.2266   -2.4900 O   0  0  0  0  0  0  0  0  0  0  0  0
   -3.5976   -0.0826   -0.7394 C   0  0  0  0  0  0  0  0  0  0  0  0
   -4.8799   -0.4895   -1.1100 C   0  0  0  0  0  0  0  0  0  0  0  0
   -6.0004    0.1336   -0.6309 C   0  0  0  0  0  0  0  0  0  0  0  0
   -5.9322    1.2119    0.2525 C   0  0  0  0  0  0  0  0  0  0  0  0
   -4.6694    1.6225    0.6302 C   0  0  0  0  0  0  0  0  0  0  0  0
   -3.5286    0.9651    0.1263 C   0  0  0  0  0  0  0  0  0  0  0  0
   -7.1943    1.7964    0.7487 C   0  0  0  0  0  0  0  0  0  0  0  0
   -7.8820    0.7888    1.6799 C   0  0  0  0  0  0  0  0  0  0  0  0
   -8.1711    2.0366   -0.4109 C   0  0  0  0  0  0  0  0  0  0  0  0
   -7.0296    3.1200    1.4395 C   0  0  0  0  0  0  0  0  0  0  0  0
   -0.3103   -4.2896    2.8340 H   0  0  0  0  0  0  0  0  0  0  0  0
    0.9545   -5.4837    2.5530 H   0  0  0  0  0  0  0  0  0  0  0  0
    1.4902   -3.8552    2.9415 H   0  0  0  0  0  0  0  0  0  0  0  0
    1.6591   -4.6529    0.5469 H   0  0  0  0  0  0  0  0  0  0  0  0
    2.4169   -2.8633   -1.8757 H   0  0  0  0  0  0  0  0  0  0  0  0
    0.9771   -3.2566   -2.7926 H   0  0  0  0  0  0  0  0  0  0  0  0
    1.5589   -4.3964   -1.5936 H   0  0  0  0  0  0  0  0  0  0  0  0
   -0.4595   -1.7477   -2.4019 H   0  0  0  0  0  0  0  0  0  0  0  0
    1.9778   -0.9665   -1.7296 H   0  0  0  0  0  0  0  0  0  0  0  0
    0.9022   -0.0445   -2.7852 H   0  0  0  0  0  0  0  0  0  0  0  0
    1.0522    1.7652   -1.4730 H   0  0  0  0  0  0  0  0  0  0  0  0
    0.0281    0.8460   -0.3641 H   0  0  0  0  0  0  0  0  0  0  0  0
    1.6498    1.3192    1.1631 H   0  0  0  0  0  0  0  0  0  0  0  0
    3.1032    2.9224    0.2552 H   0  0  0  0  0  0  0  0  0  0  0  0
    3.0155    2.2678   -2.1445 H   0  0  0  0  0  0  0  0  0  0  0  0
    3.8987    0.7674   -1.8328 H   0  0  0  0  0  0  0  0  0  0  0  0
    4.9269    3.4721   -2.3307 H   0  0  0  0  0  0  0  0  0  0  0  0
    5.7900    1.9409   -2.1949 H   0  0  0  0  0  0  0  0  0  0  0  0
    5.0792    3.6513    0.2425 H   0  0  0  0  0  0  0  0  0  0  0  0
    6.9248    4.6485   -0.2051 H   0  0  0  0  0  0  0  0  0  0  0  0
    7.2680    1.6303   -0.1215 H   0  0  0  0  0  0  0  0  0  0  0  0
    6.5816    2.2835    1.3987 H   0  0  0  0  0  0  0  0  0  0  0  0
    5.4041    0.1539   -0.5027 H   0  0  0  0  0  0  0  0  0  0  0  0
    5.8570    0.0289    1.2065 H   0  0  0  0  0  0  0  0  0  0  0  0
    3.1702    2.3557    2.3865 H   0  0  0  0  0  0  0  0  0  0  0  0
    4.8305    1.8091    2.6563 H   0  0  0  0  0  0  0  0  0  0  0  0
    3.4055    0.7060    2.9712 H   0  0  0  0  0  0  0  0  0  0  0  0
    3.5013   -0.6456   -0.4047 H   0  0  0  0  0  0  0  0  0  0  0  0
    3.5721   -1.1545    2.1720 H   0  0  0  0  0  0  0  0  0  0  0  0
    1.8833   -0.6650    2.2002 H   0  0  0  0  0  0  0  0  0  0  0  0
    2.8012   -3.1524    1.5566 H   0  0  0  0  0  0  0  0  0  0  0  0
    2.9690   -2.4371   -0.0363 H   0  0  0  0  0  0  0  0  0  0  0  0
   -0.0715   -0.8918    1.5367 H   0  0  0  0  0  0  0  0  0  0  0  0
   -1.0828   -2.3900    1.2806 H   0  0  0  0  0  0  0  0  0  0  0  0
    0.1504   -2.3077    2.5680 H   0  0  0  0  0  0  0  0  0  0  0  0
   -4.9956   -1.3095   -1.7799 H   0  0  0  0  0  0  0  0  0  0  0  0
   -7.0025   -0.2069   -0.9036 H   0  0  0  0  0  0  0  0  0  0  0  0
   -4.5576    2.4549    1.3260 H   0  0  0  0  0  0  0  0  0  0  0  0
   -2.5804    1.3616    0.4536 H   0  0  0  0  0  0  0  0  0  0  0  0
   -7.1423    0.0561    2.0321 H   0  0  0  0  0  0  0  0  0  0  0  0
   -8.3464    1.2965    2.5236 H   0  0  0  0  0  0  0  0  0  0  0  0
   -8.6692    0.2573    1.1307 H   0  0  0  0  0  0  0  0  0  0  0  0
   -8.5297    1.0826   -0.8236 H   0  0  0  0  0  0  0  0  0  0  0  0
   -9.0217    2.6232    0.0165 H   0  0  0  0  0  0  0  0  0  0  0  0
   -7.6941    2.7069   -1.1471 H   0  0  0  0  0  0  0  0  0  0  0  0
   -7.9789    3.3708    1.9851 H   0  0  0  0  0  0  0  0  0  0  0  0
   -6.9288    3.9324    0.6773 H   0  0  0  0  0  0  0  0  0  0  0  0
   -6.1951    3.1783    2.1350 H   0  0  0  0  0  0  0  0  0  0  0  0
  1  2  1  0
  2  3  1  0
  3  4  1  0
  4  5  2  0
  4  6  1  0
  6  7  1  6
  6  8  1  0
  8  9  1  0
  9 10  1  0
 10 11  1  0
 11 12  1  0
 12 13  1  0
 13 14  1  0
 14 15  1  0
 15 16  1  0
 15 17  1  0
 17 18  1  0
 18 19  1  0
 19 20  1  1
 19 21  1  0
 21 22  1  0
 22 23  1  0
 23 24  1  0
 24 25  1  1
  8 26  1  0
 26 27  1  0
 27 28  2  0
 27 29  1  0
 29 30  2  0
 30 31  1  0
 31 32  2  0
 32 33  1  0
 33 34  2  0
 32 35  1  0
 35 36  1  0
 35 37  1  0
 35 38  1  0
 24  2  1  0
 34 29  1  0
 24  6  1  0
 21 11  1  0
 19 12  1  0
  1 39  1  0
  1 40  1  0
  1 41  1  0
  2 42  1  6
  7 43  1  0
  7 44  1  0
  7 45  1  0
  8 46  1  6
  9 47  1  0
  9 48  1  0
 10 49  1  0
 10 50  1  0
 11 51  1  1
 12 52  1  1
 13 53  1  0
 13 54  1  0
 14 55  1  0
 14 56  1  0
 15 57  1  1
 16 58  1  0
 17 59  1  0
 17 60  1  0
 18 61  1  0
 18 62  1  0
 20 63  1  0
 20 64  1  0
 20 65  1  0
 21 66  1  6
 22 67  1  0
 22 68  1  0
 23 69  1  0
 23 70  1  0
 25 71  1  0
 25 72  1  0
 25 73  1  0
 30 74  1  0
 31 75  1  0
 33 76  1  0
 34 77  1  0
 36 78  1  0
 36 79  1  0
 36 80  1  0
 37 81  1  0
 37 82  1  0
 37 83  1  0
 38 84  1  0
 38 85  1  0
 38 86  1  0
M  END
$$$$
[H][C](N([H])C(=O)[C@@]([H])(N([H])C(=O)[C@@]([H])(N([H])C(=O)[C@@]([H])(N([H])C(=O)[C@@]([H])(N([H])C(=O)[C@@]([H])(N([H])C(=O)[C@@]([H])(N([H])C(=O)[C@@]([H])(N([H])[H])C([H])([H])C([H])([H])C(=O)N([H])[H])C([H])([H])C([H])([H])C(=O)N([H])[H])C([H])([H])C([H])([H])C([H])([H])N=C(N([H])[H])N([H])[H])C([H])([H])C(=O)N([H])[H])C([H])([H])C([H])([H])C(=O)N([H])[H])C([H])([H])C([H])([H])C(=O)N([H])[H])C([H])([H])C([H])([H])C(=O)N([H])[H])C([H])([H])C([H])([H])C(=O)N([H])[H]
     RDKit          3D

138137  0  0  0  0  0  0  0  0999 V2000
   -5.4621    8.1362    1.9395 N   0  0  0  0  0  0  0  0  0  0  0  0
   -6.6762    7.4524    1.5383 C   0  0  0  0  0  0  0  0  0  0  0  0
   -7.8339    8.2187    1.2623 N   0  0  0  0  0  0  0  0  0  0  0  0
   -6.7495    6.1923    1.4221 N   0  0  0  0  0  0  0  0  0  0  0  0
   -5.6300    5.3446    1.6787 C   0  0  0  0  0  0  0  0  0  0  0  0
   -5.7448    4.0851    0.7966 C   0  0  0  0  0  0  0  0  0  0  0  0
   -4.5783    3.2137    1.0764 C   0  0  0  0  0  0  0  0  0  0  0  0
   -4.4581    1.9588    0.2017 C   0  0  2  0  0  0  0  0  0  0  0  0
   -5.5193    1.0387    0.2404 N   0  0  0  0  0  0  0  0  0  0  0  0
   -6.8673    0.8101    0.0260 C   0  0  0  0  0  0  0  0  0  0  0  0
   -7.7141    1.6190   -0.3056 O   0  0  0  0  0  0  0  0  0  0  0  0
   -7.3151   -0.6322    0.2127 C   0  0  2  0  0  0  0  0  0  0  0  0
   -7.6137   -1.0979   -1.2265 C   0  0  0  0  0  0  0  0  0  0  0  0
   -6.3799   -0.9422   -2.1016 C   0  0  0  0  0  0  0  0  0  0  0  0
   -6.7220   -1.4119   -3.4620 C   0  0  0  0  0  0  0  0  0  0  0  0
   -5.8547   -1.2369   -4.5959 N   0  0  0  0  0  0  0  0  0  0  0  0
   -7.8135   -2.0038   -3.7026 O   0  0  0  0  0  0  0  0  0  0  0  0
   -8.5012   -0.8562    0.9728 N   0  0  0  0  0  0  0  0  0  0  0  0
   -8.3995   -1.5872    2.2131 C   0  0  0  0  0  0  0  0  0  0  0  0
   -7.1908   -1.9300    2.5026 O   0  0  0  0  0  0  0  0  0  0  0  0
   -9.4530   -1.9683    3.1213 C   0  0  1  0  0  0  0  0  0  0  0  0
   -8.7919   -2.7830    4.1967 N   0  0  0  0  0  0  0  0  0  0  0  0
  -10.1455   -0.8760    3.8416 C   0  0  0  0  0  0  0  0  0  0  0  0
  -10.8825    0.1196    3.0241 C   0  0  0  0  0  0  0  0  0  0  0  0
  -11.9692   -0.5299    2.2539 C   0  0  0  0  0  0  0  0  0  0  0  0
  -12.5466    0.0970    1.1375 N   0  0  0  0  0  0  0  0  0  0  0  0
  -12.3846   -1.6899    2.6217 O   0  0  0  0  0  0  0  0  0  0  0  0
   -3.3278    1.1878    0.8842 C   0  0  0  0  0  0  0  0  0  0  0  0
   -3.6822    0.7639    2.0225 O   0  0  0  0  0  0  0  0  0  0  0  0
   -2.0680    0.9172    0.3840 N   0  0  0  0  0  0  0  0  0  0  0  0
   -1.0774    0.1296    1.0682 C   0  0  1  0  0  0  0  0  0  0  0  0
   -1.7990   -1.0121    1.8402 C   0  0  0  0  0  0  0  0  0  0  0  0
   -2.6278   -1.8437    0.9919 C   0  0  0  0  0  0  0  0  0  0  0  0
   -3.3874   -2.9036    1.5679 N   0  0  0  0  0  0  0  0  0  0  0  0
   -2.7418   -1.7078   -0.2634 O   0  0  0  0  0  0  0  0  0  0  0  0
   -0.0342   -0.4494    0.2175 C   0  0  0  0  0  0  0  0  0  0  0  0
   -0.0844   -0.2127   -1.0077 O   0  0  0  0  0  0  0  0  0  0  0  0
    0.9729   -1.2422    0.7558 N   0  0  0  0  0  0  0  0  0  0  0  0
    2.0256   -1.9073    0.1036 C   0  0  1  0  0  0  0  0  0  0  0  0
    1.5908   -2.7063   -1.0906 C   0  0  0  0  0  0  0  0  0  0  0  0
    0.6029   -3.7585   -0.6369 C   0  0  0  0  0  0  0  0  0  0  0  0
    0.1286   -4.5805   -1.7976 C   0  0  0  0  0  0  0  0  0  0  0  0
   -0.8689   -5.5475   -1.6320 N   0  0  0  0  0  0  0  0  0  0  0  0
    0.6616   -4.3647   -2.8982 O   0  0  0  0  0  0  0  0  0  0  0  0
    3.2150   -1.0319   -0.2407 C   0  0  0  0  0  0  0  0  0  0  0  0
    3.0544    0.1561   -0.0037 O   0  0  0  0  0  0  0  0  0  0  0  0
    4.3595   -1.6172   -0.7768 N   0  0  0  0  0  0  0  0  0  0  0  0
    5.5842   -1.1805   -1.2228 C   0  0  1  0  0  0  0  0  0  0  0  0
    5.8905    0.0679   -1.9206 C   0  0  0  0  0  0  0  0  0  0  0  0
    5.6450    1.3963   -1.3699 C   0  0  0  0  0  0  0  0  0  0  0  0
    6.2643    2.3911   -2.3652 C   0  0  0  0  0  0  0  0  0  0  0  0
    6.3518    3.7551   -2.0586 N   0  0  0  0  0  0  0  0  0  0  0  0
    6.6976    1.9616   -3.4683 O   0  0  0  0  0  0  0  0  0  0  0  0
    6.6741   -1.3385   -0.1619 C   0  0  0  0  0  0  0  0  0  0  0  0
    6.2949   -1.1977    1.0254 O   0  0  0  0  0  0  0  0  0  0  0  0
    7.9616   -1.6136   -0.5125 N   0  0  0  0  0  0  0  0  0  0  0  0
    9.1811   -1.7932    0.2899 C   0  0  1  0  0  0  0  0  0  0  0  0
    9.6370   -3.1792    0.1441 C   0  0  0  0  0  0  0  0  0  0  0  0
   10.7973   -3.7046    0.8808 C   0  0  0  0  0  0  0  0  0  0  0  0
   10.6852   -3.6403    2.3675 C   0  0  0  0  0  0  0  0  0  0  0  0
   11.8286   -4.0047    3.1166 N   0  0  0  0  0  0  0  0  0  0  0  0
    9.6038   -3.2779    2.8628 O   0  0  0  0  0  0  0  0  0  0  0  0
   10.0620   -0.6623    0.0273 C   0  0  0  0  0  0  0  0  0  0  0  0
    9.4139    0.4817    0.0925 O   0  0  0  0  0  0  0  0  0  0  0  0
   11.4028   -0.5425   -0.2749 N   0  0  0  0  0  0  0  0  0  0  0  0
   12.1193    0.6834   -0.5179 C   0  0  0  0  0  3  0  0  0  0  0  0
   12.0366    1.2636   -1.8776 C   0  0  0  0  0  0  0  0  0  0  0  0
   11.1706    2.4625   -2.0409 C   0  0  0  0  0  0  0  0  0  0  0  0
   11.1797    2.9614   -3.4577 C   0  0  0  0  0  0  0  0  0  0  0  0
   10.4775    4.1216   -3.8394 N   0  0  0  0  0  0  0  0  0  0  0  0
   11.8333    2.3198   -4.3079 O   0  0  0  0  0  0  0  0  0  0  0  0
   -4.8069    8.4396    1.2163 H   0  0  0  0  0  0  0  0  0  0  0  0
   -5.3293    8.2831    2.9393 H   0  0  0  0  0  0  0  0  0  0  0  0
   -8.6049    8.4357    1.9064 H   0  0  0  0  0  0  0  0  0  0  0  0
   -7.9474    8.6311    0.2854 H   0  0  0  0  0  0  0  0  0  0  0  0
   -5.5787    5.0472    2.7458 H   0  0  0  0  0  0  0  0  0  0  0  0
   -4.7039    5.9043    1.4754 H   0  0  0  0  0  0  0  0  0  0  0  0
   -5.9173    4.4027   -0.2158 H   0  0  0  0  0  0  0  0  0  0  0  0
   -6.6538    3.5799    1.2364 H   0  0  0  0  0  0  0  0  0  0  0  0
   -3.6273    3.7923    0.9149 H   0  0  0  0  0  0  0  0  0  0  0  0
   -4.5579    2.9461    2.1502 H   0  0  0  0  0  0  0  0  0  0  0  0
   -4.2411    2.3270   -0.7951 H   0  0  0  0  0  0  0  0  0  0  0  0
   -5.0782    0.0247    0.6013 H   0  0  0  0  0  0  0  0  0  0  0  0
   -6.4709   -1.1951    0.6499 H   0  0  0  0  0  0  0  0  0  0  0  0
   -7.8727   -2.1633   -1.1810 H   0  0  0  0  0  0  0  0  0  0  0  0
   -8.4717   -0.5342   -1.5763 H   0  0  0  0  0  0  0  0  0  0  0  0
   -5.5216   -1.4407   -1.6415 H   0  0  0  0  0  0  0  0  0  0  0  0
   -6.1378    0.1644   -2.2112 H   0  0  0  0  0  0  0  0  0  0  0  0
   -4.9225   -1.6844   -4.6302 H   0  0  0  0  0  0  0  0  0  0  0  0
   -6.1609   -0.6479   -5.4156 H   0  0  0  0  0  0  0  0  0  0  0  0
   -9.3959   -0.4977    0.6023 H   0  0  0  0  0  0  0  0  0  0  0  0
  -10.2012   -2.6773    2.6272 H   0  0  0  0  0  0  0  0  0  0  0  0
   -9.5534   -3.2546    4.6963 H   0  0  0  0  0  0  0  0  0  0  0  0
   -8.1393   -3.4602    3.7260 H   0  0  0  0  0  0  0  0  0  0  0  0
  -10.9068   -1.3423    4.5551 H   0  0  0  0  0  0  0  0  0  0  0  0
   -9.4269   -0.3356    4.5273 H   0  0  0  0  0  0  0  0  0  0  0  0
  -11.3358    0.8629    3.7624 H   0  0  0  0  0  0  0  0  0  0  0  0
  -10.2265    0.6830    2.3579 H   0  0  0  0  0  0  0  0  0  0  0  0
  -13.2994   -0.3796    0.6133 H   0  0  0  0  0  0  0  0  0  0  0  0
  -12.2185    1.0340    0.8408 H   0  0  0  0  0  0  0  0  0  0  0  0
   -1.8114    1.3084   -0.5596 H   0  0  0  0  0  0  0  0  0  0  0  0
   -0.6418    0.6980    1.9121 H   0  0  0  0  0  0  0  0  0  0  0  0
   -2.2152   -0.6822    2.7702 H   0  0  0  0  0  0  0  0  0  0  0  0
   -0.9210   -1.6795    2.1500 H   0  0  0  0  0  0  0  0  0  0  0  0
   -3.3647   -3.8260    1.1031 H   0  0  0  0  0  0  0  0  0  0  0  0
   -3.9325   -2.7095    2.4249 H   0  0  0  0  0  0  0  0  0  0  0  0
    0.9533   -1.3587    1.8362 H   0  0  0  0  0  0  0  0  0  0  0  0
    2.4816   -2.6569    0.8475 H   0  0  0  0  0  0  0  0  0  0  0  0
    1.1076   -2.0879   -1.8674 H   0  0  0  0  0  0  0  0  0  0  0  0
    2.4632   -3.1772   -1.6107 H   0  0  0  0  0  0  0  0  0  0  0  0
    1.0401   -4.4218    0.1405 H   0  0  0  0  0  0  0  0  0  0  0  0
   -0.2923   -3.3128   -0.1799 H   0  0  0  0  0  0  0  0  0  0  0  0
   -1.8494   -5.4220   -2.0317 H   0  0  0  0  0  0  0  0  0  0  0  0
   -0.7717   -6.4570   -1.1239 H   0  0  0  0  0  0  0  0  0  0  0  0
    4.2634   -2.7575   -0.8600 H   0  0  0  0  0  0  0  0  0  0  0  0
    5.9439   -2.0465   -1.9730 H   0  0  0  0  0  0  0  0  0  0  0  0
    5.3251    0.0189   -2.9258 H   0  0  0  0  0  0  0  0  0  0  0  0
    6.9909    0.0760   -2.2722 H   0  0  0  0  0  0  0  0  0  0  0  0
    4.5578    1.6608   -1.5025 H   0  0  0  0  0  0  0  0  0  0  0  0
    6.0606    1.6535   -0.4030 H   0  0  0  0  0  0  0  0  0  0  0  0
    5.5554    4.2540   -1.6206 H   0  0  0  0  0  0  0  0  0  0  0  0
    7.2122    4.2895   -2.2690 H   0  0  0  0  0  0  0  0  0  0  0  0
    8.1894   -1.7318   -1.5644 H   0  0  0  0  0  0  0  0  0  0  0  0
    8.7999   -1.6321    1.3462 H   0  0  0  0  0  0  0  0  0  0  0  0
    9.8022   -3.4542   -0.9467 H   0  0  0  0  0  0  0  0  0  0  0  0
    8.7457   -3.8420    0.4100 H   0  0  0  0  0  0  0  0  0  0  0  0
   11.7626   -3.4105    0.4841 H   0  0  0  0  0  0  0  0  0  0  0  0
   10.7834   -4.8495    0.6501 H   0  0  0  0  0  0  0  0  0  0  0  0
   11.9378   -3.5962    4.0744 H   0  0  0  0  0  0  0  0  0  0  0  0
   12.5344   -4.6604    2.7166 H   0  0  0  0  0  0  0  0  0  0  0  0
   11.9983   -1.4119   -0.3658 H   0  0  0  0  0  0  0  0  0  0  0  0
   13.1415    0.6801   -0.1312 H   0  0  0  0  0  0  0  0  0  0  0  0
   13.0905    1.5549   -2.1698 H   0  0  0  0  0  0  0  0  0  0  0  0
   11.7328    0.4921   -2.6506 H   0  0  0  0  0  0  0  0  0  0  0  0
   10.1368    2.3021   -1.7594 H   0  0  0  0  0  0  0  0  0  0  0  0
   11.5933    3.3207   -1.4302 H   0  0  0  0  0  0  0  0  0  0  0  0
   10.9771    5.0157   -4.0877 H   0  0  0  0  0  0  0  0  0  0  0  0
    9.4198    4.1734   -3.9117 H   0  0  0  0  0  0  0  0  0  0  0  0
  1  2  1  0
  2  3  1  0
  2  4  2  3
  4  5  1  0
  5  6  1  0
  6  7  1  0
  7  8  1  0
  8  9  1  0
  9 10  1  0
 10 11  2  0
 10 12  1  0
 12 13  1  0
 13 14  1  0
 14 15  1  0
 15 16  1  0
 15 17  2  0
 12 18  1  0
 18 19  1  0
 19 20  2  0
 19 21  1  0
 21 22  1  0
 21 23  1  0
 23 24  1  0
 24 25  1  0
 25 26  1  0
 25 27  2  0
  8 28  1  0
 28 29  2  0
 28 30  1  0
 30 31  1  0
 31 32  1  0
 32 33  1  0
 33 34  1  0
 33 35  2  0
 31 36  1  0
 36 37  2  0
 36 38  1  0
 38 39  1  0
 39 40  1  0
 40 41  1  0
 41 42  1  0
 42 43  1  0
 42 44  2  0
 39 45  1  0
 45 46  2  0
 45 47  1  0
 47 48  1  0
 48 49  1  0
 49 50  1  0
 50 51  1  0
 51 52  1  0
 51 53  2  0
 48 54  1  0
 54 55  2  0
 54 56  1  0
 56 57  1  0
 57 58  1  0
 58 59  1  0
 59 60  1  0
 60 61  1  0
 60 62  2  0
 57 63  1  0
 63 64  2  0
 63 65  1  0
 65 66  1  0
 66 67  1  0
 67 68  1  0
 68 69  1  0
 69 70  1  0
 69 71  2  0
  1 72  1  0
  1 73  1  0
  3 74  1  0
  3 75  1  0
  5 76  1  0
  5 77  1  0
  6 78  1  0
  6 79  1  0
  7 80  1  0
  7 81  1  0
  8 82  1  6
  9 83  1  0
 12 84  1  1
 13 85  1  0
 13 86  1  0
 14 87  1  0
 14 88  1  0
 16 89  1  0
 16 90  1  0
 18 91  1  0
 21 92  1  6
 22 93  1  0
 22 94  1  0
 23 95  1  0
 23 96  1  0
 24 97  1  0
 24 98  1  0
 26 99  1  0
 26100  1  0
 30101  1  0
 31102  1  1
 32103  1  0
 32104  1  0
 34105  1  0
 34106  1  0
 38107  1  0
 39108  1  1
 40109  1  0
 40110  1  0
 41111  1  0
 41112  1  0
 43113  1  0
 43114  1  0
 47115  1  0
 48116  1  6
 49117  1  0
 49118  1  0
 50119  1  0
 50120  1  0
 52121  1  0
 52122  1  0
 56123  1  0
 57124  1  1
 58125  1  0
 58126  1  0
 59127  1  0
 59128  1  0
 61129  1  0
 61130  1  0
 65131  1  0
 66132  1  0
 67133  1  0
 67134  1  0
 68135  1  0
 68136  1  0
 70137  1  0
 70138  1  0
M  RAD  1  66   2
M  END
$$$$
[H]c1c(F)c([H])c(C([H])([H])[H])c([H])c1-c1c([H])c(C#N)c([H])c(S(=O)(=O)C([H])([H])[H])c1[H]
     RDKit          3D

 32 33  0  0  0  0  0  0  0  0999 V2000
    3.6612    2.6462   -0.0654 C   0  0  0  0  0  0  0  0  0  0  0  0
    3.2150    1.2234   -0.0054 C   0  0  0  0  0  0  0  0  0  0  0  0
    4.1697    0.2458    0.1018 C   0  0  0  0  0  0  0  0  0  0  0  0
    3.7727   -1.0669    0.1586 C   0  0  0  0  0  0  0  0  0  0  0  0
    4.6931   -2.0572    0.2649 F   0  0  0  0  0  0  0  0  0  0  0  0
    2.4233   -1.3683    0.1063 C   0  0  0  0  0  0  0  0  0  0  0  0
    1.4372   -0.3836   -0.0029 C   0  0  0  0  0  0  0  0  0  0  0  0
    1.8576    0.9163   -0.0578 C   0  0  0  0  0  0  0  0  0  0  0  0
    0.0308   -0.7722   -0.0532 C   0  0  0  0  0  0  0  0  0  0  0  0
   -0.3502   -1.9633   -0.6313 C   0  0  0  0  0  0  0  0  0  0  0  0
   -1.6792   -2.3608   -0.6915 C   0  0  0  0  0  0  0  0  0  0  0  0
   -2.6489   -1.5380   -0.1559 C   0  0  0  0  0  0  0  0  0  0  0  0
   -2.2808   -0.3337    0.4303 C   0  0  0  0  0  0  0  0  0  0  0  0
   -0.9507    0.0303    0.4729 C   0  0  0  0  0  0  0  0  0  0  0  0
   -3.5606    0.6554    1.0906 S   0  0  0  0  0  0  0  0  0  0  0  0
   -4.2144    1.7720   -0.1426 C   0  0  0  0  0  0  0  0  0  0  0  0
   -2.9896    1.5237    2.1845 O   0  0  0  0  0  0  0  0  0  0  0  0
   -4.7008   -0.1704    1.6008 O   0  0  0  0  0  0  0  0  0  0  0  0
   -2.0609   -3.6151   -1.3029 C   0  0  0  0  0  0  0  0  0  0  0  0
   -2.3810   -4.6215   -1.7839 N   0  0  0  0  0  0  0  0  0  0  0  0
    2.9013    3.2913    0.4262 H   0  0  0  0  0  0  0  0  0  0  0  0
    4.6501    2.7250    0.4346 H   0  0  0  0  0  0  0  0  0  0  0  0
    3.7270    2.9205   -1.1368 H   0  0  0  0  0  0  0  0  0  0  0  0
    5.2121    0.4882    0.1423 H   0  0  0  0  0  0  0  0  0  0  0  0
    2.0765   -2.3975    0.1494 H   0  0  0  0  0  0  0  0  0  0  0  0
    1.1211    1.6954   -0.1423 H   0  0  0  0  0  0  0  0  0  0  0  0
    0.3675   -2.6386   -1.0617 H   0  0  0  0  0  0  0  0  0  0  0  0
   -3.7015   -1.8266   -0.1900 H   0  0  0  0  0  0  0  0  0  0  0  0
   -0.7357    0.9898    0.9487 H   0  0  0  0  0  0  0  0  0  0  0  0
   -3.4256    2.4856   -0.4204 H   0  0  0  0  0  0  0  0  0  0  0  0
   -5.0391    2.3219    0.3424 H   0  0  0  0  0  0  0  0  0  0  0  0
   -4.5974    1.1829   -1.0102 H   0  0  0  0  0  0  0  0  0  0  0  0
  1  2  1  0
  2  3  2  0
  3  4  1  0
  4  5  1  0
  4  6  2  0
  6  7  1  0
  7  8  2  0
  7  9  1  0
  9 10  2  0
 10 11  1  0
 11 12  2  0
 12 13  1  0
 13 14  2  0
 13 15  1  0
 15 16  1  0
 15 17  2  0
 15 18  2  0
 11 19  1  0
 19 20  3  0
  8  2  1  0
 14  9  1  0
  1 21  1  0
  1 22  1  0
  1 23  1  0
  3 24  1  0
  6 25  1  0
  8 26  1  0
 10 27  1  0
 12 28  1  0
 14 29  1  0
 16 30  1  0
 16 31  1  0
 16 32  1  0
M  END
$$$$
[H]c1c([H])c([H])c([C@]([H])(N([H])C(=O)c2[se]c(-c3c([H])c([H])c(OC([H])([H])C([H])(C([H])([H])[H])C([H])([H])[H])c(C#N)c3[H])nc2C([H])([H])[H])C([H])([H])[H])c([H])c1[H]
     RDKit          3D

 55 57  0  0  0  0  0  0  0  0999 V2000
   -7.8877    1.8719   -1.6172 C   0  0  0  0  0  0  0  0  0  0  0  0
   -8.0696    0.5043   -0.9725 C   0  0  0  0  0  0  0  0  0  0  0  0
   -7.6557   -0.5369   -1.9374 C   0  0  0  0  0  0  0  0  0  0  0  0
   -7.5160    0.4616    0.4029 C   0  0  0  0  0  0  0  0  0  0  0  0
   -6.2711    0.6896    0.7143 O   0  0  0  0  0  0  0  0  0  0  0  0
   -4.9883    0.4952    0.7066 C   0  0  0  0  0  0  0  0  0  0  0  0
   -4.3830   -0.5162    0.0100 C   0  0  0  0  0  0  0  0  0  0  0  0
   -3.0403   -0.7274   -0.0029 C   0  0  0  0  0  0  0  0  0  0  0  0
   -2.2246    0.0967    0.7076 C   0  0  0  0  0  0  0  0  0  0  0  0
   -2.7717    1.1342    1.4305 C   0  0  0  0  0  0  0  0  0  0  0  0
   -4.1330    1.3365    1.4346 C   0  0  0  0  0  0  0  0  0  0  0  0
   -4.6615    2.4145    2.1901 C   0  0  0  0  0  0  0  0  0  0  0  0
   -5.0742    3.2972    2.8141 N   0  0  0  0  0  0  0  0  0  0  0  0
   -0.7925   -0.0363    0.7634 C   0  0  0  0  0  0  0  0  0  0  0  0
    0.2509    0.4420    1.2378 N   0  0  0  0  0  0  0  0  0  0  0  0
    1.4862    0.1841    1.1781 C   0  0  0  0  0  0  0  0  0  0  0  0
    2.4997    1.0705    1.9572 C   0  0  0  0  0  0  0  0  0  0  0  0
    2.0313   -0.8286    0.4740 C   0  0  0  0  0  0  0  0  0  0  0  0
    0.1991   -1.5890   -0.2991 Se  0  0  0  0  0  2  0  0  0  0  0  0
    3.2742   -1.4335    0.1518 C   0  0  0  0  0  0  0  0  0  0  0  0
    3.2434   -2.4672   -0.6219 O   0  0  0  0  0  0  0  0  0  0  0  0
    4.5688   -1.0699    0.5566 N   0  0  0  0  0  0  0  0  0  0  0  0
    5.7569   -1.7886    0.1441 C   0  0  2  0  0  0  0  0  0  0  0  0
    6.4398   -2.3424    1.3765 C   0  0  0  0  0  0  0  0  0  0  0  0
    6.6203   -0.8624   -0.6042 C   0  0  0  0  0  0  0  0  0  0  0  0
    6.0360   -0.0474   -1.5569 C   0  0  0  0  0  0  0  0  0  0  0  0
    6.8341    0.8261   -2.2661 C   0  0  0  0  0  0  0  0  0  0  0  0
    8.1938    0.8781   -2.0209 C   0  0  0  0  0  0  0  0  0  0  0  0
    8.7519    0.0530   -1.0636 C   0  0  0  0  0  0  0  0  0  0  0  0
    7.9875   -0.8198   -0.3478 C   0  0  0  0  0  0  0  0  0  0  0  0
   -8.0002    1.7837   -2.7337 H   0  0  0  0  0  0  0  0  0  0  0  0
   -8.6963    2.5764   -1.2999 H   0  0  0  0  0  0  0  0  0  0  0  0
   -6.9395    2.3459   -1.3405 H   0  0  0  0  0  0  0  0  0  0  0  0
   -9.2040    0.4082   -0.9092 H   0  0  0  0  0  0  0  0  0  0  0  0
   -8.3883   -0.5355   -2.7818 H   0  0  0  0  0  0  0  0  0  0  0  0
   -6.6675   -0.3554   -2.4132 H   0  0  0  0  0  0  0  0  0  0  0  0
   -7.7186   -1.5759   -1.5164 H   0  0  0  0  0  0  0  0  0  0  0  0
   -7.8182   -0.5622    0.8184 H   0  0  0  0  0  0  0  0  0  0  0  0
   -8.2118    1.1272    1.0212 H   0  0  0  0  0  0  0  0  0  0  0  0
   -4.9847   -1.2144   -0.5735 H   0  0  0  0  0  0  0  0  0  0  0  0
   -2.6061   -1.5417   -0.5698 H   0  0  0  0  0  0  0  0  0  0  0  0
   -2.1074    1.8005    2.0057 H   0  0  0  0  0  0  0  0  0  0  0  0
    3.0654    0.4804    2.6670 H   0  0  0  0  0  0  0  0  0  0  0  0
    1.9632    1.8391    2.5463 H   0  0  0  0  0  0  0  0  0  0  0  0
    3.2041    1.5383    1.2458 H   0  0  0  0  0  0  0  0  0  0  0  0
    4.7103   -0.2550    1.1779 H   0  0  0  0  0  0  0  0  0  0  0  0
    5.5127   -2.6417   -0.5166 H   0  0  0  0  0  0  0  0  0  0  0  0
    6.9442   -1.5279    1.9077 H   0  0  0  0  0  0  0  0  0  0  0  0
    7.1676   -3.1408    1.1158 H   0  0  0  0  0  0  0  0  0  0  0  0
    5.6478   -2.8400    1.9994 H   0  0  0  0  0  0  0  0  0  0  0  0
    4.9586   -0.0924   -1.7475 H   0  0  0  0  0  0  0  0  0  0  0  0
    6.4376    1.4842   -3.0190 H   0  0  0  0  0  0  0  0  0  0  0  0
    8.8037    1.5836   -2.6012 H   0  0  0  0  0  0  0  0  0  0  0  0
    9.8166    0.1134   -0.8915 H   0  0  0  0  0  0  0  0  0  0  0  0
    8.4060   -1.4879    0.4200 H   0  0  0  0  0  0  0  0  0  0  0  0
  1  2  1  0
  2  3  1  0
  2  4  1  0
  4  5  1  0
  5  6  1  0
  6  7  2  0
  7  8  1  0
  8  9  2  0
  9 10  1  0
 10 11  2  0
 11 12  1  0
 12 13  3  0
  9 14  1  0
 14 15  2  0
 15 16  1  0
 16 17  1  0
 16 18  2  0
 18 19  1  0
 18 20  1  0
 20 21  2  0
 20 22  1  0
 22 23  1  0
 23 24  1  0
 23 25  1  0
 25 26  2  0
 26 27  1  0
 27 28  2  0
 28 29  1  0
 29 30  2  0
 11  6  1  0
 19 14  1  0
 30 25  1  0
  1 31  1  0
  1 32  1  0
  1 33  1  0
  2 34  1  0
  3 35  1  0
  3 36  1  0
  3 37  1  0
  4 38  1  0
  4 39  1  0
  7 40  1  0
  8 41  1  0
 10 42  1  0
 17 43  1  0
 17 44  1  0
 17 45  1  0
 22 46  1  0
 23 47  1  6
 24 48  1  0
 24 49  1  0
 24 50  1  0
 26 51  1  0
 27 52  1  0
 28 53  1  0
 29 54  1  0
 30 55  1  0
M  END
$$$$
[H]O[C@]1([H])[C@]([H])(C([H])([H])OP(=O)(O[H])OP(=O)(O[H])OP(=O)(O[H])O[H])O[C@@]([H])(n2c([H])nc3c(N([H])[H])nc([H])nc32)[C@]1([H])O[H]
     RDKit          3D

 47 49  0  0  0  0  0  0  0  0999 V2000
   -8.0543    0.1763   -0.8270 N   0  0  0  0  0  0  0  0  0  0  0  0
   -6.7932   -0.0514   -0.2276 C   0  0  0  0  0  0  0  0  0  0  0  0
   -6.7611   -0.6076    1.0091 N   0  0  0  0  0  0  0  0  0  0  0  0
   -5.5834   -0.8361    1.6041 C   0  0  0  0  0  0  0  0  0  0  0  0
   -4.4377   -0.5257    1.0009 N   0  0  0  0  0  0  0  0  0  0  0  0
   -4.4252    0.0246   -0.2196 C   0  0  0  0  0  0  0  0  0  0  0  0
   -3.4406    0.4210   -1.0259 N   0  0  0  0  0  0  0  0  0  0  0  0
   -3.9896    0.9070   -2.1454 C   0  0  0  0  0  0  0  0  0  0  0  0
   -5.3386    0.8162   -2.0446 N   0  0  0  0  0  0  0  0  0  0  0  0
   -5.6168    0.2678   -0.8484 C   0  0  0  0  0  0  0  0  0  0  0  0
   -2.0232    0.3201   -0.6960 C   0  0  2  0  0  0  0  0  0  0  0  0
   -1.2438    0.9437   -1.6528 O   0  0  0  0  0  0  0  0  0  0  0  0
    0.0277    0.3918   -1.5141 C   0  0  1  0  0  0  0  0  0  0  0  0
    0.6981    0.9381   -0.2787 C   0  0  0  0  0  0  0  0  0  0  0  0
    1.9735    0.4117   -0.1020 O   0  0  0  0  0  0  0  0  0  0  0  0
    2.7348    1.0010    1.2575 P   0  0  0  0  0  0  0  0  0  0  0  0
    3.9313    2.0807    0.8255 O   0  0  0  0  0  0  0  0  0  0  0  0
    1.6899    1.7422    2.0866 O   0  0  0  0  0  0  0  0  0  0  0  0
    3.3568   -0.2131    2.2432 O   0  0  0  0  0  0  0  0  0  0  0  0
    4.9493   -0.5897    1.9217 P   0  0  0  0  0  0  0  0  0  0  0  0
    5.8450   -0.2765    3.3462 O   0  0  0  0  0  0  0  0  0  0  0  0
    5.0788   -2.0693    1.6075 O   0  0  0  0  0  0  0  0  0  0  0  0
    5.6247    0.3289    0.7007 O   0  0  0  0  0  0  0  0  0  0  0  0
    7.0550   -0.3591    0.1438 P   0  0  0  0  0  0  0  0  0  0  0  0
    7.3108    0.0109   -1.4875 O   0  0  0  0  0  0  0  0  0  0  0  0
    8.4006    0.2081    0.9995 O   0  0  0  0  0  0  0  0  0  0  0  0
    7.0483   -1.8641    0.2739 O   0  0  0  0  0  0  0  0  0  0  0  0
   -0.2623   -1.0784   -1.3618 C   0  0  1  0  0  0  0  0  0  0  0  0
    0.7591   -1.6445   -0.6022 O   0  0  0  0  0  0  0  0  0  0  0  0
   -1.5843   -1.1181   -0.6504 C   0  0  1  0  0  0  0  0  0  0  0  0
   -1.5264   -1.6459    0.6159 O   0  0  0  0  0  0  0  0  0  0  0  0
   -8.1909    0.1067   -1.8558 H   0  0  0  0  0  0  0  0  0  0  0  0
   -8.8802    0.4201   -0.2511 H   0  0  0  0  0  0  0  0  0  0  0  0
   -5.5314   -1.2791    2.5910 H   0  0  0  0  0  0  0  0  0  0  0  0
   -3.4953    1.3092   -3.0010 H   0  0  0  0  0  0  0  0  0  0  0  0
   -1.8915    0.8565    0.2587 H   0  0  0  0  0  0  0  0  0  0  0  0
    0.5980    0.6226   -2.4315 H   0  0  0  0  0  0  0  0  0  0  0  0
    0.7011    2.0452   -0.3722 H   0  0  0  0  0  0  0  0  0  0  0  0
    0.1102    0.6802    0.6076 H   0  0  0  0  0  0  0  0  0  0  0  0
    4.0691    2.0425   -0.1434 H   0  0  0  0  0  0  0  0  0  0  0  0
    5.3756    0.3782    3.9177 H   0  0  0  0  0  0  0  0  0  0  0  0
    6.4783    0.1996   -1.9688 H   0  0  0  0  0  0  0  0  0  0  0  0
    8.2902    0.0734    1.9742 H   0  0  0  0  0  0  0  0  0  0  0  0
   -0.3188   -1.5775   -2.3492 H   0  0  0  0  0  0  0  0  0  0  0  0
    1.0030   -2.5271   -1.0028 H   0  0  0  0  0  0  0  0  0  0  0  0
   -2.2911   -1.7271   -1.2670 H   0  0  0  0  0  0  0  0  0  0  0  0
   -1.4293   -1.0084    1.3411 H   0  0  0  0  0  0  0  0  0  0  0  0
  1  2  1  0
  2  3  2  0
  3  4  1  0
  4  5  2  0
  5  6  1  0
  6  7  1  0
  7  8  1  0
  8  9  2  0
  9 10  1  0
  7 11  1  0
 11 12  1  0
 12 13  1  0
 13 14  1  0
 14 15  1  0
 15 16  1  0
 16 17  1  0
 16 18  2  0
 16 19  1  0
 19 20  1  0
 20 21  1  0
 20 22  2  0
 20 23  1  0
 23 24  1  0
 24 25  1  0
 24 26  1  0
 24 27  2  0
 13 28  1  0
 28 29  1  0
 28 30  1  0
 30 31  1  0
 10  2  1  0
 30 11  1  0
 10  6  2  0
  1 32  1  0
  1 33  1  0
  4 34  1  0
  8 35  1  0
 11 36  1  1
 13 37  1  6
 14 38  1  0
 14 39  1  0
 17 40  1  0
 21 41  1  0
 25 42  1  0
 26 43  1  0
 28 44  1  6
 29 45  1  0
 30 46  1  6
 31 47  1  0
M  END
$$$$
[H]c1c([H])c(C#Cc2c([H])c(O[C@@]([H])(C([H])([H])[H])C([H])([H])OC([H])([H])[H])c([H])c(C(=O)N([H])c3nn(C([H])([H])[H])c([H])c3[H])c2[H])c([H])c(N([H])[H])c1[H]
     RDKit          3D

 54 56  0  0  0  0  0  0  0  0999 V2000
   -0.4709   -4.9437   -2.0480 C   0  0  0  0  0  0  0  0  0  0  0  0
   -1.5401   -5.2689   -1.2597 O   0  0  0  0  0  0  0  0  0  0  0  0
   -1.2686   -5.6410    0.0253 C   0  0  0  0  0  0  0  0  0  0  0  0
   -0.5997   -4.5546    0.8349 C   0  0  2  0  0  0  0  0  0  0  0  0
   -0.1500   -5.1120    2.1896 C   0  0  0  0  0  0  0  0  0  0  0  0
   -1.3517   -3.4084    0.9642 O   0  0  0  0  0  0  0  0  0  0  0  0
   -1.0748   -2.1047    0.7200 C   0  0  0  0  0  0  0  0  0  0  0  0
    0.1457   -1.6629    0.2629 C   0  0  0  0  0  0  0  0  0  0  0  0
    0.4081   -0.3242    0.0195 C   0  0  0  0  0  0  0  0  0  0  0  0
   -0.5690    0.6298    0.2328 C   0  0  0  0  0  0  0  0  0  0  0  0
   -1.7935    0.2297    0.6865 C   0  0  0  0  0  0  0  0  0  0  0  0
   -2.0306   -1.1269    0.9236 C   0  0  0  0  0  0  0  0  0  0  0  0
   -2.8634    1.1818    0.9335 C   0  0  0  0  0  0  0  0  0  0  0  0
   -3.9816    0.7281    1.2783 O   0  0  0  0  0  0  0  0  0  0  0  0
   -2.6906    2.5653    0.8018 N   0  0  0  0  0  0  0  0  0  0  0  0
   -3.6889    3.5357    1.0275 C   0  0  0  0  0  0  0  0  0  0  0  0
   -4.9974    3.3956    1.4071 C   0  0  0  0  0  0  0  0  0  0  0  0
   -5.5641    4.6666    1.4935 C   0  0  0  0  0  0  0  0  0  0  0  0
   -4.6093    5.5247    1.1723 N   0  0  0  0  0  0  0  0  0  0  0  0
   -4.7766    6.9837    1.1351 C   0  0  0  0  0  0  0  0  0  0  0  0
   -3.5109    4.8817    0.8982 N   0  0  0  0  0  0  0  0  0  0  0  0
    1.7087    0.0752   -0.4591 C   0  0  0  0  0  0  0  0  0  0  0  0
    2.7896    0.4055   -0.8787 C   0  0  0  0  0  0  0  0  0  0  0  0
    4.0874    0.7967   -1.4083 C   0  0  0  0  0  0  0  0  0  0  0  0
    4.1563    1.0833   -2.7546 C   0  0  0  0  0  0  0  0  0  0  0  0
    5.3574    1.4539   -3.2874 C   0  0  0  0  0  0  0  0  0  0  0  0
    6.5045    1.5519   -2.5268 C   0  0  0  0  0  0  0  0  0  0  0  0
    6.3872    1.2550   -1.1820 C   0  0  0  0  0  0  0  0  0  0  0  0
    7.5725    1.3543   -0.3862 N   0  0  0  0  0  0  0  0  0  0  0  0
    5.2008    0.8768   -0.5956 C   0  0  0  0  0  0  0  0  0  0  0  0
   -0.8404   -4.6609   -3.0604 H   0  0  0  0  0  0  0  0  0  0  0  0
    0.2092   -5.8240   -2.2305 H   0  0  0  0  0  0  0  0  0  0  0  0
    0.1214   -4.0846   -1.6870 H   0  0  0  0  0  0  0  0  0  0  0  0
   -0.6691   -6.5726    0.0960 H   0  0  0  0  0  0  0  0  0  0  0  0
   -2.2353   -5.8548    0.5428 H   0  0  0  0  0  0  0  0  0  0  0  0
    0.3554   -4.3100    0.3247 H   0  0  0  0  0  0  0  0  0  0  0  0
    0.7142   -5.7610    2.0159 H   0  0  0  0  0  0  0  0  0  0  0  0
   -0.9824   -5.7280    2.6006 H   0  0  0  0  0  0  0  0  0  0  0  0
    0.0268   -4.2938    2.9131 H   0  0  0  0  0  0  0  0  0  0  0  0
    0.9314   -2.3850    0.0864 H   0  0  0  0  0  0  0  0  0  0  0  0
   -0.3286    1.6587    0.0319 H   0  0  0  0  0  0  0  0  0  0  0  0
   -3.0112   -1.4536    1.2876 H   0  0  0  0  0  0  0  0  0  0  0  0
   -1.7465    2.9509    0.5107 H   0  0  0  0  0  0  0  0  0  0  0  0
   -5.5416    2.4778    1.6153 H   0  0  0  0  0  0  0  0  0  0  0  0
   -6.5848    4.8338    1.7735 H   0  0  0  0  0  0  0  0  0  0  0  0
   -3.9402    7.4349    1.7236 H   0  0  0  0  0  0  0  0  0  0  0  0
   -5.7470    7.2672    1.5996 H   0  0  0  0  0  0  0  0  0  0  0  0
   -4.7377    7.3065    0.0961 H   0  0  0  0  0  0  0  0  0  0  0  0
    3.2732    1.0127   -3.3644 H   0  0  0  0  0  0  0  0  0  0  0  0
    5.4238    1.6825   -4.3489 H   0  0  0  0  0  0  0  0  0  0  0  0
    7.4405    1.8502   -2.9892 H   0  0  0  0  0  0  0  0  0  0  0  0
    8.4112    0.8177   -0.6679 H   0  0  0  0  0  0  0  0  0  0  0  0
    7.5674    1.9632    0.4584 H   0  0  0  0  0  0  0  0  0  0  0  0
    5.1038    0.6443    0.4518 H   0  0  0  0  0  0  0  0  0  0  0  0
  1  2  1  0
  2  3  1  0
  3  4  1  0
  4  5  1  0
  4  6  1  0
  6  7  1  0
  7  8  2  0
  8  9  1  0
  9 10  2  0
 10 11  1  0
 11 12  2  0
 11 13  1  0
 13 14  2  0
 13 15  1  0
 15 16  1  0
 16 17  1  0
 17 18  2  0
 18 19  1  0
 19 20  1  0
 19 21  1  0
  9 22  1  0
 22 23  3  0
 23 24  1  0
 24 25  2  0
 25 26  1  0
 26 27  2  0
 27 28  1  0
 28 29  1  0
 28 30  2  0
 12  7  1  0
 21 16  2  0
 30 24  1  0
  1 31  1  0
  1 32  1  0
  1 33  1  0
  3 34  1  0
  3 35  1  0
  4 36  1  6
  5 37  1  0
  5 38  1  0
  5 39  1  0
  8 40  1  0
 10 41  1  0
 12 42  1  0
 15 43  1  0
 17 44  1  0
 18 45  1  0
 20 46  1  0
 20 47  1  0
 20 48  1  0
 25 49  1  0
 26 50  1  0
 27 51  1  0
 29 52  1  0
 29 53  1  0
 30 54  1  0
M  END
$$$$
[H]OC([H])([H])[C@@]1([H])OC([H])(c2c([H])c([H])c([H])c([H])c2[H])[C@]([H])(O[H])[C@@]([H])(O[H])[C@]1([H])O[H]
     RDKit          3D

 33 34  0  0  0  0  0  0  0  0999 V2000
   -3.9324   -1.5630    0.3207 O   0  0  0  0  0  0  0  0  0  0  0  0
   -2.6446   -1.8100   -0.2056 C   0  0  0  0  0  0  0  0  0  0  0  0
   -1.6892   -0.9246    0.6067 C   0  0  1  0  0  0  0  0  0  0  0  0
   -0.4410   -1.0778    0.1937 O   0  0  0  0  0  0  0  0  0  0  0  0
    0.1578   -0.1770   -0.6227 C   0  0  0  0  0  0  0  0  0  0  0  0
   -0.3334    1.2268   -0.5392 C   0  0  2  0  0  0  0  0  0  0  0  0
    0.6567    2.1843   -0.6276 O   0  0  0  0  0  0  0  0  0  0  0  0
   -1.0890    1.4037    0.7853 C   0  0  1  0  0  0  0  0  0  0  0  0
   -1.5105    2.7092    0.9509 O   0  0  0  0  0  0  0  0  0  0  0  0
   -2.2732    0.4501    0.6145 C   0  0  2  0  0  0  0  0  0  0  0  0
   -3.2115    0.6140    1.6090 O   0  0  0  0  0  0  0  0  0  0  0  0
    1.6312   -0.2754   -0.4255 C   0  0  0  0  0  0  0  0  0  0  0  0
    2.5161   -0.2970   -1.4864 C   0  0  0  0  0  0  0  0  0  0  0  0
    3.8812   -0.3882   -1.3039 C   0  0  0  0  0  0  0  0  0  0  0  0
    4.4263   -0.4625   -0.0408 C   0  0  0  0  0  0  0  0  0  0  0  0
    3.5592   -0.4423    1.0275 C   0  0  0  0  0  0  0  0  0  0  0  0
    2.1957   -0.3510    0.8399 C   0  0  0  0  0  0  0  0  0  0  0  0
   -4.3387   -2.4077    0.5972 H   0  0  0  0  0  0  0  0  0  0  0  0
   -2.3643   -2.8667   -0.1121 H   0  0  0  0  0  0  0  0  0  0  0  0
   -2.6171   -1.4334   -1.2525 H   0  0  0  0  0  0  0  0  0  0  0  0
   -1.7844   -1.3183    1.6629 H   0  0  0  0  0  0  0  0  0  0  0  0
   -0.0183   -0.5218   -1.6858 H   0  0  0  0  0  0  0  0  0  0  0  0
   -1.0871    1.4306   -1.3284 H   0  0  0  0  0  0  0  0  0  0  0  0
    0.8000    2.4535   -1.5876 H   0  0  0  0  0  0  0  0  0  0  0  0
   -0.4421    1.0268    1.5836 H   0  0  0  0  0  0  0  0  0  0  0  0
   -0.9511    3.2869    0.4073 H   0  0  0  0  0  0  0  0  0  0  0  0
   -2.7283    0.6250   -0.3963 H   0  0  0  0  0  0  0  0  0  0  0  0
   -4.0657    0.9226    1.2059 H   0  0  0  0  0  0  0  0  0  0  0  0
    2.1167   -0.2397   -2.5019 H   0  0  0  0  0  0  0  0  0  0  0  0
    4.5561   -0.4036   -2.1467 H   0  0  0  0  0  0  0  0  0  0  0  0
    5.5071   -0.5353    0.1218 H   0  0  0  0  0  0  0  0  0  0  0  0
    3.9784   -0.5005    2.0324 H   0  0  0  0  0  0  0  0  0  0  0  0
    1.5389   -0.3375    1.7037 H   0  0  0  0  0  0  0  0  0  0  0  0
  1  2  1  0
  2  3  1  0
  3  4  1  0
  4  5  1  0
  5  6  1  0
  6  7  1  0
  6  8  1  0
  8  9  1  0
  8 10  1  0
 10 11  1  0
  5 12  1  0
 12 13  2  0
 13 14  1  0
 14 15  2  0
 15 16  1  0
 16 17  2  0
 10  3  1  0
 17 12  1  0
  1 18  1  0
  2 19  1  0
  2 20  1  0
  3 21  1  1
  5 22  1  0
  6 23  1  6
  7 24  1  0
  8 25  1  1
  9 26  1  0
 10 27  1  6
 11 28  1  0
 13 29  1  0
 14 30  1  0
 15 31  1  0
 16 32  1  0
 17 33  1  0
M  END
$$$$
[H]O[C@@]([H])(C([H])([H])C(=O)N([H])[C@]([H])(C(=O)N([H])[C@]([H])(C(=O)N([H])[H])C([H])([H])C([H])(C([H])([H])[H])C([H])([H])[H])C([H])([H])[H])[C@]([H])(N([H])C(=O)[C@@]([H])(N([H])C(=O)C([H])([H])C([H])(C([H])([H])[H])C([H])([H])[H])C([H])(c1c([H])c([H])c([H])c([H])c1[H])c1c([H])c([H])c([H])c([H])c1[H])C([H])([H])C([H])(C([H])([H])[H])C([H])([H])[H]
     RDKit          3D

103104  0  0  0  0  0  0  0  0999 V2000
   11.6602    0.9086    2.2898 C   0  0  0  0  0  0  0  0  0  0  0  0
   10.4659    1.8249    2.2659 C   0  0  0  0  0  0  0  0  0  0  0  0
   10.5802    2.7084    1.0174 C   0  0  0  0  0  0  0  0  0  0  0  0
    9.1386    1.1888    2.3367 C   0  0  0  0  0  0  0  0  0  0  0  0
    8.7158    0.2663    1.2575 C   0  0  2  0  0  0  0  0  0  0  0  0
    7.3575   -0.2029    1.6150 N   0  0  0  0  0  0  0  0  0  0  0  0
    6.2804    0.1372    0.7564 C   0  0  0  0  0  0  0  0  0  0  0  0
    6.5392    0.8417   -0.2612 O   0  0  0  0  0  0  0  0  0  0  0  0
    4.9087   -0.3027    1.0127 C   0  0  2  0  0  0  0  0  0  0  0  0
    4.8860   -1.8450    0.8675 C   0  0  0  0  0  0  0  0  0  0  0  0
    3.9725    0.1785    0.0190 N   0  0  0  0  0  0  0  0  0  0  0  0
    2.6033    0.3065    0.3454 C   0  0  0  0  0  0  0  0  0  0  0  0
    2.2182   -0.0061    1.4963 O   0  0  0  0  0  0  0  0  0  0  0  0
    1.5948    0.8037   -0.6638 C   0  0  0  0  0  0  0  0  0  0  0  0
    0.2043    0.3149   -0.2632 C   0  0  2  0  0  0  0  0  0  0  0  0
    0.3299   -1.0929   -0.3025 O   0  0  0  0  0  0  0  0  0  0  0  0
   -0.8278    0.7059   -1.3575 C   0  0  1  0  0  0  0  0  0  0  0  0
   -0.1449    0.7642   -2.6317 C   0  0  0  0  0  0  0  0  0  0  0  0
   -0.8193    1.1110   -3.8934 C   0  0  0  0  0  0  0  0  0  0  0  0
   -1.9123    0.2535   -4.3924 C   0  0  0  0  0  0  0  0  0  0  0  0
    0.2765    1.0821   -4.9872 C   0  0  0  0  0  0  0  0  0  0  0  0
   -2.0227   -0.0195   -1.1392 N   0  0  0  0  0  0  0  0  0  0  0  0
   -3.1290    0.3878   -0.3409 C   0  0  0  0  0  0  0  0  0  0  0  0
   -3.1675    1.4659    0.2664 O   0  0  0  0  0  0  0  0  0  0  0  0
   -4.3352   -0.5330   -0.1992 C   0  0  1  0  0  0  0  0  0  0  0  0
   -5.0592    0.0400    0.9113 N   0  0  0  0  0  0  0  0  0  0  0  0
   -5.0663   -0.6386    2.1504 C   0  0  0  0  0  0  0  0  0  0  0  0
   -4.4325   -1.7285    2.2498 O   0  0  0  0  0  0  0  0  0  0  0  0
   -5.7755   -0.1515    3.3474 C   0  0  0  0  0  0  0  0  0  0  0  0
   -5.6069   -1.0319    4.5398 C   0  0  0  0  0  0  0  0  0  0  0  0
   -4.1456   -1.1220    4.9059 C   0  0  0  0  0  0  0  0  0  0  0  0
   -6.3538   -0.4345    5.7355 C   0  0  0  0  0  0  0  0  0  0  0  0
   -5.0590   -0.4668   -1.4932 C   0  0  0  0  0  0  0  0  0  0  0  0
   -6.2213   -1.3467   -1.6853 C   0  0  0  0  0  0  0  0  0  0  0  0
   -6.7202   -2.2979   -0.8713 C   0  0  0  0  0  0  0  0  0  0  0  0
   -7.8336   -3.0767   -1.1745 C   0  0  0  0  0  0  0  0  0  0  0  0
   -8.4622   -2.8586   -2.3805 C   0  0  0  0  0  0  0  0  0  0  0  0
   -7.9892   -1.8938   -3.2512 C   0  0  0  0  0  0  0  0  0  0  0  0
   -6.8855   -1.1491   -2.9090 C   0  0  0  0  0  0  0  0  0  0  0  0
   -5.6344    0.9215   -1.7115 C   0  0  0  0  0  0  0  0  0  0  0  0
   -6.9366    1.1711   -1.3449 C   0  0  0  0  0  0  0  0  0  0  0  0
   -7.4721    2.4302   -1.5240 C   0  0  0  0  0  0  0  0  0  0  0  0
   -6.7356    3.4677   -2.0673 C   0  0  0  0  0  0  0  0  0  0  0  0
   -5.4432    3.2086   -2.4281 C   0  0  0  0  0  0  0  0  0  0  0  0
   -4.9081    1.9331   -2.2446 C   0  0  0  0  0  0  0  0  0  0  0  0
    9.5061   -0.9651    1.0819 C   0  0  0  0  0  0  0  0  0  0  0  0
   10.4726   -1.1747    0.0690 N   0  0  0  0  0  0  0  0  0  0  0  0
    9.3198   -1.9328    1.8881 O   0  0  0  0  0  0  0  0  0  0  0  0
   12.4627    1.3389    2.9895 H   0  0  0  0  0  0  0  0  0  0  0  0
   11.4485   -0.1019    2.6815 H   0  0  0  0  0  0  0  0  0  0  0  0
   12.1939    0.8786    1.3189 H   0  0  0  0  0  0  0  0  0  0  0  0
   10.5722    2.5485    3.1287 H   0  0  0  0  0  0  0  0  0  0  0  0
   10.3964    2.0812    0.0992 H   0  0  0  0  0  0  0  0  0  0  0  0
   11.6302    3.0481    0.9554 H   0  0  0  0  0  0  0  0  0  0  0  0
    9.8819    3.5440    1.0590 H   0  0  0  0  0  0  0  0  0  0  0  0
    8.3508    1.9776    2.4294 H   0  0  0  0  0  0  0  0  0  0  0  0
    9.0792    0.6390    3.3176 H   0  0  0  0  0  0  0  0  0  0  0  0
    8.6519    0.8038    0.2715 H   0  0  0  0  0  0  0  0  0  0  0  0
    7.2595   -0.7587    2.4810 H   0  0  0  0  0  0  0  0  0  0  0  0
    4.5636   -0.0381    2.0129 H   0  0  0  0  0  0  0  0  0  0  0  0
    5.8908   -2.2457    0.6912 H   0  0  0  0  0  0  0  0  0  0  0  0
    4.5395   -2.2489    1.8389 H   0  0  0  0  0  0  0  0  0  0  0  0
    4.2086   -2.1706    0.0802 H   0  0  0  0  0  0  0  0  0  0  0  0
    4.3021    0.4342   -0.9495 H   0  0  0  0  0  0  0  0  0  0  0  0
    1.9309    0.3298   -1.6149 H   0  0  0  0  0  0  0  0  0  0  0  0
    1.6674    1.9017   -0.6514 H   0  0  0  0  0  0  0  0  0  0  0  0
   -0.0615    0.6652    0.7156 H   0  0  0  0  0  0  0  0  0  0  0  0
   -0.3337   -1.5099    0.3106 H   0  0  0  0  0  0  0  0  0  0  0  0
   -1.0749    1.7829   -1.0097 H   0  0  0  0  0  0  0  0  0  0  0  0
    0.4549   -0.1842   -2.8582 H   0  0  0  0  0  0  0  0  0  0  0  0
    0.7183    1.5267   -2.5499 H   0  0  0  0  0  0  0  0  0  0  0  0
   -1.1730    2.1727   -3.9386 H   0  0  0  0  0  0  0  0  0  0  0  0
   -1.4999   -0.5626   -5.0407 H   0  0  0  0  0  0  0  0  0  0  0  0
   -2.5275    0.8668   -5.1297 H   0  0  0  0  0  0  0  0  0  0  0  0
   -2.6353   -0.1336   -3.6892 H   0  0  0  0  0  0  0  0  0  0  0  0
    0.5672    0.0382   -5.1059 H   0  0  0  0  0  0  0  0  0  0  0  0
   -0.0931    1.5730   -5.9200 H   0  0  0  0  0  0  0  0  0  0  0  0
    1.0811    1.7413   -4.5753 H   0  0  0  0  0  0  0  0  0  0  0  0
   -2.1045   -0.9557   -1.5933 H   0  0  0  0  0  0  0  0  0  0  0  0
   -3.9860   -1.5519   -0.0095 H   0  0  0  0  0  0  0  0  0  0  0  0
   -5.5519    0.9285    0.8220 H   0  0  0  0  0  0  0  0  0  0  0  0
   -6.8652   -0.1541    3.0936 H   0  0  0  0  0  0  0  0  0  0  0  0
   -5.4348    0.8773    3.5460 H   0  0  0  0  0  0  0  0  0  0  0  0
   -6.0379   -2.0362    4.3681 H   0  0  0  0  0  0  0  0  0  0  0  0
   -3.5671   -0.2804    4.4510 H   0  0  0  0  0  0  0  0  0  0  0  0
   -3.6718   -2.0519    4.5397 H   0  0  0  0  0  0  0  0  0  0  0  0
   -3.9985   -0.9877    6.0149 H   0  0  0  0  0  0  0  0  0  0  0  0
   -5.8117   -0.7364    6.6723 H   0  0  0  0  0  0  0  0  0  0  0  0
   -6.4067    0.6657    5.6792 H   0  0  0  0  0  0  0  0  0  0  0  0
   -7.3691   -0.8451    5.7436 H   0  0  0  0  0  0  0  0  0  0  0  0
   -4.3498   -0.7201   -2.2971 H   0  0  0  0  0  0  0  0  0  0  0  0
   -6.2083   -2.4610    0.0550 H   0  0  0  0  0  0  0  0  0  0  0  0
   -8.1697   -3.8133   -0.4776 H   0  0  0  0  0  0  0  0  0  0  0  0
   -9.3373   -3.4273   -2.6878 H   0  0  0  0  0  0  0  0  0  0  0  0
   -8.5080   -1.7399   -4.2084 H   0  0  0  0  0  0  0  0  0  0  0  0
   -6.5363   -0.3947   -3.6159 H   0  0  0  0  0  0  0  0  0  0  0  0
   -7.6032    0.4436   -0.9125 H   0  0  0  0  0  0  0  0  0  0  0  0
   -8.5032    2.6868   -1.2526 H   0  0  0  0  0  0  0  0  0  0  0  0
   -7.1880    4.4558   -2.1972 H   0  0  0  0  0  0  0  0  0  0  0  0
   -4.8696    4.0005   -2.8450 H   0  0  0  0  0  0  0  0  0  0  0  0
   -3.9021    1.8010   -2.5482 H   0  0  0  0  0  0  0  0  0  0  0  0
   11.3424   -1.7003    0.2776 H   0  0  0  0  0  0  0  0  0  0  0  0
   10.2546   -0.7767   -0.8737 H   0  0  0  0  0  0  0  0  0  0  0  0
  1  2  1  0
  2  3  1  0
  2  4  1  0
  4  5  1  0
  5  6  1  0
  6  7  1  0
  7  8  2  0
  7  9  1  0
  9 10  1  0
  9 11  1  0
 11 12  1  0
 12 13  2  0
 12 14  1  0
 14 15  1  0
 15 16  1  0
 15 17  1  0
 17 18  1  0
 18 19  1  0
 19 20  1  0
 19 21  1  0
 17 22  1  0
 22 23  1  0
 23 24  2  0
 23 25  1  0
 25 26  1  0
 26 27  1  0
 27 28  2  0
 27 29  1  0
 29 30  1  0
 30 31  1  0
 30 32  1  0
 25 33  1  0
 33 34  1  0
 34 35  2  0
 35 36  1  0
 36 37  2  0
 37 38  1  0
 38 39  2  0
 33 40  1  0
 40 41  2  0
 41 42  1  0
 42 43  2  0
 43 44  1  0
 44 45  2  0
  5 46  1  0
 46 47  1  0
 46 48  2  0
 39 34  1  0
 45 40  1  0
  1 49  1  0
  1 50  1  0
  1 51  1  0
  2 52  1  0
  3 53  1  0
  3 54  1  0
  3 55  1  0
  4 56  1  0
  4 57  1  0
  5 58  1  6
  6 59  1  0
  9 60  1  1
 10 61  1  0
 10 62  1  0
 10 63  1  0
 11 64  1  0
 14 65  1  0
 14 66  1  0
 15 67  1  1
 16 68  1  0
 17 69  1  1
 18 70  1  0
 18 71  1  0
 19 72  1  0
 20 73  1  0
 20 74  1  0
 20 75  1  0
 21 76  1  0
 21 77  1  0
 21 78  1  0
 22 79  1  0
 25 80  1  1
 26 81  1  0
 29 82  1  0
 29 83  1  0
 30 84  1  0
 31 85  1  0
 31 86  1  0
 31 87  1  0
 32 88  1  0
 32 89  1  0
 32 90  1  0
 33 91  1  0
 35 92  1  0
 36 93  1  0
 37 94  1  0
 38 95  1  0
 39 96  1  0
 41 97  1  0
 42 98  1  0
 43 99  1  0
 44100  1  0
 45101  1  0
 47102  1  0
 47103  1  0
M  END
$$$$
[H]OC(=O)c1c([H])c([H])c([H])c(-c2c([H])c([H])c(/C([H])=C(\[H])C(=O)N3C([H])([H])C([H])([H])N(c4c([H])c([H])c([H])c(Cl)c4[H])C([H])([H])C3([H])[H])c([H])c2[H])c1[H]
     RDKit          3D

 55 58  0  0  0  0  0  0  0  0999 V2000
   -8.5498    2.0447    0.7634 O   0  0  0  0  0  0  0  0  0  0  0  0
   -8.9070    0.7373    0.9943 C   0  0  0  0  0  0  0  0  0  0  0  0
  -10.0573    0.4678    1.3853 O   0  0  0  0  0  0  0  0  0  0  0  0
   -7.9426   -0.3189    0.7813 C   0  0  0  0  0  0  0  0  0  0  0  0
   -8.2778   -1.6462    1.0079 C   0  0  0  0  0  0  0  0  0  0  0  0
   -7.3616   -2.6568    0.8065 C   0  0  0  0  0  0  0  0  0  0  0  0
   -6.0844   -2.3553    0.3717 C   0  0  0  0  0  0  0  0  0  0  0  0
   -5.7160   -1.0566    0.1371 C   0  0  0  0  0  0  0  0  0  0  0  0
   -6.6538   -0.0710    0.3476 C   0  0  0  0  0  0  0  0  0  0  0  0
   -4.3672   -0.6769   -0.3268 C   0  0  0  0  0  0  0  0  0  0  0  0
   -3.2754   -1.3880    0.0321 C   0  0  0  0  0  0  0  0  0  0  0  0
   -2.0178   -1.0031   -0.4224 C   0  0  0  0  0  0  0  0  0  0  0  0
   -1.8306    0.0882   -1.2355 C   0  0  0  0  0  0  0  0  0  0  0  0
   -0.5634    0.5542   -1.7483 C   0  0  0  0  0  0  0  0  0  0  0  0
    0.5652   -0.0560   -1.4626 C   0  0  0  0  0  0  0  0  0  0  0  0
    1.8158    0.4531   -2.0043 C   0  0  0  0  0  0  0  0  0  0  0  0
    1.7263    1.5010   -2.7512 O   0  0  0  0  0  0  0  0  0  0  0  0
    3.0758   -0.1262   -1.7586 N   0  0  0  0  0  0  0  0  0  0  0  0
    4.2617    0.4579   -2.3455 C   0  0  0  0  0  0  0  0  0  0  0  0
    5.5186   -0.0785   -1.6515 C   0  0  0  0  0  0  0  0  0  0  0  0
    5.2378   -0.0659   -0.2382 N   0  0  0  0  0  0  0  0  0  0  0  0
    4.0918   -0.8477    0.2575 C   0  0  0  0  0  0  0  0  0  0  0  0
    3.2359   -1.2833   -0.9414 C   0  0  0  0  0  0  0  0  0  0  0  0
    5.9898    0.6498    0.7144 C   0  0  0  0  0  0  0  0  0  0  0  0
    7.0438    1.4486    0.3348 C   0  0  0  0  0  0  0  0  0  0  0  0
    7.7775    2.1460    1.2887 C   0  0  0  0  0  0  0  0  0  0  0  0
    7.4220    2.0141    2.6007 C   0  0  0  0  0  0  0  0  0  0  0  0
    6.3649    1.2161    3.0072 C   0  0  0  0  0  0  0  0  0  0  0  0
    6.0164    1.1354    4.7208 Cl  0  0  0  0  0  0  0  0  0  0  0  0
    5.6368    0.5241    2.0628 C   0  0  0  0  0  0  0  0  0  0  0  0
   -3.0001    0.7891   -1.5761 C   0  0  0  0  0  0  0  0  0  0  0  0
   -4.2260    0.4080   -1.1288 C   0  0  0  0  0  0  0  0  0  0  0  0
   -9.1007    2.8443    1.1019 H   0  0  0  0  0  0  0  0  0  0  0  0
   -9.2888   -1.8536    1.3494 H   0  0  0  0  0  0  0  0  0  0  0  0
   -7.6367   -3.7050    0.9887 H   0  0  0  0  0  0  0  0  0  0  0  0
   -5.3718   -3.1558    0.2163 H   0  0  0  0  0  0  0  0  0  0  0  0
   -6.4227    0.9905    0.1782 H   0  0  0  0  0  0  0  0  0  0  0  0
   -3.3580   -2.2567    0.6698 H   0  0  0  0  0  0  0  0  0  0  0  0
   -1.1542   -1.5870   -0.1232 H   0  0  0  0  0  0  0  0  0  0  0  0
   -0.5447    1.4263   -2.3824 H   0  0  0  0  0  0  0  0  0  0  0  0
    0.5521   -0.9381   -0.8217 H   0  0  0  0  0  0  0  0  0  0  0  0
    4.3232    0.2943   -3.4352 H   0  0  0  0  0  0  0  0  0  0  0  0
    4.2493    1.5476   -2.1434 H   0  0  0  0  0  0  0  0  0  0  0  0
    6.3233    0.5986   -1.9549 H   0  0  0  0  0  0  0  0  0  0  0  0
    5.7270   -1.1210   -1.9775 H   0  0  0  0  0  0  0  0  0  0  0  0
    3.4427   -0.1185    0.8189 H   0  0  0  0  0  0  0  0  0  0  0  0
    4.3988   -1.6904    0.8728 H   0  0  0  0  0  0  0  0  0  0  0  0
    3.7974   -2.0782   -1.5212 H   0  0  0  0  0  0  0  0  0  0  0  0
    2.3167   -1.7083   -0.5097 H   0  0  0  0  0  0  0  0  0  0  0  0
    7.3710    1.5931   -0.6790 H   0  0  0  0  0  0  0  0  0  0  0  0
    8.6160    2.7813    0.9902 H   0  0  0  0  0  0  0  0  0  0  0  0
    8.0084    2.5696    3.3452 H   0  0  0  0  0  0  0  0  0  0  0  0
    4.8173   -0.0953    2.3729 H   0  0  0  0  0  0  0  0  0  0  0  0
   -2.8946    1.6713   -2.2269 H   0  0  0  0  0  0  0  0  0  0  0  0
   -5.1204    0.9861   -1.4195 H   0  0  0  0  0  0  0  0  0  0  0  0
  1  2  1  0
  2  3  2  0
  2  4  1  0
  4  5  2  0
  5  6  1  0
  6  7  2  0
  7  8  1  0
  8  9  2  0
  8 10  1  0
 10 11  2  0
 11 12  1  0
 12 13  2  0
 13 14  1  0
 14 15  2  0
 15 16  1  0
 16 17  2  0
 16 18  1  0
 18 19  1  0
 19 20  1  0
 20 21  1  0
 21 22  1  0
 22 23  1  0
 21 24  1  0
 24 25  2  0
 25 26  1  0
 26 27  2  0
 27 28  1  0
 28 29  1  0
 28 30  2  0
 13 31  1  0
 31 32  2  0
  9  4  1  0
 32 10  1  0
 23 18  1  0
 30 24  1  0
  1 33  1  0
  5 34  1  0
  6 35  1  0
  7 36  1  0
  9 37  1  0
 11 38  1  0
 12 39  1  0
 14 40  1  0
 15 41  1  0
 19 42  1  0
 19 43  1  0
 20 44  1  0
 20 45  1  0
 22 46  1  0
 22 47  1  0
 23 48  1  0
 23 49  1  0
 25 50  1  0
 26 51  1  0
 27 52  1  0
 30 53  1  0
 31 54  1  0
 32 55  1  0
M  END
$$$$
[H]N=C(N([H])[H])N([H])C([H])([H])C([H])([H])C([H])([H])[C@@]([H])(C(=O)N([H])[C@]([H])(C(=O)O[H])C([H])([H])C([H])([H])C(=O)O[H])N([H])C(=O)[C@@]([H])(N([H])C(=O)[C@@]1([H])N(C(=O)[C@@]([H])(N([H])[H])C([H])([H])C([H])([H])C(=O)O[H])C([H])([H])C([H])([H])C1([H])[H])C([H])([H])C([H])([H])C(=O)O[H]
     RDKit          3D

 88 88  0  0  0  0  0  0  0  0999 V2000
   -2.8827    6.5730   -2.0847 N   0  0  0  0  0  0  0  0  0  0  0  0
   -3.5488    5.8658   -1.0361 C   0  0  0  0  0  0  0  0  0  0  0  0
   -3.1823    5.9962    0.1863 N   0  0  0  0  0  0  0  0  0  0  0  0
   -4.6261    5.0241   -1.3702 N   0  0  0  0  0  0  0  0  0  0  0  0
   -4.4803    3.6289   -1.5557 C   0  0  0  0  0  0  0  0  0  0  0  0
   -4.1577    2.9029   -0.2506 C   0  0  0  0  0  0  0  0  0  0  0  0
   -4.0499    1.4178   -0.5013 C   0  0  0  0  0  0  0  0  0  0  0  0
   -3.7659    0.5699    0.6651 C   0  0  2  0  0  0  0  0  0  0  0  0
   -2.5180    0.8258    1.3324 N   0  0  0  0  0  0  0  0  0  0  0  0
   -1.2643    0.6572    0.7016 C   0  0  0  0  0  0  0  0  0  0  0  0
   -1.2252    0.3036   -0.5009 O   0  0  0  0  0  0  0  0  0  0  0  0
   -0.0234    0.8952    1.4865 C   0  0  2  0  0  0  0  0  0  0  0  0
    0.0665    2.2404    2.0923 C   0  0  0  0  0  0  0  0  0  0  0  0
    0.0538    3.3693    1.1121 C   0  0  0  0  0  0  0  0  0  0  0  0
    0.1455    4.6742    1.7964 C   0  0  0  0  0  0  0  0  0  0  0  0
    0.1173    4.7473    3.1748 O   0  0  0  0  0  0  0  0  0  0  0  0
    0.2489    5.7134    1.1078 O   0  0  0  0  0  0  0  0  0  0  0  0
    1.1436    0.6226    0.6729 N   0  0  0  0  0  0  0  0  0  0  0  0
    1.9976   -0.4720    0.7820 C   0  0  0  0  0  0  0  0  0  0  0  0
    1.7848   -1.3381    1.6650 O   0  0  0  0  0  0  0  0  0  0  0  0
    3.1779   -0.6866   -0.1089 C   0  0  2  0  0  0  0  0  0  0  0  0
    2.6917   -0.7288   -1.5678 C   0  0  0  0  0  0  0  0  0  0  0  0
    3.2758   -2.0495   -2.0892 C   0  0  0  0  0  0  0  0  0  0  0  0
    3.1634   -2.8820   -0.8167 C   0  0  0  0  0  0  0  0  0  0  0  0
    3.7908   -1.9745    0.1400 N   0  0  0  0  0  0  0  0  0  0  0  0
    4.7842   -2.3690    1.0628 C   0  0  0  0  0  0  0  0  0  0  0  0
    5.1174   -3.6020    1.0842 O   0  0  0  0  0  0  0  0  0  0  0  0
    5.4797   -1.4914    2.0109 C   0  0  1  0  0  0  0  0  0  0  0  0
    6.1795   -2.2856    3.0293 N   0  0  0  0  0  0  0  0  0  0  0  0
    6.5717   -0.6726    1.3442 C   0  0  0  0  0  0  0  0  0  0  0  0
    7.6220   -1.5727    0.7267 C   0  0  0  0  0  0  0  0  0  0  0  0
    8.7091   -0.8300    0.0652 C   0  0  0  0  0  0  0  0  0  0  0  0
    9.8952   -0.4612    0.6724 O   0  0  0  0  0  0  0  0  0  0  0  0
    8.5861   -0.4831   -1.1568 O   0  0  0  0  0  0  0  0  0  0  0  0
   -3.8620   -0.8723    0.2468 C   0  0  0  0  0  0  0  0  0  0  0  0
   -2.8942   -1.6269    0.5342 O   0  0  0  0  0  0  0  0  0  0  0  0
   -4.9651   -1.3811   -0.4369 N   0  0  0  0  0  0  0  0  0  0  0  0
   -4.9664   -2.8349   -0.8222 C   0  0  1  0  0  0  0  0  0  0  0  0
   -4.1427   -2.8836   -2.0182 C   0  0  0  0  0  0  0  0  0  0  0  0
   -3.9011   -4.1238   -2.7552 C   0  0  0  0  0  0  0  0  0  0  0  0
   -3.0787   -5.1617   -2.1639 C   0  0  0  0  0  0  0  0  0  0  0  0
   -3.4959   -6.4884   -2.0677 O   0  0  0  0  0  0  0  0  0  0  0  0
   -1.9133   -4.8851   -1.7026 O   0  0  0  0  0  0  0  0  0  0  0  0
   -4.6747   -3.5407    0.3984 C   0  0  0  0  0  0  0  0  0  0  0  0
   -4.0502   -4.7246    0.6498 O   0  0  0  0  0  0  0  0  0  0  0  0
   -5.0902   -2.9295    1.4916 O   0  0  0  0  0  0  0  0  0  0  0  0
   -2.2108    6.0544   -2.6739 H   0  0  0  0  0  0  0  0  0  0  0  0
   -3.0700    7.5663   -2.2428 H   0  0  0  0  0  0  0  0  0  0  0  0
   -2.3831    6.6350    0.3922 H   0  0  0  0  0  0  0  0  0  0  0  0
   -5.5699    5.4750   -1.4832 H   0  0  0  0  0  0  0  0  0  0  0  0
   -3.6775    3.4663   -2.3089 H   0  0  0  0  0  0  0  0  0  0  0  0
   -5.4016    3.2164   -2.0166 H   0  0  0  0  0  0  0  0  0  0  0  0
   -5.0779    3.0475    0.3789 H   0  0  0  0  0  0  0  0  0  0  0  0
   -3.2641    3.3537    0.1943 H   0  0  0  0  0  0  0  0  0  0  0  0
   -3.3190    1.2658   -1.3340 H   0  0  0  0  0  0  0  0  0  0  0  0
   -5.0437    1.1353   -0.9677 H   0  0  0  0  0  0  0  0  0  0  0  0
   -4.6348    0.7070    1.3896 H   0  0  0  0  0  0  0  0  0  0  0  0
   -2.5832    1.1629    2.3455 H   0  0  0  0  0  0  0  0  0  0  0  0
   -0.0427    0.1255    2.3096 H   0  0  0  0  0  0  0  0  0  0  0  0
   -0.7030    2.3971    2.8925 H   0  0  0  0  0  0  0  0  0  0  0  0
    1.0412    2.2963    2.6624 H   0  0  0  0  0  0  0  0  0  0  0  0
    0.8586    3.2747    0.3423 H   0  0  0  0  0  0  0  0  0  0  0  0
   -0.9135    3.3003    0.5425 H   0  0  0  0  0  0  0  0  0  0  0  0
    0.3081    3.9283    3.7177 H   0  0  0  0  0  0  0  0  0  0  0  0
    1.3483    1.3390   -0.0745 H   0  0  0  0  0  0  0  0  0  0  0  0
    3.8882    0.1520    0.0172 H   0  0  0  0  0  0  0  0  0  0  0  0
    1.5899   -0.8205   -1.5753 H   0  0  0  0  0  0  0  0  0  0  0  0
    3.0634    0.1178   -2.1503 H   0  0  0  0  0  0  0  0  0  0  0  0
    2.7106   -2.4692   -2.9176 H   0  0  0  0  0  0  0  0  0  0  0  0
    4.3451   -1.8320   -2.3068 H   0  0  0  0  0  0  0  0  0  0  0  0
    3.7240   -3.8340   -0.9068 H   0  0  0  0  0  0  0  0  0  0  0  0
    2.1230   -3.1139   -0.5978 H   0  0  0  0  0  0  0  0  0  0  0  0
    4.7882   -0.8323    2.5158 H   0  0  0  0  0  0  0  0  0  0  0  0
    6.9168   -1.7638    3.5075 H   0  0  0  0  0  0  0  0  0  0  0  0
    5.5204   -2.8129    3.6370 H   0  0  0  0  0  0  0  0  0  0  0  0
    7.0735   -0.0487    2.1076 H   0  0  0  0  0  0  0  0  0  0  0  0
    6.1608    0.0130    0.5924 H   0  0  0  0  0  0  0  0  0  0  0  0
    8.0339   -2.2911    1.4651 H   0  0  0  0  0  0  0  0  0  0  0  0
    7.1103   -2.1918   -0.0478 H   0  0  0  0  0  0  0  0  0  0  0  0
   10.1765    0.5157    0.6250 H   0  0  0  0  0  0  0  0  0  0  0  0
   -5.7792   -0.8346   -0.6981 H   0  0  0  0  0  0  0  0  0  0  0  0
   -6.0898   -3.0327   -1.0899 H   0  0  0  0  0  0  0  0  0  0  0  0
   -3.1098   -2.3922   -1.7845 H   0  0  0  0  0  0  0  0  0  0  0  0
   -4.5139   -2.1108   -2.8009 H   0  0  0  0  0  0  0  0  0  0  0  0
   -4.9270   -4.5990   -3.0044 H   0  0  0  0  0  0  0  0  0  0  0  0
   -3.4806   -3.9042   -3.7941 H   0  0  0  0  0  0  0  0  0  0  0  0
   -2.9384   -7.1941   -1.6191 H   0  0  0  0  0  0  0  0  0  0  0  0
   -3.8908   -5.1435    1.5337 H   0  0  0  0  0  0  0  0  0  0  0  0
  1  2  1  0
  2  3  2  3
  2  4  1  0
  4  5  1  0
  5  6  1  0
  6  7  1  0
  7  8  1  0
  8  9  1  0
  9 10  1  0
 10 11  2  0
 10 12  1  0
 12 13  1  0
 13 14  1  0
 14 15  1  0
 15 16  1  0
 15 17  2  0
 12 18  1  0
 18 19  1  0
 19 20  2  0
 19 21  1  0
 21 22  1  0
 22 23  1  0
 23 24  1  0
 24 25  1  0
 25 26  1  0
 26 27  2  0
 26 28  1  0
 28 29  1  0
 28 30  1  0
 30 31  1  0
 31 32  1  0
 32 33  1  0
 32 34  2  0
  8 35  1  0
 35 36  2  0
 35 37  1  0
 37 38  1  0
 38 39  1  0
 39 40  1  0
 40 41  1  0
 41 42  1  0
 41 43  2  0
 38 44  1  0
 44 45  1  0
 44 46  2  0
 25 21  1  0
  1 47  1  0
  1 48  1  0
  3 49  1  0
  4 50  1  0
  5 51  1  0
  5 52  1  0
  6 53  1  0
  6 54  1  0
  7 55  1  0
  7 56  1  0
  8 57  1  1
  9 58  1  0
 12 59  1  1
 13 60  1  0
 13 61  1  0
 14 62  1  0
 14 63  1  0
 16 64  1  0
 18 65  1  0
 21 66  1  6
 22 67  1  0
 22 68  1  0
 23 69  1  0
 23 70  1  0
 24 71  1  0
 24 72  1  0
 28 73  1  1
 29 74  1  0
 29 75  1  0
 30 76  1  0
 30 77  1  0
 31 78  1  0
 31 79  1  0
 33 80  1  0
 37 81  1  0
 38 82  1  6
 39 83  1  0
 39 84  1  0
 40 85  1  0
 40 86  1  0
 42 87  1  0
 45 88  1  0
M  END
$$$$
[H]c1c(F)c([H])c(-c2nn(-c3c([H])c([H])c(S(=O)(=O)N([H])[H])c([H])c3[H])c3c2C([H])([H])OC(C([H])([H])[H])(C([H])([H])[H])C3([H])[H])c([H])c1F
     RDKit          3D

 48 51  0  0  0  0  0  0  0  0999 V2000
   -0.5424    3.0324   -1.1017 C   0  0  0  0  0  0  0  0  0  0  0  0
   -1.1583    2.6865    0.2641 C   0  0  0  0  0  0  0  0  0  0  0  0
   -1.2048    4.0314    1.0070 C   0  0  0  0  0  0  0  0  0  0  0  0
   -0.1968    1.7477    0.9214 C   0  0  0  0  0  0  0  0  0  0  0  0
   -0.4514    0.3694    0.4475 C   0  0  0  0  0  0  0  0  0  0  0  0
   -1.8053    0.0209    0.3545 C   0  0  0  0  0  0  0  0  0  0  0  0
   -2.7663    1.0596    0.7420 C   0  0  0  0  0  0  0  0  0  0  0  0
   -2.4087    2.2045    0.0139 O   0  0  0  0  0  0  0  0  0  0  0  0
   -1.8494   -1.2600   -0.0902 C   0  0  0  0  0  0  0  0  0  0  0  0
   -0.5713   -1.6925   -0.2668 N   0  0  0  0  0  0  0  0  0  0  0  0
    0.2717   -0.6986    0.0613 N   0  0  0  0  0  0  0  0  0  0  0  0
    1.7026   -0.7228    0.0234 C   0  0  0  0  0  0  0  0  0  0  0  0
    2.4735   -1.4364    0.8943 C   0  0  0  0  0  0  0  0  0  0  0  0
    3.8470   -1.4270    0.8164 C   0  0  0  0  0  0  0  0  0  0  0  0
    4.4638   -0.6692   -0.1774 C   0  0  0  0  0  0  0  0  0  0  0  0
    3.7165    0.0683   -1.0798 C   0  0  0  0  0  0  0  0  0  0  0  0
    2.3528    0.0208   -0.9539 C   0  0  0  0  0  0  0  0  0  0  0  0
    6.2028   -0.6048   -0.3429 S   0  0  0  0  0  0  0  0  0  0  0  0
    6.7756    0.7078    0.6240 N   0  0  0  0  0  0  0  0  0  0  0  0
    6.7901   -1.9178    0.0859 O   0  0  0  0  0  0  0  0  0  0  0  0
    6.5767   -0.3351   -1.7868 O   0  0  0  0  0  0  0  0  0  0  0  0
   -3.0643   -2.0232   -0.3228 C   0  0  0  0  0  0  0  0  0  0  0  0
   -4.1284   -1.5062   -1.0213 C   0  0  0  0  0  0  0  0  0  0  0  0
   -5.2495   -2.2987   -1.1902 C   0  0  0  0  0  0  0  0  0  0  0  0
   -6.2799   -1.7631   -1.8811 F   0  0  0  0  0  0  0  0  0  0  0  0
   -5.3338   -3.5778   -0.6860 C   0  0  0  0  0  0  0  0  0  0  0  0
   -4.2689   -4.0851    0.0084 C   0  0  0  0  0  0  0  0  0  0  0  0
   -4.2951   -5.3544    0.5345 F   0  0  0  0  0  0  0  0  0  0  0  0
   -3.1582   -3.3120    0.1810 C   0  0  0  0  0  0  0  0  0  0  0  0
    0.3121    3.7128   -0.9852 H   0  0  0  0  0  0  0  0  0  0  0  0
   -0.1715    2.0573   -1.5045 H   0  0  0  0  0  0  0  0  0  0  0  0
   -1.3066    3.3850   -1.8108 H   0  0  0  0  0  0  0  0  0  0  0  0
   -0.4400    4.7308    0.6187 H   0  0  0  0  0  0  0  0  0  0  0  0
   -0.9610    3.8828    2.0849 H   0  0  0  0  0  0  0  0  0  0  0  0
   -2.1928    4.5117    0.8541 H   0  0  0  0  0  0  0  0  0  0  0  0
   -0.4037    1.7328    2.0303 H   0  0  0  0  0  0  0  0  0  0  0  0
    0.8522    2.0439    0.8213 H   0  0  0  0  0  0  0  0  0  0  0  0
   -3.8224    0.8502    0.4933 H   0  0  0  0  0  0  0  0  0  0  0  0
   -2.7595    1.2704    1.8346 H   0  0  0  0  0  0  0  0  0  0  0  0
    1.9855   -2.0192    1.6592 H   0  0  0  0  0  0  0  0  0  0  0  0
    4.4655   -1.9911    1.5043 H   0  0  0  0  0  0  0  0  0  0  0  0
    4.2173    0.6588   -1.8550 H   0  0  0  0  0  0  0  0  0  0  0  0
    1.7611    0.5881   -1.6472 H   0  0  0  0  0  0  0  0  0  0  0  0
    7.2217    1.4361    0.0256 H   0  0  0  0  0  0  0  0  0  0  0  0
    7.4302    0.3102    1.3216 H   0  0  0  0  0  0  0  0  0  0  0  0
   -4.0765   -0.5108   -1.4264 H   0  0  0  0  0  0  0  0  0  0  0  0
   -6.2233   -4.1982   -0.8235 H   0  0  0  0  0  0  0  0  0  0  0  0
   -2.3288   -3.7163    0.7258 H   0  0  0  0  0  0  0  0  0  0  0  0
  1  2  1  0
  2  3  1  0
  2  4  1  0
  4  5  1  0
  5  6  2  0
  6  7  1  0
  7  8  1  0
  6  9  1  0
  9 10  2  0
 10 11  1  0
 11 12  1  0
 12 13  2  0
 13 14  1  0
 14 15  2  0
 15 16  1  0
 16 17  2  0
 15 18  1  0
 18 19  1  0
 18 20  2  0
 18 21  2  0
  9 22  1  0
 22 23  2  0
 23 24  1  0
 24 25  1  0
 24 26  2  0
 26 27  1  0
 27 28  1  0
 27 29  2  0
  8  2  1  0
 17 12  1  0
 29 22  1  0
 11  5  1  0
  1 30  1  0
  1 31  1  0
  1 32  1  0
  3 33  1  0
  3 34  1  0
  3 35  1  0
  4 36  1  0
  4 37  1  0
  7 38  1  0
  7 39  1  0
 13 40  1  0
 14 41  1  0
 16 42  1  0
 17 43  1  0
 19 44  1  0
 19 45  1  0
 23 46  1  0
 26 47  1  0
 29 48  1  0
M  END
$$$$
[H]c1nc(-c2c([H])c([H])c([H])c([H])c2F)c([H])c([H])c1C#Cc1nc(C([H])([H])[H])sc1[H]
     RDKit          3D

 32 34  0  0  0  0  0  0  0  0999 V2000
    7.6484   -0.9842   -0.5995 C   0  0  0  0  0  0  0  0  0  0  0  0
    6.5215   -0.4488    0.2487 C   0  0  0  0  0  0  0  0  0  0  0  0
    5.2257   -0.4497    0.0084 N   0  0  0  0  0  0  0  0  0  0  0  0
    4.4012    0.0691    0.8794 C   0  0  0  0  0  0  0  0  0  0  0  0
    4.9556    0.5967    2.0218 C   0  0  0  0  0  0  0  0  0  0  0  0
    6.6183    0.3132    1.7692 S   0  0  0  0  0  0  0  0  0  0  0  0
    2.9499    0.0741    0.6220 C   0  0  0  0  0  0  0  0  0  0  0  0
    1.7611    0.0873    0.4308 C   0  0  0  0  0  0  0  0  0  0  0  0
    0.3383    0.0998    0.2274 C   0  0  0  0  0  0  0  0  0  0  0  0
   -0.1514   -0.1899   -1.0032 C   0  0  0  0  0  0  0  0  0  0  0  0
   -1.5409   -0.1734   -1.1852 C   0  0  0  0  0  0  0  0  0  0  0  0
   -2.4193    0.1183   -0.1899 C   0  0  0  0  0  0  0  0  0  0  0  0
   -1.8581    0.4009    1.0257 N   0  0  0  0  0  0  0  0  0  0  0  0
   -0.5426    0.3962    1.2413 C   0  0  0  0  0  0  0  0  0  0  0  0
   -3.8694    0.1494   -0.2962 C   0  0  0  0  0  0  0  0  0  0  0  0
   -4.6061    0.4076    0.8748 C   0  0  0  0  0  0  0  0  0  0  0  0
   -5.9728    0.4693    0.9087 C   0  0  0  0  0  0  0  0  0  0  0  0
   -6.6923    0.2734   -0.2435 C   0  0  0  0  0  0  0  0  0  0  0  0
   -6.0109    0.0187   -1.4081 C   0  0  0  0  0  0  0  0  0  0  0  0
   -4.6064   -0.0409   -1.4241 C   0  0  0  0  0  0  0  0  0  0  0  0
   -4.0044   -0.2904   -2.6122 F   0  0  0  0  0  0  0  0  0  0  0  0
    8.5203   -0.2929   -0.4571 H   0  0  0  0  0  0  0  0  0  0  0  0
    7.9684   -1.9743   -0.2580 H   0  0  0  0  0  0  0  0  0  0  0  0
    7.3544   -0.9262   -1.6469 H   0  0  0  0  0  0  0  0  0  0  0  0
    4.4237    1.0745    2.8660 H   0  0  0  0  0  0  0  0  0  0  0  0
    0.5194   -0.4232   -1.8053 H   0  0  0  0  0  0  0  0  0  0  0  0
   -1.8816   -0.4088   -2.1564 H   0  0  0  0  0  0  0  0  0  0  0  0
   -0.1808    0.6269    2.2169 H   0  0  0  0  0  0  0  0  0  0  0  0
   -4.0235    0.5631    1.7947 H   0  0  0  0  0  0  0  0  0  0  0  0
   -6.4987    0.6712    1.8353 H   0  0  0  0  0  0  0  0  0  0  0  0
   -7.7709    0.3267   -0.1925 H   0  0  0  0  0  0  0  0  0  0  0  0
   -6.5762   -0.1336   -2.3049 H   0  0  0  0  0  0  0  0  0  0  0  0
  1  2  1  0
  2  3  2  0
  3  4  1  0
  4  5  2  0
  5  6  1  0
  4  7  1  0
  7  8  3  0
  8  9  1  0
  9 10  2  0
 10 11  1  0
 11 12  2  0
 12 13  1  0
 13 14  2  0
 12 15  1  0
 15 16  2  0
 16 17  1  0
 17 18  2  0
 18 19  1  0
 19 20  2  0
 20 21  1  0
  6  2  1  0
 14  9  1  0
 20 15  1  0
  1 22  1  0
  1 23  1  0
  1 24  1  0
  5 25  1  0
 10 26  1  0
 11 27  1  0
 14 28  1  0
 16 29  1  0
 17 30  1  0
 18 31  1  0
 19 32  1  0
M  END
$$$$
[H]c1c([H])c([N+](=O)[O-])c([H])c([H])c1C(=O)N([H])/N=C1\C(=O)N([H])c2c([H])c([H])c([N+](=O)[O-])c([H])c21
     RDKit          3D

 35 37  0  0  0  0  0  0  0  0999 V2000
    7.7170   -0.6693   -0.8768 O   0  0  0  0  0  0  0  0  0  0  0  0
    7.0738    0.3072   -0.1599 N   0  0  0  0  0  0  0  0  0  0  0  0
    7.7191    1.2386    0.3049 O   0  0  0  0  0  0  0  0  0  0  0  0
    5.6691    0.2267    0.0345 C   0  0  0  0  0  0  0  0  0  0  0  0
    4.9044   -0.7990   -0.4679 C   0  0  0  0  0  0  0  0  0  0  0  0
    3.5364   -0.8685   -0.2730 C   0  0  0  0  0  0  0  0  0  0  0  0
    2.8885    0.1071    0.4441 C   0  0  0  0  0  0  0  0  0  0  0  0
    3.6632    1.1470    0.9536 C   0  0  0  0  0  0  0  0  0  0  0  0
    5.0232    1.2136    0.7583 C   0  0  0  0  0  0  0  0  0  0  0  0
    1.4584    0.0968    0.6864 C   0  0  0  0  0  0  0  0  0  0  0  0
    0.9455    1.0529    1.3682 O   0  0  0  0  0  0  0  0  0  0  0  0
    0.6329   -0.9359    0.1900 N   0  0  0  0  0  0  0  0  0  0  0  0
   -0.7437   -0.9304    0.4328 N   0  0  0  0  0  0  0  0  0  0  0  0
   -1.5607   -0.2743   -0.3104 C   0  0  0  0  0  0  0  0  0  0  0  0
   -1.2172    0.5346   -1.4720 C   0  0  0  0  0  0  0  0  0  0  0  0
   -0.0518    0.7332   -1.9537 O   0  0  0  0  0  0  0  0  0  0  0  0
   -2.4623    1.0484   -1.9439 N   0  0  0  0  0  0  0  0  0  0  0  0
   -3.5136    0.5677   -1.0995 C   0  0  0  0  0  0  0  0  0  0  0  0
   -4.8776    0.7791   -1.1389 C   0  0  0  0  0  0  0  0  0  0  0  0
   -5.7282    0.2018   -0.1998 C   0  0  0  0  0  0  0  0  0  0  0  0
   -5.2312   -0.6040    0.8049 C   0  0  0  0  0  0  0  0  0  0  0  0
   -3.8674   -0.8060    0.8316 C   0  0  0  0  0  0  0  0  0  0  0  0
   -2.9999   -0.2354   -0.1015 C   0  0  0  0  0  0  0  0  0  0  0  0
   -6.1084   -1.1885    1.7587 N   0  0  0  0  0  0  0  0  0  0  0  0
   -5.6434   -1.9808    2.7508 O   0  0  0  0  0  0  0  0  0  0  0  0
   -7.3321   -0.9703    1.6847 O   0  0  0  0  0  0  0  0  0  0  0  0
    5.4070   -1.5874   -1.0437 H   0  0  0  0  0  0  0  0  0  0  0  0
    3.0040   -1.6966   -0.6934 H   0  0  0  0  0  0  0  0  0  0  0  0
    3.1992    1.9577    1.5365 H   0  0  0  0  0  0  0  0  0  0  0  0
    5.6332    2.0319    1.1592 H   0  0  0  0  0  0  0  0  0  0  0  0
    1.0327   -1.7141   -0.3618 H   0  0  0  0  0  0  0  0  0  0  0  0
   -2.5697    1.6821   -2.7856 H   0  0  0  0  0  0  0  0  0  0  0  0
   -5.3224    1.3967   -1.8973 H   0  0  0  0  0  0  0  0  0  0  0  0
   -6.8080    0.3684   -0.2298 H   0  0  0  0  0  0  0  0  0  0  0  0
   -3.4701   -1.4309    1.6085 H   0  0  0  0  0  0  0  0  0  0  0  0
  1  2  1  0
  2  3  2  0
  2  4  1  0
  4  5  2  0
  5  6  1  0
  6  7  2  0
  7  8  1  0
  8  9  2  0
  7 10  1  0
 10 11  2  0
 10 12  1  0
 12 13  1  0
 13 14  2  0
 14 15  1  0
 15 16  2  0
 15 17  1  0
 17 18  1  0
 18 19  2  0
 19 20  1  0
 20 21  2  0
 21 22  1  0
 22 23  2  0
 21 24  1  0
 24 25  1  0
 24 26  2  0
  9  4  1  0
 23 14  1  0
 23 18  1  0
  5 27  1  0
  6 28  1  0
  8 29  1  0
  9 30  1  0
 12 31  1  0
 17 32  1  0
 19 33  1  0
 20 34  1  0
 22 35  1  0
M  CHG  4   1  -1   2   1  24   1  25  -1
M  END
$$$$
[H]OC(=O)[C@@]([H])(N([H])C(=O)[C@@]([H])(N([H])C(=O)[C@@]([H])(N([H])C(=O)C([H])([H])c1c([H])c([H])c([N+](=O)[O-])c([H])c1[H])C([H])([H])c1c([H])c([H])c([H])c([H])c1[H])C([H])([H])c1c([H])c([H])c([H])c([H])c1[H])C([H])([H])c1c([H])c([H])c([H])c([H])c1[H]
     RDKit          3D

 80 83  0  0  0  0  0  0  0  0999 V2000
  -10.9767    1.7043    1.7940 O   0  0  0  0  0  0  0  0  0  0  0  0
   -9.9697    1.9066    2.6977 N   0  0  0  0  0  0  0  0  0  0  0  0
  -10.2130    1.9673    3.9363 O   0  0  0  0  0  0  0  0  0  0  0  0
   -8.6092    2.0566    2.2878 C   0  0  0  0  0  0  0  0  0  0  0  0
   -8.2745    1.9820    0.9332 C   0  0  0  0  0  0  0  0  0  0  0  0
   -6.9776    2.1241    0.5412 C   0  0  0  0  0  0  0  0  0  0  0  0
   -5.9844    2.3403    1.4593 C   0  0  0  0  0  0  0  0  0  0  0  0
   -4.5845    2.5065    0.9832 C   0  0  0  0  0  0  0  0  0  0  0  0
   -3.9961    1.2022    0.5752 C   0  0  0  0  0  0  0  0  0  0  0  0
   -4.6753    0.1635    0.6999 O   0  0  0  0  0  0  0  0  0  0  0  0
   -2.6735    1.1351    0.0369 N   0  0  0  0  0  0  0  0  0  0  0  0
   -2.0274   -0.0541   -0.4120 C   0  0  1  0  0  0  0  0  0  0  0  0
   -1.9877   -0.1312   -1.9290 C   0  0  0  0  0  0  0  0  0  0  0  0
   -3.4093   -0.1206   -2.4492 C   0  0  0  0  0  0  0  0  0  0  0  0
   -4.1179   -1.3007   -2.5778 C   0  0  0  0  0  0  0  0  0  0  0  0
   -5.4144   -1.3127   -3.0513 C   0  0  0  0  0  0  0  0  0  0  0  0
   -6.0433   -0.1388   -3.4120 C   0  0  0  0  0  0  0  0  0  0  0  0
   -5.3487    1.0280   -3.2868 C   0  0  0  0  0  0  0  0  0  0  0  0
   -4.0457    1.0580   -2.8127 C   0  0  0  0  0  0  0  0  0  0  0  0
   -0.7689   -0.4084    0.2522 C   0  0  0  0  0  0  0  0  0  0  0  0
   -0.4976    0.0833    1.4093 O   0  0  0  0  0  0  0  0  0  0  0  0
    0.1934   -1.2725   -0.3016 N   0  0  0  0  0  0  0  0  0  0  0  0
    1.4652   -1.6456    0.3836 C   0  0  1  0  0  0  0  0  0  0  0  0
    1.5934   -3.0801    0.1162 C   0  0  0  0  0  0  0  0  0  0  0  0
    2.6975   -3.8631    0.6262 C   0  0  0  0  0  0  0  0  0  0  0  0
    2.5735   -4.3120    1.9559 C   0  0  0  0  0  0  0  0  0  0  0  0
    3.5358   -5.1012    2.5308 C   0  0  0  0  0  0  0  0  0  0  0  0
    4.6330   -5.4298    1.7302 C   0  0  0  0  0  0  0  0  0  0  0  0
    4.7702   -4.9980    0.4235 C   0  0  0  0  0  0  0  0  0  0  0  0
    3.7753   -4.1981   -0.1306 C   0  0  0  0  0  0  0  0  0  0  0  0
    2.4539   -0.7118   -0.1447 C   0  0  0  0  0  0  0  0  0  0  0  0
    2.0909    0.2127   -0.9879 O   0  0  0  0  0  0  0  0  0  0  0  0
    3.8150   -0.6767    0.1586 N   0  0  0  0  0  0  0  0  0  0  0  0
    4.7285    0.3456   -0.4166 C   0  0  1  0  0  0  0  0  0  0  0  0
    5.7439    0.6017    0.6431 C   0  0  0  0  0  0  0  0  0  0  0  0
    6.7538    1.6136    0.3417 C   0  0  0  0  0  0  0  0  0  0  0  0
    7.9602    1.3544   -0.2440 C   0  0  0  0  0  0  0  0  0  0  0  0
    8.8653    2.3222   -0.5076 C   0  0  0  0  0  0  0  0  0  0  0  0
    8.6156    3.6509   -0.1935 C   0  0  0  0  0  0  0  0  0  0  0  0
    7.3897    3.9331    0.4048 C   0  0  0  0  0  0  0  0  0  0  0  0
    6.4930    2.9492    0.6623 C   0  0  0  0  0  0  0  0  0  0  0  0
    5.3975   -0.2445   -1.6215 C   0  0  0  0  0  0  0  0  0  0  0  0
    6.2004    0.4574   -2.4798 O   0  0  0  0  0  0  0  0  0  0  0  0
    5.2217   -1.4702   -1.8976 O   0  0  0  0  0  0  0  0  0  0  0  0
   -6.2912    2.4166    2.7892 C   0  0  0  0  0  0  0  0  0  0  0  0
   -7.6141    2.2726    3.1948 C   0  0  0  0  0  0  0  0  0  0  0  0
   -9.0533    1.8101    0.2265 H   0  0  0  0  0  0  0  0  0  0  0  0
   -6.6912    2.0701   -0.5196 H   0  0  0  0  0  0  0  0  0  0  0  0
   -3.9544    2.9583    1.7702 H   0  0  0  0  0  0  0  0  0  0  0  0
   -4.5819    3.1769    0.0869 H   0  0  0  0  0  0  0  0  0  0  0  0
   -2.1534    2.0602   -0.0153 H   0  0  0  0  0  0  0  0  0  0  0  0
   -2.7533   -0.9001   -0.1393 H   0  0  0  0  0  0  0  0  0  0  0  0
   -1.4709    0.7548   -2.3029 H   0  0  0  0  0  0  0  0  0  0  0  0
   -1.5481   -1.0520   -2.3005 H   0  0  0  0  0  0  0  0  0  0  0  0
   -3.6585   -2.2481   -2.3036 H   0  0  0  0  0  0  0  0  0  0  0  0
   -5.9665   -2.2484   -3.1447 H   0  0  0  0  0  0  0  0  0  0  0  0
   -7.0643   -0.2078   -3.7782 H   0  0  0  0  0  0  0  0  0  0  0  0
   -5.8304    1.9512   -3.5625 H   0  0  0  0  0  0  0  0  0  0  0  0
   -3.5221    1.9907   -2.7253 H   0  0  0  0  0  0  0  0  0  0  0  0
    0.0101   -1.6813   -1.2581 H   0  0  0  0  0  0  0  0  0  0  0  0
    1.2107   -1.3895    1.4644 H   0  0  0  0  0  0  0  0  0  0  0  0
    1.4966   -3.1984   -1.0180 H   0  0  0  0  0  0  0  0  0  0  0  0
    0.6430   -3.5950    0.4631 H   0  0  0  0  0  0  0  0  0  0  0  0
    1.7050   -4.0418    2.5397 H   0  0  0  0  0  0  0  0  0  0  0  0
    3.4983   -5.4744    3.5450 H   0  0  0  0  0  0  0  0  0  0  0  0
    5.4003   -6.0495    2.1613 H   0  0  0  0  0  0  0  0  0  0  0  0
    5.5946   -5.2308   -0.2083 H   0  0  0  0  0  0  0  0  0  0  0  0
    3.8259   -3.8397   -1.1449 H   0  0  0  0  0  0  0  0  0  0  0  0
    4.2393   -1.3470    0.8040 H   0  0  0  0  0  0  0  0  0  0  0  0
    4.1397    1.2179   -0.6769 H   0  0  0  0  0  0  0  0  0  0  0  0
    6.3101   -0.3662    0.8719 H   0  0  0  0  0  0  0  0  0  0  0  0
    5.2638    0.8246    1.6456 H   0  0  0  0  0  0  0  0  0  0  0  0
    8.2000    0.3058   -0.4949 H   0  0  0  0  0  0  0  0  0  0  0  0
    9.8209    2.0880   -0.9825 H   0  0  0  0  0  0  0  0  0  0  0  0
    9.3363    4.3977   -0.4085 H   0  0  0  0  0  0  0  0  0  0  0  0
    7.1479    4.9653    0.6736 H   0  0  0  0  0  0  0  0  0  0  0  0
    5.5262    3.1744    1.1371 H   0  0  0  0  0  0  0  0  0  0  0  0
    5.7962    1.2824   -2.9195 H   0  0  0  0  0  0  0  0  0  0  0  0
   -5.5228    2.5887    3.5449 H   0  0  0  0  0  0  0  0  0  0  0  0
   -7.8603    2.3352    4.2583 H   0  0  0  0  0  0  0  0  0  0  0  0
  1  2  1  0
  2  3  2  0
  2  4  1  0
  4  5  2  0
  5  6  1  0
  6  7  2  0
  7  8  1  0
  8  9  1  0
  9 10  2  0
  9 11  1  0
 11 12  1  0
 12 13  1  0
 13 14  1  0
 14 15  2  0
 15 16  1  0
 16 17  2  0
 17 18  1  0
 18 19  2  0
 12 20  1  0
 20 21  2  0
 20 22  1  0
 22 23  1  0
 23 24  1  0
 24 25  1  0
 25 26  2  0
 26 27  1  0
 27 28  2  0
 28 29  1  0
 29 30  2  0
 23 31  1  0
 31 32  2  0
 31 33  1  0
 33 34  1  0
 34 35  1  0
 35 36  1  0
 36 37  2  0
 37 38  1  0
 38 39  2  0
 39 40  1  0
 40 41  2  0
 34 42  1  0
 42 43  1  0
 42 44  2  0
  7 45  1  0
 45 46  2  0
 46  4  1  0
 19 14  1  0
 30 25  1  0
 41 36  1  0
  5 47  1  0
  6 48  1  0
  8 49  1  0
  8 50  1  0
 11 51  1  0
 12 52  1  1
 13 53  1  0
 13 54  1  0
 15 55  1  0
 16 56  1  0
 17 57  1  0
 18 58  1  0
 19 59  1  0
 22 60  1  0
 23 61  1  1
 24 62  1  0
 24 63  1  0
 26 64  1  0
 27 65  1  0
 28 66  1  0
 29 67  1  0
 30 68  1  0
 33 69  1  0
 34 70  1  6
 35 71  1  0
 35 72  1  0
 37 73  1  0
 38 74  1  0
 39 75  1  0
 40 76  1  0
 41 77  1  0
 43 78  1  0
 45 79  1  0
 46 80  1  0
M  CHG  2   1  -1   2   1
M  END
$$$$
[H]Oc1c([H])c([H])c(-c2nc3c([H])c(O[H])c([H])c(C#N)c3o2)c([H])c1[H]
     RDKit          3D

 27 29  0  0  0  0  0  0  0  0999 V2000
   -5.8476   -0.4133    0.1468 O   0  0  0  0  0  0  0  0  0  0  0  0
   -4.4481   -0.2809    0.1512 C   0  0  0  0  0  0  0  0  0  0  0  0
   -3.6873   -1.4265    0.0430 C   0  0  0  0  0  0  0  0  0  0  0  0
   -2.3062   -1.2786    0.0489 C   0  0  0  0  0  0  0  0  0  0  0  0
   -1.7255   -0.0361    0.1586 C   0  0  0  0  0  0  0  0  0  0  0  0
   -2.4958    1.0989    0.2660 C   0  0  0  0  0  0  0  0  0  0  0  0
   -3.8668    0.9644    0.2613 C   0  0  0  0  0  0  0  0  0  0  0  0
   -0.2784    0.1306    0.1659 C   0  0  0  0  0  0  0  0  0  0  0  0
    0.4317    1.2664    0.2652 N   0  0  0  0  0  0  0  0  0  0  0  0
    1.7317    0.9632    0.2305 C   0  0  0  0  0  0  0  0  0  0  0  0
    2.9203    1.6670    0.2880 C   0  0  0  0  0  0  0  0  0  0  0  0
    4.1404    1.0025    0.2209 C   0  0  0  0  0  0  0  0  0  0  0  0
    5.3333    1.7180    0.2794 O   0  0  0  0  0  0  0  0  0  0  0  0
    4.1942   -0.3730    0.0956 C   0  0  0  0  0  0  0  0  0  0  0  0
    3.0058   -1.0816    0.0377 C   0  0  0  0  0  0  0  0  0  0  0  0
    2.9767   -2.5223   -0.0931 C   0  0  0  0  0  0  0  0  0  0  0  0
    2.9522   -3.6706   -0.2176 N   0  0  0  0  0  0  0  0  0  0  0  0
    1.8057   -0.4170    0.1047 C   0  0  0  0  0  0  0  0  0  0  0  0
    0.5673   -0.8653    0.0707 O   0  0  0  0  0  0  0  0  0  0  0  0
   -6.2801   -0.3690   -0.7866 H   0  0  0  0  0  0  0  0  0  0  0  0
   -4.1642   -2.4077   -0.0436 H   0  0  0  0  0  0  0  0  0  0  0  0
   -1.6934   -2.1539   -0.0340 H   0  0  0  0  0  0  0  0  0  0  0  0
   -2.0559    2.0892    0.3536 H   0  0  0  0  0  0  0  0  0  0  0  0
   -4.5037    1.8598    0.3461 H   0  0  0  0  0  0  0  0  0  0  0  0
    2.8638    2.7477    0.3866 H   0  0  0  0  0  0  0  0  0  0  0  0
    5.3088    2.7176    0.3704 H   0  0  0  0  0  0  0  0  0  0  0  0
    5.1212   -0.9294    0.0399 H   0  0  0  0  0  0  0  0  0  0  0  0
  1  2  1  0
  2  3  2  0
  3  4  1  0
  4  5  2  0
  5  6  1  0
  6  7  2  0
  5  8  1  0
  8  9  2  0
  9 10  1  0
 10 11  2  0
 11 12  1  0
 12 13  1  0
 12 14  2  0
 14 15  1  0
 15 16  1  0
 16 17  3  0
 15 18  2  0
 18 19  1  0
  7  2  1  0
 19  8  1  0
 18 10  1  0
  1 20  1  0
  3 21  1  0
  4 22  1  0
  6 23  1  0
  7 24  1  0
 11 25  1  0
 13 26  1  0
 14 27  1  0
M  END
$$$$
[H]C1=C(C(=O)[O-])N2C(=O)/C(=C(\[H])c3nc4n(c3[H])C([H])([H])C([H])([H])OC4([H])[H])[C@@]2([H])S1
     RDKit          3D

 31 34  0  0  0  0  0  0  0  0999 V2000
    6.1906   -0.6630   -2.3425 O   0  0  0  0  0  0  0  0  0  0  0  0
    5.5913   -0.0706   -1.2497 C   0  0  0  0  0  0  0  0  0  0  0  0
    6.3247    0.4041   -0.3488 O   0  0  0  0  0  0  0  0  0  0  0  0
    4.1314   -0.0227   -1.1903 C   0  0  0  0  0  0  0  0  0  0  0  0
    3.3681   -0.5203   -2.1353 C   0  0  0  0  0  0  0  0  0  0  0  0
    1.6844   -0.2222   -1.6019 S   0  0  0  0  0  0  0  0  0  0  0  0
    2.1605   -0.0467    0.1821 C   0  0  1  0  0  0  0  0  0  0  0  0
    3.4673    0.5887   -0.1217 N   0  0  0  0  0  0  0  0  0  0  0  0
    3.1570    1.4861    0.9657 C   0  0  0  0  0  0  0  0  0  0  0  0
    3.8569    2.2273    1.6963 O   0  0  0  0  0  0  0  0  0  0  0  0
    1.7346    1.1605    0.8391 C   0  0  0  0  0  0  0  0  0  0  0  0
    0.6230    1.7520    1.1938 C   0  0  0  0  0  0  0  0  0  0  0  0
   -0.6752    1.1575    0.9256 C   0  0  0  0  0  0  0  0  0  0  0  0
   -0.9601   -0.1860    0.9892 C   0  0  0  0  0  0  0  0  0  0  0  0
   -2.2586   -0.3728    0.6873 N   0  0  0  0  0  0  0  0  0  0  0  0
   -3.1022   -1.5475    0.5938 C   0  0  0  0  0  0  0  0  0  0  0  0
   -4.1463   -1.2193   -0.4794 C   0  0  0  0  0  0  0  0  0  0  0  0
   -4.9169   -0.1978    0.0493 O   0  0  0  0  0  0  0  0  0  0  0  0
   -4.2396    1.0079    0.0653 C   0  0  0  0  0  0  0  0  0  0  0  0
   -2.8087    0.8260    0.4318 C   0  0  0  0  0  0  0  0  0  0  0  0
   -1.8284    1.7516    0.5815 N   0  0  0  0  0  0  0  0  0  0  0  0
    3.6375   -1.0040   -3.0331 H   0  0  0  0  0  0  0  0  0  0  0  0
    2.2389   -0.9878    0.7102 H   0  0  0  0  0  0  0  0  0  0  0  0
    0.6073    2.7183    1.7097 H   0  0  0  0  0  0  0  0  0  0  0  0
   -0.2976   -1.0104    1.2326 H   0  0  0  0  0  0  0  0  0  0  0  0
   -2.5492   -2.4399    0.2558 H   0  0  0  0  0  0  0  0  0  0  0  0
   -3.6247   -1.7164    1.5744 H   0  0  0  0  0  0  0  0  0  0  0  0
   -3.5563   -0.7899   -1.3222 H   0  0  0  0  0  0  0  0  0  0  0  0
   -4.7231   -2.1036   -0.7667 H   0  0  0  0  0  0  0  0  0  0  0  0
   -4.7581    1.6482    0.8397 H   0  0  0  0  0  0  0  0  0  0  0  0
   -4.3285    1.5277   -0.9315 H   0  0  0  0  0  0  0  0  0  0  0  0
  1  2  1  0
  2  3  2  0
  2  4  1  0
  4  5  2  0
  5  6  1  0
  6  7  1  0
  7  8  1  0
  8  9  1  0
  9 10  2  0
  9 11  1  0
 11 12  2  0
 12 13  1  0
 13 14  2  0
 14 15  1  0
 15 16  1  0
 16 17  1  0
 17 18  1  0
 18 19  1  0
 19 20  1  0
 20 21  2  0
  8  4  1  0
 21 13  1  0
 11  7  1  0
 20 15  1  0
  5 22  1  0
  7 23  1  1
 12 24  1  0
 14 25  1  0
 16 26  1  0
 16 27  1  0
 17 28  1  0
 17 29  1  0
 19 30  1  0
 19 31  1  0
M  CHG  1   1  -1
M  END
$$$$
[H]C#Cc1c([H])c([H])c([H])c(N([H])c2nc3c([H])c(C(=O)O[H])c([H])c([H])c3c3c([H])nc([H])c([H])c23)c1[H]
     RDKit          3D

 39 42  0  0  0  0  0  0  0  0999 V2000
    5.8436   -2.4642    1.5030 O   0  0  0  0  0  0  0  0  0  0  0  0
    4.4830   -2.4650    1.3416 C   0  0  0  0  0  0  0  0  0  0  0  0
    3.8531   -3.5054    1.6613 O   0  0  0  0  0  0  0  0  0  0  0  0
    3.7739   -1.3124    0.8201 C   0  0  0  0  0  0  0  0  0  0  0  0
    4.5091   -0.1760    0.4765 C   0  0  0  0  0  0  0  0  0  0  0  0
    3.8551    0.9277   -0.0199 C   0  0  0  0  0  0  0  0  0  0  0  0
    2.4877    0.9131   -0.1769 C   0  0  0  0  0  0  0  0  0  0  0  0
    1.7571   -0.2324    0.1707 C   0  0  0  0  0  0  0  0  0  0  0  0
    2.4161   -1.3444    0.6708 C   0  0  0  0  0  0  0  0  0  0  0  0
    0.4394   -0.2451    0.0190 N   0  0  0  0  0  0  0  0  0  0  0  0
   -0.3168    0.7586   -0.4514 C   0  0  0  0  0  0  0  0  0  0  0  0
   -1.7024    0.6746   -0.5538 N   0  0  0  0  0  0  0  0  0  0  0  0
   -2.5397   -0.4369   -0.2586 C   0  0  0  0  0  0  0  0  0  0  0  0
   -2.1226   -1.7305   -0.2125 C   0  0  0  0  0  0  0  0  0  0  0  0
   -3.0315   -2.7603    0.1181 C   0  0  0  0  0  0  0  0  0  0  0  0
   -4.3479   -2.4724    0.3967 C   0  0  0  0  0  0  0  0  0  0  0  0
   -4.7924   -1.1673    0.3550 C   0  0  0  0  0  0  0  0  0  0  0  0
   -3.8872   -0.2095    0.0338 C   0  0  0  0  0  0  0  0  0  0  0  0
   -6.1760   -0.8903    0.6503 C   0  0  0  0  0  0  0  0  0  0  0  0
   -7.3343   -0.6399    0.8924 C   0  0  0  0  0  0  0  0  0  0  0  0
    0.3564    1.9279   -0.8153 C   0  0  0  0  0  0  0  0  0  0  0  0
   -0.3006    3.0319   -1.3144 C   0  0  0  0  0  0  0  0  0  0  0  0
    0.3960    4.1605   -1.6616 C   0  0  0  0  0  0  0  0  0  0  0  0
    1.7163    4.2058   -1.5216 N   0  0  0  0  0  0  0  0  0  0  0  0
    2.4006    3.1323   -1.0310 C   0  0  0  0  0  0  0  0  0  0  0  0
    1.7503    1.9765   -0.6680 C   0  0  0  0  0  0  0  0  0  0  0  0
    6.3643   -3.0423    2.1207 H   0  0  0  0  0  0  0  0  0  0  0  0
    5.5862   -0.2048    0.6155 H   0  0  0  0  0  0  0  0  0  0  0  0
    4.4258    1.7862   -0.2776 H   0  0  0  0  0  0  0  0  0  0  0  0
    1.8357   -2.2409    0.9419 H   0  0  0  0  0  0  0  0  0  0  0  0
   -2.2233    1.5489   -0.8978 H   0  0  0  0  0  0  0  0  0  0  0  0
   -1.1046   -2.0167   -0.4381 H   0  0  0  0  0  0  0  0  0  0  0  0
   -2.6706   -3.7939    0.1490 H   0  0  0  0  0  0  0  0  0  0  0  0
   -4.9976   -3.3018    0.6435 H   0  0  0  0  0  0  0  0  0  0  0  0
   -4.2270    0.8113    0.0003 H   0  0  0  0  0  0  0  0  0  0  0  0
   -8.3586   -0.4046    1.1098 H   0  0  0  0  0  0  0  0  0  0  0  0
   -1.3965    3.0205   -1.4432 H   0  0  0  0  0  0  0  0  0  0  0  0
   -0.1837    4.9941   -2.0484 H   0  0  0  0  0  0  0  0  0  0  0  0
    3.4637    3.1873   -0.9254 H   0  0  0  0  0  0  0  0  0  0  0  0
  1  2  1  0
  2  3  2  0
  2  4  1  0
  4  5  2  0
  5  6  1  0
  6  7  2  0
  7  8  1  0
  8  9  2  0
  8 10  1  0
 10 11  2  0
 11 12  1  0
 12 13  1  0
 13 14  2  0
 14 15  1  0
 15 16  2  0
 16 17  1  0
 17 18  2  0
 17 19  1  0
 19 20  3  0
 11 21  1  0
 21 22  2  0
 22 23  1  0
 23 24  2  0
 24 25  1  0
 25 26  2  0
  9  4  1  0
 18 13  1  0
 26 21  1  0
 26  7  1  0
  1 27  1  0
  5 28  1  0
  6 29  1  0
  9 30  1  0
 12 31  1  0
 14 32  1  0
 15 33  1  0
 16 34  1  0
 18 35  1  0
 20 36  1  0
 22 37  1  0
 23 38  1  0
 25 39  1  0
M  END
$$$$
[H]Oc1c([H])c([H])c(C([H])([H])[C@@]2([H])C(=O)N([H])[C@@]([H])(C([H])([H])C([H])([H])C([H])([H])N=C(N([H])[H])N([H])[H])C(=O)N([H])[C@@]([H])(C([H])([H])c3c([H])n([H])c4c([H])c([H])c([H])c([H])c34)C(=O)N([H])[C@@]([H])([C@@]([H])(C([H])([H])[H])C([H])([H])C([H])([H])[H])C(=O)N([H])[C@@]([H])(C([H])([H])C(=O)N([H])[H])C(=O)N2[H])c([H])c1[H]
     RDKit          3D

101104  0  0  0  0  0  0  0  0999 V2000
   -4.9154   -3.1307   -3.0380 C   0  0  0  0  0  0  0  0  0  0  0  0
   -3.7472   -3.9097   -2.5717 C   0  0  0  0  0  0  0  0  0  0  0  0
   -3.0285   -3.3948   -1.3630 C   0  0  2  0  0  0  0  0  0  0  0  0
   -3.9420   -3.3260   -0.1941 C   0  0  0  0  0  0  0  0  0  0  0  0
   -2.0938   -2.2637   -1.5743 C   0  0  2  0  0  0  0  0  0  0  0  0
   -2.5902   -1.0515   -2.1019 N   0  0  0  0  0  0  0  0  0  0  0  0
   -2.3501    0.2705   -1.6538 C   0  0  0  0  0  0  0  0  0  0  0  0
   -2.2901    1.2322   -2.4667 O   0  0  0  0  0  0  0  0  0  0  0  0
   -2.1548    0.6068   -0.1920 C   0  0  2  0  0  0  0  0  0  0  0  0
   -3.5951    0.5598    0.3508 C   0  0  0  0  0  0  0  0  0  0  0  0
   -3.7090    0.8353    1.7753 C   0  0  0  0  0  0  0  0  0  0  0  0
   -2.8509    0.5805    2.8214 C   0  0  0  0  0  0  0  0  0  0  0  0
   -3.3597    1.0247    3.9824 N   0  0  0  0  0  0  0  0  0  0  0  0
   -4.5415    1.5660    3.7043 C   0  0  0  0  0  0  0  0  0  0  0  0
   -5.4726    2.1498    4.5532 C   0  0  0  0  0  0  0  0  0  0  0  0
   -6.6675    2.6380    4.0260 C   0  0  0  0  0  0  0  0  0  0  0  0
   -6.9497    2.5593    2.6921 C   0  0  0  0  0  0  0  0  0  0  0  0
   -6.0006    1.9733    1.8791 C   0  0  0  0  0  0  0  0  0  0  0  0
   -4.8072    1.4786    2.3665 C   0  0  0  0  0  0  0  0  0  0  0  0
   -1.6262    1.9377   -0.0601 N   0  0  0  0  0  0  0  0  0  0  0  0
   -0.4697    2.4047    0.5553 C   0  0  0  0  0  0  0  0  0  0  0  0
   -0.6121    3.1607    1.5889 O   0  0  0  0  0  0  0  0  0  0  0  0
    0.9617    2.1807    0.2197 C   0  0  2  0  0  0  0  0  0  0  0  0
    1.4572    3.6110   -0.1067 C   0  0  0  0  0  0  0  0  0  0  0  0
    2.8887    3.6823   -0.4669 C   0  0  0  0  0  0  0  0  0  0  0  0
    3.2517    5.1253   -0.7722 C   0  0  0  0  0  0  0  0  0  0  0  0
    2.4234    5.5199   -1.8940 N   0  0  0  0  0  0  0  0  0  0  0  0
    1.8236    6.6344   -2.0111 C   0  0  0  0  0  0  0  0  0  0  0  0
    1.9092    7.6468   -1.0122 N   0  0  0  0  0  0  0  0  0  0  0  0
    1.0532    6.8607   -3.1739 N   0  0  0  0  0  0  0  0  0  0  0  0
    1.1914    1.4131   -0.9485 N   0  0  0  0  0  0  0  0  0  0  0  0
    2.2253    0.5213   -1.2231 C   0  0  0  0  0  0  0  0  0  0  0  0
    2.7640    0.5074   -2.4078 O   0  0  0  0  0  0  0  0  0  0  0  0
    2.8500   -0.4866   -0.3134 C   0  0  2  0  0  0  0  0  0  0  0  0
    4.0934    0.0895    0.3079 C   0  0  0  0  0  0  0  0  0  0  0  0
    4.7979   -0.8379    1.2022 C   0  0  0  0  0  0  0  0  0  0  0  0
    4.4335   -0.9615    2.5222 C   0  0  0  0  0  0  0  0  0  0  0  0
    5.1001   -1.8086    3.3942 C   0  0  0  0  0  0  0  0  0  0  0  0
    6.1626   -2.5612    2.9540 C   0  0  0  0  0  0  0  0  0  0  0  0
    6.8673   -3.4301    3.7952 O   0  0  0  0  0  0  0  0  0  0  0  0
    6.5439   -2.4518    1.6338 C   0  0  0  0  0  0  0  0  0  0  0  0
    5.8701   -1.6040    0.7800 C   0  0  0  0  0  0  0  0  0  0  0  0
    3.2427   -1.6431   -1.1070 N   0  0  0  0  0  0  0  0  0  0  0  0
    2.3325   -2.5885   -1.6374 C   0  0  0  0  0  0  0  0  0  0  0  0
    2.6147   -3.1295   -2.7531 O   0  0  0  0  0  0  0  0  0  0  0  0
    1.0531   -2.9787   -0.9438 C   0  0  2  0  0  0  0  0  0  0  0  0
    1.4059   -4.0073    0.0930 C   0  0  0  0  0  0  0  0  0  0  0  0
    2.0249   -5.1862   -0.5437 C   0  0  0  0  0  0  0  0  0  0  0  0
    3.4070   -5.3413   -0.7621 N   0  0  0  0  0  0  0  0  0  0  0  0
    1.2588   -6.1324   -0.9265 O   0  0  0  0  0  0  0  0  0  0  0  0
    0.1565   -3.4592   -1.9681 N   0  0  0  0  0  0  0  0  0  0  0  0
   -0.9854   -2.7877   -2.4601 C   0  0  0  0  0  0  0  0  0  0  0  0
   -1.1640   -2.5757   -3.7009 O   0  0  0  0  0  0  0  0  0  0  0  0
   -5.8587   -3.7486   -3.1354 H   0  0  0  0  0  0  0  0  0  0  0  0
   -5.2221   -2.2826   -2.3971 H   0  0  0  0  0  0  0  0  0  0  0  0
   -4.7434   -2.7444   -4.0775 H   0  0  0  0  0  0  0  0  0  0  0  0
   -3.0485   -4.1374   -3.4037 H   0  0  0  0  0  0  0  0  0  0  0  0
   -4.1427   -4.9259   -2.2617 H   0  0  0  0  0  0  0  0  0  0  0  0
   -2.3263   -4.2728   -1.0978 H   0  0  0  0  0  0  0  0  0  0  0  0
   -3.4242   -2.8009    0.6600 H   0  0  0  0  0  0  0  0  0  0  0  0
   -4.2947   -4.3297    0.1035 H   0  0  0  0  0  0  0  0  0  0  0  0
   -4.8517   -2.7161   -0.3653 H   0  0  0  0  0  0  0  0  0  0  0  0
   -1.5814   -2.0799   -0.5916 H   0  0  0  0  0  0  0  0  0  0  0  0
   -3.2259   -1.1037   -2.9538 H   0  0  0  0  0  0  0  0  0  0  0  0
   -1.5925   -0.1763    0.3126 H   0  0  0  0  0  0  0  0  0  0  0  0
   -4.0840   -0.3183   -0.0395 H   0  0  0  0  0  0  0  0  0  0  0  0
   -4.1183    1.4308   -0.1864 H   0  0  0  0  0  0  0  0  0  0  0  0
   -1.9011    0.0846    2.6730 H   0  0  0  0  0  0  0  0  0  0  0  0
   -2.9054    0.9518    4.9034 H   0  0  0  0  0  0  0  0  0  0  0  0
   -5.2496    2.2115    5.6081 H   0  0  0  0  0  0  0  0  0  0  0  0
   -7.3899    3.0933    4.7168 H   0  0  0  0  0  0  0  0  0  0  0  0
   -7.8907    2.9511    2.3373 H   0  0  0  0  0  0  0  0  0  0  0  0
   -6.2171    1.9062    0.8235 H   0  0  0  0  0  0  0  0  0  0  0  0
   -2.2652    2.6770   -0.5189 H   0  0  0  0  0  0  0  0  0  0  0  0
    1.5429    1.8689    1.1115 H   0  0  0  0  0  0  0  0  0  0  0  0
    1.3171    4.1782    0.8460 H   0  0  0  0  0  0  0  0  0  0  0  0
    0.8086    4.0563   -0.8758 H   0  0  0  0  0  0  0  0  0  0  0  0
    3.5030    3.4006    0.4411 H   0  0  0  0  0  0  0  0  0  0  0  0
    3.2099    3.0848   -1.3252 H   0  0  0  0  0  0  0  0  0  0  0  0
    4.3332    5.2186   -1.0008 H   0  0  0  0  0  0  0  0  0  0  0  0
    2.9320    5.7247    0.1119 H   0  0  0  0  0  0  0  0  0  0  0  0
    2.8291    7.7025   -0.4935 H   0  0  0  0  0  0  0  0  0  0  0  0
    1.1742    8.3095   -0.7604 H   0  0  0  0  0  0  0  0  0  0  0  0
    1.4435    6.5678   -4.1131 H   0  0  0  0  0  0  0  0  0  0  0  0
    0.1103    7.3026   -3.1927 H   0  0  0  0  0  0  0  0  0  0  0  0
    0.4806    1.5386   -1.7296 H   0  0  0  0  0  0  0  0  0  0  0  0
    2.1138   -0.7933    0.4770 H   0  0  0  0  0  0  0  0  0  0  0  0
    3.8815    1.0617    0.8263 H   0  0  0  0  0  0  0  0  0  0  0  0
    4.8009    0.2946   -0.5510 H   0  0  0  0  0  0  0  0  0  0  0  0
    3.6128   -0.3922    2.9104 H   0  0  0  0  0  0  0  0  0  0  0  0
    4.8145   -1.9018    4.4242 H   0  0  0  0  0  0  0  0  0  0  0  0
    7.6786   -3.0521    4.2973 H   0  0  0  0  0  0  0  0  0  0  0  0
    7.3857   -3.0525    1.2970 H   0  0  0  0  0  0  0  0  0  0  0  0
    6.2244   -1.5496   -0.2270 H   0  0  0  0  0  0  0  0  0  0  0  0
    4.2464   -1.8242   -1.3339 H   0  0  0  0  0  0  0  0  0  0  0  0
    0.6073   -2.0762   -0.4494 H   0  0  0  0  0  0  0  0  0  0  0  0
    2.1939   -3.5330    0.7389 H   0  0  0  0  0  0  0  0  0  0  0  0
    0.5702   -4.2978    0.7474 H   0  0  0  0  0  0  0  0  0  0  0  0
    4.1489   -4.8633   -0.2035 H   0  0  0  0  0  0  0  0  0  0  0  0
    3.7582   -5.9740   -1.5343 H   0  0  0  0  0  0  0  0  0  0  0  0
    0.3705   -4.3918   -2.3978 H   0  0  0  0  0  0  0  0  0  0  0  0
  1  2  1  0
  2  3  1  0
  3  4  1  0
  3  5  1  0
  5  6  1  0
  6  7  1  0
  7  8  2  0
  7  9  1  0
  9 10  1  0
 10 11  1  0
 11 12  2  0
 12 13  1  0
 13 14  1  0
 14 15  2  0
 15 16  1  0
 16 17  2  0
 17 18  1  0
 18 19  2  0
  9 20  1  0
 20 21  1  0
 21 22  2  0
 21 23  1  0
 23 24  1  0
 24 25  1  0
 25 26  1  0
 26 27  1  0
 27 28  2  3
 28 29  1  0
 28 30  1  0
 23 31  1  0
 31 32  1  0
 32 33  2  0
 32 34  1  0
 34 35  1  0
 35 36  1  0
 36 37  2  0
 37 38  1  0
 38 39  2  0
 39 40  1  0
 39 41  1  0
 41 42  2  0
 34 43  1  0
 43 44  1  0
 44 45  2  0
 44 46  1  0
 46 47  1  0
 47 48  1  0
 48 49  1  0
 48 50  2  0
 46 51  1  0
 51 52  1  0
 52 53  2  0
 52  5  1  0
 19 11  1  0
 42 36  1  0
 19 14  1  0
  1 54  1  0
  1 55  1  0
  1 56  1  0
  2 57  1  0
  2 58  1  0
  3 59  1  1
  4 60  1  0
  4 61  1  0
  4 62  1  0
  5 63  1  1
  6 64  1  0
  9 65  1  1
 10 66  1  0
 10 67  1  0
 12 68  1  0
 13 69  1  0
 15 70  1  0
 16 71  1  0
 17 72  1  0
 18 73  1  0
 20 74  1  0
 23 75  1  1
 24 76  1  0
 24 77  1  0
 25 78  1  0
 25 79  1  0
 26 80  1  0
 26 81  1  0
 29 82  1  0
 29 83  1  0
 30 84  1  0
 30 85  1  0
 31 86  1  0
 34 87  1  1
 35 88  1  0
 35 89  1  0
 37 90  1  0
 38 91  1  0
 40 92  1  0
 41 93  1  0
 42 94  1  0
 43 95  1  0
 46 96  1  1
 47 97  1  0
 47 98  1  0
 49 99  1  0
 49100  1  0
 51101  1  0
M  END
$$$$
[H]OC(=O)C([H])([H])C([H])(c1c([H])c([H])c(Cl)c(Cl)c1[H])N(C([H])([H])c1c([H])c([H])c(OC([H])([H])C([H])([H])N2C(=O)C([H])([H])C([H])([H])C2=O)c(C([H])([H])C([H])([H])[H])c1[H])C([H])([H])C([H])([H])C([H])([H])C([H])([H])[H]
     RDKit          3D

 71 73  0  0  0  0  0  0  0  0999 V2000
   -4.2570   -4.1016   -1.2119 C   0  0  0  0  0  0  0  0  0  0  0  0
   -3.2108   -3.4993   -2.1344 C   0  0  0  0  0  0  0  0  0  0  0  0
   -3.2034   -1.9749   -2.0577 C   0  0  0  0  0  0  0  0  0  0  0  0
   -2.8915   -1.6302   -0.6029 C   0  0  0  0  0  0  0  0  0  0  0  0
   -2.8416   -0.2600   -0.3438 N   0  0  0  0  0  0  0  0  0  0  0  0
   -1.8337    0.5435   -0.8654 C   0  0  0  0  0  0  0  0  0  0  0  0
   -0.4549    0.2026   -0.4256 C   0  0  0  0  0  0  0  0  0  0  0  0
    0.6475    0.6580   -1.1586 C   0  0  0  0  0  0  0  0  0  0  0  0
    1.9504    0.3961   -0.7999 C   0  0  0  0  0  0  0  0  0  0  0  0
    2.2494   -0.3414    0.3202 C   0  0  0  0  0  0  0  0  0  0  0  0
    3.4986   -0.6602    0.7671 O   0  0  0  0  0  0  0  0  0  0  0  0
    4.7584   -0.3975    0.3524 C   0  0  0  0  0  0  0  0  0  0  0  0
    5.2300    1.0237    0.3199 C   0  0  0  0  0  0  0  0  0  0  0  0
    6.6039    1.0235   -0.1568 N   0  0  0  0  0  0  0  0  0  0  0  0
    7.7797    0.9285    0.6306 C   0  0  0  0  0  0  0  0  0  0  0  0
    7.8853    0.3856    1.7877 O   0  0  0  0  0  0  0  0  0  0  0  0
    8.8832    1.5791   -0.1345 C   0  0  0  0  0  0  0  0  0  0  0  0
    8.5094    1.3124   -1.5584 C   0  0  0  0  0  0  0  0  0  0  0  0
    7.0393    1.1136   -1.5059 C   0  0  0  0  0  0  0  0  0  0  0  0
    6.3308    1.0427   -2.5375 O   0  0  0  0  0  0  0  0  0  0  0  0
    1.1428   -0.7997    1.0563 C   0  0  0  0  0  0  0  0  0  0  0  0
    1.4187   -1.6082    2.2746 C   0  0  0  0  0  0  0  0  0  0  0  0
    1.8179   -2.9871    1.7915 C   0  0  0  0  0  0  0  0  0  0  0  0
   -0.1579   -0.5358    0.6945 C   0  0  0  0  0  0  0  0  0  0  0  0
   -3.9224    0.2788    0.3635 C   0  0  0  0  0  0  0  0  0  0  0  0
   -4.0034   -0.2708    1.7546 C   0  0  0  0  0  0  0  0  0  0  0  0
   -5.1502    0.2304    2.5453 C   0  0  0  0  0  0  0  0  0  0  0  0
   -6.1918    0.8772    1.9140 O   0  0  0  0  0  0  0  0  0  0  0  0
   -5.1480    0.0517    3.7801 O   0  0  0  0  0  0  0  0  0  0  0  0
   -4.0399    1.7551    0.2723 C   0  0  0  0  0  0  0  0  0  0  0  0
   -3.7378    2.5501    1.3520 C   0  0  0  0  0  0  0  0  0  0  0  0
   -3.8496    3.9316    1.3050 C   0  0  0  0  0  0  0  0  0  0  0  0
   -4.2762    4.5501    0.1456 C   0  0  0  0  0  0  0  0  0  0  0  0
   -4.4184    6.2958    0.0794 Cl  0  0  0  0  0  0  0  0  0  0  0  0
   -4.5747    3.7323   -0.9293 C   0  0  0  0  0  0  0  0  0  0  0  0
   -5.1155    4.5566   -2.3936 Cl  0  0  0  0  0  0  0  0  0  0  0  0
   -4.4623    2.3701   -0.8758 C   0  0  0  0  0  0  0  0  0  0  0  0
   -3.7825   -4.1782   -0.2062 H   0  0  0  0  0  0  0  0  0  0  0  0
   -4.4170   -5.1505   -1.5510 H   0  0  0  0  0  0  0  0  0  0  0  0
   -5.1816   -3.4914   -1.2192 H   0  0  0  0  0  0  0  0  0  0  0  0
   -2.2332   -3.9355   -1.8620 H   0  0  0  0  0  0  0  0  0  0  0  0
   -3.4130   -3.8463   -3.1766 H   0  0  0  0  0  0  0  0  0  0  0  0
   -2.4201   -1.6289   -2.7550 H   0  0  0  0  0  0  0  0  0  0  0  0
   -4.1834   -1.5840   -2.3443 H   0  0  0  0  0  0  0  0  0  0  0  0
   -3.6942   -2.1530   -0.0311 H   0  0  0  0  0  0  0  0  0  0  0  0
   -1.9607   -2.2259   -0.3813 H   0  0  0  0  0  0  0  0  0  0  0  0
   -1.9423    1.6442   -0.6165 H   0  0  0  0  0  0  0  0  0  0  0  0
   -1.8311    0.5775   -2.0011 H   0  0  0  0  0  0  0  0  0  0  0  0
    0.4039    1.2420   -2.0470 H   0  0  0  0  0  0  0  0  0  0  0  0
    2.7837    0.7629   -1.4123 H   0  0  0  0  0  0  0  0  0  0  0  0
    5.4697   -0.9890    0.9927 H   0  0  0  0  0  0  0  0  0  0  0  0
    4.9038   -0.7971   -0.6869 H   0  0  0  0  0  0  0  0  0  0  0  0
    5.2289    1.4601    1.3696 H   0  0  0  0  0  0  0  0  0  0  0  0
    4.5824    1.6613   -0.3081 H   0  0  0  0  0  0  0  0  0  0  0  0
    9.8774    1.2009    0.1420 H   0  0  0  0  0  0  0  0  0  0  0  0
    8.8333    2.6999   -0.0035 H   0  0  0  0  0  0  0  0  0  0  0  0
    8.7800    2.1537   -2.2407 H   0  0  0  0  0  0  0  0  0  0  0  0
    9.0119    0.3785   -1.9028 H   0  0  0  0  0  0  0  0  0  0  0  0
    0.4952   -1.6387    2.8866 H   0  0  0  0  0  0  0  0  0  0  0  0
    2.2050   -1.1082    2.8704 H   0  0  0  0  0  0  0  0  0  0  0  0
    2.6578   -3.4161    2.3770 H   0  0  0  0  0  0  0  0  0  0  0  0
    0.8867   -3.6212    1.8546 H   0  0  0  0  0  0  0  0  0  0  0  0
    2.1799   -2.9424    0.7340 H   0  0  0  0  0  0  0  0  0  0  0  0
   -0.9818   -0.9073    1.3015 H   0  0  0  0  0  0  0  0  0  0  0  0
   -4.8682   -0.1015   -0.1514 H   0  0  0  0  0  0  0  0  0  0  0  0
   -4.1369   -1.3693    1.6880 H   0  0  0  0  0  0  0  0  0  0  0  0
   -3.0385   -0.1483    2.3093 H   0  0  0  0  0  0  0  0  0  0  0  0
   -6.5213    0.6165    0.9783 H   0  0  0  0  0  0  0  0  0  0  0  0
   -3.3856    2.1685    2.3162 H   0  0  0  0  0  0  0  0  0  0  0  0
   -3.6083    4.5636    2.1666 H   0  0  0  0  0  0  0  0  0  0  0  0
   -4.7042    1.7805   -1.7312 H   0  0  0  0  0  0  0  0  0  0  0  0
  1  2  1  0
  2  3  1  0
  3  4  1  0
  4  5  1  0
  5  6  1  0
  6  7  1  0
  7  8  2  0
  8  9  1  0
  9 10  2  0
 10 11  1  0
 11 12  1  0
 12 13  1  0
 13 14  1  0
 14 15  1  0
 15 16  2  0
 15 17  1  0
 17 18  1  0
 18 19  1  0
 19 20  2  0
 10 21  1  0
 21 22  1  0
 22 23  1  0
 21 24  2  0
  5 25  1  0
 25 26  1  0
 26 27  1  0
 27 28  1  0
 27 29  2  0
 25 30  1  0
 30 31  2  0
 31 32  1  0
 32 33  2  0
 33 34  1  0
 33 35  1  0
 35 36  1  0
 35 37  2  0
 24  7  1  0
 37 30  1  0
 19 14  1  0
  1 38  1  0
  1 39  1  0
  1 40  1  0
  2 41  1  0
  2 42  1  0
  3 43  1  0
  3 44  1  0
  4 45  1  0
  4 46  1  0
  6 47  1  0
  6 48  1  0
  8 49  1  0
  9 50  1  0
 12 51  1  0
 12 52  1  0
 13 53  1  0
 13 54  1  0
 17 55  1  0
 17 56  1  0
 18 57  1  0
 18 58  1  0
 22 59  1  0
 22 60  1  0
 23 61  1  0
 23 62  1  0
 23 63  1  0
 24 64  1  0
 25 65  1  0
 26 66  1  0
 26 67  1  0
 28 68  1  0
 31 69  1  0
 32 70  1  0
 37 71  1  0
M  END
$$$$
[H]c1nc([H])c(C([H])([H])[C@]2([H])N3C([H])([H])C([H])([H])C([H])(C([H])([H])C3([H])[H])[C@@]2([H])N([H])C(=O)c2nc([H])c3c([H])c([H])c([H])c([H])c3c2[H])c([H])c1[H]
     RDKit          3D

 52 56  0  0  0  0  0  0  0  0999 V2000
    1.4061   -1.1665    1.3635 O   0  0  0  0  0  0  0  0  0  0  0  0
    1.5439   -0.5940    0.2273 C   0  0  0  0  0  0  0  0  0  0  0  0
    0.4686   -0.6243   -0.7251 N   0  0  0  0  0  0  0  0  0  0  0  0
   -0.7314   -1.2928   -0.3834 C   0  0  2  0  0  0  0  0  0  0  0  0
   -1.0452   -2.4534   -1.3389 C   0  0  0  0  0  0  0  0  0  0  0  0
   -1.7802   -1.9387   -2.5711 C   0  0  0  0  0  0  0  0  0  0  0  0
   -3.0965   -1.2982   -2.2164 C   0  0  0  0  0  0  0  0  0  0  0  0
   -3.1257   -1.1666   -0.7540 N   0  0  0  0  0  0  0  0  0  0  0  0
   -3.1889   -2.4797   -0.1901 C   0  0  0  0  0  0  0  0  0  0  0  0
   -1.9953   -3.3431   -0.5442 C   0  0  0  0  0  0  0  0  0  0  0  0
   -1.9567   -0.4173   -0.3835 C   0  0  1  0  0  0  0  0  0  0  0  0
   -2.1325    0.3407    0.8918 C   0  0  0  0  0  0  0  0  0  0  0  0
   -3.3518    1.1683    0.8040 C   0  0  0  0  0  0  0  0  0  0  0  0
   -3.3043    2.4580    0.3200 C   0  0  0  0  0  0  0  0  0  0  0  0
   -4.4479    3.2093    0.2469 C   0  0  0  0  0  0  0  0  0  0  0  0
   -5.6499    2.6801    0.6562 C   0  0  0  0  0  0  0  0  0  0  0  0
   -5.6857    1.4247    1.1254 N   0  0  0  0  0  0  0  0  0  0  0  0
   -4.5703    0.6708    1.2046 C   0  0  0  0  0  0  0  0  0  0  0  0
    2.7956    0.0623   -0.0385 C   0  0  0  0  0  0  0  0  0  0  0  0
    3.7979    0.0726    0.8884 C   0  0  0  0  0  0  0  0  0  0  0  0
    4.9996    0.7150    0.6059 C   0  0  0  0  0  0  0  0  0  0  0  0
    5.9988    0.7184    1.5451 C   0  0  0  0  0  0  0  0  0  0  0  0
    7.1880    1.3567    1.2597 C   0  0  0  0  0  0  0  0  0  0  0  0
    7.3450    1.9750    0.0408 C   0  0  0  0  0  0  0  0  0  0  0  0
    6.3611    1.9802   -0.9031 C   0  0  0  0  0  0  0  0  0  0  0  0
    5.1629    1.3333   -0.6071 C   0  0  0  0  0  0  0  0  0  0  0  0
    4.1316    1.3055   -1.5230 C   0  0  0  0  0  0  0  0  0  0  0  0
    2.9984    0.6777   -1.2079 N   0  0  0  0  0  0  0  0  0  0  0  0
    0.6186   -0.1495   -1.6338 H   0  0  0  0  0  0  0  0  0  0  0  0
   -0.6472   -1.7167    0.6358 H   0  0  0  0  0  0  0  0  0  0  0  0
   -0.1461   -2.9738   -1.6602 H   0  0  0  0  0  0  0  0  0  0  0  0
   -1.9952   -2.8239   -3.1917 H   0  0  0  0  0  0  0  0  0  0  0  0
   -1.1179   -1.2525   -3.1236 H   0  0  0  0  0  0  0  0  0  0  0  0
   -3.1705   -0.2579   -2.6283 H   0  0  0  0  0  0  0  0  0  0  0  0
   -3.9745   -1.8842   -2.5532 H   0  0  0  0  0  0  0  0  0  0  0  0
   -4.0886   -2.9792   -0.5721 H   0  0  0  0  0  0  0  0  0  0  0  0
   -3.3187   -2.3753    0.9158 H   0  0  0  0  0  0  0  0  0  0  0  0
   -1.4675   -3.5632    0.4215 H   0  0  0  0  0  0  0  0  0  0  0  0
   -2.2565   -4.2595   -1.0743 H   0  0  0  0  0  0  0  0  0  0  0  0
   -1.7937    0.3432   -1.2020 H   0  0  0  0  0  0  0  0  0  0  0  0
   -1.2192    0.9599    1.0560 H   0  0  0  0  0  0  0  0  0  0  0  0
   -2.2109   -0.3716    1.7381 H   0  0  0  0  0  0  0  0  0  0  0  0
   -2.3267    2.8418    0.0043 H   0  0  0  0  0  0  0  0  0  0  0  0
   -4.4039    4.2184   -0.1330 H   0  0  0  0  0  0  0  0  0  0  0  0
   -6.5418    3.2757    0.5956 H   0  0  0  0  0  0  0  0  0  0  0  0
   -4.6524   -0.3311    1.5886 H   0  0  0  0  0  0  0  0  0  0  0  0
    3.7203   -0.4000    1.8605 H   0  0  0  0  0  0  0  0  0  0  0  0
    5.8555    0.2337    2.4817 H   0  0  0  0  0  0  0  0  0  0  0  0
    7.9727    1.3549    2.0071 H   0  0  0  0  0  0  0  0  0  0  0  0
    8.2823    2.4702   -0.1667 H   0  0  0  0  0  0  0  0  0  0  0  0
    6.4490    2.4593   -1.8797 H   0  0  0  0  0  0  0  0  0  0  0  0
    4.2977    1.8071   -2.4752 H   0  0  0  0  0  0  0  0  0  0  0  0
  1  2  2  0
  2  3  1  0
  3  4  1  0
  4  5  1  0
  5  6  1  0
  6  7  1  0
  7  8  1  0
  8  9  1  0
  9 10  1  0
  8 11  1  0
 11 12  1  0
 12 13  1  0
 13 14  2  0
 14 15  1  0
 15 16  2  0
 16 17  1  0
 17 18  2  0
  2 19  1  0
 19 20  2  0
 20 21  1  0
 21 22  2  0
 22 23  1  0
 23 24  2  0
 24 25  1  0
 25 26  2  0
 26 27  1  0
 27 28  2  0
 11  4  1  0
 18 13  1  0
 28 19  1  0
 10  5  1  0
 26 21  1  0
  3 29  1  0
  4 30  1  1
  5 31  1  0
  6 32  1  0
  6 33  1  0
  7 34  1  0
  7 35  1  0
  9 36  1  0
  9 37  1  0
 10 38  1  0
 10 39  1  0
 11 40  1  6
 12 41  1  0
 12 42  1  0
 14 43  1  0
 15 44  1  0
 16 45  1  0
 18 46  1  0
 20 47  1  0
 22 48  1  0
 23 49  1  0
 24 50  1  0
 25 51  1  0
 27 52  1  0
M  END
$$$$
[H]c1c([H])c([C@@]([H])(OC(=O)c2c([H])c([H])c(C([H])([H])N3C([H])([H])C([H])([H])OC([H])([H])C3([H])[H])c([H])c2[H])C([H])([H])c2c(Cl)c([H])[n+]([O-])c([H])c2Cl)c([H])c(OC([H])([H])[H])c1OC([H])([H])[H]
     RDKit          3D

 65 68  0  0  0  0  0  0  0  0999 V2000
   -5.5994   -4.6139   -2.0908 C   0  0  0  0  0  0  0  0  0  0  0  0
   -5.7950   -4.0376   -0.8055 O   0  0  0  0  0  0  0  0  0  0  0  0
   -4.9997   -2.9370   -0.4818 C   0  0  0  0  0  0  0  0  0  0  0  0
   -4.0663   -2.4043   -1.3242 C   0  0  0  0  0  0  0  0  0  0  0  0
   -3.3161   -1.3163   -0.9388 C   0  0  0  0  0  0  0  0  0  0  0  0
   -3.4554   -0.7103    0.2910 C   0  0  0  0  0  0  0  0  0  0  0  0
   -4.4032   -1.2632    1.1272 C   0  0  0  0  0  0  0  0  0  0  0  0
   -5.1682   -2.3537    0.7645 C   0  0  0  0  0  0  0  0  0  0  0  0
   -6.0957   -2.8489    1.6566 O   0  0  0  0  0  0  0  0  0  0  0  0
   -6.2403   -2.2327    2.9129 C   0  0  0  0  0  0  0  0  0  0  0  0
   -2.6170    0.4673    0.6530 C   0  0  2  0  0  0  0  0  0  0  0  0
   -3.2686    1.6564    0.1201 C   0  0  0  0  0  0  0  0  0  0  0  0
   -2.7486    2.9698    0.2755 C   0  0  0  0  0  0  0  0  0  0  0  0
   -2.8176    3.6996    1.4382 C   0  0  0  0  0  0  0  0  0  0  0  0
   -3.5994    2.9210    2.7640 Cl  0  0  0  0  0  0  0  0  0  0  0  0
   -2.3141    4.9598    1.5779 C   0  0  0  0  0  0  0  0  0  0  0  0
   -1.7069    5.5461    0.5243 N   0  0  0  0  0  0  0  0  0  0  0  0
   -1.2180    6.8121    0.7159 O   0  0  0  0  0  0  0  0  0  0  0  0
   -1.6038    4.8868   -0.6488 C   0  0  0  0  0  0  0  0  0  0  0  0
   -2.1205    3.6011   -0.7824 C   0  0  0  0  0  0  0  0  0  0  0  0
   -1.9329    2.8388   -2.3451 Cl  0  0  0  0  0  0  0  0  0  0  0  0
   -1.3141    0.1897    0.2853 O   0  0  0  0  0  0  0  0  0  0  0  0
   -0.2390   -0.0112    1.0782 C   0  0  0  0  0  0  0  0  0  0  0  0
   -0.4033    0.0527    2.3033 O   0  0  0  0  0  0  0  0  0  0  0  0
    1.0689   -0.2926    0.5271 C   0  0  0  0  0  0  0  0  0  0  0  0
    2.1384   -0.4865    1.3736 C   0  0  0  0  0  0  0  0  0  0  0  0
    3.4159   -0.7567    0.9150 C   0  0  0  0  0  0  0  0  0  0  0  0
    3.6449   -0.8386   -0.4369 C   0  0  0  0  0  0  0  0  0  0  0  0
    4.9819   -1.1197   -0.9374 C   0  0  0  0  0  0  0  0  0  0  0  0
    5.7424    0.0029   -1.3668 N   0  0  0  0  0  0  0  0  0  0  0  0
    7.0468   -0.3197   -1.8490 C   0  0  0  0  0  0  0  0  0  0  0  0
    7.9809   -0.7042   -0.7240 C   0  0  0  0  0  0  0  0  0  0  0  0
    7.7057   -0.0586    0.4544 O   0  0  0  0  0  0  0  0  0  0  0  0
    7.0928    1.1584    0.3272 C   0  0  0  0  0  0  0  0  0  0  0  0
    5.8161    1.1175   -0.4891 C   0  0  0  0  0  0  0  0  0  0  0  0
    2.5929   -0.6488   -1.2982 C   0  0  0  0  0  0  0  0  0  0  0  0
    1.3039   -0.3759   -0.8310 C   0  0  0  0  0  0  0  0  0  0  0  0
   -5.8049   -3.8125   -2.8314 H   0  0  0  0  0  0  0  0  0  0  0  0
   -6.2548   -5.4977   -2.2336 H   0  0  0  0  0  0  0  0  0  0  0  0
   -4.5210   -4.8979   -2.1424 H   0  0  0  0  0  0  0  0  0  0  0  0
   -3.9191   -2.8402   -2.2945 H   0  0  0  0  0  0  0  0  0  0  0  0
   -2.5975   -0.9255   -1.6181 H   0  0  0  0  0  0  0  0  0  0  0  0
   -4.5261   -0.7934    2.1080 H   0  0  0  0  0  0  0  0  0  0  0  0
   -5.2265   -2.2097    3.3974 H   0  0  0  0  0  0  0  0  0  0  0  0
   -6.6592   -1.2011    2.8488 H   0  0  0  0  0  0  0  0  0  0  0  0
   -6.8970   -2.9016    3.5394 H   0  0  0  0  0  0  0  0  0  0  0  0
   -2.6531    0.4995    1.7736 H   0  0  0  0  0  0  0  0  0  0  0  0
   -4.3268    1.6521    0.5350 H   0  0  0  0  0  0  0  0  0  0  0  0
   -3.4502    1.4563   -0.9808 H   0  0  0  0  0  0  0  0  0  0  0  0
   -2.3957    5.4854    2.5121 H   0  0  0  0  0  0  0  0  0  0  0  0
   -1.1071    5.4098   -1.4546 H   0  0  0  0  0  0  0  0  0  0  0  0
    1.9814   -0.4262    2.4520 H   0  0  0  0  0  0  0  0  0  0  0  0
    4.2225   -0.9003    1.6512 H   0  0  0  0  0  0  0  0  0  0  0  0
    4.9798   -1.8466   -1.8042 H   0  0  0  0  0  0  0  0  0  0  0  0
    5.6099   -1.6574   -0.1647 H   0  0  0  0  0  0  0  0  0  0  0  0
    7.4747    0.5792   -2.3403 H   0  0  0  0  0  0  0  0  0  0  0  0
    7.0592   -1.1597   -2.5743 H   0  0  0  0  0  0  0  0  0  0  0  0
    7.8723   -1.8097   -0.5357 H   0  0  0  0  0  0  0  0  0  0  0  0
    9.0408   -0.5505   -0.9866 H   0  0  0  0  0  0  0  0  0  0  0  0
    7.8248    1.8913   -0.0492 H   0  0  0  0  0  0  0  0  0  0  0  0
    6.8111    1.4998    1.3547 H   0  0  0  0  0  0  0  0  0  0  0  0
    4.9226    1.2968    0.1423 H   0  0  0  0  0  0  0  0  0  0  0  0
    5.8634    2.0390   -1.1456 H   0  0  0  0  0  0  0  0  0  0  0  0
    2.7067   -0.7004   -2.3728 H   0  0  0  0  0  0  0  0  0  0  0  0
    0.4815   -0.2280   -1.5211 H   0  0  0  0  0  0  0  0  0  0  0  0
  1  2  1  0
  2  3  1  0
  3  4  2  0
  4  5  1  0
  5  6  2  0
  6  7  1  0
  7  8  2  0
  8  9  1  0
  9 10  1  0
  6 11  1  0
 11 12  1  0
 12 13  1  0
 13 14  2  0
 14 15  1  0
 14 16  1  0
 16 17  2  0
 17 18  1  0
 17 19  1  0
 19 20  2  0
 20 21  1  0
 11 22  1  0
 22 23  1  0
 23 24  2  0
 23 25  1  0
 25 26  2  0
 26 27  1  0
 27 28  2  0
 28 29  1  0
 29 30  1  0
 30 31  1  0
 31 32  1  0
 32 33  1  0
 33 34  1  0
 34 35  1  0
 28 36  1  0
 36 37  2  0
  8  3  1  0
 20 13  1  0
 37 25  1  0
 35 30  1  0
  1 38  1  0
  1 39  1  0
  1 40  1  0
  4 41  1  0
  5 42  1  0
  7 43  1  0
 10 44  1  0
 10 45  1  0
 10 46  1  0
 11 47  1  1
 12 48  1  0
 12 49  1  0
 16 50  1  0
 19 51  1  0
 26 52  1  0
 27 53  1  0
 29 54  1  0
 29 55  1  0
 31 56  1  0
 31 57  1  0
 32 58  1  0
 32 59  1  0
 34 60  1  0
 34 61  1  0
 35 62  1  0
 35 63  1  0
 36 64  1  0
 37 65  1  0
M  CHG  2  17   1  18  -1
M  END
$$$$
