[H]/C(=C1/SC(=O)N(C([H])([H])C(=O)N([H])S(=O)(=O)N(C([H])([H])[H])C([H])([H])[H])C1=O)c1c([H])c([H])c2c(c([H])nn2C([H])([H])c2c([H])c([H])c(Cl)c([H])c2C(F)(F)F)c1[H]
     RDKit          3D

 58 61  0  0  0  0  0  0  0  0999 V2000
    6.8484   -2.3213   -0.2015 C   0  0  0  0  0  0  0  0  0  0  0  0
    7.9686   -1.4770   -0.5513 N   0  0  0  0  0  0  0  0  0  0  0  0
    9.1666   -2.2071   -0.1086 C   0  0  0  0  0  0  0  0  0  0  0  0
    7.9008   -0.0549    0.4200 S   0  0  0  0  0  0  0  0  0  0  0  0
    9.3415    0.4075    0.6246 O   0  0  0  0  0  0  0  0  0  0  0  0
    7.3133   -0.4708    1.7546 O   0  0  0  0  0  0  0  0  0  0  0  0
    6.9970    1.2119   -0.2952 N   0  0  0  0  0  0  0  0  0  0  0  0
    5.5890    1.2663   -0.2983 C   0  0  0  0  0  0  0  0  0  0  0  0
    4.9258    0.3519    0.2446 O   0  0  0  0  0  0  0  0  0  0  0  0
    4.8627    2.3873   -0.9329 C   0  0  0  0  0  0  0  0  0  0  0  0
    3.3984    2.1763   -0.7790 N   0  0  0  0  0  0  0  0  0  0  0  0
    2.7242    2.6783    0.3638 C   0  0  0  0  0  0  0  0  0  0  0  0
    3.0674    3.5508    1.1887 O   0  0  0  0  0  0  0  0  0  0  0  0
    1.1830    1.7610    0.4003 S   0  0  0  0  0  0  0  0  0  0  0  0
    1.1864    1.4108   -1.3825 C   0  0  0  0  0  0  0  0  0  0  0  0
    0.1585    1.1517   -2.1279 C   0  0  0  0  0  0  0  0  0  0  0  0
   -1.2057    1.1058   -1.6103 C   0  0  0  0  0  0  0  0  0  0  0  0
   -2.0744    0.0937   -2.0228 C   0  0  0  0  0  0  0  0  0  0  0  0
   -3.3691    0.0201   -1.5773 C   0  0  0  0  0  0  0  0  0  0  0  0
   -3.8394    0.9708   -0.6930 C   0  0  0  0  0  0  0  0  0  0  0  0
   -5.0235    1.1788   -0.0829 N   0  0  0  0  0  0  0  0  0  0  0  0
   -6.1787    0.3271   -0.2744 C   0  0  0  0  0  0  0  0  0  0  0  0
   -6.2488   -0.7949    0.6852 C   0  0  0  0  0  0  0  0  0  0  0  0
   -5.2316   -0.9451    1.6077 C   0  0  0  0  0  0  0  0  0  0  0  0
   -5.2321   -1.9542    2.5210 C   0  0  0  0  0  0  0  0  0  0  0  0
   -6.2959   -2.8450    2.5048 C   0  0  0  0  0  0  0  0  0  0  0  0
   -6.3888   -4.1765    3.6392 Cl  0  0  0  0  0  0  0  0  0  0  0  0
   -7.3035   -2.6838    1.5794 C   0  0  0  0  0  0  0  0  0  0  0  0
   -7.3089   -1.6519    0.6411 C   0  0  0  0  0  0  0  0  0  0  0  0
   -8.4169   -1.5335   -0.3198 C   0  0  0  0  0  0  0  0  0  0  0  0
   -8.0311   -1.6199   -1.6329 F   0  0  0  0  0  0  0  0  0  0  0  0
   -9.3059   -2.5994   -0.1213 F   0  0  0  0  0  0  0  0  0  0  0  0
   -9.2002   -0.3976   -0.0808 F   0  0  0  0  0  0  0  0  0  0  0  0
   -4.9608    2.2506    0.6847 N   0  0  0  0  0  0  0  0  0  0  0  0
   -3.7403    2.7774    0.6034 C   0  0  0  0  0  0  0  0  0  0  0  0
   -3.0109    1.9803   -0.2667 C   0  0  0  0  0  0  0  0  0  0  0  0
   -1.7167    2.0323   -0.7286 C   0  0  0  0  0  0  0  0  0  0  0  0
    2.6025    1.5079   -1.7043 C   0  0  0  0  0  0  0  0  0  0  0  0
    3.0791    1.0004   -2.7860 O   0  0  0  0  0  0  0  0  0  0  0  0
    7.1644   -3.3869   -0.1390 H   0  0  0  0  0  0  0  0  0  0  0  0
    6.4877   -2.0259    0.8010 H   0  0  0  0  0  0  0  0  0  0  0  0
    6.0048   -2.2282   -0.9384 H   0  0  0  0  0  0  0  0  0  0  0  0
    9.4654   -2.9183   -0.8828 H   0  0  0  0  0  0  0  0  0  0  0  0
    8.9669   -2.7025    0.8873 H   0  0  0  0  0  0  0  0  0  0  0  0
   10.0100   -1.5111    0.0675 H   0  0  0  0  0  0  0  0  0  0  0  0
    7.5282    1.9879   -0.7556 H   0  0  0  0  0  0  0  0  0  0  0  0
    5.1572    3.3151   -0.4478 H   0  0  0  0  0  0  0  0  0  0  0  0
    5.1252    2.4158   -2.0226 H   0  0  0  0  0  0  0  0  0  0  0  0
    0.3134    0.9598   -3.1861 H   0  0  0  0  0  0  0  0  0  0  0  0
   -1.6887   -0.6523   -2.7231 H   0  0  0  0  0  0  0  0  0  0  0  0
   -4.0612   -0.7655   -1.8913 H   0  0  0  0  0  0  0  0  0  0  0  0
   -7.1072    0.9352   -0.1373 H   0  0  0  0  0  0  0  0  0  0  0  0
   -6.1917   -0.0112   -1.3440 H   0  0  0  0  0  0  0  0  0  0  0  0
   -4.3800   -0.2521    1.6392 H   0  0  0  0  0  0  0  0  0  0  0  0
   -4.4692   -2.1293    3.2704 H   0  0  0  0  0  0  0  0  0  0  0  0
   -8.1307   -3.3847    1.5739 H   0  0  0  0  0  0  0  0  0  0  0  0
   -3.3165    3.6518    1.0856 H   0  0  0  0  0  0  0  0  0  0  0  0
   -1.1080    2.8363   -0.3829 H   0  0  0  0  0  0  0  0  0  0  0  0
  1  2  1  0
  2  3  1  0
  2  4  1  0
  4  5  2  0
  4  6  2  0
  4  7  1  0
  7  8  1  0
  8  9  2  0
  8 10  1  0
 10 11  1  0
 11 12  1  0
 12 13  2  0
 12 14  1  0
 14 15  1  0
 15 16  2  0
 16 17  1  0
 17 18  2  0
 18 19  1  0
 19 20  2  0
 20 21  1  0
 21 22  1  0
 22 23  1  0
 23 24  2  0
 24 25  1  0
 25 26  2  0
 26 27  1  0
 26 28  1  0
 28 29  2  0
 29 30  1  0
 30 31  1  0
 30 32  1  0
 30 33  1  0
 21 34  1  0
 34 35  2  0
 35 36  1  0
 36 37  2  0
 15 38  1  0
 38 39  2  0
 38 11  1  0
 37 17  1  0
 36 20  1  0
 29 23  1  0
  1 40  1  0
  1 41  1  0
  1 42  1  0
  3 43  1  0
  3 44  1  0
  3 45  1  0
  7 46  1  0
 10 47  1  0
 10 48  1  0
 16 49  1  0
 18 50  1  0
 19 51  1  0
 22 52  1  0
 22 53  1  0
 24 54  1  0
 25 55  1  0
 28 56  1  0
 35 57  1  0
 37 58  1  0
M  END
$$$$
[H]Oc1c([H])c([H])c2c(c1[H])OC([H])([H])c1c-2nc2c([H])c([H])c(O[H])c([H])c2c1C([H])=C([H])[H]
     RDKit          3D

 35 38  0  0  0  0  0  0  0  0999 V2000
    3.9014   -1.9844    4.5478 O   0  0  0  0  0  0  0  0  0  0  0  0
    3.0202   -1.5972    3.5304 C   0  0  0  0  0  0  0  0  0  0  0  0
    2.3172   -2.5445    2.8173 C   0  0  0  0  0  0  0  0  0  0  0  0
    1.4430   -2.1959    1.8097 C   0  0  0  0  0  0  0  0  0  0  0  0
    1.2416   -0.8770    1.4792 C   0  0  0  0  0  0  0  0  0  0  0  0
    1.9353    0.0875    2.1830 C   0  0  0  0  0  0  0  0  0  0  0  0
    1.7538    1.4107    1.8864 O   0  0  0  0  0  0  0  0  0  0  0  0
    1.1264    1.9238    0.7216 C   0  0  0  0  0  0  0  0  0  0  0  0
    0.2419    0.9006    0.0719 C   0  0  0  0  0  0  0  0  0  0  0  0
   -0.6835    1.2185   -0.8967 C   0  0  0  0  0  0  0  0  0  0  0  0
   -0.9308    2.5693   -1.3249 C   0  0  0  0  0  0  0  0  0  0  0  0
   -0.0952    3.5579   -1.4737 C   0  0  0  0  0  0  0  0  0  0  0  0
   -1.4486    0.2075   -1.5148 C   0  0  0  0  0  0  0  0  0  0  0  0
   -2.3811    0.5026   -2.5010 C   0  0  0  0  0  0  0  0  0  0  0  0
   -3.1437   -0.4693   -3.1319 C   0  0  0  0  0  0  0  0  0  0  0  0
   -4.0755   -0.1272   -4.1235 O   0  0  0  0  0  0  0  0  0  0  0  0
   -2.9459   -1.7735   -2.7435 C   0  0  0  0  0  0  0  0  0  0  0  0
   -2.0232   -2.0807   -1.7665 C   0  0  0  0  0  0  0  0  0  0  0  0
   -1.2651   -1.0987   -1.1419 C   0  0  0  0  0  0  0  0  0  0  0  0
   -0.3630   -1.3954   -0.1957 N   0  0  0  0  0  0  0  0  0  0  0  0
    0.3754   -0.4414    0.4048 C   0  0  0  0  0  0  0  0  0  0  0  0
    2.8076   -0.2776    3.1887 C   0  0  0  0  0  0  0  0  0  0  0  0
    4.4292   -1.3373    5.0881 H   0  0  0  0  0  0  0  0  0  0  0  0
    2.4430   -3.5976    3.0419 H   0  0  0  0  0  0  0  0  0  0  0  0
    0.8927   -2.9500    1.2525 H   0  0  0  0  0  0  0  0  0  0  0  0
    0.5903    2.8324    1.0210 H   0  0  0  0  0  0  0  0  0  0  0  0
    2.0173    2.1291    0.0424 H   0  0  0  0  0  0  0  0  0  0  0  0
   -1.9893    2.8406   -1.5468 H   0  0  0  0  0  0  0  0  0  0  0  0
    0.9570    3.5869   -1.3130 H   0  0  0  0  0  0  0  0  0  0  0  0
   -0.5294    4.5278   -1.8215 H   0  0  0  0  0  0  0  0  0  0  0  0
   -2.5359    1.5193   -2.8169 H   0  0  0  0  0  0  0  0  0  0  0  0
   -5.0331    0.0801   -3.8226 H   0  0  0  0  0  0  0  0  0  0  0  0
   -3.5455   -2.5279   -3.2406 H   0  0  0  0  0  0  0  0  0  0  0  0
   -1.8634   -3.1014   -1.4579 H   0  0  0  0  0  0  0  0  0  0  0  0
    3.3589    0.4822    3.7466 H   0  0  0  0  0  0  0  0  0  0  0  0
  1  2  1  0
  2  3  2  0
  3  4  1  0
  4  5  2  0
  5  6  1  0
  6  7  1  0
  7  8  1  0
  8  9  1  0
  9 10  2  0
 10 11  1  0
 11 12  2  3
 10 13  1  0
 13 14  2  0
 14 15  1  0
 15 16  1  0
 15 17  2  0
 17 18  1  0
 18 19  2  0
 19 20  1  0
 20 21  2  0
  6 22  2  0
 22  2  1  0
  5 21  1  0
 21  9  1  0
 19 13  1  0
  1 23  1  0
  3 24  1  0
  4 25  1  0
  8 26  1  0
  8 27  1  0
 11 28  1  0
 12 29  1  0
 12 30  1  0
 14 31  1  0
 16 32  1  0
 17 33  1  0
 18 34  1  0
 22 35  1  0
M  END
$$$$
[H]Oc1c([H])c([H])c(-c2nc3c([H])c([H])c(O[H])c([H])c3c(C([H])([H])C([H])([H])[H])c2[H])c([H])c1[H]
     RDKit          3D

 35 37  0  0  0  0  0  0  0  0999 V2000
   -2.6861   -1.9586   -1.9256 C   0  0  0  0  0  0  0  0  0  0  0  0
   -1.9702   -2.2565   -0.6144 C   0  0  0  0  0  0  0  0  0  0  0  0
   -1.2172   -1.0668   -0.1566 C   0  0  0  0  0  0  0  0  0  0  0  0
    0.1663   -0.9813   -0.2884 C   0  0  0  0  0  0  0  0  0  0  0  0
    0.8978    0.1061    0.1242 C   0  0  0  0  0  0  0  0  0  0  0  0
    0.2125    1.1341    0.6849 N   0  0  0  0  0  0  0  0  0  0  0  0
   -1.1165    1.1251    0.8454 C   0  0  0  0  0  0  0  0  0  0  0  0
   -1.7488    2.2222    1.4312 C   0  0  0  0  0  0  0  0  0  0  0  0
   -3.1179    2.1848    1.5833 C   0  0  0  0  0  0  0  0  0  0  0  0
   -3.8309    1.0814    1.1609 C   0  0  0  0  0  0  0  0  0  0  0  0
   -5.2087    1.1169    1.3476 O   0  0  0  0  0  0  0  0  0  0  0  0
   -3.2135   -0.0042    0.5823 C   0  0  0  0  0  0  0  0  0  0  0  0
   -1.8493    0.0116    0.4208 C   0  0  0  0  0  0  0  0  0  0  0  0
    2.3498    0.1747   -0.0239 C   0  0  0  0  0  0  0  0  0  0  0  0
    3.0743   -0.8400   -0.5860 C   0  0  0  0  0  0  0  0  0  0  0  0
    4.4585   -0.7060   -0.6951 C   0  0  0  0  0  0  0  0  0  0  0  0
    5.1142    0.4273   -0.2491 C   0  0  0  0  0  0  0  0  0  0  0  0
    6.4817    0.5498   -0.3617 O   0  0  0  0  0  0  0  0  0  0  0  0
    4.3630    1.4384    0.3146 C   0  0  0  0  0  0  0  0  0  0  0  0
    3.0098    1.3132    0.4241 C   0  0  0  0  0  0  0  0  0  0  0  0
   -2.4262   -0.9594   -2.3270 H   0  0  0  0  0  0  0  0  0  0  0  0
   -2.3213   -2.6960   -2.6958 H   0  0  0  0  0  0  0  0  0  0  0  0
   -3.7801   -2.0617   -1.8328 H   0  0  0  0  0  0  0  0  0  0  0  0
   -2.7351   -2.5935    0.1091 H   0  0  0  0  0  0  0  0  0  0  0  0
   -1.2801   -3.1244   -0.7458 H   0  0  0  0  0  0  0  0  0  0  0  0
    0.6326   -1.8402   -0.7437 H   0  0  0  0  0  0  0  0  0  0  0  0
   -1.1511    3.0696    1.7497 H   0  0  0  0  0  0  0  0  0  0  0  0
   -3.5826    3.0552    2.0433 H   0  0  0  0  0  0  0  0  0  0  0  0
   -5.7601    0.3262    1.0503 H   0  0  0  0  0  0  0  0  0  0  0  0
   -3.7725   -0.8740    0.2490 H   0  0  0  0  0  0  0  0  0  0  0  0
    2.6234   -1.7399   -0.9489 H   0  0  0  0  0  0  0  0  0  0  0  0
    5.0601   -1.4903   -1.1350 H   0  0  0  0  0  0  0  0  0  0  0  0
    6.9435    1.3833   -0.0311 H   0  0  0  0  0  0  0  0  0  0  0  0
    4.9105    2.3250    0.6595 H   0  0  0  0  0  0  0  0  0  0  0  0
    2.4702    2.1478    0.8794 H   0  0  0  0  0  0  0  0  0  0  0  0
  1  2  1  0
  2  3  1  0
  3  4  2  0
  4  5  1  0
  5  6  2  0
  6  7  1  0
  7  8  2  0
  8  9  1  0
  9 10  2  0
 10 11  1  0
 10 12  1  0
 12 13  2  0
  5 14  1  0
 14 15  2  0
 15 16  1  0
 16 17  2  0
 17 18  1  0
 17 19  1  0
 19 20  2  0
 13  3  1  0
 20 14  1  0
 13  7  1  0
  1 21  1  0
  1 22  1  0
  1 23  1  0
  2 24  1  0
  2 25  1  0
  4 26  1  0
  8 27  1  0
  9 28  1  0
 11 29  1  0
 12 30  1  0
 15 31  1  0
 16 32  1  0
 18 33  1  0
 19 34  1  0
 20 35  1  0
M  END
$$$$
[H]O[C@]1([H])C([H])([H])N(C([H])([H])[H])C([H])([H])C([H])([H])[C@@]1([H])N1C(=O)S/C(=C(/[H])c2c([H])c([H])c3c(c([H])nn3C([H])([H])c3c([H])c([H])c(Cl)c([H])c3C(F)(F)F)c2[H])C1=O
     RDKit          3D

 59 63  0  0  0  0  0  0  0  0999 V2000
    8.6143    1.0802   -0.6556 C   0  0  0  0  0  0  0  0  0  0  0  0
    7.1822    0.9552   -0.5698 N   0  0  0  0  0  0  0  0  0  0  0  0
    6.5770    1.4804    0.5729 C   0  0  0  0  0  0  0  0  0  0  0  0
    5.7898    0.5529    1.4267 C   0  0  0  0  0  0  0  0  0  0  0  0
    5.4017   -0.7352    0.8388 C   0  0  2  0  0  0  0  0  0  0  0  0
    6.1422   -1.2055   -0.3597 C   0  0  2  0  0  0  0  0  0  0  0  0
    7.3021   -1.8948    0.0935 O   0  0  0  0  0  0  0  0  0  0  0  0
    6.6108   -0.1282   -1.2416 C   0  0  0  0  0  0  0  0  0  0  0  0
    3.9258   -0.8700    0.6935 N   0  0  0  0  0  0  0  0  0  0  0  0
    3.2156   -1.8739    1.3929 C   0  0  0  0  0  0  0  0  0  0  0  0
    3.5074   -2.5973    2.3633 O   0  0  0  0  0  0  0  0  0  0  0  0
    1.5997   -1.9867    0.5809 S   0  0  0  0  0  0  0  0  0  0  0  0
    1.7052   -0.3040   -0.0849 C   0  0  0  0  0  0  0  0  0  0  0  0
    0.6965    0.4373   -0.4477 C   0  0  0  0  0  0  0  0  0  0  0  0
   -0.6992    0.0239   -0.3722 C   0  0  0  0  0  0  0  0  0  0  0  0
   -1.5400    0.3206   -1.4274 C   0  0  0  0  0  0  0  0  0  0  0  0
   -2.8556   -0.0486   -1.3651 C   0  0  0  0  0  0  0  0  0  0  0  0
   -3.4393   -0.7165   -0.2996 C   0  0  0  0  0  0  0  0  0  0  0  0
   -4.6406   -1.1870   -0.0438 N   0  0  0  0  0  0  0  0  0  0  0  0
   -5.8717   -1.0776   -0.7610 C   0  0  0  0  0  0  0  0  0  0  0  0
   -6.9263   -0.2239   -0.2545 C   0  0  0  0  0  0  0  0  0  0  0  0
   -7.8920   -0.8607    0.5902 C   0  0  0  0  0  0  0  0  0  0  0  0
   -8.9355   -0.2146    1.1664 C   0  0  0  0  0  0  0  0  0  0  0  0
   -9.1166    1.1251    0.9564 C   0  0  0  0  0  0  0  0  0  0  0  0
  -10.4580    2.0084    1.6842 Cl  0  0  0  0  0  0  0  0  0  0  0  0
   -8.2085    1.7556    0.1536 C   0  0  0  0  0  0  0  0  0  0  0  0
   -7.1137    1.0962   -0.4558 C   0  0  0  0  0  0  0  0  0  0  0  0
   -6.2082    1.8960   -1.2952 C   0  0  0  0  0  0  0  0  0  0  0  0
   -6.0049    1.4268   -2.5573 F   0  0  0  0  0  0  0  0  0  0  0  0
   -5.1396    2.4497   -0.6458 F   0  0  0  0  0  0  0  0  0  0  0  0
   -6.9728    3.0996   -1.6010 F   0  0  0  0  0  0  0  0  0  0  0  0
   -4.5643   -1.7823    1.1590 N   0  0  0  0  0  0  0  0  0  0  0  0
   -3.3366   -1.6876    1.6573 C   0  0  0  0  0  0  0  0  0  0  0  0
   -2.5604   -1.0021    0.7488 C   0  0  0  0  0  0  0  0  0  0  0  0
   -1.2263   -0.6376    0.7078 C   0  0  0  0  0  0  0  0  0  0  0  0
    3.1344   -0.0287   -0.0949 C   0  0  0  0  0  0  0  0  0  0  0  0
    3.5734    0.9500   -0.8097 O   0  0  0  0  0  0  0  0  0  0  0  0
    8.9767    1.3028   -1.6779 H   0  0  0  0  0  0  0  0  0  0  0  0
    8.9056    1.9564   -0.0135 H   0  0  0  0  0  0  0  0  0  0  0  0
    9.1525    0.2050   -0.2348 H   0  0  0  0  0  0  0  0  0  0  0  0
    5.9069    2.3337    0.2666 H   0  0  0  0  0  0  0  0  0  0  0  0
    7.3874    2.0051    1.1665 H   0  0  0  0  0  0  0  0  0  0  0  0
    6.3632    0.4254    2.3907 H   0  0  0  0  0  0  0  0  0  0  0  0
    4.8394    1.0618    1.7782 H   0  0  0  0  0  0  0  0  0  0  0  0
    5.6643   -1.5350    1.6181 H   0  0  0  0  0  0  0  0  0  0  0  0
    5.5261   -1.9831   -0.8803 H   0  0  0  0  0  0  0  0  0  0  0  0
    7.5633   -1.5327    0.9798 H   0  0  0  0  0  0  0  0  0  0  0  0
    7.4831   -0.5981   -1.8404 H   0  0  0  0  0  0  0  0  0  0  0  0
    5.9204    0.1279   -2.0962 H   0  0  0  0  0  0  0  0  0  0  0  0
    0.9360    1.4349   -0.8321 H   0  0  0  0  0  0  0  0  0  0  0  0
   -1.1651    0.8500   -2.3171 H   0  0  0  0  0  0  0  0  0  0  0  0
   -3.4906    0.1867   -2.2146 H   0  0  0  0  0  0  0  0  0  0  0  0
   -6.2665   -2.1470   -0.7978 H   0  0  0  0  0  0  0  0  0  0  0  0
   -5.6598   -0.9034   -1.8588 H   0  0  0  0  0  0  0  0  0  0  0  0
   -7.7622   -1.9337    0.7707 H   0  0  0  0  0  0  0  0  0  0  0  0
   -9.6522   -0.7163    1.8002 H   0  0  0  0  0  0  0  0  0  0  0  0
   -8.3223    2.8256   -0.0307 H   0  0  0  0  0  0  0  0  0  0  0  0
   -2.9754   -2.0724    2.6106 H   0  0  0  0  0  0  0  0  0  0  0  0
   -0.5988   -0.8890    1.5814 H   0  0  0  0  0  0  0  0  0  0  0  0
  1  2  1  0
  2  3  1  0
  3  4  1  0
  4  5  1  0
  5  6  1  0
  6  7  1  0
  6  8  1  0
  5  9  1  0
  9 10  1  0
 10 11  2  0
 10 12  1  0
 12 13  1  0
 13 14  2  0
 14 15  1  0
 15 16  2  0
 16 17  1  0
 17 18  2  0
 18 19  1  0
 19 20  1  0
 20 21  1  0
 21 22  2  0
 22 23  1  0
 23 24  2  0
 24 25  1  0
 24 26  1  0
 26 27  2  0
 27 28  1  0
 28 29  1  0
 28 30  1  0
 28 31  1  0
 19 32  1  0
 32 33  2  0
 33 34  1  0
 34 35  2  0
 13 36  1  0
 36 37  2  0
  8  2  1  0
 36  9  1  0
 35 15  1  0
 34 18  1  0
 27 21  1  0
  1 38  1  0
  1 39  1  0
  1 40  1  0
  3 41  1  0
  3 42  1  0
  4 43  1  0
  4 44  1  0
  5 45  1  1
  6 46  1  6
  7 47  1  0
  8 48  1  0
  8 49  1  0
 14 50  1  0
 16 51  1  0
 17 52  1  0
 20 53  1  0
 20 54  1  0
 22 55  1  0
 23 56  1  0
 26 57  1  0
 33 58  1  0
 35 59  1  0
M  END
$$$$
[H]/C(=C1/SC(=O)N(C([H])([H])C([H])([H])N2C([H])([H])C([H])([H])OC([H])([H])C2([H])[H])C1=O)c1c([H])c([H])c2c(c([H])nn2C([H])([H])c2c([H])c([H])c(OC([H])([H])[H])c([H])c2C(F)(F)F)c1[H]
     RDKit          3D

 63 67  0  0  0  0  0  0  0  0999 V2000
   10.7534    0.6267    0.3599 C   0  0  0  0  0  0  0  0  0  0  0  0
    9.6206    0.5487    1.1953 O   0  0  0  0  0  0  0  0  0  0  0  0
    8.4038    0.0985    0.7067 C   0  0  0  0  0  0  0  0  0  0  0  0
    8.3352   -0.2732   -0.6210 C   0  0  0  0  0  0  0  0  0  0  0  0
    7.1819   -0.7219   -1.1591 C   0  0  0  0  0  0  0  0  0  0  0  0
    5.9917   -0.8248   -0.3628 C   0  0  0  0  0  0  0  0  0  0  0  0
    4.8793   -1.3623   -1.1182 C   0  0  0  0  0  0  0  0  0  0  0  0
    3.9260   -0.5130   -1.7666 N   0  0  0  0  0  0  0  0  0  0  0  0
    4.2743    0.2914   -2.8004 N   0  0  0  0  0  0  0  0  0  0  0  0
    3.2428    1.0026   -3.1804 C   0  0  0  0  0  0  0  0  0  0  0  0
    2.1796    0.6570   -2.3766 C   0  0  0  0  0  0  0  0  0  0  0  0
    0.8577    1.0616   -2.3711 C   0  0  0  0  0  0  0  0  0  0  0  0
   -0.0742    0.5197   -1.4796 C   0  0  0  0  0  0  0  0  0  0  0  0
   -1.4602    0.9313   -1.5350 C   0  0  0  0  0  0  0  0  0  0  0  0
   -2.2703    1.1115   -0.5421 C   0  0  0  0  0  0  0  0  0  0  0  0
   -1.9093    0.9068    1.1812 S   0  0  0  0  0  0  0  0  0  0  0  0
   -3.6383    1.0338    1.7381 C   0  0  0  0  0  0  0  0  0  0  0  0
   -3.9647    0.7710    2.9340 O   0  0  0  0  0  0  0  0  0  0  0  0
   -4.3587    1.4430    0.6191 N   0  0  0  0  0  0  0  0  0  0  0  0
   -5.8174    1.7747    0.6823 C   0  0  0  0  0  0  0  0  0  0  0  0
   -6.6676    0.6113    0.3345 C   0  0  0  0  0  0  0  0  0  0  0  0
   -6.6188   -0.5294    1.1798 N   0  0  0  0  0  0  0  0  0  0  0  0
   -7.2555   -1.6405    0.5438 C   0  0  0  0  0  0  0  0  0  0  0  0
   -8.7188   -1.7708    0.7253 C   0  0  0  0  0  0  0  0  0  0  0  0
   -9.1460   -1.6043    2.0471 O   0  0  0  0  0  0  0  0  0  0  0  0
   -8.7842   -0.2861    2.3745 C   0  0  0  0  0  0  0  0  0  0  0  0
   -7.2913   -0.2656    2.4490 C   0  0  0  0  0  0  0  0  0  0  0  0
   -3.6552    1.4953   -0.6075 C   0  0  0  0  0  0  0  0  0  0  0  0
   -4.2037    1.8619   -1.7250 O   0  0  0  0  0  0  0  0  0  0  0  0
    0.4263   -0.4242   -0.6297 C   0  0  0  0  0  0  0  0  0  0  0  0
    1.7347   -0.8392   -0.6161 C   0  0  0  0  0  0  0  0  0  0  0  0
    2.6540   -0.2952   -1.5070 C   0  0  0  0  0  0  0  0  0  0  0  0
    6.0372   -0.4620    0.9462 C   0  0  0  0  0  0  0  0  0  0  0  0
    7.2688   -0.0007    1.4574 C   0  0  0  0  0  0  0  0  0  0  0  0
    4.8841   -0.4667    1.8773 C   0  0  0  0  0  0  0  0  0  0  0  0
    3.9371    0.4654    1.6610 F   0  0  0  0  0  0  0  0  0  0  0  0
    4.3282   -1.7661    1.9457 F   0  0  0  0  0  0  0  0  0  0  0  0
    5.3645   -0.2630    3.1629 F   0  0  0  0  0  0  0  0  0  0  0  0
   11.5957    1.1028    0.8886 H   0  0  0  0  0  0  0  0  0  0  0  0
   11.1036   -0.3726    0.0107 H   0  0  0  0  0  0  0  0  0  0  0  0
   10.5438    1.2633   -0.5276 H   0  0  0  0  0  0  0  0  0  0  0  0
    9.2348   -0.2026   -1.2563 H   0  0  0  0  0  0  0  0  0  0  0  0
    7.1547   -1.0093   -2.2130 H   0  0  0  0  0  0  0  0  0  0  0  0
    4.2747   -2.1055   -0.4880 H   0  0  0  0  0  0  0  0  0  0  0  0
    5.2556   -2.0597   -1.9312 H   0  0  0  0  0  0  0  0  0  0  0  0
    3.1765    1.7455   -3.9800 H   0  0  0  0  0  0  0  0  0  0  0  0
    0.5010    1.8084   -3.0551 H   0  0  0  0  0  0  0  0  0  0  0  0
   -1.8479    1.1043   -2.5578 H   0  0  0  0  0  0  0  0  0  0  0  0
   -6.0593    2.1268    1.6948 H   0  0  0  0  0  0  0  0  0  0  0  0
   -5.9862    2.5887   -0.0173 H   0  0  0  0  0  0  0  0  0  0  0  0
   -7.7355    0.9925    0.3493 H   0  0  0  0  0  0  0  0  0  0  0  0
   -6.5428    0.2788   -0.7274 H   0  0  0  0  0  0  0  0  0  0  0  0
   -7.0649   -1.5357   -0.5626 H   0  0  0  0  0  0  0  0  0  0  0  0
   -6.7011   -2.5609    0.8283 H   0  0  0  0  0  0  0  0  0  0  0  0
   -9.2572   -1.0267    0.1040 H   0  0  0  0  0  0  0  0  0  0  0  0
   -9.0125   -2.7999    0.3667 H   0  0  0  0  0  0  0  0  0  0  0  0
   -9.1854    0.3683    1.5828 H   0  0  0  0  0  0  0  0  0  0  0  0
   -9.1736   -0.0161    3.3690 H   0  0  0  0  0  0  0  0  0  0  0  0
   -6.9655   -1.0766    3.1491 H   0  0  0  0  0  0  0  0  0  0  0  0
   -6.8900    0.6830    2.8642 H   0  0  0  0  0  0  0  0  0  0  0  0
   -0.2687   -0.8825    0.0822 H   0  0  0  0  0  0  0  0  0  0  0  0
    2.1014   -1.6006    0.0774 H   0  0  0  0  0  0  0  0  0  0  0  0
    7.3018    0.2830    2.4875 H   0  0  0  0  0  0  0  0  0  0  0  0
  1  2  1  0
  2  3  1  0
  3  4  2  0
  4  5  1  0
  5  6  2  0
  6  7  1  0
  7  8  1  0
  8  9  1  0
  9 10  2  0
 10 11  1  0
 11 12  2  0
 12 13  1  0
 13 14  1  0
 14 15  2  0
 15 16  1  0
 16 17  1  0
 17 18  2  0
 17 19  1  0
 19 20  1  0
 20 21  1  0
 21 22  1  0
 22 23  1  0
 23 24  1  0
 24 25  1  0
 25 26  1  0
 26 27  1  0
 19 28  1  0
 28 29  2  0
 13 30  2  0
 30 31  1  0
 31 32  2  0
  6 33  1  0
 33 34  2  0
 33 35  1  0
 35 36  1  0
 35 37  1  0
 35 38  1  0
 34  3  1  0
 32  8  1  0
 32 11  1  0
 28 15  1  0
 27 22  1  0
  1 39  1  0
  1 40  1  0
  1 41  1  0
  4 42  1  0
  5 43  1  0
  7 44  1  0
  7 45  1  0
 10 46  1  0
 12 47  1  0
 14 48  1  0
 20 49  1  0
 20 50  1  0
 21 51  1  0
 21 52  1  0
 23 53  1  0
 23 54  1  0
 24 55  1  0
 24 56  1  0
 26 57  1  0
 26 58  1  0
 27 59  1  0
 27 60  1  0
 30 61  1  0
 31 62  1  0
 34 63  1  0
M  END
$$$$
[H]/C(=C1/SC(=O)N([C@@]2([H])C([H])([H])C([H])([H])N(C([H])([H])[H])C([H])([H])[C@@]2([H])F)C1=O)c1c([H])c([H])c2c(c([H])nn2C([H])([H])c2c([H])c([H])c(Cl)c([H])c2C(F)(F)F)c1[H]
     RDKit          3D

 58 62  0  0  0  0  0  0  0  0999 V2000
    8.5259   -0.5089   -0.1006 C   0  0  0  0  0  0  0  0  0  0  0  0
    7.8963    0.5765   -0.7939 N   0  0  0  0  0  0  0  0  0  0  0  0
    7.0528    0.1167   -1.8766 C   0  0  0  0  0  0  0  0  0  0  0  0
    5.9359   -0.7893   -1.4432 C   0  0  0  0  0  0  0  0  0  0  0  0
    5.4845   -0.6259   -0.0596 C   0  0  1  0  0  0  0  0  0  0  0  0
    5.9605    0.5755    0.7039 C   0  0  2  0  0  0  0  0  0  0  0  0
    4.9353    1.4428    1.0268 F   0  0  0  0  0  0  0  0  0  0  0  0
    7.0536    1.3578    0.0673 C   0  0  0  0  0  0  0  0  0  0  0  0
    4.0289   -0.6414    0.0373 N   0  0  0  0  0  0  0  0  0  0  0  0
    3.3555   -1.5802    0.8540 C   0  0  0  0  0  0  0  0  0  0  0  0
    3.7953   -2.6194    1.4099 O   0  0  0  0  0  0  0  0  0  0  0  0
    1.6667   -1.0206    0.9821 S   0  0  0  0  0  0  0  0  0  0  0  0
    1.7788    0.1158   -0.4327 C   0  0  0  0  0  0  0  0  0  0  0  0
    0.7244    0.6789   -1.0344 C   0  0  0  0  0  0  0  0  0  0  0  0
   -0.5994    0.3490   -0.5087 C   0  0  0  0  0  0  0  0  0  0  0  0
   -1.4640    1.3735   -0.2003 C   0  0  0  0  0  0  0  0  0  0  0  0
   -2.7056    1.1300    0.3213 C   0  0  0  0  0  0  0  0  0  0  0  0
   -3.1632   -0.1336    0.5659 C   0  0  0  0  0  0  0  0  0  0  0  0
   -4.2982   -0.5747    1.0716 N   0  0  0  0  0  0  0  0  0  0  0  0
   -5.5523   -0.0303    1.5342 C   0  0  0  0  0  0  0  0  0  0  0  0
   -6.6535   -0.0401    0.5911 C   0  0  0  0  0  0  0  0  0  0  0  0
   -7.0862   -1.3274    0.1816 C   0  0  0  0  0  0  0  0  0  0  0  0
   -8.0497   -1.5098   -0.7716 C   0  0  0  0  0  0  0  0  0  0  0  0
   -8.6403   -0.4284   -1.3734 C   0  0  0  0  0  0  0  0  0  0  0  0
   -9.8634   -0.6422   -2.5880 Cl  0  0  0  0  0  0  0  0  0  0  0  0
   -8.2343    0.8071   -0.9865 C   0  0  0  0  0  0  0  0  0  0  0  0
   -7.2392    1.0080    0.0004 C   0  0  0  0  0  0  0  0  0  0  0  0
   -6.9678    2.3992    0.3713 C   0  0  0  0  0  0  0  0  0  0  0  0
   -7.8698    3.2598   -0.3282 F   0  0  0  0  0  0  0  0  0  0  0  0
   -7.2256    2.6684    1.6974 F   0  0  0  0  0  0  0  0  0  0  0  0
   -5.7578    2.8908   -0.0611 F   0  0  0  0  0  0  0  0  0  0  0  0
   -4.1784   -1.9469    1.0981 N   0  0  0  0  0  0  0  0  0  0  0  0
   -2.9903   -2.3111    0.6149 C   0  0  0  0  0  0  0  0  0  0  0  0
   -2.2943   -1.1852    0.2554 C   0  0  0  0  0  0  0  0  0  0  0  0
   -1.0548   -0.9243   -0.2661 C   0  0  0  0  0  0  0  0  0  0  0  0
    3.1961    0.2625   -0.6523 C   0  0  0  0  0  0  0  0  0  0  0  0
    3.6035    1.2003   -1.4583 O   0  0  0  0  0  0  0  0  0  0  0  0
    9.6069   -0.2640   -0.0177 H   0  0  0  0  0  0  0  0  0  0  0  0
    8.1335   -0.5233    0.9475 H   0  0  0  0  0  0  0  0  0  0  0  0
    8.4171   -1.4934   -0.5620 H   0  0  0  0  0  0  0  0  0  0  0  0
    7.7010   -0.3881   -2.6387 H   0  0  0  0  0  0  0  0  0  0  0  0
    6.6925    1.0399   -2.4028 H   0  0  0  0  0  0  0  0  0  0  0  0
    6.3193   -1.8414   -1.6353 H   0  0  0  0  0  0  0  0  0  0  0  0
    5.1124   -0.6800   -2.1816 H   0  0  0  0  0  0  0  0  0  0  0  0
    5.8717   -1.5040    0.5494 H   0  0  0  0  0  0  0  0  0  0  0  0
    6.3646    0.2611    1.7199 H   0  0  0  0  0  0  0  0  0  0  0  0
    7.6511    1.8863    0.8604 H   0  0  0  0  0  0  0  0  0  0  0  0
    6.5758    2.1644   -0.5381 H   0  0  0  0  0  0  0  0  0  0  0  0
    0.8947    1.3385   -1.8621 H   0  0  0  0  0  0  0  0  0  0  0  0
   -1.1388    2.3948   -0.3839 H   0  0  0  0  0  0  0  0  0  0  0  0
   -3.3390    1.9455    0.5721 H   0  0  0  0  0  0  0  0  0  0  0  0
   -5.3162    1.0110    1.8645 H   0  0  0  0  0  0  0  0  0  0  0  0
   -5.8980   -0.5429    2.4697 H   0  0  0  0  0  0  0  0  0  0  0  0
   -6.6600   -2.2210    0.6264 H   0  0  0  0  0  0  0  0  0  0  0  0
   -8.3467   -2.5118   -1.0539 H   0  0  0  0  0  0  0  0  0  0  0  0
   -8.6829    1.6717   -1.4470 H   0  0  0  0  0  0  0  0  0  0  0  0
   -2.6440   -3.3448    0.5241 H   0  0  0  0  0  0  0  0  0  0  0  0
   -0.4210   -1.7717   -0.5011 H   0  0  0  0  0  0  0  0  0  0  0  0
  1  2  1  0
  2  3  1  0
  3  4  1  0
  4  5  1  0
  5  6  1  0
  6  7  1  0
  6  8  1  0
  5  9  1  0
  9 10  1  0
 10 11  2  0
 10 12  1  0
 12 13  1  0
 13 14  2  0
 14 15  1  0
 15 16  2  0
 16 17  1  0
 17 18  2  0
 18 19  1  0
 19 20  1  0
 20 21  1  0
 21 22  2  0
 22 23  1  0
 23 24  2  0
 24 25  1  0
 24 26  1  0
 26 27  2  0
 27 28  1  0
 28 29  1  0
 28 30  1  0
 28 31  1  0
 19 32  1  0
 32 33  2  0
 33 34  1  0
 34 35  2  0
 13 36  1  0
 36 37  2  0
  8  2  1  0
 36  9  1  0
 35 15  1  0
 34 18  1  0
 27 21  1  0
  1 38  1  0
  1 39  1  0
  1 40  1  0
  3 41  1  0
  3 42  1  0
  4 43  1  0
  4 44  1  0
  5 45  1  1
  6 46  1  1
  8 47  1  0
  8 48  1  0
 14 49  1  0
 16 50  1  0
 17 51  1  0
 20 52  1  0
 20 53  1  0
 22 54  1  0
 23 55  1  0
 26 56  1  0
 33 57  1  0
 35 58  1  0
M  END
$$$$
[H]OC(=O)C([H])([H])N1C(=O)S/C(=C(/[H])c2c([H])c([H])c3c(c([H])nn3C([H])([H])c3c([H])c([H])c(Cl)c([H])c3C(F)(F)F)c2[H])C1=O
     RDKit          3D

 46 49  0  0  0  0  0  0  0  0999 V2000
    9.2256   -0.1284   -1.5693 O   0  0  0  0  0  0  0  0  0  0  0  0
    7.8712   -0.2754   -1.2372 C   0  0  0  0  0  0  0  0  0  0  0  0
    7.0209   -0.4053   -2.1344 O   0  0  0  0  0  0  0  0  0  0  0  0
    7.4955   -0.2704    0.2170 C   0  0  0  0  0  0  0  0  0  0  0  0
    6.0161   -0.4479    0.2684 N   0  0  0  0  0  0  0  0  0  0  0  0
    5.4677   -1.7418    0.3299 C   0  0  0  0  0  0  0  0  0  0  0  0
    6.0364   -2.8533    0.4991 O   0  0  0  0  0  0  0  0  0  0  0  0
    3.7077   -1.5396    0.1133 S   0  0  0  0  0  0  0  0  0  0  0  0
    3.6990    0.2415    0.3113 C   0  0  0  0  0  0  0  0  0  0  0  0
    2.6558    1.0588    0.4647 C   0  0  0  0  0  0  0  0  0  0  0  0
    1.3232    0.5409    0.4849 C   0  0  0  0  0  0  0  0  0  0  0  0
    0.3737    0.9501    1.4007 C   0  0  0  0  0  0  0  0  0  0  0  0
   -0.9149    0.4703    1.3891 C   0  0  0  0  0  0  0  0  0  0  0  0
   -1.2991   -0.4542    0.4387 C   0  0  0  0  0  0  0  0  0  0  0  0
   -2.5035   -1.0931    0.2102 N   0  0  0  0  0  0  0  0  0  0  0  0
   -3.7054   -0.8888    0.9726 C   0  0  0  0  0  0  0  0  0  0  0  0
   -4.6647    0.0977    0.5345 C   0  0  0  0  0  0  0  0  0  0  0  0
   -4.5378    1.3780    1.0965 C   0  0  0  0  0  0  0  0  0  0  0  0
   -5.3453    2.4419    0.7793 C   0  0  0  0  0  0  0  0  0  0  0  0
   -6.3413    2.2659   -0.1384 C   0  0  0  0  0  0  0  0  0  0  0  0
   -7.4145    3.5740   -0.5993 Cl  0  0  0  0  0  0  0  0  0  0  0  0
   -6.4892    1.0444   -0.6957 C   0  0  0  0  0  0  0  0  0  0  0  0
   -5.6676   -0.0630   -0.3811 C   0  0  0  0  0  0  0  0  0  0  0  0
   -5.9161   -1.3517   -1.0209 C   0  0  0  0  0  0  0  0  0  0  0  0
   -6.0933   -2.3915   -0.1040 F   0  0  0  0  0  0  0  0  0  0  0  0
   -7.2870   -1.2333   -1.4998 F   0  0  0  0  0  0  0  0  0  0  0  0
   -5.2563   -1.6605   -2.1494 F   0  0  0  0  0  0  0  0  0  0  0  0
   -2.2611   -1.8632   -0.8155 N   0  0  0  0  0  0  0  0  0  0  0  0
   -1.0286   -1.7919   -1.2810 C   0  0  0  0  0  0  0  0  0  0  0  0
   -0.3819   -0.8795   -0.4800 C   0  0  0  0  0  0  0  0  0  0  0  0
    0.9089   -0.3789   -0.4451 C   0  0  0  0  0  0  0  0  0  0  0  0
    5.1064    0.6184    0.2577 C   0  0  0  0  0  0  0  0  0  0  0  0
    5.4507    1.8674    0.2045 O   0  0  0  0  0  0  0  0  0  0  0  0
    9.8502    0.4868   -1.0364 H   0  0  0  0  0  0  0  0  0  0  0  0
    7.7561    0.7462    0.6033 H   0  0  0  0  0  0  0  0  0  0  0  0
    7.9885   -1.0474    0.7899 H   0  0  0  0  0  0  0  0  0  0  0  0
    2.8647    2.1394    0.5756 H   0  0  0  0  0  0  0  0  0  0  0  0
    0.6649    1.6886    2.1679 H   0  0  0  0  0  0  0  0  0  0  0  0
   -1.6391    0.8124    2.1489 H   0  0  0  0  0  0  0  0  0  0  0  0
   -3.3633   -0.5900    2.0288 H   0  0  0  0  0  0  0  0  0  0  0  0
   -4.1168   -1.9126    1.1653 H   0  0  0  0  0  0  0  0  0  0  0  0
   -3.7803    1.5963    1.8452 H   0  0  0  0  0  0  0  0  0  0  0  0
   -5.2298    3.4240    1.2245 H   0  0  0  0  0  0  0  0  0  0  0  0
   -7.2775    0.8791   -1.4344 H   0  0  0  0  0  0  0  0  0  0  0  0
   -0.5451   -2.3033   -2.1099 H   0  0  0  0  0  0  0  0  0  0  0  0
    1.5765   -0.7573   -1.2208 H   0  0  0  0  0  0  0  0  0  0  0  0
  1  2  1  0
  2  3  2  0
  2  4  1  0
  4  5  1  0
  5  6  1  0
  6  7  2  0
  6  8  1  0
  8  9  1  0
  9 10  2  0
 10 11  1  0
 11 12  2  0
 12 13  1  0
 13 14  2  0
 14 15  1  0
 15 16  1  0
 16 17  1  0
 17 18  2  0
 18 19  1  0
 19 20  2  0
 20 21  1  0
 20 22  1  0
 22 23  2  0
 23 24  1  0
 24 25  1  0
 24 26  1  0
 24 27  1  0
 15 28  1  0
 28 29  2  0
 29 30  1  0
 30 31  2  0
  9 32  1  0
 32 33  2  0
 32  5  1  0
 31 11  1  0
 30 14  1  0
 23 17  1  0
  1 34  1  0
  4 35  1  0
  4 36  1  0
 10 37  1  0
 12 38  1  0
 13 39  1  0
 16 40  1  0
 16 41  1  0
 18 42  1  0
 19 43  1  0
 22 44  1  0
 29 45  1  0
 31 46  1  0
M  END
$$$$
[H]c1c([H])c([H])c(N([H])[H])c(C(=O)c2nnn(-c3c([H])c([H])c([H])c(C([H])(C([H])([H])[H])C([H])([H])[H])c3[H])c2[H])c1[H]
     RDKit          3D

 41 43  0  0  0  0  0  0  0  0999 V2000
    5.3473    1.1511    1.4305 C   0  0  0  0  0  0  0  0  0  0  0  0
    4.5075   -0.0753    1.1391 C   0  0  0  0  0  0  0  0  0  0  0  0
    5.4474   -1.2589    1.0477 C   0  0  0  0  0  0  0  0  0  0  0  0
    3.7584    0.1139   -0.1323 C   0  0  0  0  0  0  0  0  0  0  0  0
    4.4484    0.2699   -1.3065 C   0  0  0  0  0  0  0  0  0  0  0  0
    3.7812    0.4480   -2.5044 C   0  0  0  0  0  0  0  0  0  0  0  0
    2.3814    0.4652   -2.4866 C   0  0  0  0  0  0  0  0  0  0  0  0
    1.6756    0.3110   -1.3262 C   0  0  0  0  0  0  0  0  0  0  0  0
    2.3623    0.1350   -0.1458 C   0  0  0  0  0  0  0  0  0  0  0  0
    0.2318    0.3207   -1.2595 N   0  0  0  0  0  0  0  0  0  0  0  0
   -0.5337   -0.5259   -0.5734 C   0  0  0  0  0  0  0  0  0  0  0  0
   -1.8553   -0.1636   -0.7766 C   0  0  0  0  0  0  0  0  0  0  0  0
   -1.7866    0.8933   -1.5843 N   0  0  0  0  0  0  0  0  0  0  0  0
   -0.5375    1.1906   -1.8789 N   0  0  0  0  0  0  0  0  0  0  0  0
   -3.0517   -0.7995   -0.2537 C   0  0  0  0  0  0  0  0  0  0  0  0
   -2.9771   -2.0615    0.0107 O   0  0  0  0  0  0  0  0  0  0  0  0
   -4.3258   -0.1512    0.0014 C   0  0  0  0  0  0  0  0  0  0  0  0
   -4.5760    1.1861   -0.1862 C   0  0  0  0  0  0  0  0  0  0  0  0
   -5.8008    1.7969    0.0743 C   0  0  0  0  0  0  0  0  0  0  0  0
   -6.8338    1.0409    0.5469 C   0  0  0  0  0  0  0  0  0  0  0  0
   -6.6385   -0.3036    0.7535 C   0  0  0  0  0  0  0  0  0  0  0  0
   -5.3998   -0.8918    0.4839 C   0  0  0  0  0  0  0  0  0  0  0  0
   -5.1885   -2.2807    0.6951 N   0  0  0  0  0  0  0  0  0  0  0  0
    4.7933    2.0840    1.2249 H   0  0  0  0  0  0  0  0  0  0  0  0
    5.6068    1.0898    2.5254 H   0  0  0  0  0  0  0  0  0  0  0  0
    6.2451    1.1320    0.7924 H   0  0  0  0  0  0  0  0  0  0  0  0
    3.8044   -0.2064    1.9994 H   0  0  0  0  0  0  0  0  0  0  0  0
    5.8530   -1.2935    0.0255 H   0  0  0  0  0  0  0  0  0  0  0  0
    4.9397   -2.2127    1.2747 H   0  0  0  0  0  0  0  0  0  0  0  0
    6.2826   -1.0904    1.7603 H   0  0  0  0  0  0  0  0  0  0  0  0
    5.5326    0.2491   -1.2562 H   0  0  0  0  0  0  0  0  0  0  0  0
    4.3087    0.5706   -3.4271 H   0  0  0  0  0  0  0  0  0  0  0  0
    1.8263    0.6024   -3.4062 H   0  0  0  0  0  0  0  0  0  0  0  0
    1.8226    0.0134    0.7707 H   0  0  0  0  0  0  0  0  0  0  0  0
   -0.2305   -1.3640    0.0481 H   0  0  0  0  0  0  0  0  0  0  0  0
   -3.8071    1.8417   -0.5491 H   0  0  0  0  0  0  0  0  0  0  0  0
   -5.9615    2.8541   -0.0851 H   0  0  0  0  0  0  0  0  0  0  0  0
   -7.8148    1.4471    0.7730 H   0  0  0  0  0  0  0  0  0  0  0  0
   -7.4353   -0.9263    1.1257 H   0  0  0  0  0  0  0  0  0  0  0  0
   -5.2773   -3.0007   -0.0497 H   0  0  0  0  0  0  0  0  0  0  0  0
   -4.9253   -2.6013    1.6664 H   0  0  0  0  0  0  0  0  0  0  0  0
  1  2  1  0
  2  3  1  0
  2  4  1  0
  4  5  2  0
  5  6  1  0
  6  7  2  0
  7  8  1  0
  8  9  2  0
  8 10  1  0
 10 11  1  0
 11 12  2  0
 12 13  1  0
 13 14  2  0
 12 15  1  0
 15 16  2  0
 15 17  1  0
 17 18  2  0
 18 19  1  0
 19 20  2  0
 20 21  1  0
 21 22  2  0
 22 23  1  0
  9  4  1  0
 14 10  1  0
 22 17  1  0
  1 24  1  0
  1 25  1  0
  1 26  1  0
  2 27  1  0
  3 28  1  0
  3 29  1  0
  3 30  1  0
  5 31  1  0
  6 32  1  0
  7 33  1  0
  9 34  1  0
 11 35  1  0
 18 36  1  0
 19 37  1  0
 20 38  1  0
 21 39  1  0
 23 40  1  0
 23 41  1  0
M  END
$$$$
[H]/C(=C1/SC(=O)N(C([H])([H])C(=O)N([H])S(=O)(=O)C([H])([H])[H])C1=O)c1c([H])c([H])c2c(c([H])nn2C([H])([H])c2c([H])c([H])c(Cl)c([H])c2C(F)(F)F)c1[H]
     RDKit          3D

 53 56  0  0  0  0  0  0  0  0999 V2000
    8.4441    0.8584    1.9313 C   0  0  0  0  0  0  0  0  0  0  0  0
    7.3862   -0.5874    1.8755 S   0  0  0  0  0  0  0  0  0  0  0  0
    8.3005   -1.7843    1.9189 O   0  0  0  0  0  0  0  0  0  0  0  0
    6.5380   -0.5363    3.1042 O   0  0  0  0  0  0  0  0  0  0  0  0
    6.4002   -0.5694    0.4815 N   0  0  0  0  0  0  0  0  0  0  0  0
    6.9509   -0.5022   -0.8169 C   0  0  0  0  0  0  0  0  0  0  0  0
    8.1889   -0.4544   -0.9464 O   0  0  0  0  0  0  0  0  0  0  0  0
    6.1032   -0.4891   -2.0107 C   0  0  0  0  0  0  0  0  0  0  0  0
    4.6748   -0.5479   -1.6488 N   0  0  0  0  0  0  0  0  0  0  0  0
    4.0461   -1.8074   -1.5140 C   0  0  0  0  0  0  0  0  0  0  0  0
    4.5045   -2.9718   -1.4756 O   0  0  0  0  0  0  0  0  0  0  0  0
    2.2940   -1.4392   -1.3918 S   0  0  0  0  0  0  0  0  0  0  0  0
    2.5034    0.3074   -1.0681 C   0  0  0  0  0  0  0  0  0  0  0  0
    1.5501    1.0822   -0.6074 C   0  0  0  0  0  0  0  0  0  0  0  0
    0.1932    0.6745   -0.2878 C   0  0  0  0  0  0  0  0  0  0  0  0
   -0.5208   -0.1455   -1.1304 C   0  0  0  0  0  0  0  0  0  0  0  0
   -1.7778   -0.5591   -0.8566 C   0  0  0  0  0  0  0  0  0  0  0  0
   -2.4208   -0.1589    0.3256 C   0  0  0  0  0  0  0  0  0  0  0  0
   -3.6002   -0.4413    0.8384 N   0  0  0  0  0  0  0  0  0  0  0  0
   -4.7228   -1.1618    0.3380 C   0  0  0  0  0  0  0  0  0  0  0  0
   -5.9277   -0.4543   -0.0529 C   0  0  0  0  0  0  0  0  0  0  0  0
   -6.9427   -0.3183    0.9435 C   0  0  0  0  0  0  0  0  0  0  0  0
   -8.1215    0.3302    0.7275 C   0  0  0  0  0  0  0  0  0  0  0  0
   -8.3991    0.9006   -0.4913 C   0  0  0  0  0  0  0  0  0  0  0  0
   -9.8901    1.7433   -0.8298 Cl  0  0  0  0  0  0  0  0  0  0  0  0
   -7.4307    0.7728   -1.4478 C   0  0  0  0  0  0  0  0  0  0  0  0
   -6.1997    0.1055   -1.2519 C   0  0  0  0  0  0  0  0  0  0  0  0
   -5.2768    0.0699   -2.3942 C   0  0  0  0  0  0  0  0  0  0  0  0
   -4.8452   -1.1749   -2.7623 F   0  0  0  0  0  0  0  0  0  0  0  0
   -4.3678    1.0882   -2.4556 F   0  0  0  0  0  0  0  0  0  0  0  0
   -6.0944    0.3870   -3.5557 F   0  0  0  0  0  0  0  0  0  0  0  0
   -3.6624    0.1926    2.0268 N   0  0  0  0  0  0  0  0  0  0  0  0
   -2.5526    0.8671    2.2692 C   0  0  0  0  0  0  0  0  0  0  0  0
   -1.7246    0.6598    1.1825 C   0  0  0  0  0  0  0  0  0  0  0  0
   -0.4456    1.0621    0.8707 C   0  0  0  0  0  0  0  0  0  0  0  0
    3.8890    0.5653   -1.4214 C   0  0  0  0  0  0  0  0  0  0  0  0
    4.2954    1.7788   -1.4997 O   0  0  0  0  0  0  0  0  0  0  0  0
    7.9003    1.7502    1.5554 H   0  0  0  0  0  0  0  0  0  0  0  0
    8.7624    0.9806    2.9913 H   0  0  0  0  0  0  0  0  0  0  0  0
    9.3558    0.6491    1.3488 H   0  0  0  0  0  0  0  0  0  0  0  0
    5.3668   -0.6100    0.5925 H   0  0  0  0  0  0  0  0  0  0  0  0
    6.3675   -1.3363   -2.6741 H   0  0  0  0  0  0  0  0  0  0  0  0
    6.2399    0.4632   -2.5653 H   0  0  0  0  0  0  0  0  0  0  0  0
    1.8404    2.1387   -0.4605 H   0  0  0  0  0  0  0  0  0  0  0  0
   -0.0809   -0.4759   -2.0591 H   0  0  0  0  0  0  0  0  0  0  0  0
   -2.2987   -1.2100   -1.5358 H   0  0  0  0  0  0  0  0  0  0  0  0
   -4.3955   -1.9116   -0.4526 H   0  0  0  0  0  0  0  0  0  0  0  0
   -4.9948   -1.8767    1.1842 H   0  0  0  0  0  0  0  0  0  0  0  0
   -6.7220   -0.7645    1.8959 H   0  0  0  0  0  0  0  0  0  0  0  0
   -8.8954    0.4324    1.4911 H   0  0  0  0  0  0  0  0  0  0  0  0
   -7.6401    1.2293   -2.4247 H   0  0  0  0  0  0  0  0  0  0  0  0
   -2.2513    1.4814    3.1072 H   0  0  0  0  0  0  0  0  0  0  0  0
    0.1061    1.7174    1.5599 H   0  0  0  0  0  0  0  0  0  0  0  0
  1  2  1  0
  2  3  2  0
  2  4  2  0
  2  5  1  0
  5  6  1  0
  6  7  2  0
  6  8  1  0
  8  9  1  0
  9 10  1  0
 10 11  2  0
 10 12  1  0
 12 13  1  0
 13 14  2  0
 14 15  1  0
 15 16  2  0
 16 17  1  0
 17 18  2  0
 18 19  1  0
 19 20  1  0
 20 21  1  0
 21 22  2  0
 22 23  1  0
 23 24  2  0
 24 25  1  0
 24 26  1  0
 26 27  2  0
 27 28  1  0
 28 29  1  0
 28 30  1  0
 28 31  1  0
 19 32  1  0
 32 33  2  0
 33 34  1  0
 34 35  2  0
 13 36  1  0
 36 37  2  0
 36  9  1  0
 35 15  1  0
 34 18  1  0
 27 21  1  0
  1 38  1  0
  1 39  1  0
  1 40  1  0
  5 41  1  0
  8 42  1  0
  8 43  1  0
 14 44  1  0
 16 45  1  0
 17 46  1  0
 20 47  1  0
 20 48  1  0
 22 49  1  0
 23 50  1  0
 26 51  1  0
 33 52  1  0
 35 53  1  0
M  END
$$$$
[H]Oc1c([H])c([H])c2c(c1[H])C([H])([H])[C@@]([H])(C([H])([H])C([H])([H])C([H])([H])C([H])([H])c1nnn(C([H])([H])C3([H])Oc4c([H])c([H])c([H])c([H])c4OC3([H])[H])c1[H])[C@]1([H])[C@]2([H])C([H])([H])C([H])([H])[C@]2(C([H])([H])[H])[C@@]([H])(O[H])C([H])([H])C([H])([H])[C@]21[H]
     RDKit          3D

 81 87  0  0  0  0  0  0  0  0999 V2000
   -4.3223   -2.7315   -1.3492 C   0  0  0  0  0  0  0  0  0  0  0  0
   -5.1006   -1.6926   -0.5902 C   0  0  2  0  0  0  0  0  0  0  0  0
   -5.7523   -0.6784   -1.4515 C   0  0  0  0  0  0  0  0  0  0  0  0
   -4.7034    0.3118   -1.9773 C   0  0  0  0  0  0  0  0  0  0  0  0
   -4.0778    0.9063   -0.7360 C   0  0  1  0  0  0  0  0  0  0  0  0
   -3.2993   -0.1664   -0.0260 C   0  0  2  0  0  0  0  0  0  0  0  0
   -4.2727   -1.0837    0.5623 C   0  0  2  0  0  0  0  0  0  0  0  0
   -3.8376   -2.3677    1.1685 C   0  0  0  0  0  0  0  0  0  0  0  0
   -5.1654   -3.1545    1.2186 C   0  0  0  0  0  0  0  0  0  0  0  0
   -6.1058   -2.4587    0.2698 C   0  0  2  0  0  0  0  0  0  0  0  0
   -6.7418   -3.4428   -0.5080 O   0  0  0  0  0  0  0  0  0  0  0  0
   -2.2864    0.5012    0.8502 C   0  0  2  0  0  0  0  0  0  0  0  0
   -1.8497   -0.2836    2.0357 C   0  0  0  0  0  0  0  0  0  0  0  0
   -0.7916    0.4426    2.8355 C   0  0  0  0  0  0  0  0  0  0  0  0
    0.4385    0.7682    2.0009 C   0  0  0  0  0  0  0  0  0  0  0  0
    1.0320   -0.5018    1.4815 C   0  0  0  0  0  0  0  0  0  0  0  0
    2.2475   -0.2187    0.6588 C   0  0  0  0  0  0  0  0  0  0  0  0
    3.0070   -1.1917    0.0464 C   0  0  0  0  0  0  0  0  0  0  0  0
    4.0262   -0.6099   -0.6138 N   0  0  0  0  0  0  0  0  0  0  0  0
    5.0562   -1.3032   -1.3907 C   0  0  0  0  0  0  0  0  0  0  0  0
    6.1880   -1.6009   -0.4000 C   0  0  0  0  0  0  0  0  0  0  0  0
    7.3223   -2.3162   -1.0587 C   0  0  0  0  0  0  0  0  0  0  0  0
    8.5658   -1.7197   -0.8373 O   0  0  0  0  0  0  0  0  0  0  0  0
    8.7565   -0.3680   -0.6189 C   0  0  0  0  0  0  0  0  0  0  0  0
    9.9205    0.3130   -0.8943 C   0  0  0  0  0  0  0  0  0  0  0  0
   10.0324    1.6767   -0.6449 C   0  0  0  0  0  0  0  0  0  0  0  0
    8.9558    2.3576   -0.1116 C   0  0  0  0  0  0  0  0  0  0  0  0
    7.7811    1.6704    0.1664 C   0  0  0  0  0  0  0  0  0  0  0  0
    7.6845    0.3259   -0.0844 C   0  0  0  0  0  0  0  0  0  0  0  0
    6.5308   -0.3703    0.1841 O   0  0  0  0  0  0  0  0  0  0  0  0
    3.8961    0.6903   -0.4119 N   0  0  0  0  0  0  0  0  0  0  0  0
    2.8332    0.9431    0.3502 N   0  0  0  0  0  0  0  0  0  0  0  0
   -2.7634    1.9010    1.2807 C   0  0  0  0  0  0  0  0  0  0  0  0
   -2.6414    2.7026    0.0006 C   0  0  0  0  0  0  0  0  0  0  0  0
   -1.9067    3.8513   -0.0927 C   0  0  0  0  0  0  0  0  0  0  0  0
   -1.8620    4.4799   -1.3168 C   0  0  0  0  0  0  0  0  0  0  0  0
   -1.1197    5.6467   -1.4246 O   0  0  0  0  0  0  0  0  0  0  0  0
   -2.5541    3.9330   -2.3967 C   0  0  0  0  0  0  0  0  0  0  0  0
   -3.2889    2.7645   -2.2599 C   0  0  0  0  0  0  0  0  0  0  0  0
   -3.3340    2.1370   -1.0377 C   0  0  0  0  0  0  0  0  0  0  0  0
   -3.2572   -2.5431   -1.4549 H   0  0  0  0  0  0  0  0  0  0  0  0
   -4.4224   -3.7589   -0.9076 H   0  0  0  0  0  0  0  0  0  0  0  0
   -4.8311   -2.8231   -2.3537 H   0  0  0  0  0  0  0  0  0  0  0  0
   -6.5181   -0.1321   -0.8892 H   0  0  0  0  0  0  0  0  0  0  0  0
   -6.1508   -1.2016   -2.3410 H   0  0  0  0  0  0  0  0  0  0  0  0
   -5.2660    1.0305   -2.5839 H   0  0  0  0  0  0  0  0  0  0  0  0
   -3.9413   -0.2060   -2.5551 H   0  0  0  0  0  0  0  0  0  0  0  0
   -4.9537    1.2293   -0.0956 H   0  0  0  0  0  0  0  0  0  0  0  0
   -2.7125   -0.6785   -0.8591 H   0  0  0  0  0  0  0  0  0  0  0  0
   -4.9752   -0.5805    1.2232 H   0  0  0  0  0  0  0  0  0  0  0  0
   -3.5258   -2.3433    2.2205 H   0  0  0  0  0  0  0  0  0  0  0  0
   -3.1741   -2.9791    0.5342 H   0  0  0  0  0  0  0  0  0  0  0  0
   -5.6333   -3.0998    2.2218 H   0  0  0  0  0  0  0  0  0  0  0  0
   -5.0203   -4.2085    0.9870 H   0  0  0  0  0  0  0  0  0  0  0  0
   -6.8078   -1.7805    0.7546 H   0  0  0  0  0  0  0  0  0  0  0  0
   -6.8371   -3.1579   -1.4493 H   0  0  0  0  0  0  0  0  0  0  0  0
   -1.3881    0.6963    0.2316 H   0  0  0  0  0  0  0  0  0  0  0  0
   -2.7239   -0.3188    2.7566 H   0  0  0  0  0  0  0  0  0  0  0  0
   -1.4535   -1.2559    1.7665 H   0  0  0  0  0  0  0  0  0  0  0  0
   -0.4491   -0.2120    3.6957 H   0  0  0  0  0  0  0  0  0  0  0  0
   -1.1387    1.3543    3.3314 H   0  0  0  0  0  0  0  0  0  0  0  0
    0.1900    1.5091    1.2241 H   0  0  0  0  0  0  0  0  0  0  0  0
    1.2235    1.2526    2.6297 H   0  0  0  0  0  0  0  0  0  0  0  0
    0.2909   -0.9592    0.7743 H   0  0  0  0  0  0  0  0  0  0  0  0
    1.2531   -1.1561    2.3360 H   0  0  0  0  0  0  0  0  0  0  0  0
    2.8316   -2.2476    0.0781 H   0  0  0  0  0  0  0  0  0  0  0  0
    5.4064   -0.6758   -2.2127 H   0  0  0  0  0  0  0  0  0  0  0  0
    4.6181   -2.2547   -1.7146 H   0  0  0  0  0  0  0  0  0  0  0  0
    5.7789   -2.2451    0.4076 H   0  0  0  0  0  0  0  0  0  0  0  0
    7.3817   -3.3816   -0.7259 H   0  0  0  0  0  0  0  0  0  0  0  0
    7.1238   -2.3614   -2.1582 H   0  0  0  0  0  0  0  0  0  0  0  0
   10.7442   -0.2315   -1.3075 H   0  0  0  0  0  0  0  0  0  0  0  0
   10.9354    2.2287   -0.8535 H   0  0  0  0  0  0  0  0  0  0  0  0
    9.0457    3.4255    0.0828 H   0  0  0  0  0  0  0  0  0  0  0  0
    6.9678    2.2415    0.5812 H   0  0  0  0  0  0  0  0  0  0  0  0
   -3.8002    1.8769    1.6333 H   0  0  0  0  0  0  0  0  0  0  0  0
   -2.0670    2.3113    2.0044 H   0  0  0  0  0  0  0  0  0  0  0  0
   -1.3853    4.2425    0.7658 H   0  0  0  0  0  0  0  0  0  0  0  0
   -1.5302    6.5448   -1.2551 H   0  0  0  0  0  0  0  0  0  0  0  0
   -2.5137    4.4319   -3.3535 H   0  0  0  0  0  0  0  0  0  0  0  0
   -3.8125    2.3546   -3.0879 H   0  0  0  0  0  0  0  0  0  0  0  0
  2  1  1  6
  2  3  1  0
  3  4  1  0
  4  5  1  0
  5  6  1  0
  6  7  1  0
  7  8  1  0
  8  9  1  0
  9 10  1  0
 10 11  1  0
  6 12  1  0
 12 13  1  0
 13 14  1  0
 14 15  1  0
 15 16  1  0
 16 17  1  0
 17 18  2  0
 18 19  1  0
 19 20  1  0
 20 21  1  0
 21 22  1  0
 22 23  1  0
 23 24  1  0
 24 25  2  0
 25 26  1  0
 26 27  2  0
 27 28  1  0
 28 29  2  0
 29 30  1  0
 19 31  1  0
 31 32  2  0
 12 33  1  0
 33 34  1  0
 34 35  2  0
 35 36  1  0
 36 37  1  0
 36 38  2  0
 38 39  1  0
 39 40  2  0
  7  2  1  0
 32 17  1  0
 40 34  1  0
 10  2  1  0
 30 21  1  0
 40  5  1  0
 29 24  1  0
  1 41  1  0
  1 42  1  0
  1 43  1  0
  3 44  1  0
  3 45  1  0
  4 46  1  0
  4 47  1  0
  5 48  1  1
  6 49  1  6
  7 50  1  1
  8 51  1  0
  8 52  1  0
  9 53  1  0
  9 54  1  0
 10 55  1  1
 11 56  1  0
 12 57  1  6
 13 58  1  0
 13 59  1  0
 14 60  1  0
 14 61  1  0
 15 62  1  0
 15 63  1  0
 16 64  1  0
 16 65  1  0
 18 66  1  0
 20 67  1  0
 20 68  1  0
 21 69  1  0
 22 70  1  0
 22 71  1  0
 25 72  1  0
 26 73  1  0
 27 74  1  0
 28 75  1  0
 33 76  1  0
 33 77  1  0
 35 78  1  0
 37 79  1  0
 38 80  1  0
 39 81  1  0
M  END
$$$$
[H]/C(=C1/SC(=O)N([C@@]2([H])C([H])([H])C([H])([H])N(C([H])([H])[H])C([H])([H])[C@]2([H])F)C1=O)c1c([H])c([H])c2c(c([H])nn2C([H])([H])c2c([H])c([H])c(Cl)c([H])c2C(F)(F)F)c1[H]
     RDKit          3D

 58 62  0  0  0  0  0  0  0  0999 V2000
    8.6690   -0.8590    0.1101 C   0  0  0  0  0  0  0  0  0  0  0  0
    7.9905    0.1627   -0.6328 N   0  0  0  0  0  0  0  0  0  0  0  0
    7.1328   -0.3370   -1.6783 C   0  0  0  0  0  0  0  0  0  0  0  0
    5.9058   -1.0272   -1.1058 C   0  0  0  0  0  0  0  0  0  0  0  0
    5.3641   -0.2529    0.0631 C   0  0  1  0  0  0  0  0  0  0  0  0
    5.8422    1.1754    0.0203 C   0  0  1  0  0  0  0  0  0  0  0  0
    5.3141    1.7947    1.1445 F   0  0  0  0  0  0  0  0  0  0  0  0
    7.3520    1.1275    0.2233 C   0  0  0  0  0  0  0  0  0  0  0  0
    3.8790   -0.2991    0.1141 N   0  0  0  0  0  0  0  0  0  0  0  0
    3.2320   -0.8884    1.2248 C   0  0  0  0  0  0  0  0  0  0  0  0
    3.7451   -1.5284    2.1832 O   0  0  0  0  0  0  0  0  0  0  0  0
    1.5003   -0.5672    1.0453 S   0  0  0  0  0  0  0  0  0  0  0  0
    1.6157    0.1436   -0.6141 C   0  0  0  0  0  0  0  0  0  0  0  0
    0.5588    0.5012   -1.3566 C   0  0  0  0  0  0  0  0  0  0  0  0
   -0.7445    0.2844   -0.7453 C   0  0  0  0  0  0  0  0  0  0  0  0
   -1.6146    1.3488   -0.6664 C   0  0  0  0  0  0  0  0  0  0  0  0
   -2.8238    1.1438   -0.0494 C   0  0  0  0  0  0  0  0  0  0  0  0
   -3.2052   -0.0768    0.4901 C   0  0  0  0  0  0  0  0  0  0  0  0
   -4.2820   -0.4881    1.1285 N   0  0  0  0  0  0  0  0  0  0  0  0
   -5.5120    0.1548    1.5263 C   0  0  0  0  0  0  0  0  0  0  0  0
   -6.6223    0.0307    0.5988 C   0  0  0  0  0  0  0  0  0  0  0  0
   -7.0384   -1.2951    0.3541 C   0  0  0  0  0  0  0  0  0  0  0  0
   -8.0116   -1.6138   -0.5593 C   0  0  0  0  0  0  0  0  0  0  0  0
   -8.6249   -0.6141   -1.2832 C   0  0  0  0  0  0  0  0  0  0  0  0
   -9.8797   -0.9437   -2.4793 Cl  0  0  0  0  0  0  0  0  0  0  0  0
   -8.2202    0.6655   -1.0427 C   0  0  0  0  0  0  0  0  0  0  0  0
   -7.2267    1.0232   -0.1118 C   0  0  0  0  0  0  0  0  0  0  0  0
   -6.9430    2.4432    0.1007 C   0  0  0  0  0  0  0  0  0  0  0  0
   -7.1033    2.7998    1.4553 F   0  0  0  0  0  0  0  0  0  0  0  0
   -8.0746    3.1490   -0.4599 F   0  0  0  0  0  0  0  0  0  0  0  0
   -5.8987    3.0058   -0.5189 F   0  0  0  0  0  0  0  0  0  0  0  0
   -4.0665   -1.8175    1.4374 N   0  0  0  0  0  0  0  0  0  0  0  0
   -2.8737   -2.1954    0.9898 C   0  0  0  0  0  0  0  0  0  0  0  0
   -2.2792   -1.1364    0.3807 C   0  0  0  0  0  0  0  0  0  0  0  0
   -1.0873   -0.9346   -0.2262 C   0  0  0  0  0  0  0  0  0  0  0  0
    3.0303    0.2466   -0.8641 C   0  0  0  0  0  0  0  0  0  0  0  0
    3.4749    0.8169   -1.9446 O   0  0  0  0  0  0  0  0  0  0  0  0
    8.0462   -1.7528    0.2626 H   0  0  0  0  0  0  0  0  0  0  0  0
    8.9225   -0.4692    1.1231 H   0  0  0  0  0  0  0  0  0  0  0  0
    9.6123   -1.1004   -0.4624 H   0  0  0  0  0  0  0  0  0  0  0  0
    7.6932   -1.0863   -2.2537 H   0  0  0  0  0  0  0  0  0  0  0  0
    6.8746    0.4870   -2.3557 H   0  0  0  0  0  0  0  0  0  0  0  0
    5.1316   -1.0588   -1.8896 H   0  0  0  0  0  0  0  0  0  0  0  0
    6.1384   -2.0839   -0.8345 H   0  0  0  0  0  0  0  0  0  0  0  0
    5.7876   -0.7056    0.9635 H   0  0  0  0  0  0  0  0  0  0  0  0
    5.6526    1.6902   -0.9174 H   0  0  0  0  0  0  0  0  0  0  0  0
    7.6142    0.9864    1.2851 H   0  0  0  0  0  0  0  0  0  0  0  0
    7.7365    2.1349   -0.0908 H   0  0  0  0  0  0  0  0  0  0  0  0
    0.7326    0.9105   -2.3289 H   0  0  0  0  0  0  0  0  0  0  0  0
   -1.3555    2.3132   -1.0793 H   0  0  0  0  0  0  0  0  0  0  0  0
   -3.5216    1.9458    0.0561 H   0  0  0  0  0  0  0  0  0  0  0  0
   -5.2730    1.2006    1.8247 H   0  0  0  0  0  0  0  0  0  0  0  0
   -5.8533   -0.3196    2.4936 H   0  0  0  0  0  0  0  0  0  0  0  0
   -6.5946   -2.1098    0.8891 H   0  0  0  0  0  0  0  0  0  0  0  0
   -8.3332   -2.6353   -0.7468 H   0  0  0  0  0  0  0  0  0  0  0  0
   -8.6786    1.4749   -1.5978 H   0  0  0  0  0  0  0  0  0  0  0  0
   -2.3893   -3.1805    1.0635 H   0  0  0  0  0  0  0  0  0  0  0  0
   -0.4175   -1.7845   -0.2975 H   0  0  0  0  0  0  0  0  0  0  0  0
  1  2  1  0
  2  3  1  0
  3  4  1  0
  4  5  1  0
  5  6  1  0
  6  7  1  0
  6  8  1  0
  5  9  1  0
  9 10  1  0
 10 11  2  0
 10 12  1  0
 12 13  1  0
 13 14  2  0
 14 15  1  0
 15 16  2  0
 16 17  1  0
 17 18  2  0
 18 19  1  0
 19 20  1  0
 20 21  1  0
 21 22  2  0
 22 23  1  0
 23 24  2  0
 24 25  1  0
 24 26  1  0
 26 27  2  0
 27 28  1  0
 28 29  1  0
 28 30  1  0
 28 31  1  0
 19 32  1  0
 32 33  2  0
 33 34  1  0
 34 35  2  0
 13 36  1  0
 36 37  2  0
  8  2  1  0
 36  9  1  0
 35 15  1  0
 34 18  1  0
 27 21  1  0
  1 38  1  0
  1 39  1  0
  1 40  1  0
  3 41  1  0
  3 42  1  0
  4 43  1  0
  4 44  1  0
  5 45  1  1
  6 46  1  6
  8 47  1  0
  8 48  1  0
 14 49  1  0
 16 50  1  0
 17 51  1  0
 20 52  1  0
 20 53  1  0
 22 54  1  0
 23 55  1  0
 26 56  1  0
 33 57  1  0
 35 58  1  0
M  END
$$$$
[H]OC([H])([H])C([H])([H])N1C([H])([H])C([H])([H])C([H])(N2C(=O)S/C(=C(/[H])c3c([H])c([H])c4c(c([H])nn4C([H])([H])c4c([H])c([H])c(Cl)c([H])c4C(F)(F)F)c3[H])C2=O)C([H])([H])C1([H])[H]
     RDKit          3D

 62 66  0  0  0  0  0  0  0  0999 V2000
    9.7498    1.3203   -0.1836 O   0  0  0  0  0  0  0  0  0  0  0  0
    8.4548    0.7757   -0.2028 C   0  0  0  0  0  0  0  0  0  0  0  0
    8.4907   -0.4359    0.7148 C   0  0  0  0  0  0  0  0  0  0  0  0
    7.1942   -1.0908    0.7885 N   0  0  0  0  0  0  0  0  0  0  0  0
    6.2206   -0.2753    1.4572 C   0  0  0  0  0  0  0  0  0  0  0  0
    4.9821   -1.0842    1.7062 C   0  0  0  0  0  0  0  0  0  0  0  0
    4.4837   -1.6279    0.3741 C   0  0  0  0  0  0  0  0  0  0  0  0
    5.3153   -1.1646   -0.7908 C   0  0  0  0  0  0  0  0  0  0  0  0
    6.7492   -1.6092   -0.4622 C   0  0  0  0  0  0  0  0  0  0  0  0
    3.0516   -1.3326    0.1901 N   0  0  0  0  0  0  0  0  0  0  0  0
    2.1116   -2.3912    0.1285 C   0  0  0  0  0  0  0  0  0  0  0  0
    2.2685   -3.6237   -0.0288 O   0  0  0  0  0  0  0  0  0  0  0  0
    0.5017   -1.5796    0.3354 S   0  0  0  0  0  0  0  0  0  0  0  0
    1.0980    0.0435   -0.1159 C   0  0  0  0  0  0  0  0  0  0  0  0
    0.3425    1.0353   -0.4986 C   0  0  0  0  0  0  0  0  0  0  0  0
   -1.0997    1.0457   -0.6378 C   0  0  0  0  0  0  0  0  0  0  0  0
   -1.8774    0.0238   -1.1031 C   0  0  0  0  0  0  0  0  0  0  0  0
   -3.2552    0.1406   -1.1998 C   0  0  0  0  0  0  0  0  0  0  0  0
   -3.9195    1.3033   -0.8292 C   0  0  0  0  0  0  0  0  0  0  0  0
   -5.2408    1.6814   -0.8386 N   0  0  0  0  0  0  0  0  0  0  0  0
   -6.3375    0.8741   -1.2860 C   0  0  0  0  0  0  0  0  0  0  0  0
   -7.0626    0.0100   -0.3940 C   0  0  0  0  0  0  0  0  0  0  0  0
   -6.6459   -1.3426   -0.2724 C   0  0  0  0  0  0  0  0  0  0  0  0
   -7.2560   -2.2639    0.5218 C   0  0  0  0  0  0  0  0  0  0  0  0
   -8.3488   -1.8900    1.2664 C   0  0  0  0  0  0  0  0  0  0  0  0
   -9.2031   -2.9961    2.3178 Cl  0  0  0  0  0  0  0  0  0  0  0  0
   -8.7672   -0.6025    1.1684 C   0  0  0  0  0  0  0  0  0  0  0  0
   -8.1446    0.3714    0.3464 C   0  0  0  0  0  0  0  0  0  0  0  0
   -8.6908    1.7246    0.3564 C   0  0  0  0  0  0  0  0  0  0  0  0
   -9.9471    1.6750    1.0575 F   0  0  0  0  0  0  0  0  0  0  0  0
   -8.9768    2.3207   -0.8068 F   0  0  0  0  0  0  0  0  0  0  0  0
   -8.0171    2.5734    1.2848 F   0  0  0  0  0  0  0  0  0  0  0  0
   -5.2594    2.8993   -0.3919 N   0  0  0  0  0  0  0  0  0  0  0  0
   -4.0509    3.3433   -0.0910 C   0  0  0  0  0  0  0  0  0  0  0  0
   -3.1500    2.3399   -0.3593 C   0  0  0  0  0  0  0  0  0  0  0  0
   -1.7798    2.2135   -0.2665 C   0  0  0  0  0  0  0  0  0  0  0  0
    2.5348   -0.0514    0.0625 C   0  0  0  0  0  0  0  0  0  0  0  0
    3.2301    1.0237    0.0913 O   0  0  0  0  0  0  0  0  0  0  0  0
    9.7072    2.2430    0.1851 H   0  0  0  0  0  0  0  0  0  0  0  0
    7.7356    1.5428    0.1311 H   0  0  0  0  0  0  0  0  0  0  0  0
    8.2674    0.4419   -1.2456 H   0  0  0  0  0  0  0  0  0  0  0  0
    9.1965   -1.1585    0.2851 H   0  0  0  0  0  0  0  0  0  0  0  0
    8.7556   -0.1027    1.7288 H   0  0  0  0  0  0  0  0  0  0  0  0
    6.6666    0.0958    2.4118 H   0  0  0  0  0  0  0  0  0  0  0  0
    5.9436    0.6180    0.8567 H   0  0  0  0  0  0  0  0  0  0  0  0
    4.1758   -0.4823    2.1944 H   0  0  0  0  0  0  0  0  0  0  0  0
    5.1791   -1.9211    2.4253 H   0  0  0  0  0  0  0  0  0  0  0  0
    4.5877   -2.7276    0.4197 H   0  0  0  0  0  0  0  0  0  0  0  0
    5.3156   -0.0861   -0.9482 H   0  0  0  0  0  0  0  0  0  0  0  0
    5.0213   -1.7700   -1.6758 H   0  0  0  0  0  0  0  0  0  0  0  0
    6.6734   -2.7367   -0.4149 H   0  0  0  0  0  0  0  0  0  0  0  0
    7.4189   -1.4030   -1.3065 H   0  0  0  0  0  0  0  0  0  0  0  0
    0.8919    1.9711   -0.7411 H   0  0  0  0  0  0  0  0  0  0  0  0
   -1.4018   -0.8888   -1.4054 H   0  0  0  0  0  0  0  0  0  0  0  0
   -3.7927   -0.7156   -1.5813 H   0  0  0  0  0  0  0  0  0  0  0  0
   -7.0135    1.4684   -1.9805 H   0  0  0  0  0  0  0  0  0  0  0  0
   -5.8594    0.1855   -2.0771 H   0  0  0  0  0  0  0  0  0  0  0  0
   -5.7859   -1.7024   -0.8444 H   0  0  0  0  0  0  0  0  0  0  0  0
   -6.9165   -3.2877    0.5988 H   0  0  0  0  0  0  0  0  0  0  0  0
   -9.6224   -0.2978    1.7511 H   0  0  0  0  0  0  0  0  0  0  0  0
   -3.7125    4.3080    0.3013 H   0  0  0  0  0  0  0  0  0  0  0  0
   -1.1805    3.0291    0.1019 H   0  0  0  0  0  0  0  0  0  0  0  0
  1  2  1  0
  2  3  1  0
  3  4  1  0
  4  5  1  0
  5  6  1  0
  6  7  1  0
  7  8  1  0
  8  9  1  0
  7 10  1  0
 10 11  1  0
 11 12  2  0
 11 13  1  0
 13 14  1  0
 14 15  2  0
 15 16  1  0
 16 17  2  0
 17 18  1  0
 18 19  2  0
 19 20  1  0
 20 21  1  0
 21 22  1  0
 22 23  2  0
 23 24  1  0
 24 25  2  0
 25 26  1  0
 25 27  1  0
 27 28  2  0
 28 29  1  0
 29 30  1  0
 29 31  1  0
 29 32  1  0
 20 33  1  0
 33 34  2  0
 34 35  1  0
 35 36  2  0
 14 37  1  0
 37 38  2  0
  9  4  1  0
 37 10  1  0
 36 16  1  0
 35 19  1  0
 28 22  1  0
  1 39  1  0
  2 40  1  0
  2 41  1  0
  3 42  1  0
  3 43  1  0
  5 44  1  0
  5 45  1  0
  6 46  1  0
  6 47  1  0
  7 48  1  0
  8 49  1  0
  8 50  1  0
  9 51  1  0
  9 52  1  0
 15 53  1  0
 17 54  1  0
 18 55  1  0
 21 56  1  0
 21 57  1  0
 23 58  1  0
 24 59  1  0
 27 60  1  0
 34 61  1  0
 36 62  1  0
M  END
$$$$
[H]Oc1c([H])c([H])c2c(c1[H])C([H])([H])[C@@]([H])(C([H])([H])C([H])([H])C([H])([H])C([H])([H])C#Cc1c([H])c([H])c(C(=O)C([H])([H])C(=O)OC([H])([H])C([H])([H])[H])c([H])c1[H])[C@]1([H])[C@]2([H])C([H])([H])C([H])([H])[C@]2(C([H])([H])[H])[C@@]([H])(O[H])C([H])([H])C([H])([H])[C@]21[H]
     RDKit          3D

 82 86  0  0  0  0  0  0  0  0999 V2000
   11.5650    1.1768   -3.4580 C   0  0  0  0  0  0  0  0  0  0  0  0
   11.8351   -0.0028   -2.5451 C   0  0  0  0  0  0  0  0  0  0  0  0
   10.6129   -0.4829   -2.0027 O   0  0  0  0  0  0  0  0  0  0  0  0
    9.7978    0.3203   -1.2327 C   0  0  0  0  0  0  0  0  0  0  0  0
   10.1212    1.5083   -0.9908 O   0  0  0  0  0  0  0  0  0  0  0  0
    8.5412   -0.2253   -0.6937 C   0  0  0  0  0  0  0  0  0  0  0  0
    7.7733    0.7505    0.1120 C   0  0  0  0  0  0  0  0  0  0  0  0
    8.1816    1.9294    0.2997 O   0  0  0  0  0  0  0  0  0  0  0  0
    6.5000    0.2906    0.6938 C   0  0  0  0  0  0  0  0  0  0  0  0
    5.7746    1.1879    1.4463 C   0  0  0  0  0  0  0  0  0  0  0  0
    4.5862    0.7762    1.9958 C   0  0  0  0  0  0  0  0  0  0  0  0
    4.0858   -0.5019    1.8262 C   0  0  0  0  0  0  0  0  0  0  0  0
    4.8429   -1.3737    1.0643 C   0  0  0  0  0  0  0  0  0  0  0  0
    6.0469   -0.9958    0.4933 C   0  0  0  0  0  0  0  0  0  0  0  0
    2.8399   -0.9063    2.4124 C   0  0  0  0  0  0  0  0  0  0  0  0
    1.7827   -1.2658    2.9003 C   0  0  0  0  0  0  0  0  0  0  0  0
    0.5126   -1.7133    3.4884 C   0  0  0  0  0  0  0  0  0  0  0  0
   -0.5682   -1.7712    2.3684 C   0  0  0  0  0  0  0  0  0  0  0  0
   -0.6643   -0.4024    1.8463 C   0  0  0  0  0  0  0  0  0  0  0  0
   -1.5640   -0.0874    0.7037 C   0  0  0  0  0  0  0  0  0  0  0  0
   -2.9971   -0.3539    0.7939 C   0  0  2  0  0  0  0  0  0  0  0  0
   -3.4648   -1.7783    0.9316 C   0  0  0  0  0  0  0  0  0  0  0  0
   -4.6301   -1.6998    1.8934 C   0  0  0  0  0  0  0  0  0  0  0  0
   -4.7080   -2.4644    3.0320 C   0  0  0  0  0  0  0  0  0  0  0  0
   -5.7905   -2.3011    3.8699 C   0  0  0  0  0  0  0  0  0  0  0  0
   -5.9252   -3.0545    5.0485 O   0  0  0  0  0  0  0  0  0  0  0  0
   -6.7451   -1.3709    3.5173 C   0  0  0  0  0  0  0  0  0  0  0  0
   -6.6506   -0.6045    2.3589 C   0  0  0  0  0  0  0  0  0  0  0  0
   -5.5647   -0.7615    1.5073 C   0  0  0  0  0  0  0  0  0  0  0  0
   -5.3412   -0.0660    0.2619 C   0  0  1  0  0  0  0  0  0  0  0  0
   -6.2484    1.1125    0.0036 C   0  0  0  0  0  0  0  0  0  0  0  0
   -6.1788    1.3660   -1.4881 C   0  0  0  0  0  0  0  0  0  0  0  0
   -4.7821    1.5367   -1.9898 C   0  0  2  0  0  0  0  0  0  0  0  0
   -4.2006    2.9008   -1.7436 C   0  0  0  0  0  0  0  0  0  0  0  0
   -4.6564    1.2491   -3.4713 C   0  0  1  0  0  0  0  0  0  0  0  0
   -5.1321    2.2714   -4.2556 O   0  0  0  0  0  0  0  0  0  0  0  0
   -3.1448    1.0682   -3.6084 C   0  0  0  0  0  0  0  0  0  0  0  0
   -2.6413    0.7034   -2.2251 C   0  0  0  0  0  0  0  0  0  0  0  0
   -3.8486    0.4222   -1.4788 C   0  0  1  0  0  0  0  0  0  0  0  0
   -3.9459    0.4393   -0.0277 C   0  0  2  0  0  0  0  0  0  0  0  0
   11.6101    2.1327   -2.8872 H   0  0  0  0  0  0  0  0  0  0  0  0
   12.3414    1.1825   -4.2489 H   0  0  0  0  0  0  0  0  0  0  0  0
   10.5340    1.0761   -3.8803 H   0  0  0  0  0  0  0  0  0  0  0  0
   12.2582   -0.8495   -3.1514 H   0  0  0  0  0  0  0  0  0  0  0  0
   12.5684    0.2335   -1.7590 H   0  0  0  0  0  0  0  0  0  0  0  0
    7.8565   -0.5862   -1.4965 H   0  0  0  0  0  0  0  0  0  0  0  0
    8.7927   -1.1254   -0.0637 H   0  0  0  0  0  0  0  0  0  0  0  0
    6.1698    2.1841    1.5755 H   0  0  0  0  0  0  0  0  0  0  0  0
    4.0029    1.4726    2.5916 H   0  0  0  0  0  0  0  0  0  0  0  0
    4.4755   -2.3775    0.9161 H   0  0  0  0  0  0  0  0  0  0  0  0
    6.5977   -1.7042   -0.0879 H   0  0  0  0  0  0  0  0  0  0  0  0
    0.5864   -2.6748    3.9963 H   0  0  0  0  0  0  0  0  0  0  0  0
    0.1918   -0.9452    4.2219 H   0  0  0  0  0  0  0  0  0  0  0  0
   -0.1862   -2.4674    1.6250 H   0  0  0  0  0  0  0  0  0  0  0  0
   -1.4933   -2.0970    2.9051 H   0  0  0  0  0  0  0  0  0  0  0  0
    0.3692    0.0223    1.6850 H   0  0  0  0  0  0  0  0  0  0  0  0
   -1.0433    0.2467    2.7100 H   0  0  0  0  0  0  0  0  0  0  0  0
   -1.3046    0.9623    0.4169 H   0  0  0  0  0  0  0  0  0  0  0  0
   -1.1679   -0.7348   -0.1589 H   0  0  0  0  0  0  0  0  0  0  0  0
   -3.2449    0.0719    1.8603 H   0  0  0  0  0  0  0  0  0  0  0  0
   -3.9924   -1.9795   -0.0768 H   0  0  0  0  0  0  0  0  0  0  0  0
   -2.7525   -2.5405    1.1377 H   0  0  0  0  0  0  0  0  0  0  0  0
   -3.9260   -3.1778    3.2537 H   0  0  0  0  0  0  0  0  0  0  0  0
   -6.4294   -3.9481    4.9600 H   0  0  0  0  0  0  0  0  0  0  0  0
   -7.5992   -1.2346    4.1688 H   0  0  0  0  0  0  0  0  0  0  0  0
   -7.3935    0.1191    2.0869 H   0  0  0  0  0  0  0  0  0  0  0  0
   -5.6704   -0.8038   -0.5459 H   0  0  0  0  0  0  0  0  0  0  0  0
   -5.9491    2.0233    0.5534 H   0  0  0  0  0  0  0  0  0  0  0  0
   -7.3129    0.9104    0.2447 H   0  0  0  0  0  0  0  0  0  0  0  0
   -6.7020    2.3447   -1.6523 H   0  0  0  0  0  0  0  0  0  0  0  0
   -6.7488    0.6092   -2.0438 H   0  0  0  0  0  0  0  0  0  0  0  0
   -5.0222    3.5818   -1.3830 H   0  0  0  0  0  0  0  0  0  0  0  0
   -3.3493    2.9202   -1.0655 H   0  0  0  0  0  0  0  0  0  0  0  0
   -3.8496    3.3944   -2.6974 H   0  0  0  0  0  0  0  0  0  0  0  0
   -5.1972    0.3021   -3.6985 H   0  0  0  0  0  0  0  0  0  0  0  0
   -6.1159    2.1265   -4.3801 H   0  0  0  0  0  0  0  0  0  0  0  0
   -2.6707    1.9908   -3.9981 H   0  0  0  0  0  0  0  0  0  0  0  0
   -3.0062    0.1947   -4.2672 H   0  0  0  0  0  0  0  0  0  0  0  0
   -2.0070   -0.2282   -2.3044 H   0  0  0  0  0  0  0  0  0  0  0  0
   -2.0408    1.5582   -1.8729 H   0  0  0  0  0  0  0  0  0  0  0  0
   -4.3172   -0.5235   -1.8803 H   0  0  0  0  0  0  0  0  0  0  0  0
   -3.8690    1.5123    0.3149 H   0  0  0  0  0  0  0  0  0  0  0  0
  1  2  1  0
  2  3  1  0
  3  4  1  0
  4  5  2  0
  4  6  1  0
  6  7  1  0
  7  8  2  0
  7  9  1  0
  9 10  2  0
 10 11  1  0
 11 12  2  0
 12 13  1  0
 13 14  2  0
 12 15  1  0
 15 16  3  0
 16 17  1  0
 17 18  1  0
 18 19  1  0
 19 20  1  0
 20 21  1  0
 21 22  1  0
 22 23  1  0
 23 24  2  0
 24 25  1  0
 25 26  1  0
 25 27  2  0
 27 28  1  0
 28 29  2  0
 29 30  1  0
 30 31  1  0
 31 32  1  0
 32 33  1  0
 33 34  1  6
 33 35  1  0
 35 36  1  0
 35 37  1  0
 37 38  1  0
 38 39  1  0
 39 40  1  0
 14  9  1  0
 40 21  1  0
 29 23  1  0
 40 30  1  0
 39 33  1  0
  1 41  1  0
  1 42  1  0
  1 43  1  0
  2 44  1  0
  2 45  1  0
  6 46  1  0
  6 47  1  0
 10 48  1  0
 11 49  1  0
 13 50  1  0
 14 51  1  0
 17 52  1  0
 17 53  1  0
 18 54  1  0
 18 55  1  0
 19 56  1  0
 19 57  1  0
 20 58  1  0
 20 59  1  0
 21 60  1  1
 22 61  1  0
 22 62  1  0
 24 63  1  0
 26 64  1  0
 27 65  1  0
 28 66  1  0
 30 67  1  6
 31 68  1  0
 31 69  1  0
 32 70  1  0
 32 71  1  0
 34 72  1  0
 34 73  1  0
 34 74  1  0
 35 75  1  1
 36 76  1  0
 37 77  1  0
 37 78  1  0
 38 79  1  0
 38 80  1  0
 39 81  1  6
 40 82  1  1
M  END
$$$$
[H]Oc1c([H])c([H])c2c(c1[H])OC([H])([H])c1c-2nc2c([H])c([H])c(O[H])c([H])c2c1Cl
     RDKit          3D

 31 34  0  0  0  0  0  0  0  0999 V2000
   -5.9693   -0.4857   -0.1442 O   0  0  0  0  0  0  0  0  0  0  0  0
   -4.5659   -0.4198   -0.0615 C   0  0  0  0  0  0  0  0  0  0  0  0
   -3.9072    0.6815   -0.5760 C   0  0  0  0  0  0  0  0  0  0  0  0
   -2.5333    0.7814   -0.5134 C   0  0  0  0  0  0  0  0  0  0  0  0
   -1.8128   -0.2488    0.0791 C   0  0  0  0  0  0  0  0  0  0  0  0
   -2.4890   -1.3503    0.5922 C   0  0  0  0  0  0  0  0  0  0  0  0
   -1.7009   -2.3214    1.1597 O   0  0  0  0  0  0  0  0  0  0  0  0
   -0.3193   -2.3377    1.2829 C   0  0  0  0  0  0  0  0  0  0  0  0
    0.3527   -1.1568    0.7284 C   0  0  0  0  0  0  0  0  0  0  0  0
    1.7294   -1.0326    0.7787 C   0  0  0  0  0  0  0  0  0  0  0  0
    2.7352   -2.2710    1.5024 Cl  0  0  0  0  0  0  0  0  0  0  0  0
    2.3650    0.0858    0.2535 C   0  0  0  0  0  0  0  0  0  0  0  0
    3.7259    0.2443    0.2848 C   0  0  0  0  0  0  0  0  0  0  0  0
    4.3171    1.3719   -0.2489 C   0  0  0  0  0  0  0  0  0  0  0  0
    5.7027    1.5505   -0.2260 O   0  0  0  0  0  0  0  0  0  0  0  0
    3.5773    2.3826   -0.8328 C   0  0  0  0  0  0  0  0  0  0  0  0
    2.2074    2.2142   -0.8597 C   0  0  0  0  0  0  0  0  0  0  0  0
    1.6006    1.0879   -0.3280 C   0  0  0  0  0  0  0  0  0  0  0  0
    0.2853    0.9181   -0.3496 N   0  0  0  0  0  0  0  0  0  0  0  0
   -0.3638   -0.1487    0.1478 C   0  0  0  0  0  0  0  0  0  0  0  0
   -3.8724   -1.4549    0.5311 C   0  0  0  0  0  0  0  0  0  0  0  0
   -6.5653   -0.1152    0.5895 H   0  0  0  0  0  0  0  0  0  0  0  0
   -4.4745    1.4802   -1.0361 H   0  0  0  0  0  0  0  0  0  0  0  0
   -1.9710    1.6210   -0.9005 H   0  0  0  0  0  0  0  0  0  0  0  0
   -0.1054   -2.4602    2.3879 H   0  0  0  0  0  0  0  0  0  0  0  0
    0.1351   -3.2310    0.7597 H   0  0  0  0  0  0  0  0  0  0  0  0
    4.3429   -0.5284    0.7354 H   0  0  0  0  0  0  0  0  0  0  0  0
    6.2936    1.2218   -0.9848 H   0  0  0  0  0  0  0  0  0  0  0  0
    4.0651    3.2686   -1.2501 H   0  0  0  0  0  0  0  0  0  0  0  0
    1.5657    2.9680   -1.3026 H   0  0  0  0  0  0  0  0  0  0  0  0
   -4.3510   -2.3152    0.9360 H   0  0  0  0  0  0  0  0  0  0  0  0
  1  2  1  0
  2  3  2  0
  3  4  1  0
  4  5  2  0
  5  6  1  0
  6  7  1  0
  7  8  1  0
  8  9  1  0
  9 10  2  0
 10 11  1  0
 10 12  1  0
 12 13  2  0
 13 14  1  0
 14 15  1  0
 14 16  2  0
 16 17  1  0
 17 18  2  0
 18 19  1  0
 19 20  2  0
  6 21  2  0
 21  2  1  0
  5 20  1  0
 20  9  1  0
 18 12  1  0
  1 22  1  0
  3 23  1  0
  4 24  1  0
  8 25  1  0
  8 26  1  0
 13 27  1  0
 15 28  1  0
 16 29  1  0
 17 30  1  0
 21 31  1  0
M  END
$$$$
[H]Oc1c([H])c([H])c2c(c1[H])C([H])([H])[C@@]([H])(C([H])([H])C([H])([H])C([H])([H])C([H])([H])C#Cc1c([H])c([H])c(-n3c([H])c([H])c([H])c3[H])c([H])c1[H])[C@]1([H])[C@]2([H])C([H])([H])C([H])([H])[C@]2(C([H])([H])[H])[C@@]([H])(O[H])C([H])([H])C([H])([H])[C@]21[H]
     RDKit          3D

 76 81  0  0  0  0  0  0  0  0999 V2000
   -5.5972    0.9117   -1.2285 C   0  0  0  0  0  0  0  0  0  0  0  0
   -4.4386    0.1369   -1.7626 C   0  0  2  0  0  0  0  0  0  0  0  0
   -4.6614   -1.3088   -1.5780 C   0  0  0  0  0  0  0  0  0  0  0  0
   -3.8444   -1.9622   -0.5246 C   0  0  0  0  0  0  0  0  0  0  0  0
   -3.4628   -1.1412    0.6241 C   0  0  1  0  0  0  0  0  0  0  0  0
   -3.3328    0.3561    0.3509 C   0  0  2  0  0  0  0  0  0  0  0  0
   -3.1081    0.5337   -1.0881 C   0  0  2  0  0  0  0  0  0  0  0  0
   -3.0053    1.9551   -1.5602 C   0  0  0  0  0  0  0  0  0  0  0  0
   -3.5527    1.9301   -2.9568 C   0  0  0  0  0  0  0  0  0  0  0  0
   -4.1343    0.5508   -3.1802 C   0  0  2  0  0  0  0  0  0  0  0  0
   -5.2678    0.6061   -3.9598 O   0  0  0  0  0  0  0  0  0  0  0  0
   -2.3778    0.8954    1.3281 C   0  0  2  0  0  0  0  0  0  0  0  0
   -0.9512    0.5673    0.9603 C   0  0  0  0  0  0  0  0  0  0  0  0
    0.0341    1.1255    1.9659 C   0  0  0  0  0  0  0  0  0  0  0  0
    1.4325    0.7572    1.5311 C   0  0  0  0  0  0  0  0  0  0  0  0
    1.8016    1.2938    0.1843 C   0  0  0  0  0  0  0  0  0  0  0  0
    3.1901    0.8423   -0.0782 C   0  0  0  0  0  0  0  0  0  0  0  0
    4.3193    0.4959   -0.2840 C   0  0  0  0  0  0  0  0  0  0  0  0
    5.6887    0.1013   -0.5253 C   0  0  0  0  0  0  0  0  0  0  0  0
    6.7232    1.0220   -0.4902 C   0  0  0  0  0  0  0  0  0  0  0  0
    8.0279    0.6910   -0.7121 C   0  0  0  0  0  0  0  0  0  0  0  0
    8.3756   -0.6104   -0.9877 C   0  0  0  0  0  0  0  0  0  0  0  0
    7.3508   -1.5478   -1.0270 C   0  0  0  0  0  0  0  0  0  0  0  0
    6.0332   -1.2090   -0.8021 C   0  0  0  0  0  0  0  0  0  0  0  0
    9.7255   -1.0063   -1.2269 N   0  0  0  0  0  0  0  0  0  0  0  0
   10.6248   -0.2645   -1.9126 C   0  0  0  0  0  0  0  0  0  0  0  0
   11.8259   -0.9372   -1.9575 C   0  0  0  0  0  0  0  0  0  0  0  0
   11.6551   -2.1245   -1.2794 C   0  0  0  0  0  0  0  0  0  0  0  0
   10.3481   -2.1316   -0.8435 C   0  0  0  0  0  0  0  0  0  0  0  0
   -2.7262    0.4439    2.7155 C   0  0  0  0  0  0  0  0  0  0  0  0
   -3.9674   -0.3562    2.8424 C   0  0  0  0  0  0  0  0  0  0  0  0
   -4.7344   -0.2855    4.0178 C   0  0  0  0  0  0  0  0  0  0  0  0
   -5.8772   -1.0336    4.1488 C   0  0  0  0  0  0  0  0  0  0  0  0
   -6.6520   -0.9659    5.3290 O   0  0  0  0  0  0  0  0  0  0  0  0
   -6.2577   -1.8535    3.1085 C   0  0  0  0  0  0  0  0  0  0  0  0
   -5.4866   -1.9150    1.9442 C   0  0  0  0  0  0  0  0  0  0  0  0
   -4.3591   -1.1809    1.8070 C   0  0  0  0  0  0  0  0  0  0  0  0
   -6.1172    0.3387   -0.4117 H   0  0  0  0  0  0  0  0  0  0  0  0
   -6.3725    1.0420   -2.0232 H   0  0  0  0  0  0  0  0  0  0  0  0
   -5.3717    1.9011   -0.8359 H   0  0  0  0  0  0  0  0  0  0  0  0
   -4.5102   -1.8705   -2.5407 H   0  0  0  0  0  0  0  0  0  0  0  0
   -5.7456   -1.5012   -1.3264 H   0  0  0  0  0  0  0  0  0  0  0  0
   -2.8931   -2.3092   -1.0344 H   0  0  0  0  0  0  0  0  0  0  0  0
   -4.3357   -2.9020   -0.2185 H   0  0  0  0  0  0  0  0  0  0  0  0
   -2.4663   -1.4967    1.0201 H   0  0  0  0  0  0  0  0  0  0  0  0
   -4.3415    0.8302    0.5878 H   0  0  0  0  0  0  0  0  0  0  0  0
   -2.3391   -0.0755   -1.5598 H   0  0  0  0  0  0  0  0  0  0  0  0
   -3.4972    2.6885   -0.8955 H   0  0  0  0  0  0  0  0  0  0  0  0
   -1.9356    2.2340   -1.5936 H   0  0  0  0  0  0  0  0  0  0  0  0
   -2.7716    2.1309   -3.7013 H   0  0  0  0  0  0  0  0  0  0  0  0
   -4.3957    2.6494   -3.0332 H   0  0  0  0  0  0  0  0  0  0  0  0
   -3.3509   -0.0967   -3.5828 H   0  0  0  0  0  0  0  0  0  0  0  0
   -5.5820    1.5331   -4.0431 H   0  0  0  0  0  0  0  0  0  0  0  0
   -2.5155    2.0221    1.3357 H   0  0  0  0  0  0  0  0  0  0  0  0
   -0.7545   -0.4987    0.9035 H   0  0  0  0  0  0  0  0  0  0  0  0
   -0.7341    1.0156   -0.0107 H   0  0  0  0  0  0  0  0  0  0  0  0
   -0.0554    2.2299    1.9567 H   0  0  0  0  0  0  0  0  0  0  0  0
   -0.1026    0.6995    2.9809 H   0  0  0  0  0  0  0  0  0  0  0  0
    1.5423   -0.3559    1.4819 H   0  0  0  0  0  0  0  0  0  0  0  0
    2.1242    1.1961    2.2852 H   0  0  0  0  0  0  0  0  0  0  0  0
    1.1961    0.7842   -0.6191 H   0  0  0  0  0  0  0  0  0  0  0  0
    1.7705    2.3812    0.1001 H   0  0  0  0  0  0  0  0  0  0  0  0
    6.4718    2.0643   -0.2728 H   0  0  0  0  0  0  0  0  0  0  0  0
    8.8429    1.4211   -0.6836 H   0  0  0  0  0  0  0  0  0  0  0  0
    7.6134   -2.5928   -1.2463 H   0  0  0  0  0  0  0  0  0  0  0  0
    5.2214   -1.9318   -0.8297 H   0  0  0  0  0  0  0  0  0  0  0  0
   10.4600    0.7203   -2.3737 H   0  0  0  0  0  0  0  0  0  0  0  0
   12.7508   -0.6348   -2.4216 H   0  0  0  0  0  0  0  0  0  0  0  0
   12.4087   -2.9039   -1.1204 H   0  0  0  0  0  0  0  0  0  0  0  0
    9.9167   -2.9316   -0.2820 H   0  0  0  0  0  0  0  0  0  0  0  0
   -2.8123    1.3135    3.4372 H   0  0  0  0  0  0  0  0  0  0  0  0
   -1.9258   -0.1829    3.1727 H   0  0  0  0  0  0  0  0  0  0  0  0
   -4.4212    0.3657    4.8291 H   0  0  0  0  0  0  0  0  0  0  0  0
   -7.3844   -0.2447    5.3119 H   0  0  0  0  0  0  0  0  0  0  0  0
   -7.1583   -2.4426    3.2128 H   0  0  0  0  0  0  0  0  0  0  0  0
   -5.7899   -2.5485    1.1518 H   0  0  0  0  0  0  0  0  0  0  0  0
  2  1  1  1
  2  3  1  0
  3  4  1  0
  4  5  1  0
  5  6  1  0
  6  7  1  0
  7  8  1  0
  8  9  1  0
  9 10  1  0
 10 11  1  0
  6 12  1  0
 12 13  1  0
 13 14  1  0
 14 15  1  0
 15 16  1  0
 16 17  1  0
 17 18  3  0
 18 19  1  0
 19 20  2  0
 20 21  1  0
 21 22  2  0
 22 23  1  0
 23 24  2  0
 22 25  1  0
 25 26  1  0
 26 27  2  0
 27 28  1  0
 28 29  2  0
 12 30  1  0
 30 31  1  0
 31 32  2  0
 32 33  1  0
 33 34  1  0
 33 35  2  0
 35 36  1  0
 36 37  2  0
  7  2  1  0
 24 19  1  0
 29 25  1  0
 37 31  1  0
 10  2  1  0
 37  5  1  0
  1 38  1  0
  1 39  1  0
  1 40  1  0
  3 41  1  0
  3 42  1  0
  4 43  1  0
  4 44  1  0
  5 45  1  1
  6 46  1  1
  7 47  1  6
  8 48  1  0
  8 49  1  0
  9 50  1  0
  9 51  1  0
 10 52  1  6
 11 53  1  0
 12 54  1  1
 13 55  1  0
 13 56  1  0
 14 57  1  0
 14 58  1  0
 15 59  1  0
 15 60  1  0
 16 61  1  0
 16 62  1  0
 20 63  1  0
 21 64  1  0
 23 65  1  0
 24 66  1  0
 26 67  1  0
 27 68  1  0
 28 69  1  0
 29 70  1  0
 30 71  1  0
 30 72  1  0
 32 73  1  0
 34 74  1  0
 35 75  1  0
 36 76  1  0
M  END
$$$$
[H]OC(=O)C([H])([H])N1C(=O)S/C(=C(/[H])c2c([H])c([H])c3c(c(C([H])([H])[H])nn3C([H])([H])c3c([H])c([H])c(Cl)c([H])c3C(F)(F)F)c2[H])C1=O
     RDKit          3D

 49 52  0  0  0  0  0  0  0  0999 V2000
   -0.4056    2.2345    2.4566 C   0  0  0  0  0  0  0  0  0  0  0  0
   -0.9084    1.0700    1.7079 C   0  0  0  0  0  0  0  0  0  0  0  0
   -2.0366    0.4104    1.9337 N   0  0  0  0  0  0  0  0  0  0  0  0
   -2.1865   -0.6136    1.0470 N   0  0  0  0  0  0  0  0  0  0  0  0
   -3.3720   -1.4027    1.0950 C   0  0  0  0  0  0  0  0  0  0  0  0
   -4.6407   -0.8119    0.6869 C   0  0  0  0  0  0  0  0  0  0  0  0
   -5.4165   -0.2642    1.7580 C   0  0  0  0  0  0  0  0  0  0  0  0
   -6.6177    0.3132    1.5280 C   0  0  0  0  0  0  0  0  0  0  0  0
   -7.1528    0.4057    0.2731 C   0  0  0  0  0  0  0  0  0  0  0  0
   -8.7198    1.1725    0.0721 Cl  0  0  0  0  0  0  0  0  0  0  0  0
   -6.4405   -0.1060   -0.7737 C   0  0  0  0  0  0  0  0  0  0  0  0
   -5.1881   -0.7110   -0.5532 C   0  0  0  0  0  0  0  0  0  0  0  0
   -4.5009   -1.2136   -1.7742 C   0  0  0  0  0  0  0  0  0  0  0  0
   -4.1040   -2.5070   -1.7091 F   0  0  0  0  0  0  0  0  0  0  0  0
   -5.5334   -1.2887   -2.7963 F   0  0  0  0  0  0  0  0  0  0  0  0
   -3.6100   -0.3774   -2.3325 F   0  0  0  0  0  0  0  0  0  0  0  0
   -1.1196   -0.5898    0.2490 C   0  0  0  0  0  0  0  0  0  0  0  0
   -0.6921   -1.3898   -0.8039 C   0  0  0  0  0  0  0  0  0  0  0  0
    0.4982   -1.1546   -1.4383 C   0  0  0  0  0  0  0  0  0  0  0  0
    1.3415   -0.1173   -1.0750 C   0  0  0  0  0  0  0  0  0  0  0  0
    2.5837    0.0739   -1.8004 C   0  0  0  0  0  0  0  0  0  0  0  0
    3.7030    0.2677   -1.1306 C   0  0  0  0  0  0  0  0  0  0  0  0
    3.8568    0.3202    0.6472 S   0  0  0  0  0  0  0  0  0  0  0  0
    5.5878    0.7521    0.6884 C   0  0  0  0  0  0  0  0  0  0  0  0
    6.2229    1.0124    1.7418 O   0  0  0  0  0  0  0  0  0  0  0  0
    6.0187    0.7267   -0.6524 N   0  0  0  0  0  0  0  0  0  0  0  0
    7.4458    0.9574   -0.9802 C   0  0  0  0  0  0  0  0  0  0  0  0
    8.1764   -0.3105   -0.9879 C   0  0  0  0  0  0  0  0  0  0  0  0
    7.5152   -1.4988   -0.7382 O   0  0  0  0  0  0  0  0  0  0  0  0
    9.4049   -0.3213   -1.2221 O   0  0  0  0  0  0  0  0  0  0  0  0
    5.0559    0.4766   -1.6170 C   0  0  0  0  0  0  0  0  0  0  0  0
    5.2887    0.4215   -2.8845 O   0  0  0  0  0  0  0  0  0  0  0  0
    0.8982    0.6606   -0.0310 C   0  0  0  0  0  0  0  0  0  0  0  0
   -0.2993    0.4531    0.6363 C   0  0  0  0  0  0  0  0  0  0  0  0
   -0.4954    2.1144    3.5568 H   0  0  0  0  0  0  0  0  0  0  0  0
    0.6804    2.4282    2.2665 H   0  0  0  0  0  0  0  0  0  0  0  0
   -0.9274    3.1928    2.1732 H   0  0  0  0  0  0  0  0  0  0  0  0
   -3.4653   -1.8049    2.1522 H   0  0  0  0  0  0  0  0  0  0  0  0
   -3.1392   -2.3252    0.4695 H   0  0  0  0  0  0  0  0  0  0  0  0
   -4.9825   -0.3432    2.7379 H   0  0  0  0  0  0  0  0  0  0  0  0
   -7.1991    0.7262    2.3518 H   0  0  0  0  0  0  0  0  0  0  0  0
   -6.8574   -0.0342   -1.7723 H   0  0  0  0  0  0  0  0  0  0  0  0
   -1.3590   -2.1932   -1.0602 H   0  0  0  0  0  0  0  0  0  0  0  0
    0.8165   -1.7908   -2.2618 H   0  0  0  0  0  0  0  0  0  0  0  0
    2.6502    0.0674   -2.8791 H   0  0  0  0  0  0  0  0  0  0  0  0
    7.8804    1.6756   -0.2711 H   0  0  0  0  0  0  0  0  0  0  0  0
    7.5250    1.4319   -1.9846 H   0  0  0  0  0  0  0  0  0  0  0  0
    6.6974   -1.6898   -1.3173 H   0  0  0  0  0  0  0  0  0  0  0  0
    1.5224    1.4945    0.2762 H   0  0  0  0  0  0  0  0  0  0  0  0
  1  2  1  0
  2  3  2  0
  3  4  1  0
  4  5  1  0
  5  6  1  0
  6  7  2  0
  7  8  1  0
  8  9  2  0
  9 10  1  0
  9 11  1  0
 11 12  2  0
 12 13  1  0
 13 14  1  0
 13 15  1  0
 13 16  1  0
  4 17  1  0
 17 18  2  0
 18 19  1  0
 19 20  2  0
 20 21  1  0
 21 22  2  0
 22 23  1  0
 23 24  1  0
 24 25  2  0
 24 26  1  0
 26 27  1  0
 27 28  1  0
 28 29  1  0
 28 30  2  0
 26 31  1  0
 31 32  2  0
 20 33  1  0
 33 34  2  0
 34  2  1  0
 12  6  1  0
 34 17  1  0
 31 22  1  0
  1 35  1  0
  1 36  1  0
  1 37  1  0
  5 38  1  0
  5 39  1  0
  7 40  1  0
  8 41  1  0
 11 42  1  0
 18 43  1  0
 19 44  1  0
 21 45  1  0
 27 46  1  0
 27 47  1  0
 29 48  1  0
 33 49  1  0
M  END
$$$$
[H]Oc1c([H])c([H])c(-c2c([H])oc3c([H])c(O[H])c([H])c(O[H])c3c2=O)c([H])c1[H]
     RDKit          3D

 30 32  0  0  0  0  0  0  0  0999 V2000
   -6.0213    0.8002   -0.1166 O   0  0  0  0  0  0  0  0  0  0  0  0
   -4.6210    0.7488   -0.0473 C   0  0  0  0  0  0  0  0  0  0  0  0
   -3.8815    0.0764   -1.0049 C   0  0  0  0  0  0  0  0  0  0  0  0
   -2.5049    0.0074   -0.9652 C   0  0  0  0  0  0  0  0  0  0  0  0
   -1.8356    0.6313    0.0670 C   0  0  0  0  0  0  0  0  0  0  0  0
   -2.5657    1.3120    1.0384 C   0  0  0  0  0  0  0  0  0  0  0  0
   -3.9408    1.3692    0.9806 C   0  0  0  0  0  0  0  0  0  0  0  0
   -0.3919    0.5685    0.1251 C   0  0  0  0  0  0  0  0  0  0  0  0
    0.3314    1.7108    0.3917 C   0  0  0  0  0  0  0  0  0  0  0  0
    1.6554    1.6957    0.4526 O   0  0  0  0  0  0  0  0  0  0  0  0
    2.3521    0.5925    0.2627 C   0  0  0  0  0  0  0  0  0  0  0  0
    3.7330    0.5791    0.3267 C   0  0  0  0  0  0  0  0  0  0  0  0
    4.4880   -0.5598    0.1323 C   0  0  0  0  0  0  0  0  0  0  0  0
    5.8908   -0.5249    0.2072 O   0  0  0  0  0  0  0  0  0  0  0  0
    3.8089   -1.7255   -0.1368 C   0  0  0  0  0  0  0  0  0  0  0  0
    2.4318   -1.7532   -0.2090 C   0  0  0  0  0  0  0  0  0  0  0  0
    1.7451   -2.9199   -0.4787 O   0  0  0  0  0  0  0  0  0  0  0  0
    1.6991   -0.5937   -0.0094 C   0  0  0  0  0  0  0  0  0  0  0  0
    0.3108   -0.5998   -0.0777 C   0  0  0  0  0  0  0  0  0  0  0  0
   -0.2788   -1.6825   -0.3255 O   0  0  0  0  0  0  0  0  0  0  0  0
   -6.6108    0.1130    0.3156 H   0  0  0  0  0  0  0  0  0  0  0  0
   -4.3864   -0.4316   -1.8410 H   0  0  0  0  0  0  0  0  0  0  0  0
   -1.9342   -0.5289   -1.7324 H   0  0  0  0  0  0  0  0  0  0  0  0
   -2.0274    1.8064    1.8572 H   0  0  0  0  0  0  0  0  0  0  0  0
   -4.5292    1.9015    1.7385 H   0  0  0  0  0  0  0  0  0  0  0  0
   -0.2229    2.6262    0.5504 H   0  0  0  0  0  0  0  0  0  0  0  0
    4.2163    1.5103    0.5388 H   0  0  0  0  0  0  0  0  0  0  0  0
    6.4092   -0.3324   -0.6588 H   0  0  0  0  0  0  0  0  0  0  0  0
    4.4112   -2.6284   -0.2907 H   0  0  0  0  0  0  0  0  0  0  0  0
    2.2693   -3.7688   -0.6254 H   0  0  0  0  0  0  0  0  0  0  0  0
  1  2  1  0
  2  3  2  0
  3  4  1  0
  4  5  2  0
  5  6  1  0
  6  7  2  0
  5  8  1  0
  8  9  2  0
  9 10  1  0
 10 11  1  0
 11 12  2  0
 12 13  1  0
 13 14  1  0
 13 15  2  0
 15 16  1  0
 16 17  1  0
 16 18  2  0
 18 19  1  0
 19 20  2  0
  7  2  1  0
 19  8  1  0
 18 11  1  0
  1 21  1  0
  3 22  1  0
  4 23  1  0
  6 24  1  0
  7 25  1  0
  9 26  1  0
 12 27  1  0
 14 28  1  0
 15 29  1  0
 17 30  1  0
M  END
$$$$
[H]OC1=NC(=O)C(=C([H])c2c([H])c([H])c(Oc3c([H])c([H])c(C(=O)OC([H])([H])[H])c4c([H])c([H])c([H])c([H])c34)c(OC([H])([H])[H])c2[H])S1
     RDKit          3D

 48 51  0  0  0  0  0  0  0  0999 V2000
   -8.0312   -0.0671    0.0745 C   0  0  0  0  0  0  0  0  0  0  0  0
   -6.6660    0.2406    0.1080 O   0  0  0  0  0  0  0  0  0  0  0  0
   -5.6974   -0.2956   -0.6854 C   0  0  0  0  0  0  0  0  0  0  0  0
   -6.1688   -1.1685   -1.5269 O   0  0  0  0  0  0  0  0  0  0  0  0
   -4.2722   -0.0196   -0.7067 C   0  0  0  0  0  0  0  0  0  0  0  0
   -3.5300   -0.4954   -1.8041 C   0  0  0  0  0  0  0  0  0  0  0  0
   -2.2140   -0.2509   -1.9154 C   0  0  0  0  0  0  0  0  0  0  0  0
   -1.4807    0.4848   -0.9660 C   0  0  0  0  0  0  0  0  0  0  0  0
   -0.1902    0.6391   -1.2186 O   0  0  0  0  0  0  0  0  0  0  0  0
    1.0047    0.3585   -0.6901 C   0  0  0  0  0  0  0  0  0  0  0  0
    1.9466    1.3577   -0.4895 C   0  0  0  0  0  0  0  0  0  0  0  0
    3.1826    1.1106    0.0508 C   0  0  0  0  0  0  0  0  0  0  0  0
    3.5892   -0.1470    0.4368 C   0  0  0  0  0  0  0  0  0  0  0  0
    4.8811   -0.4591    0.9790 C   0  0  0  0  0  0  0  0  0  0  0  0
    6.0054   -0.2017    0.3968 C   0  0  0  0  0  0  0  0  0  0  0  0
    7.6527   -0.6003    1.1088 S   0  0  0  0  0  0  0  0  0  0  0  0
    8.5833    0.0121   -0.2752 C   0  0  0  0  0  0  0  0  0  0  0  0
    9.9833   -0.0079   -0.3332 O   0  0  0  0  0  0  0  0  0  0  0  0
    7.7576    0.4342   -1.1233 N   0  0  0  0  0  0  0  0  0  0  0  0
    6.4035    0.3694   -0.8787 C   0  0  0  0  0  0  0  0  0  0  0  0
    5.5538    0.7971   -1.7540 O   0  0  0  0  0  0  0  0  0  0  0  0
    2.6275   -1.1506    0.2294 C   0  0  0  0  0  0  0  0  0  0  0  0
    1.3953   -0.9238   -0.3054 C   0  0  0  0  0  0  0  0  0  0  0  0
    0.4483   -1.9206   -0.5082 O   0  0  0  0  0  0  0  0  0  0  0  0
    0.8072   -3.2393   -0.1302 C   0  0  0  0  0  0  0  0  0  0  0  0
   -2.1912    0.9498    0.1017 C   0  0  0  0  0  0  0  0  0  0  0  0
   -1.5256    1.6803    1.0840 C   0  0  0  0  0  0  0  0  0  0  0  0
   -2.2532    2.1339    2.1574 C   0  0  0  0  0  0  0  0  0  0  0  0
   -3.5899    1.8995    2.2980 C   0  0  0  0  0  0  0  0  0  0  0  0
   -4.2662    1.1782    1.3343 C   0  0  0  0  0  0  0  0  0  0  0  0
   -3.5827    0.7018    0.2380 C   0  0  0  0  0  0  0  0  0  0  0  0
   -8.4071   -0.5355    1.0163 H   0  0  0  0  0  0  0  0  0  0  0  0
   -8.3482   -0.6530   -0.7998 H   0  0  0  0  0  0  0  0  0  0  0  0
   -8.5691    0.9223   -0.0029 H   0  0  0  0  0  0  0  0  0  0  0  0
   -4.0914   -1.0657   -2.5445 H   0  0  0  0  0  0  0  0  0  0  0  0
   -1.6674   -0.6320   -2.7761 H   0  0  0  0  0  0  0  0  0  0  0  0
    1.7165    2.3963   -0.7666 H   0  0  0  0  0  0  0  0  0  0  0  0
    3.8974    1.9280    0.2128 H   0  0  0  0  0  0  0  0  0  0  0  0
    4.8972   -0.9462    1.9487 H   0  0  0  0  0  0  0  0  0  0  0  0
   10.4780    0.4282   -1.0771 H   0  0  0  0  0  0  0  0  0  0  0  0
    2.9255   -2.1510    0.5266 H   0  0  0  0  0  0  0  0  0  0  0  0
    0.8569   -3.3573    0.9645 H   0  0  0  0  0  0  0  0  0  0  0  0
    0.0440   -3.9841   -0.4789 H   0  0  0  0  0  0  0  0  0  0  0  0
    1.7622   -3.5590   -0.5730 H   0  0  0  0  0  0  0  0  0  0  0  0
   -0.4846    1.8634    0.9685 H   0  0  0  0  0  0  0  0  0  0  0  0
   -1.6927    2.6981    2.8977 H   0  0  0  0  0  0  0  0  0  0  0  0
   -4.1597    2.2599    3.1487 H   0  0  0  0  0  0  0  0  0  0  0  0
   -5.3203    0.9875    1.4611 H   0  0  0  0  0  0  0  0  0  0  0  0
  1  2  1  0
  2  3  1  0
  3  4  2  0
  3  5  1  0
  5  6  2  0
  6  7  1  0
  7  8  2  0
  8  9  1  0
  9 10  1  0
 10 11  2  0
 11 12  1  0
 12 13  2  0
 13 14  1  0
 14 15  2  3
 15 16  1  0
 16 17  1  0
 17 18  1  0
 17 19  2  0
 19 20  1  0
 20 21  2  0
 13 22  1  0
 22 23  2  0
 23 24  1  0
 24 25  1  0
  8 26  1  0
 26 27  2  0
 27 28  1  0
 28 29  2  0
 29 30  1  0
 30 31  2  0
 31  5  1  0
 23 10  1  0
 31 26  1  0
 20 15  1  0
  1 32  1  0
  1 33  1  0
  1 34  1  0
  6 35  1  0
  7 36  1  0
 11 37  1  0
 12 38  1  0
 14 39  1  0
 18 40  1  0
 22 41  1  0
 25 42  1  0
 25 43  1  0
 25 44  1  0
 27 45  1  0
 28 46  1  0
 29 47  1  0
 30 48  1  0
M  END
$$$$
[H]/C(=C1/SC(=O)N(C([H])([H])C(=O)N([H])S(=O)(=O)N2C([H])([H])C([H])([H])C([H])([H])C2([H])[H])C1=O)c1c([H])c([H])c2c(c(C([H])([H])[H])nn2C([H])([H])c2c([H])c([H])c(Cl)c([H])c2C(F)(F)F)c1[H]
     RDKit          3D

 65 69  0  0  0  0  0  0  0  0999 V2000
   -2.4684    0.2925    3.5333 C   0  0  0  0  0  0  0  0  0  0  0  0
   -2.9946    0.6436    2.1768 C   0  0  0  0  0  0  0  0  0  0  0  0
   -3.9777    1.4498    1.8104 N   0  0  0  0  0  0  0  0  0  0  0  0
   -4.1403    1.4972    0.5159 N   0  0  0  0  0  0  0  0  0  0  0  0
   -5.1298    2.2832   -0.2434 C   0  0  0  0  0  0  0  0  0  0  0  0
   -6.3689    1.5077   -0.4271 C   0  0  0  0  0  0  0  0  0  0  0  0
   -6.4731    0.2053    0.0115 C   0  0  0  0  0  0  0  0  0  0  0  0
   -7.6377   -0.5416   -0.1541 C   0  0  0  0  0  0  0  0  0  0  0  0
   -8.7100    0.0239   -0.7665 C   0  0  0  0  0  0  0  0  0  0  0  0
  -10.2264   -0.8241   -1.0268 Cl  0  0  0  0  0  0  0  0  0  0  0  0
   -8.6427    1.3216   -1.2173 C   0  0  0  0  0  0  0  0  0  0  0  0
   -7.4623    2.0652   -1.0446 C   0  0  0  0  0  0  0  0  0  0  0  0
   -7.3951    3.4510   -1.5275 C   0  0  0  0  0  0  0  0  0  0  0  0
   -6.4393    3.6969   -2.4683 F   0  0  0  0  0  0  0  0  0  0  0  0
   -7.3290    4.3641   -0.4708 F   0  0  0  0  0  0  0  0  0  0  0  0
   -8.6202    3.7432   -2.1453 F   0  0  0  0  0  0  0  0  0  0  0  0
   -3.2132    0.6754   -0.0155 C   0  0  0  0  0  0  0  0  0  0  0  0
   -2.8864    0.3103   -1.3047 C   0  0  0  0  0  0  0  0  0  0  0  0
   -1.8538   -0.5786   -1.5493 C   0  0  0  0  0  0  0  0  0  0  0  0
   -1.0955   -1.1480   -0.5241 C   0  0  0  0  0  0  0  0  0  0  0  0
   -0.0482   -2.0696   -0.8837 C   0  0  0  0  0  0  0  0  0  0  0  0
    1.1305   -2.0590   -0.3031 C   0  0  0  0  0  0  0  0  0  0  0  0
    1.6900   -0.9424    1.0150 S   0  0  0  0  0  0  0  0  0  0  0  0
    3.0721   -1.9600    1.5116 C   0  0  0  0  0  0  0  0  0  0  0  0
    3.6690   -1.8615    2.6004 O   0  0  0  0  0  0  0  0  0  0  0  0
    3.2913   -2.8369    0.4279 N   0  0  0  0  0  0  0  0  0  0  0  0
    4.5359   -3.6317    0.3529 C   0  0  0  0  0  0  0  0  0  0  0  0
    5.5948   -2.8964   -0.3765 C   0  0  0  0  0  0  0  0  0  0  0  0
    6.7142   -3.4334   -0.5280 O   0  0  0  0  0  0  0  0  0  0  0  0
    5.3679   -1.6079   -0.9020 N   0  0  0  0  0  0  0  0  0  0  0  0
    6.6331   -0.7954   -1.7425 S   0  0  0  0  0  0  0  0  0  0  0  0
    7.7975   -1.7219   -1.9030 O   0  0  0  0  0  0  0  0  0  0  0  0
    6.1474   -0.3186   -3.1017 O   0  0  0  0  0  0  0  0  0  0  0  0
    7.1340    0.5901   -0.8559 N   0  0  0  0  0  0  0  0  0  0  0  0
    7.6439    0.1692    0.4291 C   0  0  0  0  0  0  0  0  0  0  0  0
    7.5520    1.4290    1.2492 C   0  0  0  0  0  0  0  0  0  0  0  0
    6.2962    2.0799    0.7400 C   0  0  0  0  0  0  0  0  0  0  0  0
    5.9853    1.4191   -0.5877 C   0  0  0  0  0  0  0  0  0  0  0  0
    2.2928   -2.9035   -0.5284 C   0  0  0  0  0  0  0  0  0  0  0  0
    2.3352   -3.6491   -1.5744 O   0  0  0  0  0  0  0  0  0  0  0  0
   -1.4365   -0.7724    0.7543 C   0  0  0  0  0  0  0  0  0  0  0  0
   -2.4639    0.1118    0.9965 C   0  0  0  0  0  0  0  0  0  0  0  0
   -1.5373    0.8996    3.7239 H   0  0  0  0  0  0  0  0  0  0  0  0
   -2.2161   -0.7809    3.6183 H   0  0  0  0  0  0  0  0  0  0  0  0
   -3.2006    0.6097    4.2914 H   0  0  0  0  0  0  0  0  0  0  0  0
   -5.2427    3.2410    0.2605 H   0  0  0  0  0  0  0  0  0  0  0  0
   -4.6734    2.5079   -1.2556 H   0  0  0  0  0  0  0  0  0  0  0  0
   -5.6559   -0.2711    0.4957 H   0  0  0  0  0  0  0  0  0  0  0  0
   -7.6817   -1.5429    0.1960 H   0  0  0  0  0  0  0  0  0  0  0  0
   -9.4899    1.7870   -1.7075 H   0  0  0  0  0  0  0  0  0  0  0  0
   -3.4786    0.7548   -2.0933 H   0  0  0  0  0  0  0  0  0  0  0  0
   -1.6272   -0.8414   -2.5730 H   0  0  0  0  0  0  0  0  0  0  0  0
   -0.1794   -2.8365   -1.6666 H   0  0  0  0  0  0  0  0  0  0  0  0
    4.8552   -3.9176    1.3832 H   0  0  0  0  0  0  0  0  0  0  0  0
    4.2935   -4.6089   -0.1443 H   0  0  0  0  0  0  0  0  0  0  0  0
    4.4221   -1.1699   -0.7666 H   0  0  0  0  0  0  0  0  0  0  0  0
    7.0121   -0.6470    0.8396 H   0  0  0  0  0  0  0  0  0  0  0  0
    8.6858   -0.1577    0.3723 H   0  0  0  0  0  0  0  0  0  0  0  0
    7.5067    1.2029    2.3345 H   0  0  0  0  0  0  0  0  0  0  0  0
    8.4053    2.0753    0.9916 H   0  0  0  0  0  0  0  0  0  0  0  0
    6.4501    3.1737    0.5303 H   0  0  0  0  0  0  0  0  0  0  0  0
    5.4350    1.9109    1.4153 H   0  0  0  0  0  0  0  0  0  0  0  0
    5.9062    2.1580   -1.4143 H   0  0  0  0  0  0  0  0  0  0  0  0
    5.0428    0.8512   -0.5477 H   0  0  0  0  0  0  0  0  0  0  0  0
   -0.9019   -1.1759    1.5982 H   0  0  0  0  0  0  0  0  0  0  0  0
  1  2  1  0
  2  3  2  0
  3  4  1  0
  4  5  1  0
  5  6  1  0
  6  7  2  0
  7  8  1  0
  8  9  2  0
  9 10  1  0
  9 11  1  0
 11 12  2  0
 12 13  1  0
 13 14  1  0
 13 15  1  0
 13 16  1  0
  4 17  1  0
 17 18  2  0
 18 19  1  0
 19 20  2  0
 20 21  1  0
 21 22  2  0
 22 23  1  0
 23 24  1  0
 24 25  2  0
 24 26  1  0
 26 27  1  0
 27 28  1  0
 28 29  2  0
 28 30  1  0
 30 31  1  0
 31 32  2  0
 31 33  2  0
 31 34  1  0
 34 35  1  0
 35 36  1  0
 36 37  1  0
 37 38  1  0
 26 39  1  0
 39 40  2  0
 20 41  1  0
 41 42  2  0
 42  2  1  0
 12  6  1  0
 42 17  1  0
 39 22  1  0
 38 34  1  0
  1 43  1  0
  1 44  1  0
  1 45  1  0
  5 46  1  0
  5 47  1  0
  7 48  1  0
  8 49  1  0
 11 50  1  0
 18 51  1  0
 19 52  1  0
 21 53  1  0
 27 54  1  0
 27 55  1  0
 30 56  1  0
 35 57  1  0
 35 58  1  0
 36 59  1  0
 36 60  1  0
 37 61  1  0
 37 62  1  0
 38 63  1  0
 38 64  1  0
 41 65  1  0
M  END
$$$$
[H]Oc1c([H])c([H])c2c(c1[H])OC([H])([H])c1c-2nc2c([H])c([H])c(O[H])c([H])c2c1-c1c([H])c([H])c(OC([H])([H])[H])c([H])c1[H]
     RDKit          3D

 45 49  0  0  0  0  0  0  0  0999 V2000
    6.1346    2.4499    0.3096 C   0  0  0  0  0  0  0  0  0  0  0  0
    5.1917    1.9379    1.1905 O   0  0  0  0  0  0  0  0  0  0  0  0
    3.9821    1.3468    0.8490 C   0  0  0  0  0  0  0  0  0  0  0  0
    3.1185    0.8704    1.8279 C   0  0  0  0  0  0  0  0  0  0  0  0
    1.9207    0.2851    1.4825 C   0  0  0  0  0  0  0  0  0  0  0  0
    1.5043    0.1336    0.1977 C   0  0  0  0  0  0  0  0  0  0  0  0
    2.3383    0.5950   -0.7726 C   0  0  0  0  0  0  0  0  0  0  0  0
    3.5389    1.1823   -0.4431 C   0  0  0  0  0  0  0  0  0  0  0  0
    0.2416   -0.4880   -0.0686 C   0  0  0  0  0  0  0  0  0  0  0  0
   -0.9187    0.3225    0.0060 C   0  0  0  0  0  0  0  0  0  0  0  0
   -0.7959    1.7141    0.3178 C   0  0  0  0  0  0  0  0  0  0  0  0
   -2.0039    2.3741    0.3979 O   0  0  0  0  0  0  0  0  0  0  0  0
   -3.2066    1.7701    0.1483 C   0  0  0  0  0  0  0  0  0  0  0  0
   -4.3937    2.5117    0.2194 C   0  0  0  0  0  0  0  0  0  0  0  0
   -5.6161    1.9271   -0.0271 C   0  0  0  0  0  0  0  0  0  0  0  0
   -6.8294    2.6370    0.0343 O   0  0  0  0  0  0  0  0  0  0  0  0
   -5.7208    0.5882   -0.3538 C   0  0  0  0  0  0  0  0  0  0  0  0
   -4.5432   -0.1683   -0.4290 C   0  0  0  0  0  0  0  0  0  0  0  0
   -3.3342    0.4417   -0.1777 C   0  0  0  0  0  0  0  0  0  0  0  0
   -2.0784   -0.3282   -0.2492 C   0  0  0  0  0  0  0  0  0  0  0  0
   -2.1599   -1.6650   -0.5595 N   0  0  0  0  0  0  0  0  0  0  0  0
   -1.0288   -2.3837   -0.6166 C   0  0  0  0  0  0  0  0  0  0  0  0
   -1.0445   -3.7392   -0.9250 C   0  0  0  0  0  0  0  0  0  0  0  0
    0.1194   -4.4749   -0.9827 C   0  0  0  0  0  0  0  0  0  0  0  0
    1.3567   -3.8796   -0.7320 C   0  0  0  0  0  0  0  0  0  0  0  0
    2.5374   -4.6049   -0.7855 O   0  0  0  0  0  0  0  0  0  0  0  0
    1.3967   -2.5709   -0.4319 C   0  0  0  0  0  0  0  0  0  0  0  0
    0.2088   -1.8258   -0.3744 C   0  0  0  0  0  0  0  0  0  0  0  0
    5.6442    2.8227   -0.5977 H   0  0  0  0  0  0  0  0  0  0  0  0
    6.8189    1.6059   -0.0003 H   0  0  0  0  0  0  0  0  0  0  0  0
    6.7320    3.2323    0.8289 H   0  0  0  0  0  0  0  0  0  0  0  0
    3.4416    0.9873    2.8731 H   0  0  0  0  0  0  0  0  0  0  0  0
    1.3397   -0.0455    2.3612 H   0  0  0  0  0  0  0  0  0  0  0  0
    2.0672    0.5071   -1.8611 H   0  0  0  0  0  0  0  0  0  0  0  0
    4.1944    1.5449   -1.2298 H   0  0  0  0  0  0  0  0  0  0  0  0
   -0.0664    2.0013    1.1014 H   0  0  0  0  0  0  0  0  0  0  0  0
   -0.2906    2.2036   -0.5972 H   0  0  0  0  0  0  0  0  0  0  0  0
   -4.3853    3.5601    0.4690 H   0  0  0  0  0  0  0  0  0  0  0  0
   -7.1970    3.1030   -0.7947 H   0  0  0  0  0  0  0  0  0  0  0  0
   -6.6604    0.0922   -0.5544 H   0  0  0  0  0  0  0  0  0  0  0  0
   -4.5921   -1.2300   -0.6848 H   0  0  0  0  0  0  0  0  0  0  0  0
   -1.9875   -4.2080   -1.1193 H   0  0  0  0  0  0  0  0  0  0  0  0
    0.1438   -5.5260   -1.2183 H   0  0  0  0  0  0  0  0  0  0  0  0
    2.5613   -5.6032   -1.0096 H   0  0  0  0  0  0  0  0  0  0  0  0
    2.3205   -2.0069   -0.2164 H   0  0  0  0  0  0  0  0  0  0  0  0
  1  2  1  0
  2  3  1  0
  3  4  2  0
  4  5  1  0
  5  6  2  0
  6  7  1  0
  7  8  2  0
  6  9  1  0
  9 10  2  0
 10 11  1  0
 11 12  1  0
 12 13  1  0
 13 14  2  0
 14 15  1  0
 15 16  1  0
 15 17  2  0
 17 18  1  0
 18 19  2  0
 19 20  1  0
 20 21  2  0
 21 22  1  0
 22 23  2  0
 23 24  1  0
 24 25  2  0
 25 26  1  0
 25 27  1  0
 27 28  2  0
  8  3  1  0
 28  9  1  0
 20 10  1  0
 28 22  1  0
 19 13  1  0
  1 29  1  0
  1 30  1  0
  1 31  1  0
  4 32  1  0
  5 33  1  0
  7 34  1  0
  8 35  1  0
 11 36  1  0
 11 37  1  0
 14 38  1  0
 16 39  1  0
 17 40  1  0
 18 41  1  0
 23 42  1  0
 24 43  1  0
 26 44  1  0
 27 45  1  0
M  END
$$$$
[H]/C(=C1/SC(=O)N(C([H])([H])C([H])([H])N2C([H])([H])C([H])([H])C([H])([H])C2([H])[H])C1=O)c1c([H])c([H])c2c(c([H])nn2C([H])([H])c2c([H])c([H])c(Cl)c([H])c2C(F)(F)F)c1[H]
     RDKit          3D

 58 62  0  0  0  0  0  0  0  0999 V2000
   -7.4904   -2.3935   -2.0155 F   0  0  0  0  0  0  0  0  0  0  0  0
   -6.7806   -1.8708   -0.8922 C   0  0  0  0  0  0  0  0  0  0  0  0
   -7.0769   -2.6708    0.1430 F   0  0  0  0  0  0  0  0  0  0  0  0
   -5.4589   -2.0275   -1.3751 F   0  0  0  0  0  0  0  0  0  0  0  0
   -7.1624   -0.4506   -0.7832 C   0  0  0  0  0  0  0  0  0  0  0  0
   -7.9035    0.0972   -1.8582 C   0  0  0  0  0  0  0  0  0  0  0  0
   -8.2897    1.4162   -1.7993 C   0  0  0  0  0  0  0  0  0  0  0  0
   -9.2039    2.0832   -3.1363 Cl  0  0  0  0  0  0  0  0  0  0  0  0
   -7.9725    2.2111   -0.7171 C   0  0  0  0  0  0  0  0  0  0  0  0
   -7.2629    1.6558    0.2931 C   0  0  0  0  0  0  0  0  0  0  0  0
   -6.8332    0.2960    0.2875 C   0  0  0  0  0  0  0  0  0  0  0  0
   -6.0282   -0.0607    1.4518 C   0  0  0  0  0  0  0  0  0  0  0  0
   -4.6484    0.3863    1.4085 N   0  0  0  0  0  0  0  0  0  0  0  0
   -4.3408    1.7176    1.5369 N   0  0  0  0  0  0  0  0  0  0  0  0
   -3.0516    1.9385    1.4022 C   0  0  0  0  0  0  0  0  0  0  0  0
   -2.4377    0.7282    1.1698 C   0  0  0  0  0  0  0  0  0  0  0  0
   -1.1185    0.3401    0.9824 C   0  0  0  0  0  0  0  0  0  0  0  0
   -0.8196   -0.9923    0.8119 C   0  0  0  0  0  0  0  0  0  0  0  0
    0.5730   -1.3634    0.5963 C   0  0  0  0  0  0  0  0  0  0  0  0
    1.3908   -0.8024   -0.2566 C   0  0  0  0  0  0  0  0  0  0  0  0
    0.9876    0.5408   -1.3537 S   0  0  0  0  0  0  0  0  0  0  0  0
    2.6822    0.8248   -1.9199 C   0  0  0  0  0  0  0  0  0  0  0  0
    3.0731    1.7943   -2.6372 O   0  0  0  0  0  0  0  0  0  0  0  0
    3.4335   -0.2459   -1.3916 N   0  0  0  0  0  0  0  0  0  0  0  0
    4.8541   -0.4123   -1.7777 C   0  0  0  0  0  0  0  0  0  0  0  0
    5.6330    0.3847   -0.7823 C   0  0  0  0  0  0  0  0  0  0  0  0
    7.0440    0.3834   -0.9017 N   0  0  0  0  0  0  0  0  0  0  0  0
    7.7140   -0.8317   -0.5858 C   0  0  0  0  0  0  0  0  0  0  0  0
    8.6419   -0.5831    0.5665 C   0  0  0  0  0  0  0  0  0  0  0  0
    8.8074    0.8998    0.5853 C   0  0  0  0  0  0  0  0  0  0  0  0
    7.5750    1.4400   -0.0559 C   0  0  0  0  0  0  0  0  0  0  0  0
    2.7779   -1.1041   -0.5225 C   0  0  0  0  0  0  0  0  0  0  0  0
    3.3314   -2.1167    0.0357 O   0  0  0  0  0  0  0  0  0  0  0  0
   -1.8306   -1.9271    0.8299 C   0  0  0  0  0  0  0  0  0  0  0  0
   -3.1163   -1.5092    1.0144 C   0  0  0  0  0  0  0  0  0  0  0  0
   -3.4813   -0.1996    1.1860 C   0  0  0  0  0  0  0  0  0  0  0  0
   -8.1490   -0.5321   -2.7107 H   0  0  0  0  0  0  0  0  0  0  0  0
   -8.3053    3.2333   -0.7506 H   0  0  0  0  0  0  0  0  0  0  0  0
   -6.9991    2.2649    1.1486 H   0  0  0  0  0  0  0  0  0  0  0  0
   -6.5034    0.3602    2.3856 H   0  0  0  0  0  0  0  0  0  0  0  0
   -5.9857   -1.1488    1.6495 H   0  0  0  0  0  0  0  0  0  0  0  0
   -2.4841    2.8730    1.4459 H   0  0  0  0  0  0  0  0  0  0  0  0
   -0.3412    1.0926    0.9718 H   0  0  0  0  0  0  0  0  0  0  0  0
    0.9779   -2.1844    1.2016 H   0  0  0  0  0  0  0  0  0  0  0  0
    5.0121   -0.0573   -2.8040 H   0  0  0  0  0  0  0  0  0  0  0  0
    5.0510   -1.4943   -1.7779 H   0  0  0  0  0  0  0  0  0  0  0  0
    5.3469    0.1632    0.2579 H   0  0  0  0  0  0  0  0  0  0  0  0
    5.3034    1.4614   -0.9364 H   0  0  0  0  0  0  0  0  0  0  0  0
    7.0355   -1.6595   -0.2922 H   0  0  0  0  0  0  0  0  0  0  0  0
    8.3385   -1.1869   -1.4492 H   0  0  0  0  0  0  0  0  0  0  0  0
    9.6535   -1.0572    0.4219 H   0  0  0  0  0  0  0  0  0  0  0  0
    8.1615   -0.9759    1.4948 H   0  0  0  0  0  0  0  0  0  0  0  0
    9.7015    1.1777   -0.0137 H   0  0  0  0  0  0  0  0  0  0  0  0
    8.9188    1.2841    1.6403 H   0  0  0  0  0  0  0  0  0  0  0  0
    7.6955    2.3911   -0.5694 H   0  0  0  0  0  0  0  0  0  0  0  0
    6.8255    1.6212    0.7736 H   0  0  0  0  0  0  0  0  0  0  0  0
   -1.5385   -2.9556    0.6919 H   0  0  0  0  0  0  0  0  0  0  0  0
   -3.9263   -2.2469    1.0403 H   0  0  0  0  0  0  0  0  0  0  0  0
  1  2  1  0
  2  3  1  0
  2  4  1  0
  2  5  1  0
  5  6  2  0
  6  7  1  0
  7  8  1  0
  7  9  2  0
  9 10  1  0
 10 11  2  0
 11 12  1  0
 12 13  1  0
 13 14  1  0
 14 15  2  0
 15 16  1  0
 16 17  2  0
 17 18  1  0
 18 19  1  0
 19 20  2  0
 20 21  1  0
 21 22  1  0
 22 23  2  0
 22 24  1  0
 24 25  1  0
 25 26  1  0
 26 27  1  0
 27 28  1  0
 28 29  1  0
 29 30  1  0
 30 31  1  0
 24 32  1  0
 32 33  2  0
 18 34  2  0
 34 35  1  0
 35 36  2  0
 11  5  1  0
 36 13  1  0
 36 16  1  0
 32 20  1  0
 31 27  1  0
  6 37  1  0
  9 38  1  0
 10 39  1  0
 12 40  1  0
 12 41  1  0
 15 42  1  0
 17 43  1  0
 19 44  1  0
 25 45  1  0
 25 46  1  0
 26 47  1  0
 26 48  1  0
 28 49  1  0
 28 50  1  0
 29 51  1  0
 29 52  1  0
 30 53  1  0
 30 54  1  0
 31 55  1  0
 31 56  1  0
 34 57  1  0
 35 58  1  0
M  END
$$$$
[H]/C(=C1/SC(=O)N(C([H])([H])S(=O)(=O)N([H])C(=O)C([H])([H])[H])C1=O)c1c([H])c([H])c2c(c([H])nn2C([H])([H])c2c([H])c([H])c(Cl)c([H])c2C(F)(F)F)c1[H]
     RDKit          3D

 53 56  0  0  0  0  0  0  0  0999 V2000
    8.0770    2.7156   -0.1150 C   0  0  0  0  0  0  0  0  0  0  0  0
    8.1340    1.2297   -0.0107 C   0  0  0  0  0  0  0  0  0  0  0  0
    9.2578    0.6553   -0.1291 O   0  0  0  0  0  0  0  0  0  0  0  0
    6.9947    0.4241    0.2165 N   0  0  0  0  0  0  0  0  0  0  0  0
    7.1444   -1.2627    0.3367 S   0  0  0  0  0  0  0  0  0  0  0  0
    6.9328   -1.6436    1.8017 O   0  0  0  0  0  0  0  0  0  0  0  0
    8.5930   -1.6585    0.0620 O   0  0  0  0  0  0  0  0  0  0  0  0
    6.0542   -2.2111   -0.6348 C   0  0  0  0  0  0  0  0  0  0  0  0
    4.6421   -1.9510   -0.3516 N   0  0  0  0  0  0  0  0  0  0  0  0
    3.9874   -2.6846    0.6687 C   0  0  0  0  0  0  0  0  0  0  0  0
    4.3206   -3.7714    1.2176 O   0  0  0  0  0  0  0  0  0  0  0  0
    2.5066   -1.6779    1.0249 S   0  0  0  0  0  0  0  0  0  0  0  0
    2.4823   -0.9651   -0.6172 C   0  0  0  0  0  0  0  0  0  0  0  0
    1.4445   -0.5034   -1.2372 C   0  0  0  0  0  0  0  0  0  0  0  0
    0.0861   -0.4709   -0.7085 C   0  0  0  0  0  0  0  0  0  0  0  0
   -0.9765   -0.9618   -1.4281 C   0  0  0  0  0  0  0  0  0  0  0  0
   -2.2606   -0.8755   -0.9294 C   0  0  0  0  0  0  0  0  0  0  0  0
   -2.5666   -0.3063    0.2903 C   0  0  0  0  0  0  0  0  0  0  0  0
   -3.7040   -0.0867    0.9984 N   0  0  0  0  0  0  0  0  0  0  0  0
   -5.0101   -0.5349    0.6726 C   0  0  0  0  0  0  0  0  0  0  0  0
   -5.8883    0.1156   -0.2623 C   0  0  0  0  0  0  0  0  0  0  0  0
   -6.0505   -0.4758   -1.5311 C   0  0  0  0  0  0  0  0  0  0  0  0
   -6.9002   -0.0334   -2.4911 C   0  0  0  0  0  0  0  0  0  0  0  0
   -7.6738    1.0694   -2.2394 C   0  0  0  0  0  0  0  0  0  0  0  0
   -8.7640    1.6412   -3.4644 Cl  0  0  0  0  0  0  0  0  0  0  0  0
   -7.5281    1.6576   -1.0109 C   0  0  0  0  0  0  0  0  0  0  0  0
   -6.6579    1.2182   -0.0103 C   0  0  0  0  0  0  0  0  0  0  0  0
   -6.6130    2.0460    1.1981 C   0  0  0  0  0  0  0  0  0  0  0  0
   -5.4728    2.8118    1.3431 F   0  0  0  0  0  0  0  0  0  0  0  0
   -6.8484    1.2962    2.3515 F   0  0  0  0  0  0  0  0  0  0  0  0
   -7.6483    2.9507    1.1872 F   0  0  0  0  0  0  0  0  0  0  0  0
   -3.3334    0.5179    2.1020 N   0  0  0  0  0  0  0  0  0  0  0  0
   -2.0159    0.7048    2.1578 C   0  0  0  0  0  0  0  0  0  0  0  0
   -1.4929    0.1829    1.0014 C   0  0  0  0  0  0  0  0  0  0  0  0
   -0.1946    0.1034    0.5166 C   0  0  0  0  0  0  0  0  0  0  0  0
    3.8625   -1.0305   -1.0498 C   0  0  0  0  0  0  0  0  0  0  0  0
    4.2818   -0.2797   -2.0021 O   0  0  0  0  0  0  0  0  0  0  0  0
    7.0605    3.0322    0.1557 H   0  0  0  0  0  0  0  0  0  0  0  0
    8.8027    3.1221    0.6225 H   0  0  0  0  0  0  0  0  0  0  0  0
    8.3539    3.0612   -1.1267 H   0  0  0  0  0  0  0  0  0  0  0  0
    6.0777    0.9097    0.3077 H   0  0  0  0  0  0  0  0  0  0  0  0
    6.3138   -3.2878   -0.5626 H   0  0  0  0  0  0  0  0  0  0  0  0
    6.2112   -1.9261   -1.7077 H   0  0  0  0  0  0  0  0  0  0  0  0
    1.5962   -0.0977   -2.2455 H   0  0  0  0  0  0  0  0  0  0  0  0
   -0.7945   -1.4157   -2.3855 H   0  0  0  0  0  0  0  0  0  0  0  0
   -3.0453   -1.2708   -1.5215 H   0  0  0  0  0  0  0  0  0  0  0  0
   -4.8445   -1.6126    0.3247 H   0  0  0  0  0  0  0  0  0  0  0  0
   -5.5792   -0.7844    1.6531 H   0  0  0  0  0  0  0  0  0  0  0  0
   -5.4285   -1.3614   -1.7373 H   0  0  0  0  0  0  0  0  0  0  0  0
   -6.9670   -0.5406   -3.4405 H   0  0  0  0  0  0  0  0  0  0  0  0
   -8.1573    2.5419   -0.8300 H   0  0  0  0  0  0  0  0  0  0  0  0
   -1.3971    1.1798    2.9312 H   0  0  0  0  0  0  0  0  0  0  0  0
    0.5952    0.4948    1.1086 H   0  0  0  0  0  0  0  0  0  0  0  0
  1  2  1  0
  2  3  2  0
  2  4  1  0
  4  5  1  0
  5  6  2  0
  5  7  2  0
  5  8  1  0
  8  9  1  0
  9 10  1  0
 10 11  2  0
 10 12  1  0
 12 13  1  0
 13 14  2  0
 14 15  1  0
 15 16  2  0
 16 17  1  0
 17 18  2  0
 18 19  1  0
 19 20  1  0
 20 21  1  0
 21 22  2  0
 22 23  1  0
 23 24  2  0
 24 25  1  0
 24 26  1  0
 26 27  2  0
 27 28  1  0
 28 29  1  0
 28 30  1  0
 28 31  1  0
 19 32  1  0
 32 33  2  0
 33 34  1  0
 34 35  2  0
 13 36  1  0
 36 37  2  0
 36  9  1  0
 35 15  1  0
 34 18  1  0
 27 21  1  0
  1 38  1  0
  1 39  1  0
  1 40  1  0
  4 41  1  0
  8 42  1  0
  8 43  1  0
 14 44  1  0
 16 45  1  0
 17 46  1  0
 20 47  1  0
 20 48  1  0
 22 49  1  0
 23 50  1  0
 26 51  1  0
 33 52  1  0
 35 53  1  0
M  END
$$$$
[H]C1=C([H])C(C([H])([H])C([H])([H])C(=O)N([H])C([H])([H])C([H])([H])C([H])([H])C([H])([H])C([H])([H])Oc2c([H])c([H])c([H])c(C([H])([H])n3nc(C([H])([H])[H])c4c([H])c(C(=O)N5C([H])([H])C([H])([H])N(c6nc([H])c(C(=O)C([H])([H])[H])c([H])c6[H])[C@]([H])(C([H])([H])[H])C5([H])[H])sc43)c2[H])=[N+]2C1=C([H])c1c(C([H])([H])[H])c([H])c(C([H])([H])[H])n1[B-]2(F)F
     RDKit          3D

112119  0  0  0  0  0  0  0  0999 V2000
    9.4314    1.3778    1.9416 C   0  0  0  0  0  0  0  0  0  0  0  0
    9.9810    0.7709    0.6489 C   0  0  2  0  0  0  0  0  0  0  0  0
    8.8525    0.4920   -0.3181 C   0  0  0  0  0  0  0  0  0  0  0  0
    8.1361   -0.6793   -0.0356 N   0  0  0  0  0  0  0  0  0  0  0  0
    8.8714   -1.9360    0.2399 C   0  0  0  0  0  0  0  0  0  0  0  0
   10.2177   -1.7513    0.7794 C   0  0  0  0  0  0  0  0  0  0  0  0
   10.6973   -0.4214    0.9857 N   0  0  0  0  0  0  0  0  0  0  0  0
   12.0035   -0.3012    1.5523 C   0  0  0  0  0  0  0  0  0  0  0  0
   12.2034   -0.8996    2.8381 C   0  0  0  0  0  0  0  0  0  0  0  0
   13.4426   -0.8252    3.4171 C   0  0  0  0  0  0  0  0  0  0  0  0
   14.5025   -0.2083    2.8177 C   0  0  0  0  0  0  0  0  0  0  0  0
   14.2880    0.3714    1.5475 C   0  0  0  0  0  0  0  0  0  0  0  0
   13.0607    0.2683    1.0350 N   0  0  0  0  0  0  0  0  0  0  0  0
   15.8036   -0.1017    3.4261 C   0  0  0  0  0  0  0  0  0  0  0  0
   16.9156    0.7279    2.9459 C   0  0  0  0  0  0  0  0  0  0  0  0
   16.0227   -0.7483    4.4887 O   0  0  0  0  0  0  0  0  0  0  0  0
    6.7511   -0.7894   -0.0061 C   0  0  0  0  0  0  0  0  0  0  0  0
    6.3040   -2.0008    0.2350 O   0  0  0  0  0  0  0  0  0  0  0  0
    5.6690    0.1524   -0.1964 C   0  0  0  0  0  0  0  0  0  0  0  0
    5.5527    1.5074   -0.2582 C   0  0  0  0  0  0  0  0  0  0  0  0
    4.3693    2.0311   -0.6645 C   0  0  0  0  0  0  0  0  0  0  0  0
    3.8320    3.3199   -0.9463 C   0  0  0  0  0  0  0  0  0  0  0  0
    4.4637    4.6374   -0.8032 C   0  0  0  0  0  0  0  0  0  0  0  0
    2.5873    3.1132   -1.4038 N   0  0  0  0  0  0  0  0  0  0  0  0
    2.2610    1.8458   -1.4531 N   0  0  0  0  0  0  0  0  0  0  0  0
    1.0992    1.2237   -1.8964 C   0  0  0  0  0  0  0  0  0  0  0  0
   -0.1706    1.3500   -1.0718 C   0  0  0  0  0  0  0  0  0  0  0  0
   -0.6539    2.5850   -0.9523 C   0  0  0  0  0  0  0  0  0  0  0  0
   -2.0117    2.7815   -0.5332 C   0  0  0  0  0  0  0  0  0  0  0  0
   -2.7206    1.5963   -0.2685 C   0  0  0  0  0  0  0  0  0  0  0  0
   -2.2239    0.3424   -0.3785 C   0  0  0  0  0  0  0  0  0  0  0  0
   -2.9077   -0.7973   -0.1512 O   0  0  0  0  0  0  0  0  0  0  0  0
   -3.4424   -1.9077    0.0401 C   0  0  0  0  0  0  0  0  0  0  0  0
   -3.1978   -3.0130   -0.9814 C   0  0  0  0  0  0  0  0  0  0  0  0
   -3.5790   -2.7535   -2.3702 C   0  0  0  0  0  0  0  0  0  0  0  0
   -5.0613   -2.5229   -2.6376 C   0  0  0  0  0  0  0  0  0  0  0  0
   -5.7986   -3.8161   -2.2411 C   0  0  0  0  0  0  0  0  0  0  0  0
   -7.1882   -3.7340   -2.3131 N   0  0  0  0  0  0  0  0  0  0  0  0
   -8.5448   -3.6680   -2.3742 C   0  0  0  0  0  0  0  0  0  0  0  0
   -9.1073   -4.6724   -1.6514 O   0  0  0  0  0  0  0  0  0  0  0  0
   -9.4133   -2.7710   -3.0694 C   0  0  0  0  0  0  0  0  0  0  0  0
  -10.0489   -1.5823   -2.5511 C   0  0  0  0  0  0  0  0  0  0  0  0
  -10.8187   -1.5687   -1.3421 C   0  0  0  0  0  0  0  0  0  0  0  0
  -10.7910   -0.5461   -0.4906 N   0  0  0  0  0  0  0  0  0  0  0  0
  -11.6744   -0.8997    0.5428 C   0  0  0  0  0  0  0  0  0  0  0  0
  -12.2622   -2.2028    0.2730 C   0  0  0  0  0  0  0  0  0  0  0  0
  -11.7399   -2.5852   -0.8476 C   0  0  0  0  0  0  0  0  0  0  0  0
  -11.8469   -0.0608    1.5854 C   0  0  0  0  0  0  0  0  0  0  0  0
  -11.1451    1.2091    1.6648 C   0  0  0  0  0  0  0  0  0  0  0  0
  -11.2015    2.1694    2.6613 C   0  0  0  0  0  0  0  0  0  0  0  0
  -12.0243    2.0805    3.9003 C   0  0  0  0  0  0  0  0  0  0  0  0
  -10.3407    3.1664    2.2589 C   0  0  0  0  0  0  0  0  0  0  0  0
   -9.7754    2.8212    1.0536 C   0  0  0  0  0  0  0  0  0  0  0  0
   -8.8122    3.5374    0.2030 C   0  0  0  0  0  0  0  0  0  0  0  0
  -10.3090    1.5801    0.7046 N   0  0  0  0  0  0  0  0  0  0  0  0
  -10.0406    0.7294   -0.5103 B   0  0  0  0  0  0  0  0  0  0  0  0
   -8.5613    0.4965   -0.5068 F   0  0  0  0  0  0  0  0  0  0  0  0
  -10.3726    1.5504   -1.6813 F   0  0  0  0  0  0  0  0  0  0  0  0
   -0.8761    0.1701   -0.7963 C   0  0  0  0  0  0  0  0  0  0  0  0
    3.3823    1.2017   -0.9812 C   0  0  0  0  0  0  0  0  0  0  0  0
    4.0480   -0.3401   -0.7264 S   0  0  0  0  0  0  0  0  0  0  0  0
    9.7961    0.8044    2.7967 H   0  0  0  0  0  0  0  0  0  0  0  0
    8.3098    1.3000    1.9185 H   0  0  0  0  0  0  0  0  0  0  0  0
    9.6645    2.4566    2.0331 H   0  0  0  0  0  0  0  0  0  0  0  0
   10.6668    1.5091    0.1940 H   0  0  0  0  0  0  0  0  0  0  0  0
    8.3496    1.3970   -0.5726 H   0  0  0  0  0  0  0  0  0  0  0  0
    9.4358    0.2453   -1.3091 H   0  0  0  0  0  0  0  0  0  0  0  0
    8.9148   -2.4272   -0.7790 H   0  0  0  0  0  0  0  0  0  0  0  0
    8.2148   -2.5888    0.8605 H   0  0  0  0  0  0  0  0  0  0  0  0
   10.9943   -2.2346    0.1087 H   0  0  0  0  0  0  0  0  0  0  0  0
   10.2991   -2.3224    1.7508 H   0  0  0  0  0  0  0  0  0  0  0  0
   11.3621   -1.3859    3.2448 H   0  0  0  0  0  0  0  0  0  0  0  0
   13.6126   -1.2887    4.4142 H   0  0  0  0  0  0  0  0  0  0  0  0
   15.0831    0.8153    1.0270 H   0  0  0  0  0  0  0  0  0  0  0  0
   17.4083    1.3446    3.7487 H   0  0  0  0  0  0  0  0  0  0  0  0
   17.7300    0.1065    2.4975 H   0  0  0  0  0  0  0  0  0  0  0  0
   16.5689    1.4217    2.1144 H   0  0  0  0  0  0  0  0  0  0  0  0
    6.4041    2.1741    0.0501 H   0  0  0  0  0  0  0  0  0  0  0  0
    4.7496    4.8553    0.2348 H   0  0  0  0  0  0  0  0  0  0  0  0
    5.2964    4.8200   -1.5372 H   0  0  0  0  0  0  0  0  0  0  0  0
    3.6860    5.4191   -1.0648 H   0  0  0  0  0  0  0  0  0  0  0  0
    0.7864    1.6194   -2.9044 H   0  0  0  0  0  0  0  0  0  0  0  0
    1.2694    0.1077   -2.0868 H   0  0  0  0  0  0  0  0  0  0  0  0
   -0.0599    3.4676   -1.1390 H   0  0  0  0  0  0  0  0  0  0  0  0
   -2.3843    3.7581   -0.4598 H   0  0  0  0  0  0  0  0  0  0  0  0
   -3.7820    1.6996    0.0560 H   0  0  0  0  0  0  0  0  0  0  0  0
   -4.6282   -1.8292    0.0331 H   0  0  0  0  0  0  0  0  0  0  0  0
   -3.3310   -2.4233    1.0602 H   0  0  0  0  0  0  0  0  0  0  0  0
   -2.0727   -3.1643   -0.9701 H   0  0  0  0  0  0  0  0  0  0  0  0
   -3.6126   -3.9537   -0.5237 H   0  0  0  0  0  0  0  0  0  0  0  0
   -2.9867   -1.8937   -2.8019 H   0  0  0  0  0  0  0  0  0  0  0  0
   -3.2793   -3.6404   -2.9767 H   0  0  0  0  0  0  0  0  0  0  0  0
   -5.1913   -2.2925   -3.7011 H   0  0  0  0  0  0  0  0  0  0  0  0
   -5.5167   -1.7252   -2.0657 H   0  0  0  0  0  0  0  0  0  0  0  0
   -5.2637   -4.3942   -1.5180 H   0  0  0  0  0  0  0  0  0  0  0  0
   -5.5777   -4.4331   -3.2963 H   0  0  0  0  0  0  0  0  0  0  0  0
   -7.2304   -4.7654   -1.3900 H   0  0  0  0  0  0  0  0  0  0  0  0
   -8.9448   -2.5151   -4.1136 H   0  0  0  0  0  0  0  0  0  0  0  0
  -10.2986   -3.4542   -3.4886 H   0  0  0  0  0  0  0  0  0  0  0  0
  -10.8133   -1.2790   -3.3784 H   0  0  0  0  0  0  0  0  0  0  0  0
   -9.3834   -0.6446   -2.6586 H   0  0  0  0  0  0  0  0  0  0  0  0
  -12.9606   -2.7218    0.8871 H   0  0  0  0  0  0  0  0  0  0  0  0
  -11.9756   -3.5275   -1.3523 H   0  0  0  0  0  0  0  0  0  0  0  0
  -12.5205   -0.3649    2.3691 H   0  0  0  0  0  0  0  0  0  0  0  0
  -12.6314    3.0199    3.9377 H   0  0  0  0  0  0  0  0  0  0  0  0
  -11.2954    2.1129    4.7531 H   0  0  0  0  0  0  0  0  0  0  0  0
  -12.6127    1.1495    3.9480 H   0  0  0  0  0  0  0  0  0  0  0  0
  -10.1019    4.0975    2.7828 H   0  0  0  0  0  0  0  0  0  0  0  0
   -7.8657    3.7993    0.7279 H   0  0  0  0  0  0  0  0  0  0  0  0
   -9.2871    4.5026   -0.1663 H   0  0  0  0  0  0  0  0  0  0  0  0
   -8.6093    2.9563   -0.7574 H   0  0  0  0  0  0  0  0  0  0  0  0
   -0.4732   -0.7921   -0.8777 H   0  0  0  0  0  0  0  0  0  0  0  0
  1  2  1  0
  2  3  1  0
  3  4  1  0
  4  5  1  0
  5  6  1  0
  6  7  1  0
  7  8  1  0
  8  9  2  0
  9 10  1  0
 10 11  2  0
 11 12  1  0
 12 13  2  0
 11 14  1  0
 14 15  1  0
 14 16  2  0
  4 17  1  0
 17 18  2  0
 17 19  1  0
 19 20  2  0
 20 21  1  0
 21 22  1  0
 22 23  1  0
 22 24  2  0
 24 25  1  0
 25 26  1  0
 26 27  1  0
 27 28  2  0
 28 29  1  0
 29 30  2  0
 30 31  1  0
 31 32  1  0
 32 33  1  0
 33 34  1  0
 34 35  1  0
 35 36  1  0
 36 37  1  0
 37 38  1  0
 38 39  1  0
 39 40  2  0
 39 41  1  0
 41 42  1  0
 42 43  1  0
 43 44  2  0
 44 45  1  0
 45 46  1  0
 46 47  2  0
 45 48  2  0
 48 49  1  0
 49 50  2  0
 50 51  1  0
 50 52  1  0
 52 53  2  0
 53 54  1  0
 53 55  1  0
 55 56  1  0
 56 57  1  0
 56 58  1  0
 31 59  2  0
 25 60  1  0
 60 61  1  0
  7  2  1  0
 13  8  1  0
 61 19  1  0
 60 21  2  0
 59 27  1  0
 47 43  1  0
 55 49  1  0
 56 44  1  0
  1 62  1  0
  1 63  1  0
  1 64  1  0
  2 65  1  6
  3 66  1  0
  3 67  1  0
  5 68  1  0
  5 69  1  0
  6 70  1  0
  6 71  1  0
  9 72  1  0
 10 73  1  0
 12 74  1  0
 15 75  1  0
 15 76  1  0
 15 77  1  0
 20 78  1  0
 23 79  1  0
 23 80  1  0
 23 81  1  0
 26 82  1  0
 26 83  1  0
 28 84  1  0
 29 85  1  0
 30 86  1  0
 33 87  1  0
 33 88  1  0
 34 89  1  0
 34 90  1  0
 35 91  1  0
 35 92  1  0
 36 93  1  0
 36 94  1  0
 37 95  1  0
 37 96  1  0
 38 97  1  0
 41 98  1  0
 41 99  1  0
 42100  1  0
 42101  1  0
 46102  1  0
 47103  1  0
 48104  1  0
 51105  1  0
 51106  1  0
 51107  1  0
 52108  1  0
 54109  1  0
 54110  1  0
 54111  1  0
 59112  1  0
M  CHG  2  44   1  56  -1
M  END
$$$$
[H]Oc1c([H])c([H])c(-c2nc3c([H])c([H])c(O[H])c([H])c3c(C#N)c2[H])c([H])c1[H]
     RDKit          3D

 30 32  0  0  0  0  0  0  0  0999 V2000
   -5.9730    1.5832   -0.1374 O   0  0  0  0  0  0  0  0  0  0  0  0
   -4.6343    1.1725   -0.1006 C   0  0  0  0  0  0  0  0  0  0  0  0
   -4.2976   -0.1588   -0.0329 C   0  0  0  0  0  0  0  0  0  0  0  0
   -2.9673   -0.5993    0.0052 C   0  0  0  0  0  0  0  0  0  0  0  0
   -1.9352    0.2973   -0.0240 C   0  0  0  0  0  0  0  0  0  0  0  0
   -2.2903    1.6487   -0.0928 C   0  0  0  0  0  0  0  0  0  0  0  0
   -3.5968    2.0782   -0.1302 C   0  0  0  0  0  0  0  0  0  0  0  0
   -0.5295   -0.0854    0.0124 C   0  0  0  0  0  0  0  0  0  0  0  0
   -0.1337   -1.3950    0.0797 C   0  0  0  0  0  0  0  0  0  0  0  0
    1.1928   -1.7867    0.1155 C   0  0  0  0  0  0  0  0  0  0  0  0
    1.5522   -3.1912    0.1869 C   0  0  0  0  0  0  0  0  0  0  0  0
    1.8428   -4.3106    0.2500 N   0  0  0  0  0  0  0  0  0  0  0  0
    2.1460   -0.8109    0.0816 C   0  0  0  0  0  0  0  0  0  0  0  0
    3.4699   -1.2083    0.1176 C   0  0  0  0  0  0  0  0  0  0  0  0
    4.4569   -0.2648    0.0856 C   0  0  0  0  0  0  0  0  0  0  0  0
    5.8023   -0.6201    0.1199 O   0  0  0  0  0  0  0  0  0  0  0  0
    4.1009    1.0655    0.0178 C   0  0  0  0  0  0  0  0  0  0  0  0
    2.7644    1.4526   -0.0179 C   0  0  0  0  0  0  0  0  0  0  0  0
    1.7533    0.5083    0.0138 C   0  0  0  0  0  0  0  0  0  0  0  0
    0.4533    0.8432   -0.0189 N   0  0  0  0  0  0  0  0  0  0  0  0
   -6.4978    1.7823    0.7210 H   0  0  0  0  0  0  0  0  0  0  0  0
   -5.1016   -0.8830   -0.0090 H   0  0  0  0  0  0  0  0  0  0  0  0
   -2.7770   -1.6597    0.0581 H   0  0  0  0  0  0  0  0  0  0  0  0
   -1.4737    2.3543   -0.1158 H   0  0  0  0  0  0  0  0  0  0  0  0
   -3.8633    3.1305   -0.1836 H   0  0  0  0  0  0  0  0  0  0  0  0
   -0.8780   -2.1817    0.1074 H   0  0  0  0  0  0  0  0  0  0  0  0
    3.7355   -2.2608    0.1710 H   0  0  0  0  0  0  0  0  0  0  0  0
    6.2948   -0.7885   -0.7374 H   0  0  0  0  0  0  0  0  0  0  0  0
    4.8851    1.8030   -0.0070 H   0  0  0  0  0  0  0  0  0  0  0  0
    2.4990    2.4853   -0.0704 H   0  0  0  0  0  0  0  0  0  0  0  0
  1  2  1  0
  2  3  2  0
  3  4  1  0
  4  5  2  0
  5  6  1  0
  6  7  2  0
  5  8  1  0
  8  9  2  0
  9 10  1  0
 10 11  1  0
 11 12  3  0
 10 13  2  0
 13 14  1  0
 14 15  2  0
 15 16  1  0
 15 17  1  0
 17 18  2  0
 18 19  1  0
 19 20  2  0
  7  2  1  0
 20  8  1  0
 19 13  1  0
  1 21  1  0
  3 22  1  0
  4 23  1  0
  6 24  1  0
  7 25  1  0
  9 26  1  0
 14 27  1  0
 16 28  1  0
 17 29  1  0
 18 30  1  0
M  END
$$$$
[H]OC(=O)C1([H])C([H])([H])C([H])([H])C([H])(N2C(=O)S/C(=C(/[H])c3c([H])c([H])c4c(c([H])nn4C([H])([H])c4c([H])c([H])c(OC([H])([H])[H])c([H])c4C(F)(F)F)c3[H])C2=O)C([H])([H])C1([H])[H]
     RDKit          3D

 63 67  0  0  0  0  0  0  0  0999 V2000
    9.4116    2.1352    2.2208 C   0  0  0  0  0  0  0  0  0  0  0  0
    9.0396    2.1693    0.8650 O   0  0  0  0  0  0  0  0  0  0  0  0
    8.1500    1.2761    0.3048 C   0  0  0  0  0  0  0  0  0  0  0  0
    7.7968    1.3370   -1.0149 C   0  0  0  0  0  0  0  0  0  0  0  0
    6.9129    0.4402   -1.5294 C   0  0  0  0  0  0  0  0  0  0  0  0
    6.3170   -0.5841   -0.7650 C   0  0  0  0  0  0  0  0  0  0  0  0
    5.3358   -1.3731   -1.4793 C   0  0  0  0  0  0  0  0  0  0  0  0
    4.0490   -0.7033   -1.5721 N   0  0  0  0  0  0  0  0  0  0  0  0
    3.8722    0.3682   -2.4095 N   0  0  0  0  0  0  0  0  0  0  0  0
    2.6378    0.8606   -2.2457 C   0  0  0  0  0  0  0  0  0  0  0  0
    1.9884    0.1067   -1.2908 C   0  0  0  0  0  0  0  0  0  0  0  0
    0.7247    0.1682   -0.7600 C   0  0  0  0  0  0  0  0  0  0  0  0
    0.3060   -0.7354    0.1895 C   0  0  0  0  0  0  0  0  0  0  0  0
   -1.0232   -0.6693    0.7760 C   0  0  0  0  0  0  0  0  0  0  0  0
   -2.1068   -0.4492    0.0558 C   0  0  0  0  0  0  0  0  0  0  0  0
   -2.1795   -0.2039   -1.7213 S   0  0  0  0  0  0  0  0  0  0  0  0
   -3.9351    0.0787   -1.8037 C   0  0  0  0  0  0  0  0  0  0  0  0
   -4.5317    0.3212   -2.8808 O   0  0  0  0  0  0  0  0  0  0  0  0
   -4.4268   -0.0300   -0.4884 N   0  0  0  0  0  0  0  0  0  0  0  0
   -5.8673    0.1431   -0.1991 C   0  0  0  0  0  0  0  0  0  0  0  0
   -6.0407    1.3893    0.6559 C   0  0  0  0  0  0  0  0  0  0  0  0
   -7.4523    1.5142    1.1581 C   0  0  0  0  0  0  0  0  0  0  0  0
   -8.3597    0.5773    0.4364 C   0  0  0  0  0  0  0  0  0  0  0  0
   -7.9646   -0.8669    0.4890 C   0  0  0  0  0  0  0  0  0  0  0  0
   -6.4637   -1.0571    0.4621 C   0  0  0  0  0  0  0  0  0  0  0  0
   -9.7433    0.7495    1.0141 C   0  0  0  0  0  0  0  0  0  0  0  0
  -10.8130   -0.0190    0.5502 O   0  0  0  0  0  0  0  0  0  0  0  0
   -9.9893    1.5793    1.9255 O   0  0  0  0  0  0  0  0  0  0  0  0
   -3.4834   -0.3087    0.5031 C   0  0  0  0  0  0  0  0  0  0  0  0
   -3.7308   -0.4521    1.7631 O   0  0  0  0  0  0  0  0  0  0  0  0
    1.2065   -1.7126    0.5903 C   0  0  0  0  0  0  0  0  0  0  0  0
    2.4562   -1.7499    0.0484 C   0  0  0  0  0  0  0  0  0  0  0  0
    2.9272   -0.8568   -0.9110 C   0  0  0  0  0  0  0  0  0  0  0  0
    6.6724   -0.6426    0.5395 C   0  0  0  0  0  0  0  0  0  0  0  0
    7.5930    0.2930    1.0804 C   0  0  0  0  0  0  0  0  0  0  0  0
    6.1465   -1.6510    1.4746 C   0  0  0  0  0  0  0  0  0  0  0  0
    6.2334   -2.9576    1.0117 F   0  0  0  0  0  0  0  0  0  0  0  0
    5.0485   -1.3267    2.1920 F   0  0  0  0  0  0  0  0  0  0  0  0
    7.1562   -1.7281    2.5383 F   0  0  0  0  0  0  0  0  0  0  0  0
    9.6547    1.1253    2.5942 H   0  0  0  0  0  0  0  0  0  0  0  0
   10.2536    2.8433    2.3659 H   0  0  0  0  0  0  0  0  0  0  0  0
    8.5149    2.5305    2.7891 H   0  0  0  0  0  0  0  0  0  0  0  0
    8.2386    2.1168   -1.6241 H   0  0  0  0  0  0  0  0  0  0  0  0
    6.6496    0.5158   -2.5752 H   0  0  0  0  0  0  0  0  0  0  0  0
    5.7070   -1.5314   -2.5423 H   0  0  0  0  0  0  0  0  0  0  0  0
    5.2049   -2.4238   -1.1150 H   0  0  0  0  0  0  0  0  0  0  0  0
    2.2267    1.7196   -2.7841 H   0  0  0  0  0  0  0  0  0  0  0  0
    0.0802    0.9627   -1.1116 H   0  0  0  0  0  0  0  0  0  0  0  0
   -1.1211   -0.8053    1.8658 H   0  0  0  0  0  0  0  0  0  0  0  0
   -6.3735    0.3105   -1.1655 H   0  0  0  0  0  0  0  0  0  0  0  0
   -5.7867    2.2619    0.0474 H   0  0  0  0  0  0  0  0  0  0  0  0
   -5.3823    1.2833    1.5346 H   0  0  0  0  0  0  0  0  0  0  0  0
   -7.8175    2.5515    0.9087 H   0  0  0  0  0  0  0  0  0  0  0  0
   -7.5023    1.4186    2.2612 H   0  0  0  0  0  0  0  0  0  0  0  0
   -8.4455    0.8805   -0.6214 H   0  0  0  0  0  0  0  0  0  0  0  0
   -8.3563   -1.3026    1.4286 H   0  0  0  0  0  0  0  0  0  0  0  0
   -8.4493   -1.4105   -0.3448 H   0  0  0  0  0  0  0  0  0  0  0  0
   -6.1320   -1.1823    1.5145 H   0  0  0  0  0  0  0  0  0  0  0  0
   -6.2701   -1.9444   -0.1738 H   0  0  0  0  0  0  0  0  0  0  0  0
  -10.6894   -0.6095   -0.2820 H   0  0  0  0  0  0  0  0  0  0  0  0
    0.8927   -2.4465    1.3458 H   0  0  0  0  0  0  0  0  0  0  0  0
    3.1812   -2.5162    0.3407 H   0  0  0  0  0  0  0  0  0  0  0  0
    7.8510    0.2222    2.1251 H   0  0  0  0  0  0  0  0  0  0  0  0
  1  2  1  0
  2  3  1  0
  3  4  2  0
  4  5  1  0
  5  6  2  0
  6  7  1  0
  7  8  1  0
  8  9  1  0
  9 10  2  0
 10 11  1  0
 11 12  2  0
 12 13  1  0
 13 14  1  0
 14 15  2  0
 15 16  1  0
 16 17  1  0
 17 18  2  0
 17 19  1  0
 19 20  1  0
 20 21  1  0
 21 22  1  0
 22 23  1  0
 23 24  1  0
 24 25  1  0
 23 26  1  0
 26 27  1  0
 26 28  2  0
 19 29  1  0
 29 30  2  0
 13 31  2  0
 31 32  1  0
 32 33  2  0
  6 34  1  0
 34 35  2  0
 34 36  1  0
 36 37  1  0
 36 38  1  0
 36 39  1  0
 35  3  1  0
 33  8  1  0
 33 11  1  0
 29 15  1  0
 25 20  1  0
  1 40  1  0
  1 41  1  0
  1 42  1  0
  4 43  1  0
  5 44  1  0
  7 45  1  0
  7 46  1  0
 10 47  1  0
 12 48  1  0
 14 49  1  0
 20 50  1  0
 21 51  1  0
 21 52  1  0
 22 53  1  0
 22 54  1  0
 23 55  1  0
 24 56  1  0
 24 57  1  0
 25 58  1  0
 25 59  1  0
 27 60  1  0
 31 61  1  0
 32 62  1  0
 35 63  1  0
M  END
$$$$
[H]O[C@]1([H])C([H])([H])N([H])C([H])([H])C([H])([H])[C@@]1([H])N1C(=O)S/C(=C(/[H])c2c([H])c([H])c3c(c([H])nn3C([H])([H])c3c([H])c([H])c(Cl)c([H])c3C(F)(F)F)c2[H])C1=O
     RDKit          3D

 56 60  0  0  0  0  0  0  0  0999 V2000
   -6.5216    1.8127    1.3794 O   0  0  0  0  0  0  0  0  0  0  0  0
   -6.2252    1.2625    0.1287 C   0  0  2  0  0  0  0  0  0  0  0  0
   -7.4939    1.2632   -0.7028 C   0  0  0  0  0  0  0  0  0  0  0  0
   -8.2966    0.0635   -0.4902 N   0  0  0  0  0  0  0  0  0  0  0  0
   -7.6892   -1.1259   -1.0248 C   0  0  0  0  0  0  0  0  0  0  0  0
   -6.1799   -0.9603   -1.0135 C   0  0  0  0  0  0  0  0  0  0  0  0
   -5.7695   -0.1575    0.2233 C   0  0  1  0  0  0  0  0  0  0  0  0
   -4.3069   -0.2896    0.3327 N   0  0  0  0  0  0  0  0  0  0  0  0
   -3.7450   -0.9627    1.4436 C   0  0  0  0  0  0  0  0  0  0  0  0
   -4.3378   -1.4406    2.4592 O   0  0  0  0  0  0  0  0  0  0  0  0
   -1.9881   -1.0111    1.1290 S   0  0  0  0  0  0  0  0  0  0  0  0
   -2.0178    0.0042   -0.3436 C   0  0  0  0  0  0  0  0  0  0  0  0
   -0.9442    0.4164   -0.9749 C   0  0  0  0  0  0  0  0  0  0  0  0
    0.3539    0.0313   -0.4623 C   0  0  0  0  0  0  0  0  0  0  0  0
    1.2931    1.0220   -0.3039 C   0  0  0  0  0  0  0  0  0  0  0  0
    2.5570    0.7757    0.1836 C   0  0  0  0  0  0  0  0  0  0  0  0
    2.8806   -0.5154    0.5223 C   0  0  0  0  0  0  0  0  0  0  0  0
    4.0317   -1.0449    1.0289 N   0  0  0  0  0  0  0  0  0  0  0  0
    5.2064   -0.2275    1.3288 C   0  0  0  0  0  0  0  0  0  0  0  0
    6.1249   -0.0950    0.2009 C   0  0  0  0  0  0  0  0  0  0  0  0
    6.0707   -0.9832   -0.8352 C   0  0  0  0  0  0  0  0  0  0  0  0
    6.9456   -0.8348   -1.8909 C   0  0  0  0  0  0  0  0  0  0  0  0
    7.8770    0.1767   -1.9449 C   0  0  0  0  0  0  0  0  0  0  0  0
    8.9938    0.4132   -3.2491 Cl  0  0  0  0  0  0  0  0  0  0  0  0
    7.8851    1.0441   -0.8688 C   0  0  0  0  0  0  0  0  0  0  0  0
    7.0375    0.9416    0.2050 C   0  0  0  0  0  0  0  0  0  0  0  0
    7.1254    1.9321    1.2923 C   0  0  0  0  0  0  0  0  0  0  0  0
    7.3668    1.3319    2.5368 F   0  0  0  0  0  0  0  0  0  0  0  0
    8.2948    2.6875    1.0758 F   0  0  0  0  0  0  0  0  0  0  0  0
    6.1165    2.8350    1.3538 F   0  0  0  0  0  0  0  0  0  0  0  0
    3.8535   -2.3270    1.1919 N   0  0  0  0  0  0  0  0  0  0  0  0
    2.6168   -2.6679    0.8088 C   0  0  0  0  0  0  0  0  0  0  0  0
    1.9658   -1.5332    0.3760 C   0  0  0  0  0  0  0  0  0  0  0  0
    0.7120   -1.2428   -0.1165 C   0  0  0  0  0  0  0  0  0  0  0  0
   -3.4284    0.2193   -0.6057 C   0  0  0  0  0  0  0  0  0  0  0  0
   -3.7725    0.8581   -1.6751 O   0  0  0  0  0  0  0  0  0  0  0  0
   -5.7275    1.6414    1.9498 H   0  0  0  0  0  0  0  0  0  0  0  0
   -5.5015    1.9513   -0.3735 H   0  0  0  0  0  0  0  0  0  0  0  0
   -7.1679    1.2114   -1.7647 H   0  0  0  0  0  0  0  0  0  0  0  0
   -8.1025    2.1591   -0.5340 H   0  0  0  0  0  0  0  0  0  0  0  0
   -9.2301    0.2527   -0.9292 H   0  0  0  0  0  0  0  0  0  0  0  0
   -7.9282   -2.0328   -0.4286 H   0  0  0  0  0  0  0  0  0  0  0  0
   -7.9632   -1.3464   -2.0722 H   0  0  0  0  0  0  0  0  0  0  0  0
   -5.8152   -0.4987   -1.9494 H   0  0  0  0  0  0  0  0  0  0  0  0
   -5.6467   -1.9250   -0.9238 H   0  0  0  0  0  0  0  0  0  0  0  0
   -6.2908   -0.6285    1.0669 H   0  0  0  0  0  0  0  0  0  0  0  0
   -1.0182    1.0199   -1.8455 H   0  0  0  0  0  0  0  0  0  0  0  0
    1.0556    2.0473   -0.5668 H   0  0  0  0  0  0  0  0  0  0  0  0
    3.2782    1.5792    0.2966 H   0  0  0  0  0  0  0  0  0  0  0  0
    5.6513   -0.6918    2.2357 H   0  0  0  0  0  0  0  0  0  0  0  0
    4.8027    0.7977    1.5691 H   0  0  0  0  0  0  0  0  0  0  0  0
    5.3480   -1.8194   -0.8529 H   0  0  0  0  0  0  0  0  0  0  0  0
    6.8953   -1.5449   -2.7101 H   0  0  0  0  0  0  0  0  0  0  0  0
    8.6153    1.8540   -0.8898 H   0  0  0  0  0  0  0  0  0  0  0  0
    2.1573   -3.6508    0.8177 H   0  0  0  0  0  0  0  0  0  0  0  0
   -0.0045   -2.0474   -0.2471 H   0  0  0  0  0  0  0  0  0  0  0  0
  1  2  1  0
  2  3  1  0
  3  4  1  0
  4  5  1  0
  5  6  1  0
  6  7  1  0
  7  8  1  0
  8  9  1  0
  9 10  2  0
  9 11  1  0
 11 12  1  0
 12 13  2  0
 13 14  1  0
 14 15  2  0
 15 16  1  0
 16 17  2  0
 17 18  1  0
 18 19  1  0
 19 20  1  0
 20 21  2  0
 21 22  1  0
 22 23  2  0
 23 24  1  0
 23 25  1  0
 25 26  2  0
 26 27  1  0
 27 28  1  0
 27 29  1  0
 27 30  1  0
 18 31  1  0
 31 32  2  0
 32 33  1  0
 33 34  2  0
 12 35  1  0
 35 36  2  0
  7  2  1  0
 35  8  1  0
 34 14  1  0
 33 17  1  0
 26 20  1  0
  1 37  1  0
  2 38  1  6
  3 39  1  0
  3 40  1  0
  4 41  1  0
  5 42  1  0
  5 43  1  0
  6 44  1  0
  6 45  1  0
  7 46  1  1
 13 47  1  0
 15 48  1  0
 16 49  1  0
 19 50  1  0
 19 51  1  0
 21 52  1  0
 22 53  1  0
 25 54  1  0
 32 55  1  0
 34 56  1  0
M  END
$$$$
[H]c1nc(N2C([H])([H])C([H])([H])N(C(=O)c3sc4c(c(C([H])([H])[H])nn4C([H])([H])c4c([H])c([H])c([H])c(OC([H])([H])C([H])([H])OC([H])([H])[H])c4[H])c3[H])C([H])([H])[C@@]2([H])C([H])([H])[H])c([H])c([H])c1C(=O)C([H])([H])[H]
     RDKit          3D

 72 76  0  0  0  0  0  0  0  0999 V2000
   -9.1267    2.2156    0.3495 C   0  0  0  0  0  0  0  0  0  0  0  0
   -9.7051    0.9387    0.3284 O   0  0  0  0  0  0  0  0  0  0  0  0
  -10.2991    0.6601   -0.8723 C   0  0  0  0  0  0  0  0  0  0  0  0
   -9.2557    0.6439   -1.9904 C   0  0  0  0  0  0  0  0  0  0  0  0
   -8.3088   -0.2439   -1.8792 O   0  0  0  0  0  0  0  0  0  0  0  0
   -7.2997   -0.9430   -1.4540 C   0  0  0  0  0  0  0  0  0  0  0  0
   -6.8154   -2.0494   -2.2037 C   0  0  0  0  0  0  0  0  0  0  0  0
   -5.7580   -2.7964   -1.7762 C   0  0  0  0  0  0  0  0  0  0  0  0
   -5.1172   -2.4953   -0.5848 C   0  0  0  0  0  0  0  0  0  0  0  0
   -5.5419   -1.4371    0.1812 C   0  0  0  0  0  0  0  0  0  0  0  0
   -4.8478   -1.1016    1.4783 C   0  0  0  0  0  0  0  0  0  0  0  0
   -3.7890   -0.1552    1.2545 N   0  0  0  0  0  0  0  0  0  0  0  0
   -3.7548    1.1378    1.2585 N   0  0  0  0  0  0  0  0  0  0  0  0
   -2.5117    1.6194    0.9884 C   0  0  0  0  0  0  0  0  0  0  0  0
   -2.1311    3.0549    0.9176 C   0  0  0  0  0  0  0  0  0  0  0  0
   -1.6780    0.5012    0.7945 C   0  0  0  0  0  0  0  0  0  0  0  0
   -0.3788    0.2389    0.5044 C   0  0  0  0  0  0  0  0  0  0  0  0
    0.0205   -1.0496    0.4037 C   0  0  0  0  0  0  0  0  0  0  0  0
   -1.4820   -1.8955    0.7289 S   0  0  0  0  0  0  0  0  0  0  0  0
   -2.5065   -0.5613    0.9679 C   0  0  0  0  0  0  0  0  0  0  0  0
    1.2929   -1.7119    0.1018 C   0  0  0  0  0  0  0  0  0  0  0  0
    1.2455   -3.0225    0.1315 O   0  0  0  0  0  0  0  0  0  0  0  0
    2.5013   -1.1187   -0.2026 N   0  0  0  0  0  0  0  0  0  0  0  0
    2.7560    0.2784   -0.2927 C   0  0  0  0  0  0  0  0  0  0  0  0
    4.2000    0.5593   -0.7162 C   0  0  0  0  0  0  0  0  0  0  0  0
    5.1601   -0.2782   -0.0536 N   0  0  0  0  0  0  0  0  0  0  0  0
    4.7445   -1.5315    0.4706 C   0  0  2  0  0  0  0  0  0  0  0  0
    5.8185   -2.5718    0.6425 C   0  0  0  0  0  0  0  0  0  0  0  0
    3.6378   -2.0561   -0.4592 C   0  0  0  0  0  0  0  0  0  0  0  0
    6.5067    0.1545    0.0649 C   0  0  0  0  0  0  0  0  0  0  0  0
    6.9485    1.2953   -0.6139 C   0  0  0  0  0  0  0  0  0  0  0  0
    8.2439    1.7232   -0.4976 C   0  0  0  0  0  0  0  0  0  0  0  0
    9.1665    1.0631    0.2821 C   0  0  0  0  0  0  0  0  0  0  0  0
    8.6981   -0.0597    0.9393 C   0  0  0  0  0  0  0  0  0  0  0  0
    7.4267   -0.4694    0.8178 N   0  0  0  0  0  0  0  0  0  0  0  0
   10.5330    1.5317    0.3919 C   0  0  0  0  0  0  0  0  0  0  0  0
   11.5501    0.8417    1.2213 C   0  0  0  0  0  0  0  0  0  0  0  0
   10.8688    2.5619   -0.2399 O   0  0  0  0  0  0  0  0  0  0  0  0
   -6.6064   -0.6968   -0.2635 C   0  0  0  0  0  0  0  0  0  0  0  0
   -8.6843    2.3089    1.3849 H   0  0  0  0  0  0  0  0  0  0  0  0
   -9.8564    3.0246    0.2464 H   0  0  0  0  0  0  0  0  0  0  0  0
   -8.2535    2.3057   -0.3232 H   0  0  0  0  0  0  0  0  0  0  0  0
  -10.6938   -0.3793   -0.8250 H   0  0  0  0  0  0  0  0  0  0  0  0
  -11.1447    1.3210   -1.1288 H   0  0  0  0  0  0  0  0  0  0  0  0
   -8.9179    1.7302   -2.1531 H   0  0  0  0  0  0  0  0  0  0  0  0
   -9.8724    0.4560   -2.9369 H   0  0  0  0  0  0  0  0  0  0  0  0
   -7.3259   -2.2646   -3.1221 H   0  0  0  0  0  0  0  0  0  0  0  0
   -5.4181   -3.6369   -2.3814 H   0  0  0  0  0  0  0  0  0  0  0  0
   -4.2850   -3.0820   -0.2450 H   0  0  0  0  0  0  0  0  0  0  0  0
   -5.5635   -0.6515    2.2007 H   0  0  0  0  0  0  0  0  0  0  0  0
   -4.4517   -2.0223    1.9018 H   0  0  0  0  0  0  0  0  0  0  0  0
   -1.0645    3.1707    1.2643 H   0  0  0  0  0  0  0  0  0  0  0  0
   -2.7923    3.6342    1.5864 H   0  0  0  0  0  0  0  0  0  0  0  0
   -2.2366    3.3693   -0.1316 H   0  0  0  0  0  0  0  0  0  0  0  0
    0.3634    1.0668    0.3535 H   0  0  0  0  0  0  0  0  0  0  0  0
    2.1177    0.7562   -1.0423 H   0  0  0  0  0  0  0  0  0  0  0  0
    2.6163    0.7684    0.6827 H   0  0  0  0  0  0  0  0  0  0  0  0
    4.3987    1.6157   -0.3627 H   0  0  0  0  0  0  0  0  0  0  0  0
    4.3019    0.5962   -1.8110 H   0  0  0  0  0  0  0  0  0  0  0  0
    4.2168   -1.3861    1.4575 H   0  0  0  0  0  0  0  0  0  0  0  0
    6.2738   -2.5962    1.6418 H   0  0  0  0  0  0  0  0  0  0  0  0
    6.5257   -2.6300   -0.2062 H   0  0  0  0  0  0  0  0  0  0  0  0
    5.2620   -3.5629    0.5797 H   0  0  0  0  0  0  0  0  0  0  0  0
    3.3806   -3.0670   -0.1698 H   0  0  0  0  0  0  0  0  0  0  0  0
    3.9630   -1.9123   -1.5071 H   0  0  0  0  0  0  0  0  0  0  0  0
    6.2100    1.8138   -1.2337 H   0  0  0  0  0  0  0  0  0  0  0  0
    8.5763    2.6048   -1.0250 H   0  0  0  0  0  0  0  0  0  0  0  0
    9.4378   -0.5785    1.5569 H   0  0  0  0  0  0  0  0  0  0  0  0
   12.5828    1.0818    0.8983 H   0  0  0  0  0  0  0  0  0  0  0  0
   11.4451   -0.2662    1.0389 H   0  0  0  0  0  0  0  0  0  0  0  0
   11.3847    0.9762    2.3016 H   0  0  0  0  0  0  0  0  0  0  0  0
   -6.9019    0.1383    0.3898 H   0  0  0  0  0  0  0  0  0  0  0  0
  1  2  1  0
  2  3  1  0
  3  4  1  0
  4  5  1  0
  5  6  1  0
  6  7  2  0
  7  8  1  0
  8  9  2  0
  9 10  1  0
 10 11  1  0
 11 12  1  0
 12 13  1  0
 13 14  2  0
 14 15  1  0
 14 16  1  0
 16 17  1  0
 17 18  2  0
 18 19  1  0
 19 20  1  0
 18 21  1  0
 21 22  2  0
 21 23  1  0
 23 24  1  0
 24 25  1  0
 25 26  1  0
 26 27  1  0
 27 28  1  0
 27 29  1  0
 26 30  1  0
 30 31  2  0
 31 32  1  0
 32 33  2  0
 33 34  1  0
 34 35  2  0
 33 36  1  0
 36 37  1  0
 36 38  2  0
 10 39  2  0
 39  6  1  0
 20 12  1  0
 29 23  1  0
 35 30  1  0
 20 16  2  0
  1 40  1  0
  1 41  1  0
  1 42  1  0
  3 43  1  0
  3 44  1  0
  4 45  1  0
  4 46  1  0
  7 47  1  0
  8 48  1  0
  9 49  1  0
 11 50  1  0
 11 51  1  0
 15 52  1  0
 15 53  1  0
 15 54  1  0
 17 55  1  0
 24 56  1  0
 24 57  1  0
 25 58  1  0
 25 59  1  0
 27 60  1  1
 28 61  1  0
 28 62  1  0
 28 63  1  0
 29 64  1  0
 29 65  1  0
 31 66  1  0
 32 67  1  0
 34 68  1  0
 37 69  1  0
 37 70  1  0
 37 71  1  0
 39 72  1  0
M  END
$$$$
[H]c1c([H])c([H])c(N([H])[H])c(C(=O)c2nnn(-c3c([H])c([H])c([H])c(C(=O)OC([H])([H])[H])c3[H])c2[H])c1[H]
     RDKit          3D

 38 40  0  0  0  0  0  0  0  0999 V2000
    7.7676   -1.2582    0.0557 C   0  0  0  0  0  0  0  0  0  0  0  0
    6.6517   -0.4129    0.2444 O   0  0  0  0  0  0  0  0  0  0  0  0
    5.3540   -0.7607   -0.0460 C   0  0  0  0  0  0  0  0  0  0  0  0
    5.1238   -1.9048   -0.5125 O   0  0  0  0  0  0  0  0  0  0  0  0
    4.2357    0.1594    0.1715 C   0  0  0  0  0  0  0  0  0  0  0  0
    4.5194    1.4197    0.6886 C   0  0  0  0  0  0  0  0  0  0  0  0
    3.4558    2.2984    0.8993 C   0  0  0  0  0  0  0  0  0  0  0  0
    2.1676    1.9288    0.6044 C   0  0  0  0  0  0  0  0  0  0  0  0
    1.8763    0.6840    0.0922 C   0  0  0  0  0  0  0  0  0  0  0  0
    2.9293   -0.1709   -0.1105 C   0  0  0  0  0  0  0  0  0  0  0  0
    0.5263    0.3218   -0.2044 N   0  0  0  0  0  0  0  0  0  0  0  0
   -0.4789    0.1542    0.6723 C   0  0  0  0  0  0  0  0  0  0  0  0
   -1.6474   -0.1971   -0.0201 C   0  0  0  0  0  0  0  0  0  0  0  0
   -1.2665   -0.2191   -1.2880 N   0  0  0  0  0  0  0  0  0  0  0  0
    0.0282    0.0889   -1.4089 N   0  0  0  0  0  0  0  0  0  0  0  0
   -2.8926   -0.4674    0.6504 C   0  0  0  0  0  0  0  0  0  0  0  0
   -2.8764   -0.9231    1.8637 O   0  0  0  0  0  0  0  0  0  0  0  0
   -4.1739   -0.2546    0.0369 C   0  0  0  0  0  0  0  0  0  0  0  0
   -4.3556    0.2481   -1.2210 C   0  0  0  0  0  0  0  0  0  0  0  0
   -5.6403    0.4305   -1.7328 C   0  0  0  0  0  0  0  0  0  0  0  0
   -6.7702    0.1157   -1.0005 C   0  0  0  0  0  0  0  0  0  0  0  0
   -6.5835   -0.3888    0.2624 C   0  0  0  0  0  0  0  0  0  0  0  0
   -5.3273   -0.5710    0.7721 C   0  0  0  0  0  0  0  0  0  0  0  0
   -5.1663   -1.1001    2.1003 N   0  0  0  0  0  0  0  0  0  0  0  0
    8.5124   -1.0651    0.8721 H   0  0  0  0  0  0  0  0  0  0  0  0
    8.2704   -1.0633   -0.9239 H   0  0  0  0  0  0  0  0  0  0  0  0
    7.5392   -2.3224    0.0897 H   0  0  0  0  0  0  0  0  0  0  0  0
    5.5185    1.7481    0.9330 H   0  0  0  0  0  0  0  0  0  0  0  0
    3.6217    3.2806    1.2953 H   0  0  0  0  0  0  0  0  0  0  0  0
    1.3800    2.6401    0.7848 H   0  0  0  0  0  0  0  0  0  0  0  0
    2.7443   -1.1575   -0.5115 H   0  0  0  0  0  0  0  0  0  0  0  0
   -0.3949    0.2723    1.7284 H   0  0  0  0  0  0  0  0  0  0  0  0
   -3.5069    0.5244   -1.8474 H   0  0  0  0  0  0  0  0  0  0  0  0
   -5.7345    0.8288   -2.7288 H   0  0  0  0  0  0  0  0  0  0  0  0
   -7.7373    0.2824   -1.4577 H   0  0  0  0  0  0  0  0  0  0  0  0
   -7.4508   -0.6443    0.8599 H   0  0  0  0  0  0  0  0  0  0  0  0
   -5.0601   -0.4233    2.8780 H   0  0  0  0  0  0  0  0  0  0  0  0
   -5.1588   -2.1219    2.2570 H   0  0  0  0  0  0  0  0  0  0  0  0
  1  2  1  0
  2  3  1  0
  3  4  2  0
  3  5  1  0
  5  6  2  0
  6  7  1  0
  7  8  2  0
  8  9  1  0
  9 10  2  0
  9 11  1  0
 11 12  1  0
 12 13  2  0
 13 14  1  0
 14 15  2  0
 13 16  1  0
 16 17  2  0
 16 18  1  0
 18 19  2  0
 19 20  1  0
 20 21  2  0
 21 22  1  0
 22 23  2  0
 23 24  1  0
 10  5  1  0
 15 11  1  0
 23 18  1  0
  1 25  1  0
  1 26  1  0
  1 27  1  0
  6 28  1  0
  7 29  1  0
  8 30  1  0
 10 31  1  0
 12 32  1  0
 19 33  1  0
 20 34  1  0
 21 35  1  0
 22 36  1  0
 24 37  1  0
 24 38  1  0
M  END
$$$$
[H]Oc1c([H])c([H])c(-n2c([H])c(Br)c3c([H])c(O[H])c([H])c(O[H])c3c2=O)c([H])c1[H]
     RDKit          3D

 31 33  0  0  0  0  0  0  0  0999 V2000
    6.0585    0.1866    0.4212 O   0  0  0  0  0  0  0  0  0  0  0  0
    4.6848    0.0971    0.2398 C   0  0  0  0  0  0  0  0  0  0  0  0
    4.1203   -1.1132   -0.0662 C   0  0  0  0  0  0  0  0  0  0  0  0
    2.7584   -1.2152   -0.2487 C   0  0  0  0  0  0  0  0  0  0  0  0
    1.9224   -0.1254   -0.1334 C   0  0  0  0  0  0  0  0  0  0  0  0
    2.5032    1.0866    0.1748 C   0  0  0  0  0  0  0  0  0  0  0  0
    3.8643    1.2175    0.3629 C   0  0  0  0  0  0  0  0  0  0  0  0
    0.5193   -0.2494   -0.3252 N   0  0  0  0  0  0  0  0  0  0  0  0
    0.0439   -0.8708   -1.4360 C   0  0  0  0  0  0  0  0  0  0  0  0
   -1.3280   -0.9628   -1.5707 C   0  0  0  0  0  0  0  0  0  0  0  0
   -2.0165   -1.8301   -3.1203 Br  0  0  0  0  0  0  0  0  0  0  0  0
   -2.1914   -0.4492   -0.6240 C   0  0  0  0  0  0  0  0  0  0  0  0
   -3.5670   -0.5352   -0.7477 C   0  0  0  0  0  0  0  0  0  0  0  0
   -4.4110   -0.0120    0.2160 C   0  0  0  0  0  0  0  0  0  0  0  0
   -5.7893   -0.1024    0.0843 O   0  0  0  0  0  0  0  0  0  0  0  0
   -3.9115    0.6156    1.3373 C   0  0  0  0  0  0  0  0  0  0  0  0
   -2.5408    0.7019    1.4618 C   0  0  0  0  0  0  0  0  0  0  0  0
   -1.9999    1.3269    2.5773 O   0  0  0  0  0  0  0  0  0  0  0  0
   -1.6892    0.1837    0.5070 C   0  0  0  0  0  0  0  0  0  0  0  0
   -0.3134    0.2548    0.6038 C   0  0  0  0  0  0  0  0  0  0  0  0
    0.1519    0.8295    1.6304 O   0  0  0  0  0  0  0  0  0  0  0  0
    6.4482    1.0707    0.6420 H   0  0  0  0  0  0  0  0  0  0  0  0
    4.7433   -1.9774   -0.1624 H   0  0  0  0  0  0  0  0  0  0  0  0
    2.3011   -2.1696   -0.4914 H   0  0  0  0  0  0  0  0  0  0  0  0
    1.8907    1.9777    0.2775 H   0  0  0  0  0  0  0  0  0  0  0  0
    4.3522    2.1425    0.6035 H   0  0  0  0  0  0  0  0  0  0  0  0
    0.7413   -1.2668   -2.1666 H   0  0  0  0  0  0  0  0  0  0  0  0
   -3.9717   -1.0264   -1.6250 H   0  0  0  0  0  0  0  0  0  0  0  0
   -6.2533   -0.5358   -0.6875 H   0  0  0  0  0  0  0  0  0  0  0  0
   -4.5840    1.0253    2.0921 H   0  0  0  0  0  0  0  0  0  0  0  0
   -2.5367    1.7252    3.3085 H   0  0  0  0  0  0  0  0  0  0  0  0
  1  2  1  0
  2  3  2  0
  3  4  1  0
  4  5  2  0
  5  6  1  0
  6  7  2  0
  5  8  1  0
  8  9  1  0
  9 10  2  0
 10 11  1  0
 10 12  1  0
 12 13  2  0
 13 14  1  0
 14 15  1  0
 14 16  2  0
 16 17  1  0
 17 18  1  0
 17 19  2  0
 19 20  1  0
 20 21  2  0
  7  2  1  0
 20  8  1  0
 19 12  1  0
  1 22  1  0
  3 23  1  0
  4 24  1  0
  6 25  1  0
  7 26  1  0
  9 27  1  0
 13 28  1  0
 15 29  1  0
 16 30  1  0
 18 31  1  0
M  END
$$$$
[H]OC(=O)C1([H])C([H])([H])C([H])([H])C([H])(N2C(=O)S/C(=C(/[H])c3c([H])c([H])c4c(c([H])nn4C([H])([H])c4c([H])c([H])c(Cl)c([H])c4C(F)(F)F)c3[H])C2=O)C([H])([H])C1([H])[H]
     RDKit          3D

 59 63  0  0  0  0  0  0  0  0999 V2000
    9.6699    0.0974   -1.4908 O   0  0  0  0  0  0  0  0  0  0  0  0
    9.1740    0.7524   -0.3701 C   0  0  0  0  0  0  0  0  0  0  0  0
   10.0209    1.3903    0.3189 O   0  0  0  0  0  0  0  0  0  0  0  0
    7.7648    0.7296    0.0229 C   0  0  0  0  0  0  0  0  0  0  0  0
    7.2844   -0.7044    0.2860 C   0  0  0  0  0  0  0  0  0  0  0  0
    5.8633   -0.5599    0.8163 C   0  0  0  0  0  0  0  0  0  0  0  0
    5.0350   -0.0405   -0.3665 C   0  0  0  0  0  0  0  0  0  0  0  0
    5.4476    1.3884   -0.5792 C   0  0  0  0  0  0  0  0  0  0  0  0
    6.8999    1.3454   -1.0632 C   0  0  0  0  0  0  0  0  0  0  0  0
    3.5947   -0.1383   -0.0557 N   0  0  0  0  0  0  0  0  0  0  0  0
    3.0749    0.5439    1.0662 C   0  0  0  0  0  0  0  0  0  0  0  0
    3.6582    1.1553    1.9946 O   0  0  0  0  0  0  0  0  0  0  0  0
    1.2905    0.3704    0.9221 S   0  0  0  0  0  0  0  0  0  0  0  0
    1.3229   -0.8605   -0.3602 C   0  0  0  0  0  0  0  0  0  0  0  0
    0.3104   -1.5715   -0.7722 C   0  0  0  0  0  0  0  0  0  0  0  0
   -1.0266   -1.4409   -0.2093 C   0  0  0  0  0  0  0  0  0  0  0  0
   -2.0924   -1.4430   -1.1163 C   0  0  0  0  0  0  0  0  0  0  0  0
   -3.4123   -1.3408   -0.7081 C   0  0  0  0  0  0  0  0  0  0  0  0
   -3.6740   -1.2338    0.6386 C   0  0  0  0  0  0  0  0  0  0  0  0
   -4.8434   -1.1228    1.3213 N   0  0  0  0  0  0  0  0  0  0  0  0
   -6.1506   -1.0945    0.6931 C   0  0  0  0  0  0  0  0  0  0  0  0
   -6.5874    0.2727    0.3585 C   0  0  0  0  0  0  0  0  0  0  0  0
   -5.7908    1.3703    0.6981 C   0  0  0  0  0  0  0  0  0  0  0  0
   -6.1777    2.6557    0.4007 C   0  0  0  0  0  0  0  0  0  0  0  0
   -7.3707    2.9016   -0.2456 C   0  0  0  0  0  0  0  0  0  0  0  0
   -7.8640    4.5414   -0.6247 Cl  0  0  0  0  0  0  0  0  0  0  0  0
   -8.1352    1.8141   -0.5693 C   0  0  0  0  0  0  0  0  0  0  0  0
   -7.7644    0.4958   -0.2780 C   0  0  0  0  0  0  0  0  0  0  0  0
   -8.6939   -0.6004   -0.6923 C   0  0  0  0  0  0  0  0  0  0  0  0
   -9.1314   -1.3507    0.3771 F   0  0  0  0  0  0  0  0  0  0  0  0
   -9.8361   -0.0488   -1.2596 F   0  0  0  0  0  0  0  0  0  0  0  0
   -8.1409   -1.3841   -1.7008 F   0  0  0  0  0  0  0  0  0  0  0  0
   -4.5593   -1.0521    2.5983 N   0  0  0  0  0  0  0  0  0  0  0  0
   -3.2084   -1.1152    2.7768 C   0  0  0  0  0  0  0  0  0  0  0  0
   -2.6319   -1.2312    1.5370 C   0  0  0  0  0  0  0  0  0  0  0  0
   -1.3205   -1.3338    1.1182 C   0  0  0  0  0  0  0  0  0  0  0  0
    2.6997   -0.8753   -0.8120 C   0  0  0  0  0  0  0  0  0  0  0  0
    3.0096   -1.5508   -1.8585 O   0  0  0  0  0  0  0  0  0  0  0  0
    9.7074    0.6397   -2.3482 H   0  0  0  0  0  0  0  0  0  0  0  0
    7.6230    1.2884    0.9492 H   0  0  0  0  0  0  0  0  0  0  0  0
    7.2811   -1.3135   -0.6161 H   0  0  0  0  0  0  0  0  0  0  0  0
    7.9143   -1.1248    1.1009 H   0  0  0  0  0  0  0  0  0  0  0  0
    5.9117    0.2587    1.5670 H   0  0  0  0  0  0  0  0  0  0  0  0
    5.4632   -1.4977    1.2175 H   0  0  0  0  0  0  0  0  0  0  0  0
    5.2932   -0.6180   -1.2612 H   0  0  0  0  0  0  0  0  0  0  0  0
    5.3952    1.9042    0.4031 H   0  0  0  0  0  0  0  0  0  0  0  0
    4.8617    1.9090   -1.3399 H   0  0  0  0  0  0  0  0  0  0  0  0
    7.3002    2.3461   -1.2605 H   0  0  0  0  0  0  0  0  0  0  0  0
    6.9420    0.6568   -1.9298 H   0  0  0  0  0  0  0  0  0  0  0  0
    0.4354   -2.3227   -1.5894 H   0  0  0  0  0  0  0  0  0  0  0  0
   -1.8571   -1.5285   -2.1688 H   0  0  0  0  0  0  0  0  0  0  0  0
   -4.1969   -1.3479   -1.4568 H   0  0  0  0  0  0  0  0  0  0  0  0
   -6.1718   -1.7081   -0.2347 H   0  0  0  0  0  0  0  0  0  0  0  0
   -6.8907   -1.5634    1.4067 H   0  0  0  0  0  0  0  0  0  0  0  0
   -4.8520    1.1917    1.2054 H   0  0  0  0  0  0  0  0  0  0  0  0
   -5.5851    3.5380    0.6481 H   0  0  0  0  0  0  0  0  0  0  0  0
   -9.0766    1.9795   -1.0775 H   0  0  0  0  0  0  0  0  0  0  0  0
   -2.7002   -1.0794    3.7299 H   0  0  0  0  0  0  0  0  0  0  0  0
   -0.5073   -1.3395    1.8551 H   0  0  0  0  0  0  0  0  0  0  0  0
  1  2  1  0
  2  3  2  0
  2  4  1  0
  4  5  1  0
  5  6  1  0
  6  7  1  0
  7  8  1  0
  8  9  1  0
  7 10  1  0
 10 11  1  0
 11 12  2  0
 11 13  1  0
 13 14  1  0
 14 15  2  0
 15 16  1  0
 16 17  2  0
 17 18  1  0
 18 19  2  0
 19 20  1  0
 20 21  1  0
 21 22  1  0
 22 23  2  0
 23 24  1  0
 24 25  2  0
 25 26  1  0
 25 27  1  0
 27 28  2  0
 28 29  1  0
 29 30  1  0
 29 31  1  0
 29 32  1  0
 20 33  1  0
 33 34  2  0
 34 35  1  0
 35 36  2  0
 14 37  1  0
 37 38  2  0
  9  4  1  0
 37 10  1  0
 36 16  1  0
 35 19  1  0
 28 22  1  0
  1 39  1  0
  4 40  1  0
  5 41  1  0
  5 42  1  0
  6 43  1  0
  6 44  1  0
  7 45  1  0
  8 46  1  0
  8 47  1  0
  9 48  1  0
  9 49  1  0
 15 50  1  0
 17 51  1  0
 18 52  1  0
 21 53  1  0
 21 54  1  0
 23 55  1  0
 24 56  1  0
 27 57  1  0
 34 58  1  0
 36 59  1  0
M  END
$$$$
[H]c1c([H])c([H])c(N([H])[H])c(C(=O)c2nnn(-c3c([H])c([H])c(C([H])(C([H])([H])[H])C([H])([H])[H])c([H])c3[H])c2[H])c1[H]
     RDKit          3D

 41 43  0  0  0  0  0  0  0  0999 V2000
    6.4662    0.8705   -0.5023 C   0  0  0  0  0  0  0  0  0  0  0  0
    5.6254    0.2644    0.6106 C   0  0  0  0  0  0  0  0  0  0  0  0
    6.0246   -1.1844    0.7923 C   0  0  0  0  0  0  0  0  0  0  0  0
    4.1851    0.3256    0.2990 C   0  0  0  0  0  0  0  0  0  0  0  0
    3.3320    1.1238    0.9930 C   0  0  0  0  0  0  0  0  0  0  0  0
    1.9849    1.1663    0.6994 C   0  0  0  0  0  0  0  0  0  0  0  0
    1.5266    0.3612   -0.3354 C   0  0  0  0  0  0  0  0  0  0  0  0
    2.3600   -0.4659   -1.0682 C   0  0  0  0  0  0  0  0  0  0  0  0
    3.6917   -0.4613   -0.7252 C   0  0  0  0  0  0  0  0  0  0  0  0
    0.1164    0.3974   -0.6345 N   0  0  0  0  0  0  0  0  0  0  0  0
   -0.8038   -0.3698   -0.0013 C   0  0  0  0  0  0  0  0  0  0  0  0
   -2.0635   -0.0758   -0.5456 C   0  0  0  0  0  0  0  0  0  0  0  0
   -1.8073    0.8466   -1.4659 N   0  0  0  0  0  0  0  0  0  0  0  0
   -0.5002    1.1360   -1.5250 N   0  0  0  0  0  0  0  0  0  0  0  0
   -3.2843   -0.7168   -0.1275 C   0  0  0  0  0  0  0  0  0  0  0  0
   -3.1990   -1.8800    0.4069 O   0  0  0  0  0  0  0  0  0  0  0  0
   -4.6123   -0.1510   -0.2612 C   0  0  0  0  0  0  0  0  0  0  0  0
   -4.8874    1.0860   -0.7775 C   0  0  0  0  0  0  0  0  0  0  0  0
   -6.1775    1.5895   -0.8757 C   0  0  0  0  0  0  0  0  0  0  0  0
   -7.2546    0.8602   -0.4529 C   0  0  0  0  0  0  0  0  0  0  0  0
   -7.0113   -0.3831    0.0693 C   0  0  0  0  0  0  0  0  0  0  0  0
   -5.7288   -0.8847    0.1672 C   0  0  0  0  0  0  0  0  0  0  0  0
   -5.5120   -2.1774    0.7134 N   0  0  0  0  0  0  0  0  0  0  0  0
    5.8771    1.0282   -1.4395 H   0  0  0  0  0  0  0  0  0  0  0  0
    6.9737    1.8103   -0.1742 H   0  0  0  0  0  0  0  0  0  0  0  0
    7.2755    0.1412   -0.7871 H   0  0  0  0  0  0  0  0  0  0  0  0
    5.8360    0.8706    1.5275 H   0  0  0  0  0  0  0  0  0  0  0  0
    6.2354   -1.6115   -0.2316 H   0  0  0  0  0  0  0  0  0  0  0  0
    5.2035   -1.7755    1.2594 H   0  0  0  0  0  0  0  0  0  0  0  0
    6.9214   -1.3217    1.4130 H   0  0  0  0  0  0  0  0  0  0  0  0
    3.6708    1.7720    1.8171 H   0  0  0  0  0  0  0  0  0  0  0  0
    1.3201    1.8042    1.2569 H   0  0  0  0  0  0  0  0  0  0  0  0
    1.9351   -1.0697   -1.8650 H   0  0  0  0  0  0  0  0  0  0  0  0
    4.3338   -1.1158   -1.3085 H   0  0  0  0  0  0  0  0  0  0  0  0
   -0.6528   -1.0919    0.7850 H   0  0  0  0  0  0  0  0  0  0  0  0
   -4.0738    1.7129   -1.1244 H   0  0  0  0  0  0  0  0  0  0  0  0
   -6.3265    2.5640   -1.2887 H   0  0  0  0  0  0  0  0  0  0  0  0
   -8.2502    1.2589   -0.5331 H   0  0  0  0  0  0  0  0  0  0  0  0
   -7.8834   -0.9563    0.4035 H   0  0  0  0  0  0  0  0  0  0  0  0
   -5.5124   -2.9961    0.0890 H   0  0  0  0  0  0  0  0  0  0  0  0
   -5.3543   -2.3012    1.7296 H   0  0  0  0  0  0  0  0  0  0  0  0
  1  2  1  0
  2  3  1  0
  2  4  1  0
  4  5  2  0
  5  6  1  0
  6  7  2  0
  7  8  1  0
  8  9  2  0
  7 10  1  0
 10 11  1  0
 11 12  2  0
 12 13  1  0
 13 14  2  0
 12 15  1  0
 15 16  2  0
 15 17  1  0
 17 18  2  0
 18 19  1  0
 19 20  2  0
 20 21  1  0
 21 22  2  0
 22 23  1  0
  9  4  1  0
 14 10  1  0
 22 17  1  0
  1 24  1  0
  1 25  1  0
  1 26  1  0
  2 27  1  0
  3 28  1  0
  3 29  1  0
  3 30  1  0
  5 31  1  0
  6 32  1  0
  8 33  1  0
  9 34  1  0
 11 35  1  0
 18 36  1  0
 19 37  1  0
 20 38  1  0
 21 39  1  0
 23 40  1  0
 23 41  1  0
M  END
$$$$
[H]OC1=NC(=O)C(=C([H])c2c([H])c([H])c(Oc3c([H])c([H])c(C(F)(F)F)c([H])c3C(F)(F)F)c(OC([H])([H])[H])c2[H])S1
     RDKit          3D

 42 44  0  0  0  0  0  0  0  0999 V2000
    0.6368   -4.0508    0.2920 C   0  0  0  0  0  0  0  0  0  0  0  0
    0.0992   -2.7675    0.2600 O   0  0  0  0  0  0  0  0  0  0  0  0
    0.7954   -1.5856    0.3502 C   0  0  0  0  0  0  0  0  0  0  0  0
    2.1614   -1.5195    0.4932 C   0  0  0  0  0  0  0  0  0  0  0  0
    2.8059   -0.2931    0.5849 C   0  0  0  0  0  0  0  0  0  0  0  0
    4.2599   -0.2984    0.7660 C   0  0  0  0  0  0  0  0  0  0  0  0
    5.0690    0.4855    0.1455 C   0  0  0  0  0  0  0  0  0  0  0  0
    4.6953    1.7377   -1.0600 S   0  0  0  0  0  0  0  0  0  0  0  0
    6.4238    2.2799   -1.2473 C   0  0  0  0  0  0  0  0  0  0  0  0
    6.7997    3.2988   -2.1201 O   0  0  0  0  0  0  0  0  0  0  0  0
    7.0900    1.5656   -0.4736 N   0  0  0  0  0  0  0  0  0  0  0  0
    6.4994    0.5976    0.3043 C   0  0  0  0  0  0  0  0  0  0  0  0
    7.1343   -0.1670    1.1184 O   0  0  0  0  0  0  0  0  0  0  0  0
    2.0756    0.8581    0.5319 C   0  0  0  0  0  0  0  0  0  0  0  0
    0.6783    0.7814    0.3835 C   0  0  0  0  0  0  0  0  0  0  0  0
   -0.0073   -0.3984    0.2912 C   0  0  0  0  0  0  0  0  0  0  0  0
   -1.3290   -0.5343    0.1555 O   0  0  0  0  0  0  0  0  0  0  0  0
   -2.4684    0.1371    0.1917 C   0  0  0  0  0  0  0  0  0  0  0  0
   -2.6466    1.4114    0.6575 C   0  0  0  0  0  0  0  0  0  0  0  0
   -3.8816    2.0498    0.6507 C   0  0  0  0  0  0  0  0  0  0  0  0
   -4.9772    1.4050    0.1698 C   0  0  0  0  0  0  0  0  0  0  0  0
   -4.8200    0.1315   -0.3008 C   0  0  0  0  0  0  0  0  0  0  0  0
   -3.6258   -0.5310   -0.3141 C   0  0  0  0  0  0  0  0  0  0  0  0
   -3.5397   -1.9378   -0.8330 C   0  0  0  0  0  0  0  0  0  0  0  0
   -3.2470   -2.8508    0.1582 F   0  0  0  0  0  0  0  0  0  0  0  0
   -4.7433   -2.2653   -1.3991 F   0  0  0  0  0  0  0  0  0  0  0  0
   -2.5706   -1.9891   -1.8480 F   0  0  0  0  0  0  0  0  0  0  0  0
   -6.2927    2.0414    0.1492 C   0  0  0  0  0  0  0  0  0  0  0  0
   -6.2268    3.3894    0.4026 F   0  0  0  0  0  0  0  0  0  0  0  0
   -6.9665    1.8948   -1.0260 F   0  0  0  0  0  0  0  0  0  0  0  0
   -7.1211    1.4754    1.1386 F   0  0  0  0  0  0  0  0  0  0  0  0
    1.7588   -4.0587    0.3268 H   0  0  0  0  0  0  0  0  0  0  0  0
    0.3770   -4.6476   -0.6020 H   0  0  0  0  0  0  0  0  0  0  0  0
    0.3384   -4.5425    1.2470 H   0  0  0  0  0  0  0  0  0  0  0  0
    2.7679   -2.4319    0.5311 H   0  0  0  0  0  0  0  0  0  0  0  0
    4.6351   -1.0314    1.5081 H   0  0  0  0  0  0  0  0  0  0  0  0
    6.2063    4.1458   -2.1005 H   0  0  0  0  0  0  0  0  0  0  0  0
    2.5523    1.8229    0.6065 H   0  0  0  0  0  0  0  0  0  0  0  0
    0.1328    1.7178    0.3077 H   0  0  0  0  0  0  0  0  0  0  0  0
   -1.8543    2.0139    1.0994 H   0  0  0  0  0  0  0  0  0  0  0  0
   -3.9636    3.0461    1.0221 H   0  0  0  0  0  0  0  0  0  0  0  0
   -5.7108   -0.3860   -0.6872 H   0  0  0  0  0  0  0  0  0  0  0  0
  1  2  1  0
  2  3  1  0
  3  4  2  0
  4  5  1  0
  5  6  1  0
  6  7  2  3
  7  8  1  0
  8  9  1  0
  9 10  1  0
  9 11  2  0
 11 12  1  0
 12 13  2  0
  5 14  2  0
 14 15  1  0
 15 16  2  0
 16 17  1  0
 17 18  1  0
 18 19  2  0
 19 20  1  0
 20 21  2  0
 21 22  1  0
 22 23  2  0
 23 24  1  0
 24 25  1  0
 24 26  1  0
 24 27  1  0
 21 28  1  0
 28 29  1  0
 28 30  1  0
 28 31  1  0
 16  3  1  0
 23 18  1  0
 12  7  1  0
  1 32  1  0
  1 33  1  0
  1 34  1  0
  4 35  1  0
  6 36  1  0
 10 37  1  0
 14 38  1  0
 15 39  1  0
 19 40  1  0
 20 41  1  0
 22 42  1  0
M  END
$$$$
[H]OC(=O)C([H])([H])N1C(=O)S/C(=C(/[H])c2c([H])c([H])c3c(c([H])nn3C([H])([H])c3c([H])c([H])c(OC([H])([H])[H])c([H])c3C(F)(F)F)c2[H])C1=O
     RDKit          3D

 50 53  0  0  0  0  0  0  0  0999 V2000
   -7.4640    2.1174    1.9614 C   0  0  0  0  0  0  0  0  0  0  0  0
   -6.9941    0.8465    1.6658 O   0  0  0  0  0  0  0  0  0  0  0  0
   -5.9887    0.5281    0.7621 C   0  0  0  0  0  0  0  0  0  0  0  0
   -5.3255    1.4916    0.0350 C   0  0  0  0  0  0  0  0  0  0  0  0
   -4.3328    1.1460   -0.8578 C   0  0  0  0  0  0  0  0  0  0  0  0
   -3.9331   -0.1752   -1.0882 C   0  0  0  0  0  0  0  0  0  0  0  0
   -2.8566   -0.4433   -2.0529 C   0  0  0  0  0  0  0  0  0  0  0  0
   -1.7000    0.3992   -1.8812 N   0  0  0  0  0  0  0  0  0  0  0  0
   -1.5952    1.6186   -2.4936 N   0  0  0  0  0  0  0  0  0  0  0  0
   -0.4489    2.2082   -2.2022 C   0  0  0  0  0  0  0  0  0  0  0  0
    0.2299    1.3603   -1.3721 C   0  0  0  0  0  0  0  0  0  0  0  0
    1.4566    1.4355   -0.7681 C   0  0  0  0  0  0  0  0  0  0  0  0
    1.9523    0.4107    0.0430 C   0  0  0  0  0  0  0  0  0  0  0  0
    3.2523    0.6414    0.6487 C   0  0  0  0  0  0  0  0  0  0  0  0
    4.2459   -0.2010    0.7124 C   0  0  0  0  0  0  0  0  0  0  0  0
    4.2104   -1.8718    0.0348 S   0  0  0  0  0  0  0  0  0  0  0  0
    5.9978   -2.0152   -0.0925 C   0  0  0  0  0  0  0  0  0  0  0  0
    6.5994   -2.7784   -0.8472 O   0  0  0  0  0  0  0  0  0  0  0  0
    6.4878   -1.0801    0.8406 N   0  0  0  0  0  0  0  0  0  0  0  0
    7.8925   -1.1030    1.3139 C   0  0  0  0  0  0  0  0  0  0  0  0
    8.7328   -0.2490    0.4281 C   0  0  0  0  0  0  0  0  0  0  0  0
    8.2180    0.4100   -0.6757 O   0  0  0  0  0  0  0  0  0  0  0  0
    9.9661   -0.1016    0.6718 O   0  0  0  0  0  0  0  0  0  0  0  0
    5.5801   -0.1128    1.2808 C   0  0  0  0  0  0  0  0  0  0  0  0
    5.8501    0.8167    2.1298 O   0  0  0  0  0  0  0  0  0  0  0  0
    1.1528   -0.6698    0.2026 C   0  0  0  0  0  0  0  0  0  0  0  0
   -0.0874   -0.7799   -0.3879 C   0  0  0  0  0  0  0  0  0  0  0  0
   -0.5786    0.2448   -1.1950 C   0  0  0  0  0  0  0  0  0  0  0  0
   -4.6008   -1.1366   -0.3559 C   0  0  0  0  0  0  0  0  0  0  0  0
   -5.6114   -0.7725    0.5514 C   0  0  0  0  0  0  0  0  0  0  0  0
   -4.2965   -2.5651   -0.5245 C   0  0  0  0  0  0  0  0  0  0  0  0
   -3.0666   -2.9848   -0.1627 F   0  0  0  0  0  0  0  0  0  0  0  0
   -5.2503   -3.3051    0.1853 F   0  0  0  0  0  0  0  0  0  0  0  0
   -4.5631   -2.8850   -1.8692 F   0  0  0  0  0  0  0  0  0  0  0  0
   -8.5311    2.0425    2.3013 H   0  0  0  0  0  0  0  0  0  0  0  0
   -6.8610    2.5201    2.8114 H   0  0  0  0  0  0  0  0  0  0  0  0
   -7.4112    2.8538    1.1460 H   0  0  0  0  0  0  0  0  0  0  0  0
   -5.6075    2.5356    0.1882 H   0  0  0  0  0  0  0  0  0  0  0  0
   -3.8369    1.9255   -1.4087 H   0  0  0  0  0  0  0  0  0  0  0  0
   -3.2584   -0.3219   -3.1157 H   0  0  0  0  0  0  0  0  0  0  0  0
   -2.5219   -1.5126   -2.0529 H   0  0  0  0  0  0  0  0  0  0  0  0
   -0.0825    3.1980   -2.5517 H   0  0  0  0  0  0  0  0  0  0  0  0
    2.0881    2.3182   -0.9245 H   0  0  0  0  0  0  0  0  0  0  0  0
    3.4775    1.6280    1.1195 H   0  0  0  0  0  0  0  0  0  0  0  0
    7.9390   -0.7861    2.3591 H   0  0  0  0  0  0  0  0  0  0  0  0
    8.3026   -2.1271    1.2156 H   0  0  0  0  0  0  0  0  0  0  0  0
    8.4335   -0.0201   -1.5904 H   0  0  0  0  0  0  0  0  0  0  0  0
    1.5150   -1.4878    0.8321 H   0  0  0  0  0  0  0  0  0  0  0  0
   -0.6668   -1.6726   -0.2118 H   0  0  0  0  0  0  0  0  0  0  0  0
   -6.1100   -1.5382    1.1054 H   0  0  0  0  0  0  0  0  0  0  0  0
  1  2  1  0
  2  3  1  0
  3  4  2  0
  4  5  1  0
  5  6  2  0
  6  7  1  0
  7  8  1  0
  8  9  1  0
  9 10  2  0
 10 11  1  0
 11 12  2  0
 12 13  1  0
 13 14  1  0
 14 15  2  0
 15 16  1  0
 16 17  1  0
 17 18  2  0
 17 19  1  0
 19 20  1  0
 20 21  1  0
 21 22  1  0
 21 23  2  0
 19 24  1  0
 24 25  2  0
 13 26  2  0
 26 27  1  0
 27 28  2  0
  6 29  1  0
 29 30  2  0
 29 31  1  0
 31 32  1  0
 31 33  1  0
 31 34  1  0
 30  3  1  0
 28  8  1  0
 28 11  1  0
 24 15  1  0
  1 35  1  0
  1 36  1  0
  1 37  1  0
  4 38  1  0
  5 39  1  0
  7 40  1  0
  7 41  1  0
 10 42  1  0
 12 43  1  0
 14 44  1  0
 20 45  1  0
 20 46  1  0
 22 47  1  0
 26 48  1  0
 27 49  1  0
 30 50  1  0
M  END
$$$$
[H]Oc1c([H])c([H])c2c(c1[H])OC([H])([H])c1c-2nc2c([H])c([H])c(O[H])c([H])c2c1C([H])([H])C([H])([H])[H]
     RDKit          3D

 37 40  0  0  0  0  0  0  0  0999 V2000
   -2.5431    0.5609    2.6564 C   0  0  0  0  0  0  0  0  0  0  0  0
   -1.9063   -0.6992    2.1353 C   0  0  0  0  0  0  0  0  0  0  0  0
   -1.1740   -0.5416    0.8789 C   0  0  0  0  0  0  0  0  0  0  0  0
    0.1023   -0.0185    0.8611 C   0  0  0  0  0  0  0  0  0  0  0  0
    0.7641    0.3947    2.1250 C   0  0  0  0  0  0  0  0  0  0  0  0
    2.0666    0.8565    1.9452 O   0  0  0  0  0  0  0  0  0  0  0  0
    2.7595    1.0237    0.7900 C   0  0  0  0  0  0  0  0  0  0  0  0
    4.0510    1.5351    0.7797 C   0  0  0  0  0  0  0  0  0  0  0  0
    4.7265    1.6949   -0.3895 C   0  0  0  0  0  0  0  0  0  0  0  0
    6.0159    2.2063   -0.3887 O   0  0  0  0  0  0  0  0  0  0  0  0
    4.1003    1.3357   -1.5905 C   0  0  0  0  0  0  0  0  0  0  0  0
    2.8205    0.8272   -1.5954 C   0  0  0  0  0  0  0  0  0  0  0  0
    2.1521    0.6712   -0.4129 C   0  0  0  0  0  0  0  0  0  0  0  0
    0.7923    0.1409   -0.3317 C   0  0  0  0  0  0  0  0  0  0  0  0
    0.2289   -0.2117   -1.4970 N   0  0  0  0  0  0  0  0  0  0  0  0
   -1.0212   -0.7263   -1.5075 C   0  0  0  0  0  0  0  0  0  0  0  0
   -1.5807   -1.0761   -2.7270 C   0  0  0  0  0  0  0  0  0  0  0  0
   -2.8527   -1.5961   -2.7691 C   0  0  0  0  0  0  0  0  0  0  0  0
   -3.5912   -1.7801   -1.6272 C   0  0  0  0  0  0  0  0  0  0  0  0
   -4.8779   -2.3018   -1.6318 O   0  0  0  0  0  0  0  0  0  0  0  0
   -3.0257   -1.4290   -0.4180 C   0  0  0  0  0  0  0  0  0  0  0  0
   -1.7462   -0.9027   -0.3369 C   0  0  0  0  0  0  0  0  0  0  0  0
   -2.0216    1.0064    3.5236 H   0  0  0  0  0  0  0  0  0  0  0  0
   -3.5564    0.2651    3.0626 H   0  0  0  0  0  0  0  0  0  0  0  0
   -2.7282    1.3200    1.8761 H   0  0  0  0  0  0  0  0  0  0  0  0
   -2.5487   -1.5735    2.1008 H   0  0  0  0  0  0  0  0  0  0  0  0
   -1.1166   -0.9495    2.9287 H   0  0  0  0  0  0  0  0  0  0  0  0
    0.8436   -0.4502    2.8607 H   0  0  0  0  0  0  0  0  0  0  0  0
    0.1423    1.2254    2.5534 H   0  0  0  0  0  0  0  0  0  0  0  0
    4.4932    1.7987    1.7290 H   0  0  0  0  0  0  0  0  0  0  0  0
    6.5759    2.3532   -1.1992 H   0  0  0  0  0  0  0  0  0  0  0  0
    4.6265    1.4613   -2.4992 H   0  0  0  0  0  0  0  0  0  0  0  0
    2.3091    0.5399   -2.5121 H   0  0  0  0  0  0  0  0  0  0  0  0
   -1.0209   -0.9442   -3.6675 H   0  0  0  0  0  0  0  0  0  0  0  0
   -3.3133   -1.8797   -3.7273 H   0  0  0  0  0  0  0  0  0  0  0  0
   -5.3349   -2.5733   -2.4856 H   0  0  0  0  0  0  0  0  0  0  0  0
   -3.6111   -1.5638    0.5077 H   0  0  0  0  0  0  0  0  0  0  0  0
  1  2  1  0
  2  3  1  0
  3  4  2  0
  4  5  1  0
  5  6  1  0
  6  7  1  0
  7  8  2  0
  8  9  1  0
  9 10  1  0
  9 11  2  0
 11 12  1  0
 12 13  2  0
 13 14  1  0
 14 15  2  0
 15 16  1  0
 16 17  2  0
 17 18  1  0
 18 19  2  0
 19 20  1  0
 19 21  1  0
 21 22  2  0
 22  3  1  0
 14  4  1  0
 22 16  1  0
 13  7  1  0
  1 23  1  0
  1 24  1  0
  1 25  1  0
  2 26  1  0
  2 27  1  0
  5 28  1  0
  5 29  1  0
  8 30  1  0
 10 31  1  0
 11 32  1  0
 12 33  1  0
 17 34  1  0
 18 35  1  0
 20 36  1  0
 21 37  1  0
M  END
$$$$
[H]/C(=C1/SC(=O)N([C@]2([H])C([H])([H])C([H])([H])N([H])C([H])([H])[C@@]2([H])F)C1=O)c1c([H])c([H])c2c(c([H])nn2C([H])([H])c2c([H])c([H])c(Cl)c([H])c2C(F)(F)F)c1[H]
     RDKit          3D

 55 59  0  0  0  0  0  0  0  0999 V2000
   -5.7562    0.7116    2.4286 F   0  0  0  0  0  0  0  0  0  0  0  0
   -6.3397    0.7127    1.1771 C   0  0  2  0  0  0  0  0  0  0  0  0
   -7.8434    0.6266    1.3837 C   0  0  0  0  0  0  0  0  0  0  0  0
   -8.4543    0.8900    0.0829 N   0  0  0  0  0  0  0  0  0  0  0  0
   -8.0847   -0.2135   -0.8032 C   0  0  0  0  0  0  0  0  0  0  0  0
   -6.5935   -0.2334   -1.0427 C   0  0  0  0  0  0  0  0  0  0  0  0
   -5.9456   -0.4361    0.3182 C   0  0  1  0  0  0  0  0  0  0  0  0
   -4.4824   -0.5599    0.1449 N   0  0  0  0  0  0  0  0  0  0  0  0
   -3.8356   -1.7705    0.4704 C   0  0  0  0  0  0  0  0  0  0  0  0
   -4.1316   -2.7453    1.1884 O   0  0  0  0  0  0  0  0  0  0  0  0
   -2.2760   -1.6777   -0.4518 S   0  0  0  0  0  0  0  0  0  0  0  0
   -2.2360    0.1384   -0.4047 C   0  0  0  0  0  0  0  0  0  0  0  0
   -1.1761    0.8859   -0.4317 C   0  0  0  0  0  0  0  0  0  0  0  0
    0.1738    0.3558   -0.5047 C   0  0  0  0  0  0  0  0  0  0  0  0
    1.0781    1.0192   -1.3310 C   0  0  0  0  0  0  0  0  0  0  0  0
    2.3833    0.6278   -1.4829 C   0  0  0  0  0  0  0  0  0  0  0  0
    2.8859   -0.4797   -0.8031 C   0  0  0  0  0  0  0  0  0  0  0  0
    4.0496   -1.1066   -0.7696 N   0  0  0  0  0  0  0  0  0  0  0  0
    5.3293   -0.7694   -1.3838 C   0  0  0  0  0  0  0  0  0  0  0  0
    6.3608   -0.3223   -0.4626 C   0  0  0  0  0  0  0  0  0  0  0  0
    7.1750   -1.4025    0.0301 C   0  0  0  0  0  0  0  0  0  0  0  0
    8.1737   -1.1406    0.9111 C   0  0  0  0  0  0  0  0  0  0  0  0
    8.4322    0.1389    1.3508 C   0  0  0  0  0  0  0  0  0  0  0  0
    9.7348    0.4476    2.4978 Cl  0  0  0  0  0  0  0  0  0  0  0  0
    7.6575    1.1642    0.8812 C   0  0  0  0  0  0  0  0  0  0  0  0
    6.6021    0.9407   -0.0406 C   0  0  0  0  0  0  0  0  0  0  0  0
    5.8208    2.1092   -0.4735 C   0  0  0  0  0  0  0  0  0  0  0  0
    5.7003    2.2560   -1.8371 F   0  0  0  0  0  0  0  0  0  0  0  0
    6.7047    3.2442   -0.1922 F   0  0  0  0  0  0  0  0  0  0  0  0
    4.7334    2.4275    0.2465 F   0  0  0  0  0  0  0  0  0  0  0  0
    3.9103   -2.1638    0.0580 N   0  0  0  0  0  0  0  0  0  0  0  0
    2.6849   -2.1888    0.5298 C   0  0  0  0  0  0  0  0  0  0  0  0
    1.9882   -1.1258    0.0055 C   0  0  0  0  0  0  0  0  0  0  0  0
    0.6537   -0.7249    0.1615 C   0  0  0  0  0  0  0  0  0  0  0  0
   -3.6480    0.4686   -0.3234 C   0  0  0  0  0  0  0  0  0  0  0  0
   -4.0683    1.6366   -0.6662 O   0  0  0  0  0  0  0  0  0  0  0  0
   -6.1835    1.7078    0.6604 H   0  0  0  0  0  0  0  0  0  0  0  0
   -8.1542   -0.3722    1.7355 H   0  0  0  0  0  0  0  0  0  0  0  0
   -8.1506    1.4435    2.0732 H   0  0  0  0  0  0  0  0  0  0  0  0
   -7.9258    1.7285   -0.3079 H   0  0  0  0  0  0  0  0  0  0  0  0
   -8.3965   -1.1501   -0.2826 H   0  0  0  0  0  0  0  0  0  0  0  0
   -8.6153   -0.1760   -1.7668 H   0  0  0  0  0  0  0  0  0  0  0  0
   -6.2641    0.6867   -1.5210 H   0  0  0  0  0  0  0  0  0  0  0  0
   -6.3694   -1.0882   -1.6982 H   0  0  0  0  0  0  0  0  0  0  0  0
   -6.3779   -1.3645    0.7242 H   0  0  0  0  0  0  0  0  0  0  0  0
   -1.3692    1.9717   -0.3957 H   0  0  0  0  0  0  0  0  0  0  0  0
    0.7288    1.8933   -1.8833 H   0  0  0  0  0  0  0  0  0  0  0  0
    3.0874    1.1329   -2.1270 H   0  0  0  0  0  0  0  0  0  0  0  0
    5.1473   -0.0712   -2.2526 H   0  0  0  0  0  0  0  0  0  0  0  0
    5.6387   -1.7214   -1.9179 H   0  0  0  0  0  0  0  0  0  0  0  0
    6.9687   -2.4163   -0.3209 H   0  0  0  0  0  0  0  0  0  0  0  0
    8.7978   -1.9472    1.2932 H   0  0  0  0  0  0  0  0  0  0  0  0
    7.8474    2.1680    1.2195 H   0  0  0  0  0  0  0  0  0  0  0  0
    2.2197   -2.9026    1.2254 H   0  0  0  0  0  0  0  0  0  0  0  0
    0.0096   -1.2634    0.8132 H   0  0  0  0  0  0  0  0  0  0  0  0
  1  2  1  0
  2  3  1  0
  3  4  1  0
  4  5  1  0
  5  6  1  0
  6  7  1  0
  7  8  1  0
  8  9  1  0
  9 10  2  0
  9 11  1  0
 11 12  1  0
 12 13  2  0
 13 14  1  0
 14 15  2  0
 15 16  1  0
 16 17  2  0
 17 18  1  0
 18 19  1  0
 19 20  1  0
 20 21  2  0
 21 22  1  0
 22 23  2  0
 23 24  1  0
 23 25  1  0
 25 26  2  0
 26 27  1  0
 27 28  1  0
 27 29  1  0
 27 30  1  0
 18 31  1  0
 31 32  2  0
 32 33  1  0
 33 34  2  0
 12 35  1  0
 35 36  2  0
  7  2  1  0
 35  8  1  0
 34 14  1  0
 33 17  1  0
 26 20  1  0
  2 37  1  6
  3 38  1  0
  3 39  1  0
  4 40  1  0
  5 41  1  0
  5 42  1  0
  6 43  1  0
  6 44  1  0
  7 45  1  1
 13 46  1  0
 15 47  1  0
 16 48  1  0
 19 49  1  0
 19 50  1  0
 21 51  1  0
 22 52  1  0
 25 53  1  0
 32 54  1  0
 34 55  1  0
M  END
$$$$
[H]Oc1c([H])c([H])c2c(c1[H])C([H])([H])C([H])([H])[C@]1([H])[C@]2([H])C([H])([H])C([H])([H])[C@]2(C([H])([H])[H])[C@@]([H])(O[H])C([H])([H])C([H])([H])[C@]21[H]
     RDKit          3D

 44 47  0  0  0  0  0  0  0  0999 V2000
   -2.2616   -0.7647    1.3456 C   0  0  0  0  0  0  0  0  0  0  0  0
   -2.1872   -0.4820   -0.1355 C   0  0  2  0  0  0  0  0  0  0  0  0
   -1.4972   -1.6125   -0.8188 C   0  0  0  0  0  0  0  0  0  0  0  0
   -0.0355   -1.6614   -0.5111 C   0  0  0  0  0  0  0  0  0  0  0  0
    0.6317   -0.3276   -0.6087 C   0  0  1  0  0  0  0  0  0  0  0  0
   -0.1167    0.7120    0.2397 C   0  0  1  0  0  0  0  0  0  0  0  0
    0.6973    1.9517    0.3346 C   0  0  0  0  0  0  0  0  0  0  0  0
    1.8991    1.6281    1.2348 C   0  0  0  0  0  0  0  0  0  0  0  0
    2.6681    0.5258    0.5618 C   0  0  0  0  0  0  0  0  0  0  0  0
    4.0208    0.4137    0.8075 C   0  0  0  0  0  0  0  0  0  0  0  0
    4.8096   -0.5725    0.2292 C   0  0  0  0  0  0  0  0  0  0  0  0
    6.1817   -0.6599    0.4990 O   0  0  0  0  0  0  0  0  0  0  0  0
    4.1863   -1.4604   -0.6201 C   0  0  0  0  0  0  0  0  0  0  0  0
    2.8307   -1.3536   -0.8705 C   0  0  0  0  0  0  0  0  0  0  0  0
    2.0522   -0.3730   -0.2941 C   0  0  0  0  0  0  0  0  0  0  0  0
   -1.4489    0.8431   -0.3896 C   0  0  2  0  0  0  0  0  0  0  0  0
   -2.3800    1.8245    0.1898 C   0  0  0  0  0  0  0  0  0  0  0  0
   -3.7490    1.2757   -0.1912 C   0  0  0  0  0  0  0  0  0  0  0  0
   -3.5339   -0.1411   -0.6696 C   0  0  2  0  0  0  0  0  0  0  0  0
   -4.4822   -1.0192   -0.1693 O   0  0  0  0  0  0  0  0  0  0  0  0
   -3.3190   -1.0974    1.5551 H   0  0  0  0  0  0  0  0  0  0  0  0
   -1.6242   -1.6159    1.6570 H   0  0  0  0  0  0  0  0  0  0  0  0
   -2.0942    0.1160    1.9735 H   0  0  0  0  0  0  0  0  0  0  0  0
   -1.7135   -1.6572   -1.9098 H   0  0  0  0  0  0  0  0  0  0  0  0
   -1.9450   -2.5631   -0.4048 H   0  0  0  0  0  0  0  0  0  0  0  0
    0.1510   -2.1510    0.4861 H   0  0  0  0  0  0  0  0  0  0  0  0
    0.4339   -2.3403   -1.2525 H   0  0  0  0  0  0  0  0  0  0  0  0
    0.5187    0.0259   -1.6572 H   0  0  0  0  0  0  0  0  0  0  0  0
   -0.1882    0.2644    1.2522 H   0  0  0  0  0  0  0  0  0  0  0  0
    1.1649    2.2436   -0.6508 H   0  0  0  0  0  0  0  0  0  0  0  0
    0.1574    2.7804    0.7893 H   0  0  0  0  0  0  0  0  0  0  0  0
    2.5196    2.5130    1.4035 H   0  0  0  0  0  0  0  0  0  0  0  0
    1.4780    1.1823    2.1542 H   0  0  0  0  0  0  0  0  0  0  0  0
    4.5228    1.1037    1.4718 H   0  0  0  0  0  0  0  0  0  0  0  0
    6.5756    0.0194    1.1283 H   0  0  0  0  0  0  0  0  0  0  0  0
    4.7934   -2.2292   -1.0728 H   0  0  0  0  0  0  0  0  0  0  0  0
    2.4286   -2.0954   -1.5517 H   0  0  0  0  0  0  0  0  0  0  0  0
   -1.3743    0.9848   -1.4780 H   0  0  0  0  0  0  0  0  0  0  0  0
   -2.2899    2.0186    1.2621 H   0  0  0  0  0  0  0  0  0  0  0  0
   -2.2758    2.8067   -0.3367 H   0  0  0  0  0  0  0  0  0  0  0  0
   -4.1755    1.8381   -1.0706 H   0  0  0  0  0  0  0  0  0  0  0  0
   -4.4356    1.2437    0.6584 H   0  0  0  0  0  0  0  0  0  0  0  0
   -3.4818   -0.1892   -1.7851 H   0  0  0  0  0  0  0  0  0  0  0  0
   -4.1124   -1.9488   -0.1478 H   0  0  0  0  0  0  0  0  0  0  0  0
  2  1  1  1
  2  3  1  0
  3  4  1  0
  4  5  1  0
  5  6  1  0
  6  7  1  0
  7  8  1  0
  8  9  1  0
  9 10  2  0
 10 11  1  0
 11 12  1  0
 11 13  2  0
 13 14  1  0
 14 15  2  0
  6 16  1  0
 16 17  1  0
 17 18  1  0
 18 19  1  0
 19 20  1  0
 16  2  1  0
 19  2  1  0
 15  5  1  0
 15  9  1  0
  1 21  1  0
  1 22  1  0
  1 23  1  0
  3 24  1  0
  3 25  1  0
  4 26  1  0
  4 27  1  0
  5 28  1  6
  6 29  1  1
  7 30  1  0
  7 31  1  0
  8 32  1  0
  8 33  1  0
 10 34  1  0
 12 35  1  0
 13 36  1  0
 14 37  1  0
 16 38  1  6
 17 39  1  0
 17 40  1  0
 18 41  1  0
 18 42  1  0
 19 43  1  6
 20 44  1  0
M  END
$$$$
[H]/C(=C1/SC(=O)N(C2([H])C([H])([H])C([H])([H])N(C([H])([H])[H])C([H])([H])C2([H])[H])C1=O)c1c([H])c([H])c2c(c([H])nn2C([H])([H])c2c([H])c([H])c(Cl)c([H])c2C(F)(F)F)c1[H]
     RDKit          3D

 58 62  0  0  0  0  0  0  0  0999 V2000
    8.6260    1.7049   -1.1831 C   0  0  0  0  0  0  0  0  0  0  0  0
    7.3429    1.0633   -0.9706 N   0  0  0  0  0  0  0  0  0  0  0  0
    7.3417   -0.3187   -1.3100 C   0  0  0  0  0  0  0  0  0  0  0  0
    5.8793   -0.7803   -1.2249 C   0  0  0  0  0  0  0  0  0  0  0  0
    5.5688   -0.8187    0.2331 C   0  0  0  0  0  0  0  0  0  0  0  0
    6.0606    0.3465    1.0185 C   0  0  0  0  0  0  0  0  0  0  0  0
    6.7945    1.3950    0.2940 C   0  0  0  0  0  0  0  0  0  0  0  0
    4.1001   -0.9742    0.3687 N   0  0  0  0  0  0  0  0  0  0  0  0
    3.4934   -2.1190    0.9055 C   0  0  0  0  0  0  0  0  0  0  0  0
    4.0471   -3.1866    1.2147 O   0  0  0  0  0  0  0  0  0  0  0  0
    1.7624   -1.7494    1.0619 S   0  0  0  0  0  0  0  0  0  0  0  0
    1.8158   -0.2026    0.1544 C   0  0  0  0  0  0  0  0  0  0  0  0
    0.7764    0.5130   -0.2215 C   0  0  0  0  0  0  0  0  0  0  0  0
   -0.5873    0.1127    0.0681 C   0  0  0  0  0  0  0  0  0  0  0  0
   -1.4529    1.1294    0.4883 C   0  0  0  0  0  0  0  0  0  0  0  0
   -2.7720    0.9109    0.7889 C   0  0  0  0  0  0  0  0  0  0  0  0
   -3.3112   -0.3476    0.6866 C   0  0  0  0  0  0  0  0  0  0  0  0
   -4.5261   -0.8341    0.9404 N   0  0  0  0  0  0  0  0  0  0  0  0
   -5.7732   -0.2234    1.3134 C   0  0  0  0  0  0  0  0  0  0  0  0
   -6.8250   -0.1466    0.3183 C   0  0  0  0  0  0  0  0  0  0  0  0
   -7.7646   -1.2232    0.3874 C   0  0  0  0  0  0  0  0  0  0  0  0
   -8.8079   -1.3023   -0.4699 C   0  0  0  0  0  0  0  0  0  0  0  0
   -9.0129   -0.3532   -1.4471 C   0  0  0  0  0  0  0  0  0  0  0  0
  -10.3641   -0.4483   -2.5675 Cl  0  0  0  0  0  0  0  0  0  0  0  0
   -8.1152    0.6704   -1.5097 C   0  0  0  0  0  0  0  0  0  0  0  0
   -7.0101    0.8020   -0.6406 C   0  0  0  0  0  0  0  0  0  0  0  0
   -6.1312    1.9763   -0.8663 C   0  0  0  0  0  0  0  0  0  0  0  0
   -5.9359    2.7478    0.2581 F   0  0  0  0  0  0  0  0  0  0  0  0
   -6.9086    2.9034   -1.6704 F   0  0  0  0  0  0  0  0  0  0  0  0
   -5.0575    1.7564   -1.6614 F   0  0  0  0  0  0  0  0  0  0  0  0
   -4.4216   -2.1511    0.6860 N   0  0  0  0  0  0  0  0  0  0  0  0
   -3.2243   -2.5065    0.2899 C   0  0  0  0  0  0  0  0  0  0  0  0
   -2.4481   -1.3587    0.2703 C   0  0  0  0  0  0  0  0  0  0  0  0
   -1.1126   -1.1307   -0.0336 C   0  0  0  0  0  0  0  0  0  0  0  0
    3.2338    0.0540   -0.0367 C   0  0  0  0  0  0  0  0  0  0  0  0
    3.6015    1.1816   -0.5532 O   0  0  0  0  0  0  0  0  0  0  0  0
    9.2069    1.6518   -0.2389 H   0  0  0  0  0  0  0  0  0  0  0  0
    9.1320    1.2989   -2.0587 H   0  0  0  0  0  0  0  0  0  0  0  0
    8.3930    2.7836   -1.3546 H   0  0  0  0  0  0  0  0  0  0  0  0
    7.9861   -0.9503   -0.6729 H   0  0  0  0  0  0  0  0  0  0  0  0
    7.6666   -0.4551   -2.3422 H   0  0  0  0  0  0  0  0  0  0  0  0
    5.3014   -0.0542   -1.7996 H   0  0  0  0  0  0  0  0  0  0  0  0
    5.7826   -1.8216   -1.6166 H   0  0  0  0  0  0  0  0  0  0  0  0
    6.0386   -1.7392    0.6312 H   0  0  0  0  0  0  0  0  0  0  0  0
    5.1508    0.8290    1.4926 H   0  0  0  0  0  0  0  0  0  0  0  0
    6.6616    0.0020    1.9145 H   0  0  0  0  0  0  0  0  0  0  0  0
    7.6508    1.7677    0.9321 H   0  0  0  0  0  0  0  0  0  0  0  0
    6.1676    2.3264    0.1479 H   0  0  0  0  0  0  0  0  0  0  0  0
    1.0020    1.4376   -0.7728 H   0  0  0  0  0  0  0  0  0  0  0  0
   -1.0993    2.1435    0.5943 H   0  0  0  0  0  0  0  0  0  0  0  0
   -3.4401    1.6942    1.1226 H   0  0  0  0  0  0  0  0  0  0  0  0
   -6.1783   -0.7108    2.2550 H   0  0  0  0  0  0  0  0  0  0  0  0
   -5.5350    0.8397    1.6630 H   0  0  0  0  0  0  0  0  0  0  0  0
   -7.6442   -1.9996    1.1434 H   0  0  0  0  0  0  0  0  0  0  0  0
   -9.5473   -2.1176   -0.4422 H   0  0  0  0  0  0  0  0  0  0  0  0
   -8.2549    1.4234   -2.2698 H   0  0  0  0  0  0  0  0  0  0  0  0
   -2.8175   -3.4857    0.0069 H   0  0  0  0  0  0  0  0  0  0  0  0
   -0.5049   -1.9568   -0.3565 H   0  0  0  0  0  0  0  0  0  0  0  0
  1  2  1  0
  2  3  1  0
  3  4  1  0
  4  5  1  0
  5  6  1  0
  6  7  1  0
  5  8  1  0
  8  9  1  0
  9 10  2  0
  9 11  1  0
 11 12  1  0
 12 13  2  0
 13 14  1  0
 14 15  2  0
 15 16  1  0
 16 17  2  0
 17 18  1  0
 18 19  1  0
 19 20  1  0
 20 21  2  0
 21 22  1  0
 22 23  2  0
 23 24  1  0
 23 25  1  0
 25 26  2  0
 26 27  1  0
 27 28  1  0
 27 29  1  0
 27 30  1  0
 18 31  1  0
 31 32  2  0
 32 33  1  0
 33 34  2  0
 12 35  1  0
 35 36  2  0
  7  2  1  0
 35  8  1  0
 34 14  1  0
 33 17  1  0
 26 20  1  0
  1 37  1  0
  1 38  1  0
  1 39  1  0
  3 40  1  0
  3 41  1  0
  4 42  1  0
  4 43  1  0
  5 44  1  0
  6 45  1  0
  6 46  1  0
  7 47  1  0
  7 48  1  0
 13 49  1  0
 15 50  1  0
 16 51  1  0
 19 52  1  0
 19 53  1  0
 21 54  1  0
 22 55  1  0
 25 56  1  0
 32 57  1  0
 34 58  1  0
M  END
$$$$
[H]Oc1c([H])c([H])c2c(c1[H])OC([H])([H])c1c-2nc2c([H])c([H])c(O[H])c([H])c2c1C#N
     RDKit          3D

 32 35  0  0  0  0  0  0  0  0999 V2000
    6.0758    0.3628   -0.4895 O   0  0  0  0  0  0  0  0  0  0  0  0
    4.6941    0.2885   -0.3975 C   0  0  0  0  0  0  0  0  0  0  0  0
    3.9174    1.3851   -0.7041 C   0  0  0  0  0  0  0  0  0  0  0  0
    2.5418    1.3302   -0.6185 C   0  0  0  0  0  0  0  0  0  0  0  0
    1.9150    0.1831   -0.2264 C   0  0  0  0  0  0  0  0  0  0  0  0
    2.6609   -0.9300    0.0869 C   0  0  0  0  0  0  0  0  0  0  0  0
    2.0789   -2.1115    0.4876 O   0  0  0  0  0  0  0  0  0  0  0  0
    0.7238   -2.2927    0.6119 C   0  0  0  0  0  0  0  0  0  0  0  0
   -0.0763   -1.1215    0.2831 C   0  0  0  0  0  0  0  0  0  0  0  0
    0.4754    0.0579   -0.1155 C   0  0  0  0  0  0  0  0  0  0  0  0
   -0.3433    1.0951   -0.4012 N   0  0  0  0  0  0  0  0  0  0  0  0
   -1.6804    1.0204   -0.3113 C   0  0  0  0  0  0  0  0  0  0  0  0
   -2.4971    2.0892   -0.6071 C   0  0  0  0  0  0  0  0  0  0  0  0
   -3.8649    1.9515   -0.4959 C   0  0  0  0  0  0  0  0  0  0  0  0
   -4.4562    0.7715   -0.0951 C   0  0  0  0  0  0  0  0  0  0  0  0
   -5.8403    0.7264   -0.0122 O   0  0  0  0  0  0  0  0  0  0  0  0
   -3.6466   -0.3022    0.2025 C   0  0  0  0  0  0  0  0  0  0  0  0
   -2.2560   -0.1677    0.0911 C   0  0  0  0  0  0  0  0  0  0  0  0
   -1.4613   -1.2468    0.3913 C   0  0  0  0  0  0  0  0  0  0  0  0
   -2.0404   -2.5018    0.8150 C   0  0  0  0  0  0  0  0  0  0  0  0
   -2.5057   -3.5148    1.1358 N   0  0  0  0  0  0  0  0  0  0  0  0
    4.0525   -0.8639   -0.0030 C   0  0  0  0  0  0  0  0  0  0  0  0
    6.5750    1.1719   -0.7689 H   0  0  0  0  0  0  0  0  0  0  0  0
    4.4060    2.3089   -1.0190 H   0  0  0  0  0  0  0  0  0  0  0  0
    1.9327    2.2117   -0.8656 H   0  0  0  0  0  0  0  0  0  0  0  0
    0.3576   -3.2175    0.0876 H   0  0  0  0  0  0  0  0  0  0  0  0
    0.5225   -2.5028    1.7159 H   0  0  0  0  0  0  0  0  0  0  0  0
   -2.0474    3.0075   -0.9184 H   0  0  0  0  0  0  0  0  0  0  0  0
   -4.4906    2.7896   -0.7286 H   0  0  0  0  0  0  0  0  0  0  0  0
   -6.2903    0.9753    0.8591 H   0  0  0  0  0  0  0  0  0  0  0  0
   -4.0830   -1.2217    0.5136 H   0  0  0  0  0  0  0  0  0  0  0  0
    4.6503   -1.7313    0.2403 H   0  0  0  0  0  0  0  0  0  0  0  0
  1  2  1  0
  2  3  2  0
  3  4  1  0
  4  5  2  0
  5  6  1  0
  6  7  1  0
  7  8  1  0
  8  9  1  0
  9 10  2  0
 10 11  1  0
 11 12  2  0
 12 13  1  0
 13 14  2  0
 14 15  1  0
 15 16  1  0
 15 17  2  0
 17 18  1  0
 18 19  2  0
 19 20  1  0
 20 21  3  0
  6 22  2  0
 22  2  1  0
  5 10  1  0
 18 12  1  0
 19  9  1  0
  1 23  1  0
  3 24  1  0
  4 25  1  0
  8 26  1  0
  8 27  1  0
 13 28  1  0
 14 29  1  0
 16 30  1  0
 17 31  1  0
 22 32  1  0
M  END
$$$$
[H]/C(=C1/SC(=O)N([C@]2([H])C([H])([H])C([H])([H])N(C([H])([H])[H])C([H])([H])[C@@]2([H])F)C1=O)c1c([H])c([H])c2c(c([H])nn2C([H])([H])c2c([H])c([H])c(Cl)c([H])c2C(F)(F)F)c1[H]
     RDKit          3D

 58 62  0  0  0  0  0  0  0  0999 V2000
    9.0945   -0.4998   -0.7431 C   0  0  0  0  0  0  0  0  0  0  0  0
    8.0786   -0.1242    0.1857 N   0  0  0  0  0  0  0  0  0  0  0  0
    7.1369   -1.1736    0.4661 C   0  0  0  0  0  0  0  0  0  0  0  0
    6.0768   -1.2152   -0.5650 C   0  0  0  0  0  0  0  0  0  0  0  0
    5.3268    0.0431   -0.6885 C   0  0  2  0  0  0  0  0  0  0  0  0
    5.9564    1.0832    0.2371 C   0  0  2  0  0  0  0  0  0  0  0  0
    5.5229    2.3731   -0.0699 F   0  0  0  0  0  0  0  0  0  0  0  0
    7.4762    1.1346   -0.0410 C   0  0  0  0  0  0  0  0  0  0  0  0
    3.8875   -0.0850   -0.3614 N   0  0  0  0  0  0  0  0  0  0  0  0
    3.3892   -0.5897    0.8631 C   0  0  0  0  0  0  0  0  0  0  0  0
    3.9600   -1.0516    1.8610 O   0  0  0  0  0  0  0  0  0  0  0  0
    1.6097   -0.4837    0.8123 S   0  0  0  0  0  0  0  0  0  0  0  0
    1.5217    0.1668   -0.8522 C   0  0  0  0  0  0  0  0  0  0  0  0
    0.3764    0.4561   -1.4932 C   0  0  0  0  0  0  0  0  0  0  0  0
   -0.8929    0.2289   -0.7979 C   0  0  0  0  0  0  0  0  0  0  0  0
   -1.7972    1.2594   -0.7731 C   0  0  0  0  0  0  0  0  0  0  0  0
   -3.0051    1.0723   -0.1159 C   0  0  0  0  0  0  0  0  0  0  0  0
   -3.3569   -0.1026    0.5227 C   0  0  0  0  0  0  0  0  0  0  0  0
   -4.4246   -0.4892    1.2022 N   0  0  0  0  0  0  0  0  0  0  0  0
   -5.6555    0.1628    1.5950 C   0  0  0  0  0  0  0  0  0  0  0  0
   -6.7191    0.0261    0.6017 C   0  0  0  0  0  0  0  0  0  0  0  0
   -7.0010   -1.3086    0.2091 C   0  0  0  0  0  0  0  0  0  0  0  0
   -7.8883   -1.5858   -0.7994 C   0  0  0  0  0  0  0  0  0  0  0  0
   -8.5166   -0.5510   -1.4449 C   0  0  0  0  0  0  0  0  0  0  0  0
   -9.6587   -0.8774   -2.7443 Cl  0  0  0  0  0  0  0  0  0  0  0  0
   -8.2408    0.7337   -1.0604 C   0  0  0  0  0  0  0  0  0  0  0  0
   -7.3367    1.0553   -0.0217 C   0  0  0  0  0  0  0  0  0  0  0  0
   -7.2277    2.4491    0.4184 C   0  0  0  0  0  0  0  0  0  0  0  0
   -8.0150    3.2204   -0.4737 F   0  0  0  0  0  0  0  0  0  0  0  0
   -7.8895    2.6384    1.6426 F   0  0  0  0  0  0  0  0  0  0  0  0
   -6.0187    3.0480    0.4110 F   0  0  0  0  0  0  0  0  0  0  0  0
   -4.1718   -1.7835    1.5958 N   0  0  0  0  0  0  0  0  0  0  0  0
   -2.9758   -2.1639    1.1628 C   0  0  0  0  0  0  0  0  0  0  0  0
   -2.4015   -1.1371    0.4711 C   0  0  0  0  0  0  0  0  0  0  0  0
   -1.2134   -0.9624   -0.1710 C   0  0  0  0  0  0  0  0  0  0  0  0
    2.8944    0.3180   -1.2768 C   0  0  0  0  0  0  0  0  0  0  0  0
    3.1106    0.8082   -2.4594 O   0  0  0  0  0  0  0  0  0  0  0  0
    9.1531    0.1100   -1.6647 H   0  0  0  0  0  0  0  0  0  0  0  0
   10.1200   -0.4180   -0.2501 H   0  0  0  0  0  0  0  0  0  0  0  0
    8.9809   -1.5825   -1.0339 H   0  0  0  0  0  0  0  0  0  0  0  0
    6.7765   -0.9360    1.5134 H   0  0  0  0  0  0  0  0  0  0  0  0
    7.6640   -2.1779    0.5267 H   0  0  0  0  0  0  0  0  0  0  0  0
    6.6107   -1.3982   -1.5513 H   0  0  0  0  0  0  0  0  0  0  0  0
    5.4327   -2.1264   -0.5068 H   0  0  0  0  0  0  0  0  0  0  0  0
    5.4767    0.4589   -1.7057 H   0  0  0  0  0  0  0  0  0  0  0  0
    5.8448    0.8301    1.2850 H   0  0  0  0  0  0  0  0  0  0  0  0
    7.8599    1.8521    0.7382 H   0  0  0  0  0  0  0  0  0  0  0  0
    7.6963    1.6209   -1.0109 H   0  0  0  0  0  0  0  0  0  0  0  0
    0.4628    0.8403   -2.4892 H   0  0  0  0  0  0  0  0  0  0  0  0
   -1.6334    2.2056   -1.2353 H   0  0  0  0  0  0  0  0  0  0  0  0
   -3.7124    1.8599   -0.0893 H   0  0  0  0  0  0  0  0  0  0  0  0
   -5.3698    1.2185    1.8331 H   0  0  0  0  0  0  0  0  0  0  0  0
   -5.9941   -0.3067    2.5694 H   0  0  0  0  0  0  0  0  0  0  0  0
   -6.5339   -2.1528    0.6857 H   0  0  0  0  0  0  0  0  0  0  0  0
   -8.1106   -2.5916   -1.1125 H   0  0  0  0  0  0  0  0  0  0  0  0
   -8.7422    1.5318   -1.5760 H   0  0  0  0  0  0  0  0  0  0  0  0
   -2.4829   -3.1395    1.3148 H   0  0  0  0  0  0  0  0  0  0  0  0
   -0.5114   -1.7917   -0.1869 H   0  0  0  0  0  0  0  0  0  0  0  0
  1  2  1  0
  2  3  1  0
  3  4  1  0
  4  5  1  0
  5  6  1  0
  6  7  1  0
  6  8  1  0
  5  9  1  0
  9 10  1  0
 10 11  2  0
 10 12  1  0
 12 13  1  0
 13 14  2  0
 14 15  1  0
 15 16  2  0
 16 17  1  0
 17 18  2  0
 18 19  1  0
 19 20  1  0
 20 21  1  0
 21 22  2  0
 22 23  1  0
 23 24  2  0
 24 25  1  0
 24 26  1  0
 26 27  2  0
 27 28  1  0
 28 29  1  0
 28 30  1  0
 28 31  1  0
 19 32  1  0
 32 33  2  0
 33 34  1  0
 34 35  2  0
 13 36  1  0
 36 37  2  0
  8  2  1  0
 36  9  1  0
 35 15  1  0
 34 18  1  0
 27 21  1  0
  1 38  1  0
  1 39  1  0
  1 40  1  0
  3 41  1  0
  3 42  1  0
  4 43  1  0
  4 44  1  0
  5 45  1  6
  6 46  1  1
  8 47  1  0
  8 48  1  0
 14 49  1  0
 16 50  1  0
 17 51  1  0
 20 52  1  0
 20 53  1  0
 22 54  1  0
 23 55  1  0
 26 56  1  0
 33 57  1  0
 35 58  1  0
M  END
$$$$
[H]/C(=C1/SC(=O)N(C([H])([H])C(=O)N([H])S(=O)(=O)N2C([H])([H])C([H])([H])C([H])([H])C2([H])[H])C1=O)c1c([H])c([H])c2c(c([H])nn2C([H])([H])c2c([H])c([H])c(Cl)c([H])c2C(F)(F)F)c1[H]
     RDKit          3D

 62 66  0  0  0  0  0  0  0  0999 V2000
   -9.7371   -0.1423    3.1863 F   0  0  0  0  0  0  0  0  0  0  0  0
   -8.4580   -0.6081    2.7509 C   0  0  0  0  0  0  0  0  0  0  0  0
   -8.6344   -1.9734    2.6780 F   0  0  0  0  0  0  0  0  0  0  0  0
   -7.6534   -0.1805    3.7564 F   0  0  0  0  0  0  0  0  0  0  0  0
   -8.2344    0.0309    1.4207 C   0  0  0  0  0  0  0  0  0  0  0  0
   -9.1953    0.9422    0.9582 C   0  0  0  0  0  0  0  0  0  0  0  0
   -9.1526    1.5650   -0.2633 C   0  0  0  0  0  0  0  0  0  0  0  0
  -10.3705    2.6976   -0.8026 Cl  0  0  0  0  0  0  0  0  0  0  0  0
   -8.0753    1.2415   -1.0514 C   0  0  0  0  0  0  0  0  0  0  0  0
   -7.1029    0.3660   -0.6688 C   0  0  0  0  0  0  0  0  0  0  0  0
   -7.1691   -0.2618    0.5983 C   0  0  0  0  0  0  0  0  0  0  0  0
   -6.0865   -1.1569    0.9957 C   0  0  0  0  0  0  0  0  0  0  0  0
   -4.8885   -0.5980    1.5774 N   0  0  0  0  0  0  0  0  0  0  0  0
   -4.5991   -0.2503    2.8158 N   0  0  0  0  0  0  0  0  0  0  0  0
   -3.3818    0.2360    2.9196 C   0  0  0  0  0  0  0  0  0  0  0  0
   -2.8347    0.2031    1.6559 C   0  0  0  0  0  0  0  0  0  0  0  0
   -1.5708    0.5841    1.1921 C   0  0  0  0  0  0  0  0  0  0  0  0
   -1.2219    0.4440   -0.1455 C   0  0  0  0  0  0  0  0  0  0  0  0
    0.0833    0.8557   -0.6525 C   0  0  0  0  0  0  0  0  0  0  0  0
    0.7632    0.0742   -1.4499 C   0  0  0  0  0  0  0  0  0  0  0  0
    0.2897   -1.5715   -2.0561 S   0  0  0  0  0  0  0  0  0  0  0  0
    1.9628   -2.0672   -2.4664 C   0  0  0  0  0  0  0  0  0  0  0  0
    2.3560   -3.2476   -2.5714 O   0  0  0  0  0  0  0  0  0  0  0  0
    2.6682   -0.8440   -2.6278 N   0  0  0  0  0  0  0  0  0  0  0  0
    3.9441   -0.8037   -3.3281 C   0  0  0  0  0  0  0  0  0  0  0  0
    5.0752   -0.9945   -2.4023 C   0  0  0  0  0  0  0  0  0  0  0  0
    6.2461   -0.9772   -2.8925 O   0  0  0  0  0  0  0  0  0  0  0  0
    4.9425   -1.1943   -1.0081 N   0  0  0  0  0  0  0  0  0  0  0  0
    6.4128   -1.3946   -0.0846 S   0  0  0  0  0  0  0  0  0  0  0  0
    6.1661   -2.1275    1.1798 O   0  0  0  0  0  0  0  0  0  0  0  0
    7.2978   -2.2708   -0.9606 O   0  0  0  0  0  0  0  0  0  0  0  0
    7.1176    0.1430    0.0974 N   0  0  0  0  0  0  0  0  0  0  0  0
    7.2120    0.6410    1.4158 C   0  0  0  0  0  0  0  0  0  0  0  0
    8.7088    0.7896    1.6795 C   0  0  0  0  0  0  0  0  0  0  0  0
    9.2583    1.1065    0.3127 C   0  0  0  0  0  0  0  0  0  0  0  0
    8.3482    0.3037   -0.5994 C   0  0  0  0  0  0  0  0  0  0  0  0
    2.0476    0.2834   -2.0967 C   0  0  0  0  0  0  0  0  0  0  0  0
    2.5442    1.4733   -2.1492 O   0  0  0  0  0  0  0  0  0  0  0  0
   -2.1948   -0.0865   -0.9605 C   0  0  0  0  0  0  0  0  0  0  0  0
   -3.4401   -0.4645   -0.5169 C   0  0  0  0  0  0  0  0  0  0  0  0
   -3.7809   -0.3222    0.8101 C   0  0  0  0  0  0  0  0  0  0  0  0
  -10.0398    1.1821    1.6072 H   0  0  0  0  0  0  0  0  0  0  0  0
   -8.0242    1.7274   -2.0287 H   0  0  0  0  0  0  0  0  0  0  0  0
   -6.2657    0.1218   -1.3317 H   0  0  0  0  0  0  0  0  0  0  0  0
   -6.4209   -1.9792    1.6734 H   0  0  0  0  0  0  0  0  0  0  0  0
   -5.7705   -1.7082    0.0579 H   0  0  0  0  0  0  0  0  0  0  0  0
   -2.8465    0.6119    3.8042 H   0  0  0  0  0  0  0  0  0  0  0  0
   -0.8371    1.0000    1.8841 H   0  0  0  0  0  0  0  0  0  0  0  0
    0.4872    1.8113   -0.3674 H   0  0  0  0  0  0  0  0  0  0  0  0
    3.9860   -1.5579   -4.1428 H   0  0  0  0  0  0  0  0  0  0  0  0
    4.0828    0.2056   -3.7990 H   0  0  0  0  0  0  0  0  0  0  0  0
    4.0599   -1.2293   -0.5233 H   0  0  0  0  0  0  0  0  0  0  0  0
    6.8005   -0.0489    2.1984 H   0  0  0  0  0  0  0  0  0  0  0  0
    6.7838    1.6762    1.5696 H   0  0  0  0  0  0  0  0  0  0  0  0
    8.9175    1.6252    2.3852 H   0  0  0  0  0  0  0  0  0  0  0  0
    9.1323   -0.1540    2.1060 H   0  0  0  0  0  0  0  0  0  0  0  0
   10.3249    0.8151    0.1953 H   0  0  0  0  0  0  0  0  0  0  0  0
    9.1342    2.2047    0.1413 H   0  0  0  0  0  0  0  0  0  0  0  0
    8.8035   -0.6457   -0.9379 H   0  0  0  0  0  0  0  0  0  0  0  0
    8.1785    0.9467   -1.5118 H   0  0  0  0  0  0  0  0  0  0  0  0
   -1.9770   -0.2075   -2.0079 H   0  0  0  0  0  0  0  0  0  0  0  0
   -4.1719   -0.8930   -1.2178 H   0  0  0  0  0  0  0  0  0  0  0  0
  1  2  1  0
  2  3  1  0
  2  4  1  0
  2  5  1  0
  5  6  2  0
  6  7  1  0
  7  8  1  0
  7  9  2  0
  9 10  1  0
 10 11  2  0
 11 12  1  0
 12 13  1  0
 13 14  1  0
 14 15  2  0
 15 16  1  0
 16 17  2  0
 17 18  1  0
 18 19  1  0
 19 20  2  0
 20 21  1  0
 21 22  1  0
 22 23  2  0
 22 24  1  0
 24 25  1  0
 25 26  1  0
 26 27  2  0
 26 28  1  0
 28 29  1  0
 29 30  2  0
 29 31  2  0
 29 32  1  0
 32 33  1  0
 33 34  1  0
 34 35  1  0
 35 36  1  0
 24 37  1  0
 37 38  2  0
 18 39  2  0
 39 40  1  0
 40 41  2  0
 11  5  1  0
 41 13  1  0
 41 16  1  0
 37 20  1  0
 36 32  1  0
  6 42  1  0
  9 43  1  0
 10 44  1  0
 12 45  1  0
 12 46  1  0
 15 47  1  0
 17 48  1  0
 19 49  1  0
 25 50  1  0
 25 51  1  0
 28 52  1  0
 33 53  1  0
 33 54  1  0
 34 55  1  0
 34 56  1  0
 35 57  1  0
 35 58  1  0
 36 59  1  0
 36 60  1  0
 39 61  1  0
 40 62  1  0
M  END
$$$$
[H]Oc1c([H])c([H])c2c(c1[H])OC([H])([H])c1c-2nc2c([H])c([H])c(O[H])c([H])c2c1Br
     RDKit          3D

 31 34  0  0  0  0  0  0  0  0999 V2000
   -5.9870   -0.4466   -0.1211 O   0  0  0  0  0  0  0  0  0  0  0  0
   -4.5840   -0.4000   -0.0401 C   0  0  0  0  0  0  0  0  0  0  0  0
   -3.9179    0.6979   -0.5441 C   0  0  0  0  0  0  0  0  0  0  0  0
   -2.5494    0.7909   -0.4891 C   0  0  0  0  0  0  0  0  0  0  0  0
   -1.8162   -0.2376    0.0841 C   0  0  0  0  0  0  0  0  0  0  0  0
   -2.4941   -1.3309    0.5848 C   0  0  0  0  0  0  0  0  0  0  0  0
   -1.7052   -2.3228    1.1437 O   0  0  0  0  0  0  0  0  0  0  0  0
   -0.3233   -2.3348    1.2525 C   0  0  0  0  0  0  0  0  0  0  0  0
    0.3619   -1.1478    0.7051 C   0  0  0  0  0  0  0  0  0  0  0  0
    1.7237   -1.0416    0.7529 C   0  0  0  0  0  0  0  0  0  0  0  0
    2.8201   -2.4194    1.5292 Br  0  0  0  0  0  0  0  0  0  0  0  0
    2.3641    0.0735    0.2384 C   0  0  0  0  0  0  0  0  0  0  0  0
    3.7289    0.2252    0.2635 C   0  0  0  0  0  0  0  0  0  0  0  0
    4.3266    1.3534   -0.2608 C   0  0  0  0  0  0  0  0  0  0  0  0
    5.7164    1.5274   -0.2451 O   0  0  0  0  0  0  0  0  0  0  0  0
    3.5916    2.3729   -0.8295 C   0  0  0  0  0  0  0  0  0  0  0  0
    2.2178    2.2218   -0.8556 C   0  0  0  0  0  0  0  0  0  0  0  0
    1.6115    1.0891   -0.3297 C   0  0  0  0  0  0  0  0  0  0  0  0
    0.2804    0.9268   -0.3469 N   0  0  0  0  0  0  0  0  0  0  0  0
   -0.3698   -0.1400    0.1425 C   0  0  0  0  0  0  0  0  0  0  0  0
   -3.8813   -1.4382    0.5356 C   0  0  0  0  0  0  0  0  0  0  0  0
   -6.5824   -0.0805    0.6095 H   0  0  0  0  0  0  0  0  0  0  0  0
   -4.4832    1.5027   -0.9920 H   0  0  0  0  0  0  0  0  0  0  0  0
   -1.9908    1.6324   -0.8718 H   0  0  0  0  0  0  0  0  0  0  0  0
   -0.0892   -2.4278    2.3531 H   0  0  0  0  0  0  0  0  0  0  0  0
    0.1260   -3.2378    0.7418 H   0  0  0  0  0  0  0  0  0  0  0  0
    4.3132   -0.5595    0.7026 H   0  0  0  0  0  0  0  0  0  0  0  0
    6.3098    1.2168   -0.9886 H   0  0  0  0  0  0  0  0  0  0  0  0
    4.0758    3.2619   -1.2417 H   0  0  0  0  0  0  0  0  0  0  0  0
    1.5724    2.9798   -1.2858 H   0  0  0  0  0  0  0  0  0  0  0  0
   -4.3667   -2.3072    0.9376 H   0  0  0  0  0  0  0  0  0  0  0  0
  1  2  1  0
  2  3  2  0
  3  4  1  0
  4  5  2  0
  5  6  1  0
  6  7  1  0
  7  8  1  0
  8  9  1  0
  9 10  2  0
 10 11  1  0
 10 12  1  0
 12 13  2  0
 13 14  1  0
 14 15  1  0
 14 16  2  0
 16 17  1  0
 17 18  2  0
 18 19  1  0
 19 20  2  0
  6 21  2  0
 21  2  1  0
  5 20  1  0
 20  9  1  0
 18 12  1  0
  1 22  1  0
  3 23  1  0
  4 24  1  0
  8 25  1  0
  8 26  1  0
 13 27  1  0
 15 28  1  0
 16 29  1  0
 17 30  1  0
 21 31  1  0
M  END
$$$$
[H]/C(=C1/SC(=O)N(C([H])([H])C(=O)N([H])S(=O)(=O)N([H])[H])C1=O)c1c([H])c([H])c2c(c([H])nn2C([H])([H])c2c([H])c([H])c(Cl)c([H])c2C(F)(F)F)c1[H]
     RDKit          3D

 52 55  0  0  0  0  0  0  0  0999 V2000
    7.9581   -1.8985   -0.8908 N   0  0  0  0  0  0  0  0  0  0  0  0
    8.0923   -0.3224   -0.2512 S   0  0  0  0  0  0  0  0  0  0  0  0
    9.2920   -0.2763    0.6689 O   0  0  0  0  0  0  0  0  0  0  0  0
    8.2900    0.6215   -1.4160 O   0  0  0  0  0  0  0  0  0  0  0  0
    6.6703    0.1961    0.5818 N   0  0  0  0  0  0  0  0  0  0  0  0
    6.7538    1.0011    1.7418 C   0  0  0  0  0  0  0  0  0  0  0  0
    7.9019    1.3373    2.1642 O   0  0  0  0  0  0  0  0  0  0  0  0
    5.6129    1.5026    2.5253 C   0  0  0  0  0  0  0  0  0  0  0  0
    4.3249    1.0468    1.9636 N   0  0  0  0  0  0  0  0  0  0  0  0
    3.7360   -0.1424    2.4328 C   0  0  0  0  0  0  0  0  0  0  0  0
    4.2118   -1.1236    3.0785 O   0  0  0  0  0  0  0  0  0  0  0  0
    2.0011   -0.0172    1.8979 S   0  0  0  0  0  0  0  0  0  0  0  0
    2.3760    1.1545    0.5558 C   0  0  0  0  0  0  0  0  0  0  0  0
    1.6299    1.3831   -0.4871 C   0  0  0  0  0  0  0  0  0  0  0  0
    0.3706    0.7530   -0.7642 C   0  0  0  0  0  0  0  0  0  0  0  0
   -0.6506    1.5476   -1.2785 C   0  0  0  0  0  0  0  0  0  0  0  0
   -1.8662    1.0044   -1.5274 C   0  0  0  0  0  0  0  0  0  0  0  0
   -2.2191   -0.3284   -1.3110 C   0  0  0  0  0  0  0  0  0  0  0  0
   -3.2684   -1.0711   -1.4647 N   0  0  0  0  0  0  0  0  0  0  0  0
   -4.6229   -0.7761   -1.8837 C   0  0  0  0  0  0  0  0  0  0  0  0
   -5.6138   -0.6514   -0.8001 C   0  0  0  0  0  0  0  0  0  0  0  0
   -5.8461   -1.8651   -0.0974 C   0  0  0  0  0  0  0  0  0  0  0  0
   -6.6908   -1.8562    0.9667 C   0  0  0  0  0  0  0  0  0  0  0  0
   -7.3263   -0.7064    1.3816 C   0  0  0  0  0  0  0  0  0  0  0  0
   -8.4141   -0.7206    2.7727 Cl  0  0  0  0  0  0  0  0  0  0  0  0
   -7.0831    0.4547    0.6821 C   0  0  0  0  0  0  0  0  0  0  0  0
   -6.2172    0.5031   -0.4295 C   0  0  0  0  0  0  0  0  0  0  0  0
   -6.0777    1.8259   -1.1277 C   0  0  0  0  0  0  0  0  0  0  0  0
   -7.0572    2.6850   -0.5284 F   0  0  0  0  0  0  0  0  0  0  0  0
   -4.9318    2.4920   -0.8341 F   0  0  0  0  0  0  0  0  0  0  0  0
   -6.4396    1.7872   -2.4435 F   0  0  0  0  0  0  0  0  0  0  0  0
   -2.9178   -2.3317   -1.0617 N   0  0  0  0  0  0  0  0  0  0  0  0
   -1.6636   -2.3834   -0.6535 C   0  0  0  0  0  0  0  0  0  0  0  0
   -1.1733   -1.1087   -0.7964 C   0  0  0  0  0  0  0  0  0  0  0  0
    0.0726   -0.5690   -0.5384 C   0  0  0  0  0  0  0  0  0  0  0  0
    3.6302    1.7384    0.9803 C   0  0  0  0  0  0  0  0  0  0  0  0
    4.0490    2.8385    0.4550 O   0  0  0  0  0  0  0  0  0  0  0  0
    7.9199   -1.9068   -1.9280 H   0  0  0  0  0  0  0  0  0  0  0  0
    8.7404   -2.5137   -0.5640 H   0  0  0  0  0  0  0  0  0  0  0  0
    5.7611   -0.1019    0.2028 H   0  0  0  0  0  0  0  0  0  0  0  0
    5.7002    1.2626    3.6013 H   0  0  0  0  0  0  0  0  0  0  0  0
    5.6761    2.6239    2.4664 H   0  0  0  0  0  0  0  0  0  0  0  0
    1.9927    2.1162   -1.2196 H   0  0  0  0  0  0  0  0  0  0  0  0
   -0.4639    2.5880   -1.4748 H   0  0  0  0  0  0  0  0  0  0  0  0
   -2.6417    1.6145   -1.9600 H   0  0  0  0  0  0  0  0  0  0  0  0
   -4.9862   -1.5222   -2.6240 H   0  0  0  0  0  0  0  0  0  0  0  0
   -4.5717    0.1905   -2.4255 H   0  0  0  0  0  0  0  0  0  0  0  0
   -5.3415   -2.7880   -0.4339 H   0  0  0  0  0  0  0  0  0  0  0  0
   -6.8598   -2.8022    1.5010 H   0  0  0  0  0  0  0  0  0  0  0  0
   -7.5861    1.3588    1.0217 H   0  0  0  0  0  0  0  0  0  0  0  0
   -1.0765   -3.2178   -0.2779 H   0  0  0  0  0  0  0  0  0  0  0  0
    0.8432   -1.2428   -0.1494 H   0  0  0  0  0  0  0  0  0  0  0  0
  1  2  1  0
  2  3  2  0
  2  4  2  0
  2  5  1  0
  5  6  1  0
  6  7  2  0
  6  8  1  0
  8  9  1  0
  9 10  1  0
 10 11  2  0
 10 12  1  0
 12 13  1  0
 13 14  2  0
 14 15  1  0
 15 16  2  0
 16 17  1  0
 17 18  2  0
 18 19  1  0
 19 20  1  0
 20 21  1  0
 21 22  2  0
 22 23  1  0
 23 24  2  0
 24 25  1  0
 24 26  1  0
 26 27  2  0
 27 28  1  0
 28 29  1  0
 28 30  1  0
 28 31  1  0
 19 32  1  0
 32 33  2  0
 33 34  1  0
 34 35  2  0
 13 36  1  0
 36 37  2  0
 36  9  1  0
 35 15  1  0
 34 18  1  0
 27 21  1  0
  1 38  1  0
  1 39  1  0
  5 40  1  0
  8 41  1  0
  8 42  1  0
 14 43  1  0
 16 44  1  0
 17 45  1  0
 20 46  1  0
 20 47  1  0
 22 48  1  0
 23 49  1  0
 26 50  1  0
 33 51  1  0
 35 52  1  0
M  END
$$$$
[H]Oc1c([H])c([H])c(-c2nc3c([H])c([H])c(O[H])c([H])c3c(Cl)c2[H])c([H])c1[H]
     RDKit          3D

 29 31  0  0  0  0  0  0  0  0999 V2000
    5.9167   -0.3819   -0.9947 O   0  0  0  0  0  0  0  0  0  0  0  0
    4.5912   -0.1895   -0.6459 C   0  0  0  0  0  0  0  0  0  0  0  0
    3.6367   -0.9189   -1.3334 C   0  0  0  0  0  0  0  0  0  0  0  0
    2.3045   -0.7747   -1.0360 C   0  0  0  0  0  0  0  0  0  0  0  0
    1.8675    0.1077   -0.0355 C   0  0  0  0  0  0  0  0  0  0  0  0
    2.8552    0.8008    0.6092 C   0  0  0  0  0  0  0  0  0  0  0  0
    4.2078    0.6887    0.3445 C   0  0  0  0  0  0  0  0  0  0  0  0
    0.4564    0.2144    0.2298 C   0  0  0  0  0  0  0  0  0  0  0  0
   -0.0393    1.0538    1.1900 C   0  0  0  0  0  0  0  0  0  0  0  0
   -1.4152    1.1287    1.4170 C   0  0  0  0  0  0  0  0  0  0  0  0
   -1.9873    2.2108    2.6477 Cl  0  0  0  0  0  0  0  0  0  0  0  0
   -2.3042    0.3748    0.6962 C   0  0  0  0  0  0  0  0  0  0  0  0
   -3.6526    0.4057    0.8728 C   0  0  0  0  0  0  0  0  0  0  0  0
   -4.5306   -0.3613    0.1366 C   0  0  0  0  0  0  0  0  0  0  0  0
   -5.9086   -0.2842    0.3662 O   0  0  0  0  0  0  0  0  0  0  0  0
   -3.9850   -1.1888   -0.8161 C   0  0  0  0  0  0  0  0  0  0  0  0
   -2.6170   -1.2350   -1.0112 C   0  0  0  0  0  0  0  0  0  0  0  0
   -1.7444   -0.4654   -0.2717 C   0  0  0  0  0  0  0  0  0  0  0  0
   -0.4099   -0.5231   -0.4758 N   0  0  0  0  0  0  0  0  0  0  0  0
    6.4281   -1.1042   -0.5044 H   0  0  0  0  0  0  0  0  0  0  0  0
    3.9200   -1.6212   -2.1229 H   0  0  0  0  0  0  0  0  0  0  0  0
    1.5663   -1.3565   -1.5868 H   0  0  0  0  0  0  0  0  0  0  0  0
    2.5754    1.4952    1.3899 H   0  0  0  0  0  0  0  0  0  0  0  0
    4.9736    1.2459    0.8656 H   0  0  0  0  0  0  0  0  0  0  0  0
    0.6455    1.6505    1.7625 H   0  0  0  0  0  0  0  0  0  0  0  0
   -4.0624    1.0738    1.6386 H   0  0  0  0  0  0  0  0  0  0  0  0
   -6.4244    0.4048   -0.1726 H   0  0  0  0  0  0  0  0  0  0  0  0
   -4.6574   -1.7966   -1.4019 H   0  0  0  0  0  0  0  0  0  0  0  0
   -2.2067   -1.8851   -1.7578 H   0  0  0  0  0  0  0  0  0  0  0  0
  1  2  1  0
  2  3  2  0
  3  4  1  0
  4  5  2  0
  5  6  1  0
  6  7  2  0
  5  8  1  0
  8  9  2  0
  9 10  1  0
 10 11  1  0
 10 12  2  0
 12 13  1  0
 13 14  2  0
 14 15  1  0
 14 16  1  0
 16 17  2  0
 17 18  1  0
 18 19  2  0
  7  2  1  0
 19  8  1  0
 18 12  1  0
  1 20  1  0
  3 21  1  0
  4 22  1  0
  6 23  1  0
  7 24  1  0
  9 25  1  0
 13 26  1  0
 15 27  1  0
 16 28  1  0
 17 29  1  0
M  END
$$$$
[H]/C(=C1/SC(=O)N(C([H])([H])C([H])([H])N2C([H])([H])C([H])([H])OC([H])([H])C2([H])[H])C1=O)c1c([H])c([H])c2c(c([H])nn2C([H])([H])c2c([H])c([H])c(Cl)c([H])c2C(F)(F)F)c1[H]
     RDKit          3D

 59 63  0  0  0  0  0  0  0  0999 V2000
   -5.3453   -1.9657    2.9396 F   0  0  0  0  0  0  0  0  0  0  0  0
   -5.2424   -1.4007    1.6240 C   0  0  0  0  0  0  0  0  0  0  0  0
   -5.4238   -2.4397    0.7911 F   0  0  0  0  0  0  0  0  0  0  0  0
   -3.9360   -0.9027    1.7012 F   0  0  0  0  0  0  0  0  0  0  0  0
   -6.2302   -0.3128    1.5762 C   0  0  0  0  0  0  0  0  0  0  0  0
   -6.8466    0.0964    2.7815 C   0  0  0  0  0  0  0  0  0  0  0  0
   -7.7598    1.1093    2.8666 C   0  0  0  0  0  0  0  0  0  0  0  0
   -8.5031    1.5845    4.3875 Cl  0  0  0  0  0  0  0  0  0  0  0  0
   -8.0787    1.7507    1.6922 C   0  0  0  0  0  0  0  0  0  0  0  0
   -7.5023    1.3792    0.5162 C   0  0  0  0  0  0  0  0  0  0  0  0
   -6.5472    0.3189    0.4292 C   0  0  0  0  0  0  0  0  0  0  0  0
   -6.0834    0.0895   -0.9137 C   0  0  0  0  0  0  0  0  0  0  0  0
   -4.8948    0.7621   -1.3465 N   0  0  0  0  0  0  0  0  0  0  0  0
   -4.9295    2.1162   -1.5350 N   0  0  0  0  0  0  0  0  0  0  0  0
   -3.7380    2.5844   -1.8724 C   0  0  0  0  0  0  0  0  0  0  0  0
   -2.8808    1.5157   -1.9129 C   0  0  0  0  0  0  0  0  0  0  0  0
   -1.5311    1.3358   -2.2180 C   0  0  0  0  0  0  0  0  0  0  0  0
   -0.9157    0.1042   -2.2076 C   0  0  0  0  0  0  0  0  0  0  0  0
    0.4952   -0.0495   -2.5520 C   0  0  0  0  0  0  0  0  0  0  0  0
    1.3472   -0.7438   -1.8608 C   0  0  0  0  0  0  0  0  0  0  0  0
    0.9052   -1.6361   -0.3397 S   0  0  0  0  0  0  0  0  0  0  0  0
    2.5963   -1.5441    0.3247 C   0  0  0  0  0  0  0  0  0  0  0  0
    2.8229   -1.5529    1.5375 O   0  0  0  0  0  0  0  0  0  0  0  0
    3.4087   -1.4723   -0.8185 N   0  0  0  0  0  0  0  0  0  0  0  0
    4.8478   -1.8135   -0.8024 C   0  0  0  0  0  0  0  0  0  0  0  0
    5.7632   -0.6905   -0.5778 C   0  0  0  0  0  0  0  0  0  0  0  0
    5.6999    0.0513    0.6340 N   0  0  0  0  0  0  0  0  0  0  0  0
    6.6819    1.1526    0.4450 C   0  0  0  0  0  0  0  0  0  0  0  0
    7.2822    1.6057    1.7341 C   0  0  0  0  0  0  0  0  0  0  0  0
    8.1721    0.6553    2.2412 O   0  0  0  0  0  0  0  0  0  0  0  0
    7.7514   -0.6220    1.8375 C   0  0  0  0  0  0  0  0  0  0  0  0
    6.2421   -0.6930    1.7702 C   0  0  0  0  0  0  0  0  0  0  0  0
    2.7561   -1.0461   -1.9925 C   0  0  0  0  0  0  0  0  0  0  0  0
    3.3300   -0.9168   -3.1378 O   0  0  0  0  0  0  0  0  0  0  0  0
   -1.6959   -0.9951   -1.8760 C   0  0  0  0  0  0  0  0  0  0  0  0
   -3.0266   -0.8194   -1.5735 C   0  0  0  0  0  0  0  0  0  0  0  0
   -3.6359    0.4171   -1.5836 C   0  0  0  0  0  0  0  0  0  0  0  0
   -6.5695   -0.4300    3.6783 H   0  0  0  0  0  0  0  0  0  0  0  0
   -8.8102    2.5567    1.7763 H   0  0  0  0  0  0  0  0  0  0  0  0
   -7.7728    1.9002   -0.3905 H   0  0  0  0  0  0  0  0  0  0  0  0
   -5.8949   -1.0037   -1.1399 H   0  0  0  0  0  0  0  0  0  0  0  0
   -6.8782    0.3676   -1.6816 H   0  0  0  0  0  0  0  0  0  0  0  0
   -3.4850    3.6143   -2.0793 H   0  0  0  0  0  0  0  0  0  0  0  0
   -0.9714    2.2219   -2.4703 H   0  0  0  0  0  0  0  0  0  0  0  0
    0.8994    0.4441   -3.4530 H   0  0  0  0  0  0  0  0  0  0  0  0
    5.0385   -2.6333   -0.0579 H   0  0  0  0  0  0  0  0  0  0  0  0
    5.1278   -2.2897   -1.7756 H   0  0  0  0  0  0  0  0  0  0  0  0
    5.7958    0.0382   -1.4207 H   0  0  0  0  0  0  0  0  0  0  0  0
    6.8120   -1.1379   -0.5950 H   0  0  0  0  0  0  0  0  0  0  0  0
    7.5218    0.7671   -0.1965 H   0  0  0  0  0  0  0  0  0  0  0  0
    6.1901    1.9892   -0.0708 H   0  0  0  0  0  0  0  0  0  0  0  0
    6.5302    1.9482    2.4575 H   0  0  0  0  0  0  0  0  0  0  0  0
    7.9075    2.4932    1.4901 H   0  0  0  0  0  0  0  0  0  0  0  0
    8.0482   -1.3022    2.6690 H   0  0  0  0  0  0  0  0  0  0  0  0
    8.2253   -0.9423    0.9038 H   0  0  0  0  0  0  0  0  0  0  0  0
    5.9569   -1.7491    1.7592 H   0  0  0  0  0  0  0  0  0  0  0  0
    5.8597   -0.1905    2.6859 H   0  0  0  0  0  0  0  0  0  0  0  0
   -1.2514   -1.9922   -1.8642 H   0  0  0  0  0  0  0  0  0  0  0  0
   -3.6353   -1.6821   -1.3217 H   0  0  0  0  0  0  0  0  0  0  0  0
  1  2  1  0
  2  3  1  0
  2  4  1  0
  2  5  1  0
  5  6  2  0
  6  7  1  0
  7  8  1  0
  7  9  2  0
  9 10  1  0
 10 11  2  0
 11 12  1  0
 12 13  1  0
 13 14  1  0
 14 15  2  0
 15 16  1  0
 16 17  2  0
 17 18  1  0
 18 19  1  0
 19 20  2  0
 20 21  1  0
 21 22  1  0
 22 23  2  0
 22 24  1  0
 24 25  1  0
 25 26  1  0
 26 27  1  0
 27 28  1  0
 28 29  1  0
 29 30  1  0
 30 31  1  0
 31 32  1  0
 24 33  1  0
 33 34  2  0
 18 35  2  0
 35 36  1  0
 36 37  2  0
 11  5  1  0
 37 13  1  0
 37 16  1  0
 33 20  1  0
 32 27  1  0
  6 38  1  0
  9 39  1  0
 10 40  1  0
 12 41  1  0
 12 42  1  0
 15 43  1  0
 17 44  1  0
 19 45  1  0
 25 46  1  0
 25 47  1  0
 26 48  1  0
 26 49  1  0
 28 50  1  0
 28 51  1  0
 29 52  1  0
 29 53  1  0
 31 54  1  0
 31 55  1  0
 32 56  1  0
 32 57  1  0
 35 58  1  0
 36 59  1  0
M  END
$$$$
[H]OC(=O)C([H])([H])N1C(=O)S/C(=C(/[H])c2c([H])c([H])c3c(c([H])nn3C([H])([H])c3c([H])c([H])c(C(F)(F)F)c([H])c3C(F)(F)F)c2[H])C1=O
     RDKit          3D

 49 52  0  0  0  0  0  0  0  0999 V2000
   -7.8439    2.3003   -0.9896 O   0  0  0  0  0  0  0  0  0  0  0  0
   -7.9515    0.9067   -1.3411 C   0  0  0  0  0  0  0  0  0  0  0  0
   -7.9907    0.4357   -2.3941 O   0  0  0  0  0  0  0  0  0  0  0  0
   -8.0241    0.0934    0.0011 C   0  0  0  0  0  0  0  0  0  0  0  0
   -6.6313   -0.0960    0.3390 N   0  0  0  0  0  0  0  0  0  0  0  0
   -6.0397    0.7990    1.2867 C   0  0  0  0  0  0  0  0  0  0  0  0
   -6.4959    1.7950    1.8530 O   0  0  0  0  0  0  0  0  0  0  0  0
   -4.3810    0.1707    1.5503 S   0  0  0  0  0  0  0  0  0  0  0  0
   -4.3277   -0.8049    0.0606 C   0  0  0  0  0  0  0  0  0  0  0  0
   -3.2640   -1.2708   -0.5503 C   0  0  0  0  0  0  0  0  0  0  0  0
   -1.8761   -1.1000   -0.1201 C   0  0  0  0  0  0  0  0  0  0  0  0
   -0.9392   -1.6540   -1.0444 C   0  0  0  0  0  0  0  0  0  0  0  0
    0.4098   -1.6263   -0.6700 C   0  0  0  0  0  0  0  0  0  0  0  0
    0.8864   -1.1276    0.4878 C   0  0  0  0  0  0  0  0  0  0  0  0
    2.1190   -1.0631    1.0370 N   0  0  0  0  0  0  0  0  0  0  0  0
    3.4196   -1.4498    0.5712 C   0  0  0  0  0  0  0  0  0  0  0  0
    4.3723   -0.3880    0.2647 C   0  0  0  0  0  0  0  0  0  0  0  0
    5.1434    0.0151    1.3888 C   0  0  0  0  0  0  0  0  0  0  0  0
    6.0378    1.0093    1.2836 C   0  0  0  0  0  0  0  0  0  0  0  0
    6.2527    1.6996    0.0763 C   0  0  0  0  0  0  0  0  0  0  0  0
    5.5022    1.2784   -0.9691 C   0  0  0  0  0  0  0  0  0  0  0  0
    4.5551    0.2391   -0.9115 C   0  0  0  0  0  0  0  0  0  0  0  0
    3.7888   -0.0726   -2.1709 C   0  0  0  0  0  0  0  0  0  0  0  0
    4.4333    0.6289   -3.2022 F   0  0  0  0  0  0  0  0  0  0  0  0
    3.7419   -1.3526   -2.5225 F   0  0  0  0  0  0  0  0  0  0  0  0
    2.5486    0.5795   -2.1439 F   0  0  0  0  0  0  0  0  0  0  0  0
    7.2598    2.8081    0.0236 C   0  0  0  0  0  0  0  0  0  0  0  0
    7.1458    3.5052   -1.1566 F   0  0  0  0  0  0  0  0  0  0  0  0
    6.8780    3.6635    1.0653 F   0  0  0  0  0  0  0  0  0  0  0  0
    8.5541    2.3469    0.1953 F   0  0  0  0  0  0  0  0  0  0  0  0
    1.9328   -0.4779    2.2654 N   0  0  0  0  0  0  0  0  0  0  0  0
    0.6454   -0.2003    2.4660 C   0  0  0  0  0  0  0  0  0  0  0  0
   -0.0463   -0.5802    1.3967 C   0  0  0  0  0  0  0  0  0  0  0  0
   -1.4076   -0.6138    0.9959 C   0  0  0  0  0  0  0  0  0  0  0  0
   -5.7061   -0.9498   -0.3037 C   0  0  0  0  0  0  0  0  0  0  0  0
   -6.1327   -1.8038   -1.1679 O   0  0  0  0  0  0  0  0  0  0  0  0
   -8.4178    2.9965   -1.4172 H   0  0  0  0  0  0  0  0  0  0  0  0
   -8.6035   -0.7509   -0.1920 H   0  0  0  0  0  0  0  0  0  0  0  0
   -8.5076    0.7866    0.7316 H   0  0  0  0  0  0  0  0  0  0  0  0
   -3.4975   -1.8322   -1.4800 H   0  0  0  0  0  0  0  0  0  0  0  0
   -1.2491   -2.0335   -1.9718 H   0  0  0  0  0  0  0  0  0  0  0  0
    1.1604   -2.0230   -1.3681 H   0  0  0  0  0  0  0  0  0  0  0  0
    3.2499   -2.1859   -0.2807 H   0  0  0  0  0  0  0  0  0  0  0  0
    3.8780   -2.1511    1.3660 H   0  0  0  0  0  0  0  0  0  0  0  0
    4.9978   -0.4840    2.3286 H   0  0  0  0  0  0  0  0  0  0  0  0
    6.6386    1.3294    2.1218 H   0  0  0  0  0  0  0  0  0  0  0  0
    5.6102    1.7613   -1.9309 H   0  0  0  0  0  0  0  0  0  0  0  0
    0.2176    0.2890    3.3788 H   0  0  0  0  0  0  0  0  0  0  0  0
   -2.0461   -0.1786    1.7638 H   0  0  0  0  0  0  0  0  0  0  0  0
  1  2  1  0
  2  3  2  0
  2  4  1  0
  4  5  1  0
  5  6  1  0
  6  7  2  0
  6  8  1  0
  8  9  1  0
  9 10  2  0
 10 11  1  0
 11 12  2  0
 12 13  1  0
 13 14  2  0
 14 15  1  0
 15 16  1  0
 16 17  1  0
 17 18  2  0
 18 19  1  0
 19 20  2  0
 20 21  1  0
 21 22  2  0
 22 23  1  0
 23 24  1  0
 23 25  1  0
 23 26  1  0
 20 27  1  0
 27 28  1  0
 27 29  1  0
 27 30  1  0
 15 31  1  0
 31 32  2  0
 32 33  1  0
 33 34  2  0
  9 35  1  0
 35 36  2  0
 35  5  1  0
 34 11  1  0
 33 14  1  0
 22 17  1  0
  1 37  1  0
  4 38  1  0
  4 39  1  0
 10 40  1  0
 12 41  1  0
 13 42  1  0
 16 43  1  0
 16 44  1  0
 18 45  1  0
 19 46  1  0
 21 47  1  0
 32 48  1  0
 34 49  1  0
M  END
$$$$
[H]Oc1c([H])c([H])c(-c2nc3c([H])c([H])c(O[H])c([H])c3c(C([H])=C([H])[H])c2[H])c([H])c1[H]
     RDKit          3D

 33 35  0  0  0  0  0  0  0  0999 V2000
    6.3163    0.7144    0.1492 O   0  0  0  0  0  0  0  0  0  0  0  0
    4.9374    0.5498    0.0726 C   0  0  0  0  0  0  0  0  0  0  0  0
    4.1074    1.4936    0.6114 C   0  0  0  0  0  0  0  0  0  0  0  0
    2.7471    1.3379    0.5396 C   0  0  0  0  0  0  0  0  0  0  0  0
    2.1932    0.2199   -0.0811 C   0  0  0  0  0  0  0  0  0  0  0  0
    3.0540   -0.7320   -0.6248 C   0  0  0  0  0  0  0  0  0  0  0  0
    4.4298   -0.5703   -0.5499 C   0  0  0  0  0  0  0  0  0  0  0  0
    0.7452    0.0965   -0.1338 C   0  0  0  0  0  0  0  0  0  0  0  0
    0.1328   -0.9751   -0.7278 C   0  0  0  0  0  0  0  0  0  0  0  0
   -1.2676   -1.1137   -0.7892 C   0  0  0  0  0  0  0  0  0  0  0  0
   -1.8163   -2.2840   -1.4485 C   0  0  0  0  0  0  0  0  0  0  0  0
   -2.6842   -3.1114   -0.9239 C   0  0  0  0  0  0  0  0  0  0  0  0
   -2.0087   -0.1111   -0.2205 C   0  0  0  0  0  0  0  0  0  0  0  0
   -3.3846   -0.1619   -0.2552 C   0  0  0  0  0  0  0  0  0  0  0  0
   -4.0720    0.8962    0.3284 C   0  0  0  0  0  0  0  0  0  0  0  0
   -5.4402    0.8611    0.3036 O   0  0  0  0  0  0  0  0  0  0  0  0
   -3.4351    1.9644    0.9228 C   0  0  0  0  0  0  0  0  0  0  0  0
   -2.0677    1.9957    0.9446 C   0  0  0  0  0  0  0  0  0  0  0  0
   -1.3393    0.9567    0.3713 C   0  0  0  0  0  0  0  0  0  0  0  0
   -0.0042    1.0700    0.4208 N   0  0  0  0  0  0  0  0  0  0  0  0
    6.8818    0.3738    0.9060 H   0  0  0  0  0  0  0  0  0  0  0  0
    4.5397    2.3786    1.1029 H   0  0  0  0  0  0  0  0  0  0  0  0
    2.1017    2.0821    0.9644 H   0  0  0  0  0  0  0  0  0  0  0  0
    2.6815   -1.6077   -1.1118 H   0  0  0  0  0  0  0  0  0  0  0  0
    5.1192   -1.2940   -0.9636 H   0  0  0  0  0  0  0  0  0  0  0  0
    0.7036   -1.7620   -1.1759 H   0  0  0  0  0  0  0  0  0  0  0  0
   -1.4821   -2.5080   -2.4812 H   0  0  0  0  0  0  0  0  0  0  0  0
   -3.1052   -3.0291    0.0730 H   0  0  0  0  0  0  0  0  0  0  0  0
   -3.0281   -3.9528   -1.5045 H   0  0  0  0  0  0  0  0  0  0  0  0
   -3.9214   -0.9674   -0.7252 H   0  0  0  0  0  0  0  0  0  0  0  0
   -6.0389    1.5736    0.6960 H   0  0  0  0  0  0  0  0  0  0  0  0
   -4.0186    2.7691    1.3672 H   0  0  0  0  0  0  0  0  0  0  0  0
   -1.5767    2.8469    1.4178 H   0  0  0  0  0  0  0  0  0  0  0  0
  1  2  1  0
  2  3  2  0
  3  4  1  0
  4  5  2  0
  5  6  1  0
  6  7  2  0
  5  8  1  0
  8  9  2  0
  9 10  1  0
 10 11  1  0
 11 12  2  3
 10 13  2  0
 13 14  1  0
 14 15  2  0
 15 16  1  0
 15 17  1  0
 17 18  2  0
 18 19  1  0
 19 20  2  0
  7  2  1  0
 20  8  1  0
 19 13  1  0
  1 21  1  0
  3 22  1  0
  4 23  1  0
  6 24  1  0
  7 25  1  0
  9 26  1  0
 11 27  1  0
 12 28  1  0
 12 29  1  0
 14 30  1  0
 16 31  1  0
 17 32  1  0
 18 33  1  0
M  END
$$$$
[H]Oc1c([H])c([H])c2c(c1[H])OC([H])([H])c1c-2nc2c([H])c([H])c(O[H])c([H])c2c1-c1c([H])c([H])c(C#N)c([H])c1[H]
     RDKit          3D

 42 46  0  0  0  0  0  0  0  0999 V2000
   -6.7192   -1.9005   -0.0499 O   0  0  0  0  0  0  0  0  0  0  0  0
   -5.4419   -1.3535    0.0067 C   0  0  0  0  0  0  0  0  0  0  0  0
   -5.2965   -0.0164    0.2713 C   0  0  0  0  0  0  0  0  0  0  0  0
   -4.0466    0.5776    0.3387 C   0  0  0  0  0  0  0  0  0  0  0  0
   -2.9376   -0.2135    0.1314 C   0  0  0  0  0  0  0  0  0  0  0  0
   -3.0257   -1.5603   -0.1376 C   0  0  0  0  0  0  0  0  0  0  0  0
   -1.8891   -2.3369   -0.3431 O   0  0  0  0  0  0  0  0  0  0  0  0
   -0.5856   -1.8403   -0.2965 C   0  0  0  0  0  0  0  0  0  0  0  0
   -0.5090   -0.3884   -0.0068 C   0  0  0  0  0  0  0  0  0  0  0  0
   -1.6088    0.4126    0.2020 C   0  0  0  0  0  0  0  0  0  0  0  0
   -1.4904    1.7472    0.4667 N   0  0  0  0  0  0  0  0  0  0  0  0
   -0.2770    2.3047    0.5277 C   0  0  0  0  0  0  0  0  0  0  0  0
   -0.1206    3.6410    0.7912 C   0  0  0  0  0  0  0  0  0  0  0  0
    1.1467    4.2055    0.8514 C   0  0  0  0  0  0  0  0  0  0  0  0
    2.2679    3.4287    0.6465 C   0  0  0  0  0  0  0  0  0  0  0  0
    3.5646    3.9626    0.6991 O   0  0  0  0  0  0  0  0  0  0  0  0
    2.1065    2.1002    0.3848 C   0  0  0  0  0  0  0  0  0  0  0  0
    0.8314    1.5292    0.3237 C   0  0  0  0  0  0  0  0  0  0  0  0
    0.7536    0.1681    0.0519 C   0  0  0  0  0  0  0  0  0  0  0  0
    1.9414   -0.6496   -0.1640 C   0  0  0  0  0  0  0  0  0  0  0  0
    2.3284   -0.9330   -1.4583 C   0  0  0  0  0  0  0  0  0  0  0  0
    3.4447   -1.7029   -1.7388 C   0  0  0  0  0  0  0  0  0  0  0  0
    4.2130   -2.2160   -0.7131 C   0  0  0  0  0  0  0  0  0  0  0  0
    3.8179   -1.9270    0.5792 C   0  0  0  0  0  0  0  0  0  0  0  0
    2.7082   -1.1617    0.8592 C   0  0  0  0  0  0  0  0  0  0  0  0
    5.3634   -3.0092   -0.9970 C   0  0  0  0  0  0  0  0  0  0  0  0
    6.3000   -3.6666   -1.2121 N   0  0  0  0  0  0  0  0  0  0  0  0
   -4.2958   -2.1125   -0.1956 C   0  0  0  0  0  0  0  0  0  0  0  0
   -7.1746   -1.8998   -0.9550 H   0  0  0  0  0  0  0  0  0  0  0  0
   -6.1631    0.5960    0.4322 H   0  0  0  0  0  0  0  0  0  0  0  0
   -3.9333    1.6484    0.5507 H   0  0  0  0  0  0  0  0  0  0  0  0
   -0.0314   -2.3848    0.4966 H   0  0  0  0  0  0  0  0  0  0  0  0
   -0.0926   -2.0652   -1.2668 H   0  0  0  0  0  0  0  0  0  0  0  0
   -0.9792    4.2650    0.9540 H   0  0  0  0  0  0  0  0  0  0  0  0
    1.2758    5.2589    1.0588 H   0  0  0  0  0  0  0  0  0  0  0  0
    3.6684    4.9501    0.8942 H   0  0  0  0  0  0  0  0  0  0  0  0
    2.9630    1.4430    0.2155 H   0  0  0  0  0  0  0  0  0  0  0  0
    1.7712   -0.5624   -2.3134 H   0  0  0  0  0  0  0  0  0  0  0  0
    3.7553   -1.9300   -2.7496 H   0  0  0  0  0  0  0  0  0  0  0  0
    4.3994   -2.3146    1.4056 H   0  0  0  0  0  0  0  0  0  0  0  0
    2.4024   -0.9380    1.8607 H   0  0  0  0  0  0  0  0  0  0  0  0
   -4.4053   -3.1558   -0.4024 H   0  0  0  0  0  0  0  0  0  0  0  0
  1  2  1  0
  2  3  2  0
  3  4  1  0
  4  5  2  0
  5  6  1  0
  6  7  1  0
  7  8  1  0
  8  9  1  0
  9 10  2  0
 10 11  1  0
 11 12  2  0
 12 13  1  0
 13 14  2  0
 14 15  1  0
 15 16  1  0
 15 17  2  0
 17 18  1  0
 18 19  2  0
 19 20  1  0
 20 21  2  0
 21 22  1  0
 22 23  2  0
 23 24  1  0
 24 25  2  0
 23 26  1  0
 26 27  3  0
  6 28  2  0
 28  2  1  0
  5 10  1  0
 18 12  1  0
 25 20  1  0
 19  9  1  0
  1 29  1  0
  3 30  1  0
  4 31  1  0
  8 32  1  0
  8 33  1  0
 13 34  1  0
 14 35  1  0
 16 36  1  0
 17 37  1  0
 21 38  1  0
 22 39  1  0
 24 40  1  0
 25 41  1  0
 28 42  1  0
M  END
$$$$
[H]Oc1c([H])c([H])c2c(c1[H])C([H])([H])[C@@]([H])(C([H])([H])C([H])([H])C([H])([H])C([H])([H])C([H])([H])C([H])([H])C([H])([H])C([H])([H])C([H])([H])S(=O)C([H])([H])C([H])([H])C([H])([H])C(F)(F)C(F)(F)F)[C@]1([H])[C@]2([H])C([H])([H])C([H])([H])[C@]2(C([H])([H])[H])[C@@]([H])(O[H])C([H])([H])C([H])([H])[C@]21[H]
     RDKit          3D

 88 91  0  0  0  0  0  0  0  0999 V2000
   -4.1217   -1.5726   -2.5128 C   0  0  0  0  0  0  0  0  0  0  0  0
   -4.9793   -1.7519   -1.2850 C   0  0  2  0  0  0  0  0  0  0  0  0
   -6.1721   -0.8583   -1.3665 C   0  0  0  0  0  0  0  0  0  0  0  0
   -5.9003    0.5846   -1.1276 C   0  0  0  0  0  0  0  0  0  0  0  0
   -4.8420    0.8769   -0.0984 C   0  0  1  0  0  0  0  0  0  0  0  0
   -3.7086   -0.0738   -0.1232 C   0  0  2  0  0  0  0  0  0  0  0  0
   -4.2550   -1.4513    0.0063 C   0  0  2  0  0  0  0  0  0  0  0  0
   -3.2696   -2.5636    0.0804 C   0  0  0  0  0  0  0  0  0  0  0  0
   -4.1716   -3.7638   -0.2432 C   0  0  0  0  0  0  0  0  0  0  0  0
   -5.3125   -3.1962   -1.0929 C   0  0  2  0  0  0  0  0  0  0  0  0
   -5.3169   -3.9024   -2.3137 O   0  0  0  0  0  0  0  0  0  0  0  0
   -2.6631    0.2280    0.9566 C   0  0  2  0  0  0  0  0  0  0  0  0
   -3.2340    0.2412    2.3003 C   0  0  0  0  0  0  0  0  0  0  0  0
   -2.3203    0.4480    3.4435 C   0  0  0  0  0  0  0  0  0  0  0  0
   -1.3045   -0.5484    3.7597 C   0  0  0  0  0  0  0  0  0  0  0  0
   -0.1458   -0.8819    2.9352 C   0  0  0  0  0  0  0  0  0  0  0  0
    0.8718    0.2337    2.7391 C   0  0  0  0  0  0  0  0  0  0  0  0
    1.9720   -0.3522    1.8416 C   0  0  0  0  0  0  0  0  0  0  0  0
    2.9829    0.7614    1.6507 C   0  0  0  0  0  0  0  0  0  0  0  0
    4.1432    0.3640    0.7902 C   0  0  0  0  0  0  0  0  0  0  0  0
    4.8957   -0.8002    1.3954 C   0  0  0  0  0  0  0  0  0  0  0  0
    6.2812   -1.2211    0.2909 S   0  0  0  0  0  0  0  0  0  0  0  0
    5.6254   -1.5098   -1.0823 O   0  0  0  0  0  0  0  0  0  0  0  0
    7.3733    0.1626    0.1112 C   0  0  0  0  0  0  0  0  0  0  0  0
    8.5556   -0.0952   -0.7587 C   0  0  0  0  0  0  0  0  0  0  0  0
    8.2733   -0.4631   -2.1743 C   0  0  0  0  0  0  0  0  0  0  0  0
    9.4837   -0.7417   -2.9883 C   0  0  0  0  0  0  0  0  0  0  0  0
    9.0633   -1.0654   -4.2802 F   0  0  0  0  0  0  0  0  0  0  0  0
   10.0223   -1.9503   -2.4834 F   0  0  0  0  0  0  0  0  0  0  0  0
   10.5524    0.2655   -3.0527 C   0  0  0  0  0  0  0  0  0  0  0  0
   11.1643    0.5901   -1.8929 F   0  0  0  0  0  0  0  0  0  0  0  0
    9.9975    1.4294   -3.6074 F   0  0  0  0  0  0  0  0  0  0  0  0
   11.4923   -0.1864   -3.9925 F   0  0  0  0  0  0  0  0  0  0  0  0
   -2.0518    1.5399    0.5695 C   0  0  0  0  0  0  0  0  0  0  0  0
   -2.9995    2.5065    0.0149 C   0  0  0  0  0  0  0  0  0  0  0  0
   -2.4730    3.8049   -0.1861 C   0  0  0  0  0  0  0  0  0  0  0  0
   -3.2400    4.8124   -0.7063 C   0  0  0  0  0  0  0  0  0  0  0  0
   -2.6918    6.0962   -0.8961 O   0  0  0  0  0  0  0  0  0  0  0  0
   -4.5448    4.5313   -1.0317 C   0  0  0  0  0  0  0  0  0  0  0  0
   -5.0748    3.2583   -0.8388 C   0  0  0  0  0  0  0  0  0  0  0  0
   -4.2977    2.2400   -0.3125 C   0  0  0  0  0  0  0  0  0  0  0  0
   -4.3226   -0.5852   -3.0247 H   0  0  0  0  0  0  0  0  0  0  0  0
   -4.3705   -2.3375   -3.3064 H   0  0  0  0  0  0  0  0  0  0  0  0
   -3.0489   -1.6285   -2.3452 H   0  0  0  0  0  0  0  0  0  0  0  0
   -6.9571   -1.2696   -0.6954 H   0  0  0  0  0  0  0  0  0  0  0  0
   -6.5833   -0.9686   -2.4061 H   0  0  0  0  0  0  0  0  0  0  0  0
   -5.6182    1.1249   -2.0527 H   0  0  0  0  0  0  0  0  0  0  0  0
   -6.8396    1.0544   -0.7678 H   0  0  0  0  0  0  0  0  0  0  0  0
   -5.3174    0.8646    0.9070 H   0  0  0  0  0  0  0  0  0  0  0  0
   -3.1757    0.0264   -1.0854 H   0  0  0  0  0  0  0  0  0  0  0  0
   -4.9778   -1.5725    0.8312 H   0  0  0  0  0  0  0  0  0  0  0  0
   -2.8907   -2.6535    1.1141 H   0  0  0  0  0  0  0  0  0  0  0  0
   -2.4165   -2.4869   -0.6077 H   0  0  0  0  0  0  0  0  0  0  0  0
   -4.6277   -4.0541    0.7313 H   0  0  0  0  0  0  0  0  0  0  0  0
   -3.6255   -4.5608   -0.7485 H   0  0  0  0  0  0  0  0  0  0  0  0
   -6.2990   -3.3497   -0.5984 H   0  0  0  0  0  0  0  0  0  0  0  0
   -5.5361   -4.8442   -2.1447 H   0  0  0  0  0  0  0  0  0  0  0  0
   -1.9138   -0.5653    0.8331 H   0  0  0  0  0  0  0  0  0  0  0  0
   -3.8869   -0.6769    2.4644 H   0  0  0  0  0  0  0  0  0  0  0  0
   -4.0373    1.0771    2.3672 H   0  0  0  0  0  0  0  0  0  0  0  0
   -2.9941    0.6501    4.3536 H   0  0  0  0  0  0  0  0  0  0  0  0
   -1.8508    1.4900    3.3001 H   0  0  0  0  0  0  0  0  0  0  0  0
   -1.8516   -1.5170    4.0399 H   0  0  0  0  0  0  0  0  0  0  0  0
   -0.9021   -0.2586    4.8099 H   0  0  0  0  0  0  0  0  0  0  0  0
    0.4634   -1.6533    3.5793 H   0  0  0  0  0  0  0  0  0  0  0  0
   -0.2854   -1.4479    2.0143 H   0  0  0  0  0  0  0  0  0  0  0  0
    0.4339    1.0869    2.2285 H   0  0  0  0  0  0  0  0  0  0  0  0
    1.3319    0.5149    3.7226 H   0  0  0  0  0  0  0  0  0  0  0  0
    2.4608   -1.2010    2.3553 H   0  0  0  0  0  0  0  0  0  0  0  0
    1.5523   -0.7104    0.9023 H   0  0  0  0  0  0  0  0  0  0  0  0
    3.3687    1.0174    2.6579 H   0  0  0  0  0  0  0  0  0  0  0  0
    2.4648    1.6225    1.1885 H   0  0  0  0  0  0  0  0  0  0  0  0
    4.8322    1.2133    0.7480 H   0  0  0  0  0  0  0  0  0  0  0  0
    3.8066    0.1570   -0.2305 H   0  0  0  0  0  0  0  0  0  0  0  0
    4.2096   -1.6673    1.4313 H   0  0  0  0  0  0  0  0  0  0  0  0
    5.2794   -0.5379    2.3910 H   0  0  0  0  0  0  0  0  0  0  0  0
    7.7788    0.5106    1.1034 H   0  0  0  0  0  0  0  0  0  0  0  0
    6.7549    1.0268   -0.2599 H   0  0  0  0  0  0  0  0  0  0  0  0
    9.2314   -0.8123   -0.2674 H   0  0  0  0  0  0  0  0  0  0  0  0
    9.1695    0.8692   -0.8145 H   0  0  0  0  0  0  0  0  0  0  0  0
    7.6262   -1.3886   -2.2213 H   0  0  0  0  0  0  0  0  0  0  0  0
    7.6685    0.3296   -2.6945 H   0  0  0  0  0  0  0  0  0  0  0  0
   -1.2264    1.3711   -0.1906 H   0  0  0  0  0  0  0  0  0  0  0  0
   -1.5429    2.0687    1.4261 H   0  0  0  0  0  0  0  0  0  0  0  0
   -1.4470    4.0405    0.0663 H   0  0  0  0  0  0  0  0  0  0  0  0
   -2.2492    6.3002   -1.7849 H   0  0  0  0  0  0  0  0  0  0  0  0
   -5.1984    5.2973   -1.4502 H   0  0  0  0  0  0  0  0  0  0  0  0
   -6.0997    3.0087   -1.0873 H   0  0  0  0  0  0  0  0  0  0  0  0
  2  1  1  6
  2  3  1  0
  3  4  1  0
  4  5  1  0
  5  6  1  0
  6  7  1  0
  7  8  1  0
  8  9  1  0
  9 10  1  0
 10 11  1  0
  6 12  1  0
 12 13  1  0
 13 14  1  0
 14 15  1  0
 15 16  1  0
 16 17  1  0
 17 18  1  0
 18 19  1  0
 19 20  1  0
 20 21  1  0
 21 22  1  0
 22 23  2  0
 22 24  1  0
 24 25  1  0
 25 26  1  0
 26 27  1  0
 27 28  1  0
 27 29  1  0
 27 30  1  0
 30 31  1  0
 30 32  1  0
 30 33  1  0
 12 34  1  0
 34 35  1  0
 35 36  2  0
 36 37  1  0
 37 38  1  0
 37 39  2  0
 39 40  1  0
 40 41  2  0
  7  2  1  0
 41 35  1  0
 10  2  1  0
 41  5  1  0
  1 42  1  0
  1 43  1  0
  1 44  1  0
  3 45  1  0
  3 46  1  0
  4 47  1  0
  4 48  1  0
  5 49  1  1
  6 50  1  6
  7 51  1  1
  8 52  1  0
  8 53  1  0
  9 54  1  0
  9 55  1  0
 10 56  1  1
 11 57  1  0
 12 58  1  1
 13 59  1  0
 13 60  1  0
 14 61  1  0
 14 62  1  0
 15 63  1  0
 15 64  1  0
 16 65  1  0
 16 66  1  0
 17 67  1  0
 17 68  1  0
 18 69  1  0
 18 70  1  0
 19 71  1  0
 19 72  1  0
 20 73  1  0
 20 74  1  0
 21 75  1  0
 21 76  1  0
 24 77  1  0
 24 78  1  0
 25 79  1  0
 25 80  1  0
 26 81  1  0
 26 82  1  0
 34 83  1  0
 34 84  1  0
 36 85  1  0
 38 86  1  0
 39 87  1  0
 40 88  1  0
M  END
$$$$
[H]Oc1c([H])c([H])c(-c2nc3c([H])c([H])c(O[H])c([H])c3c(Br)c2[H])c([H])c1[H]
     RDKit          3D

 29 31  0  0  0  0  0  0  0  0999 V2000
    5.9897   -0.3497   -0.4664 O   0  0  0  0  0  0  0  0  0  0  0  0
    4.6268   -0.1666   -0.2510 C   0  0  0  0  0  0  0  0  0  0  0  0
    3.7432   -0.9490   -0.9772 C   0  0  0  0  0  0  0  0  0  0  0  0
    2.3895   -0.8054   -0.8000 C   0  0  0  0  0  0  0  0  0  0  0  0
    1.8722    0.1235    0.1074 C   0  0  0  0  0  0  0  0  0  0  0  0
    2.7946    0.8718    0.7996 C   0  0  0  0  0  0  0  0  0  0  0  0
    4.1623    0.7628    0.6553 C   0  0  0  0  0  0  0  0  0  0  0  0
    0.4418    0.2181    0.2397 C   0  0  0  0  0  0  0  0  0  0  0  0
   -0.1462    1.1005    1.1045 C   0  0  0  0  0  0  0  0  0  0  0  0
   -1.5385    1.1807    1.2218 C   0  0  0  0  0  0  0  0  0  0  0  0
   -2.2785    2.4213    2.4351 Br  0  0  0  0  0  0  0  0  0  0  0  0
   -2.3587    0.3772    0.4735 C   0  0  0  0  0  0  0  0  0  0  0  0
   -3.7261    0.4048    0.5396 C   0  0  0  0  0  0  0  0  0  0  0  0
   -4.5324   -0.4177   -0.2275 C   0  0  0  0  0  0  0  0  0  0  0  0
   -5.9170   -0.3543   -0.1266 O   0  0  0  0  0  0  0  0  0  0  0  0
   -3.8893   -1.2872   -1.0815 C   0  0  0  0  0  0  0  0  0  0  0  0
   -2.5032   -1.3285   -1.1611 C   0  0  0  0  0  0  0  0  0  0  0  0
   -1.7121   -0.5032   -0.3910 C   0  0  0  0  0  0  0  0  0  0  0  0
   -0.3643   -0.5631   -0.4876 N   0  0  0  0  0  0  0  0  0  0  0  0
    6.4902   -1.0109    0.0781 H   0  0  0  0  0  0  0  0  0  0  0  0
    4.0829   -1.6902   -1.6991 H   0  0  0  0  0  0  0  0  0  0  0  0
    1.6985   -1.4125   -1.3633 H   0  0  0  0  0  0  0  0  0  0  0  0
    2.4353    1.5939    1.5039 H   0  0  0  0  0  0  0  0  0  0  0  0
    4.8771    1.3574    1.2059 H   0  0  0  0  0  0  0  0  0  0  0  0
    0.4680    1.7461    1.7070 H   0  0  0  0  0  0  0  0  0  0  0  0
   -4.1966    1.1084    1.2292 H   0  0  0  0  0  0  0  0  0  0  0  0
   -6.4073    0.2938   -0.7443 H   0  0  0  0  0  0  0  0  0  0  0  0
   -4.4977   -1.9366   -1.6878 H   0  0  0  0  0  0  0  0  0  0  0  0
   -2.0044   -2.0164   -1.8365 H   0  0  0  0  0  0  0  0  0  0  0  0
  1  2  1  0
  2  3  2  0
  3  4  1  0
  4  5  2  0
  5  6  1  0
  6  7  2  0
  5  8  1  0
  8  9  2  0
  9 10  1  0
 10 11  1  0
 10 12  2  0
 12 13  1  0
 13 14  2  0
 14 15  1  0
 14 16  1  0
 16 17  2  0
 17 18  1  0
 18 19  2  0
  7  2  1  0
 19  8  1  0
 18 12  1  0
  1 20  1  0
  3 21  1  0
  4 22  1  0
  6 23  1  0
  7 24  1  0
  9 25  1  0
 13 26  1  0
 15 27  1  0
 16 28  1  0
 17 29  1  0
M  END
$$$$
[H]Oc1c([H])c([H])c2c(c1[H])OC([H])([H])c1c-2nc2c([H])c([H])c(O[H])c([H])c2c1-c1c([H])c([H])c([H])c(OC([H])([H])[H])c1[H]
     RDKit          3D

 45 49  0  0  0  0  0  0  0  0999 V2000
    5.6347   -2.1608    1.5965 C   0  0  0  0  0  0  0  0  0  0  0  0
    4.4280   -1.4750    1.7913 O   0  0  0  0  0  0  0  0  0  0  0  0
    3.5974   -1.2096    0.7096 C   0  0  0  0  0  0  0  0  0  0  0  0
    4.0160   -1.6490   -0.5343 C   0  0  0  0  0  0  0  0  0  0  0  0
    3.2131   -1.3994   -1.6246 C   0  0  0  0  0  0  0  0  0  0  0  0
    2.0188   -0.7253   -1.4718 C   0  0  0  0  0  0  0  0  0  0  0  0
    1.6109   -0.2908   -0.2223 C   0  0  0  0  0  0  0  0  0  0  0  0
    2.4045   -0.5358    0.8652 C   0  0  0  0  0  0  0  0  0  0  0  0
    0.3463    0.4111   -0.1480 C   0  0  0  0  0  0  0  0  0  0  0  0
   -0.8356   -0.2972   -0.1533 C   0  0  0  0  0  0  0  0  0  0  0  0
   -0.7932   -1.7731   -0.2362 C   0  0  0  0  0  0  0  0  0  0  0  0
   -2.0746   -2.3479   -0.2332 O   0  0  0  0  0  0  0  0  0  0  0  0
   -3.2719   -1.6838   -0.1626 C   0  0  0  0  0  0  0  0  0  0  0  0
   -4.4971   -2.3656   -0.1664 C   0  0  0  0  0  0  0  0  0  0  0  0
   -5.6965   -1.6875   -0.0949 C   0  0  0  0  0  0  0  0  0  0  0  0
   -6.9046   -2.3640   -0.0987 O   0  0  0  0  0  0  0  0  0  0  0  0
   -5.7310   -0.3112   -0.0171 C   0  0  0  0  0  0  0  0  0  0  0  0
   -4.5145    0.3431   -0.0144 C   0  0  0  0  0  0  0  0  0  0  0  0
   -3.3134   -0.3143   -0.0846 C   0  0  0  0  0  0  0  0  0  0  0  0
   -2.0283    0.3877   -0.0814 C   0  0  0  0  0  0  0  0  0  0  0  0
   -2.0826    1.7365   -0.0055 N   0  0  0  0  0  0  0  0  0  0  0  0
   -0.9221    2.4440    0.0003 C   0  0  0  0  0  0  0  0  0  0  0  0
   -0.9692    3.8131    0.0773 C   0  0  0  0  0  0  0  0  0  0  0  0
    0.2115    4.5037    0.0820 C   0  0  0  0  0  0  0  0  0  0  0  0
    1.4213    3.8519    0.0117 C   0  0  0  0  0  0  0  0  0  0  0  0
    2.6034    4.5492    0.0168 O   0  0  0  0  0  0  0  0  0  0  0  0
    1.4898    2.4751   -0.0665 C   0  0  0  0  0  0  0  0  0  0  0  0
    0.2961    1.7790   -0.0712 C   0  0  0  0  0  0  0  0  0  0  0  0
    5.4969   -3.2386    1.3385 H   0  0  0  0  0  0  0  0  0  0  0  0
    6.2690   -2.1267    2.5093 H   0  0  0  0  0  0  0  0  0  0  0  0
    6.2351   -1.6422    0.8017 H   0  0  0  0  0  0  0  0  0  0  0  0
    4.9565   -2.1838   -0.6818 H   0  0  0  0  0  0  0  0  0  0  0  0
    3.5401   -1.7473   -2.6186 H   0  0  0  0  0  0  0  0  0  0  0  0
    1.4245   -0.5517   -2.3445 H   0  0  0  0  0  0  0  0  0  0  0  0
    2.0932   -0.2021    1.8308 H   0  0  0  0  0  0  0  0  0  0  0  0
   -0.2372   -2.1285   -1.1283 H   0  0  0  0  0  0  0  0  0  0  0  0
   -0.2092   -2.1310    0.6615 H   0  0  0  0  0  0  0  0  0  0  0  0
   -4.4492   -3.4288   -0.2272 H   0  0  0  0  0  0  0  0  0  0  0  0
   -7.2714   -2.6351    0.8247 H   0  0  0  0  0  0  0  0  0  0  0  0
   -6.6798    0.2211    0.0389 H   0  0  0  0  0  0  0  0  0  0  0  0
   -4.5231    1.4320    0.0467 H   0  0  0  0  0  0  0  0  0  0  0  0
   -1.9445    4.2753    0.1302 H   0  0  0  0  0  0  0  0  0  0  0  0
    0.2080    5.5876    0.1430 H   0  0  0  0  0  0  0  0  0  0  0  0
    2.9994    4.8462   -0.8656 H   0  0  0  0  0  0  0  0  0  0  0  0
    2.4347    1.9494   -0.1229 H   0  0  0  0  0  0  0  0  0  0  0  0
  1  2  1  0
  2  3  1  0
  3  4  2  0
  4  5  1  0
  5  6  2  0
  6  7  1  0
  7  8  2  0
  7  9  1  0
  9 10  2  0
 10 11  1  0
 11 12  1  0
 12 13  1  0
 13 14  2  0
 14 15  1  0
 15 16  1  0
 15 17  2  0
 17 18  1  0
 18 19  2  0
 19 20  1  0
 20 21  2  0
 21 22  1  0
 22 23  2  0
 23 24  1  0
 24 25  2  0
 25 26  1  0
 25 27  1  0
 27 28  2  0
  8  3  1  0
 28  9  1  0
 20 10  1  0
 28 22  1  0
 19 13  1  0
  1 29  1  0
  1 30  1  0
  1 31  1  0
  4 32  1  0
  5 33  1  0
  6 34  1  0
  8 35  1  0
 11 36  1  0
 11 37  1  0
 14 38  1  0
 16 39  1  0
 17 40  1  0
 18 41  1  0
 23 42  1  0
 24 43  1  0
 26 44  1  0
 27 45  1  0
M  END
$$$$
[H]/C(=C1/SC(=O)N(C([H])([H])[C@@]([H])(N([H])[H])C([H])([H])[H])C1=O)c1c([H])c([H])c2c(c([H])nn2C([H])([H])c2c([H])c([H])c(Cl)c([H])c2C(F)(F)F)c1[H]
     RDKit          3D

 51 54  0  0  0  0  0  0  0  0999 V2000
   -6.9795   -0.0161   -0.4694 C   0  0  0  0  0  0  0  0  0  0  0  0
   -7.0900   -0.3165    0.9847 C   0  0  2  0  0  0  0  0  0  0  0  0
   -8.4575   -0.2395    1.4707 N   0  0  0  0  0  0  0  0  0  0  0  0
   -6.1597    0.5078    1.8227 C   0  0  0  0  0  0  0  0  0  0  0  0
   -4.7746    0.2223    1.3907 N   0  0  0  0  0  0  0  0  0  0  0  0
   -4.0460   -0.8578    1.9466 C   0  0  0  0  0  0  0  0  0  0  0  0
   -4.4303   -1.8738    2.5339 O   0  0  0  0  0  0  0  0  0  0  0  0
   -2.3203   -0.4457    1.6122 S   0  0  0  0  0  0  0  0  0  0  0  0
   -2.7124    0.5798    0.1669 C   0  0  0  0  0  0  0  0  0  0  0  0
   -1.9677    0.8823   -0.8572 C   0  0  0  0  0  0  0  0  0  0  0  0
   -0.6167    0.3899   -0.9695 C   0  0  0  0  0  0  0  0  0  0  0  0
    0.3240    1.2772   -1.4460 C   0  0  0  0  0  0  0  0  0  0  0  0
    1.6196    0.8884   -1.5858 C   0  0  0  0  0  0  0  0  0  0  0  0
    2.0988   -0.3758   -1.2773 C   0  0  0  0  0  0  0  0  0  0  0  0
    3.2803   -0.9797   -1.3574 N   0  0  0  0  0  0  0  0  0  0  0  0
    4.5758   -0.4765   -1.7227 C   0  0  0  0  0  0  0  0  0  0  0  0
    5.5659   -0.2735   -0.6769 C   0  0  0  0  0  0  0  0  0  0  0  0
    6.3779   -1.4180   -0.4563 C   0  0  0  0  0  0  0  0  0  0  0  0
    7.3527   -1.4576    0.4863 C   0  0  0  0  0  0  0  0  0  0  0  0
    7.5494   -0.3356    1.2502 C   0  0  0  0  0  0  0  0  0  0  0  0
    8.7761   -0.3082    2.4771 Cl  0  0  0  0  0  0  0  0  0  0  0  0
    6.7763    0.7808    1.0530 C   0  0  0  0  0  0  0  0  0  0  0  0
    5.7595    0.8441    0.0808 C   0  0  0  0  0  0  0  0  0  0  0  0
    4.9779    2.0751   -0.0540 C   0  0  0  0  0  0  0  0  0  0  0  0
    4.9256    2.6057   -1.3183 F   0  0  0  0  0  0  0  0  0  0  0  0
    5.7986    3.0844    0.6032 F   0  0  0  0  0  0  0  0  0  0  0  0
    3.8388    2.1458    0.6961 F   0  0  0  0  0  0  0  0  0  0  0  0
    3.0801   -2.2662   -0.9302 N   0  0  0  0  0  0  0  0  0  0  0  0
    1.8059   -2.4478   -0.5937 C   0  0  0  0  0  0  0  0  0  0  0  0
    1.1219   -1.2519   -0.7989 C   0  0  0  0  0  0  0  0  0  0  0  0
   -0.1837   -0.8687   -0.6554 C   0  0  0  0  0  0  0  0  0  0  0  0
   -4.0980    0.9947    0.4537 C   0  0  0  0  0  0  0  0  0  0  0  0
   -4.6034    2.0182   -0.1523 O   0  0  0  0  0  0  0  0  0  0  0  0
   -7.2126    1.0223   -0.7505 H   0  0  0  0  0  0  0  0  0  0  0  0
   -7.7362   -0.6317   -1.0538 H   0  0  0  0  0  0  0  0  0  0  0  0
   -6.0087   -0.3716   -0.8691 H   0  0  0  0  0  0  0  0  0  0  0  0
   -6.7766   -1.3972    1.1031 H   0  0  0  0  0  0  0  0  0  0  0  0
   -9.0894   -0.2704    0.6447 H   0  0  0  0  0  0  0  0  0  0  0  0
   -8.6477   -1.0413    2.1047 H   0  0  0  0  0  0  0  0  0  0  0  0
   -6.2764    0.3322    2.9023 H   0  0  0  0  0  0  0  0  0  0  0  0
   -6.4017    1.5846    1.6189 H   0  0  0  0  0  0  0  0  0  0  0  0
   -2.3933    1.5154   -1.6246 H   0  0  0  0  0  0  0  0  0  0  0  0
    0.0363    2.2830   -1.7086 H   0  0  0  0  0  0  0  0  0  0  0  0
    2.3700    1.5887   -1.9779 H   0  0  0  0  0  0  0  0  0  0  0  0
    4.9913   -1.2139   -2.4766 H   0  0  0  0  0  0  0  0  0  0  0  0
    4.4352    0.4439   -2.3642 H   0  0  0  0  0  0  0  0  0  0  0  0
    6.2427   -2.3239   -1.0478 H   0  0  0  0  0  0  0  0  0  0  0  0
    7.9701   -2.3579    0.6400 H   0  0  0  0  0  0  0  0  0  0  0  0
    6.9188    1.6866    1.6581 H   0  0  0  0  0  0  0  0  0  0  0  0
    1.2941   -3.3288   -0.2177 H   0  0  0  0  0  0  0  0  0  0  0  0
   -0.8812   -1.6020   -0.2887 H   0  0  0  0  0  0  0  0  0  0  0  0
  1  2  1  0
  2  3  1  0
  2  4  1  0
  4  5  1  0
  5  6  1  0
  6  7  2  0
  6  8  1  0
  8  9  1  0
  9 10  2  0
 10 11  1  0
 11 12  2  0
 12 13  1  0
 13 14  2  0
 14 15  1  0
 15 16  1  0
 16 17  1  0
 17 18  2  0
 18 19  1  0
 19 20  2  0
 20 21  1  0
 20 22  1  0
 22 23  2  0
 23 24  1  0
 24 25  1  0
 24 26  1  0
 24 27  1  0
 15 28  1  0
 28 29  2  0
 29 30  1  0
 30 31  2  0
  9 32  1  0
 32 33  2  0
 32  5  1  0
 31 11  1  0
 30 14  1  0
 23 17  1  0
  1 34  1  0
  1 35  1  0
  1 36  1  0
  2 37  1  6
  3 38  1  0
  3 39  1  0
  4 40  1  0
  4 41  1  0
 10 42  1  0
 12 43  1  0
 13 44  1  0
 16 45  1  0
 16 46  1  0
 18 47  1  0
 19 48  1  0
 22 49  1  0
 29 50  1  0
 31 51  1  0
M  END
$$$$
[H]C#Cc1c2c(nc3c([H])c([H])c(O[H])c([H])c13)-c1c([H])c([H])c(O[H])c([H])c1OC2([H])[H]
     RDKit          3D

 33 36  0  0  0  0  0  0  0  0999 V2000
    6.1856    0.0768   -0.3712 O   0  0  0  0  0  0  0  0  0  0  0  0
    4.8023    0.0759   -0.2938 C   0  0  0  0  0  0  0  0  0  0  0  0
    4.1275    1.2695   -0.4393 C   0  0  0  0  0  0  0  0  0  0  0  0
    2.7458    1.2653   -0.3614 C   0  0  0  0  0  0  0  0  0  0  0  0
    2.0215    0.0910   -0.1407 C   0  0  0  0  0  0  0  0  0  0  0  0
    2.6842   -1.0950    0.0043 C   0  0  0  0  0  0  0  0  0  0  0  0
    2.0002   -2.2604    0.2213 O   0  0  0  0  0  0  0  0  0  0  0  0
    0.6099   -2.3475    0.3125 C   0  0  0  0  0  0  0  0  0  0  0  0
   -0.1083   -1.0585    0.1548 C   0  0  0  0  0  0  0  0  0  0  0  0
    0.5800    0.1056   -0.0624 C   0  0  0  0  0  0  0  0  0  0  0  0
   -0.0979    1.2473   -0.1997 N   0  0  0  0  0  0  0  0  0  0  0  0
   -1.4447    1.2716   -0.1282 C   0  0  0  0  0  0  0  0  0  0  0  0
   -2.1370    2.4688   -0.2732 C   0  0  0  0  0  0  0  0  0  0  0  0
   -3.5134    2.5232   -0.2046 C   0  0  0  0  0  0  0  0  0  0  0  0
   -4.2539    1.3611    0.0151 C   0  0  0  0  0  0  0  0  0  0  0  0
   -5.6417    1.4276    0.0825 O   0  0  0  0  0  0  0  0  0  0  0  0
   -3.5479    0.1842    0.1563 C   0  0  0  0  0  0  0  0  0  0  0  0
   -2.1699    0.1159    0.0897 C   0  0  0  0  0  0  0  0  0  0  0  0
   -1.4715   -1.0594    0.2311 C   0  0  0  0  0  0  0  0  0  0  0  0
   -2.2118   -2.2926    0.4618 C   0  0  0  0  0  0  0  0  0  0  0  0
   -2.8335   -3.3045    0.6680 C   0  0  0  0  0  0  0  0  0  0  0  0
    4.0853   -1.0749   -0.0771 C   0  0  0  0  0  0  0  0  0  0  0  0
    6.7174    0.8986   -0.5270 H   0  0  0  0  0  0  0  0  0  0  0  0
    4.6430    2.2113   -0.6126 H   0  0  0  0  0  0  0  0  0  0  0  0
    2.1903    2.1927   -0.4727 H   0  0  0  0  0  0  0  0  0  0  0  0
    0.2781   -2.8513    1.2524 H   0  0  0  0  0  0  0  0  0  0  0  0
    0.2815   -2.9702   -0.5730 H   0  0  0  0  0  0  0  0  0  0  0  0
   -1.5455    3.3792   -0.4460 H   0  0  0  0  0  0  0  0  0  0  0  0
   -4.0078    3.4833   -0.3244 H   0  0  0  0  0  0  0  0  0  0  0  0
   -6.1235    1.5834    0.9583 H   0  0  0  0  0  0  0  0  0  0  0  0
   -4.0936   -0.7272    0.3267 H   0  0  0  0  0  0  0  0  0  0  0  0
   -3.3838   -4.1935    0.8661 H   0  0  0  0  0  0  0  0  0  0  0  0
    4.6326   -1.9975    0.0339 H   0  0  0  0  0  0  0  0  0  0  0  0
  1  2  1  0
  2  3  2  0
  3  4  1  0
  4  5  2  0
  5  6  1  0
  6  7  1  0
  7  8  1  0
  8  9  1  0
  9 10  2  0
 10 11  1  0
 11 12  2  0
 12 13  1  0
 13 14  2  0
 14 15  1  0
 15 16  1  0
 15 17  2  0
 17 18  1  0
 18 19  2  0
 19 20  1  0
 20 21  3  0
  6 22  2  0
 22  2  1  0
  5 10  1  0
 18 12  1  0
 19  9  1  0
  1 23  1  0
  3 24  1  0
  4 25  1  0
  8 26  1  0
  8 27  1  0
 13 28  1  0
 14 29  1  0
 16 30  1  0
 17 31  1  0
 21 32  1  0
 22 33  1  0
M  END
$$$$
[H]C#Cc1c([H])c(-c2c([H])c([H])c(O[H])c([H])c2[H])nc2c([H])c([H])c(O[H])c([H])c12
     RDKit          3D

 31 33  0  0  0  0  0  0  0  0999 V2000
    6.2263    0.4031    0.5010 O   0  0  0  0  0  0  0  0  0  0  0  0
    4.8448    0.2534    0.3998 C   0  0  0  0  0  0  0  0  0  0  0  0
    3.9638    1.2739    0.6887 C   0  0  0  0  0  0  0  0  0  0  0  0
    2.6172    1.1318    0.5913 C   0  0  0  0  0  0  0  0  0  0  0  0
    2.0497   -0.0829    0.1846 C   0  0  0  0  0  0  0  0  0  0  0  0
    2.8918   -1.1109   -0.1081 C   0  0  0  0  0  0  0  0  0  0  0  0
    4.2734   -0.9349    0.0014 C   0  0  0  0  0  0  0  0  0  0  0  0
    0.6019   -0.1540    0.1057 C   0  0  0  0  0  0  0  0  0  0  0  0
   -0.0285   -1.3044   -0.2831 C   0  0  0  0  0  0  0  0  0  0  0  0
   -1.4307   -1.3771   -0.3607 C   0  0  0  0  0  0  0  0  0  0  0  0
   -2.0827   -2.5895   -0.7699 C   0  0  0  0  0  0  0  0  0  0  0  0
   -2.6367   -3.6152   -1.1037 C   0  0  0  0  0  0  0  0  0  0  0  0
   -2.1175   -0.2307   -0.0244 C   0  0  0  0  0  0  0  0  0  0  0  0
   -3.5016   -0.2306   -0.0782 C   0  0  0  0  0  0  0  0  0  0  0  0
   -4.2590    0.8767    0.2430 C   0  0  0  0  0  0  0  0  0  0  0  0
   -5.6444    0.8866    0.1922 O   0  0  0  0  0  0  0  0  0  0  0  0
   -3.6102    2.0396    0.6365 C   0  0  0  0  0  0  0  0  0  0  0  0
   -2.2344    2.0437    0.6913 C   0  0  0  0  0  0  0  0  0  0  0  0
   -1.4748    0.9393    0.3711 C   0  0  0  0  0  0  0  0  0  0  0  0
   -0.1429    0.9124    0.4145 N   0  0  0  0  0  0  0  0  0  0  0  0
    6.5666    1.2989    0.7978 H   0  0  0  0  0  0  0  0  0  0  0  0
    4.3784    2.2286    1.0071 H   0  0  0  0  0  0  0  0  0  0  0  0
    1.9354    1.9642    0.8283 H   0  0  0  0  0  0  0  0  0  0  0  0
    2.4870   -2.0557   -0.4230 H   0  0  0  0  0  0  0  0  0  0  0  0
    4.9416   -1.7512   -0.2311 H   0  0  0  0  0  0  0  0  0  0  0  0
    0.5141   -2.1946   -0.5438 H   0  0  0  0  0  0  0  0  0  0  0  0
   -3.1351   -4.5114   -1.4115 H   0  0  0  0  0  0  0  0  0  0  0  0
   -4.0074   -1.1473   -0.3882 H   0  0  0  0  0  0  0  0  0  0  0  0
   -6.0868    1.1628   -0.6868 H   0  0  0  0  0  0  0  0  0  0  0  0
   -4.1815    2.9344    0.8976 H   0  0  0  0  0  0  0  0  0  0  0  0
   -1.7178    2.9412    0.9956 H   0  0  0  0  0  0  0  0  0  0  0  0
  1  2  1  0
  2  3  2  0
  3  4  1  0
  4  5  2  0
  5  6  1  0
  6  7  2  0
  5  8  1  0
  8  9  2  0
  9 10  1  0
 10 11  1  0
 11 12  3  0
 10 13  2  0
 13 14  1  0
 14 15  2  0
 15 16  1  0
 15 17  1  0
 17 18  2  0
 18 19  1  0
 19 20  2  0
  7  2  1  0
 20  8  1  0
 19 13  1  0
  1 21  1  0
  3 22  1  0
  4 23  1  0
  6 24  1  0
  7 25  1  0
  9 26  1  0
 12 27  1  0
 14 28  1  0
 16 29  1  0
 17 30  1  0
 18 31  1  0
M  END
$$$$
[H]Oc1c([H])c([H])c(-n2c([H])c(Br)c3c([H])c(O[H])c([H])c(O[H])c3c2=O)c([H])c1F
     RDKit          3D

 31 33  0  0  0  0  0  0  0  0999 V2000
   -5.7927    0.4224    0.0912 O   0  0  0  0  0  0  0  0  0  0  0  0
   -4.4387    0.2005   -0.0324 C   0  0  0  0  0  0  0  0  0  0  0  0
   -3.9064   -0.6968   -0.9301 C   0  0  0  0  0  0  0  0  0  0  0  0
   -2.5696   -0.9164   -1.0526 C   0  0  0  0  0  0  0  0  0  0  0  0
   -2.0776   -1.8296   -1.9702 O   0  0  0  0  0  0  0  0  0  0  0  0
   -1.7085   -0.1950   -0.2272 C   0  0  0  0  0  0  0  0  0  0  0  0
   -2.1906    0.7160    0.6889 C   0  0  0  0  0  0  0  0  0  0  0  0
   -3.5528    0.9044    0.7768 C   0  0  0  0  0  0  0  0  0  0  0  0
   -1.2676    1.3844    1.4637 C   0  0  0  0  0  0  0  0  0  0  0  0
   -1.8828    2.6528    2.7438 Br  0  0  0  0  0  0  0  0  0  0  0  0
    0.0901    1.1722    1.3506 C   0  0  0  0  0  0  0  0  0  0  0  0
    0.5409    0.2848    0.4568 N   0  0  0  0  0  0  0  0  0  0  0  0
    1.9434    0.0714    0.3460 C   0  0  0  0  0  0  0  0  0  0  0  0
    2.8176    1.1283    0.2554 C   0  0  0  0  0  0  0  0  0  0  0  0
    4.1688    0.9046    0.1490 C   0  0  0  0  0  0  0  0  0  0  0  0
    4.7031   -0.3782    0.1285 C   0  0  0  0  0  0  0  0  0  0  0  0
    6.0736   -0.6045    0.0206 O   0  0  0  0  0  0  0  0  0  0  0  0
    3.8137   -1.4271    0.2202 C   0  0  0  0  0  0  0  0  0  0  0  0
    4.3137   -2.7010    0.2023 F   0  0  0  0  0  0  0  0  0  0  0  0
    2.4451   -1.2114    0.3281 C   0  0  0  0  0  0  0  0  0  0  0  0
   -0.3511   -0.3784   -0.3101 C   0  0  0  0  0  0  0  0  0  0  0  0
    0.0576   -1.2200   -1.1594 O   0  0  0  0  0  0  0  0  0  0  0  0
   -6.4784   -0.0424   -0.4511 H   0  0  0  0  0  0  0  0  0  0  0  0
   -4.5822   -1.2540   -1.5685 H   0  0  0  0  0  0  0  0  0  0  0  0
   -2.7220   -2.3313   -2.5479 H   0  0  0  0  0  0  0  0  0  0  0  0
   -3.9291    1.6187    1.4951 H   0  0  0  0  0  0  0  0  0  0  0  0
    0.8164    1.6980    1.9601 H   0  0  0  0  0  0  0  0  0  0  0  0
    2.3794    2.1285    0.2732 H   0  0  0  0  0  0  0  0  0  0  0  0
    4.8361    1.7337    0.0795 H   0  0  0  0  0  0  0  0  0  0  0  0
    6.6731    0.2180   -0.0433 H   0  0  0  0  0  0  0  0  0  0  0  0
    1.7775   -2.0525    0.3979 H   0  0  0  0  0  0  0  0  0  0  0  0
  1  2  1  0
  2  3  2  0
  3  4  1  0
  4  5  1  0
  4  6  2  0
  6  7  1  0
  7  8  2  0
  7  9  1  0
  9 10  1  0
  9 11  2  0
 11 12  1  0
 12 13  1  0
 13 14  2  0
 14 15  1  0
 15 16  2  0
 16 17  1  0
 16 18  1  0
 18 19  1  0
 18 20  2  0
 12 21  1  0
 21 22  2  0
  8  2  1  0
 20 13  1  0
 21  6  1  0
  1 23  1  0
  3 24  1  0
  5 25  1  0
  8 26  1  0
 11 27  1  0
 14 28  1  0
 15 29  1  0
 17 30  1  0
 20 31  1  0
M  END
$$$$
[H]/C(=C1/SC(=O)N(C([H])([H])[C@]2([H])N([H])C([H])([H])C([H])([H])OC2([H])[H])C1=O)c1c([H])c([H])c2c(c([H])nn2C([H])([H])c2c([H])c([H])c(Cl)c([H])c2C(F)(F)F)c1[H]
     RDKit          3D

 56 60  0  0  0  0  0  0  0  0999 V2000
    7.7028   -0.4392    2.5096 F   0  0  0  0  0  0  0  0  0  0  0  0
    7.1548    0.7769    2.1036 C   0  0  0  0  0  0  0  0  0  0  0  0
    8.1562    1.7449    2.2734 F   0  0  0  0  0  0  0  0  0  0  0  0
    6.1272    1.1867    2.9247 F   0  0  0  0  0  0  0  0  0  0  0  0
    6.7760    0.7106    0.6763 C   0  0  0  0  0  0  0  0  0  0  0  0
    7.3677    1.6218   -0.2087 C   0  0  0  0  0  0  0  0  0  0  0  0
    7.0660    1.6316   -1.5527 C   0  0  0  0  0  0  0  0  0  0  0  0
    7.7881    2.7570   -2.6770 Cl  0  0  0  0  0  0  0  0  0  0  0  0
    6.1604    0.7167   -2.0145 C   0  0  0  0  0  0  0  0  0  0  0  0
    5.5713   -0.1870   -1.1465 C   0  0  0  0  0  0  0  0  0  0  0  0
    5.8742   -0.1979    0.2062 C   0  0  0  0  0  0  0  0  0  0  0  0
    5.2513   -1.1726    1.1195 C   0  0  0  0  0  0  0  0  0  0  0  0
    4.2224   -1.9534    0.4742 N   0  0  0  0  0  0  0  0  0  0  0  0
    4.3798   -3.0951   -0.1573 N   0  0  0  0  0  0  0  0  0  0  0  0
    3.1913   -3.5170   -0.6238 C   0  0  0  0  0  0  0  0  0  0  0  0
    2.2607   -2.5733   -0.2518 C   0  0  0  0  0  0  0  0  0  0  0  0
    0.9047   -2.4649   -0.4430 C   0  0  0  0  0  0  0  0  0  0  0  0
    0.1904   -1.3761    0.0538 C   0  0  0  0  0  0  0  0  0  0  0  0
   -1.2404   -1.3865   -0.2093 C   0  0  0  0  0  0  0  0  0  0  0  0
   -1.8906   -0.3198   -0.5784 C   0  0  0  0  0  0  0  0  0  0  0  0
   -1.2041    1.3409   -0.8403 S   0  0  0  0  0  0  0  0  0  0  0  0
   -2.7819    2.1740   -0.5074 C   0  0  0  0  0  0  0  0  0  0  0  0
   -2.9407    3.3500   -0.0819 O   0  0  0  0  0  0  0  0  0  0  0  0
   -3.7521    1.1962   -0.8375 N   0  0  0  0  0  0  0  0  0  0  0  0
   -5.1579    1.5673   -1.1201 C   0  0  0  0  0  0  0  0  0  0  0  0
   -5.9054    1.5277    0.2049 C   0  0  1  0  0  0  0  0  0  0  0  0
   -7.3542    1.9028   -0.0038 C   0  0  0  0  0  0  0  0  0  0  0  0
   -8.0118    1.0880   -0.8904 O   0  0  0  0  0  0  0  0  0  0  0  0
   -7.8336   -0.2560   -0.6154 C   0  0  0  0  0  0  0  0  0  0  0  0
   -7.1309   -0.4893    0.7051 C   0  0  0  0  0  0  0  0  0  0  0  0
   -5.8860    0.2306    0.8201 N   0  0  0  0  0  0  0  0  0  0  0  0
   -3.3038   -0.1261   -0.8807 C   0  0  0  0  0  0  0  0  0  0  0  0
   -4.0716   -1.1295   -1.1673 O   0  0  0  0  0  0  0  0  0  0  0  0
    0.8432   -0.4010    0.7412 C   0  0  0  0  0  0  0  0  0  0  0  0
    2.2127   -0.5232    0.9265 C   0  0  0  0  0  0  0  0  0  0  0  0
    2.9290   -1.5959    0.4391 C   0  0  0  0  0  0  0  0  0  0  0  0
    8.0855    2.3456    0.1726 H   0  0  0  0  0  0  0  0  0  0  0  0
    5.9157    0.7110   -3.0549 H   0  0  0  0  0  0  0  0  0  0  0  0
    4.8534   -0.9195   -1.4823 H   0  0  0  0  0  0  0  0  0  0  0  0
    4.8513   -0.7205    2.0535 H   0  0  0  0  0  0  0  0  0  0  0  0
    6.0220   -1.9241    1.4622 H   0  0  0  0  0  0  0  0  0  0  0  0
    2.9601   -4.4187   -1.1876 H   0  0  0  0  0  0  0  0  0  0  0  0
    0.4101   -3.2567   -0.9943 H   0  0  0  0  0  0  0  0  0  0  0  0
   -1.8324   -2.3099   -0.1039 H   0  0  0  0  0  0  0  0  0  0  0  0
   -5.2264    2.5936   -1.4801 H   0  0  0  0  0  0  0  0  0  0  0  0
   -5.5730    0.8415   -1.8288 H   0  0  0  0  0  0  0  0  0  0  0  0
   -5.4678    2.2904    0.8738 H   0  0  0  0  0  0  0  0  0  0  0  0
   -7.8338    1.8664    1.0051 H   0  0  0  0  0  0  0  0  0  0  0  0
   -7.3805    2.9438   -0.4085 H   0  0  0  0  0  0  0  0  0  0  0  0
   -7.3012   -0.7749   -1.4290 H   0  0  0  0  0  0  0  0  0  0  0  0
   -8.8655   -0.6951   -0.4863 H   0  0  0  0  0  0  0  0  0  0  0  0
   -6.8948   -1.5921    0.7407 H   0  0  0  0  0  0  0  0  0  0  0  0
   -7.7886   -0.2521    1.5613 H   0  0  0  0  0  0  0  0  0  0  0  0
   -5.6566    0.2807    1.8547 H   0  0  0  0  0  0  0  0  0  0  0  0
    0.3228    0.4354    1.1391 H   0  0  0  0  0  0  0  0  0  0  0  0
    2.7346    0.2354    1.4641 H   0  0  0  0  0  0  0  0  0  0  0  0
  1  2  1  0
  2  3  1  0
  2  4  1  0
  2  5  1  0
  5  6  2  0
  6  7  1  0
  7  8  1  0
  7  9  2  0
  9 10  1  0
 10 11  2  0
 11 12  1  0
 12 13  1  0
 13 14  1  0
 14 15  2  0
 15 16  1  0
 16 17  2  0
 17 18  1  0
 18 19  1  0
 19 20  2  0
 20 21  1  0
 21 22  1  0
 22 23  2  0
 22 24  1  0
 24 25  1  0
 25 26  1  0
 26 27  1  0
 27 28  1  0
 28 29  1  0
 29 30  1  0
 30 31  1  0
 24 32  1  0
 32 33  2  0
 18 34  2  0
 34 35  1  0
 35 36  2  0
 11  5  1  0
 36 13  1  0
 36 16  1  0
 32 20  1  0
 31 26  1  0
  6 37  1  0
  9 38  1  0
 10 39  1  0
 12 40  1  0
 12 41  1  0
 15 42  1  0
 17 43  1  0
 19 44  1  0
 25 45  1  0
 25 46  1  0
 26 47  1  1
 27 48  1  0
 27 49  1  0
 29 50  1  0
 29 51  1  0
 30 52  1  0
 30 53  1  0
 31 54  1  0
 34 55  1  0
 35 56  1  0
M  END
$$$$
[H]/C(=C1/SC(=O)N(C([H])([H])C([H])([H])N2C([H])([H])C([H])([H])C([H])([H])C2([H])[H])C1=O)c1c([H])c([H])c2c(c([H])nn2C([H])([H])c2c([H])c([H])c(OC([H])([H])[H])c([H])c2C(F)(F)F)c1[H]
     RDKit          3D

 62 66  0  0  0  0  0  0  0  0999 V2000
   -8.0399    5.5537    1.5998 C   0  0  0  0  0  0  0  0  0  0  0  0
   -8.1898    4.5291    0.6338 O   0  0  0  0  0  0  0  0  0  0  0  0
   -7.4948    3.3281    0.8140 C   0  0  0  0  0  0  0  0  0  0  0  0
   -6.6728    3.1052    1.8920 C   0  0  0  0  0  0  0  0  0  0  0  0
   -6.0038    1.9113    2.0350 C   0  0  0  0  0  0  0  0  0  0  0  0
   -6.1103    0.8544    1.1075 C   0  0  0  0  0  0  0  0  0  0  0  0
   -5.2648   -0.3447    1.3203 C   0  0  0  0  0  0  0  0  0  0  0  0
   -3.8721   -0.0469    1.4597 N   0  0  0  0  0  0  0  0  0  0  0  0
   -3.3604    0.2783    2.6882 N   0  0  0  0  0  0  0  0  0  0  0  0
   -2.0580    0.5182    2.5951 C   0  0  0  0  0  0  0  0  0  0  0  0
   -1.7066    0.3470    1.2792 C   0  0  0  0  0  0  0  0  0  0  0  0
   -0.5220    0.4464    0.6203 C   0  0  0  0  0  0  0  0  0  0  0  0
   -0.3940    0.2105   -0.7240 C   0  0  0  0  0  0  0  0  0  0  0  0
    0.9090    0.2883   -1.3453 C   0  0  0  0  0  0  0  0  0  0  0  0
    1.9241   -0.3064   -0.8489 C   0  0  0  0  0  0  0  0  0  0  0  0
    1.8992   -1.3142    0.6656 S   0  0  0  0  0  0  0  0  0  0  0  0
    3.1907   -2.4342    0.0234 C   0  0  0  0  0  0  0  0  0  0  0  0
    3.2471   -3.6542    0.3072 O   0  0  0  0  0  0  0  0  0  0  0  0
    3.9723   -1.5829   -0.7803 N   0  0  0  0  0  0  0  0  0  0  0  0
    5.3865   -1.9177   -1.0775 C   0  0  0  0  0  0  0  0  0  0  0  0
    6.2936   -1.3379   -0.0340 C   0  0  0  0  0  0  0  0  0  0  0  0
    7.6712   -1.5869   -0.1962 N   0  0  0  0  0  0  0  0  0  0  0  0
    8.1247   -2.9253   -0.0394 C   0  0  0  0  0  0  0  0  0  0  0  0
    8.9893   -3.2402   -1.2400 C   0  0  0  0  0  0  0  0  0  0  0  0
    9.5137   -1.8790   -1.6320 C   0  0  0  0  0  0  0  0  0  0  0  0
    8.3465   -0.9681   -1.2791 C   0  0  0  0  0  0  0  0  0  0  0  0
    3.3162   -0.4314   -1.2621 C   0  0  0  0  0  0  0  0  0  0  0  0
    3.8529    0.4672   -2.0079 O   0  0  0  0  0  0  0  0  0  0  0  0
   -1.5286   -0.1443   -1.4408 C   0  0  0  0  0  0  0  0  0  0  0  0
   -2.7149   -0.2387   -0.7539 C   0  0  0  0  0  0  0  0  0  0  0  0
   -2.8773   -0.0088    0.5941 C   0  0  0  0  0  0  0  0  0  0  0  0
   -6.9271    1.0710    0.0404 C   0  0  0  0  0  0  0  0  0  0  0  0
   -7.6072    2.3095   -0.0900 C   0  0  0  0  0  0  0  0  0  0  0  0
   -7.2289    0.0291   -0.9536 C   0  0  0  0  0  0  0  0  0  0  0  0
   -6.1997   -0.4133   -1.6871 F   0  0  0  0  0  0  0  0  0  0  0  0
   -7.8296   -1.0158   -0.2173 F   0  0  0  0  0  0  0  0  0  0  0  0
   -8.2315    0.4555   -1.8188 F   0  0  0  0  0  0  0  0  0  0  0  0
   -8.4784    5.1857    2.5503 H   0  0  0  0  0  0  0  0  0  0  0  0
   -8.5210    6.4960    1.2626 H   0  0  0  0  0  0  0  0  0  0  0  0
   -6.9480    5.7140    1.7786 H   0  0  0  0  0  0  0  0  0  0  0  0
   -6.5713    3.9038    2.6264 H   0  0  0  0  0  0  0  0  0  0  0  0
   -5.3678    1.7446    2.8883 H   0  0  0  0  0  0  0  0  0  0  0  0
   -5.4274   -1.1068    0.5255 H   0  0  0  0  0  0  0  0  0  0  0  0
   -5.5883   -0.8910    2.2633 H   0  0  0  0  0  0  0  0  0  0  0  0
   -1.3680    0.8006    3.3938 H   0  0  0  0  0  0  0  0  0  0  0  0
    0.3467    0.7437    1.2178 H   0  0  0  0  0  0  0  0  0  0  0  0
    1.0377    0.8696   -2.2648 H   0  0  0  0  0  0  0  0  0  0  0  0
    5.6850   -1.4715   -2.0538 H   0  0  0  0  0  0  0  0  0  0  0  0
    5.4672   -3.0103   -1.1878 H   0  0  0  0  0  0  0  0  0  0  0  0
    6.0961   -0.2472    0.0462 H   0  0  0  0  0  0  0  0  0  0  0  0
    5.9793   -1.7513    0.9645 H   0  0  0  0  0  0  0  0  0  0  0  0
    8.7836   -2.9544    0.8667 H   0  0  0  0  0  0  0  0  0  0  0  0
    7.3444   -3.6715    0.1406 H   0  0  0  0  0  0  0  0  0  0  0  0
    9.8577   -3.8873   -0.9356 H   0  0  0  0  0  0  0  0  0  0  0  0
    8.4180   -3.7220   -2.0492 H   0  0  0  0  0  0  0  0  0  0  0  0
   10.3911   -1.6852   -0.9949 H   0  0  0  0  0  0  0  0  0  0  0  0
    9.7673   -1.8322   -2.7063 H   0  0  0  0  0  0  0  0  0  0  0  0
    7.7408   -0.6970   -2.1467 H   0  0  0  0  0  0  0  0  0  0  0  0
    8.8407   -0.0343   -0.8656 H   0  0  0  0  0  0  0  0  0  0  0  0
   -1.4473   -0.3320   -2.5008 H   0  0  0  0  0  0  0  0  0  0  0  0
   -3.5988   -0.5280   -1.2936 H   0  0  0  0  0  0  0  0  0  0  0  0
   -8.2424    2.4517   -0.9437 H   0  0  0  0  0  0  0  0  0  0  0  0
  1  2  1  0
  2  3  1  0
  3  4  2  0
  4  5  1  0
  5  6  2  0
  6  7  1  0
  7  8  1  0
  8  9  1  0
  9 10  2  0
 10 11  1  0
 11 12  2  0
 12 13  1  0
 13 14  1  0
 14 15  2  0
 15 16  1  0
 16 17  1  0
 17 18  2  0
 17 19  1  0
 19 20  1  0
 20 21  1  0
 21 22  1  0
 22 23  1  0
 23 24  1  0
 24 25  1  0
 25 26  1  0
 19 27  1  0
 27 28  2  0
 13 29  2  0
 29 30  1  0
 30 31  2  0
  6 32  1  0
 32 33  2  0
 32 34  1  0
 34 35  1  0
 34 36  1  0
 34 37  1  0
 33  3  1  0
 31  8  1  0
 31 11  1  0
 27 15  1  0
 26 22  1  0
  1 38  1  0
  1 39  1  0
  1 40  1  0
  4 41  1  0
  5 42  1  0
  7 43  1  0
  7 44  1  0
 10 45  1  0
 12 46  1  0
 14 47  1  0
 20 48  1  0
 20 49  1  0
 21 50  1  0
 21 51  1  0
 23 52  1  0
 23 53  1  0
 24 54  1  0
 24 55  1  0
 25 56  1  0
 25 57  1  0
 26 58  1  0
 26 59  1  0
 29 60  1  0
 30 61  1  0
 33 62  1  0
M  END
$$$$
[H]/C(=C1/SC(=O)N(C([H])([H])c2nnnn2[H])C1=O)c1c([H])c([H])c2c(c([H])nn2C([H])([H])c2c([H])c([H])c(Cl)c([H])c2C(F)(F)F)c1[H]
     RDKit          3D

 48 52  0  0  0  0  0  0  0  0999 V2000
   -7.0960    1.9750    1.5907 F   0  0  0  0  0  0  0  0  0  0  0  0
   -5.9569    1.1175    1.6253 C   0  0  0  0  0  0  0  0  0  0  0  0
   -6.0839    0.4057    2.7571 F   0  0  0  0  0  0  0  0  0  0  0  0
   -4.9663    2.1396    1.7035 F   0  0  0  0  0  0  0  0  0  0  0  0
   -5.8571    0.3982    0.3613 C   0  0  0  0  0  0  0  0  0  0  0  0
   -6.7049    0.8515   -0.6819 C   0  0  0  0  0  0  0  0  0  0  0  0
   -6.6814    0.2939   -1.9123 C   0  0  0  0  0  0  0  0  0  0  0  0
   -7.7660    0.9171   -3.1527 Cl  0  0  0  0  0  0  0  0  0  0  0  0
   -5.8204   -0.7312   -2.1567 C   0  0  0  0  0  0  0  0  0  0  0  0
   -5.0119   -1.1640   -1.1606 C   0  0  0  0  0  0  0  0  0  0  0  0
   -4.9894   -0.6255    0.1402 C   0  0  0  0  0  0  0  0  0  0  0  0
   -4.1071   -1.2315    1.0871 C   0  0  0  0  0  0  0  0  0  0  0  0
   -2.8382   -0.6797    1.4366 N   0  0  0  0  0  0  0  0  0  0  0  0
   -2.5385    0.0688    2.4620 N   0  0  0  0  0  0  0  0  0  0  0  0
   -1.2504    0.3765    2.5352 C   0  0  0  0  0  0  0  0  0  0  0  0
   -0.6491   -0.2247    1.4601 C   0  0  0  0  0  0  0  0  0  0  0  0
    0.6860   -0.2310    1.0570 C   0  0  0  0  0  0  0  0  0  0  0  0
    1.0482   -0.9207   -0.0716 C   0  0  0  0  0  0  0  0  0  0  0  0
    2.3964   -1.0064   -0.6161 C   0  0  0  0  0  0  0  0  0  0  0  0
    3.2489   -0.0230   -0.6887 C   0  0  0  0  0  0  0  0  0  0  0  0
    2.9292    1.6623   -0.1253 S   0  0  0  0  0  0  0  0  0  0  0  0
    4.6617    2.1356   -0.0707 C   0  0  0  0  0  0  0  0  0  0  0  0
    5.1456    3.1180    0.5471 O   0  0  0  0  0  0  0  0  0  0  0  0
    5.3255    1.1710   -0.8618 N   0  0  0  0  0  0  0  0  0  0  0  0
    6.7200    1.4110   -1.2824 C   0  0  0  0  0  0  0  0  0  0  0  0
    7.6604    0.8535   -0.2589 C   0  0  0  0  0  0  0  0  0  0  0  0
    8.1846    1.4255    0.8233 N   0  0  0  0  0  0  0  0  0  0  0  0
    8.9705    0.5548    1.4440 N   0  0  0  0  0  0  0  0  0  0  0  0
    8.9463   -0.5845    0.7487 N   0  0  0  0  0  0  0  0  0  0  0  0
    8.1520   -0.4210   -0.2938 N   0  0  0  0  0  0  0  0  0  0  0  0
    4.6122    0.0380   -1.1975 C   0  0  0  0  0  0  0  0  0  0  0  0
    5.0620   -0.9313   -1.9064 O   0  0  0  0  0  0  0  0  0  0  0  0
    0.0479   -1.5885   -0.7649 C   0  0  0  0  0  0  0  0  0  0  0  0
   -1.2820   -1.5795   -0.3595 C   0  0  0  0  0  0  0  0  0  0  0  0
   -1.6529   -0.8819    0.7820 C   0  0  0  0  0  0  0  0  0  0  0  0
   -7.3949    1.6671   -0.5033 H   0  0  0  0  0  0  0  0  0  0  0  0
   -5.7911   -1.1854   -3.1358 H   0  0  0  0  0  0  0  0  0  0  0  0
   -4.3440   -1.9843   -1.3861 H   0  0  0  0  0  0  0  0  0  0  0  0
   -3.8388   -2.3065    0.7714 H   0  0  0  0  0  0  0  0  0  0  0  0
   -4.6672   -1.5062    2.0692 H   0  0  0  0  0  0  0  0  0  0  0  0
   -0.7098    0.9788    3.2705 H   0  0  0  0  0  0  0  0  0  0  0  0
    1.4432    0.2920    1.6195 H   0  0  0  0  0  0  0  0  0  0  0  0
    2.7830   -1.9637   -1.0164 H   0  0  0  0  0  0  0  0  0  0  0  0
    6.8907    0.8813   -2.2430 H   0  0  0  0  0  0  0  0  0  0  0  0
    6.9137    2.4652   -1.4616 H   0  0  0  0  0  0  0  0  0  0  0  0
    7.9589   -1.1661   -1.0027 H   0  0  0  0  0  0  0  0  0  0  0  0
    0.2569   -2.1530   -1.6621 H   0  0  0  0  0  0  0  0  0  0  0  0
   -2.0454   -2.1085   -0.9069 H   0  0  0  0  0  0  0  0  0  0  0  0
  1  2  1  0
  2  3  1  0
  2  4  1  0
  2  5  1  0
  5  6  2  0
  6  7  1  0
  7  8  1  0
  7  9  2  0
  9 10  1  0
 10 11  2  0
 11 12  1  0
 12 13  1  0
 13 14  1  0
 14 15  2  0
 15 16  1  0
 16 17  2  0
 17 18  1  0
 18 19  1  0
 19 20  2  0
 20 21  1  0
 21 22  1  0
 22 23  2  0
 22 24  1  0
 24 25  1  0
 25 26  1  0
 26 27  2  0
 27 28  1  0
 28 29  2  0
 29 30  1  0
 24 31  1  0
 31 32  2  0
 18 33  2  0
 33 34  1  0
 34 35  2  0
 11  5  1  0
 35 13  1  0
 35 16  1  0
 31 20  1  0
 30 26  1  0
  6 36  1  0
  9 37  1  0
 10 38  1  0
 12 39  1  0
 12 40  1  0
 15 41  1  0
 17 42  1  0
 19 43  1  0
 25 44  1  0
 25 45  1  0
 30 46  1  0
 33 47  1  0
 34 48  1  0
M  END
$$$$
[H]OC1=NC(=O)C(=C([H])c2c([H])c([H])c(Oc3c([H])c([H])c(C(=O)OC([H])([H])[H])c(C(F)(F)F)c3[H])c(OC([H])([H])[H])c2[H])S1
     RDKit          3D

 45 47  0  0  0  0  0  0  0  0999 V2000
   -6.6286    3.3029    1.9847 C   0  0  0  0  0  0  0  0  0  0  0  0
   -5.6641    2.5945    1.2569 O   0  0  0  0  0  0  0  0  0  0  0  0
   -4.9226    1.5936    1.8021 C   0  0  0  0  0  0  0  0  0  0  0  0
   -5.2088    1.3771    3.0507 O   0  0  0  0  0  0  0  0  0  0  0  0
   -3.8994    0.7717    1.1977 C   0  0  0  0  0  0  0  0  0  0  0  0
   -3.2968   -0.2240    1.9823 C   0  0  0  0  0  0  0  0  0  0  0  0
   -2.3354   -1.0293    1.4615 C   0  0  0  0  0  0  0  0  0  0  0  0
   -1.9123   -0.9066    0.1519 C   0  0  0  0  0  0  0  0  0  0  0  0
   -0.9267   -1.7762   -0.2858 O   0  0  0  0  0  0  0  0  0  0  0  0
    0.4119   -1.5433   -0.2206 C   0  0  0  0  0  0  0  0  0  0  0  0
    0.9382   -0.3848    0.3018 C   0  0  0  0  0  0  0  0  0  0  0  0
    2.3108   -0.1708    0.3563 C   0  0  0  0  0  0  0  0  0  0  0  0
    3.1979   -1.1116   -0.1115 C   0  0  0  0  0  0  0  0  0  0  0  0
    4.6218   -0.9521   -0.1200 C   0  0  0  0  0  0  0  0  0  0  0  0
    5.3078    0.0237   -0.6475 C   0  0  0  0  0  0  0  0  0  0  0  0
    7.1325    0.1658   -0.6133 S   0  0  0  0  0  0  0  0  0  0  0  0
    7.2048    1.6769   -1.5493 C   0  0  0  0  0  0  0  0  0  0  0  0
    8.4041    2.3135   -1.8593 O   0  0  0  0  0  0  0  0  0  0  0  0
    6.0169    1.9928   -1.8321 N   0  0  0  0  0  0  0  0  0  0  0  0
    4.9697    1.2042   -1.4142 C   0  0  0  0  0  0  0  0  0  0  0  0
    3.7515    1.5102   -1.7002 O   0  0  0  0  0  0  0  0  0  0  0  0
    2.6492   -2.2881   -0.6405 C   0  0  0  0  0  0  0  0  0  0  0  0
    1.2937   -2.4948   -0.6922 C   0  0  0  0  0  0  0  0  0  0  0  0
    0.7406   -3.6505   -1.2126 O   0  0  0  0  0  0  0  0  0  0  0  0
    1.5059   -4.6973   -1.7308 C   0  0  0  0  0  0  0  0  0  0  0  0
   -2.4844    0.0537   -0.6251 C   0  0  0  0  0  0  0  0  0  0  0  0
   -3.4873    0.8988   -0.0934 C   0  0  0  0  0  0  0  0  0  0  0  0
   -4.0331    1.8987   -1.0247 C   0  0  0  0  0  0  0  0  0  0  0  0
   -3.3957    1.7766   -2.2865 F   0  0  0  0  0  0  0  0  0  0  0  0
   -5.3658    1.6455   -1.2424 F   0  0  0  0  0  0  0  0  0  0  0  0
   -3.8642    3.1948   -0.6081 F   0  0  0  0  0  0  0  0  0  0  0  0
   -7.6041    3.4119    1.4327 H   0  0  0  0  0  0  0  0  0  0  0  0
   -6.2358    4.3461    2.1177 H   0  0  0  0  0  0  0  0  0  0  0  0
   -6.8311    2.8721    2.9893 H   0  0  0  0  0  0  0  0  0  0  0  0
   -3.6422   -0.3094    3.0195 H   0  0  0  0  0  0  0  0  0  0  0  0
   -1.8918   -1.7896    2.0995 H   0  0  0  0  0  0  0  0  0  0  0  0
    0.2846    0.3971    0.6867 H   0  0  0  0  0  0  0  0  0  0  0  0
    2.7008    0.7452    0.7893 H   0  0  0  0  0  0  0  0  0  0  0  0
    5.2205   -1.7444    0.3757 H   0  0  0  0  0  0  0  0  0  0  0  0
    8.7517    3.1431   -1.4094 H   0  0  0  0  0  0  0  0  0  0  0  0
    3.3295   -3.0347   -1.0073 H   0  0  0  0  0  0  0  0  0  0  0  0
    0.9001   -5.2608   -2.4878 H   0  0  0  0  0  0  0  0  0  0  0  0
    1.7713   -5.4209   -0.9191 H   0  0  0  0  0  0  0  0  0  0  0  0
    2.3781   -4.2855   -2.2640 H   0  0  0  0  0  0  0  0  0  0  0  0
   -2.1635    0.1641   -1.6562 H   0  0  0  0  0  0  0  0  0  0  0  0
  1  2  1  0
  2  3  1  0
  3  4  2  0
  3  5  1  0
  5  6  2  0
  6  7  1  0
  7  8  2  0
  8  9  1  0
  9 10  1  0
 10 11  2  0
 11 12  1  0
 12 13  2  0
 13 14  1  0
 14 15  2  3
 15 16  1  0
 16 17  1  0
 17 18  1  0
 17 19  2  0
 19 20  1  0
 20 21  2  0
 13 22  1  0
 22 23  2  0
 23 24  1  0
 24 25  1  0
  8 26  1  0
 26 27  2  0
 27 28  1  0
 28 29  1  0
 28 30  1  0
 28 31  1  0
 27  5  1  0
 23 10  1  0
 20 15  1  0
  1 32  1  0
  1 33  1  0
  1 34  1  0
  6 35  1  0
  7 36  1  0
 11 37  1  0
 12 38  1  0
 14 39  1  0
 18 40  1  0
 22 41  1  0
 25 42  1  0
 25 43  1  0
 25 44  1  0
 26 45  1  0
M  END
$$$$
[H]/C(=C1/SC(=O)N(C([H])([H])[C@@]2([H])N(C([H])([H])[H])C([H])([H])C([H])([H])C2([H])[H])C1=O)c1c([H])c([H])c2c(c([H])nn2C([H])([H])c2c([H])c([H])c(Cl)c([H])c2C(F)(F)F)c1[H]
     RDKit          3D

 58 62  0  0  0  0  0  0  0  0999 V2000
   -5.6459    2.5275   -0.6766 C   0  0  0  0  0  0  0  0  0  0  0  0
   -5.8483    1.0733   -0.7380 N   0  0  0  0  0  0  0  0  0  0  0  0
   -6.8280    0.8144   -1.7464 C   0  0  0  0  0  0  0  0  0  0  0  0
   -7.7601   -0.2322   -1.1483 C   0  0  0  0  0  0  0  0  0  0  0  0
   -7.8014    0.2278    0.2968 C   0  0  0  0  0  0  0  0  0  0  0  0
   -6.3190    0.5688    0.5248 C   0  0  1  0  0  0  0  0  0  0  0  0
   -5.6860   -0.7089    0.9638 C   0  0  0  0  0  0  0  0  0  0  0  0
   -4.2253   -0.6044    1.1207 N   0  0  0  0  0  0  0  0  0  0  0  0
   -3.6528   -0.2274    2.3447 C   0  0  0  0  0  0  0  0  0  0  0  0
   -4.1870    0.2546    3.3711 O   0  0  0  0  0  0  0  0  0  0  0  0
   -1.9064   -0.5774    2.1798 S   0  0  0  0  0  0  0  0  0  0  0  0
   -1.9347   -0.7279    0.3897 C   0  0  0  0  0  0  0  0  0  0  0  0
   -0.8518   -0.6972   -0.3422 C   0  0  0  0  0  0  0  0  0  0  0  0
    0.5048   -0.5412    0.1563 C   0  0  0  0  0  0  0  0  0  0  0  0
    1.4734   -1.3506   -0.4193 C   0  0  0  0  0  0  0  0  0  0  0  0
    2.7930   -1.2788   -0.0231 C   0  0  0  0  0  0  0  0  0  0  0  0
    3.1957   -0.4027    0.9561 C   0  0  0  0  0  0  0  0  0  0  0  0
    4.3947   -0.1521    1.5087 N   0  0  0  0  0  0  0  0  0  0  0  0
    5.6093   -0.8263    1.1412 C   0  0  0  0  0  0  0  0  0  0  0  0
    6.3772   -0.1859    0.0676 C   0  0  0  0  0  0  0  0  0  0  0  0
    5.9740    0.9932   -0.5014 C   0  0  0  0  0  0  0  0  0  0  0  0
    6.7264    1.5758   -1.4933 C   0  0  0  0  0  0  0  0  0  0  0  0
    7.8937    1.0160   -1.9526 C   0  0  0  0  0  0  0  0  0  0  0  0
    8.8773    1.7470   -3.2241 Cl  0  0  0  0  0  0  0  0  0  0  0  0
    8.2820   -0.1701   -1.3685 C   0  0  0  0  0  0  0  0  0  0  0  0
    7.5530   -0.7887   -0.3673 C   0  0  0  0  0  0  0  0  0  0  0  0
    8.0599   -2.0627    0.1853 C   0  0  0  0  0  0  0  0  0  0  0  0
    9.2584   -2.3822   -0.4595 F   0  0  0  0  0  0  0  0  0  0  0  0
    7.2259   -3.1401   -0.0631 F   0  0  0  0  0  0  0  0  0  0  0  0
    8.3722   -1.9131    1.5136 F   0  0  0  0  0  0  0  0  0  0  0  0
    4.2066    0.7967    2.4188 N   0  0  0  0  0  0  0  0  0  0  0  0
    2.9136    1.1612    2.4626 C   0  0  0  0  0  0  0  0  0  0  0  0
    2.2440    0.4087    1.5369 C   0  0  0  0  0  0  0  0  0  0  0  0
    0.9189    0.3179    1.1204 C   0  0  0  0  0  0  0  0  0  0  0  0
   -3.3425   -0.8750    0.0702 C   0  0  0  0  0  0  0  0  0  0  0  0
   -3.6991   -1.2319   -1.1151 O   0  0  0  0  0  0  0  0  0  0  0  0
   -5.9010    2.8642    0.3646 H   0  0  0  0  0  0  0  0  0  0  0  0
   -6.3696    3.0650   -1.3280 H   0  0  0  0  0  0  0  0  0  0  0  0
   -4.6377    2.8262   -0.9753 H   0  0  0  0  0  0  0  0  0  0  0  0
   -7.4628    1.7215   -1.8630 H   0  0  0  0  0  0  0  0  0  0  0  0
   -6.3944    0.4865   -2.7123 H   0  0  0  0  0  0  0  0  0  0  0  0
   -8.7655   -0.2181   -1.6188 H   0  0  0  0  0  0  0  0  0  0  0  0
   -7.2867   -1.2252   -1.2565 H   0  0  0  0  0  0  0  0  0  0  0  0
   -8.1334   -0.5964    0.9410 H   0  0  0  0  0  0  0  0  0  0  0  0
   -8.4427    1.1195    0.3578 H   0  0  0  0  0  0  0  0  0  0  0  0
   -6.3058    1.3703    1.2735 H   0  0  0  0  0  0  0  0  0  0  0  0
   -5.9274   -1.5047    0.2298 H   0  0  0  0  0  0  0  0  0  0  0  0
   -6.1597   -1.0133    1.9145 H   0  0  0  0  0  0  0  0  0  0  0  0
   -1.0043   -0.7999   -1.4312 H   0  0  0  0  0  0  0  0  0  0  0  0
    1.2360   -2.0655   -1.1973 H   0  0  0  0  0  0  0  0  0  0  0  0
    3.5275   -1.9364   -0.5040 H   0  0  0  0  0  0  0  0  0  0  0  0
    5.3393   -1.8501    0.8342 H   0  0  0  0  0  0  0  0  0  0  0  0
    6.2345   -0.8440    2.0867 H   0  0  0  0  0  0  0  0  0  0  0  0
    5.0373    1.4564   -0.1434 H   0  0  0  0  0  0  0  0  0  0  0  0
    6.3943    2.5072   -1.9314 H   0  0  0  0  0  0  0  0  0  0  0  0
    9.2175   -0.6412   -1.7197 H   0  0  0  0  0  0  0  0  0  0  0  0
    2.4419    1.9063    3.0966 H   0  0  0  0  0  0  0  0  0  0  0  0
    0.1972    0.9654    1.5841 H   0  0  0  0  0  0  0  0  0  0  0  0
  1  2  1  0
  2  3  1  0
  3  4  1  0
  4  5  1  0
  5  6  1  0
  6  7  1  0
  7  8  1  0
  8  9  1  0
  9 10  2  0
  9 11  1  0
 11 12  1  0
 12 13  2  0
 13 14  1  0
 14 15  2  0
 15 16  1  0
 16 17  2  0
 17 18  1  0
 18 19  1  0
 19 20  1  0
 20 21  2  0
 21 22  1  0
 22 23  2  0
 23 24  1  0
 23 25  1  0
 25 26  2  0
 26 27  1  0
 27 28  1  0
 27 29  1  0
 27 30  1  0
 18 31  1  0
 31 32  2  0
 32 33  1  0
 33 34  2  0
 12 35  1  0
 35 36  2  0
  6  2  1  0
 35  8  1  0
 34 14  1  0
 33 17  1  0
 26 20  1  0
  1 37  1  0
  1 38  1  0
  1 39  1  0
  3 40  1  0
  3 41  1  0
  4 42  1  0
  4 43  1  0
  5 44  1  0
  5 45  1  0
  6 46  1  1
  7 47  1  0
  7 48  1  0
 13 49  1  0
 15 50  1  0
 16 51  1  0
 19 52  1  0
 19 53  1  0
 21 54  1  0
 22 55  1  0
 25 56  1  0
 32 57  1  0
 34 58  1  0
M  END
$$$$
[H]c1c([H])c([H])c(N([H])[H])c(C(=O)c2nnn(-c3c([H])c([H])c([H])c(C(C([H])([H])[H])(C([H])([H])[H])C([H])([H])[H])c3[H])c2[H])c1[H]
     RDKit          3D

 44 46  0  0  0  0  0  0  0  0999 V2000
   -5.2827   -1.0150   -0.7576 C   0  0  0  0  0  0  0  0  0  0  0  0
   -4.8269   -0.1904    0.4374 C   0  0  0  0  0  0  0  0  0  0  0  0
   -4.6281   -1.1223    1.5924 C   0  0  0  0  0  0  0  0  0  0  0  0
   -5.9209    0.8146    0.7143 C   0  0  0  0  0  0  0  0  0  0  0  0
   -3.6255    0.5340    0.0297 C   0  0  0  0  0  0  0  0  0  0  0  0
   -3.7635    1.5339   -0.9115 C   0  0  0  0  0  0  0  0  0  0  0  0
   -2.6774    2.2374   -1.3967 C   0  0  0  0  0  0  0  0  0  0  0  0
   -1.3926    1.9311   -0.9213 C   0  0  0  0  0  0  0  0  0  0  0  0
   -1.2398    0.9330    0.0238 C   0  0  0  0  0  0  0  0  0  0  0  0
   -2.3541    0.2775    0.4626 C   0  0  0  0  0  0  0  0  0  0  0  0
    0.0709    0.5306    0.4782 N   0  0  0  0  0  0  0  0  0  0  0  0
    1.0948    0.3155   -0.3825 C   0  0  0  0  0  0  0  0  0  0  0  0
    2.2317   -0.1215    0.3196 C   0  0  0  0  0  0  0  0  0  0  0  0
    1.8199   -0.1462    1.6172 N   0  0  0  0  0  0  0  0  0  0  0  0
    0.5350    0.2494    1.6420 N   0  0  0  0  0  0  0  0  0  0  0  0
    3.4799   -0.4888   -0.3065 C   0  0  0  0  0  0  0  0  0  0  0  0
    3.3326   -0.9875   -1.5177 O   0  0  0  0  0  0  0  0  0  0  0  0
    4.8044   -0.4330    0.1510 C   0  0  0  0  0  0  0  0  0  0  0  0
    5.2031    0.2012    1.2970 C   0  0  0  0  0  0  0  0  0  0  0  0
    6.5238    0.3077    1.7139 C   0  0  0  0  0  0  0  0  0  0  0  0
    7.5220   -0.2505    0.9493 C   0  0  0  0  0  0  0  0  0  0  0  0
    7.1627   -0.9031   -0.2228 C   0  0  0  0  0  0  0  0  0  0  0  0
    5.8367   -0.9981   -0.6190 C   0  0  0  0  0  0  0  0  0  0  0  0
    5.5562   -1.7383   -1.7949 N   0  0  0  0  0  0  0  0  0  0  0  0
   -5.3364   -2.0805   -0.5180 H   0  0  0  0  0  0  0  0  0  0  0  0
   -6.2801   -0.6864   -1.1347 H   0  0  0  0  0  0  0  0  0  0  0  0
   -4.5797   -0.9118   -1.5922 H   0  0  0  0  0  0  0  0  0  0  0  0
   -4.3681   -2.1432    1.1766 H   0  0  0  0  0  0  0  0  0  0  0  0
   -5.6292   -1.2800    2.0693 H   0  0  0  0  0  0  0  0  0  0  0  0
   -3.9508   -0.8043    2.3708 H   0  0  0  0  0  0  0  0  0  0  0  0
   -5.5899    1.7606    1.1550 H   0  0  0  0  0  0  0  0  0  0  0  0
   -6.7611    0.3957    1.3449 H   0  0  0  0  0  0  0  0  0  0  0  0
   -6.4284    1.1122   -0.2585 H   0  0  0  0  0  0  0  0  0  0  0  0
   -4.7298    1.8304   -1.3459 H   0  0  0  0  0  0  0  0  0  0  0  0
   -2.8126    3.0156   -2.1456 H   0  0  0  0  0  0  0  0  0  0  0  0
   -0.5257    2.4611   -1.2818 H   0  0  0  0  0  0  0  0  0  0  0  0
   -2.2399   -0.5028    1.1914 H   0  0  0  0  0  0  0  0  0  0  0  0
    1.0714    0.4489   -1.4633 H   0  0  0  0  0  0  0  0  0  0  0  0
    4.4571    0.6841    1.9576 H   0  0  0  0  0  0  0  0  0  0  0  0
    6.8097    0.8141    2.6385 H   0  0  0  0  0  0  0  0  0  0  0  0
    8.5866   -0.2035    1.2264 H   0  0  0  0  0  0  0  0  0  0  0  0
    7.9448   -1.3451   -0.8370 H   0  0  0  0  0  0  0  0  0  0  0  0
    5.8172   -1.3763   -2.7228 H   0  0  0  0  0  0  0  0  0  0  0  0
    5.0827   -2.6601   -1.6589 H   0  0  0  0  0  0  0  0  0  0  0  0
  1  2  1  0
  2  3  1  0
  2  4  1  0
  2  5  1  0
  5  6  2  0
  6  7  1  0
  7  8  2  0
  8  9  1  0
  9 10  2  0
  9 11  1  0
 11 12  1  0
 12 13  2  0
 13 14  1  0
 14 15  2  0
 13 16  1  0
 16 17  2  0
 16 18  1  0
 18 19  2  0
 19 20  1  0
 20 21  2  0
 21 22  1  0
 22 23  2  0
 23 24  1  0
 10  5  1  0
 15 11  1  0
 23 18  1  0
  1 25  1  0
  1 26  1  0
  1 27  1  0
  3 28  1  0
  3 29  1  0
  3 30  1  0
  4 31  1  0
  4 32  1  0
  4 33  1  0
  6 34  1  0
  7 35  1  0
  8 36  1  0
 10 37  1  0
 12 38  1  0
 19 39  1  0
 20 40  1  0
 21 41  1  0
 22 42  1  0
 24 43  1  0
 24 44  1  0
M  END
$$$$
[H]OC([H])([H])[C@]([H])(N([H])[H])C([H])([H])N1C(=O)S/C(=C(/[H])c2c([H])c([H])c3c(c([H])nn3C([H])([H])c3c([H])c([H])c(Cl)c([H])c3C(F)(F)F)c2[H])C1=O
     RDKit          3D

 52 55  0  0  0  0  0  0  0  0999 V2000
   -6.7843    1.1798   -0.4362 N   0  0  0  0  0  0  0  0  0  0  0  0
   -7.0093   -0.1528    0.0600 C   0  0  1  0  0  0  0  0  0  0  0  0
   -8.4664   -0.5184    0.0016 C   0  0  0  0  0  0  0  0  0  0  0  0
   -8.9945   -0.4698   -1.2669 O   0  0  0  0  0  0  0  0  0  0  0  0
   -6.1788   -1.1554   -0.6895 C   0  0  0  0  0  0  0  0  0  0  0  0
   -4.7459   -0.9021   -0.5435 N   0  0  0  0  0  0  0  0  0  0  0  0
   -4.0523   -1.4998    0.5662 C   0  0  0  0  0  0  0  0  0  0  0  0
   -4.3278   -2.4806    1.2750 O   0  0  0  0  0  0  0  0  0  0  0  0
   -2.5946   -0.4806    0.7460 S   0  0  0  0  0  0  0  0  0  0  0  0
   -2.5482   -0.0296   -1.0144 C   0  0  0  0  0  0  0  0  0  0  0  0
   -1.4837    0.2763   -1.6907 C   0  0  0  0  0  0  0  0  0  0  0  0
   -0.2017    0.2601   -0.9880 C   0  0  0  0  0  0  0  0  0  0  0  0
    0.6899    1.3033   -1.0111 C   0  0  0  0  0  0  0  0  0  0  0  0
    1.8770    1.2439   -0.3099 C   0  0  0  0  0  0  0  0  0  0  0  0
    2.2475    0.1604    0.4489 C   0  0  0  0  0  0  0  0  0  0  0  0
    3.3208   -0.1483    1.2540 N   0  0  0  0  0  0  0  0  0  0  0  0
    4.4244    0.7578    1.4707 C   0  0  0  0  0  0  0  0  0  0  0  0
    5.6043    0.5659    0.6497 C   0  0  0  0  0  0  0  0  0  0  0  0
    5.5701    1.1051   -0.6547 C   0  0  0  0  0  0  0  0  0  0  0  0
    6.6477    0.9065   -1.4895 C   0  0  0  0  0  0  0  0  0  0  0  0
    7.7587    0.1962   -1.0812 C   0  0  0  0  0  0  0  0  0  0  0  0
    9.0966   -0.0143   -2.1963 Cl  0  0  0  0  0  0  0  0  0  0  0  0
    7.8105   -0.3348    0.1863 C   0  0  0  0  0  0  0  0  0  0  0  0
    6.7050   -0.1349    1.0521 C   0  0  0  0  0  0  0  0  0  0  0  0
    6.8675   -0.6215    2.4242 C   0  0  0  0  0  0  0  0  0  0  0  0
    8.1530   -1.2350    2.5477 F   0  0  0  0  0  0  0  0  0  0  0  0
    6.0307   -1.5579    2.9017 F   0  0  0  0  0  0  0  0  0  0  0  0
    6.9687    0.4455    3.3395 F   0  0  0  0  0  0  0  0  0  0  0  0
    3.0763   -1.3441    1.7397 N   0  0  0  0  0  0  0  0  0  0  0  0
    1.9060   -1.8310    1.2992 C   0  0  0  0  0  0  0  0  0  0  0  0
    1.3427   -0.8944    0.4684 C   0  0  0  0  0  0  0  0  0  0  0  0
    0.1547   -0.8392   -0.2333 C   0  0  0  0  0  0  0  0  0  0  0  0
   -3.9457   -0.1244   -1.3800 C   0  0  0  0  0  0  0  0  0  0  0  0
   -4.4033    0.4844   -2.4227 O   0  0  0  0  0  0  0  0  0  0  0  0
   -7.0445    1.2472   -1.4637 H   0  0  0  0  0  0  0  0  0  0  0  0
   -7.5054    1.7847    0.0426 H   0  0  0  0  0  0  0  0  0  0  0  0
   -6.7006   -0.1150    1.1478 H   0  0  0  0  0  0  0  0  0  0  0  0
   -9.0426    0.0758    0.7594 H   0  0  0  0  0  0  0  0  0  0  0  0
   -8.5677   -1.5981    0.3331 H   0  0  0  0  0  0  0  0  0  0  0  0
   -9.9679   -0.5342   -1.2809 H   0  0  0  0  0  0  0  0  0  0  0  0
   -6.4612   -1.1452   -1.7716 H   0  0  0  0  0  0  0  0  0  0  0  0
   -6.3650   -2.1924   -0.3548 H   0  0  0  0  0  0  0  0  0  0  0  0
   -1.5545    0.5295   -2.7367 H   0  0  0  0  0  0  0  0  0  0  0  0
    0.4403    2.2027   -1.6019 H   0  0  0  0  0  0  0  0  0  0  0  0
    2.5158    2.1073   -0.3743 H   0  0  0  0  0  0  0  0  0  0  0  0
    4.0346    1.8115    1.2516 H   0  0  0  0  0  0  0  0  0  0  0  0
    4.6588    0.8257    2.5710 H   0  0  0  0  0  0  0  0  0  0  0  0
    4.7356    1.6808   -1.0016 H   0  0  0  0  0  0  0  0  0  0  0  0
    6.5929    1.3389   -2.4933 H   0  0  0  0  0  0  0  0  0  0  0  0
    8.6678   -0.9057    0.5303 H   0  0  0  0  0  0  0  0  0  0  0  0
    1.5139   -2.8030    1.5764 H   0  0  0  0  0  0  0  0  0  0  0  0
   -0.4661   -1.7221   -0.1563 H   0  0  0  0  0  0  0  0  0  0  0  0
  1  2  1  0
  2  3  1  0
  3  4  1  0
  2  5  1  0
  5  6  1  0
  6  7  1  0
  7  8  2  0
  7  9  1  0
  9 10  1  0
 10 11  2  0
 11 12  1  0
 12 13  2  0
 13 14  1  0
 14 15  2  0
 15 16  1  0
 16 17  1  0
 17 18  1  0
 18 19  2  0
 19 20  1  0
 20 21  2  0
 21 22  1  0
 21 23  1  0
 23 24  2  0
 24 25  1  0
 25 26  1  0
 25 27  1  0
 25 28  1  0
 16 29  1  0
 29 30  2  0
 30 31  1  0
 31 32  2  0
 10 33  1  0
 33 34  2  0
 33  6  1  0
 32 12  1  0
 31 15  1  0
 24 18  1  0
  1 35  1  0
  1 36  1  0
  2 37  1  1
  3 38  1  0
  3 39  1  0
  4 40  1  0
  5 41  1  0
  5 42  1  0
 11 43  1  0
 13 44  1  0
 14 45  1  0
 17 46  1  0
 17 47  1  0
 19 48  1  0
 20 49  1  0
 23 50  1  0
 30 51  1  0
 32 52  1  0
M  END
$$$$
[H]/C(=C1/SC(=O)N(C2([H])C([H])([H])C([H])([H])N([H])C([H])([H])C2([H])[H])C1=O)c1c([H])c([H])c2c(c([H])nn2C([H])([H])c2c([H])c([H])c(Cl)c([H])c2C(F)(F)F)c1[H]
     RDKit          3D

 55 59  0  0  0  0  0  0  0  0999 V2000
    6.8463    2.6814   -1.8608 F   0  0  0  0  0  0  0  0  0  0  0  0
    6.0110    1.9457   -0.9629 C   0  0  0  0  0  0  0  0  0  0  0  0
    5.8490    2.7481    0.1047 F   0  0  0  0  0  0  0  0  0  0  0  0
    4.8893    1.7726   -1.7729 F   0  0  0  0  0  0  0  0  0  0  0  0
    6.7067    0.6598   -0.7330 C   0  0  0  0  0  0  0  0  0  0  0  0
    7.7876    0.3309   -1.5939 C   0  0  0  0  0  0  0  0  0  0  0  0
    8.4785   -0.8497   -1.4999 C   0  0  0  0  0  0  0  0  0  0  0  0
    9.8055   -1.2184   -2.5776 Cl  0  0  0  0  0  0  0  0  0  0  0  0
    8.0782   -1.7298   -0.5149 C   0  0  0  0  0  0  0  0  0  0  0  0
    7.0561   -1.4547    0.3243 C   0  0  0  0  0  0  0  0  0  0  0  0
    6.3246   -0.2171    0.2330 C   0  0  0  0  0  0  0  0  0  0  0  0
    5.2642   -0.0632    1.2130 C   0  0  0  0  0  0  0  0  0  0  0  0
    3.9671   -0.5581    0.8490 N   0  0  0  0  0  0  0  0  0  0  0  0
    3.7766   -1.9090    0.7455 N   0  0  0  0  0  0  0  0  0  0  0  0
    2.5434   -2.1800    0.3544 C   0  0  0  0  0  0  0  0  0  0  0  0
    1.9032   -0.9749    0.1977 C   0  0  0  0  0  0  0  0  0  0  0  0
    0.5937   -0.6324   -0.1594 C   0  0  0  0  0  0  0  0  0  0  0  0
    0.1930    0.6814   -0.2003 C   0  0  0  0  0  0  0  0  0  0  0  0
   -1.1837    1.0040   -0.5238 C   0  0  0  0  0  0  0  0  0  0  0  0
   -2.2151    0.4299    0.0420 C   0  0  0  0  0  0  0  0  0  0  0  0
   -2.0360   -0.8383    1.3112 S   0  0  0  0  0  0  0  0  0  0  0  0
   -3.7283   -1.4091    1.2126 C   0  0  0  0  0  0  0  0  0  0  0  0
   -4.1684   -2.4905    1.6883 O   0  0  0  0  0  0  0  0  0  0  0  0
   -4.4284   -0.3958    0.5013 N   0  0  0  0  0  0  0  0  0  0  0  0
   -5.9045   -0.3964    0.4476 C   0  0  0  0  0  0  0  0  0  0  0  0
   -6.3868   -0.6433   -0.9910 C   0  0  0  0  0  0  0  0  0  0  0  0
   -7.8733   -0.9932   -0.8210 C   0  0  0  0  0  0  0  0  0  0  0  0
   -8.5745    0.0858   -0.1894 N   0  0  0  0  0  0  0  0  0  0  0  0
   -7.7807    1.2236    0.1539 C   0  0  0  0  0  0  0  0  0  0  0  0
   -6.5229    0.8641    0.9323 C   0  0  0  0  0  0  0  0  0  0  0  0
   -3.6423    0.5698   -0.1148 C   0  0  0  0  0  0  0  0  0  0  0  0
   -4.1043    1.5601   -0.8024 O   0  0  0  0  0  0  0  0  0  0  0  0
    1.0980    1.6616    0.1137 C   0  0  0  0  0  0  0  0  0  0  0  0
    2.3834    1.3191    0.4625 C   0  0  0  0  0  0  0  0  0  0  0  0
    2.8133   -0.0135    0.5108 C   0  0  0  0  0  0  0  0  0  0  0  0
    8.0647    1.0562   -2.3578 H   0  0  0  0  0  0  0  0  0  0  0  0
    8.6539   -2.6678   -0.4700 H   0  0  0  0  0  0  0  0  0  0  0  0
    6.7479   -2.1497    1.0944 H   0  0  0  0  0  0  0  0  0  0  0  0
    5.1929    0.9850    1.6220 H   0  0  0  0  0  0  0  0  0  0  0  0
    5.5474   -0.6549    2.1442 H   0  0  0  0  0  0  0  0  0  0  0  0
    2.0514   -3.1317    0.1651 H   0  0  0  0  0  0  0  0  0  0  0  0
   -0.0743   -1.4403   -0.4057 H   0  0  0  0  0  0  0  0  0  0  0  0
   -1.3725    1.7681   -1.2866 H   0  0  0  0  0  0  0  0  0  0  0  0
   -6.3225   -1.2500    1.0160 H   0  0  0  0  0  0  0  0  0  0  0  0
   -5.8631   -1.5588   -1.3302 H   0  0  0  0  0  0  0  0  0  0  0  0
   -6.2441    0.2407   -1.6280 H   0  0  0  0  0  0  0  0  0  0  0  0
   -7.8577   -1.8372   -0.0659 H   0  0  0  0  0  0  0  0  0  0  0  0
   -8.3245   -1.3774   -1.7466 H   0  0  0  0  0  0  0  0  0  0  0  0
   -9.3349    0.3987   -0.8381 H   0  0  0  0  0  0  0  0  0  0  0  0
   -8.3979    1.8741    0.8087 H   0  0  0  0  0  0  0  0  0  0  0  0
   -7.5620    1.8088   -0.7478 H   0  0  0  0  0  0  0  0  0  0  0  0
   -5.8698    1.7544    0.8584 H   0  0  0  0  0  0  0  0  0  0  0  0
   -6.8155    0.8180    2.0006 H   0  0  0  0  0  0  0  0  0  0  0  0
    0.8389    2.7269    0.0987 H   0  0  0  0  0  0  0  0  0  0  0  0
    3.1222    2.0663    0.7213 H   0  0  0  0  0  0  0  0  0  0  0  0
  1  2  1  0
  2  3  1  0
  2  4  1  0
  2  5  1  0
  5  6  2  0
  6  7  1  0
  7  8  1  0
  7  9  2  0
  9 10  1  0
 10 11  2  0
 11 12  1  0
 12 13  1  0
 13 14  1  0
 14 15  2  0
 15 16  1  0
 16 17  2  0
 17 18  1  0
 18 19  1  0
 19 20  2  0
 20 21  1  0
 21 22  1  0
 22 23  2  0
 22 24  1  0
 24 25  1  0
 25 26  1  0
 26 27  1  0
 27 28  1  0
 28 29  1  0
 29 30  1  0
 24 31  1  0
 31 32  2  0
 18 33  2  0
 33 34  1  0
 34 35  2  0
 11  5  1  0
 35 13  1  0
 35 16  1  0
 31 20  1  0
 30 25  1  0
  6 36  1  0
  9 37  1  0
 10 38  1  0
 12 39  1  0
 12 40  1  0
 15 41  1  0
 17 42  1  0
 19 43  1  0
 25 44  1  0
 26 45  1  0
 26 46  1  0
 27 47  1  0
 27 48  1  0
 28 49  1  0
 29 50  1  0
 29 51  1  0
 30 52  1  0
 30 53  1  0
 33 54  1  0
 34 55  1  0
M  END
$$$$
