[H]c1nc(N2C([H])([H])C([H])([H])c3nc(N4C([H])([H])C([H])([H])OC([H])([H])C4([H])[H])nc(N([H])c4c([H])c([H])c(C(F)(F)F)c([H])c4[H])c3C([H])([H])C2([H])[H])c(C(F)(F)F)c([H])c1[H]
     RDKit          3D

 62 66  0  0  0  0  0  0  0  0999 V2000
   -3.9360    7.3904   -0.3998 F   0  0  0  0  0  0  0  0  0  0  0  0
   -2.6402    7.2533   -0.1009 C   0  0  0  0  0  0  0  0  0  0  0  0
   -1.8846    7.7670   -1.1430 F   0  0  0  0  0  0  0  0  0  0  0  0
   -2.2922    8.0051    1.0414 F   0  0  0  0  0  0  0  0  0  0  0  0
   -2.1658    5.8293    0.0694 C   0  0  0  0  0  0  0  0  0  0  0  0
   -3.0192    4.7626    0.1176 C   0  0  0  0  0  0  0  0  0  0  0  0
   -2.4747    3.4702    0.2875 C   0  0  0  0  0  0  0  0  0  0  0  0
   -1.1183    3.2982    0.4043 C   0  0  0  0  0  0  0  0  0  0  0  0
   -0.5086    2.0656    0.5315 N   0  0  0  0  0  0  0  0  0  0  0  0
   -0.8426    0.7111    0.3484 C   0  0  0  0  0  0  0  0  0  0  0  0
   -2.0826    0.1836    0.2748 N   0  0  0  0  0  0  0  0  0  0  0  0
   -2.2956   -1.1509    0.2410 C   0  0  0  0  0  0  0  0  0  0  0  0
   -1.2622   -2.0202    0.2796 N   0  0  0  0  0  0  0  0  0  0  0  0
    0.0239   -1.5795    0.3528 C   0  0  0  0  0  0  0  0  0  0  0  0
    1.0013   -2.6804    0.4565 C   0  0  0  0  0  0  0  0  0  0  0  0
    2.1347   -2.6597   -0.5014 C   0  0  0  0  0  0  0  0  0  0  0  0
    2.8449   -1.4660   -0.6953 N   0  0  0  0  0  0  0  0  0  0  0  0
    2.3893   -0.1193   -0.7898 C   0  0  0  0  0  0  0  0  0  0  0  0
    1.5182    0.4449    0.2828 C   0  0  0  0  0  0  0  0  0  0  0  0
    0.1929   -0.2256    0.3798 C   0  0  0  0  0  0  0  0  0  0  0  0
    4.2360   -1.5513   -0.9579 C   0  0  0  0  0  0  0  0  0  0  0  0
    4.5287   -1.4200   -2.3263 N   0  0  0  0  0  0  0  0  0  0  0  0
    5.7505   -1.4832   -2.7894 C   0  0  0  0  0  0  0  0  0  0  0  0
    6.8351   -1.6759   -1.9820 C   0  0  0  0  0  0  0  0  0  0  0  0
    6.5887   -1.8077   -0.6352 C   0  0  0  0  0  0  0  0  0  0  0  0
    5.2735   -1.7417   -0.1384 C   0  0  0  0  0  0  0  0  0  0  0  0
    5.0514   -1.8372    1.3386 C   0  0  0  0  0  0  0  0  0  0  0  0
    4.4421   -0.7514    1.8822 F   0  0  0  0  0  0  0  0  0  0  0  0
    6.3702   -1.8230    1.9099 F   0  0  0  0  0  0  0  0  0  0  0  0
    4.5216   -3.0367    1.7358 F   0  0  0  0  0  0  0  0  0  0  0  0
   -3.5633   -1.7597    0.1808 N   0  0  0  0  0  0  0  0  0  0  0  0
   -4.5908   -1.7584    1.2000 C   0  0  0  0  0  0  0  0  0  0  0  0
   -4.9246   -3.2022    1.5772 C   0  0  0  0  0  0  0  0  0  0  0  0
   -4.9813   -4.0524    0.4920 O   0  0  0  0  0  0  0  0  0  0  0  0
   -5.1231   -3.3475   -0.6899 C   0  0  0  0  0  0  0  0  0  0  0  0
   -3.9327   -2.4776   -1.0408 C   0  0  0  0  0  0  0  0  0  0  0  0
   -0.2952    4.4214    0.3487 C   0  0  0  0  0  0  0  0  0  0  0  0
   -0.8188    5.6573    0.1849 C   0  0  0  0  0  0  0  0  0  0  0  0
   -4.0646    4.9312    0.0345 H   0  0  0  0  0  0  0  0  0  0  0  0
   -3.1972    2.6707    0.2976 H   0  0  0  0  0  0  0  0  0  0  0  0
    0.4951    2.1671    0.9914 H   0  0  0  0  0  0  0  0  0  0  0  0
    0.4292   -3.6446    0.2300 H   0  0  0  0  0  0  0  0  0  0  0  0
    1.3430   -2.7147    1.5154 H   0  0  0  0  0  0  0  0  0  0  0  0
    1.6739   -2.9953   -1.5052 H   0  0  0  0  0  0  0  0  0  0  0  0
    2.7597   -3.5707   -0.2691 H   0  0  0  0  0  0  0  0  0  0  0  0
    1.7915   -0.0243   -1.7549 H   0  0  0  0  0  0  0  0  0  0  0  0
    3.2459    0.6155   -0.8986 H   0  0  0  0  0  0  0  0  0  0  0  0
    1.2818    1.4826   -0.2109 H   0  0  0  0  0  0  0  0  0  0  0  0
    1.9802    0.6752    1.2418 H   0  0  0  0  0  0  0  0  0  0  0  0
    5.9539   -1.3821   -3.8571 H   0  0  0  0  0  0  0  0  0  0  0  0
    7.8410   -1.7330   -2.3640 H   0  0  0  0  0  0  0  0  0  0  0  0
    7.3753   -1.9810    0.0788 H   0  0  0  0  0  0  0  0  0  0  0  0
   -5.5123   -1.2902    0.7853 H   0  0  0  0  0  0  0  0  0  0  0  0
   -4.2015   -1.2638    2.0936 H   0  0  0  0  0  0  0  0  0  0  0  0
   -5.8841   -3.2116    2.1245 H   0  0  0  0  0  0  0  0  0  0  0  0
   -4.0971   -3.5095    2.2724 H   0  0  0  0  0  0  0  0  0  0  0  0
   -6.0544   -2.7634   -0.6838 H   0  0  0  0  0  0  0  0  0  0  0  0
   -5.2035   -4.0933   -1.5009 H   0  0  0  0  0  0  0  0  0  0  0  0
   -4.3031   -1.7412   -1.7916 H   0  0  0  0  0  0  0  0  0  0  0  0
   -3.1684   -3.1230   -1.4301 H   0  0  0  0  0  0  0  0  0  0  0  0
    0.7628    4.3058    0.4152 H   0  0  0  0  0  0  0  0  0  0  0  0
   -0.1975    6.5613    0.1262 H   0  0  0  0  0  0  0  0  0  0  0  0
  1  2  1  0
  2  3  1  0
  2  4  1  0
  2  5  1  0
  5  6  2  0
  6  7  1  0
  7  8  2  0
  8  9  1  0
  9 10  1  0
 10 11  2  0
 11 12  1  0
 12 13  2  0
 13 14  1  0
 14 15  1  0
 15 16  1  0
 16 17  1  0
 17 18  1  0
 18 19  1  0
 19 20  1  0
 17 21  1  0
 21 22  2  0
 22 23  1  0
 23 24  2  0
 24 25  1  0
 25 26  2  0
 26 27  1  0
 27 28  1  0
 27 29  1  0
 27 30  1  0
 12 31  1  0
 31 32  1  0
 32 33  1  0
 33 34  1  0
 34 35  1  0
 35 36  1  0
  8 37  1  0
 37 38  2  0
 38  5  1  0
 20 10  1  0
 26 21  1  0
 36 31  1  0
 20 14  2  0
  6 39  1  0
  7 40  1  0
  9 41  1  0
 15 42  1  0
 15 43  1  0
 16 44  1  0
 16 45  1  0
 18 46  1  0
 18 47  1  0
 19 48  1  0
 19 49  1  0
 23 50  1  0
 24 51  1  0
 25 52  1  0
 32 53  1  0
 32 54  1  0
 33 55  1  0
 33 56  1  0
 35 57  1  0
 35 58  1  0
 36 59  1  0
 36 60  1  0
 37 61  1  0
 38 62  1  0
M  END
$$$$
[H]c1nc(N2C([H])([H])C([H])([H])c3nc(N4C([H])([H])C([H])([H])C([H])([H])C([H])([H])C4([H])[H])nc(N([H])c4c([H])c([H])c(C(F)(F)F)c([H])c4[H])c3C([H])([H])C2([H])[H])c(C(F)(F)F)c([H])c1[H]
     RDKit          3D

 64 68  0  0  0  0  0  0  0  0999 V2000
   -2.7750    7.8304   -0.8253 F   0  0  0  0  0  0  0  0  0  0  0  0
   -1.7112    7.4574   -0.0650 C   0  0  0  0  0  0  0  0  0  0  0  0
   -0.6282    8.2358   -0.4215 F   0  0  0  0  0  0  0  0  0  0  0  0
   -1.9655    7.7581    1.2630 F   0  0  0  0  0  0  0  0  0  0  0  0
   -1.3582    6.0032   -0.2170 C   0  0  0  0  0  0  0  0  0  0  0  0
   -0.0192    5.6894   -0.4062 C   0  0  0  0  0  0  0  0  0  0  0  0
    0.3328    4.3840   -0.5140 C   0  0  0  0  0  0  0  0  0  0  0  0
   -0.5453    3.3074   -0.4585 C   0  0  0  0  0  0  0  0  0  0  0  0
   -0.0583    2.0284   -0.5589 N   0  0  0  0  0  0  0  0  0  0  0  0
   -0.5808    0.7295   -0.5215 C   0  0  0  0  0  0  0  0  0  0  0  0
   -1.8067    0.3509   -0.0922 N   0  0  0  0  0  0  0  0  0  0  0  0
   -2.1720   -0.9445    0.1063 C   0  0  0  0  0  0  0  0  0  0  0  0
   -1.2872   -1.9281   -0.1253 N   0  0  0  0  0  0  0  0  0  0  0  0
   -0.0599   -1.6468   -0.5518 C   0  0  0  0  0  0  0  0  0  0  0  0
    0.8704   -2.7930   -0.7199 C   0  0  0  0  0  0  0  0  0  0  0  0
    2.0973   -2.4973    0.1775 C   0  0  0  0  0  0  0  0  0  0  0  0
    2.9779   -1.4967   -0.2801 N   0  0  0  0  0  0  0  0  0  0  0  0
    2.7910   -0.1061   -0.6861 C   0  0  0  0  0  0  0  0  0  0  0  0
    1.5157    0.1143   -1.4036 C   0  0  0  0  0  0  0  0  0  0  0  0
    0.2837   -0.3241   -0.7517 C   0  0  0  0  0  0  0  0  0  0  0  0
    4.3323   -1.8363   -0.4143 C   0  0  0  0  0  0  0  0  0  0  0  0
    4.7566   -1.9841   -1.7376 N   0  0  0  0  0  0  0  0  0  0  0  0
    6.0585   -2.3039   -1.9762 C   0  0  0  0  0  0  0  0  0  0  0  0
    6.9714   -2.4854   -0.9691 C   0  0  0  0  0  0  0  0  0  0  0  0
    6.5150   -2.3317    0.3243 C   0  0  0  0  0  0  0  0  0  0  0  0
    5.1858   -2.0014    0.6101 C   0  0  0  0  0  0  0  0  0  0  0  0
    4.8038   -1.8212    1.9974 C   0  0  0  0  0  0  0  0  0  0  0  0
    4.3192   -0.5697    2.3272 F   0  0  0  0  0  0  0  0  0  0  0  0
    6.0120   -1.8550    2.7788 F   0  0  0  0  0  0  0  0  0  0  0  0
    4.0831   -2.8370    2.5703 F   0  0  0  0  0  0  0  0  0  0  0  0
   -3.4994   -1.2911    0.4771 N   0  0  0  0  0  0  0  0  0  0  0  0
   -3.7565   -2.0006    1.6917 C   0  0  0  0  0  0  0  0  0  0  0  0
   -4.8955   -2.9532    1.6323 C   0  0  0  0  0  0  0  0  0  0  0  0
   -6.0545   -2.4402    0.8400 C   0  0  0  0  0  0  0  0  0  0  0  0
   -5.5705   -2.0552   -0.5408 C   0  0  0  0  0  0  0  0  0  0  0  0
   -4.5578   -0.9296   -0.4603 C   0  0  0  0  0  0  0  0  0  0  0  0
   -1.8570    3.6605   -0.2704 C   0  0  0  0  0  0  0  0  0  0  0  0
   -2.2830    4.9941   -0.1482 C   0  0  0  0  0  0  0  0  0  0  0  0
    0.7165    6.4917   -0.4590 H   0  0  0  0  0  0  0  0  0  0  0  0
    1.4092    4.1695   -0.6432 H   0  0  0  0  0  0  0  0  0  0  0  0
    1.0530    2.0161   -0.6236 H   0  0  0  0  0  0  0  0  0  0  0  0
    1.1607   -2.9230   -1.7515 H   0  0  0  0  0  0  0  0  0  0  0  0
    0.4223   -3.6921   -0.2248 H   0  0  0  0  0  0  0  0  0  0  0  0
    2.5983   -3.4929    0.2396 H   0  0  0  0  0  0  0  0  0  0  0  0
    1.6319   -2.2921    1.1667 H   0  0  0  0  0  0  0  0  0  0  0  0
    2.9535    0.6280    0.1087 H   0  0  0  0  0  0  0  0  0  0  0  0
    3.6149    0.1426   -1.4339 H   0  0  0  0  0  0  0  0  0  0  0  0
    1.5961   -0.6178   -2.3325 H   0  0  0  0  0  0  0  0  0  0  0  0
    1.4731    1.0599   -1.9468 H   0  0  0  0  0  0  0  0  0  0  0  0
    6.3734   -2.4084   -3.0150 H   0  0  0  0  0  0  0  0  0  0  0  0
    8.0143   -2.7299   -1.1876 H   0  0  0  0  0  0  0  0  0  0  0  0
    7.2336   -2.4495    1.1251 H   0  0  0  0  0  0  0  0  0  0  0  0
   -2.8629   -2.5206    2.0543 H   0  0  0  0  0  0  0  0  0  0  0  0
   -3.9773   -1.2117    2.4771 H   0  0  0  0  0  0  0  0  0  0  0  0
   -4.6002   -3.9314    1.1388 H   0  0  0  0  0  0  0  0  0  0  0  0
   -5.2164   -3.2025    2.6890 H   0  0  0  0  0  0  0  0  0  0  0  0
   -6.4796   -1.5431    1.3531 H   0  0  0  0  0  0  0  0  0  0  0  0
   -6.8351   -3.2053    0.7108 H   0  0  0  0  0  0  0  0  0  0  0  0
   -6.4216   -1.7851   -1.1593 H   0  0  0  0  0  0  0  0  0  0  0  0
   -5.0772   -2.9826   -0.9620 H   0  0  0  0  0  0  0  0  0  0  0  0
   -4.1579   -0.7623   -1.4648 H   0  0  0  0  0  0  0  0  0  0  0  0
   -5.1200   -0.0047   -0.1560 H   0  0  0  0  0  0  0  0  0  0  0  0
   -2.6339    2.9151   -0.2015 H   0  0  0  0  0  0  0  0  0  0  0  0
   -3.3333    5.2209   -0.0182 H   0  0  0  0  0  0  0  0  0  0  0  0
  1  2  1  0
  2  3  1  0
  2  4  1  0
  2  5  1  0
  5  6  2  0
  6  7  1  0
  7  8  2  0
  8  9  1  0
  9 10  1  0
 10 11  2  0
 11 12  1  0
 12 13  2  0
 13 14  1  0
 14 15  1  0
 15 16  1  0
 16 17  1  0
 17 18  1  0
 18 19  1  0
 19 20  1  0
 17 21  1  0
 21 22  2  0
 22 23  1  0
 23 24  2  0
 24 25  1  0
 25 26  2  0
 26 27  1  0
 27 28  1  0
 27 29  1  0
 27 30  1  0
 12 31  1  0
 31 32  1  0
 32 33  1  0
 33 34  1  0
 34 35  1  0
 35 36  1  0
  8 37  1  0
 37 38  2  0
 38  5  1  0
 20 10  1  0
 26 21  1  0
 36 31  1  0
 20 14  2  0
  6 39  1  0
  7 40  1  0
  9 41  1  0
 15 42  1  0
 15 43  1  0
 16 44  1  0
 16 45  1  0
 18 46  1  0
 18 47  1  0
 19 48  1  0
 19 49  1  0
 23 50  1  0
 24 51  1  0
 25 52  1  0
 32 53  1  0
 32 54  1  0
 33 55  1  0
 33 56  1  0
 34 57  1  0
 34 58  1  0
 35 59  1  0
 35 60  1  0
 36 61  1  0
 36 62  1  0
 37 63  1  0
 38 64  1  0
M  END
$$$$
[H]c1nc(N2C([H])([H])C([H])([H])c3nc(-c4c([H])c([H])c([H])c([H])c4[H])nc(N([H])c4c([H])c([H])c(C(F)(F)F)c([H])c4[H])c3C([H])([H])C2([H])[H])c(C(F)(F)F)c([H])c1[H]
     RDKit          3D

 59 63  0  0  0  0  0  0  0  0999 V2000
    7.7633   -1.6054    1.3399 F   0  0  0  0  0  0  0  0  0  0  0  0
    7.0036   -2.5499    0.7090 C   0  0  0  0  0  0  0  0  0  0  0  0
    7.6090   -3.1369   -0.3782 F   0  0  0  0  0  0  0  0  0  0  0  0
    6.8316   -3.5879    1.6513 F   0  0  0  0  0  0  0  0  0  0  0  0
    5.6342   -2.0423    0.3239 C   0  0  0  0  0  0  0  0  0  0  0  0
    4.8690   -1.3563    1.2264 C   0  0  0  0  0  0  0  0  0  0  0  0
    3.5719   -0.9380    0.9048 C   0  0  0  0  0  0  0  0  0  0  0  0
    3.0189   -1.2050   -0.3369 C   0  0  0  0  0  0  0  0  0  0  0  0
    1.6630   -0.8837   -0.5846 N   0  0  0  0  0  0  0  0  0  0  0  0
    1.0019    0.3231   -0.4548 C   0  0  0  0  0  0  0  0  0  0  0  0
    1.5867    1.4912   -0.0608 N   0  0  0  0  0  0  0  0  0  0  0  0
    0.8981    2.6107    0.1798 C   0  0  0  0  0  0  0  0  0  0  0  0
   -0.4517    2.5563    0.0288 N   0  0  0  0  0  0  0  0  0  0  0  0
   -1.1108    1.4280   -0.3653 C   0  0  0  0  0  0  0  0  0  0  0  0
   -2.5607    1.5678   -0.3062 C   0  0  0  0  0  0  0  0  0  0  0  0
   -3.3820    0.4112   -0.6855 C   0  0  0  0  0  0  0  0  0  0  0  0
   -3.1060   -0.9300   -0.3508 N   0  0  0  0  0  0  0  0  0  0  0  0
   -1.8153   -1.7097   -0.4560 C   0  0  0  0  0  0  0  0  0  0  0  0
   -0.8991   -0.9315   -1.2958 C   0  0  0  0  0  0  0  0  0  0  0  0
   -0.3691    0.3070   -0.6186 C   0  0  0  0  0  0  0  0  0  0  0  0
   -4.0539   -1.8533    0.1710 C   0  0  0  0  0  0  0  0  0  0  0  0
   -3.6959   -2.4284    1.3865 N   0  0  0  0  0  0  0  0  0  0  0  0
   -4.4440   -3.3782    1.9639 C   0  0  0  0  0  0  0  0  0  0  0  0
   -5.6062   -3.8062    1.3539 C   0  0  0  0  0  0  0  0  0  0  0  0
   -5.9746   -3.2488    0.1616 C   0  0  0  0  0  0  0  0  0  0  0  0
   -5.1850   -2.2483   -0.4511 C   0  0  0  0  0  0  0  0  0  0  0  0
   -5.6741   -1.7135   -1.7225 C   0  0  0  0  0  0  0  0  0  0  0  0
   -4.7797   -1.8174   -2.7771 F   0  0  0  0  0  0  0  0  0  0  0  0
   -6.3223   -0.5194   -1.6828 F   0  0  0  0  0  0  0  0  0  0  0  0
   -6.7067   -2.6116   -2.1741 F   0  0  0  0  0  0  0  0  0  0  0  0
    1.5154    3.9052    0.4639 C   0  0  0  0  0  0  0  0  0  0  0  0
    2.8681    4.1293    0.3879 C   0  0  0  0  0  0  0  0  0  0  0  0
    3.4018    5.3983    0.6664 C   0  0  0  0  0  0  0  0  0  0  0  0
    2.5997    6.4571    1.0197 C   0  0  0  0  0  0  0  0  0  0  0  0
    1.2326    6.2442    1.1013 C   0  0  0  0  0  0  0  0  0  0  0  0
    0.7544    4.9986    0.8254 C   0  0  0  0  0  0  0  0  0  0  0  0
    3.8018   -1.8856   -1.2366 C   0  0  0  0  0  0  0  0  0  0  0  0
    5.0837   -2.2984   -0.9111 C   0  0  0  0  0  0  0  0  0  0  0  0
    5.2983   -1.1612    2.2177 H   0  0  0  0  0  0  0  0  0  0  0  0
    2.9810   -0.3964    1.6203 H   0  0  0  0  0  0  0  0  0  0  0  0
    1.1204   -1.7659   -0.8737 H   0  0  0  0  0  0  0  0  0  0  0  0
   -2.8706    2.4381   -0.9476 H   0  0  0  0  0  0  0  0  0  0  0  0
   -2.8466    1.9351    0.7505 H   0  0  0  0  0  0  0  0  0  0  0  0
   -4.4268    0.6487   -0.2440 H   0  0  0  0  0  0  0  0  0  0  0  0
   -3.5093    0.4661   -1.8129 H   0  0  0  0  0  0  0  0  0  0  0  0
   -2.0224   -2.6895   -0.9566 H   0  0  0  0  0  0  0  0  0  0  0  0
   -1.4507   -1.9515    0.5656 H   0  0  0  0  0  0  0  0  0  0  0  0
   -0.1742   -1.4359   -1.8779 H   0  0  0  0  0  0  0  0  0  0  0  0
   -1.6110   -0.5213   -2.1545 H   0  0  0  0  0  0  0  0  0  0  0  0
   -4.2001   -3.8488    2.9002 H   0  0  0  0  0  0  0  0  0  0  0  0
   -6.2082   -4.5864    1.8383 H   0  0  0  0  0  0  0  0  0  0  0  0
   -6.8816   -3.5931   -0.3391 H   0  0  0  0  0  0  0  0  0  0  0  0
    3.5566    3.3692    0.1044 H   0  0  0  0  0  0  0  0  0  0  0  0
    4.4673    5.5138    0.5728 H   0  0  0  0  0  0  0  0  0  0  0  0
    3.0009    7.4431    1.2334 H   0  0  0  0  0  0  0  0  0  0  0  0
    0.5368    7.0487    1.3860 H   0  0  0  0  0  0  0  0  0  0  0  0
   -0.3167    4.8371    0.8856 H   0  0  0  0  0  0  0  0  0  0  0  0
    3.3360   -2.0674   -2.2146 H   0  0  0  0  0  0  0  0  0  0  0  0
    5.6490   -2.8249   -1.6705 H   0  0  0  0  0  0  0  0  0  0  0  0
  1  2  1  0
  2  3  1  0
  2  4  1  0
  2  5  1  0
  5  6  2  0
  6  7  1  0
  7  8  2  0
  8  9  1  0
  9 10  1  0
 10 11  2  0
 11 12  1  0
 12 13  2  0
 13 14  1  0
 14 15  1  0
 15 16  1  0
 16 17  1  0
 17 18  1  0
 18 19  1  0
 19 20  1  0
 17 21  1  0
 21 22  2  0
 22 23  1  0
 23 24  2  0
 24 25  1  0
 25 26  2  0
 26 27  1  0
 27 28  1  0
 27 29  1  0
 27 30  1  0
 12 31  1  0
 31 32  2  0
 32 33  1  0
 33 34  2  0
 34 35  1  0
 35 36  2  0
  8 37  1  0
 37 38  2  0
 38  5  1  0
 20 10  1  0
 26 21  1  0
 36 31  1  0
 20 14  2  0
  6 39  1  0
  7 40  1  0
  9 41  1  0
 15 42  1  0
 15 43  1  0
 16 44  1  0
 16 45  1  0
 18 46  1  0
 18 47  1  0
 19 48  1  0
 19 49  1  0
 23 50  1  0
 24 51  1  0
 25 52  1  0
 32 53  1  0
 33 54  1  0
 34 55  1  0
 35 56  1  0
 36 57  1  0
 37 58  1  0
 38 59  1  0
M  END
$$$$
[H]c1nc(N2C([H])([H])C([H])([H])c3nc(N4C([H])([H])C([H])([H])OC([H])([H])C4([H])[H])nc(N([H])c4c([H])c([H])c(C(C([H])([H])[H])(C([H])([H])[H])C([H])([H])[H])c([H])c4[H])c3C([H])([H])C2([H])[H])c(C(F)(F)F)c([H])c1[H]
     RDKit          3D

 71 75  0  0  0  0  0  0  0  0999 V2000
   -7.0184    0.9576    0.4445 C   0  0  0  0  0  0  0  0  0  0  0  0
   -6.5584   -0.3239   -0.2521 C   0  0  0  0  0  0  0  0  0  0  0  0
   -6.9778   -0.2225   -1.6895 C   0  0  0  0  0  0  0  0  0  0  0  0
   -7.2093   -1.5307    0.3862 C   0  0  0  0  0  0  0  0  0  0  0  0
   -5.0890   -0.4261   -0.0730 C   0  0  0  0  0  0  0  0  0  0  0  0
   -4.5413   -1.3625    0.7579 C   0  0  0  0  0  0  0  0  0  0  0  0
   -3.1889   -1.4869    0.9601 C   0  0  0  0  0  0  0  0  0  0  0  0
   -2.2855   -0.6308    0.3013 C   0  0  0  0  0  0  0  0  0  0  0  0
   -0.9015   -0.7913    0.5521 N   0  0  0  0  0  0  0  0  0  0  0  0
    0.1189    0.1398    0.3136 C   0  0  0  0  0  0  0  0  0  0  0  0
   -0.0581    1.3532   -0.2098 N   0  0  0  0  0  0  0  0  0  0  0  0
    0.8776    2.2729   -0.4383 C   0  0  0  0  0  0  0  0  0  0  0  0
    2.1587    1.9545   -0.1042 N   0  0  0  0  0  0  0  0  0  0  0  0
    2.4249    0.7375    0.4342 C   0  0  0  0  0  0  0  0  0  0  0  0
    3.8861    0.6058    0.7517 C   0  0  0  0  0  0  0  0  0  0  0  0
    4.4147   -0.6138    0.0193 C   0  0  0  0  0  0  0  0  0  0  0  0
    3.9364   -1.8227    0.6485 N   0  0  0  0  0  0  0  0  0  0  0  0
    2.9213   -1.9471    1.6309 C   0  0  0  0  0  0  0  0  0  0  0  0
    1.5361   -1.5599    1.1796 C   0  0  0  0  0  0  0  0  0  0  0  0
    1.4483   -0.1878    0.6555 C   0  0  0  0  0  0  0  0  0  0  0  0
    4.5947   -2.9850    0.1923 C   0  0  0  0  0  0  0  0  0  0  0  0
    4.1101   -3.5290   -0.9907 N   0  0  0  0  0  0  0  0  0  0  0  0
    4.7029   -4.5699   -1.5718 C   0  0  0  0  0  0  0  0  0  0  0  0
    5.8203   -5.0993   -0.9666 C   0  0  0  0  0  0  0  0  0  0  0  0
    6.3410   -4.5904    0.2161 C   0  0  0  0  0  0  0  0  0  0  0  0
    5.6903   -3.4858    0.8144 C   0  0  0  0  0  0  0  0  0  0  0  0
    6.2154   -2.9861    2.0815 C   0  0  0  0  0  0  0  0  0  0  0  0
    5.3836   -3.0931    3.1616 F   0  0  0  0  0  0  0  0  0  0  0  0
    7.3523   -3.7414    2.4443 F   0  0  0  0  0  0  0  0  0  0  0  0
    6.6807   -1.6843    2.0671 F   0  0  0  0  0  0  0  0  0  0  0  0
    0.6165    3.5429   -1.0252 N   0  0  0  0  0  0  0  0  0  0  0  0
    1.6903    4.3601   -1.5706 C   0  0  0  0  0  0  0  0  0  0  0  0
    1.6765    5.6857   -0.8746 C   0  0  0  0  0  0  0  0  0  0  0  0
    0.5580    5.8382   -0.0472 O   0  0  0  0  0  0  0  0  0  0  0  0
   -0.6159    5.5547   -0.7650 C   0  0  0  0  0  0  0  0  0  0  0  0
   -0.7269    4.0715   -1.0936 C   0  0  0  0  0  0  0  0  0  0  0  0
   -2.8587    0.2936   -0.5238 C   0  0  0  0  0  0  0  0  0  0  0  0
   -4.2401    0.4191   -0.7272 C   0  0  0  0  0  0  0  0  0  0  0  0
   -6.6918    0.9552    1.5113 H   0  0  0  0  0  0  0  0  0  0  0  0
   -8.1395    1.0271    0.3743 H   0  0  0  0  0  0  0  0  0  0  0  0
   -6.6437    1.8118   -0.1398 H   0  0  0  0  0  0  0  0  0  0  0  0
   -6.3005   -0.7820   -2.3366 H   0  0  0  0  0  0  0  0  0  0  0  0
   -7.0295    0.8661   -1.9701 H   0  0  0  0  0  0  0  0  0  0  0  0
   -8.0218   -0.6329   -1.7519 H   0  0  0  0  0  0  0  0  0  0  0  0
   -6.7344   -2.4389    0.0156 H   0  0  0  0  0  0  0  0  0  0  0  0
   -7.1935   -1.3872    1.4759 H   0  0  0  0  0  0  0  0  0  0  0  0
   -8.2766   -1.5138    0.0174 H   0  0  0  0  0  0  0  0  0  0  0  0
   -5.2016   -2.0465    1.2845 H   0  0  0  0  0  0  0  0  0  0  0  0
   -2.7826   -2.2417    1.6268 H   0  0  0  0  0  0  0  0  0  0  0  0
   -0.6333   -1.7303    0.9507 H   0  0  0  0  0  0  0  0  0  0  0  0
    4.3932    1.4882    0.3245 H   0  0  0  0  0  0  0  0  0  0  0  0
    4.0853    0.5615    1.8307 H   0  0  0  0  0  0  0  0  0  0  0  0
    3.8855   -0.5590   -0.9914 H   0  0  0  0  0  0  0  0  0  0  0  0
    5.4647   -0.5908   -0.2096 H   0  0  0  0  0  0  0  0  0  0  0  0
    3.1555   -1.3820    2.5790 H   0  0  0  0  0  0  0  0  0  0  0  0
    2.7926   -3.0277    1.9702 H   0  0  0  0  0  0  0  0  0  0  0  0
    1.1974   -2.3048    0.4175 H   0  0  0  0  0  0  0  0  0  0  0  0
    0.9078   -1.5757    2.1106 H   0  0  0  0  0  0  0  0  0  0  0  0
    4.3071   -4.9907   -2.5140 H   0  0  0  0  0  0  0  0  0  0  0  0
    6.3106   -5.9464   -1.4393 H   0  0  0  0  0  0  0  0  0  0  0  0
    7.2121   -4.9953    0.7083 H   0  0  0  0  0  0  0  0  0  0  0  0
    2.6637    3.8301   -1.5255 H   0  0  0  0  0  0  0  0  0  0  0  0
    1.4192    4.5351   -2.6369 H   0  0  0  0  0  0  0  0  0  0  0  0
    1.7616    6.5508   -1.5857 H   0  0  0  0  0  0  0  0  0  0  0  0
    2.5821    5.7152   -0.2314 H   0  0  0  0  0  0  0  0  0  0  0  0
   -0.6051    6.1878   -1.6846 H   0  0  0  0  0  0  0  0  0  0  0  0
   -1.4457    5.8596   -0.1301 H   0  0  0  0  0  0  0  0  0  0  0  0
   -1.0290    3.9366   -2.1766 H   0  0  0  0  0  0  0  0  0  0  0  0
   -1.4632    3.5491   -0.4850 H   0  0  0  0  0  0  0  0  0  0  0  0
   -2.2279    0.9795   -1.0806 H   0  0  0  0  0  0  0  0  0  0  0  0
   -4.6046    1.1753   -1.3976 H   0  0  0  0  0  0  0  0  0  0  0  0
  1  2  1  0
  2  3  1  0
  2  4  1  0
  2  5  1  0
  5  6  2  0
  6  7  1  0
  7  8  2  0
  8  9  1  0
  9 10  1  0
 10 11  2  0
 11 12  1  0
 12 13  2  0
 13 14  1  0
 14 15  1  0
 15 16  1  0
 16 17  1  0
 17 18  1  0
 18 19  1  0
 19 20  1  0
 17 21  1  0
 21 22  2  0
 22 23  1  0
 23 24  2  0
 24 25  1  0
 25 26  2  0
 26 27  1  0
 27 28  1  0
 27 29  1  0
 27 30  1  0
 12 31  1  0
 31 32  1  0
 32 33  1  0
 33 34  1  0
 34 35  1  0
 35 36  1  0
  8 37  1  0
 37 38  2  0
 38  5  1  0
 20 10  1  0
 26 21  1  0
 36 31  1  0
 20 14  2  0
  1 39  1  0
  1 40  1  0
  1 41  1  0
  3 42  1  0
  3 43  1  0
  3 44  1  0
  4 45  1  0
  4 46  1  0
  4 47  1  0
  6 48  1  0
  7 49  1  0
  9 50  1  0
 15 51  1  0
 15 52  1  0
 16 53  1  0
 16 54  1  0
 18 55  1  0
 18 56  1  0
 19 57  1  0
 19 58  1  0
 23 59  1  0
 24 60  1  0
 25 61  1  0
 32 62  1  0
 32 63  1  0
 33 64  1  0
 33 65  1  0
 35 66  1  0
 35 67  1  0
 36 68  1  0
 36 69  1  0
 37 70  1  0
 38 71  1  0
M  END
$$$$
[H]c1nc(N2C([H])([H])C([H])([H])c3nc(N4C([H])([H])C([H])([H])OC([H])([H])C4([H])[H])nc(N([H])c4nc([H])c(C(F)(F)F)c([H])c4[H])c3C([H])([H])C2([H])[H])c(C(F)(F)F)c([H])c1[H]
     RDKit          3D

 61 65  0  0  0  0  0  0  0  0999 V2000
   -6.3306    5.2390   -1.6155 F   0  0  0  0  0  0  0  0  0  0  0  0
   -5.5922    5.3013   -0.4559 C   0  0  0  0  0  0  0  0  0  0  0  0
   -5.0386    6.5694   -0.3901 F   0  0  0  0  0  0  0  0  0  0  0  0
   -6.3926    5.1814    0.6732 F   0  0  0  0  0  0  0  0  0  0  0  0
   -4.4627    4.3255   -0.4453 C   0  0  0  0  0  0  0  0  0  0  0  0
   -4.6172    2.9832   -0.2043 C   0  0  0  0  0  0  0  0  0  0  0  0
   -3.5115    2.1477   -0.2169 C   0  0  0  0  0  0  0  0  0  0  0  0
   -2.2424    2.6216   -0.4631 C   0  0  0  0  0  0  0  0  0  0  0  0
   -1.0682    1.8380   -0.4549 N   0  0  0  0  0  0  0  0  0  0  0  0
   -0.8977    0.4775   -0.2418 C   0  0  0  0  0  0  0  0  0  0  0  0
   -1.8754   -0.4460   -0.2022 N   0  0  0  0  0  0  0  0  0  0  0  0
   -1.6515   -1.7560   -0.1139 C   0  0  0  0  0  0  0  0  0  0  0  0
   -0.3915   -2.2263   -0.0581 N   0  0  0  0  0  0  0  0  0  0  0  0
    0.6851   -1.3805   -0.0870 C   0  0  0  0  0  0  0  0  0  0  0  0
    1.9131   -2.1693   -0.0310 C   0  0  0  0  0  0  0  0  0  0  0  0
    3.1427   -1.4284   -0.6043 C   0  0  0  0  0  0  0  0  0  0  0  0
    3.4903   -0.3097    0.1833 N   0  0  0  0  0  0  0  0  0  0  0  0
    2.5657    0.6023    0.8256 C   0  0  0  0  0  0  0  0  0  0  0  0
    1.4162    1.0316   -0.0993 C   0  0  0  0  0  0  0  0  0  0  0  0
    0.3954   -0.0500   -0.1752 C   0  0  0  0  0  0  0  0  0  0  0  0
    4.8417    0.0363    0.4815 C   0  0  0  0  0  0  0  0  0  0  0  0
    5.2120    0.0400    1.8120 N   0  0  0  0  0  0  0  0  0  0  0  0
    6.4128    0.3967    2.2422 C   0  0  0  0  0  0  0  0  0  0  0  0
    7.3432    0.7861    1.3069 C   0  0  0  0  0  0  0  0  0  0  0  0
    7.0057    0.7912   -0.0268 C   0  0  0  0  0  0  0  0  0  0  0  0
    5.7350    0.4120   -0.4787 C   0  0  0  0  0  0  0  0  0  0  0  0
    5.4486    0.4276   -1.9451 C   0  0  0  0  0  0  0  0  0  0  0  0
    4.3843    1.2028   -2.2876 F   0  0  0  0  0  0  0  0  0  0  0  0
    6.5521    1.1123   -2.5563 F   0  0  0  0  0  0  0  0  0  0  0  0
    5.5061   -0.8152   -2.5293 F   0  0  0  0  0  0  0  0  0  0  0  0
   -2.7262   -2.6763   -0.0392 N   0  0  0  0  0  0  0  0  0  0  0  0
   -3.0841   -3.4997   -1.1783 C   0  0  0  0  0  0  0  0  0  0  0  0
   -4.3987   -4.1730   -0.8492 C   0  0  0  0  0  0  0  0  0  0  0  0
   -4.3563   -4.9482    0.2923 O   0  0  0  0  0  0  0  0  0  0  0  0
   -3.6233   -4.3815    1.3259 C   0  0  0  0  0  0  0  0  0  0  0  0
   -3.5158   -2.8730    1.1546 C   0  0  0  0  0  0  0  0  0  0  0  0
   -2.1388    3.9380   -0.6918 N   0  0  0  0  0  0  0  0  0  0  0  0
   -3.1706    4.7504   -0.6878 C   0  0  0  0  0  0  0  0  0  0  0  0
   -5.6143    2.6038   -0.0040 H   0  0  0  0  0  0  0  0  0  0  0  0
   -3.7111    1.1053   -0.0176 H   0  0  0  0  0  0  0  0  0  0  0  0
   -0.1888    2.3998   -0.6986 H   0  0  0  0  0  0  0  0  0  0  0  0
    2.1397   -2.4784    0.9853 H   0  0  0  0  0  0  0  0  0  0  0  0
    1.7691   -3.0186   -0.7389 H   0  0  0  0  0  0  0  0  0  0  0  0
    3.9312   -2.2298   -0.6074 H   0  0  0  0  0  0  0  0  0  0  0  0
    2.8194   -1.1911   -1.6522 H   0  0  0  0  0  0  0  0  0  0  0  0
    3.0802    1.5350    1.1589 H   0  0  0  0  0  0  0  0  0  0  0  0
    2.1644    0.0725    1.7457 H   0  0  0  0  0  0  0  0  0  0  0  0
    1.8064    1.3591   -1.0577 H   0  0  0  0  0  0  0  0  0  0  0  0
    0.9464    1.8494    0.5274 H   0  0  0  0  0  0  0  0  0  0  0  0
    6.6796    0.3899    3.3153 H   0  0  0  0  0  0  0  0  0  0  0  0
    8.3293    1.0894    1.6630 H   0  0  0  0  0  0  0  0  0  0  0  0
    7.7423    1.0920   -0.7869 H   0  0  0  0  0  0  0  0  0  0  0  0
   -2.2994   -4.1772   -1.5059 H   0  0  0  0  0  0  0  0  0  0  0  0
   -3.3020   -2.7799   -1.9934 H   0  0  0  0  0  0  0  0  0  0  0  0
   -4.6470   -4.8416   -1.7091 H   0  0  0  0  0  0  0  0  0  0  0  0
   -5.1530   -3.3653   -0.7840 H   0  0  0  0  0  0  0  0  0  0  0  0
   -4.1528   -4.5898    2.2728 H   0  0  0  0  0  0  0  0  0  0  0  0
   -2.6046   -4.7847    1.3980 H   0  0  0  0  0  0  0  0  0  0  0  0
   -4.5476   -2.5082    0.9337 H   0  0  0  0  0  0  0  0  0  0  0  0
   -3.1073   -2.4496    2.0673 H   0  0  0  0  0  0  0  0  0  0  0  0
   -3.0444    5.8392   -0.8818 H   0  0  0  0  0  0  0  0  0  0  0  0
  1  2  1  0
  2  3  1  0
  2  4  1  0
  2  5  1  0
  5  6  2  0
  6  7  1  0
  7  8  2  0
  8  9  1  0
  9 10  1  0
 10 11  2  0
 11 12  1  0
 12 13  2  0
 13 14  1  0
 14 15  1  0
 15 16  1  0
 16 17  1  0
 17 18  1  0
 18 19  1  0
 19 20  1  0
 17 21  1  0
 21 22  2  0
 22 23  1  0
 23 24  2  0
 24 25  1  0
 25 26  2  0
 26 27  1  0
 27 28  1  0
 27 29  1  0
 27 30  1  0
 12 31  1  0
 31 32  1  0
 32 33  1  0
 33 34  1  0
 34 35  1  0
 35 36  1  0
  8 37  1  0
 37 38  2  0
 38  5  1  0
 20 10  1  0
 26 21  1  0
 36 31  1  0
 20 14  2  0
  6 39  1  0
  7 40  1  0
  9 41  1  0
 15 42  1  0
 15 43  1  0
 16 44  1  0
 16 45  1  0
 18 46  1  0
 18 47  1  0
 19 48  1  0
 19 49  1  0
 23 50  1  0
 24 51  1  0
 25 52  1  0
 32 53  1  0
 32 54  1  0
 33 55  1  0
 33 56  1  0
 35 57  1  0
 35 58  1  0
 36 59  1  0
 36 60  1  0
 38 61  1  0
M  END
$$$$
[H]c1nc(N2C([H])([H])C([H])([H])c3nc(-c4c([H])c([H])c([H])c([H])c4[H])nc(N([H])c4c([H])c([H])c(C(C([H])([H])[H])(C([H])([H])[H])C([H])([H])[H])c([H])c4[H])c3C([H])([H])C2([H])[H])c(C(F)(F)F)c([H])c1[H]
     RDKit          3D

 68 72  0  0  0  0  0  0  0  0999 V2000
   -7.1295    0.8964    0.4304 C   0  0  0  0  0  0  0  0  0  0  0  0
   -6.5045   -0.2275   -0.3626 C   0  0  0  0  0  0  0  0  0  0  0  0
   -6.7205   -0.0130   -1.8595 C   0  0  0  0  0  0  0  0  0  0  0  0
   -7.1149   -1.5364    0.0095 C   0  0  0  0  0  0  0  0  0  0  0  0
   -5.0314   -0.3134   -0.1603 C   0  0  0  0  0  0  0  0  0  0  0  0
   -4.2748    0.7670    0.2199 C   0  0  0  0  0  0  0  0  0  0  0  0
   -2.8833    0.6538    0.4032 C   0  0  0  0  0  0  0  0  0  0  0  0
   -2.2202   -0.5195    0.2142 C   0  0  0  0  0  0  0  0  0  0  0  0
   -0.8207   -0.7117    0.3513 N   0  0  0  0  0  0  0  0  0  0  0  0
    0.1674    0.2861    0.3326 C   0  0  0  0  0  0  0  0  0  0  0  0
   -0.0876    1.5786    0.0858 N   0  0  0  0  0  0  0  0  0  0  0  0
    0.8141    2.5571    0.0043 C   0  0  0  0  0  0  0  0  0  0  0  0
    2.0930    2.1949    0.1878 N   0  0  0  0  0  0  0  0  0  0  0  0
    2.4766    0.9219    0.4439 C   0  0  0  0  0  0  0  0  0  0  0  0
    3.9815    0.8297    0.5663 C   0  0  0  0  0  0  0  0  0  0  0  0
    4.4082   -0.3486   -0.3034 C   0  0  0  0  0  0  0  0  0  0  0  0
    4.0766   -1.5864    0.3368 N   0  0  0  0  0  0  0  0  0  0  0  0
    3.0662   -1.7676    1.3397 C   0  0  0  0  0  0  0  0  0  0  0  0
    1.6737   -1.5063    0.8303 C   0  0  0  0  0  0  0  0  0  0  0  0
    1.5083   -0.0608    0.5224 C   0  0  0  0  0  0  0  0  0  0  0  0
    4.8022   -2.7270   -0.0237 C   0  0  0  0  0  0  0  0  0  0  0  0
    4.2515   -3.4556   -1.0521 N   0  0  0  0  0  0  0  0  0  0  0  0
    4.8141   -4.5486   -1.5426 C   0  0  0  0  0  0  0  0  0  0  0  0
    6.0072   -5.0331   -1.0430 C   0  0  0  0  0  0  0  0  0  0  0  0
    6.5648   -4.3032   -0.0079 C   0  0  0  0  0  0  0  0  0  0  0  0
    5.9786   -3.1579    0.5086 C   0  0  0  0  0  0  0  0  0  0  0  0
    6.6011   -2.4391    1.6340 C   0  0  0  0  0  0  0  0  0  0  0  0
    5.7821   -2.3574    2.7517 F   0  0  0  0  0  0  0  0  0  0  0  0
    7.6842   -3.2458    2.0725 F   0  0  0  0  0  0  0  0  0  0  0  0
    7.1791   -1.2511    1.3007 F   0  0  0  0  0  0  0  0  0  0  0  0
    0.4401    3.9551   -0.2557 C   0  0  0  0  0  0  0  0  0  0  0  0
   -0.8689    4.3303   -0.4145 C   0  0  0  0  0  0  0  0  0  0  0  0
   -1.2499    5.6465   -0.6551 C   0  0  0  0  0  0  0  0  0  0  0  0
   -0.2316    6.5945   -0.7318 C   0  0  0  0  0  0  0  0  0  0  0  0
    1.0922    6.2577   -0.5786 C   0  0  0  0  0  0  0  0  0  0  0  0
    1.4157    4.9155   -0.3373 C   0  0  0  0  0  0  0  0  0  0  0  0
   -3.0084   -1.6230   -0.1756 C   0  0  0  0  0  0  0  0  0  0  0  0
   -4.3652   -1.5056   -0.3522 C   0  0  0  0  0  0  0  0  0  0  0  0
   -8.0953    0.5216    0.8753 H   0  0  0  0  0  0  0  0  0  0  0  0
   -7.2940    1.7543   -0.2470 H   0  0  0  0  0  0  0  0  0  0  0  0
   -6.5117    1.2018    1.2902 H   0  0  0  0  0  0  0  0  0  0  0  0
   -6.0288   -0.7531   -2.3583 H   0  0  0  0  0  0  0  0  0  0  0  0
   -6.3317    0.9758   -2.1170 H   0  0  0  0  0  0  0  0  0  0  0  0
   -7.7702   -0.1797   -2.1622 H   0  0  0  0  0  0  0  0  0  0  0  0
   -6.5332   -2.0774    0.8065 H   0  0  0  0  0  0  0  0  0  0  0  0
   -8.1460   -1.3786    0.4291 H   0  0  0  0  0  0  0  0  0  0  0  0
   -7.2252   -2.1625   -0.8994 H   0  0  0  0  0  0  0  0  0  0  0  0
   -4.7664    1.7225    0.3759 H   0  0  0  0  0  0  0  0  0  0  0  0
   -2.3749    1.5463    0.7138 H   0  0  0  0  0  0  0  0  0  0  0  0
   -0.4666   -1.7154    0.4698 H   0  0  0  0  0  0  0  0  0  0  0  0
    4.3827    1.7330    0.0869 H   0  0  0  0  0  0  0  0  0  0  0  0
    4.2133    0.7067    1.6233 H   0  0  0  0  0  0  0  0  0  0  0  0
    5.4245   -0.2718   -0.6423 H   0  0  0  0  0  0  0  0  0  0  0  0
    3.6907   -0.2858   -1.1945 H   0  0  0  0  0  0  0  0  0  0  0  0
    3.2354   -1.0488    2.1715 H   0  0  0  0  0  0  0  0  0  0  0  0
    3.0718   -2.8037    1.7597 H   0  0  0  0  0  0  0  0  0  0  0  0
    1.4370   -2.1103   -0.0486 H   0  0  0  0  0  0  0  0  0  0  0  0
    0.9719   -1.7749    1.6763 H   0  0  0  0  0  0  0  0  0  0  0  0
    4.3539   -5.0870   -2.3438 H   0  0  0  0  0  0  0  0  0  0  0  0
    6.4528   -5.9239   -1.4519 H   0  0  0  0  0  0  0  0  0  0  0  0
    7.5140   -4.6874    0.3902 H   0  0  0  0  0  0  0  0  0  0  0  0
   -1.6567    3.5906   -0.3506 H   0  0  0  0  0  0  0  0  0  0  0  0
   -2.2624    5.9759   -0.7817 H   0  0  0  0  0  0  0  0  0  0  0  0
   -0.4995    7.6412   -0.9213 H   0  0  0  0  0  0  0  0  0  0  0  0
    1.8302    7.0416   -0.6507 H   0  0  0  0  0  0  0  0  0  0  0  0
    2.4420    4.6390   -0.2171 H   0  0  0  0  0  0  0  0  0  0  0  0
   -2.4766   -2.5601   -0.3218 H   0  0  0  0  0  0  0  0  0  0  0  0
   -4.9482   -2.3766   -0.6505 H   0  0  0  0  0  0  0  0  0  0  0  0
  1  2  1  0
  2  3  1  0
  2  4  1  0
  2  5  1  0
  5  6  2  0
  6  7  1  0
  7  8  2  0
  8  9  1  0
  9 10  1  0
 10 11  2  0
 11 12  1  0
 12 13  2  0
 13 14  1  0
 14 15  1  0
 15 16  1  0
 16 17  1  0
 17 18  1  0
 18 19  1  0
 19 20  1  0
 17 21  1  0
 21 22  2  0
 22 23  1  0
 23 24  2  0
 24 25  1  0
 25 26  2  0
 26 27  1  0
 27 28  1  0
 27 29  1  0
 27 30  1  0
 12 31  1  0
 31 32  2  0
 32 33  1  0
 33 34  2  0
 34 35  1  0
 35 36  2  0
  8 37  1  0
 37 38  2  0
 38  5  1  0
 20 10  1  0
 26 21  1  0
 36 31  1  0
 20 14  2  0
  1 39  1  0
  1 40  1  0
  1 41  1  0
  3 42  1  0
  3 43  1  0
  3 44  1  0
  4 45  1  0
  4 46  1  0
  4 47  1  0
  6 48  1  0
  7 49  1  0
  9 50  1  0
 15 51  1  0
 15 52  1  0
 16 53  1  0
 16 54  1  0
 18 55  1  0
 18 56  1  0
 19 57  1  0
 19 58  1  0
 23 59  1  0
 24 60  1  0
 25 61  1  0
 32 62  1  0
 33 63  1  0
 34 64  1  0
 35 65  1  0
 36 66  1  0
 37 67  1  0
 38 68  1  0
M  END
$$$$
[H]c1nc(N2C([H])([H])C([H])([H])c3nc(N4C([H])([H])C([H])([H])OC([H])([H])C4([H])[H])nc(N([H])c4c([H])nc(C(F)(F)F)c([H])c4[H])c3C([H])([H])C2([H])[H])c(C(F)(F)F)c([H])c1[H]
     RDKit          3D

 61 65  0  0  0  0  0  0  0  0999 V2000
   -4.2863    7.0810    1.1639 F   0  0  0  0  0  0  0  0  0  0  0  0
   -3.6440    6.8619   -0.0276 C   0  0  0  0  0  0  0  0  0  0  0  0
   -2.5711    7.7499   -0.0757 F   0  0  0  0  0  0  0  0  0  0  0  0
   -4.4424    7.0289   -1.1265 F   0  0  0  0  0  0  0  0  0  0  0  0
   -3.0000    5.4897    0.0252 C   0  0  0  0  0  0  0  0  0  0  0  0
   -3.6863    4.3342   -0.2199 C   0  0  0  0  0  0  0  0  0  0  0  0
   -3.0485    3.0991   -0.1273 C   0  0  0  0  0  0  0  0  0  0  0  0
   -1.7312    2.9793    0.2038 C   0  0  0  0  0  0  0  0  0  0  0  0
   -0.9241    1.8681    0.3234 N   0  0  0  0  0  0  0  0  0  0  0  0
   -1.0011    0.4902    0.1528 C   0  0  0  0  0  0  0  0  0  0  0  0
   -2.0701   -0.3276    0.1642 N   0  0  0  0  0  0  0  0  0  0  0  0
   -1.9853   -1.6664    0.2576 C   0  0  0  0  0  0  0  0  0  0  0  0
   -0.7477   -2.2435    0.3535 N   0  0  0  0  0  0  0  0  0  0  0  0
    0.3956   -1.5325    0.3507 C   0  0  0  0  0  0  0  0  0  0  0  0
    1.6235   -2.3591    0.5997 C   0  0  0  0  0  0  0  0  0  0  0  0
    2.6096   -1.5767    1.4600 C   0  0  0  0  0  0  0  0  0  0  0  0
    3.0851   -0.3777    0.7224 N   0  0  0  0  0  0  0  0  0  0  0  0
    2.4205    0.9087    0.7920 C   0  0  0  0  0  0  0  0  0  0  0  0
    1.2714    0.7965   -0.1602 C   0  0  0  0  0  0  0  0  0  0  0  0
    0.2546   -0.1663    0.2388 C   0  0  0  0  0  0  0  0  0  0  0  0
    4.2008   -0.6540   -0.0475 C   0  0  0  0  0  0  0  0  0  0  0  0
    4.0068   -1.4825   -1.1226 N   0  0  0  0  0  0  0  0  0  0  0  0
    5.0076   -1.9082   -1.9180 C   0  0  0  0  0  0  0  0  0  0  0  0
    6.3103   -1.5251   -1.6916 C   0  0  0  0  0  0  0  0  0  0  0  0
    6.5228   -0.6935   -0.6128 C   0  0  0  0  0  0  0  0  0  0  0  0
    5.4759   -0.2562    0.2075 C   0  0  0  0  0  0  0  0  0  0  0  0
    5.7983    0.6683    1.2995 C   0  0  0  0  0  0  0  0  0  0  0  0
    5.3474    0.3208    2.5431 F   0  0  0  0  0  0  0  0  0  0  0  0
    5.6745    2.0033    0.9727 F   0  0  0  0  0  0  0  0  0  0  0  0
    7.2343    0.5644    1.4985 F   0  0  0  0  0  0  0  0  0  0  0  0
   -3.1022   -2.5687    0.2201 N   0  0  0  0  0  0  0  0  0  0  0  0
   -2.8274   -3.9937    0.0836 C   0  0  0  0  0  0  0  0  0  0  0  0
   -4.1008   -4.7422   -0.1565 C   0  0  0  0  0  0  0  0  0  0  0  0
   -4.9530   -4.4004    0.9010 O   0  0  0  0  0  0  0  0  0  0  0  0
   -5.4678   -3.1404    0.6010 C   0  0  0  0  0  0  0  0  0  0  0  0
   -4.4385   -2.1052    0.3089 C   0  0  0  0  0  0  0  0  0  0  0  0
   -1.1000    4.2315    0.4401 C   0  0  0  0  0  0  0  0  0  0  0  0
   -1.7071    5.4024    0.3561 N   0  0  0  0  0  0  0  0  0  0  0  0
   -4.7541    4.3862   -0.4865 H   0  0  0  0  0  0  0  0  0  0  0  0
   -3.5974    2.2014   -0.3466 H   0  0  0  0  0  0  0  0  0  0  0  0
    0.0475    2.1358    0.8179 H   0  0  0  0  0  0  0  0  0  0  0  0
    2.0252   -2.8493   -0.2743 H   0  0  0  0  0  0  0  0  0  0  0  0
    1.2573   -3.1894    1.2977 H   0  0  0  0  0  0  0  0  0  0  0  0
    2.0546   -1.2260    2.3437 H   0  0  0  0  0  0  0  0  0  0  0  0
    3.4424   -2.2032    1.7308 H   0  0  0  0  0  0  0  0  0  0  0  0
    2.1101    1.1527    1.8097 H   0  0  0  0  0  0  0  0  0  0  0  0
    3.0490    1.7368    0.3625 H   0  0  0  0  0  0  0  0  0  0  0  0
    0.9498    1.7086   -0.6802 H   0  0  0  0  0  0  0  0  0  0  0  0
    1.7976    0.2633   -1.0859 H   0  0  0  0  0  0  0  0  0  0  0  0
    4.8196   -2.6092   -2.7591 H   0  0  0  0  0  0  0  0  0  0  0  0
    7.1413   -1.8492   -2.2997 H   0  0  0  0  0  0  0  0  0  0  0  0
    7.5425   -0.4068   -0.4368 H   0  0  0  0  0  0  0  0  0  0  0  0
   -2.2675   -4.3642    0.9637 H   0  0  0  0  0  0  0  0  0  0  0  0
   -2.0898   -4.0982   -0.7885 H   0  0  0  0  0  0  0  0  0  0  0  0
   -3.8517   -5.8211   -0.0759 H   0  0  0  0  0  0  0  0  0  0  0  0
   -4.5376   -4.4921   -1.1426 H   0  0  0  0  0  0  0  0  0  0  0  0
   -6.2201   -3.1812   -0.2362 H   0  0  0  0  0  0  0  0  0  0  0  0
   -6.0727   -2.8494    1.5062 H   0  0  0  0  0  0  0  0  0  0  0  0
   -4.6729   -1.6517   -0.7081 H   0  0  0  0  0  0  0  0  0  0  0  0
   -4.5277   -1.2164    1.0000 H   0  0  0  0  0  0  0  0  0  0  0  0
   -0.0494    4.2644    0.7053 H   0  0  0  0  0  0  0  0  0  0  0  0
  1  2  1  0
  2  3  1  0
  2  4  1  0
  2  5  1  0
  5  6  2  0
  6  7  1  0
  7  8  2  0
  8  9  1  0
  9 10  1  0
 10 11  2  0
 11 12  1  0
 12 13  2  0
 13 14  1  0
 14 15  1  0
 15 16  1  0
 16 17  1  0
 17 18  1  0
 18 19  1  0
 19 20  1  0
 17 21  1  0
 21 22  2  0
 22 23  1  0
 23 24  2  0
 24 25  1  0
 25 26  2  0
 26 27  1  0
 27 28  1  0
 27 29  1  0
 27 30  1  0
 12 31  1  0
 31 32  1  0
 32 33  1  0
 33 34  1  0
 34 35  1  0
 35 36  1  0
  8 37  1  0
 37 38  2  0
 38  5  1  0
 20 10  1  0
 26 21  1  0
 36 31  1  0
 20 14  2  0
  6 39  1  0
  7 40  1  0
  9 41  1  0
 15 42  1  0
 15 43  1  0
 16 44  1  0
 16 45  1  0
 18 46  1  0
 18 47  1  0
 19 48  1  0
 19 49  1  0
 23 50  1  0
 24 51  1  0
 25 52  1  0
 32 53  1  0
 32 54  1  0
 33 55  1  0
 33 56  1  0
 35 57  1  0
 35 58  1  0
 36 59  1  0
 36 60  1  0
 37 61  1  0
M  END
$$$$
[H]c1nc(N2C([H])([H])C([H])([H])c3nc(N4C([H])([H])C([H])([H])C([H])([H])C4([H])[H])nc(N([H])c4c([H])c([H])c(C(F)(F)F)c([H])c4[H])c3C([H])([H])C2([H])[H])c(C(F)(F)F)c([H])c1[H]
     RDKit          3D

 61 65  0  0  0  0  0  0  0  0999 V2000
   -4.6015    6.0769   -2.0092 F   0  0  0  0  0  0  0  0  0  0  0  0
   -4.5772    5.9317   -0.6389 C   0  0  0  0  0  0  0  0  0  0  0  0
   -3.9547    7.0832   -0.1270 F   0  0  0  0  0  0  0  0  0  0  0  0
   -5.8639    5.9226   -0.1888 F   0  0  0  0  0  0  0  0  0  0  0  0
   -3.8349    4.7200   -0.2297 C   0  0  0  0  0  0  0  0  0  0  0  0
   -2.6319    4.4384   -0.8562 C   0  0  0  0  0  0  0  0  0  0  0  0
   -1.8569    3.3716   -0.5395 C   0  0  0  0  0  0  0  0  0  0  0  0
   -2.2315    2.4425    0.4819 C   0  0  0  0  0  0  0  0  0  0  0  0
   -1.2507    1.5010    0.7917 N   0  0  0  0  0  0  0  0  0  0  0  0
   -1.1250    0.1921    0.3776 C   0  0  0  0  0  0  0  0  0  0  0  0
   -2.0658   -0.6452   -0.0152 N   0  0  0  0  0  0  0  0  0  0  0  0
   -1.8106   -1.9723   -0.2657 C   0  0  0  0  0  0  0  0  0  0  0  0
   -0.5504   -2.4323   -0.1010 N   0  0  0  0  0  0  0  0  0  0  0  0
    0.4829   -1.6411    0.3045 C   0  0  0  0  0  0  0  0  0  0  0  0
    1.6845   -2.4610    0.3524 C   0  0  0  0  0  0  0  0  0  0  0  0
    2.9829   -1.8292    0.5790 C   0  0  0  0  0  0  0  0  0  0  0  0
    3.1980   -0.4680    0.2126 N   0  0  0  0  0  0  0  0  0  0  0  0
    2.2856    0.5264   -0.2091 C   0  0  0  0  0  0  0  0  0  0  0  0
    1.1689    0.7300    0.8537 C   0  0  0  0  0  0  0  0  0  0  0  0
    0.1698   -0.3560    0.5311 C   0  0  0  0  0  0  0  0  0  0  0  0
    4.5431    0.0130    0.3245 C   0  0  0  0  0  0  0  0  0  0  0  0
    4.9203    0.3692    1.6102 N   0  0  0  0  0  0  0  0  0  0  0  0
    6.1781    0.7825    1.8402 C   0  0  0  0  0  0  0  0  0  0  0  0
    7.0861    0.8463    0.8070 C   0  0  0  0  0  0  0  0  0  0  0  0
    6.7079    0.4975   -0.4452 C   0  0  0  0  0  0  0  0  0  0  0  0
    5.3824    0.0600   -0.7180 C   0  0  0  0  0  0  0  0  0  0  0  0
    5.1033   -0.2609   -2.1230 C   0  0  0  0  0  0  0  0  0  0  0  0
    4.1780    0.6123   -2.6562 F   0  0  0  0  0  0  0  0  0  0  0  0
    4.7559   -1.5855   -2.3843 F   0  0  0  0  0  0  0  0  0  0  0  0
    6.2608   -0.0789   -2.9061 F   0  0  0  0  0  0  0  0  0  0  0  0
   -2.8174   -2.8608   -0.6723 N   0  0  0  0  0  0  0  0  0  0  0  0
   -4.2053   -2.7356   -0.9635 C   0  0  0  0  0  0  0  0  0  0  0  0
   -4.8120   -3.8617   -0.1282 C   0  0  0  0  0  0  0  0  0  0  0  0
   -3.7006   -4.8917   -0.0569 C   0  0  0  0  0  0  0  0  0  0  0  0
   -2.5782   -4.3201   -0.8941 C   0  0  0  0  0  0  0  0  0  0  0  0
   -3.4116    2.7142    1.0899 C   0  0  0  0  0  0  0  0  0  0  0  0
   -4.2188    3.8322    0.7574 C   0  0  0  0  0  0  0  0  0  0  0  0
   -2.2920    5.1248   -1.6312 H   0  0  0  0  0  0  0  0  0  0  0  0
   -0.9112    3.1620   -1.0669 H   0  0  0  0  0  0  0  0  0  0  0  0
   -0.5264    1.8640    1.5805 H   0  0  0  0  0  0  0  0  0  0  0  0
    1.5321   -3.2338    1.1945 H   0  0  0  0  0  0  0  0  0  0  0  0
    1.6504   -3.1772   -0.5539 H   0  0  0  0  0  0  0  0  0  0  0  0
    3.3216   -1.9505    1.6942 H   0  0  0  0  0  0  0  0  0  0  0  0
    3.7634   -2.4410    0.0800 H   0  0  0  0  0  0  0  0  0  0  0  0
    2.7296    1.5125   -0.3585 H   0  0  0  0  0  0  0  0  0  0  0  0
    1.7390    0.3105   -1.1528 H   0  0  0  0  0  0  0  0  0  0  0  0
    0.8329    1.7318    0.6489 H   0  0  0  0  0  0  0  0  0  0  0  0
    1.5072    0.5851    1.8759 H   0  0  0  0  0  0  0  0  0  0  0  0
    6.5171    1.0857    2.8514 H   0  0  0  0  0  0  0  0  0  0  0  0
    8.1429    1.1771    0.9621 H   0  0  0  0  0  0  0  0  0  0  0  0
    7.4212    0.5397   -1.2485 H   0  0  0  0  0  0  0  0  0  0  0  0
   -4.3054   -3.0849   -2.0374 H   0  0  0  0  0  0  0  0  0  0  0  0
   -4.6833   -1.7810   -0.7748 H   0  0  0  0  0  0  0  0  0  0  0  0
   -5.0599   -3.4719    0.8500 H   0  0  0  0  0  0  0  0  0  0  0  0
   -5.7110   -4.2637   -0.6004 H   0  0  0  0  0  0  0  0  0  0  0  0
   -3.3567   -5.0048    0.9879 H   0  0  0  0  0  0  0  0  0  0  0  0
   -4.0690   -5.8762   -0.4827 H   0  0  0  0  0  0  0  0  0  0  0  0
   -1.5653   -4.6281   -0.5509 H   0  0  0  0  0  0  0  0  0  0  0  0
   -2.7903   -4.5207   -1.9392 H   0  0  0  0  0  0  0  0  0  0  0  0
   -3.7611    2.0597    1.8883 H   0  0  0  0  0  0  0  0  0  0  0  0
   -5.1155    4.0176    1.3110 H   0  0  0  0  0  0  0  0  0  0  0  0
  1  2  1  0
  2  3  1  0
  2  4  1  0
  2  5  1  0
  5  6  2  0
  6  7  1  0
  7  8  2  0
  8  9  1  0
  9 10  1  0
 10 11  2  0
 11 12  1  0
 12 13  2  0
 13 14  1  0
 14 15  1  0
 15 16  1  0
 16 17  1  0
 17 18  1  0
 18 19  1  0
 19 20  1  0
 17 21  1  0
 21 22  2  0
 22 23  1  0
 23 24  2  0
 24 25  1  0
 25 26  2  0
 26 27  1  0
 27 28  1  0
 27 29  1  0
 27 30  1  0
 12 31  1  0
 31 32  1  0
 32 33  1  0
 33 34  1  0
 34 35  1  0
  8 36  1  0
 36 37  2  0
 37  5  1  0
 20 10  1  0
 26 21  1  0
 35 31  1  0
 20 14  2  0
  6 38  1  0
  7 39  1  0
  9 40  1  0
 15 41  1  0
 15 42  1  0
 16 43  1  0
 16 44  1  0
 18 45  1  0
 18 46  1  0
 19 47  1  0
 19 48  1  0
 23 49  1  0
 24 50  1  0
 25 51  1  0
 32 52  1  0
 32 53  1  0
 33 54  1  0
 33 55  1  0
 34 56  1  0
 34 57  1  0
 35 58  1  0
 35 59  1  0
 36 60  1  0
 37 61  1  0
M  END
$$$$
[H]c1nc(N2C([H])([H])C([H])([H])c3nc(N4C([H])([H])C([H])([H])C([H])([H])C([H])([H])C4([H])[H])nc(N([H])c4c([H])c([H])c(C(C([H])([H])[H])(C([H])([H])[H])C([H])([H])[H])c([H])c4[H])c3C([H])([H])C2([H])[H])c(C(F)(F)F)c([H])c1[H]
     RDKit          3D

 73 77  0  0  0  0  0  0  0  0999 V2000
   -7.1821   -1.7581   -0.3505 C   0  0  0  0  0  0  0  0  0  0  0  0
   -6.5417   -0.5148    0.2306 C   0  0  0  0  0  0  0  0  0  0  0  0
   -7.0510    0.6892   -0.4748 C   0  0  0  0  0  0  0  0  0  0  0  0
   -6.9854   -0.4520    1.6836 C   0  0  0  0  0  0  0  0  0  0  0  0
   -5.0687   -0.5876    0.1255 C   0  0  0  0  0  0  0  0  0  0  0  0
   -4.2874    0.4514    0.5297 C   0  0  0  0  0  0  0  0  0  0  0  0
   -2.8846    0.3928    0.4784 C   0  0  0  0  0  0  0  0  0  0  0  0
   -2.2447   -0.7143    0.0181 C   0  0  0  0  0  0  0  0  0  0  0  0
   -0.8521   -0.9345   -0.0565 N   0  0  0  0  0  0  0  0  0  0  0  0
    0.1903   -0.0100    0.0576 C   0  0  0  0  0  0  0  0  0  0  0  0
   -0.0042    1.2979   -0.0395 N   0  0  0  0  0  0  0  0  0  0  0  0
    0.9908    2.2313   -0.0738 C   0  0  0  0  0  0  0  0  0  0  0  0
    2.2212    1.7291   -0.0010 N   0  0  0  0  0  0  0  0  0  0  0  0
    2.5721    0.4270    0.1011 C   0  0  0  0  0  0  0  0  0  0  0  0
    4.0319    0.3627    0.1015 C   0  0  0  0  0  0  0  0  0  0  0  0
    4.7039   -0.7674    0.7814 C   0  0  0  0  0  0  0  0  0  0  0  0
    3.9427   -2.0061    0.6940 N   0  0  0  0  0  0  0  0  0  0  0  0
    2.6735   -2.2676    1.3247 C   0  0  0  0  0  0  0  0  0  0  0  0
    1.5661   -1.9255    0.3186 C   0  0  0  0  0  0  0  0  0  0  0  0
    1.5173   -0.4677    0.1337 C   0  0  0  0  0  0  0  0  0  0  0  0
    4.4455   -3.0857   -0.0697 C   0  0  0  0  0  0  0  0  0  0  0  0
    3.9845   -3.2195   -1.3532 N   0  0  0  0  0  0  0  0  0  0  0  0
    4.3985   -4.1814   -2.1803 C   0  0  0  0  0  0  0  0  0  0  0  0
    5.3329   -5.0843   -1.7270 C   0  0  0  0  0  0  0  0  0  0  0  0
    5.8034   -4.9631   -0.4427 C   0  0  0  0  0  0  0  0  0  0  0  0
    5.3757   -3.9566    0.4372 C   0  0  0  0  0  0  0  0  0  0  0  0
    5.9381   -3.9462    1.7845 C   0  0  0  0  0  0  0  0  0  0  0  0
    6.6431   -2.8160    2.1308 F   0  0  0  0  0  0  0  0  0  0  0  0
    6.8871   -4.9827    1.8713 F   0  0  0  0  0  0  0  0  0  0  0  0
    5.0118   -4.2775    2.7783 F   0  0  0  0  0  0  0  0  0  0  0  0
    0.7468    3.6226   -0.1923 N   0  0  0  0  0  0  0  0  0  0  0  0
    1.8573    4.5091    0.0593 C   0  0  0  0  0  0  0  0  0  0  0  0
    1.7482    5.8287   -0.6416 C   0  0  0  0  0  0  0  0  0  0  0  0
    0.3609    6.3158   -0.8406 C   0  0  0  0  0  0  0  0  0  0  0  0
   -0.4687    5.2647   -1.5254 C   0  0  0  0  0  0  0  0  0  0  0  0
   -0.5673    4.0794   -0.5756 C   0  0  0  0  0  0  0  0  0  0  0  0
   -3.0758   -1.7698   -0.3940 C   0  0  0  0  0  0  0  0  0  0  0  0
   -4.4376   -1.7179   -0.3454 C   0  0  0  0  0  0  0  0  0  0  0  0
   -6.8337   -2.6790    0.1874 H   0  0  0  0  0  0  0  0  0  0  0  0
   -7.0406   -1.8400   -1.4532 H   0  0  0  0  0  0  0  0  0  0  0  0
   -8.2734   -1.6856   -0.1860 H   0  0  0  0  0  0  0  0  0  0  0  0
   -6.7881    0.7036   -1.5477 H   0  0  0  0  0  0  0  0  0  0  0  0
   -6.6211    1.5820    0.0242 H   0  0  0  0  0  0  0  0  0  0  0  0
   -8.1565    0.7664   -0.3166 H   0  0  0  0  0  0  0  0  0  0  0  0
   -6.6684   -1.3403    2.2465 H   0  0  0  0  0  0  0  0  0  0  0  0
   -6.5458    0.4867    2.0806 H   0  0  0  0  0  0  0  0  0  0  0  0
   -8.0790   -0.3494    1.6977 H   0  0  0  0  0  0  0  0  0  0  0  0
   -4.7550    1.3627    0.9053 H   0  0  0  0  0  0  0  0  0  0  0  0
   -2.2925    1.2196    0.8112 H   0  0  0  0  0  0  0  0  0  0  0  0
   -0.5407   -1.9422   -0.2807 H   0  0  0  0  0  0  0  0  0  0  0  0
    4.4264    0.5030   -0.9453 H   0  0  0  0  0  0  0  0  0  0  0  0
    4.4047    1.3046    0.6253 H   0  0  0  0  0  0  0  0  0  0  0  0
    5.6587   -0.9455    0.2338 H   0  0  0  0  0  0  0  0  0  0  0  0
    4.9669   -0.5305    1.8359 H   0  0  0  0  0  0  0  0  0  0  0  0
    2.5839   -1.5358    2.1815 H   0  0  0  0  0  0  0  0  0  0  0  0
    2.5525   -3.2953    1.6919 H   0  0  0  0  0  0  0  0  0  0  0  0
    1.6743   -2.4217   -0.6384 H   0  0  0  0  0  0  0  0  0  0  0  0
    0.6366   -2.2688    0.8735 H   0  0  0  0  0  0  0  0  0  0  0  0
    4.0014   -4.2457   -3.1940 H   0  0  0  0  0  0  0  0  0  0  0  0
    5.6340   -5.8469   -2.4292 H   0  0  0  0  0  0  0  0  0  0  0  0
    6.5445   -5.6894   -0.1137 H   0  0  0  0  0  0  0  0  0  0  0  0
    2.8376    3.9991   -0.1774 H   0  0  0  0  0  0  0  0  0  0  0  0
    1.8850    4.6806    1.1531 H   0  0  0  0  0  0  0  0  0  0  0  0
    2.2372    5.7269   -1.6352 H   0  0  0  0  0  0  0  0  0  0  0  0
    2.3398    6.6245   -0.0964 H   0  0  0  0  0  0  0  0  0  0  0  0
    0.4199    7.1853   -1.5565 H   0  0  0  0  0  0  0  0  0  0  0  0
   -0.1273    6.7017    0.0797 H   0  0  0  0  0  0  0  0  0  0  0  0
   -1.4764    5.6404   -1.7165 H   0  0  0  0  0  0  0  0  0  0  0  0
    0.0605    4.9530   -2.4481 H   0  0  0  0  0  0  0  0  0  0  0  0
   -1.1439    3.2886   -1.1086 H   0  0  0  0  0  0  0  0  0  0  0  0
   -1.1268    4.3253    0.3231 H   0  0  0  0  0  0  0  0  0  0  0  0
   -2.6351   -2.6945   -0.7886 H   0  0  0  0  0  0  0  0  0  0  0  0
   -5.0519   -2.5388   -0.6745 H   0  0  0  0  0  0  0  0  0  0  0  0
  1  2  1  0
  2  3  1  0
  2  4  1  0
  2  5  1  0
  5  6  2  0
  6  7  1  0
  7  8  2  0
  8  9  1  0
  9 10  1  0
 10 11  2  0
 11 12  1  0
 12 13  2  0
 13 14  1  0
 14 15  1  0
 15 16  1  0
 16 17  1  0
 17 18  1  0
 18 19  1  0
 19 20  1  0
 17 21  1  0
 21 22  2  0
 22 23  1  0
 23 24  2  0
 24 25  1  0
 25 26  2  0
 26 27  1  0
 27 28  1  0
 27 29  1  0
 27 30  1  0
 12 31  1  0
 31 32  1  0
 32 33  1  0
 33 34  1  0
 34 35  1  0
 35 36  1  0
  8 37  1  0
 37 38  2  0
 38  5  1  0
 20 10  1  0
 26 21  1  0
 36 31  1  0
 20 14  2  0
  1 39  1  0
  1 40  1  0
  1 41  1  0
  3 42  1  0
  3 43  1  0
  3 44  1  0
  4 45  1  0
  4 46  1  0
  4 47  1  0
  6 48  1  0
  7 49  1  0
  9 50  1  0
 15 51  1  0
 15 52  1  0
 16 53  1  0
 16 54  1  0
 18 55  1  0
 18 56  1  0
 19 57  1  0
 19 58  1  0
 23 59  1  0
 24 60  1  0
 25 61  1  0
 32 62  1  0
 32 63  1  0
 33 64  1  0
 33 65  1  0
 34 66  1  0
 34 67  1  0
 35 68  1  0
 35 69  1  0
 36 70  1  0
 36 71  1  0
 37 72  1  0
 38 73  1  0
M  END
$$$$
[H]c1nc(N2C([H])([H])C([H])([H])c3nc(N4C([H])([H])C([H])([H])C([H])([H])C([H])([H])C4([H])[H])nc(N([H])c4nc([H])c(C(F)(F)F)c([H])c4[H])c3C([H])([H])C2([H])[H])c(C(F)(F)F)c([H])c1[H]
     RDKit          3D

 63 67  0  0  0  0  0  0  0  0999 V2000
    2.2779    7.9122    0.7391 F   0  0  0  0  0  0  0  0  0  0  0  0
    2.5542    7.0462   -0.3114 C   0  0  0  0  0  0  0  0  0  0  0  0
    3.8601    7.1367   -0.6464 F   0  0  0  0  0  0  0  0  0  0  0  0
    1.7381    7.4752   -1.3664 F   0  0  0  0  0  0  0  0  0  0  0  0
    2.0907    5.6910    0.0145 C   0  0  0  0  0  0  0  0  0  0  0  0
    2.3585    4.5944   -0.7890 C   0  0  0  0  0  0  0  0  0  0  0  0
    1.8769    3.3431   -0.4719 C   0  0  0  0  0  0  0  0  0  0  0  0
    1.1071    3.1545    0.6550 C   0  0  0  0  0  0  0  0  0  0  0  0
    0.4740    1.9642    0.9939 N   0  0  0  0  0  0  0  0  0  0  0  0
    0.6020    0.6468    0.5568 C   0  0  0  0  0  0  0  0  0  0  0  0
    1.7780    0.0880    0.2880 N   0  0  0  0  0  0  0  0  0  0  0  0
    1.9052   -1.2582    0.1050 C   0  0  0  0  0  0  0  0  0  0  0  0
    0.8428   -2.1028    0.1741 N   0  0  0  0  0  0  0  0  0  0  0  0
   -0.3607   -1.5882    0.4297 C   0  0  0  0  0  0  0  0  0  0  0  0
   -1.4420   -2.6380    0.3833 C   0  0  0  0  0  0  0  0  0  0  0  0
   -2.4079   -2.1800   -0.7082 C   0  0  0  0  0  0  0  0  0  0  0  0
   -3.1237   -1.0055   -0.3171 N   0  0  0  0  0  0  0  0  0  0  0  0
   -2.6815    0.3769   -0.3273 C   0  0  0  0  0  0  0  0  0  0  0  0
   -1.6886    0.5660    0.8612 C   0  0  0  0  0  0  0  0  0  0  0  0
   -0.4797   -0.2435    0.6237 C   0  0  0  0  0  0  0  0  0  0  0  0
   -4.4391   -1.1853    0.1715 C   0  0  0  0  0  0  0  0  0  0  0  0
   -4.5941   -1.5117    1.5133 N   0  0  0  0  0  0  0  0  0  0  0  0
   -5.7816   -1.7152    2.0713 C   0  0  0  0  0  0  0  0  0  0  0  0
   -6.8822   -1.5969    1.2557 C   0  0  0  0  0  0  0  0  0  0  0  0
   -6.7605   -1.2781   -0.0736 C   0  0  0  0  0  0  0  0  0  0  0  0
   -5.5163   -1.0572   -0.6617 C   0  0  0  0  0  0  0  0  0  0  0  0
   -5.4301   -0.6818   -2.0662 C   0  0  0  0  0  0  0  0  0  0  0  0
   -4.6893   -1.4857   -2.8730 F   0  0  0  0  0  0  0  0  0  0  0  0
   -5.1373    0.6488   -2.3215 F   0  0  0  0  0  0  0  0  0  0  0  0
   -6.7518   -0.8043   -2.6048 F   0  0  0  0  0  0  0  0  0  0  0  0
    3.1707   -1.9356   -0.0073 N   0  0  0  0  0  0  0  0  0  0  0  0
    4.2125   -1.4868    0.9160 C   0  0  0  0  0  0  0  0  0  0  0  0
    5.3517   -2.4792    0.9172 C   0  0  0  0  0  0  0  0  0  0  0  0
    5.8789   -2.6875   -0.4944 C   0  0  0  0  0  0  0  0  0  0  0  0
    4.8127   -3.1047   -1.4419 C   0  0  0  0  0  0  0  0  0  0  0  0
    3.4284   -2.9885   -0.9136 C   0  0  0  0  0  0  0  0  0  0  0  0
    0.8719    4.2571    1.4320 N   0  0  0  0  0  0  0  0  0  0  0  0
    1.3312    5.4819    1.1503 C   0  0  0  0  0  0  0  0  0  0  0  0
    2.9653    4.7641   -1.6921 H   0  0  0  0  0  0  0  0  0  0  0  0
    2.0993    2.5104   -1.1162 H   0  0  0  0  0  0  0  0  0  0  0  0
   -0.2382    2.0575    1.8268 H   0  0  0  0  0  0  0  0  0  0  0  0
   -1.0429   -3.6070    0.0823 H   0  0  0  0  0  0  0  0  0  0  0  0
   -1.8964   -2.6658    1.3696 H   0  0  0  0  0  0  0  0  0  0  0  0
   -1.7679   -1.9855   -1.6223 H   0  0  0  0  0  0  0  0  0  0  0  0
   -3.1026   -2.9661   -1.0016 H   0  0  0  0  0  0  0  0  0  0  0  0
   -2.1567    0.5996   -1.2678 H   0  0  0  0  0  0  0  0  0  0  0  0
   -3.4850    1.0713   -0.0710 H   0  0  0  0  0  0  0  0  0  0  0  0
   -1.5536    1.6372    0.8923 H   0  0  0  0  0  0  0  0  0  0  0  0
   -2.2177    0.1828    1.7437 H   0  0  0  0  0  0  0  0  0  0  0  0
   -5.8344   -1.9592    3.1039 H   0  0  0  0  0  0  0  0  0  0  0  0
   -7.8462   -1.7914    1.7293 H   0  0  0  0  0  0  0  0  0  0  0  0
   -7.6530   -1.1914   -0.6952 H   0  0  0  0  0  0  0  0  0  0  0  0
    3.7408   -1.5798    1.9555 H   0  0  0  0  0  0  0  0  0  0  0  0
    4.5111   -0.4551    0.7898 H   0  0  0  0  0  0  0  0  0  0  0  0
    5.0101   -3.4634    1.2861 H   0  0  0  0  0  0  0  0  0  0  0  0
    6.1989   -2.0501    1.5086 H   0  0  0  0  0  0  0  0  0  0  0  0
    6.6719   -3.4639   -0.4300 H   0  0  0  0  0  0  0  0  0  0  0  0
    6.3533   -1.6996   -0.7975 H   0  0  0  0  0  0  0  0  0  0  0  0
    4.9700   -4.1908   -1.7379 H   0  0  0  0  0  0  0  0  0  0  0  0
    4.8992   -2.4682   -2.3556 H   0  0  0  0  0  0  0  0  0  0  0  0
    3.1995   -3.9465   -0.3645 H   0  0  0  0  0  0  0  0  0  0  0  0
    2.6913   -3.0077   -1.7633 H   0  0  0  0  0  0  0  0  0  0  0  0
    1.1267    6.3007    1.7713 H   0  0  0  0  0  0  0  0  0  0  0  0
  1  2  1  0
  2  3  1  0
  2  4  1  0
  2  5  1  0
  5  6  2  0
  6  7  1  0
  7  8  2  0
  8  9  1  0
  9 10  1  0
 10 11  2  0
 11 12  1  0
 12 13  2  0
 13 14  1  0
 14 15  1  0
 15 16  1  0
 16 17  1  0
 17 18  1  0
 18 19  1  0
 19 20  1  0
 17 21  1  0
 21 22  2  0
 22 23  1  0
 23 24  2  0
 24 25  1  0
 25 26  2  0
 26 27  1  0
 27 28  1  0
 27 29  1  0
 27 30  1  0
 12 31  1  0
 31 32  1  0
 32 33  1  0
 33 34  1  0
 34 35  1  0
 35 36  1  0
  8 37  1  0
 37 38  2  0
 38  5  1  0
 20 10  1  0
 26 21  1  0
 36 31  1  0
 20 14  2  0
  6 39  1  0
  7 40  1  0
  9 41  1  0
 15 42  1  0
 15 43  1  0
 16 44  1  0
 16 45  1  0
 18 46  1  0
 18 47  1  0
 19 48  1  0
 19 49  1  0
 23 50  1  0
 24 51  1  0
 25 52  1  0
 32 53  1  0
 32 54  1  0
 33 55  1  0
 33 56  1  0
 34 57  1  0
 34 58  1  0
 35 59  1  0
 35 60  1  0
 36 61  1  0
 36 62  1  0
 38 63  1  0
M  END
$$$$
[H]c1nc(N2C([H])([H])C([H])([H])c3nc(N4C([H])([H])C([H])([H])C([H])([H])C([H])([H])C4([H])[H])nc(N([H])c4c([H])nc(C(F)(F)F)c([H])c4[H])c3C([H])([H])C2([H])[H])c(C(F)(F)F)c([H])c1[H]
     RDKit          3D

 63 67  0  0  0  0  0  0  0  0999 V2000
    3.5195    7.6899    1.2258 F   0  0  0  0  0  0  0  0  0  0  0  0
    3.7482    6.8296    0.1653 C   0  0  0  0  0  0  0  0  0  0  0  0
    5.0886    6.5062    0.1507 F   0  0  0  0  0  0  0  0  0  0  0  0
    3.4680    7.5013   -1.0120 F   0  0  0  0  0  0  0  0  0  0  0  0
    2.8962    5.6242    0.3060 C   0  0  0  0  0  0  0  0  0  0  0  0
    3.0091    4.5599   -0.5847 C   0  0  0  0  0  0  0  0  0  0  0  0
    2.1950    3.4498   -0.4808 C   0  0  0  0  0  0  0  0  0  0  0  0
    1.2455    3.3948    0.5271 C   0  0  0  0  0  0  0  0  0  0  0  0
    0.3355    2.3476    0.7049 N   0  0  0  0  0  0  0  0  0  0  0  0
    0.4176    0.9892    0.4405 C   0  0  0  0  0  0  0  0  0  0  0  0
    1.6287    0.4168    0.2479 N   0  0  0  0  0  0  0  0  0  0  0  0
    1.8001   -0.9226    0.1477 C   0  0  0  0  0  0  0  0  0  0  0  0
    0.7701   -1.7587    0.2365 N   0  0  0  0  0  0  0  0  0  0  0  0
   -0.4735   -1.2774    0.4270 C   0  0  0  0  0  0  0  0  0  0  0  0
   -1.4616   -2.3825    0.5733 C   0  0  0  0  0  0  0  0  0  0  0  0
   -2.5539   -2.2278   -0.4371 C   0  0  0  0  0  0  0  0  0  0  0  0
   -3.3853   -1.0503   -0.1712 N   0  0  0  0  0  0  0  0  0  0  0  0
   -3.0352    0.3085   -0.2735 C   0  0  0  0  0  0  0  0  0  0  0  0
   -1.9281    0.8075    0.6354 C   0  0  0  0  0  0  0  0  0  0  0  0
   -0.6572    0.0924    0.5267 C   0  0  0  0  0  0  0  0  0  0  0  0
   -4.7226   -1.3876    0.2206 C   0  0  0  0  0  0  0  0  0  0  0  0
   -4.9544   -1.4785    1.5740 N   0  0  0  0  0  0  0  0  0  0  0  0
   -6.1763   -1.8001    2.0273 C   0  0  0  0  0  0  0  0  0  0  0  0
   -7.1873   -2.0379    1.1342 C   0  0  0  0  0  0  0  0  0  0  0  0
   -6.9723   -1.9552   -0.2155 C   0  0  0  0  0  0  0  0  0  0  0  0
   -5.6968   -1.6149   -0.7116 C   0  0  0  0  0  0  0  0  0  0  0  0
   -5.5000   -1.4937   -2.1576 C   0  0  0  0  0  0  0  0  0  0  0  0
   -4.5978   -2.3066   -2.7460 F   0  0  0  0  0  0  0  0  0  0  0  0
   -5.2813   -0.1585   -2.5453 F   0  0  0  0  0  0  0  0  0  0  0  0
   -6.7358   -1.7744   -2.7853 F   0  0  0  0  0  0  0  0  0  0  0  0
    3.0722   -1.5529    0.0044 N   0  0  0  0  0  0  0  0  0  0  0  0
    4.2789   -0.9572    0.5677 C   0  0  0  0  0  0  0  0  0  0  0  0
    5.3455   -2.0298    0.6302 C   0  0  0  0  0  0  0  0  0  0  0  0
    5.6899   -2.5536   -0.7460 C   0  0  0  0  0  0  0  0  0  0  0  0
    4.4548   -2.8895   -1.5430 C   0  0  0  0  0  0  0  0  0  0  0  0
    3.2244   -2.8149   -0.6808 C   0  0  0  0  0  0  0  0  0  0  0  0
    1.1846    4.4778    1.3787 C   0  0  0  0  0  0  0  0  0  0  0  0
    1.9673    5.5503    1.2812 N   0  0  0  0  0  0  0  0  0  0  0  0
    3.7815    4.6746   -1.3357 H   0  0  0  0  0  0  0  0  0  0  0  0
    2.3120    2.6197   -1.1802 H   0  0  0  0  0  0  0  0  0  0  0  0
   -0.5959    2.6525    1.1657 H   0  0  0  0  0  0  0  0  0  0  0  0
   -0.9517   -3.3557    0.4008 H   0  0  0  0  0  0  0  0  0  0  0  0
   -1.7928   -2.3814    1.6388 H   0  0  0  0  0  0  0  0  0  0  0  0
   -2.0769   -2.1240   -1.4280 H   0  0  0  0  0  0  0  0  0  0  0  0
   -3.1802   -3.1498   -0.4265 H   0  0  0  0  0  0  0  0  0  0  0  0
   -2.7632    0.5448   -1.3233 H   0  0  0  0  0  0  0  0  0  0  0  0
   -3.9237    0.9336    0.0096 H   0  0  0  0  0  0  0  0  0  0  0  0
   -1.7804    1.8693    0.2533 H   0  0  0  0  0  0  0  0  0  0  0  0
   -2.2929    0.8738    1.6471 H   0  0  0  0  0  0  0  0  0  0  0  0
   -6.3448   -1.8645    3.1247 H   0  0  0  0  0  0  0  0  0  0  0  0
   -8.1816   -2.2994    1.5062 H   0  0  0  0  0  0  0  0  0  0  0  0
   -7.7581   -2.1439   -0.9477 H   0  0  0  0  0  0  0  0  0  0  0  0
    4.0117   -0.6916    1.6323 H   0  0  0  0  0  0  0  0  0  0  0  0
    4.5979   -0.0633    0.0519 H   0  0  0  0  0  0  0  0  0  0  0  0
    4.9707   -2.9211    1.2096 H   0  0  0  0  0  0  0  0  0  0  0  0
    6.2814   -1.6534    1.0849 H   0  0  0  0  0  0  0  0  0  0  0  0
    6.2775   -3.4906   -0.6007 H   0  0  0  0  0  0  0  0  0  0  0  0
    6.3465   -1.8269   -1.2752 H   0  0  0  0  0  0  0  0  0  0  0  0
    4.4930   -3.9067   -1.9775 H   0  0  0  0  0  0  0  0  0  0  0  0
    4.3866   -2.1482   -2.3693 H   0  0  0  0  0  0  0  0  0  0  0  0
    3.3855   -3.5916    0.1257 H   0  0  0  0  0  0  0  0  0  0  0  0
    2.3077   -3.1368   -1.1945 H   0  0  0  0  0  0  0  0  0  0  0  0
    0.4702    4.4595    2.1654 H   0  0  0  0  0  0  0  0  0  0  0  0
  1  2  1  0
  2  3  1  0
  2  4  1  0
  2  5  1  0
  5  6  2  0
  6  7  1  0
  7  8  2  0
  8  9  1  0
  9 10  1  0
 10 11  2  0
 11 12  1  0
 12 13  2  0
 13 14  1  0
 14 15  1  0
 15 16  1  0
 16 17  1  0
 17 18  1  0
 18 19  1  0
 19 20  1  0
 17 21  1  0
 21 22  2  0
 22 23  1  0
 23 24  2  0
 24 25  1  0
 25 26  2  0
 26 27  1  0
 27 28  1  0
 27 29  1  0
 27 30  1  0
 12 31  1  0
 31 32  1  0
 32 33  1  0
 33 34  1  0
 34 35  1  0
 35 36  1  0
  8 37  1  0
 37 38  2  0
 38  5  1  0
 20 10  1  0
 26 21  1  0
 36 31  1  0
 20 14  2  0
  6 39  1  0
  7 40  1  0
  9 41  1  0
 15 42  1  0
 15 43  1  0
 16 44  1  0
 16 45  1  0
 18 46  1  0
 18 47  1  0
 19 48  1  0
 19 49  1  0
 23 50  1  0
 24 51  1  0
 25 52  1  0
 32 53  1  0
 32 54  1  0
 33 55  1  0
 33 56  1  0
 34 57  1  0
 34 58  1  0
 35 59  1  0
 35 60  1  0
 36 61  1  0
 36 62  1  0
 37 63  1  0
M  END
$$$$
[H]c1nc(N2C([H])([H])C([H])([H])N(C(=O)N([H])c3c([H])c([H])c(C(C([H])([H])[H])(C([H])([H])[H])C([H])([H])[H])c([H])c3[H])C([H])([H])C2([H])[H])c(C(F)(F)F)c([H])c1[H]
     RDKit          3D

 54 56  0  0  0  0  0  0  0  0999 V2000
   -6.6287    1.7817   -0.8810 C   0  0  0  0  0  0  0  0  0  0  0  0
   -6.5268    0.3202   -0.4138 C   0  0  0  0  0  0  0  0  0  0  0  0
   -7.3406    0.2125    0.8461 C   0  0  0  0  0  0  0  0  0  0  0  0
   -7.0773   -0.5658   -1.4822 C   0  0  0  0  0  0  0  0  0  0  0  0
   -5.0736   -0.0039   -0.1976 C   0  0  0  0  0  0  0  0  0  0  0  0
   -4.4576   -1.0648   -0.8086 C   0  0  0  0  0  0  0  0  0  0  0  0
   -3.1110   -1.2771   -0.5760 C   0  0  0  0  0  0  0  0  0  0  0  0
   -2.3350   -0.4826    0.2402 C   0  0  0  0  0  0  0  0  0  0  0  0
   -0.9571   -0.7955    0.3695 N   0  0  0  0  0  0  0  0  0  0  0  0
    0.0531    0.1642    0.5591 C   0  0  0  0  0  0  0  0  0  0  0  0
   -0.3049    1.3922    0.6188 O   0  0  0  0  0  0  0  0  0  0  0  0
    1.4299   -0.0706    0.6853 N   0  0  0  0  0  0  0  0  0  0  0  0
    1.9905   -1.3725    0.6775 C   0  0  0  0  0  0  0  0  0  0  0  0
    3.5021   -1.4721    0.5733 C   0  0  0  0  0  0  0  0  0  0  0  0
    4.1931   -0.2692    0.3046 N   0  0  0  0  0  0  0  0  0  0  0  0
    3.3706    0.8114   -0.3323 C   0  0  0  0  0  0  0  0  0  0  0  0
    2.3541    1.0906    0.7971 C   0  0  0  0  0  0  0  0  0  0  0  0
    5.5038    0.1357    0.5543 C   0  0  0  0  0  0  0  0  0  0  0  0
    5.6947    1.1967    1.4221 N   0  0  0  0  0  0  0  0  0  0  0  0
    6.8599    1.7467    1.7058 C   0  0  0  0  0  0  0  0  0  0  0  0
    8.0083    1.2646    1.1200 C   0  0  0  0  0  0  0  0  0  0  0  0
    7.9037    0.2179    0.2532 C   0  0  0  0  0  0  0  0  0  0  0  0
    6.6301   -0.3422   -0.0216 C   0  0  0  0  0  0  0  0  0  0  0  0
    6.6131   -1.5125   -0.9303 C   0  0  0  0  0  0  0  0  0  0  0  0
    6.2993   -2.6951   -0.3005 F   0  0  0  0  0  0  0  0  0  0  0  0
    7.8599   -1.6774   -1.5021 F   0  0  0  0  0  0  0  0  0  0  0  0
    5.7574   -1.2847   -2.0090 F   0  0  0  0  0  0  0  0  0  0  0  0
   -2.9554    0.5652    0.8426 C   0  0  0  0  0  0  0  0  0  0  0  0
   -4.3214    0.8092    0.6277 C   0  0  0  0  0  0  0  0  0  0  0  0
   -6.8590    1.8493   -1.9649 H   0  0  0  0  0  0  0  0  0  0  0  0
   -5.6588    2.2820   -0.6508 H   0  0  0  0  0  0  0  0  0  0  0  0
   -7.4088    2.3362   -0.3367 H   0  0  0  0  0  0  0  0  0  0  0  0
   -7.3596    1.2076    1.3782 H   0  0  0  0  0  0  0  0  0  0  0  0
   -8.4007    0.0416    0.5294 H   0  0  0  0  0  0  0  0  0  0  0  0
   -6.9889   -0.5861    1.5163 H   0  0  0  0  0  0  0  0  0  0  0  0
   -7.2493   -1.6015   -1.1259 H   0  0  0  0  0  0  0  0  0  0  0  0
   -8.0634   -0.1489   -1.8386 H   0  0  0  0  0  0  0  0  0  0  0  0
   -6.4349   -0.5524   -2.3942 H   0  0  0  0  0  0  0  0  0  0  0  0
   -5.0319   -1.7122   -1.4666 H   0  0  0  0  0  0  0  0  0  0  0  0
   -2.6517   -2.1228   -1.0695 H   0  0  0  0  0  0  0  0  0  0  0  0
   -0.6155   -1.8057    0.3232 H   0  0  0  0  0  0  0  0  0  0  0  0
    1.6803   -2.0244    1.5308 H   0  0  0  0  0  0  0  0  0  0  0  0
    1.5643   -1.9171   -0.2299 H   0  0  0  0  0  0  0  0  0  0  0  0
    3.6576   -2.2920   -0.1938 H   0  0  0  0  0  0  0  0  0  0  0  0
    3.9007   -1.9345    1.5150 H   0  0  0  0  0  0  0  0  0  0  0  0
    3.9440    1.6912   -0.5613 H   0  0  0  0  0  0  0  0  0  0  0  0
    2.8386    0.4422   -1.1972 H   0  0  0  0  0  0  0  0  0  0  0  0
    2.7956    1.0241    1.7848 H   0  0  0  0  0  0  0  0  0  0  0  0
    1.8352    2.0221    0.5959 H   0  0  0  0  0  0  0  0  0  0  0  0
    7.0018    2.5797    2.3840 H   0  0  0  0  0  0  0  0  0  0  0  0
    8.9781    1.7103    1.3417 H   0  0  0  0  0  0  0  0  0  0  0  0
    8.7888   -0.1884   -0.2309 H   0  0  0  0  0  0  0  0  0  0  0  0
   -2.4210    1.2131    1.5078 H   0  0  0  0  0  0  0  0  0  0  0  0
   -4.7756    1.6638    1.1257 H   0  0  0  0  0  0  0  0  0  0  0  0
  1  2  1  0
  2  3  1  0
  2  4  1  0
  2  5  1  0
  5  6  2  0
  6  7  1  0
  7  8  2  0
  8  9  1  0
  9 10  1  0
 10 11  2  0
 10 12  1  0
 12 13  1  0
 13 14  1  0
 14 15  1  0
 15 16  1  0
 16 17  1  0
 15 18  1  0
 18 19  2  0
 19 20  1  0
 20 21  2  0
 21 22  1  0
 22 23  2  0
 23 24  1  0
 24 25  1  0
 24 26  1  0
 24 27  1  0
  8 28  1  0
 28 29  2  0
 29  5  1  0
 17 12  1  0
 23 18  1  0
  1 30  1  0
  1 31  1  0
  1 32  1  0
  3 33  1  0
  3 34  1  0
  3 35  1  0
  4 36  1  0
  4 37  1  0
  4 38  1  0
  6 39  1  0
  7 40  1  0
  9 41  1  0
 13 42  1  0
 13 43  1  0
 14 44  1  0
 14 45  1  0
 16 46  1  0
 16 47  1  0
 17 48  1  0
 17 49  1  0
 20 50  1  0
 21 51  1  0
 22 52  1  0
 28 53  1  0
 29 54  1  0
M  END
$$$$
[H]c1nc(N2C([H])([H])C([H])([H])c3nc(-c4c([H])c([H])nc([H])c4[H])nc(N([H])c4c([H])c([H])c(C(F)(F)F)c([H])c4[H])c3C([H])([H])C2([H])[H])c(C(F)(F)F)c([H])c1[H]
     RDKit          3D

 58 62  0  0  0  0  0  0  0  0999 V2000
    6.6133    4.1199    1.3156 F   0  0  0  0  0  0  0  0  0  0  0  0
    6.5187    3.8840   -0.0475 C   0  0  0  0  0  0  0  0  0  0  0  0
    7.6193    3.3136   -0.5819 F   0  0  0  0  0  0  0  0  0  0  0  0
    6.3216    5.1031   -0.7147 F   0  0  0  0  0  0  0  0  0  0  0  0
    5.2799    3.0865   -0.2258 C   0  0  0  0  0  0  0  0  0  0  0  0
    4.0951    3.7985   -0.3312 C   0  0  0  0  0  0  0  0  0  0  0  0
    2.9008    3.1246   -0.4695 C   0  0  0  0  0  0  0  0  0  0  0  0
    2.8112    1.7139   -0.5094 C   0  0  0  0  0  0  0  0  0  0  0  0
    1.5311    1.1186   -0.6228 N   0  0  0  0  0  0  0  0  0  0  0  0
    1.0782   -0.1484   -0.3633 C   0  0  0  0  0  0  0  0  0  0  0  0
    1.8728   -1.2174   -0.2251 N   0  0  0  0  0  0  0  0  0  0  0  0
    1.3903   -2.4588   -0.1312 C   0  0  0  0  0  0  0  0  0  0  0  0
    0.0679   -2.6493   -0.1795 N   0  0  0  0  0  0  0  0  0  0  0  0
   -0.8511   -1.6519   -0.3165 C   0  0  0  0  0  0  0  0  0  0  0  0
   -2.1982   -2.2205   -0.4233 C   0  0  0  0  0  0  0  0  0  0  0  0
   -3.2910   -1.4853    0.2465 C   0  0  0  0  0  0  0  0  0  0  0  0
   -3.2030   -0.0636    0.2101 N   0  0  0  0  0  0  0  0  0  0  0  0
   -2.1009    0.7217    0.7539 C   0  0  0  0  0  0  0  0  0  0  0  0
   -1.0607    0.8917   -0.3639 C   0  0  0  0  0  0  0  0  0  0  0  0
   -0.3050   -0.3883   -0.4013 C   0  0  0  0  0  0  0  0  0  0  0  0
   -4.1917    0.7725   -0.3665 C   0  0  0  0  0  0  0  0  0  0  0  0
   -4.0165    1.2440   -1.6440 N   0  0  0  0  0  0  0  0  0  0  0  0
   -4.8751    2.0289   -2.2814 C   0  0  0  0  0  0  0  0  0  0  0  0
   -6.0489    2.4435   -1.6823 C   0  0  0  0  0  0  0  0  0  0  0  0
   -6.2709    2.0014   -0.4093 C   0  0  0  0  0  0  0  0  0  0  0  0
   -5.3524    1.1652    0.2601 C   0  0  0  0  0  0  0  0  0  0  0  0
   -5.6791    0.7772    1.6244 C   0  0  0  0  0  0  0  0  0  0  0  0
   -5.7877   -0.5770    1.8533 F   0  0  0  0  0  0  0  0  0  0  0  0
   -6.9518    1.2779    1.9536 F   0  0  0  0  0  0  0  0  0  0  0  0
   -4.8526    1.3740    2.5735 F   0  0  0  0  0  0  0  0  0  0  0  0
    2.2055   -3.6716    0.0499 C   0  0  0  0  0  0  0  0  0  0  0  0
    3.5659   -3.6574    0.0955 C   0  0  0  0  0  0  0  0  0  0  0  0
    4.2522   -4.8415    0.3137 C   0  0  0  0  0  0  0  0  0  0  0  0
    3.6415   -6.0201    0.4817 N   0  0  0  0  0  0  0  0  0  0  0  0
    2.3148   -6.0559    0.4388 C   0  0  0  0  0  0  0  0  0  0  0  0
    1.5945   -4.9032    0.2262 C   0  0  0  0  0  0  0  0  0  0  0  0
    3.9976    1.0517   -0.4057 C   0  0  0  0  0  0  0  0  0  0  0  0
    5.2250    1.7099   -0.2639 C   0  0  0  0  0  0  0  0  0  0  0  0
    4.1135    4.9052   -0.3127 H   0  0  0  0  0  0  0  0  0  0  0  0
    2.0086    3.6888   -0.5540 H   0  0  0  0  0  0  0  0  0  0  0  0
    0.8159    1.7982   -1.1038 H   0  0  0  0  0  0  0  0  0  0  0  0
   -2.1761   -3.2531    0.0402 H   0  0  0  0  0  0  0  0  0  0  0  0
   -2.4120   -2.3253   -1.5332 H   0  0  0  0  0  0  0  0  0  0  0  0
   -3.2765   -1.8150    1.3268 H   0  0  0  0  0  0  0  0  0  0  0  0
   -4.2572   -1.8324   -0.2075 H   0  0  0  0  0  0  0  0  0  0  0  0
   -2.4224    1.7199    1.0417 H   0  0  0  0  0  0  0  0  0  0  0  0
   -1.6243    0.1655    1.5450 H   0  0  0  0  0  0  0  0  0  0  0  0
   -1.4936    1.1000   -1.3169 H   0  0  0  0  0  0  0  0  0  0  0  0
   -0.4311    1.7661   -0.0571 H   0  0  0  0  0  0  0  0  0  0  0  0
   -4.6965    2.3859   -3.2904 H   0  0  0  0  0  0  0  0  0  0  0  0
   -6.7496    3.0929   -2.2030 H   0  0  0  0  0  0  0  0  0  0  0  0
   -7.1769    2.3123    0.0742 H   0  0  0  0  0  0  0  0  0  0  0  0
    4.1068   -2.7544   -0.0406 H   0  0  0  0  0  0  0  0  0  0  0  0
    5.3517   -4.8378    0.3583 H   0  0  0  0  0  0  0  0  0  0  0  0
    1.7436   -6.9900    0.5638 H   0  0  0  0  0  0  0  0  0  0  0  0
    0.5187   -4.9565    0.1976 H   0  0  0  0  0  0  0  0  0  0  0  0
    4.0333   -0.0321   -0.4287 H   0  0  0  0  0  0  0  0  0  0  0  0
    6.1635    1.1498   -0.1779 H   0  0  0  0  0  0  0  0  0  0  0  0
  1  2  1  0
  2  3  1  0
  2  4  1  0
  2  5  1  0
  5  6  2  0
  6  7  1  0
  7  8  2  0
  8  9  1  0
  9 10  1  0
 10 11  2  0
 11 12  1  0
 12 13  2  0
 13 14  1  0
 14 15  1  0
 15 16  1  0
 16 17  1  0
 17 18  1  0
 18 19  1  0
 19 20  1  0
 17 21  1  0
 21 22  2  0
 22 23  1  0
 23 24  2  0
 24 25  1  0
 25 26  2  0
 26 27  1  0
 27 28  1  0
 27 29  1  0
 27 30  1  0
 12 31  1  0
 31 32  2  0
 32 33  1  0
 33 34  2  0
 34 35  1  0
 35 36  2  0
  8 37  1  0
 37 38  2  0
 38  5  1  0
 20 10  1  0
 26 21  1  0
 36 31  1  0
 20 14  2  0
  6 39  1  0
  7 40  1  0
  9 41  1  0
 15 42  1  0
 15 43  1  0
 16 44  1  0
 16 45  1  0
 18 46  1  0
 18 47  1  0
 19 48  1  0
 19 49  1  0
 23 50  1  0
 24 51  1  0
 25 52  1  0
 32 53  1  0
 33 54  1  0
 35 55  1  0
 36 56  1  0
 37 57  1  0
 38 58  1  0
M  END
$$$$
[H]c1c([H])c(C([H])(C(=O)N([H])C([H])([H])c2c([H])c([H])c(C(C([H])([H])[H])(C([H])([H])[H])C([H])([H])[H])c([H])c2[H])C([H])([H])[H])c([H])c(F)c1N([H])S(=O)(=O)C([H])([H])[H]
     RDKit          3D

 55 56  0  0  0  0  0  0  0  0999 V2000
    0.9489    1.0255    2.1190 C   0  0  0  0  0  0  0  0  0  0  0  0
    1.4074   -0.3032    1.6173 C   0  0  0  0  0  0  0  0  0  0  0  0
    0.3900   -1.0359    0.8381 C   0  0  0  0  0  0  0  0  0  0  0  0
   -0.4807   -1.7226    1.4894 O   0  0  0  0  0  0  0  0  0  0  0  0
    0.3286   -1.0328   -0.5463 N   0  0  0  0  0  0  0  0  0  0  0  0
   -0.7136   -1.7918   -1.2141 C   0  0  0  0  0  0  0  0  0  0  0  0
   -2.0498   -1.1493   -1.0457 C   0  0  0  0  0  0  0  0  0  0  0  0
   -2.4079    0.0551   -1.6061 C   0  0  0  0  0  0  0  0  0  0  0  0
   -3.6697    0.6288   -1.3844 C   0  0  0  0  0  0  0  0  0  0  0  0
   -4.5887   -0.0121   -0.5896 C   0  0  0  0  0  0  0  0  0  0  0  0
   -4.2613   -1.2420   -0.0033 C   0  0  0  0  0  0  0  0  0  0  0  0
   -3.0145   -1.7557   -0.2537 C   0  0  0  0  0  0  0  0  0  0  0  0
   -5.8936    0.5696   -0.3294 C   0  0  0  0  0  0  0  0  0  0  0  0
   -6.8103    0.3778   -1.5072 C   0  0  0  0  0  0  0  0  0  0  0  0
   -5.8188    2.0999   -0.1089 C   0  0  0  0  0  0  0  0  0  0  0  0
   -6.6234   -0.0018    0.8675 C   0  0  0  0  0  0  0  0  0  0  0  0
    2.6869   -0.2326    0.8811 C   0  0  0  0  0  0  0  0  0  0  0  0
    3.5728   -1.2930    0.8761 C   0  0  0  0  0  0  0  0  0  0  0  0
    4.7868   -1.1502    0.2073 C   0  0  0  0  0  0  0  0  0  0  0  0
    5.1417   -0.0358   -0.4265 C   0  0  0  0  0  0  0  0  0  0  0  0
    6.3483    0.1839   -1.1087 N   0  0  0  0  0  0  0  0  0  0  0  0
    7.8386   -0.4333   -0.5541 S   0  0  0  0  0  0  0  0  0  0  0  0
    8.8785    0.9208    0.0174 C   0  0  0  0  0  0  0  0  0  0  0  0
    8.5197   -1.0687   -1.7576 O   0  0  0  0  0  0  0  0  0  0  0  0
    7.6520   -1.4304    0.5267 O   0  0  0  0  0  0  0  0  0  0  0  0
    4.2449    1.0557   -0.4295 C   0  0  0  0  0  0  0  0  0  0  0  0
    4.5802    2.1982   -1.0775 F   0  0  0  0  0  0  0  0  0  0  0  0
    3.0479    0.9492    0.2108 C   0  0  0  0  0  0  0  0  0  0  0  0
    1.7704    1.5221    2.6700 H   0  0  0  0  0  0  0  0  0  0  0  0
    0.0469    0.8693    2.7659 H   0  0  0  0  0  0  0  0  0  0  0  0
    0.6026    1.6489    1.2788 H   0  0  0  0  0  0  0  0  0  0  0  0
    1.6223   -0.9293    2.5778 H   0  0  0  0  0  0  0  0  0  0  0  0
    1.0105   -0.5135   -1.1130 H   0  0  0  0  0  0  0  0  0  0  0  0
   -0.7688   -2.8036   -0.7964 H   0  0  0  0  0  0  0  0  0  0  0  0
   -0.4155   -1.8908   -2.2805 H   0  0  0  0  0  0  0  0  0  0  0  0
   -1.6703    0.5560   -2.2264 H   0  0  0  0  0  0  0  0  0  0  0  0
   -3.8668    1.5948   -1.8922 H   0  0  0  0  0  0  0  0  0  0  0  0
   -4.9989   -1.7092    0.6084 H   0  0  0  0  0  0  0  0  0  0  0  0
   -2.7877   -2.7156    0.2052 H   0  0  0  0  0  0  0  0  0  0  0  0
   -7.5723    1.2111   -1.5518 H   0  0  0  0  0  0  0  0  0  0  0  0
   -7.3518   -0.6102   -1.4254 H   0  0  0  0  0  0  0  0  0  0  0  0
   -6.2887    0.3465   -2.4754 H   0  0  0  0  0  0  0  0  0  0  0  0
   -6.6172    2.6163   -0.6738 H   0  0  0  0  0  0  0  0  0  0  0  0
   -5.9096    2.3052    0.9980 H   0  0  0  0  0  0  0  0  0  0  0  0
   -4.8414    2.4866   -0.4381 H   0  0  0  0  0  0  0  0  0  0  0  0
   -6.8253   -1.0676    0.8266 H   0  0  0  0  0  0  0  0  0  0  0  0
   -6.1290    0.3718    1.7804 H   0  0  0  0  0  0  0  0  0  0  0  0
   -7.6502    0.4791    0.9022 H   0  0  0  0  0  0  0  0  0  0  0  0
    3.3337   -2.2085    1.3729 H   0  0  0  0  0  0  0  0  0  0  0  0
    5.4295   -2.0428    0.2270 H   0  0  0  0  0  0  0  0  0  0  0  0
    6.3229    0.7682   -2.0103 H   0  0  0  0  0  0  0  0  0  0  0  0
    8.6330    1.0483    1.1033 H   0  0  0  0  0  0  0  0  0  0  0  0
    9.9468    0.6914   -0.1543 H   0  0  0  0  0  0  0  0  0  0  0  0
    8.6148    1.8380   -0.4917 H   0  0  0  0  0  0  0  0  0  0  0  0
    2.3190    1.7644    0.2376 H   0  0  0  0  0  0  0  0  0  0  0  0
  1  2  1  0
  2  3  1  0
  3  4  2  0
  3  5  1  0
  5  6  1  0
  6  7  1  0
  7  8  2  0
  8  9  1  0
  9 10  2  0
 10 11  1  0
 11 12  2  0
 10 13  1  0
 13 14  1  0
 13 15  1  0
 13 16  1  0
  2 17  1  0
 17 18  2  0
 18 19  1  0
 19 20  2  0
 20 21  1  0
 21 22  1  0
 22 23  1  0
 22 24  2  0
 22 25  2  0
 20 26  1  0
 26 27  1  0
 26 28  2  0
 12  7  1  0
 28 17  1  0
  1 29  1  0
  1 30  1  0
  1 31  1  0
  2 32  1  0
  5 33  1  0
  6 34  1  0
  6 35  1  0
  8 36  1  0
  9 37  1  0
 11 38  1  0
 12 39  1  0
 14 40  1  0
 14 41  1  0
 14 42  1  0
 15 43  1  0
 15 44  1  0
 15 45  1  0
 16 46  1  0
 16 47  1  0
 16 48  1  0
 18 49  1  0
 19 50  1  0
 21 51  1  0
 23 52  1  0
 23 53  1  0
 23 54  1  0
 28 55  1  0
M  END
$$$$
[H]c1nc(N2C([H])([H])C([H])([H])c3nc(-c4c([H])c([H])c([H])c([H])c4[H])nc(N([H])c4nc([H])c(C(F)(F)F)c([H])c4[H])c3C([H])([H])C2([H])[H])c(C(F)(F)F)c([H])c1[H]
     RDKit          3D

 58 62  0  0  0  0  0  0  0  0999 V2000
    5.0193   -5.0650    2.0117 F   0  0  0  0  0  0  0  0  0  0  0  0
    5.1889   -5.0065    0.6221 C   0  0  0  0  0  0  0  0  0  0  0  0
    6.5005   -5.0740    0.2854 F   0  0  0  0  0  0  0  0  0  0  0  0
    4.4882   -6.1069    0.1067 F   0  0  0  0  0  0  0  0  0  0  0  0
    4.4730   -3.7913    0.1423 C   0  0  0  0  0  0  0  0  0  0  0  0
    4.2742   -3.5636   -1.2274 C   0  0  0  0  0  0  0  0  0  0  0  0
    3.4627   -2.5009   -1.6041 C   0  0  0  0  0  0  0  0  0  0  0  0
    2.8642   -1.6885   -0.7014 C   0  0  0  0  0  0  0  0  0  0  0  0
    1.6571   -0.9361   -0.8563 N   0  0  0  0  0  0  0  0  0  0  0  0
    1.3081    0.2024   -0.1581 C   0  0  0  0  0  0  0  0  0  0  0  0
    2.1194    1.2661    0.0580 N   0  0  0  0  0  0  0  0  0  0  0  0
    1.6766    2.4242    0.5502 C   0  0  0  0  0  0  0  0  0  0  0  0
    0.3271    2.5230    0.8580 N   0  0  0  0  0  0  0  0  0  0  0  0
   -0.5346    1.5196    0.6745 C   0  0  0  0  0  0  0  0  0  0  0  0
   -1.9024    1.8661    1.1836 C   0  0  0  0  0  0  0  0  0  0  0  0
   -3.0230    1.3693    0.2892 C   0  0  0  0  0  0  0  0  0  0  0  0
   -2.9650   -0.0327    0.1200 N   0  0  0  0  0  0  0  0  0  0  0  0
   -1.9715   -0.9465    0.7525 C   0  0  0  0  0  0  0  0  0  0  0  0
   -0.7161   -0.8979   -0.1169 C   0  0  0  0  0  0  0  0  0  0  0  0
   -0.0547    0.3855    0.1730 C   0  0  0  0  0  0  0  0  0  0  0  0
   -3.8122   -0.7893   -0.7060 C   0  0  0  0  0  0  0  0  0  0  0  0
   -3.3781   -1.1100   -1.9770 N   0  0  0  0  0  0  0  0  0  0  0  0
   -4.0442   -1.8636   -2.8273 C   0  0  0  0  0  0  0  0  0  0  0  0
   -5.2564   -2.3812   -2.4625 C   0  0  0  0  0  0  0  0  0  0  0  0
   -5.7733   -2.1223   -1.2194 C   0  0  0  0  0  0  0  0  0  0  0  0
   -5.0177   -1.3074   -0.3386 C   0  0  0  0  0  0  0  0  0  0  0  0
   -5.5963   -0.9887    0.9990 C   0  0  0  0  0  0  0  0  0  0  0  0
   -6.7520   -1.7901    1.1768 F   0  0  0  0  0  0  0  0  0  0  0  0
   -4.7873   -1.1684    2.0464 F   0  0  0  0  0  0  0  0  0  0  0  0
   -6.1947    0.2997    0.9408 F   0  0  0  0  0  0  0  0  0  0  0  0
    2.3346    3.7208    0.4885 C   0  0  0  0  0  0  0  0  0  0  0  0
    2.1795    4.6719    1.4521 C   0  0  0  0  0  0  0  0  0  0  0  0
    2.5436    5.9942    1.2555 C   0  0  0  0  0  0  0  0  0  0  0  0
    3.0810    6.3553    0.0434 C   0  0  0  0  0  0  0  0  0  0  0  0
    3.2516    5.4200   -0.9433 C   0  0  0  0  0  0  0  0  0  0  0  0
    2.8810    4.1093   -0.7186 C   0  0  0  0  0  0  0  0  0  0  0  0
    3.1222   -1.9645    0.6488 N   0  0  0  0  0  0  0  0  0  0  0  0
    3.8779   -2.9569    1.0518 C   0  0  0  0  0  0  0  0  0  0  0  0
    4.7421   -4.1782   -1.9674 H   0  0  0  0  0  0  0  0  0  0  0  0
    3.3209   -2.3165   -2.6837 H   0  0  0  0  0  0  0  0  0  0  0  0
    0.9967   -1.3240   -1.5841 H   0  0  0  0  0  0  0  0  0  0  0  0
   -2.0376    1.4254    2.2036 H   0  0  0  0  0  0  0  0  0  0  0  0
   -1.9565    2.9604    1.2733 H   0  0  0  0  0  0  0  0  0  0  0  0
   -2.9515    1.9489   -0.6796 H   0  0  0  0  0  0  0  0  0  0  0  0
   -3.9511    1.7571    0.7541 H   0  0  0  0  0  0  0  0  0  0  0  0
   -1.7472   -0.5012    1.7292 H   0  0  0  0  0  0  0  0  0  0  0  0
   -2.3151   -1.9731    0.8130 H   0  0  0  0  0  0  0  0  0  0  0  0
   -0.1108   -1.7845    0.1760 H   0  0  0  0  0  0  0  0  0  0  0  0
   -0.9366   -0.9599   -1.1709 H   0  0  0  0  0  0  0  0  0  0  0  0
   -3.6362   -2.0918   -3.8189 H   0  0  0  0  0  0  0  0  0  0  0  0
   -5.8233   -3.0081   -3.1582 H   0  0  0  0  0  0  0  0  0  0  0  0
   -6.7103   -2.4939   -0.8612 H   0  0  0  0  0  0  0  0  0  0  0  0
    1.7677    4.4165    2.4507 H   0  0  0  0  0  0  0  0  0  0  0  0
    2.3928    6.7135    2.0706 H   0  0  0  0  0  0  0  0  0  0  0  0
    3.3715    7.4072   -0.1339 H   0  0  0  0  0  0  0  0  0  0  0  0
    3.6739    5.7297   -1.9107 H   0  0  0  0  0  0  0  0  0  0  0  0
    2.9958    3.3536   -1.4934 H   0  0  0  0  0  0  0  0  0  0  0  0
    4.0633   -3.1563    2.1311 H   0  0  0  0  0  0  0  0  0  0  0  0
  1  2  1  0
  2  3  1  0
  2  4  1  0
  2  5  1  0
  5  6  2  0
  6  7  1  0
  7  8  2  0
  8  9  1  0
  9 10  1  0
 10 11  2  0
 11 12  1  0
 12 13  2  0
 13 14  1  0
 14 15  1  0
 15 16  1  0
 16 17  1  0
 17 18  1  0
 18 19  1  0
 19 20  1  0
 17 21  1  0
 21 22  2  0
 22 23  1  0
 23 24  2  0
 24 25  1  0
 25 26  2  0
 26 27  1  0
 27 28  1  0
 27 29  1  0
 27 30  1  0
 12 31  1  0
 31 32  2  0
 32 33  1  0
 33 34  2  0
 34 35  1  0
 35 36  2  0
  8 37  1  0
 37 38  2  0
 38  5  1  0
 20 10  1  0
 26 21  1  0
 36 31  1  0
 20 14  2  0
  6 39  1  0
  7 40  1  0
  9 41  1  0
 15 42  1  0
 15 43  1  0
 16 44  1  0
 16 45  1  0
 18 46  1  0
 18 47  1  0
 19 48  1  0
 19 49  1  0
 23 50  1  0
 24 51  1  0
 25 52  1  0
 32 53  1  0
 33 54  1  0
 34 55  1  0
 35 56  1  0
 36 57  1  0
 38 58  1  0
M  END
$$$$
[H]c1nc(N2C([H])([H])C([H])([H])N(C(=O)N([H])c3c([H])c([H])c(C(F)(F)F)c([H])c3[H])C([H])([H])C2([H])[H])c(C(F)(F)F)c([H])c1[H]
     RDKit          3D

 45 47  0  0  0  0  0  0  0  0999 V2000
    7.7217    1.7308    1.4282 F   0  0  0  0  0  0  0  0  0  0  0  0
    7.5117    0.7113    0.5465 C   0  0  0  0  0  0  0  0  0  0  0  0
    8.1729   -0.4717    0.9244 F   0  0  0  0  0  0  0  0  0  0  0  0
    7.8954    1.0949   -0.7190 F   0  0  0  0  0  0  0  0  0  0  0  0
    6.0636    0.3785    0.5881 C   0  0  0  0  0  0  0  0  0  0  0  0
    5.5293   -0.4066    1.5757 C   0  0  0  0  0  0  0  0  0  0  0  0
    4.1849   -0.7256    1.5893 C   0  0  0  0  0  0  0  0  0  0  0  0
    3.3587   -0.2491    0.5878 C   0  0  0  0  0  0  0  0  0  0  0  0
    1.9604   -0.5629    0.5700 N   0  0  0  0  0  0  0  0  0  0  0  0
    1.2562   -0.8173   -0.5929 C   0  0  0  0  0  0  0  0  0  0  0  0
    1.8641   -0.7922   -1.7300 O   0  0  0  0  0  0  0  0  0  0  0  0
   -0.1199   -1.1001   -0.6314 N   0  0  0  0  0  0  0  0  0  0  0  0
   -0.8177   -1.2137    0.6321 C   0  0  0  0  0  0  0  0  0  0  0  0
   -2.2900   -1.5830    0.3454 C   0  0  0  0  0  0  0  0  0  0  0  0
   -2.7024   -0.5591   -0.5954 N   0  0  0  0  0  0  0  0  0  0  0  0
   -2.1921   -0.7715   -1.9488 C   0  0  0  0  0  0  0  0  0  0  0  0
   -0.7548   -1.2274   -1.9220 C   0  0  0  0  0  0  0  0  0  0  0  0
   -3.4852    0.5756   -0.3191 C   0  0  0  0  0  0  0  0  0  0  0  0
   -2.8521    1.7929   -0.1537 N   0  0  0  0  0  0  0  0  0  0  0  0
   -3.5035    2.9136    0.1392 C   0  0  0  0  0  0  0  0  0  0  0  0
   -4.8715    2.9296    0.2955 C   0  0  0  0  0  0  0  0  0  0  0  0
   -5.5361    1.7384    0.1409 C   0  0  0  0  0  0  0  0  0  0  0  0
   -4.8405    0.5486   -0.1703 C   0  0  0  0  0  0  0  0  0  0  0  0
   -5.6028   -0.6867   -0.3412 C   0  0  0  0  0  0  0  0  0  0  0  0
   -5.4724   -1.3129   -1.5580 F   0  0  0  0  0  0  0  0  0  0  0  0
   -5.4854   -1.5198    0.7434 F   0  0  0  0  0  0  0  0  0  0  0  0
   -6.9881   -0.3234   -0.3327 F   0  0  0  0  0  0  0  0  0  0  0  0
    3.8868    0.5385   -0.4034 C   0  0  0  0  0  0  0  0  0  0  0  0
    5.2289    0.8392   -0.3869 C   0  0  0  0  0  0  0  0  0  0  0  0
    6.1963   -0.7724    2.3651 H   0  0  0  0  0  0  0  0  0  0  0  0
    3.7639   -1.3450    2.3671 H   0  0  0  0  0  0  0  0  0  0  0  0
    1.4969   -0.5866    1.5402 H   0  0  0  0  0  0  0  0  0  0  0  0
   -0.8769   -0.2547    1.1661 H   0  0  0  0  0  0  0  0  0  0  0  0
   -0.4164   -2.0675    1.2032 H   0  0  0  0  0  0  0  0  0  0  0  0
   -2.7598   -1.5594    1.3180 H   0  0  0  0  0  0  0  0  0  0  0  0
   -2.3453   -2.5742   -0.1910 H   0  0  0  0  0  0  0  0  0  0  0  0
   -2.8081   -1.5588   -2.4154 H   0  0  0  0  0  0  0  0  0  0  0  0
   -2.3226    0.1470   -2.5630 H   0  0  0  0  0  0  0  0  0  0  0  0
   -0.2035   -0.5094   -2.6044 H   0  0  0  0  0  0  0  0  0  0  0  0
   -0.6426   -2.2132   -2.3845 H   0  0  0  0  0  0  0  0  0  0  0  0
   -2.9770    3.8630    0.2596 H   0  0  0  0  0  0  0  0  0  0  0  0
   -5.4435    3.8225    0.5437 H   0  0  0  0  0  0  0  0  0  0  0  0
   -6.6347    1.7207    0.2582 H   0  0  0  0  0  0  0  0  0  0  0  0
    3.2455    0.9524   -1.1933 H   0  0  0  0  0  0  0  0  0  0  0  0
    5.6080    1.4668   -1.1690 H   0  0  0  0  0  0  0  0  0  0  0  0
  1  2  1  0
  2  3  1  0
  2  4  1  0
  2  5  1  0
  5  6  2  0
  6  7  1  0
  7  8  2  0
  8  9  1  0
  9 10  1  0
 10 11  2  0
 10 12  1  0
 12 13  1  0
 13 14  1  0
 14 15  1  0
 15 16  1  0
 16 17  1  0
 15 18  1  0
 18 19  2  0
 19 20  1  0
 20 21  2  0
 21 22  1  0
 22 23  2  0
 23 24  1  0
 24 25  1  0
 24 26  1  0
 24 27  1  0
  8 28  1  0
 28 29  2  0
 29  5  1  0
 17 12  1  0
 23 18  1  0
  6 30  1  0
  7 31  1  0
  9 32  1  0
 13 33  1  0
 13 34  1  0
 14 35  1  0
 14 36  1  0
 16 37  1  0
 16 38  1  0
 17 39  1  0
 17 40  1  0
 20 41  1  0
 21 42  1  0
 22 43  1  0
 28 44  1  0
 29 45  1  0
M  END
$$$$
[H]c1nc([H])c2c([H])c([H])c([H])c(N([H])C(=O)N([H])[C@@]([H])(c3c([H])c([H])c(C(F)(F)F)c([H])c3[H])C([H])([H])[H])c2c1[H]
     RDKit          3D

 42 44  0  0  0  0  0  0  0  0999 V2000
    1.9362   -2.6210   -0.5007 C   0  0  0  0  0  0  0  0  0  0  0  0
    1.8925   -1.2097   -1.1357 C   0  0  1  0  0  0  0  0  0  0  0  0
    0.6547   -0.5460   -0.9067 N   0  0  0  0  0  0  0  0  0  0  0  0
   -0.5800   -1.0239   -0.4553 C   0  0  0  0  0  0  0  0  0  0  0  0
   -0.6369   -2.2461   -0.1768 O   0  0  0  0  0  0  0  0  0  0  0  0
   -1.6799   -0.1789   -0.3172 N   0  0  0  0  0  0  0  0  0  0  0  0
   -2.9602   -0.3854    0.1899 C   0  0  0  0  0  0  0  0  0  0  0  0
   -3.2303   -1.4681    1.0159 C   0  0  0  0  0  0  0  0  0  0  0  0
   -4.4623   -1.6397    1.6260 C   0  0  0  0  0  0  0  0  0  0  0  0
   -5.4501   -0.7134    1.4098 C   0  0  0  0  0  0  0  0  0  0  0  0
   -5.2080    0.3679    0.5923 C   0  0  0  0  0  0  0  0  0  0  0  0
   -6.2473    1.2589    0.3940 C   0  0  0  0  0  0  0  0  0  0  0  0
   -6.0510    2.3024   -0.4032 N   0  0  0  0  0  0  0  0  0  0  0  0
   -4.8789    2.5049   -1.0119 C   0  0  0  0  0  0  0  0  0  0  0  0
   -3.8365    1.6136   -0.8146 C   0  0  0  0  0  0  0  0  0  0  0  0
   -3.9902    0.5314   -0.0058 C   0  0  0  0  0  0  0  0  0  0  0  0
    3.0225   -0.4369   -0.5942 C   0  0  0  0  0  0  0  0  0  0  0  0
    3.2344   -0.4257    0.7907 C   0  0  0  0  0  0  0  0  0  0  0  0
    4.2375    0.3323    1.3380 C   0  0  0  0  0  0  0  0  0  0  0  0
    5.0552    1.0979    0.5683 C   0  0  0  0  0  0  0  0  0  0  0  0
    4.8723    1.1092   -0.8026 C   0  0  0  0  0  0  0  0  0  0  0  0
    3.8644    0.3449   -1.3574 C   0  0  0  0  0  0  0  0  0  0  0  0
    6.1355    1.9014    1.2089 C   0  0  0  0  0  0  0  0  0  0  0  0
    7.0851    1.1123    1.7846 F   0  0  0  0  0  0  0  0  0  0  0  0
    5.5245    2.7269    2.1609 F   0  0  0  0  0  0  0  0  0  0  0  0
    6.7416    2.7119    0.2380 F   0  0  0  0  0  0  0  0  0  0  0  0
    1.6759   -2.6459    0.5360 H   0  0  0  0  0  0  0  0  0  0  0  0
    1.2751   -3.2972   -1.1164 H   0  0  0  0  0  0  0  0  0  0  0  0
    2.9753   -2.9979   -0.7473 H   0  0  0  0  0  0  0  0  0  0  0  0
    1.9921   -1.4534   -2.1996 H   0  0  0  0  0  0  0  0  0  0  0  0
    0.6937    0.5137   -1.1229 H   0  0  0  0  0  0  0  0  0  0  0  0
   -1.4878    0.8269   -0.6716 H   0  0  0  0  0  0  0  0  0  0  0  0
   -2.4559   -2.1861    1.1857 H   0  0  0  0  0  0  0  0  0  0  0  0
   -4.6312   -2.5042    2.2579 H   0  0  0  0  0  0  0  0  0  0  0  0
   -6.4121   -0.8951    1.9117 H   0  0  0  0  0  0  0  0  0  0  0  0
   -7.2269    1.1006    0.8879 H   0  0  0  0  0  0  0  0  0  0  0  0
   -4.7399    3.3639   -1.6633 H   0  0  0  0  0  0  0  0  0  0  0  0
   -2.9017    1.8027   -1.3353 H   0  0  0  0  0  0  0  0  0  0  0  0
    2.5694   -1.0488    1.3862 H   0  0  0  0  0  0  0  0  0  0  0  0
    4.4008    0.3296    2.4184 H   0  0  0  0  0  0  0  0  0  0  0  0
    5.5252    1.7200   -1.3935 H   0  0  0  0  0  0  0  0  0  0  0  0
    3.7030    0.3500   -2.4437 H   0  0  0  0  0  0  0  0  0  0  0  0
  1  2  1  0
  2  3  1  0
  3  4  1  0
  4  5  2  0
  4  6  1  0
  6  7  1  0
  7  8  2  0
  8  9  1  0
  9 10  2  0
 10 11  1  0
 11 12  2  0
 12 13  1  0
 13 14  2  0
 14 15  1  0
 15 16  2  0
  2 17  1  0
 17 18  2  0
 18 19  1  0
 19 20  2  0
 20 21  1  0
 21 22  2  0
 20 23  1  0
 23 24  1  0
 23 25  1  0
 23 26  1  0
 16  7  1  0
 22 17  1  0
 16 11  1  0
  1 27  1  0
  1 28  1  0
  1 29  1  0
  2 30  1  6
  3 31  1  0
  6 32  1  0
  8 33  1  0
  9 34  1  0
 10 35  1  0
 12 36  1  0
 14 37  1  0
 15 38  1  0
 18 39  1  0
 19 40  1  0
 21 41  1  0
 22 42  1  0
M  END
$$$$
[H]c1nc(N2C([H])([H])C([H])([H])c3nc(N4C([H])([H])C([H])([H])OC([H])([H])C4([H])[H])nc(N([H])c4c([H])c([H])c(C(F)(F)F)c(Cl)c4[H])c3C([H])([H])C2([H])[H])c(C(F)(F)F)c([H])c1[H]
     RDKit          3D

 62 66  0  0  0  0  0  0  0  0999 V2000
   -6.8409    3.9429    0.2406 F   0  0  0  0  0  0  0  0  0  0  0  0
   -5.9082    4.5814   -0.5220 C   0  0  0  0  0  0  0  0  0  0  0  0
   -6.4252    4.6465   -1.8222 F   0  0  0  0  0  0  0  0  0  0  0  0
   -5.7350    5.8919   -0.0608 F   0  0  0  0  0  0  0  0  0  0  0  0
   -4.6398    3.8296   -0.4973 C   0  0  0  0  0  0  0  0  0  0  0  0
   -4.5483    2.6687    0.2297 C   0  0  0  0  0  0  0  0  0  0  0  0
   -3.3366    1.9605    0.2467 C   0  0  0  0  0  0  0  0  0  0  0  0
   -2.2300    2.3727   -0.4326 C   0  0  0  0  0  0  0  0  0  0  0  0
   -0.9843    1.7111   -0.4889 N   0  0  0  0  0  0  0  0  0  0  0  0
   -0.7311    0.3706   -0.1812 C   0  0  0  0  0  0  0  0  0  0  0  0
   -1.6501   -0.4880    0.2702 N   0  0  0  0  0  0  0  0  0  0  0  0
   -1.4698   -1.7612    0.6155 C   0  0  0  0  0  0  0  0  0  0  0  0
   -0.2128   -2.2260    0.4924 N   0  0  0  0  0  0  0  0  0  0  0  0
    0.7772   -1.4368    0.0465 C   0  0  0  0  0  0  0  0  0  0  0  0
    2.0969   -2.1623    0.0455 C   0  0  0  0  0  0  0  0  0  0  0  0
    3.0777   -1.2435    0.7777 C   0  0  0  0  0  0  0  0  0  0  0  0
    3.4931   -0.2085   -0.1249 N   0  0  0  0  0  0  0  0  0  0  0  0
    2.7926    0.2329   -1.2925 C   0  0  0  0  0  0  0  0  0  0  0  0
    1.5031    0.9029   -0.8636 C   0  0  0  0  0  0  0  0  0  0  0  0
    0.5734   -0.1338   -0.3059 C   0  0  0  0  0  0  0  0  0  0  0  0
    4.7181    0.4626    0.1239 C   0  0  0  0  0  0  0  0  0  0  0  0
    4.7311    1.5768    0.9156 N   0  0  0  0  0  0  0  0  0  0  0  0
    5.8262    2.2431    1.2215 C   0  0  0  0  0  0  0  0  0  0  0  0
    7.0189    1.7931    0.7172 C   0  0  0  0  0  0  0  0  0  0  0  0
    7.0527    0.6818   -0.0803 C   0  0  0  0  0  0  0  0  0  0  0  0
    5.8910   -0.0228   -0.4040 C   0  0  0  0  0  0  0  0  0  0  0  0
    6.0056   -1.1924   -1.2965 C   0  0  0  0  0  0  0  0  0  0  0  0
    7.3669   -1.3306   -1.6276 F   0  0  0  0  0  0  0  0  0  0  0  0
    5.3822   -1.0159   -2.5183 F   0  0  0  0  0  0  0  0  0  0  0  0
    5.6800   -2.3961   -0.7189 F   0  0  0  0  0  0  0  0  0  0  0  0
   -2.5441   -2.5784    1.0855 N   0  0  0  0  0  0  0  0  0  0  0  0
   -3.8554   -2.0087    1.1843 C   0  0  0  0  0  0  0  0  0  0  0  0
   -4.8649   -3.1202    0.9634 C   0  0  0  0  0  0  0  0  0  0  0  0
   -4.5946   -4.1210    1.8720 O   0  0  0  0  0  0  0  0  0  0  0  0
   -3.4588   -4.8248    1.4627 C   0  0  0  0  0  0  0  0  0  0  0  0
   -2.2295   -3.9474    1.4354 C   0  0  0  0  0  0  0  0  0  0  0  0
   -2.3774    3.5703   -1.1626 C   0  0  0  0  0  0  0  0  0  0  0  0
   -3.5283    4.2776   -1.2011 C   0  0  0  0  0  0  0  0  0  0  0  0
   -3.7270    5.7689   -2.1046 Cl  0  0  0  0  0  0  0  0  0  0  0  0
   -5.4117    2.3203    0.7766 H   0  0  0  0  0  0  0  0  0  0  0  0
   -3.3448    1.0777    0.8475 H   0  0  0  0  0  0  0  0  0  0  0  0
   -0.1630    2.3134   -0.7705 H   0  0  0  0  0  0  0  0  0  0  0  0
    2.3860   -2.3090   -0.9973 H   0  0  0  0  0  0  0  0  0  0  0  0
    2.0222   -3.1506    0.5191 H   0  0  0  0  0  0  0  0  0  0  0  0
    3.8402   -1.8079    1.2903 H   0  0  0  0  0  0  0  0  0  0  0  0
    2.4460   -0.7167    1.5820 H   0  0  0  0  0  0  0  0  0  0  0  0
    3.3738    0.9976   -1.8702 H   0  0  0  0  0  0  0  0  0  0  0  0
    2.5479   -0.6090   -2.0022 H   0  0  0  0  0  0  0  0  0  0  0  0
    1.6366    1.6612   -0.0783 H   0  0  0  0  0  0  0  0  0  0  0  0
    1.0143    1.3363   -1.7838 H   0  0  0  0  0  0  0  0  0  0  0  0
    5.7618    3.1316    1.8643 H   0  0  0  0  0  0  0  0  0  0  0  0
    7.9102    2.3606    0.9847 H   0  0  0  0  0  0  0  0  0  0  0  0
    8.0071    0.3434   -0.4681 H   0  0  0  0  0  0  0  0  0  0  0  0
   -3.9501   -1.5779    2.2197 H   0  0  0  0  0  0  0  0  0  0  0  0
   -3.9512   -1.2090    0.4232 H   0  0  0  0  0  0  0  0  0  0  0  0
   -4.6993   -3.4996   -0.0597 H   0  0  0  0  0  0  0  0  0  0  0  0
   -5.8627   -2.6740    1.1178 H   0  0  0  0  0  0  0  0  0  0  0  0
   -3.6520   -5.2923    0.4776 H   0  0  0  0  0  0  0  0  0  0  0  0
   -3.2820   -5.6069    2.2296 H   0  0  0  0  0  0  0  0  0  0  0  0
   -1.4861   -4.3959    0.7359 H   0  0  0  0  0  0  0  0  0  0  0  0
   -1.7197   -3.9098    2.4282 H   0  0  0  0  0  0  0  0  0  0  0  0
   -1.5180    3.9488   -1.7284 H   0  0  0  0  0  0  0  0  0  0  0  0
  1  2  1  0
  2  3  1  0
  2  4  1  0
  2  5  1  0
  5  6  2  0
  6  7  1  0
  7  8  2  0
  8  9  1  0
  9 10  1  0
 10 11  2  0
 11 12  1  0
 12 13  2  0
 13 14  1  0
 14 15  1  0
 15 16  1  0
 16 17  1  0
 17 18  1  0
 18 19  1  0
 19 20  1  0
 17 21  1  0
 21 22  2  0
 22 23  1  0
 23 24  2  0
 24 25  1  0
 25 26  2  0
 26 27  1  0
 27 28  1  0
 27 29  1  0
 27 30  1  0
 12 31  1  0
 31 32  1  0
 32 33  1  0
 33 34  1  0
 34 35  1  0
 35 36  1  0
  8 37  1  0
 37 38  2  0
 38 39  1  0
 38  5  1  0
 20 10  1  0
 26 21  1  0
 36 31  1  0
 20 14  2  0
  6 40  1  0
  7 41  1  0
  9 42  1  0
 15 43  1  0
 15 44  1  0
 16 45  1  0
 16 46  1  0
 18 47  1  0
 18 48  1  0
 19 49  1  0
 19 50  1  0
 23 51  1  0
 24 52  1  0
 25 53  1  0
 32 54  1  0
 32 55  1  0
 33 56  1  0
 33 57  1  0
 35 58  1  0
 35 59  1  0
 36 60  1  0
 36 61  1  0
 37 62  1  0
M  END
$$$$
[H]c1nc(N2C([H])([H])C([H])([H])N(C(=O)N([H])c3c([H])c([H])c(C(C([H])([H])[H])(C([H])([H])[H])C([H])([H])[H])c([H])c3[H])C([H])([H])C2([H])[H])c(Cl)c([H])c1[H]
     RDKit          3D

 51 53  0  0  0  0  0  0  0  0999 V2000
   -6.6603   -1.2333    0.9850 C   0  0  0  0  0  0  0  0  0  0  0  0
   -6.1913    0.0259    0.3000 C   0  0  0  0  0  0  0  0  0  0  0  0
   -6.7122    0.0108   -1.1079 C   0  0  0  0  0  0  0  0  0  0  0  0
   -6.7606    1.2177    1.0385 C   0  0  0  0  0  0  0  0  0  0  0  0
   -4.7124    0.0470    0.2876 C   0  0  0  0  0  0  0  0  0  0  0  0
   -4.0427   -0.9589   -0.3677 C   0  0  0  0  0  0  0  0  0  0  0  0
   -2.6660   -1.0187   -0.4299 C   0  0  0  0  0  0  0  0  0  0  0  0
   -1.8858   -0.0294    0.1896 C   0  0  0  0  0  0  0  0  0  0  0  0
   -0.4921   -0.1024    0.1122 N   0  0  0  0  0  0  0  0  0  0  0  0
    0.4724    0.7383    0.6987 C   0  0  0  0  0  0  0  0  0  0  0  0
    0.1948    1.7359    1.4247 O   0  0  0  0  0  0  0  0  0  0  0  0
    1.8745    0.4535    0.4640 N   0  0  0  0  0  0  0  0  0  0  0  0
    2.8341    1.2936    1.0632 C   0  0  0  0  0  0  0  0  0  0  0  0
    4.1990    0.6789    1.2579 C   0  0  0  0  0  0  0  0  0  0  0  0
    4.5682   -0.1269    0.1148 N   0  0  0  0  0  0  0  0  0  0  0  0
    3.6281   -0.8634   -0.6652 C   0  0  0  0  0  0  0  0  0  0  0  0
    2.1961   -0.6604   -0.3640 C   0  0  0  0  0  0  0  0  0  0  0  0
    5.9402   -0.1664   -0.2463 C   0  0  0  0  0  0  0  0  0  0  0  0
    6.2915    0.3093   -1.4789 N   0  0  0  0  0  0  0  0  0  0  0  0
    7.5631    0.3063   -1.8815 C   0  0  0  0  0  0  0  0  0  0  0  0
    8.5846   -0.1719   -1.0842 C   0  0  0  0  0  0  0  0  0  0  0  0
    8.2295   -0.6487    0.1520 C   0  0  0  0  0  0  0  0  0  0  0  0
    6.9394   -0.6506    0.5714 C   0  0  0  0  0  0  0  0  0  0  0  0
    6.4596   -1.2618    2.1531 Cl  0  0  0  0  0  0  0  0  0  0  0  0
   -2.5560    0.9657    0.8380 C   0  0  0  0  0  0  0  0  0  0  0  0
   -3.9659    1.0143    0.8935 C   0  0  0  0  0  0  0  0  0  0  0  0
   -6.1657   -2.1234    0.5526 H   0  0  0  0  0  0  0  0  0  0  0  0
   -7.7810   -1.3063    0.9180 H   0  0  0  0  0  0  0  0  0  0  0  0
   -6.4270   -1.1158    2.0756 H   0  0  0  0  0  0  0  0  0  0  0  0
   -6.1481    0.6874   -1.7863 H   0  0  0  0  0  0  0  0  0  0  0  0
   -7.7950    0.3230   -1.0648 H   0  0  0  0  0  0  0  0  0  0  0  0
   -6.7297   -1.0416   -1.4618 H   0  0  0  0  0  0  0  0  0  0  0  0
   -7.8685    1.1385    0.9909 H   0  0  0  0  0  0  0  0  0  0  0  0
   -6.4819    2.1759    0.5784 H   0  0  0  0  0  0  0  0  0  0  0  0
   -6.4308    1.1541    2.0946 H   0  0  0  0  0  0  0  0  0  0  0  0
   -4.6177   -1.7432   -0.8595 H   0  0  0  0  0  0  0  0  0  0  0  0
   -2.1662   -1.8313   -0.9582 H   0  0  0  0  0  0  0  0  0  0  0  0
   -0.1078   -0.9212   -0.4803 H   0  0  0  0  0  0  0  0  0  0  0  0
    2.4364    1.6442    2.0596 H   0  0  0  0  0  0  0  0  0  0  0  0
    2.9221    2.2249    0.4607 H   0  0  0  0  0  0  0  0  0  0  0  0
    4.9419    1.4628    1.4765 H   0  0  0  0  0  0  0  0  0  0  0  0
    4.1263    0.0221    2.1440 H   0  0  0  0  0  0  0  0  0  0  0  0
    3.8212   -1.9736   -0.6340 H   0  0  0  0  0  0  0  0  0  0  0  0
    3.8402   -0.6068   -1.7457 H   0  0  0  0  0  0  0  0  0  0  0  0
    1.7306   -1.5871    0.0895 H   0  0  0  0  0  0  0  0  0  0  0  0
    1.6665   -0.5450   -1.3587 H   0  0  0  0  0  0  0  0  0  0  0  0
    7.8367    0.6899   -2.8721 H   0  0  0  0  0  0  0  0  0  0  0  0
    9.6276   -0.1676   -1.4297 H   0  0  0  0  0  0  0  0  0  0  0  0
    8.9844   -1.0389    0.8276 H   0  0  0  0  0  0  0  0  0  0  0  0
   -2.0740    1.7723    1.3428 H   0  0  0  0  0  0  0  0  0  0  0  0
   -4.4706    1.8025    1.4068 H   0  0  0  0  0  0  0  0  0  0  0  0
  1  2  1  0
  2  3  1  0
  2  4  1  0
  2  5  1  0
  5  6  2  0
  6  7  1  0
  7  8  2  0
  8  9  1  0
  9 10  1  0
 10 11  2  0
 10 12  1  0
 12 13  1  0
 13 14  1  0
 14 15  1  0
 15 16  1  0
 16 17  1  0
 15 18  1  0
 18 19  2  0
 19 20  1  0
 20 21  2  0
 21 22  1  0
 22 23  2  0
 23 24  1  0
  8 25  1  0
 25 26  2  0
 26  5  1  0
 17 12  1  0
 23 18  1  0
  1 27  1  0
  1 28  1  0
  1 29  1  0
  3 30  1  0
  3 31  1  0
  3 32  1  0
  4 33  1  0
  4 34  1  0
  4 35  1  0
  6 36  1  0
  7 37  1  0
  9 38  1  0
 13 39  1  0
 13 40  1  0
 14 41  1  0
 14 42  1  0
 16 43  1  0
 16 44  1  0
 17 45  1  0
 17 46  1  0
 20 47  1  0
 21 48  1  0
 22 49  1  0
 25 50  1  0
 26 51  1  0
M  END
$$$$
[H]c1nc(N2C([H])([H])C([H])([H])c3nc(N4C([H])([H])C([H])([H])C([H])([H])C([H])([H])C4([H])[H])nc(N([H])c4c([H])c([H])c(C(F)(F)F)c(Cl)c4[H])c3C([H])([H])C2([H])[H])c(C(F)(F)F)c([H])c1[H]
     RDKit          3D

 64 68  0  0  0  0  0  0  0  0999 V2000
   -2.5718    7.9454    0.2981 F   0  0  0  0  0  0  0  0  0  0  0  0
   -3.2775    6.9222   -0.2983 C   0  0  0  0  0  0  0  0  0  0  0  0
   -4.4075    6.7175    0.4984 F   0  0  0  0  0  0  0  0  0  0  0  0
   -3.7035    7.2441   -1.5487 F   0  0  0  0  0  0  0  0  0  0  0  0
   -2.4392    5.6880   -0.2820 C   0  0  0  0  0  0  0  0  0  0  0  0
   -1.1843    5.7078    0.2710 C   0  0  0  0  0  0  0  0  0  0  0  0
   -0.4291    4.5700    0.2795 C   0  0  0  0  0  0  0  0  0  0  0  0
   -0.8610    3.3420   -0.2552 C   0  0  0  0  0  0  0  0  0  0  0  0
    0.0377    2.2816   -0.1837 N   0  0  0  0  0  0  0  0  0  0  0  0
   -0.2298    0.8866   -0.2283 C   0  0  0  0  0  0  0  0  0  0  0  0
   -1.5070    0.4459   -0.2643 N   0  0  0  0  0  0  0  0  0  0  0  0
   -1.8808   -0.8410   -0.2631 C   0  0  0  0  0  0  0  0  0  0  0  0
   -0.8725   -1.7548   -0.2217 N   0  0  0  0  0  0  0  0  0  0  0  0
    0.4010   -1.4262   -0.1848 C   0  0  0  0  0  0  0  0  0  0  0  0
    1.3562   -2.5913   -0.1201 C   0  0  0  0  0  0  0  0  0  0  0  0
    2.3718   -2.3270    0.9767 C   0  0  0  0  0  0  0  0  0  0  0  0
    3.3948   -1.4596    0.4793 N   0  0  0  0  0  0  0  0  0  0  0  0
    3.2392   -0.3796   -0.4264 C   0  0  0  0  0  0  0  0  0  0  0  0
    2.0807    0.5468   -0.1759 C   0  0  0  0  0  0  0  0  0  0  0  0
    0.7657   -0.0724   -0.1882 C   0  0  0  0  0  0  0  0  0  0  0  0
    4.7083   -1.6920    0.9528 C   0  0  0  0  0  0  0  0  0  0  0  0
    5.0898   -0.8465    1.9678 N   0  0  0  0  0  0  0  0  0  0  0  0
    6.2686   -0.8931    2.5744 C   0  0  0  0  0  0  0  0  0  0  0  0
    7.1591   -1.8519    2.1543 C   0  0  0  0  0  0  0  0  0  0  0  0
    6.8220   -2.7155    1.1462 C   0  0  0  0  0  0  0  0  0  0  0  0
    5.5706   -2.6531    0.5138 C   0  0  0  0  0  0  0  0  0  0  0  0
    5.2131   -3.5612   -0.5711 C   0  0  0  0  0  0  0  0  0  0  0  0
    4.8650   -2.9531   -1.7594 F   0  0  0  0  0  0  0  0  0  0  0  0
    6.4427   -4.2057   -0.9211 F   0  0  0  0  0  0  0  0  0  0  0  0
    4.4194   -4.5945   -0.1941 F   0  0  0  0  0  0  0  0  0  0  0  0
   -3.2244   -1.2799   -0.2992 N   0  0  0  0  0  0  0  0  0  0  0  0
   -3.4874   -2.6765   -0.3090 C   0  0  0  0  0  0  0  0  0  0  0  0
   -4.9149   -3.0584   -0.0749 C   0  0  0  0  0  0  0  0  0  0  0  0
   -5.9206   -2.0950   -0.5889 C   0  0  0  0  0  0  0  0  0  0  0  0
   -5.3574   -0.8854   -1.2659 C   0  0  0  0  0  0  0  0  0  0  0  0
   -4.2913   -0.3115   -0.3235 C   0  0  0  0  0  0  0  0  0  0  0  0
   -2.1161    3.3416   -0.8037 C   0  0  0  0  0  0  0  0  0  0  0  0
   -2.8799    4.4993   -0.8100 C   0  0  0  0  0  0  0  0  0  0  0  0
   -4.4808    4.4579   -1.5204 Cl  0  0  0  0  0  0  0  0  0  0  0  0
   -0.8280    6.6353    0.6879 H   0  0  0  0  0  0  0  0  0  0  0  0
    0.5618    4.6497    0.7355 H   0  0  0  0  0  0  0  0  0  0  0  0
    1.0723    2.5450   -0.0783 H   0  0  0  0  0  0  0  0  0  0  0  0
    1.7945   -2.8327   -1.0845 H   0  0  0  0  0  0  0  0  0  0  0  0
    0.7387   -3.4525    0.2079 H   0  0  0  0  0  0  0  0  0  0  0  0
    2.6481   -3.2462    1.4497 H   0  0  0  0  0  0  0  0  0  0  0  0
    1.7515   -1.7784    1.7729 H   0  0  0  0  0  0  0  0  0  0  0  0
    4.1553    0.2723   -0.3953 H   0  0  0  0  0  0  0  0  0  0  0  0
    3.1636   -0.6779   -1.5137 H   0  0  0  0  0  0  0  0  0  0  0  0
    2.2455    1.1198    0.7244 H   0  0  0  0  0  0  0  0  0  0  0  0
    2.1182    1.2514   -1.0645 H   0  0  0  0  0  0  0  0  0  0  0  0
    6.5411   -0.1975    3.3864 H   0  0  0  0  0  0  0  0  0  0  0  0
    8.1245   -1.9108    2.6319 H   0  0  0  0  0  0  0  0  0  0  0  0
    7.4903   -3.4875    0.7831 H   0  0  0  0  0  0  0  0  0  0  0  0
   -2.8161   -3.1434    0.4700 H   0  0  0  0  0  0  0  0  0  0  0  0
   -3.1782   -3.0881   -1.2916 H   0  0  0  0  0  0  0  0  0  0  0  0
   -5.1210   -4.0909   -0.4329 H   0  0  0  0  0  0  0  0  0  0  0  0
   -5.0466   -3.1208    1.0458 H   0  0  0  0  0  0  0  0  0  0  0  0
   -6.6439   -1.7825    0.1991 H   0  0  0  0  0  0  0  0  0  0  0  0
   -6.5557   -2.6230   -1.3551 H   0  0  0  0  0  0  0  0  0  0  0  0
   -4.8915   -1.1794   -2.2316 H   0  0  0  0  0  0  0  0  0  0  0  0
   -6.1791   -0.1611   -1.4157 H   0  0  0  0  0  0  0  0  0  0  0  0
   -4.7963   -0.2774    0.6813 H   0  0  0  0  0  0  0  0  0  0  0  0
   -4.0195    0.6721   -0.6986 H   0  0  0  0  0  0  0  0  0  0  0  0
   -2.4988    2.4330   -1.2444 H   0  0  0  0  0  0  0  0  0  0  0  0
  1  2  1  0
  2  3  1  0
  2  4  1  0
  2  5  1  0
  5  6  2  0
  6  7  1  0
  7  8  2  0
  8  9  1  0
  9 10  1  0
 10 11  2  0
 11 12  1  0
 12 13  2  0
 13 14  1  0
 14 15  1  0
 15 16  1  0
 16 17  1  0
 17 18  1  0
 18 19  1  0
 19 20  1  0
 17 21  1  0
 21 22  2  0
 22 23  1  0
 23 24  2  0
 24 25  1  0
 25 26  2  0
 26 27  1  0
 27 28  1  0
 27 29  1  0
 27 30  1  0
 12 31  1  0
 31 32  1  0
 32 33  1  0
 33 34  1  0
 34 35  1  0
 35 36  1  0
  8 37  1  0
 37 38  2  0
 38 39  1  0
 38  5  1  0
 20 10  1  0
 26 21  1  0
 36 31  1  0
 20 14  2  0
  6 40  1  0
  7 41  1  0
  9 42  1  0
 15 43  1  0
 15 44  1  0
 16 45  1  0
 16 46  1  0
 18 47  1  0
 18 48  1  0
 19 49  1  0
 19 50  1  0
 23 51  1  0
 24 52  1  0
 25 53  1  0
 32 54  1  0
 32 55  1  0
 33 56  1  0
 33 57  1  0
 34 58  1  0
 34 59  1  0
 35 60  1  0
 35 61  1  0
 36 62  1  0
 36 63  1  0
 37 64  1  0
M  END
$$$$
