[H]c1sc(N([H])C(=O)n2nnc(OC([H])([H])c3c([H])c([H])c(Cl)c([H])c3[H])c2[H])c([H])c1C(=O)N([H])C([H])([H])C([H])([H])N1C([H])([H])C([H])([H])OC([H])([H])C1([H])[H]
     RDKit          3D

 56 59  0  0  0  0  0  0  0  0999 V2000
   10.1293   -3.2347   -1.8120 Cl  0  0  0  0  0  0  0  0  0  0  0  0
    9.5649   -1.9194   -0.8123 C   0  0  0  0  0  0  0  0  0  0  0  0
    8.8553   -2.1502    0.3684 C   0  0  0  0  0  0  0  0  0  0  0  0
    8.4194   -1.1009    1.1422 C   0  0  0  0  0  0  0  0  0  0  0  0
    8.6583    0.2123    0.7946 C   0  0  0  0  0  0  0  0  0  0  0  0
    8.1731    1.3183    1.6408 C   0  0  0  0  0  0  0  0  0  0  0  0
    7.0406    1.9655    1.1097 O   0  0  0  0  0  0  0  0  0  0  0  0
    5.8319    1.3780    0.8489 C   0  0  0  0  0  0  0  0  0  0  0  0
    4.7350    2.0456    0.3306 C   0  0  0  0  0  0  0  0  0  0  0  0
    3.7250    1.1779    0.1993 N   0  0  0  0  0  0  0  0  0  0  0  0
    4.1761    0.0107    0.6202 N   0  0  0  0  0  0  0  0  0  0  0  0
    5.4194    0.1132    1.0075 N   0  0  0  0  0  0  0  0  0  0  0  0
    2.4367    1.4748   -0.2818 C   0  0  0  0  0  0  0  0  0  0  0  0
    2.1639    2.6676   -0.6244 O   0  0  0  0  0  0  0  0  0  0  0  0
    1.4695    0.4409   -0.3747 N   0  0  0  0  0  0  0  0  0  0  0  0
    0.1657    0.8162   -0.8685 C   0  0  0  0  0  0  0  0  0  0  0  0
   -0.9189    0.0070   -1.0830 C   0  0  0  0  0  0  0  0  0  0  0  0
   -2.0408    0.5945   -1.5367 C   0  0  0  0  0  0  0  0  0  0  0  0
   -1.9949    1.9496   -1.7430 C   0  0  0  0  0  0  0  0  0  0  0  0
   -0.4084    2.3587   -1.3034 S   0  0  0  0  0  0  0  0  0  0  0  0
   -3.2800   -0.1830   -1.8307 C   0  0  0  0  0  0  0  0  0  0  0  0
   -3.2840   -1.1649   -2.6107 O   0  0  0  0  0  0  0  0  0  0  0  0
   -4.5023    0.1865   -1.2164 N   0  0  0  0  0  0  0  0  0  0  0  0
   -5.7447   -0.5054   -1.4593 C   0  0  0  0  0  0  0  0  0  0  0  0
   -6.8839    0.0642   -0.6603 C   0  0  0  0  0  0  0  0  0  0  0  0
   -6.6706   -0.0336    0.7588 N   0  0  0  0  0  0  0  0  0  0  0  0
   -7.7868    0.5278    1.4816 C   0  0  0  0  0  0  0  0  0  0  0  0
   -8.4264   -0.4173    2.4608 C   0  0  0  0  0  0  0  0  0  0  0  0
   -8.6479   -1.6737    1.9530 O   0  0  0  0  0  0  0  0  0  0  0  0
   -7.6548   -2.1847    1.1553 C   0  0  0  0  0  0  0  0  0  0  0  0
   -6.4177   -1.3584    1.2446 C   0  0  0  0  0  0  0  0  0  0  0  0
    9.3600    0.4384   -0.3729 C   0  0  0  0  0  0  0  0  0  0  0  0
    9.8082   -0.6082   -1.1672 C   0  0  0  0  0  0  0  0  0  0  0  0
    8.6630   -3.1576    0.6498 H   0  0  0  0  0  0  0  0  0  0  0  0
    7.8757   -1.3238    2.0501 H   0  0  0  0  0  0  0  0  0  0  0  0
    8.9966    2.0763    1.7817 H   0  0  0  0  0  0  0  0  0  0  0  0
    7.8680    0.8963    2.6319 H   0  0  0  0  0  0  0  0  0  0  0  0
    4.7253    3.0964    0.0822 H   0  0  0  0  0  0  0  0  0  0  0  0
    1.6699   -0.5276   -0.1090 H   0  0  0  0  0  0  0  0  0  0  0  0
   -0.8146   -1.0832   -0.8692 H   0  0  0  0  0  0  0  0  0  0  0  0
   -2.8349    2.5674   -2.1134 H   0  0  0  0  0  0  0  0  0  0  0  0
   -4.5240    0.9890   -0.5562 H   0  0  0  0  0  0  0  0  0  0  0  0
   -5.7111   -1.5858   -1.3314 H   0  0  0  0  0  0  0  0  0  0  0  0
   -5.9895   -0.2933   -2.5431 H   0  0  0  0  0  0  0  0  0  0  0  0
   -7.0650    1.1401   -0.9084 H   0  0  0  0  0  0  0  0  0  0  0  0
   -7.8090   -0.4707   -0.9264 H   0  0  0  0  0  0  0  0  0  0  0  0
   -7.4495    1.4162    2.0864 H   0  0  0  0  0  0  0  0  0  0  0  0
   -8.5680    0.9286    0.8088 H   0  0  0  0  0  0  0  0  0  0  0  0
   -9.4335    0.0285    2.6997 H   0  0  0  0  0  0  0  0  0  0  0  0
   -7.8953   -0.4328    3.4546 H   0  0  0  0  0  0  0  0  0  0  0  0
   -8.0130   -2.1795    0.1034 H   0  0  0  0  0  0  0  0  0  0  0  0
   -7.4205   -3.2514    1.3911 H   0  0  0  0  0  0  0  0  0  0  0  0
   -5.6199   -1.8849    0.6791 H   0  0  0  0  0  0  0  0  0  0  0  0
   -6.0336   -1.2532    2.2820 H   0  0  0  0  0  0  0  0  0  0  0  0
    9.5567    1.4602   -0.6638 H   0  0  0  0  0  0  0  0  0  0  0  0
   10.3558   -0.3682   -2.0776 H   0  0  0  0  0  0  0  0  0  0  0  0
  1  2  1  0
  2  3  2  0
  3  4  1  0
  4  5  2  0
  5  6  1  0
  6  7  1  0
  7  8  1  0
  8  9  2  0
  9 10  1  0
 10 11  1  0
 11 12  2  0
 10 13  1  0
 13 14  2  0
 13 15  1  0
 15 16  1  0
 16 17  2  0
 17 18  1  0
 18 19  2  0
 19 20  1  0
 18 21  1  0
 21 22  2  0
 21 23  1  0
 23 24  1  0
 24 25  1  0
 25 26  1  0
 26 27  1  0
 27 28  1  0
 28 29  1  0
 29 30  1  0
 30 31  1  0
  5 32  1  0
 32 33  2  0
 33  2  1  0
 12  8  1  0
 20 16  1  0
 31 26  1  0
  3 34  1  0
  4 35  1  0
  6 36  1  0
  6 37  1  0
  9 38  1  0
 15 39  1  0
 17 40  1  0
 19 41  1  0
 23 42  1  0
 24 43  1  0
 24 44  1  0
 25 45  1  0
 25 46  1  0
 27 47  1  0
 27 48  1  0
 28 49  1  0
 28 50  1  0
 30 51  1  0
 30 52  1  0
 31 53  1  0
 31 54  1  0
 32 55  1  0
 33 56  1  0
M  END
$$$$
[H]c1nc(C([H])([H])C([H])([H])C([H])([H])N([H])C(=O)c2nc3c(C(C([H])([H])[H])(C([H])([H])[H])C([H])([H])[H])c([H])c([H])c([H])c3n2[H])c([H])c(N2C([H])([H])C([H])([H])OC([H])([H])C2([H])[H])c1[H]
     RDKit          3D

 62 65  0  0  0  0  0  0  0  0999 V2000
   -6.3602   -0.0126    2.4346 C   0  0  0  0  0  0  0  0  0  0  0  0
   -5.2596    0.1504    1.4084 C   0  0  0  0  0  0  0  0  0  0  0  0
   -5.9293    0.7198    0.1501 C   0  0  0  0  0  0  0  0  0  0  0  0
   -4.2593    1.1433    1.9165 C   0  0  0  0  0  0  0  0  0  0  0  0
   -4.6761   -1.1747    1.1366 C   0  0  0  0  0  0  0  0  0  0  0  0
   -5.1193   -2.3227    1.7587 C   0  0  0  0  0  0  0  0  0  0  0  0
   -4.4945   -3.5288    1.4269 C   0  0  0  0  0  0  0  0  0  0  0  0
   -3.4670   -3.5933    0.5107 C   0  0  0  0  0  0  0  0  0  0  0  0
   -3.0317   -2.4293   -0.1075 C   0  0  0  0  0  0  0  0  0  0  0  0
   -2.0930   -2.1340   -1.0123 N   0  0  0  0  0  0  0  0  0  0  0  0
   -2.0658   -0.8206   -1.2898 C   0  0  0  0  0  0  0  0  0  0  0  0
   -3.0342   -0.2685   -0.5214 N   0  0  0  0  0  0  0  0  0  0  0  0
   -3.6384   -1.2234    0.2082 C   0  0  0  0  0  0  0  0  0  0  0  0
   -1.1721   -0.1344   -2.2251 C   0  0  0  0  0  0  0  0  0  0  0  0
   -0.3201   -0.8016   -2.8560 O   0  0  0  0  0  0  0  0  0  0  0  0
   -1.2437    1.2566   -2.4362 N   0  0  0  0  0  0  0  0  0  0  0  0
   -0.3606    1.9304   -3.3553 C   0  0  0  0  0  0  0  0  0  0  0  0
    1.0900    1.8052   -3.0190 C   0  0  0  0  0  0  0  0  0  0  0  0
    1.3524    2.4052   -1.6323 C   0  0  0  0  0  0  0  0  0  0  0  0
    2.7970    2.2745   -1.3100 C   0  0  0  0  0  0  0  0  0  0  0  0
    3.3051    1.1704   -0.6577 C   0  0  0  0  0  0  0  0  0  0  0  0
    4.6411    1.0158   -0.3389 C   0  0  0  0  0  0  0  0  0  0  0  0
    5.5215    2.0077   -0.6848 C   0  0  0  0  0  0  0  0  0  0  0  0
    4.9956    3.1105   -1.3396 C   0  0  0  0  0  0  0  0  0  0  0  0
    3.6912    3.2309   -1.6352 N   0  0  0  0  0  0  0  0  0  0  0  0
    5.1044   -0.1398    0.3322 N   0  0  0  0  0  0  0  0  0  0  0  0
    6.4546   -0.3046    0.7538 C   0  0  0  0  0  0  0  0  0  0  0  0
    6.4374   -0.9987    2.1213 C   0  0  0  0  0  0  0  0  0  0  0  0
    5.7979   -2.2110    2.1073 O   0  0  0  0  0  0  0  0  0  0  0  0
    5.0206   -2.4340    0.9972 C   0  0  0  0  0  0  0  0  0  0  0  0
    4.1773   -1.2459    0.6206 C   0  0  0  0  0  0  0  0  0  0  0  0
   -5.8873   -0.4260    3.3503 H   0  0  0  0  0  0  0  0  0  0  0  0
   -7.1454   -0.7003    2.0312 H   0  0  0  0  0  0  0  0  0  0  0  0
   -6.8220    0.9698    2.6824 H   0  0  0  0  0  0  0  0  0  0  0  0
   -5.1982    1.2193   -0.5027 H   0  0  0  0  0  0  0  0  0  0  0  0
   -6.6961    1.4351    0.5098 H   0  0  0  0  0  0  0  0  0  0  0  0
   -6.4424   -0.1198   -0.3823 H   0  0  0  0  0  0  0  0  0  0  0  0
   -3.4980    0.6657    2.5802 H   0  0  0  0  0  0  0  0  0  0  0  0
   -4.8053    1.8756    2.5611 H   0  0  0  0  0  0  0  0  0  0  0  0
   -3.8009    1.7083    1.0832 H   0  0  0  0  0  0  0  0  0  0  0  0
   -5.9123   -2.2610    2.4627 H   0  0  0  0  0  0  0  0  0  0  0  0
   -4.8546   -4.4223    1.9252 H   0  0  0  0  0  0  0  0  0  0  0  0
   -2.9787   -4.5151    0.2479 H   0  0  0  0  0  0  0  0  0  0  0  0
   -1.4556   -2.8499   -1.4514 H   0  0  0  0  0  0  0  0  0  0  0  0
   -1.9821    1.7934   -1.8850 H   0  0  0  0  0  0  0  0  0  0  0  0
   -0.5115    1.6026   -4.4054 H   0  0  0  0  0  0  0  0  0  0  0  0
   -0.5963    3.0289   -3.3492 H   0  0  0  0  0  0  0  0  0  0  0  0
    1.6646    2.4154   -3.7760 H   0  0  0  0  0  0  0  0  0  0  0  0
    1.5149    0.8054   -3.0617 H   0  0  0  0  0  0  0  0  0  0  0  0
    0.7732    1.8562   -0.8707 H   0  0  0  0  0  0  0  0  0  0  0  0
    1.0362    3.4630   -1.5789 H   0  0  0  0  0  0  0  0  0  0  0  0
    2.6103    0.3899   -0.3863 H   0  0  0  0  0  0  0  0  0  0  0  0
    6.5861    1.9849   -0.4839 H   0  0  0  0  0  0  0  0  0  0  0  0
    5.6922    3.8916   -1.6120 H   0  0  0  0  0  0  0  0  0  0  0  0
    7.0469    0.6021    0.8809 H   0  0  0  0  0  0  0  0  0  0  0  0
    7.0242   -1.0022    0.0717 H   0  0  0  0  0  0  0  0  0  0  0  0
    5.9955   -0.2874    2.8274 H   0  0  0  0  0  0  0  0  0  0  0  0
    7.5197   -1.1095    2.4029 H   0  0  0  0  0  0  0  0  0  0  0  0
    4.3996   -3.3233    1.1647 H   0  0  0  0  0  0  0  0  0  0  0  0
    5.6821   -2.6844    0.1219 H   0  0  0  0  0  0  0  0  0  0  0  0
    3.4748   -0.9685    1.4055 H   0  0  0  0  0  0  0  0  0  0  0  0
    3.7055   -1.4803   -0.3577 H   0  0  0  0  0  0  0  0  0  0  0  0
  1  2  1  0
  2  3  1  0
  2  4  1  0
  2  5  1  0
  5  6  2  0
  6  7  1  0
  7  8  2  0
  8  9  1  0
  9 10  1  0
 10 11  1  0
 11 12  2  0
 12 13  1  0
 11 14  1  0
 14 15  2  0
 14 16  1  0
 16 17  1  0
 17 18  1  0
 18 19  1  0
 19 20  1  0
 20 21  2  0
 21 22  1  0
 22 23  2  0
 23 24  1  0
 24 25  2  0
 22 26  1  0
 26 27  1  0
 27 28  1  0
 28 29  1  0
 29 30  1  0
 30 31  1  0
 13  5  1  0
 25 20  1  0
 31 26  1  0
 13  9  2  0
  1 32  1  0
  1 33  1  0
  1 34  1  0
  3 35  1  0
  3 36  1  0
  3 37  1  0
  4 38  1  0
  4 39  1  0
  4 40  1  0
  6 41  1  0
  7 42  1  0
  8 43  1  0
 10 44  1  0
 16 45  1  0
 17 46  1  0
 17 47  1  0
 18 48  1  0
 18 49  1  0
 19 50  1  0
 19 51  1  0
 21 52  1  0
 23 53  1  0
 24 54  1  0
 27 55  1  0
 27 56  1  0
 28 57  1  0
 28 58  1  0
 30 59  1  0
 30 60  1  0
 31 61  1  0
 31 62  1  0
M  END
$$$$
[H]c1nc(C(=O)N2C([H])([H])C([H])([H])C([H])(c3c([H])c(N([H])C(=O)C([H])([H])[H])nn3C([H])([H])[H])C2([H])[H])sc1-c1nn(C([H])([H])[H])c(N([H])S(=O)(=O)c2c([H])c([H])c(C([H])([H])[H])c([H])c2[H])c1[H]
     RDKit          3D

 67 71  0  0  0  0  0  0  0  0999 V2000
    7.7156    1.8958   -2.8724 C   0  0  0  0  0  0  0  0  0  0  0  0
    7.7394    0.9653   -1.6971 C   0  0  0  0  0  0  0  0  0  0  0  0
    8.5547    1.2031   -0.5999 C   0  0  0  0  0  0  0  0  0  0  0  0
    8.5516    0.3278    0.4613 C   0  0  0  0  0  0  0  0  0  0  0  0
    7.7365   -0.7779    0.4218 C   0  0  0  0  0  0  0  0  0  0  0  0
    6.9304   -1.0021   -0.6764 C   0  0  0  0  0  0  0  0  0  0  0  0
    6.9380   -0.1324   -1.7230 C   0  0  0  0  0  0  0  0  0  0  0  0
    7.7051   -1.9027    1.7416 S   0  0  0  0  0  0  0  0  0  0  0  0
    7.3504   -3.2899    1.2434 O   0  0  0  0  0  0  0  0  0  0  0  0
    9.0162   -2.0101    2.4385 O   0  0  0  0  0  0  0  0  0  0  0  0
    6.4971   -1.4212    2.9053 N   0  0  0  0  0  0  0  0  0  0  0  0
    5.1432   -1.3597    2.5052 C   0  0  0  0  0  0  0  0  0  0  0  0
    4.4626   -0.2671    1.9655 C   0  0  0  0  0  0  0  0  0  0  0  0
    3.1628   -0.6349    1.7202 C   0  0  0  0  0  0  0  0  0  0  0  0
    3.0541   -1.9002    2.0945 N   0  0  0  0  0  0  0  0  0  0  0  0
    4.2356   -2.3439    2.5665 N   0  0  0  0  0  0  0  0  0  0  0  0
    4.4585   -3.6977    3.0611 C   0  0  0  0  0  0  0  0  0  0  0  0
    2.1209    0.2007    1.1610 C   0  0  0  0  0  0  0  0  0  0  0  0
    2.1738    1.5096    0.7438 C   0  0  0  0  0  0  0  0  0  0  0  0
    1.1087    2.0521    0.2743 N   0  0  0  0  0  0  0  0  0  0  0  0
   -0.0186    1.3491    0.1986 C   0  0  0  0  0  0  0  0  0  0  0  0
    0.4617   -0.1542    0.8251 S   0  0  0  0  0  0  0  0  0  0  0  0
   -1.2813    1.8141   -0.3093 C   0  0  0  0  0  0  0  0  0  0  0  0
   -1.3486    3.0113   -0.7537 O   0  0  0  0  0  0  0  0  0  0  0  0
   -2.4687    1.0217   -0.3502 N   0  0  0  0  0  0  0  0  0  0  0  0
   -2.6366   -0.3317    0.1030 C   0  0  0  0  0  0  0  0  0  0  0  0
   -4.0981   -0.5790    0.2655 C   0  0  0  0  0  0  0  0  0  0  0  0
   -4.7143    0.8069    0.0259 C   0  0  0  0  0  0  0  0  0  0  0  0
   -3.7547    1.4539   -0.8949 C   0  0  0  0  0  0  0  0  0  0  0  0
   -6.0854    0.6247   -0.4137 C   0  0  0  0  0  0  0  0  0  0  0  0
   -7.1639    0.8637    0.4613 C   0  0  0  0  0  0  0  0  0  0  0  0
   -8.3511    0.6295   -0.1931 C   0  0  0  0  0  0  0  0  0  0  0  0
   -9.6555    0.7681    0.3771 N   0  0  0  0  0  0  0  0  0  0  0  0
  -10.8239    0.5057   -0.3796 C   0  0  0  0  0  0  0  0  0  0  0  0
  -10.8058    0.0780   -1.7890 C   0  0  0  0  0  0  0  0  0  0  0  0
  -11.9391    0.6512    0.2007 O   0  0  0  0  0  0  0  0  0  0  0  0
   -8.0042    0.2607   -1.4247 N   0  0  0  0  0  0  0  0  0  0  0  0
   -6.6615    0.2609   -1.5461 N   0  0  0  0  0  0  0  0  0  0  0  0
   -5.9640   -0.0845   -2.7651 C   0  0  0  0  0  0  0  0  0  0  0  0
    8.5034    2.6414   -2.7048 H   0  0  0  0  0  0  0  0  0  0  0  0
    7.9198    1.2534   -3.7685 H   0  0  0  0  0  0  0  0  0  0  0  0
    6.7112    2.3452   -2.9182 H   0  0  0  0  0  0  0  0  0  0  0  0
    9.1858    2.1021   -0.6223 H   0  0  0  0  0  0  0  0  0  0  0  0
    9.1965    0.5403    1.3000 H   0  0  0  0  0  0  0  0  0  0  0  0
    6.2901   -1.8714   -0.7067 H   0  0  0  0  0  0  0  0  0  0  0  0
    6.3076   -0.3211   -2.5660 H   0  0  0  0  0  0  0  0  0  0  0  0
    6.7771   -1.1808    3.8923 H   0  0  0  0  0  0  0  0  0  0  0  0
    4.9139    0.6841    1.7874 H   0  0  0  0  0  0  0  0  0  0  0  0
    5.3541   -3.7376    3.6958 H   0  0  0  0  0  0  0  0  0  0  0  0
    3.5788   -4.0874    3.6205 H   0  0  0  0  0  0  0  0  0  0  0  0
    4.6979   -4.3444    2.1676 H   0  0  0  0  0  0  0  0  0  0  0  0
    3.1392    2.0602    0.8253 H   0  0  0  0  0  0  0  0  0  0  0  0
   -2.1165   -1.0742   -0.5388 H   0  0  0  0  0  0  0  0  0  0  0  0
   -2.1259   -0.3957    1.1174 H   0  0  0  0  0  0  0  0  0  0  0  0
   -4.3249   -0.9267    1.2984 H   0  0  0  0  0  0  0  0  0  0  0  0
   -4.4294   -1.3345   -0.4450 H   0  0  0  0  0  0  0  0  0  0  0  0
   -4.6394    1.3559    1.0102 H   0  0  0  0  0  0  0  0  0  0  0  0
   -3.7518    2.5782   -0.8144 H   0  0  0  0  0  0  0  0  0  0  0  0
   -3.7841    1.1198   -1.9367 H   0  0  0  0  0  0  0  0  0  0  0  0
   -7.1031    1.1853    1.5016 H   0  0  0  0  0  0  0  0  0  0  0  0
   -9.7357    1.0737    1.3892 H   0  0  0  0  0  0  0  0  0  0  0  0
  -10.2629   -0.8930   -1.9042 H   0  0  0  0  0  0  0  0  0  0  0  0
  -11.8605   -0.0480   -2.1680 H   0  0  0  0  0  0  0  0  0  0  0  0
  -10.3011    0.8072   -2.4699 H   0  0  0  0  0  0  0  0  0  0  0  0
   -6.6729   -0.6419   -3.4431 H   0  0  0  0  0  0  0  0  0  0  0  0
   -5.1144   -0.7556   -2.6217 H   0  0  0  0  0  0  0  0  0  0  0  0
   -5.6947    0.8201   -3.3506 H   0  0  0  0  0  0  0  0  0  0  0  0
  1  2  1  0
  2  3  2  0
  3  4  1  0
  4  5  2  0
  5  6  1  0
  6  7  2  0
  5  8  1  0
  8  9  2  0
  8 10  2  0
  8 11  1  0
 11 12  1  0
 12 13  2  0
 13 14  1  0
 14 15  2  0
 15 16  1  0
 16 17  1  0
 14 18  1  0
 18 19  2  0
 19 20  1  0
 20 21  2  0
 21 22  1  0
 21 23  1  0
 23 24  2  0
 23 25  1  0
 25 26  1  0
 26 27  1  0
 27 28  1  0
 28 29  1  0
 28 30  1  0
 30 31  2  0
 31 32  1  0
 32 33  1  0
 33 34  1  0
 34 35  1  0
 34 36  2  0
 32 37  2  0
 37 38  1  0
 38 39  1  0
  7  2  1  0
 16 12  1  0
 22 18  1  0
 29 25  1  0
 38 30  1  0
  1 40  1  0
  1 41  1  0
  1 42  1  0
  3 43  1  0
  4 44  1  0
  6 45  1  0
  7 46  1  0
 11 47  1  0
 13 48  1  0
 17 49  1  0
 17 50  1  0
 17 51  1  0
 19 52  1  0
 26 53  1  0
 26 54  1  0
 27 55  1  0
 27 56  1  0
 28 57  1  0
 29 58  1  0
 29 59  1  0
 31 60  1  0
 33 61  1  0
 35 62  1  0
 35 63  1  0
 35 64  1  0
 39 65  1  0
 39 66  1  0
 39 67  1  0
M  END
$$$$
[H]c1nc(C([H])(c2c([H])c([H])c(C([H])([H])N([H])C(=O)c3sc(N4C([H])([H])C([H])([H])OC([H])([H])C4([H])[H])nc3C([H])([H])[H])c([H])c2Cl)N([H])[H])c([H])c([H])c1C(F)(F)F
     RDKit          3D

 58 61  0  0  0  0  0  0  0  0999 V2000
    4.3765    2.9885   -1.0826 N   0  0  0  0  0  0  0  0  0  0  0  0
    4.5236    1.9855   -0.0433 C   0  0  0  0  0  0  0  0  0  0  0  0
    3.4914    0.9242   -0.1058 C   0  0  0  0  0  0  0  0  0  0  0  0
    2.6706    0.6603    1.0007 C   0  0  0  0  0  0  0  0  0  0  0  0
    1.7111   -0.3610    0.9715 C   0  0  0  0  0  0  0  0  0  0  0  0
    1.5281   -1.1405   -0.1233 C   0  0  0  0  0  0  0  0  0  0  0  0
    0.5664   -2.2624   -0.2976 C   0  0  0  0  0  0  0  0  0  0  0  0
   -0.7724   -1.7659   -0.6766 N   0  0  0  0  0  0  0  0  0  0  0  0
   -1.8332   -1.7752    0.2007 C   0  0  0  0  0  0  0  0  0  0  0  0
   -1.5809   -2.3144    1.3842 O   0  0  0  0  0  0  0  0  0  0  0  0
   -3.2013   -1.3051    0.0294 C   0  0  0  0  0  0  0  0  0  0  0  0
   -4.5382   -1.6666    1.1239 S   0  0  0  0  0  0  0  0  0  0  0  0
   -5.7510   -0.7556    0.3709 C   0  0  0  0  0  0  0  0  0  0  0  0
   -5.1154   -0.2270   -0.6447 N   0  0  0  0  0  0  0  0  0  0  0  0
   -3.8446   -0.4785   -0.8436 C   0  0  0  0  0  0  0  0  0  0  0  0
   -3.1383    0.2195   -2.0042 C   0  0  0  0  0  0  0  0  0  0  0  0
   -7.1309   -0.5906    0.7031 N   0  0  0  0  0  0  0  0  0  0  0  0
   -8.1302   -1.5539    0.2940 C   0  0  0  0  0  0  0  0  0  0  0  0
   -9.0969   -0.7440   -0.5858 C   0  0  0  0  0  0  0  0  0  0  0  0
   -9.5623    0.2879    0.1987 O   0  0  0  0  0  0  0  0  0  0  0  0
   -8.6247    1.2285    0.5561 C   0  0  0  0  0  0  0  0  0  0  0  0
   -7.5615    0.5739    1.4343 C   0  0  0  0  0  0  0  0  0  0  0  0
    2.3619   -0.8685   -1.2384 C   0  0  0  0  0  0  0  0  0  0  0  0
    3.3049    0.1345   -1.2156 C   0  0  0  0  0  0  0  0  0  0  0  0
    4.2548    0.4295   -2.6831 Cl  0  0  0  0  0  0  0  0  0  0  0  0
    5.9155    1.4702    0.0196 C   0  0  0  0  0  0  0  0  0  0  0  0
    6.5130    1.1042    1.1974 C   0  0  0  0  0  0  0  0  0  0  0  0
    7.8195    0.6200    1.2657 C   0  0  0  0  0  0  0  0  0  0  0  0
    8.5723    0.4907    0.1273 C   0  0  0  0  0  0  0  0  0  0  0  0
    7.9470    0.8681   -1.0657 C   0  0  0  0  0  0  0  0  0  0  0  0
    6.7001    1.3237   -1.0844 N   0  0  0  0  0  0  0  0  0  0  0  0
    9.9551   -0.0352    0.0674 C   0  0  0  0  0  0  0  0  0  0  0  0
   10.4164   -0.4362    1.2888 F   0  0  0  0  0  0  0  0  0  0  0  0
    9.9889   -1.1602   -0.7627 F   0  0  0  0  0  0  0  0  0  0  0  0
   10.8631    0.8591   -0.4644 F   0  0  0  0  0  0  0  0  0  0  0  0
    5.1719    3.0350   -1.7457 H   0  0  0  0  0  0  0  0  0  0  0  0
    3.4356    2.8782   -1.5044 H   0  0  0  0  0  0  0  0  0  0  0  0
    4.3069    2.5810    0.9121 H   0  0  0  0  0  0  0  0  0  0  0  0
    2.7902    1.2665    1.8756 H   0  0  0  0  0  0  0  0  0  0  0  0
    1.0897   -0.5351    1.8544 H   0  0  0  0  0  0  0  0  0  0  0  0
    0.9142   -2.9593   -1.0498 H   0  0  0  0  0  0  0  0  0  0  0  0
    0.4784   -2.8332    0.6651 H   0  0  0  0  0  0  0  0  0  0  0  0
   -0.8433   -1.4225   -1.6761 H   0  0  0  0  0  0  0  0  0  0  0  0
   -3.5945    1.2760   -2.0848 H   0  0  0  0  0  0  0  0  0  0  0  0
   -3.3119   -0.2572   -2.9547 H   0  0  0  0  0  0  0  0  0  0  0  0
   -2.0828    0.3742   -1.7857 H   0  0  0  0  0  0  0  0  0  0  0  0
   -8.6338   -2.0222    1.1440 H   0  0  0  0  0  0  0  0  0  0  0  0
   -7.6577   -2.3148   -0.3411 H   0  0  0  0  0  0  0  0  0  0  0  0
   -8.4759   -0.4037   -1.4643 H   0  0  0  0  0  0  0  0  0  0  0  0
   -9.9275   -1.3347   -0.9690 H   0  0  0  0  0  0  0  0  0  0  0  0
   -9.1732    1.9636    1.2119 H   0  0  0  0  0  0  0  0  0  0  0  0
   -8.1671    1.7244   -0.3184 H   0  0  0  0  0  0  0  0  0  0  0  0
   -8.1056    0.1719    2.3376 H   0  0  0  0  0  0  0  0  0  0  0  0
   -6.7403    1.2615    1.6978 H   0  0  0  0  0  0  0  0  0  0  0  0
    2.2256   -1.4939   -2.1047 H   0  0  0  0  0  0  0  0  0  0  0  0
    5.9131    1.2094    2.1103 H   0  0  0  0  0  0  0  0  0  0  0  0
    8.2409    0.3526    2.2093 H   0  0  0  0  0  0  0  0  0  0  0  0
    8.5485    0.7546   -1.9723 H   0  0  0  0  0  0  0  0  0  0  0  0
  1  2  1  0
  2  3  1  0
  3  4  2  0
  4  5  1  0
  5  6  2  0
  6  7  1  0
  7  8  1  0
  8  9  1  0
  9 10  2  0
  9 11  1  0
 11 12  1  0
 12 13  1  0
 13 14  2  0
 14 15  1  0
 15 16  1  0
 13 17  1  0
 17 18  1  0
 18 19  1  0
 19 20  1  0
 20 21  1  0
 21 22  1  0
  6 23  1  0
 23 24  2  0
 24 25  1  0
  2 26  1  0
 26 27  2  0
 27 28  1  0
 28 29  2  0
 29 30  1  0
 30 31  2  0
 29 32  1  0
 32 33  1  0
 32 34  1  0
 32 35  1  0
 24  3  1  0
 31 26  1  0
 15 11  2  0
 22 17  1  0
  1 36  1  0
  1 37  1  0
  2 38  1  0
  4 39  1  0
  5 40  1  0
  7 41  1  0
  7 42  1  0
  8 43  1  0
 16 44  1  0
 16 45  1  0
 16 46  1  0
 18 47  1  0
 18 48  1  0
 19 49  1  0
 19 50  1  0
 21 51  1  0
 21 52  1  0
 22 53  1  0
 22 54  1  0
 23 55  1  0
 27 56  1  0
 28 57  1  0
 30 58  1  0
M  END
$$$$
[H]c1c([H])c([H])c(N([H])C(=O)c2c([H])c([H])c([H])c([H])c2C([H])([H])C([H])([H])C([H])([H])[H])c([H])c1[H]
     RDKit          3D

 35 36  0  0  0  0  0  0  0  0999 V2000
   -2.3273    2.8979    0.3165 C   0  0  0  0  0  0  0  0  0  0  0  0
   -2.0020    1.5953   -0.4171 C   0  0  0  0  0  0  0  0  0  0  0  0
   -2.5177    0.4853    0.4734 C   0  0  0  0  0  0  0  0  0  0  0  0
   -2.2952   -0.8500   -0.0653 C   0  0  0  0  0  0  0  0  0  0  0  0
   -3.3283   -1.6103   -0.6293 C   0  0  0  0  0  0  0  0  0  0  0  0
   -3.1341   -2.8758   -1.1411 C   0  0  0  0  0  0  0  0  0  0  0  0
   -1.8722   -3.4242   -1.1001 C   0  0  0  0  0  0  0  0  0  0  0  0
   -0.8543   -2.6792   -0.5461 C   0  0  0  0  0  0  0  0  0  0  0  0
   -1.0456   -1.4070   -0.0308 C   0  0  0  0  0  0  0  0  0  0  0  0
    0.0544   -0.6439    0.5446 C   0  0  0  0  0  0  0  0  0  0  0  0
   -0.0088   -0.0516    1.6200 O   0  0  0  0  0  0  0  0  0  0  0  0
    1.2784   -0.5659   -0.1591 N   0  0  0  0  0  0  0  0  0  0  0  0
    2.4574    0.0859    0.1558 C   0  0  0  0  0  0  0  0  0  0  0  0
    2.6452    1.0328    1.1162 C   0  0  0  0  0  0  0  0  0  0  0  0
    3.9001    1.6177    1.3693 C   0  0  0  0  0  0  0  0  0  0  0  0
    5.0010    1.2502    0.6449 C   0  0  0  0  0  0  0  0  0  0  0  0
    4.8343    0.2990   -0.3274 C   0  0  0  0  0  0  0  0  0  0  0  0
    3.6046   -0.2682   -0.5686 C   0  0  0  0  0  0  0  0  0  0  0  0
   -3.3610    2.8281    0.7123 H   0  0  0  0  0  0  0  0  0  0  0  0
   -1.6671    2.9013    1.2203 H   0  0  0  0  0  0  0  0  0  0  0  0
   -2.1756    3.7842   -0.3190 H   0  0  0  0  0  0  0  0  0  0  0  0
   -0.9438    1.5320   -0.6408 H   0  0  0  0  0  0  0  0  0  0  0  0
   -2.5934    1.5669   -1.3462 H   0  0  0  0  0  0  0  0  0  0  0  0
   -3.6469    0.6502    0.4227 H   0  0  0  0  0  0  0  0  0  0  0  0
   -2.3314    0.6336    1.5444 H   0  0  0  0  0  0  0  0  0  0  0  0
   -4.3224   -1.1504   -0.6483 H   0  0  0  0  0  0  0  0  0  0  0  0
   -3.9829   -3.4323   -1.5751 H   0  0  0  0  0  0  0  0  0  0  0  0
   -1.6923   -4.4244   -1.4983 H   0  0  0  0  0  0  0  0  0  0  0  0
    0.1691   -3.0772   -0.4934 H   0  0  0  0  0  0  0  0  0  0  0  0
    1.2460   -1.1133   -1.0928 H   0  0  0  0  0  0  0  0  0  0  0  0
    1.7942    1.3518    1.6978 H   0  0  0  0  0  0  0  0  0  0  0  0
    3.9421    2.3712    2.1651 H   0  0  0  0  0  0  0  0  0  0  0  0
    5.9568    1.7194    0.8627 H   0  0  0  0  0  0  0  0  0  0  0  0
    5.6938   -0.0048   -0.9106 H   0  0  0  0  0  0  0  0  0  0  0  0
    3.5251   -1.0245   -1.3566 H   0  0  0  0  0  0  0  0  0  0  0  0
  1  2  1  0
  2  3  1  0
  3  4  1  0
  4  5  2  0
  5  6  1  0
  6  7  2  0
  7  8  1  0
  8  9  2  0
  9 10  1  0
 10 11  2  0
 10 12  1  0
 12 13  1  0
 13 14  2  0
 14 15  1  0
 15 16  2  0
 16 17  1  0
 17 18  2  0
  9  4  1  0
 18 13  1  0
  1 19  1  0
  1 20  1  0
  1 21  1  0
  2 22  1  0
  2 23  1  0
  3 24  1  0
  3 25  1  0
  5 26  1  0
  6 27  1  0
  7 28  1  0
  8 29  1  0
 12 30  1  0
 14 31  1  0
 15 32  1  0
 16 33  1  0
 17 34  1  0
 18 35  1  0
M  END
$$$$
[H]c1c([H])c([H])c(-c2c([H])c([H])c3c(c2[H])c([H])c(C(=O)N([H])C2([H])C([H])([H])C([H])([H])C4(C([H])([H])C([H])([H])N(C([H])([H])c5c([H])c([H])c(C(=O)N([H])[H])c([H])c5[H])C([H])([H])C4([H])[H])C2([H])[H])n3[H])c([H])c1[H]
     RDKit          3D

 72 77  0  0  0  0  0  0  0  0999 V2000
   -7.7294    3.8879    1.6580 N   0  0  0  0  0  0  0  0  0  0  0  0
   -7.9721    2.9721    0.6226 C   0  0  0  0  0  0  0  0  0  0  0  0
   -8.5861    3.3184   -0.4055 O   0  0  0  0  0  0  0  0  0  0  0  0
   -7.5078    1.6055    0.7422 C   0  0  0  0  0  0  0  0  0  0  0  0
   -6.9316    1.1313    1.8995 C   0  0  0  0  0  0  0  0  0  0  0  0
   -6.4939   -0.1710    1.9928 C   0  0  0  0  0  0  0  0  0  0  0  0
   -6.6037   -1.0615    0.9504 C   0  0  0  0  0  0  0  0  0  0  0  0
   -6.1333   -2.4811    1.0247 C   0  0  0  0  0  0  0  0  0  0  0  0
   -4.8009   -2.5504    0.5691 N   0  0  0  0  0  0  0  0  0  0  0  0
   -3.8100   -1.8542    1.2746 C   0  0  0  0  0  0  0  0  0  0  0  0
   -2.4045   -2.0524    0.7723 C   0  0  0  0  0  0  0  0  0  0  0  0
   -2.3274   -1.9212   -0.7387 C   0  0  0  0  0  0  0  0  0  0  0  0
   -2.6655   -0.5351   -1.1649 C   0  0  0  0  0  0  0  0  0  0  0  0
   -1.4134    0.1233   -1.6401 C   0  0  0  0  0  0  0  0  0  0  0  0
   -0.3789   -0.9724   -1.8262 C   0  0  0  0  0  0  0  0  0  0  0  0
   -0.9358   -2.2161   -1.2058 C   0  0  0  0  0  0  0  0  0  0  0  0
    0.8681   -0.6307   -1.1607 N   0  0  0  0  0  0  0  0  0  0  0  0
    1.9941   -0.2870   -1.9373 C   0  0  0  0  0  0  0  0  0  0  0  0
    1.9214   -0.2658   -3.2153 O   0  0  0  0  0  0  0  0  0  0  0  0
    3.2433    0.0432   -1.2716 C   0  0  0  0  0  0  0  0  0  0  0  0
    4.4056    0.4773   -1.8478 C   0  0  0  0  0  0  0  0  0  0  0  0
    5.3481    0.6620   -0.8707 C   0  0  0  0  0  0  0  0  0  0  0  0
    6.6796    1.0810   -0.8729 C   0  0  0  0  0  0  0  0  0  0  0  0
    7.4425    1.1869    0.2714 C   0  0  0  0  0  0  0  0  0  0  0  0
    6.8421    0.8576    1.4687 C   0  0  0  0  0  0  0  0  0  0  0  0
    5.5104    0.4386    1.4798 C   0  0  0  0  0  0  0  0  0  0  0  0
    4.7565    0.3370    0.3266 C   0  0  0  0  0  0  0  0  0  0  0  0
    3.4914   -0.0314    0.0603 N   0  0  0  0  0  0  0  0  0  0  0  0
    8.8223    1.6330    0.2345 C   0  0  0  0  0  0  0  0  0  0  0  0
    9.2577    2.5480   -0.6995 C   0  0  0  0  0  0  0  0  0  0  0  0
   10.5695    2.9842   -0.7540 C   0  0  0  0  0  0  0  0  0  0  0  0
   11.4831    2.4919    0.1561 C   0  0  0  0  0  0  0  0  0  0  0  0
   11.0627    1.5812    1.0882 C   0  0  0  0  0  0  0  0  0  0  0  0
    9.7369    1.1422    1.1409 C   0  0  0  0  0  0  0  0  0  0  0  0
   -3.2558   -2.9708   -1.3191 C   0  0  0  0  0  0  0  0  0  0  0  0
   -4.6342   -2.6616   -0.8446 C   0  0  0  0  0  0  0  0  0  0  0  0
   -7.1832   -0.5810   -0.2100 C   0  0  0  0  0  0  0  0  0  0  0  0
   -7.6238    0.7123   -0.3168 C   0  0  0  0  0  0  0  0  0  0  0  0
   -8.2678    3.8162    2.5315 H   0  0  0  0  0  0  0  0  0  0  0  0
   -7.0102    4.6334    1.5429 H   0  0  0  0  0  0  0  0  0  0  0  0
   -6.8183    1.7958    2.7615 H   0  0  0  0  0  0  0  0  0  0  0  0
   -6.0613   -0.4924    2.9122 H   0  0  0  0  0  0  0  0  0  0  0  0
   -6.8538   -3.0921    0.4868 H   0  0  0  0  0  0  0  0  0  0  0  0
   -6.1500   -2.7313    2.1265 H   0  0  0  0  0  0  0  0  0  0  0  0
   -3.8267   -2.2021    2.3394 H   0  0  0  0  0  0  0  0  0  0  0  0
   -4.0302   -0.7695    1.3072 H   0  0  0  0  0  0  0  0  0  0  0  0
   -1.7817   -1.2446    1.2020 H   0  0  0  0  0  0  0  0  0  0  0  0
   -1.9553   -3.0131    1.0379 H   0  0  0  0  0  0  0  0  0  0  0  0
   -3.4880   -0.4796   -1.9198 H   0  0  0  0  0  0  0  0  0  0  0  0
   -3.0151    0.0338   -0.2655 H   0  0  0  0  0  0  0  0  0  0  0  0
   -1.0349    0.9072   -0.9503 H   0  0  0  0  0  0  0  0  0  0  0  0
   -1.6052    0.6563   -2.6174 H   0  0  0  0  0  0  0  0  0  0  0  0
   -0.1762   -1.0722   -2.9349 H   0  0  0  0  0  0  0  0  0  0  0  0
   -0.9722   -3.0005   -2.0090 H   0  0  0  0  0  0  0  0  0  0  0  0
   -0.2717   -2.5436   -0.3731 H   0  0  0  0  0  0  0  0  0  0  0  0
    0.9280   -0.6407   -0.1352 H   0  0  0  0  0  0  0  0  0  0  0  0
    4.5497    0.6450   -2.8981 H   0  0  0  0  0  0  0  0  0  0  0  0
    7.1226    1.3364   -1.8296 H   0  0  0  0  0  0  0  0  0  0  0  0
    7.3655    0.9127    2.4098 H   0  0  0  0  0  0  0  0  0  0  0  0
    5.0210    0.1800    2.4154 H   0  0  0  0  0  0  0  0  0  0  0  0
    2.7890   -0.3347    0.7677 H   0  0  0  0  0  0  0  0  0  0  0  0
    8.5247    2.9229   -1.4021 H   0  0  0  0  0  0  0  0  0  0  0  0
   10.9278    3.7022   -1.4764 H   0  0  0  0  0  0  0  0  0  0  0  0
   12.5079    2.8341    0.1109 H   0  0  0  0  0  0  0  0  0  0  0  0
   11.8089    1.2075    1.7942 H   0  0  0  0  0  0  0  0  0  0  0  0
    9.4273    0.4204    1.8876 H   0  0  0  0  0  0  0  0  0  0  0  0
   -3.1985   -2.9373   -2.4095 H   0  0  0  0  0  0  0  0  0  0  0  0
   -2.8842   -3.9664   -0.9867 H   0  0  0  0  0  0  0  0  0  0  0  0
   -5.2861   -3.5140   -1.1970 H   0  0  0  0  0  0  0  0  0  0  0  0
   -4.9674   -1.7423   -1.3230 H   0  0  0  0  0  0  0  0  0  0  0  0
   -7.2868   -1.2699   -1.0462 H   0  0  0  0  0  0  0  0  0  0  0  0
   -8.0748    1.0713   -1.2317 H   0  0  0  0  0  0  0  0  0  0  0  0
  1  2  1  0
  2  3  2  0
  2  4  1  0
  4  5  2  0
  5  6  1  0
  6  7  2  0
  7  8  1  0
  8  9  1  0
  9 10  1  0
 10 11  1  0
 11 12  1  0
 12 13  1  0
 13 14  1  0
 14 15  1  0
 15 16  1  0
 15 17  1  0
 17 18  1  0
 18 19  2  0
 18 20  1  0
 20 21  2  0
 21 22  1  0
 22 23  2  0
 23 24  1  0
 24 25  2  0
 25 26  1  0
 26 27  2  0
 27 28  1  0
 24 29  1  0
 29 30  2  0
 30 31  1  0
 31 32  2  0
 32 33  1  0
 33 34  2  0
 12 35  1  0
 35 36  1  0
  7 37  1  0
 37 38  2  0
 38  4  1  0
 36  9  1  0
 16 12  1  0
 28 20  1  0
 34 29  1  0
 27 22  1  0
  1 39  1  0
  1 40  1  0
  5 41  1  0
  6 42  1  0
  8 43  1  0
  8 44  1  0
 10 45  1  0
 10 46  1  0
 11 47  1  0
 11 48  1  0
 13 49  1  0
 13 50  1  0
 14 51  1  0
 14 52  1  0
 15 53  1  0
 16 54  1  0
 16 55  1  0
 17 56  1  0
 21 57  1  0
 23 58  1  0
 25 59  1  0
 26 60  1  0
 28 61  1  0
 30 62  1  0
 31 63  1  0
 32 64  1  0
 33 65  1  0
 34 66  1  0
 35 67  1  0
 35 68  1  0
 36 69  1  0
 36 70  1  0
 37 71  1  0
 38 72  1  0
M  END
$$$$
[H]OC([H])([H])C([H])(OC(=O)C([H])([H])c1c([H])c([H])c(C(=O)N2C([H])([H])C([H])([H])C([H])(N(c3nc([H])c(C(C([H])([H])[H])(C([H])([H])[H])C([H])([H])[H])n3[H])C([H])([H])c3oc(C#N)c([H])c3[H])C([H])([H])C2([H])[H])c([H])c1F)C([H])([H])[H]
     RDKit          3D

 77 80  0  0  0  0  0  0  0  0999 V2000
   10.8235   -0.8849   -0.8633 C   0  0  0  0  0  0  0  0  0  0  0  0
   10.0210   -0.5933    0.4041 C   0  0  0  0  0  0  0  0  0  0  0  0
   10.7440    0.5668    1.1151 C   0  0  0  0  0  0  0  0  0  0  0  0
   12.0746    0.2684    1.2980 O   0  0  0  0  0  0  0  0  0  0  0  0
    8.7440   -0.4128    0.2717 O   0  0  0  0  0  0  0  0  0  0  0  0
    7.4740   -0.3664    0.2322 C   0  0  0  0  0  0  0  0  0  0  0  0
    6.9362   -1.3615    0.9149 O   0  0  0  0  0  0  0  0  0  0  0  0
    6.5261    0.5516   -0.3979 C   0  0  0  0  0  0  0  0  0  0  0  0
    5.1202    0.2968   -0.0066 C   0  0  0  0  0  0  0  0  0  0  0  0
    4.1588   -0.2080   -0.8170 C   0  0  0  0  0  0  0  0  0  0  0  0
    2.8151   -0.3652   -0.4016 C   0  0  0  0  0  0  0  0  0  0  0  0
    2.4110   -0.0112    0.8486 C   0  0  0  0  0  0  0  0  0  0  0  0
    3.4240    0.5100    1.6789 C   0  0  0  0  0  0  0  0  0  0  0  0
    4.7206    0.6688    1.2979 C   0  0  0  0  0  0  0  0  0  0  0  0
    5.6854    1.1720    2.0950 F   0  0  0  0  0  0  0  0  0  0  0  0
    1.0570   -0.0096    1.3858 C   0  0  0  0  0  0  0  0  0  0  0  0
    0.9585    0.1615    2.6802 O   0  0  0  0  0  0  0  0  0  0  0  0
   -0.1389   -0.1456    0.7358 N   0  0  0  0  0  0  0  0  0  0  0  0
   -0.4359   -0.3466   -0.6278 C   0  0  0  0  0  0  0  0  0  0  0  0
   -1.8913   -0.0951   -1.0040 C   0  0  0  0  0  0  0  0  0  0  0  0
   -2.4905    1.0735   -0.3063 C   0  0  0  0  0  0  0  0  0  0  0  0
   -1.9048    1.3461    1.0499 C   0  0  0  0  0  0  0  0  0  0  0  0
   -1.3647    0.0003    1.5933 C   0  0  0  0  0  0  0  0  0  0  0  0
   -3.9294    1.0014   -0.2217 N   0  0  0  0  0  0  0  0  0  0  0  0
   -4.6814    2.0145    0.4544 C   0  0  0  0  0  0  0  0  0  0  0  0
   -4.6059    3.3633   -0.1444 C   0  0  0  0  0  0  0  0  0  0  0  0
   -5.5261    3.9578   -0.9294 C   0  0  0  0  0  0  0  0  0  0  0  0
   -5.0827    5.1949   -1.2694 C   0  0  0  0  0  0  0  0  0  0  0  0
   -3.8251    5.3300   -0.6407 C   0  0  0  0  0  0  0  0  0  0  0  0
   -3.5898    4.2365    0.0037 O   0  0  0  0  0  0  0  0  0  0  0  0
   -3.0751    6.5354   -0.7981 C   0  0  0  0  0  0  0  0  0  0  0  0
   -2.4419    7.5154   -0.9133 N   0  0  0  0  0  0  0  0  0  0  0  0
   -4.6266   -0.0840   -0.8007 C   0  0  0  0  0  0  0  0  0  0  0  0
   -5.0137   -0.3057   -2.0410 N   0  0  0  0  0  0  0  0  0  0  0  0
   -5.6861   -1.4608   -2.1569 C   0  0  0  0  0  0  0  0  0  0  0  0
   -5.7286   -2.0207   -0.8837 C   0  0  0  0  0  0  0  0  0  0  0  0
   -5.0683   -1.1532   -0.0759 N   0  0  0  0  0  0  0  0  0  0  0  0
   -6.3660   -3.2922   -0.4626 C   0  0  0  0  0  0  0  0  0  0  0  0
   -5.2958   -4.0806    0.2815 C   0  0  0  0  0  0  0  0  0  0  0  0
   -6.7155   -4.0688   -1.7212 C   0  0  0  0  0  0  0  0  0  0  0  0
   -7.6134   -3.1026    0.3510 C   0  0  0  0  0  0  0  0  0  0  0  0
   10.5787   -0.2073   -1.7017 H   0  0  0  0  0  0  0  0  0  0  0  0
   10.7652   -1.9497   -1.1354 H   0  0  0  0  0  0  0  0  0  0  0  0
   11.8691   -0.7012   -0.5699 H   0  0  0  0  0  0  0  0  0  0  0  0
   10.2487   -1.5015    1.0564 H   0  0  0  0  0  0  0  0  0  0  0  0
   10.5822    1.5156    0.5569 H   0  0  0  0  0  0  0  0  0  0  0  0
   10.2405    0.7007    2.0859 H   0  0  0  0  0  0  0  0  0  0  0  0
   12.3739    0.8278    2.0828 H   0  0  0  0  0  0  0  0  0  0  0  0
    6.7906    1.6326   -0.1880 H   0  0  0  0  0  0  0  0  0  0  0  0
    6.6128    0.4675   -1.4927 H   0  0  0  0  0  0  0  0  0  0  0  0
    4.4158   -0.5091   -1.8119 H   0  0  0  0  0  0  0  0  0  0  0  0
    2.1149   -0.7908   -1.0863 H   0  0  0  0  0  0  0  0  0  0  0  0
    3.1474    0.8026    2.6934 H   0  0  0  0  0  0  0  0  0  0  0  0
   -0.1602   -1.3861   -0.9738 H   0  0  0  0  0  0  0  0  0  0  0  0
    0.1470    0.3486   -1.2826 H   0  0  0  0  0  0  0  0  0  0  0  0
   -1.8874    0.0410   -2.1171 H   0  0  0  0  0  0  0  0  0  0  0  0
   -2.5376   -0.9772   -0.8056 H   0  0  0  0  0  0  0  0  0  0  0  0
   -2.2803    1.9830   -0.9616 H   0  0  0  0  0  0  0  0  0  0  0  0
   -1.0040    2.0299    0.9106 H   0  0  0  0  0  0  0  0  0  0  0  0
   -2.5349    1.8696    1.7617 H   0  0  0  0  0  0  0  0  0  0  0  0
   -1.1246    0.0734    2.6396 H   0  0  0  0  0  0  0  0  0  0  0  0
   -2.0413   -0.7985    1.2696 H   0  0  0  0  0  0  0  0  0  0  0  0
   -4.4397    2.0914    1.5628 H   0  0  0  0  0  0  0  0  0  0  0  0
   -5.7862    1.7527    0.4880 H   0  0  0  0  0  0  0  0  0  0  0  0
   -6.5010    3.5561   -1.2693 H   0  0  0  0  0  0  0  0  0  0  0  0
   -5.5978    5.8971   -1.8885 H   0  0  0  0  0  0  0  0  0  0  0  0
   -6.1348   -1.9554   -2.9913 H   0  0  0  0  0  0  0  0  0  0  0  0
   -4.9443   -1.3259    0.9350 H   0  0  0  0  0  0  0  0  0  0  0  0
   -4.5156   -4.3037   -0.4493 H   0  0  0  0  0  0  0  0  0  0  0  0
   -5.7278   -4.9811    0.7558 H   0  0  0  0  0  0  0  0  0  0  0  0
   -4.9216   -3.4219    1.1096 H   0  0  0  0  0  0  0  0  0  0  0  0
   -7.2073   -5.0107   -1.3687 H   0  0  0  0  0  0  0  0  0  0  0  0
   -7.4422   -3.5239   -2.3264 H   0  0  0  0  0  0  0  0  0  0  0  0
   -5.7981   -4.3837   -2.2579 H   0  0  0  0  0  0  0  0  0  0  0  0
   -8.5072   -3.4807   -0.2053 H   0  0  0  0  0  0  0  0  0  0  0  0
   -7.7846   -2.0507    0.6587 H   0  0  0  0  0  0  0  0  0  0  0  0
   -7.6046   -3.7268    1.2939 H   0  0  0  0  0  0  0  0  0  0  0  0
  1  2  1  0
  2  3  1  0
  3  4  1  0
  2  5  1  0
  5  6  1  0
  6  7  2  0
  6  8  1  0
  8  9  1  0
  9 10  2  0
 10 11  1  0
 11 12  2  0
 12 13  1  0
 13 14  2  0
 14 15  1  0
 12 16  1  0
 16 17  2  0
 16 18  1  0
 18 19  1  0
 19 20  1  0
 20 21  1  0
 21 22  1  0
 22 23  1  0
 21 24  1  0
 24 25  1  0
 25 26  1  0
 26 27  2  0
 27 28  1  0
 28 29  2  0
 29 30  1  0
 29 31  1  0
 31 32  3  0
 24 33  1  0
 33 34  2  0
 34 35  1  0
 35 36  2  0
 36 37  1  0
 36 38  1  0
 38 39  1  0
 38 40  1  0
 38 41  1  0
 14  9  1  0
 23 18  1  0
 30 26  1  0
 37 33  1  0
  1 42  1  0
  1 43  1  0
  1 44  1  0
  2 45  1  0
  3 46  1  0
  3 47  1  0
  4 48  1  0
  8 49  1  0
  8 50  1  0
 10 51  1  0
 11 52  1  0
 13 53  1  0
 19 54  1  0
 19 55  1  0
 20 56  1  0
 20 57  1  0
 21 58  1  0
 22 59  1  0
 22 60  1  0
 23 61  1  0
 23 62  1  0
 25 63  1  0
 25 64  1  0
 27 65  1  0
 28 66  1  0
 35 67  1  0
 37 68  1  0
 39 69  1  0
 39 70  1  0
 39 71  1  0
 40 72  1  0
 40 73  1  0
 40 74  1  0
 41 75  1  0
 41 76  1  0
 41 77  1  0
M  END
$$$$
[H]Oc1c([H])c([H])c([H])c([H])c1-c1c([H])c(N([H])C(=O)c2noc(C([H])([H])n3nc([H])nc3[H])c2[H])c([H])c([H])c1Cl
     RDKit          3D

 42 45  0  0  0  0  0  0  0  0999 V2000
    4.7290    3.3696    0.2783 Cl  0  0  0  0  0  0  0  0  0  0  0  0
    3.2232    2.4698    0.1298 C   0  0  0  0  0  0  0  0  0  0  0  0
    2.0093    3.1221    0.0967 C   0  0  0  0  0  0  0  0  0  0  0  0
    0.8174    2.4773   -0.0025 C   0  0  0  0  0  0  0  0  0  0  0  0
    0.7760    1.0779   -0.0778 C   0  0  0  0  0  0  0  0  0  0  0  0
   -0.4556    0.4067   -0.1983 N   0  0  0  0  0  0  0  0  0  0  0  0
   -0.7050   -0.9432    0.0273 C   0  0  0  0  0  0  0  0  0  0  0  0
    0.1465   -1.7604    0.3801 O   0  0  0  0  0  0  0  0  0  0  0  0
   -2.0839   -1.4512   -0.1635 C   0  0  0  0  0  0  0  0  0  0  0  0
   -3.1713   -0.7199   -0.5670 C   0  0  0  0  0  0  0  0  0  0  0  0
   -4.2578   -1.5779   -0.6099 C   0  0  0  0  0  0  0  0  0  0  0  0
   -5.6408   -1.1539   -1.0079 C   0  0  0  0  0  0  0  0  0  0  0  0
   -6.4098   -0.6743    0.1105 N   0  0  0  0  0  0  0  0  0  0  0  0
   -7.1806   -1.4409    0.8898 C   0  0  0  0  0  0  0  0  0  0  0  0
   -7.7421   -0.6578    1.8249 N   0  0  0  0  0  0  0  0  0  0  0  0
   -7.3339    0.6014    1.6463 C   0  0  0  0  0  0  0  0  0  0  0  0
   -6.5090    0.5743    0.5804 N   0  0  0  0  0  0  0  0  0  0  0  0
   -3.8111   -2.7340   -0.2504 O   0  0  0  0  0  0  0  0  0  0  0  0
   -2.5380   -2.7198    0.0247 N   0  0  0  0  0  0  0  0  0  0  0  0
    1.9850    0.4301   -0.0460 C   0  0  0  0  0  0  0  0  0  0  0  0
    3.2061    1.0978    0.0563 C   0  0  0  0  0  0  0  0  0  0  0  0
    4.4932    0.4058    0.0366 C   0  0  0  0  0  0  0  0  0  0  0  0
    5.4350    0.7781   -0.9400 C   0  0  0  0  0  0  0  0  0  0  0  0
    6.6564    0.1674   -1.0721 C   0  0  0  0  0  0  0  0  0  0  0  0
    6.9270   -0.8517   -0.1858 C   0  0  0  0  0  0  0  0  0  0  0  0
    6.0451   -1.2461    0.7766 C   0  0  0  0  0  0  0  0  0  0  0  0
    4.7927   -0.6063    0.9000 C   0  0  0  0  0  0  0  0  0  0  0  0
    3.9300   -1.0325    1.8908 O   0  0  0  0  0  0  0  0  0  0  0  0
    2.0461    4.2021    0.1556 H   0  0  0  0  0  0  0  0  0  0  0  0
   -0.1022    3.0389   -0.0249 H   0  0  0  0  0  0  0  0  0  0  0  0
   -1.2782    1.0465   -0.5065 H   0  0  0  0  0  0  0  0  0  0  0  0
   -3.1778    0.3339   -0.8067 H   0  0  0  0  0  0  0  0  0  0  0  0
   -5.5466   -0.2954   -1.7114 H   0  0  0  0  0  0  0  0  0  0  0  0
   -6.1368   -1.9904   -1.4985 H   0  0  0  0  0  0  0  0  0  0  0  0
   -7.3404   -2.5031    0.8043 H   0  0  0  0  0  0  0  0  0  0  0  0
   -7.6364    1.4247    2.2604 H   0  0  0  0  0  0  0  0  0  0  0  0
    2.0845   -0.6407   -0.1145 H   0  0  0  0  0  0  0  0  0  0  0  0
    5.1738    1.5866   -1.6279 H   0  0  0  0  0  0  0  0  0  0  0  0
    7.3974    0.4287   -1.8069 H   0  0  0  0  0  0  0  0  0  0  0  0
    7.8728   -1.3748   -0.2364 H   0  0  0  0  0  0  0  0  0  0  0  0
    6.2603   -2.0504    1.4745 H   0  0  0  0  0  0  0  0  0  0  0  0
    3.0504   -0.6149    2.0494 H   0  0  0  0  0  0  0  0  0  0  0  0
  1  2  1  0
  2  3  2  0
  3  4  1  0
  4  5  2  0
  5  6  1  0
  6  7  1  0
  7  8  2  0
  7  9  1  0
  9 10  1  0
 10 11  2  0
 11 12  1  0
 12 13  1  0
 13 14  1  0
 14 15  2  0
 15 16  1  0
 16 17  2  0
 11 18  1  0
 18 19  1  0
  5 20  1  0
 20 21  2  0
 21 22  1  0
 22 23  2  0
 23 24  1  0
 24 25  2  0
 25 26  1  0
 26 27  2  0
 27 28  1  0
 21  2  1  0
 27 22  1  0
 19  9  2  0
 17 13  1  0
  3 29  1  0
  4 30  1  0
  6 31  1  0
 10 32  1  0
 12 33  1  0
 12 34  1  0
 14 35  1  0
 16 36  1  0
 20 37  1  0
 23 38  1  0
 24 39  1  0
 25 40  1  0
 26 41  1  0
 28 42  1  0
M  END
$$$$
[H]c1nc2nc(N([H])C([H])([H])[H])oc2c([H])c1C(=O)N([H])C([H])([H])c1c([H])c([H])c(C([H])([H])[H])c(C(=O)N2Oc3c(N([H])[H])c([H])c([H])c([H])c3C([H])([H])C2([H])[H])c1[H]
     RDKit          3D

 59 63  0  0  0  0  0  0  0  0999 V2000
   11.0306   -0.5441   -1.6436 C   0  0  0  0  0  0  0  0  0  0  0  0
    9.8165   -1.2949   -1.6964 N   0  0  0  0  0  0  0  0  0  0  0  0
    8.6733   -0.8776   -0.9332 C   0  0  0  0  0  0  0  0  0  0  0  0
    8.6160    0.2038   -0.1281 N   0  0  0  0  0  0  0  0  0  0  0  0
    7.3909    0.2789    0.4204 C   0  0  0  0  0  0  0  0  0  0  0  0
    6.7712    1.1214    1.2795 N   0  0  0  0  0  0  0  0  0  0  0  0
    5.4873    0.9243    1.6548 C   0  0  0  0  0  0  0  0  0  0  0  0
    4.7297   -0.1354    1.1940 C   0  0  0  0  0  0  0  0  0  0  0  0
    5.3534   -0.9974    0.3194 C   0  0  0  0  0  0  0  0  0  0  0  0
    6.6806   -0.7961   -0.0703 C   0  0  0  0  0  0  0  0  0  0  0  0
    7.4969   -1.4437   -0.8678 O   0  0  0  0  0  0  0  0  0  0  0  0
    3.3494   -0.2846    1.6351 C   0  0  0  0  0  0  0  0  0  0  0  0
    2.8514    0.5666    2.4210 O   0  0  0  0  0  0  0  0  0  0  0  0
    2.5136   -1.3556    1.2222 N   0  0  0  0  0  0  0  0  0  0  0  0
    1.1472   -1.4624    1.6832 C   0  0  0  0  0  0  0  0  0  0  0  0
    0.2976   -0.4747    0.9375 C   0  0  0  0  0  0  0  0  0  0  0  0
    0.7762    0.1785   -0.1761 C   0  0  0  0  0  0  0  0  0  0  0  0
   -0.0194    1.0999   -0.8566 C   0  0  0  0  0  0  0  0  0  0  0  0
   -1.2955    1.3657   -0.4193 C   0  0  0  0  0  0  0  0  0  0  0  0
   -2.1296    2.3552   -1.1599 C   0  0  0  0  0  0  0  0  0  0  0  0
   -1.7507    0.6990    0.6972 C   0  0  0  0  0  0  0  0  0  0  0  0
   -0.9687   -0.2158    1.3774 C   0  0  0  0  0  0  0  0  0  0  0  0
   -3.0913    0.9667    1.1773 C   0  0  0  0  0  0  0  0  0  0  0  0
   -3.2109    1.9005    2.0178 O   0  0  0  0  0  0  0  0  0  0  0  0
   -4.2312    0.2195    0.7306 N   0  0  0  0  0  0  0  0  0  0  0  0
   -4.1139   -0.8558   -0.2318 C   0  0  0  0  0  0  0  0  0  0  0  0
   -4.9600   -0.4824   -1.4177 C   0  0  0  0  0  0  0  0  0  0  0  0
   -6.3382   -0.1947   -0.9164 C   0  0  0  0  0  0  0  0  0  0  0  0
   -7.4160   -0.4148   -1.7795 C   0  0  0  0  0  0  0  0  0  0  0  0
   -8.6877   -0.1493   -1.3245 C   0  0  0  0  0  0  0  0  0  0  0  0
   -8.9215    0.3259   -0.0452 C   0  0  0  0  0  0  0  0  0  0  0  0
   -7.8577    0.5405    0.7995 C   0  0  0  0  0  0  0  0  0  0  0  0
   -8.0295    1.0260    2.1178 N   0  0  0  0  0  0  0  0  0  0  0  0
   -6.5989    0.2784    0.3517 C   0  0  0  0  0  0  0  0  0  0  0  0
   -5.4951    0.4888    1.1956 O   0  0  0  0  0  0  0  0  0  0  0  0
   11.5597   -0.6732   -2.6284 H   0  0  0  0  0  0  0  0  0  0  0  0
   11.7458   -0.8948   -0.8632 H   0  0  0  0  0  0  0  0  0  0  0  0
   10.7782    0.5390   -1.5137 H   0  0  0  0  0  0  0  0  0  0  0  0
    9.7469   -2.1468   -2.2852 H   0  0  0  0  0  0  0  0  0  0  0  0
    4.9930    1.6126    2.3523 H   0  0  0  0  0  0  0  0  0  0  0  0
    4.8170   -1.8445   -0.0767 H   0  0  0  0  0  0  0  0  0  0  0  0
    2.9114   -2.0680    0.5748 H   0  0  0  0  0  0  0  0  0  0  0  0
    1.1357   -1.2906    2.7699 H   0  0  0  0  0  0  0  0  0  0  0  0
    0.7531   -2.4653    1.4389 H   0  0  0  0  0  0  0  0  0  0  0  0
    1.7809   -0.0430   -0.5071 H   0  0  0  0  0  0  0  0  0  0  0  0
    0.3668    1.6074   -1.7305 H   0  0  0  0  0  0  0  0  0  0  0  0
   -2.3416    1.8908   -2.1538 H   0  0  0  0  0  0  0  0  0  0  0  0
   -3.0895    2.5308   -0.6807 H   0  0  0  0  0  0  0  0  0  0  0  0
   -1.6013    3.3162   -1.3106 H   0  0  0  0  0  0  0  0  0  0  0  0
   -1.3283   -0.7447    2.2612 H   0  0  0  0  0  0  0  0  0  0  0  0
   -3.0699   -1.0916   -0.4993 H   0  0  0  0  0  0  0  0  0  0  0  0
   -4.5643   -1.7862    0.2138 H   0  0  0  0  0  0  0  0  0  0  0  0
   -4.9782   -1.2779   -2.1918 H   0  0  0  0  0  0  0  0  0  0  0  0
   -4.5301    0.4489   -1.8647 H   0  0  0  0  0  0  0  0  0  0  0  0
   -7.2500   -0.7891   -2.7909 H   0  0  0  0  0  0  0  0  0  0  0  0
   -9.5270   -0.3135   -1.9772 H   0  0  0  0  0  0  0  0  0  0  0  0
   -9.9555    0.5249    0.2771 H   0  0  0  0  0  0  0  0  0  0  0  0
   -7.3546    1.6736    2.5714 H   0  0  0  0  0  0  0  0  0  0  0  0
   -8.8643    0.7245    2.6605 H   0  0  0  0  0  0  0  0  0  0  0  0
  1  2  1  0
  2  3  1  0
  3  4  2  0
  4  5  1  0
  5  6  2  0
  6  7  1  0
  7  8  2  0
  8  9  1  0
  9 10  2  0
 10 11  1  0
  8 12  1  0
 12 13  2  0
 12 14  1  0
 14 15  1  0
 15 16  1  0
 16 17  2  0
 17 18  1  0
 18 19  2  0
 19 20  1  0
 19 21  1  0
 21 22  2  0
 21 23  1  0
 23 24  2  0
 23 25  1  0
 25 26  1  0
 26 27  1  0
 27 28  1  0
 28 29  2  0
 29 30  1  0
 30 31  2  0
 31 32  1  0
 32 33  1  0
 32 34  2  0
 34 35  1  0
 11  3  1  0
 22 16  1  0
 35 25  1  0
 10  5  1  0
 34 28  1  0
  1 36  1  0
  1 37  1  0
  1 38  1  0
  2 39  1  0
  7 40  1  0
  9 41  1  0
 14 42  1  0
 15 43  1  0
 15 44  1  0
 17 45  1  0
 18 46  1  0
 20 47  1  0
 20 48  1  0
 20 49  1  0
 22 50  1  0
 26 51  1  0
 26 52  1  0
 27 53  1  0
 27 54  1  0
 29 55  1  0
 30 56  1  0
 31 57  1  0
 33 58  1  0
 33 59  1  0
M  END
$$$$
[H]O[C@@]([H])(C(=O)N([H])c1nc(-c2c([H])c([H])c(C(=O)N=C(C([H])([H])[H])C([H])([H])[H])c([H])c2[H])nc(N2C([H])([H])C([H])([H])[C@]3([H])C(=O)OC([H])([H])[C@]23[H])c1[H])C([H])([H])[H]
     RDKit          3D

 58 61  0  0  0  0  0  0  0  0999 V2000
   -4.8632    2.4334   -3.0455 C   0  0  0  0  0  0  0  0  0  0  0  0
   -4.0067    1.8574   -1.9008 C   0  0  1  0  0  0  0  0  0  0  0  0
   -2.6635    2.0366   -2.2032 O   0  0  0  0  0  0  0  0  0  0  0  0
   -4.4039    2.5885   -0.6671 C   0  0  0  0  0  0  0  0  0  0  0  0
   -5.6363    2.9050   -0.5812 O   0  0  0  0  0  0  0  0  0  0  0  0
   -3.4950    2.9430    0.3580 N   0  0  0  0  0  0  0  0  0  0  0  0
   -2.3190    2.0660    0.5365 C   0  0  0  0  0  0  0  0  0  0  0  0
   -2.7622    0.7114    0.3997 C   0  0  0  0  0  0  0  0  0  0  0  0
   -1.7569   -0.2229    0.3853 C   0  0  0  0  0  0  0  0  0  0  0  0
   -0.5254    0.1744    0.4971 N   0  0  0  0  0  0  0  0  0  0  0  0
   -0.0803    1.4709    0.6306 C   0  0  0  0  0  0  0  0  0  0  0  0
   -1.0785    2.3995    0.6469 N   0  0  0  0  0  0  0  0  0  0  0  0
    1.3205    1.7129    0.7085 C   0  0  0  0  0  0  0  0  0  0  0  0
    2.1633    0.5912    0.5479 C   0  0  0  0  0  0  0  0  0  0  0  0
    3.5400    0.6571    0.5727 C   0  0  0  0  0  0  0  0  0  0  0  0
    4.0937    1.8770    0.7642 C   0  0  0  0  0  0  0  0  0  0  0  0
    3.3870    3.0190    0.9353 C   0  0  0  0  0  0  0  0  0  0  0  0
    1.9963    2.8891    0.8977 C   0  0  0  0  0  0  0  0  0  0  0  0
    5.6109    1.9624    0.7526 C   0  0  0  0  0  0  0  0  0  0  0  0
    6.1318    3.0948    0.9235 O   0  0  0  0  0  0  0  0  0  0  0  0
    6.3172    0.8185    0.5629 N   0  0  0  0  0  0  0  0  0  0  0  0
    6.8974   -0.1696    0.9065 C   0  0  0  0  0  0  0  0  0  0  0  0
    7.5211   -1.0608   -0.1781 C   0  0  0  0  0  0  0  0  0  0  0  0
    7.0634   -0.6322    2.2981 C   0  0  0  0  0  0  0  0  0  0  0  0
   -2.1170   -1.6157    0.2812 N   0  0  0  0  0  0  0  0  0  0  0  0
   -1.2459   -2.6394   -0.2144 C   0  0  0  0  0  0  0  0  0  0  0  0
   -1.5190   -3.7495    0.8022 C   0  0  0  0  0  0  0  0  0  0  0  0
   -3.0445   -3.6442    0.9179 C   0  0  1  0  0  0  0  0  0  0  0  0
   -3.3598   -2.1998    0.6652 C   0  0  2  0  0  0  0  0  0  0  0  0
   -4.4581   -2.1277   -0.3433 C   0  0  0  0  0  0  0  0  0  0  0  0
   -4.7577   -3.4577   -0.6592 O   0  0  0  0  0  0  0  0  0  0  0  0
   -3.7288   -4.2937   -0.2269 C   0  0  0  0  0  0  0  0  0  0  0  0
   -3.4284   -5.3977   -0.7215 O   0  0  0  0  0  0  0  0  0  0  0  0
   -5.9298    2.2083   -2.7390 H   0  0  0  0  0  0  0  0  0  0  0  0
   -4.7242    3.5189   -3.1309 H   0  0  0  0  0  0  0  0  0  0  0  0
   -4.5997    1.8454   -3.9194 H   0  0  0  0  0  0  0  0  0  0  0  0
   -4.1764    0.8003   -1.8232 H   0  0  0  0  0  0  0  0  0  0  0  0
   -2.5751    2.1821   -3.1832 H   0  0  0  0  0  0  0  0  0  0  0  0
   -3.6660    3.4723    1.1708 H   0  0  0  0  0  0  0  0  0  0  0  0
   -3.7747    0.4203    0.3452 H   0  0  0  0  0  0  0  0  0  0  0  0
    1.7211   -0.3987    0.3923 H   0  0  0  0  0  0  0  0  0  0  0  0
    4.1435   -0.2201    0.4508 H   0  0  0  0  0  0  0  0  0  0  0  0
    3.8517    3.9840    1.0792 H   0  0  0  0  0  0  0  0  0  0  0  0
    1.4199    3.7673    1.0479 H   0  0  0  0  0  0  0  0  0  0  0  0
    6.8409   -1.9748   -0.1836 H   0  0  0  0  0  0  0  0  0  0  0  0
    8.5675   -1.3188    0.0494 H   0  0  0  0  0  0  0  0  0  0  0  0
    7.4982   -0.5609   -1.1672 H   0  0  0  0  0  0  0  0  0  0  0  0
    7.7837   -1.5079    2.3726 H   0  0  0  0  0  0  0  0  0  0  0  0
    6.0691   -1.0132    2.6837 H   0  0  0  0  0  0  0  0  0  0  0  0
    7.4483    0.1053    2.9944 H   0  0  0  0  0  0  0  0  0  0  0  0
   -1.5472   -3.0166   -1.2330 H   0  0  0  0  0  0  0  0  0  0  0  0
   -0.1950   -2.3823   -0.2556 H   0  0  0  0  0  0  0  0  0  0  0  0
   -1.1562   -4.7010    0.4600 H   0  0  0  0  0  0  0  0  0  0  0  0
   -1.0569   -3.3847    1.7419 H   0  0  0  0  0  0  0  0  0  0  0  0
   -3.4036   -3.9542    1.9034 H   0  0  0  0  0  0  0  0  0  0  0  0
   -3.7568   -1.6984    1.5940 H   0  0  0  0  0  0  0  0  0  0  0  0
   -5.3802   -1.5833    0.0523 H   0  0  0  0  0  0  0  0  0  0  0  0
   -4.1944   -1.5865   -1.2602 H   0  0  0  0  0  0  0  0  0  0  0  0
  1  2  1  0
  2  3  1  0
  2  4  1  0
  4  5  2  0
  4  6  1  0
  6  7  1  0
  7  8  2  0
  8  9  1  0
  9 10  2  0
 10 11  1  0
 11 12  2  0
 11 13  1  0
 13 14  2  0
 14 15  1  0
 15 16  2  0
 16 17  1  0
 17 18  2  0
 16 19  1  0
 19 20  2  0
 19 21  1  0
 21 22  2  3
 22 23  1  0
 22 24  1  0
  9 25  1  0
 25 26  1  0
 26 27  1  0
 27 28  1  0
 28 29  1  0
 29 30  1  0
 30 31  1  0
 31 32  1  0
 32 33  2  0
 12  7  1  0
 18 13  1  0
 29 25  1  0
 32 28  1  0
  1 34  1  0
  1 35  1  0
  1 36  1  0
  2 37  1  1
  3 38  1  0
  6 39  1  0
  8 40  1  0
 14 41  1  0
 15 42  1  0
 17 43  1  0
 18 44  1  0
 23 45  1  0
 23 46  1  0
 23 47  1  0
 24 48  1  0
 24 49  1  0
 24 50  1  0
 26 51  1  0
 26 52  1  0
 27 53  1  0
 27 54  1  0
 28 55  1  1
 29 56  1  1
 30 57  1  0
 30 58  1  0
M  END
$$$$
[H]O[C@@]1(C([H])([H])[H])C(=O)N([H])C(=O)[C@@]([H])(c2c([H])c([H])c([H])c(OC([H])([H])[H])c2[H])N([H])C(=O)C1([H])[H]
     RDKit          3D

 37 38  0  0  0  0  0  0  0  0999 V2000
    4.8775   -1.1023    1.3875 C   0  0  0  0  0  0  0  0  0  0  0  0
    3.7291   -0.2788    1.3861 O   0  0  0  0  0  0  0  0  0  0  0  0
    2.9956   -0.1969    0.2123 C   0  0  0  0  0  0  0  0  0  0  0  0
    3.3524   -0.8848   -0.9282 C   0  0  0  0  0  0  0  0  0  0  0  0
    2.5988   -0.7761   -2.0695 C   0  0  0  0  0  0  0  0  0  0  0  0
    1.4776    0.0346   -2.0532 C   0  0  0  0  0  0  0  0  0  0  0  0
    1.0974    0.7336   -0.9276 C   0  0  0  0  0  0  0  0  0  0  0  0
    1.8708    0.6070    0.2038 C   0  0  0  0  0  0  0  0  0  0  0  0
   -0.1138    1.5659   -1.0247 C   0  0  1  0  0  0  0  0  0  0  0  0
   -1.1729    0.8519   -1.6852 N   0  0  0  0  0  0  0  0  0  0  0  0
   -2.0114   -0.2365   -1.3683 C   0  0  0  0  0  0  0  0  0  0  0  0
   -2.8144   -0.5379   -2.2851 O   0  0  0  0  0  0  0  0  0  0  0  0
   -2.1634   -1.1093   -0.1981 C   0  0  0  0  0  0  0  0  0  0  0  0
   -2.9036   -0.4411    0.9382 C   0  0  1  0  0  0  0  0  0  0  0  0
   -4.1544    0.1727    0.3532 C   0  0  0  0  0  0  0  0  0  0  0  0
   -3.3146   -1.4629    1.7909 O   0  0  0  0  0  0  0  0  0  0  0  0
   -2.0996    0.5135    1.7030 C   0  0  0  0  0  0  0  0  0  0  0  0
   -2.3138    0.3913    2.9592 O   0  0  0  0  0  0  0  0  0  0  0  0
   -1.1414    1.5428    1.4139 N   0  0  0  0  0  0  0  0  0  0  0  0
   -0.5471    2.1207    0.2639 C   0  0  0  0  0  0  0  0  0  0  0  0
   -0.3803    3.3550    0.4366 O   0  0  0  0  0  0  0  0  0  0  0  0
    5.1308   -1.2814    2.4630 H   0  0  0  0  0  0  0  0  0  0  0  0
    4.6654   -2.1165    0.9658 H   0  0  0  0  0  0  0  0  0  0  0  0
    5.7490   -0.6260    0.8931 H   0  0  0  0  0  0  0  0  0  0  0  0
    4.2379   -1.5248   -0.9401 H   0  0  0  0  0  0  0  0  0  0  0  0
    2.8786   -1.3138   -2.9590 H   0  0  0  0  0  0  0  0  0  0  0  0
    0.9145    0.0831   -2.9921 H   0  0  0  0  0  0  0  0  0  0  0  0
    1.5962    1.1452    1.1048 H   0  0  0  0  0  0  0  0  0  0  0  0
    0.1713    2.4347   -1.6771 H   0  0  0  0  0  0  0  0  0  0  0  0
   -1.3654    1.2346   -2.6299 H   0  0  0  0  0  0  0  0  0  0  0  0
   -1.1652   -1.4202    0.2127 H   0  0  0  0  0  0  0  0  0  0  0  0
   -2.7061   -2.0578   -0.4325 H   0  0  0  0  0  0  0  0  0  0  0  0
   -4.7145    0.7858    1.1019 H   0  0  0  0  0  0  0  0  0  0  0  0
   -3.9507    0.7831   -0.5413 H   0  0  0  0  0  0  0  0  0  0  0  0
   -4.8112   -0.6672    0.0460 H   0  0  0  0  0  0  0  0  0  0  0  0
   -2.6959   -1.5623    2.5456 H   0  0  0  0  0  0  0  0  0  0  0  0
   -0.8033    1.9709    2.3302 H   0  0  0  0  0  0  0  0  0  0  0  0
  1  2  1  0
  2  3  1  0
  3  4  2  0
  4  5  1  0
  5  6  2  0
  6  7  1  0
  7  8  2  0
  7  9  1  0
  9 10  1  0
 10 11  1  0
 11 12  2  0
 11 13  1  0
 13 14  1  0
 14 15  1  0
 14 16  1  1
 14 17  1  0
 17 18  2  0
 17 19  1  0
 19 20  1  0
 20 21  2  0
  8  3  1  0
 20  9  1  0
  1 22  1  0
  1 23  1  0
  1 24  1  0
  4 25  1  0
  5 26  1  0
  6 27  1  0
  8 28  1  0
  9 29  1  6
 10 30  1  0
 13 31  1  0
 13 32  1  0
 15 33  1  0
 15 34  1  0
 15 35  1  0
 16 36  1  0
 19 37  1  0
M  END
$$$$
[H]c1c([H])c(C([H])([H])C([H])([H])c2nc([H])c3c([H])c([H])c(=O)n(-c4c([H])c([H])c(SC([H])([H])[H])c([H])c4[H])c3c2[H])c([H])c2c1OC([H])([H])O2
     RDKit          3D

 50 54  0  0  0  0  0  0  0  0999 V2000
   -3.7289    4.1408   -0.3072 C   0  0  0  0  0  0  0  0  0  0  0  0
   -4.9206    2.8796   -0.7524 S   0  0  0  0  0  0  0  0  0  0  0  0
   -4.2539    1.2264   -0.6068 C   0  0  0  0  0  0  0  0  0  0  0  0
   -3.6195    0.6056   -1.6615 C   0  0  0  0  0  0  0  0  0  0  0  0
   -3.1054   -0.6690   -1.5495 C   0  0  0  0  0  0  0  0  0  0  0  0
   -3.1990   -1.3865   -0.3801 C   0  0  0  0  0  0  0  0  0  0  0  0
   -3.8288   -0.7799    0.6788 C   0  0  0  0  0  0  0  0  0  0  0  0
   -4.3425    0.4954    0.5648 C   0  0  0  0  0  0  0  0  0  0  0  0
   -2.6697   -2.6786   -0.2901 N   0  0  0  0  0  0  0  0  0  0  0  0
   -1.3630   -2.7666    0.0557 C   0  0  0  0  0  0  0  0  0  0  0  0
   -0.5774   -1.6438    0.3105 C   0  0  0  0  0  0  0  0  0  0  0  0
    0.7267   -1.7928    0.6531 C   0  0  0  0  0  0  0  0  0  0  0  0
    1.5509   -0.5919    0.9212 C   0  0  0  0  0  0  0  0  0  0  0  0
    2.1732   -0.1726   -0.3909 C   0  0  0  0  0  0  0  0  0  0  0  0
    3.0243    1.0123   -0.2856 C   0  0  0  0  0  0  0  0  0  0  0  0
    2.4712    2.2612   -0.4622 C   0  0  0  0  0  0  0  0  0  0  0  0
    3.2421    3.4212   -0.3714 C   0  0  0  0  0  0  0  0  0  0  0  0
    4.5844    3.3129   -0.0994 C   0  0  0  0  0  0  0  0  0  0  0  0
    5.5867    4.2728    0.0480 O   0  0  0  0  0  0  0  0  0  0  0  0
    6.7661    3.6637    0.5326 C   0  0  0  0  0  0  0  0  0  0  0  0
    6.5193    2.2861    0.3393 O   0  0  0  0  0  0  0  0  0  0  0  0
    5.1555    2.0838    0.0797 C   0  0  0  0  0  0  0  0  0  0  0  0
    4.3725    0.9524   -0.0150 C   0  0  0  0  0  0  0  0  0  0  0  0
    1.3065   -2.9993    0.7601 N   0  0  0  0  0  0  0  0  0  0  0  0
    0.5813   -4.1236    0.5215 C   0  0  0  0  0  0  0  0  0  0  0  0
   -0.7468   -4.0032    0.1712 C   0  0  0  0  0  0  0  0  0  0  0  0
   -1.5020   -5.1539   -0.0765 C   0  0  0  0  0  0  0  0  0  0  0  0
   -2.8291   -4.9954   -0.4249 C   0  0  0  0  0  0  0  0  0  0  0  0
   -3.4276   -3.7641   -0.5359 C   0  0  0  0  0  0  0  0  0  0  0  0
   -4.6285   -3.5669   -0.8491 O   0  0  0  0  0  0  0  0  0  0  0  0
   -2.7060    3.7447   -0.1476 H   0  0  0  0  0  0  0  0  0  0  0  0
   -3.7533    4.9322   -1.0910 H   0  0  0  0  0  0  0  0  0  0  0  0
   -4.1147    4.6519    0.6217 H   0  0  0  0  0  0  0  0  0  0  0  0
   -3.5534    1.1841   -2.5770 H   0  0  0  0  0  0  0  0  0  0  0  0
   -2.6181   -1.0719   -2.4522 H   0  0  0  0  0  0  0  0  0  0  0  0
   -3.9541   -1.2733    1.6589 H   0  0  0  0  0  0  0  0  0  0  0  0
   -4.8449    0.9839    1.4041 H   0  0  0  0  0  0  0  0  0  0  0  0
   -1.0755   -0.6883    0.2154 H   0  0  0  0  0  0  0  0  0  0  0  0
    0.9234    0.2341    1.3425 H   0  0  0  0  0  0  0  0  0  0  0  0
    2.2923   -0.8590    1.6859 H   0  0  0  0  0  0  0  0  0  0  0  0
    1.3172    0.0698   -1.0754 H   0  0  0  0  0  0  0  0  0  0  0  0
    2.6928   -1.0577   -0.8079 H   0  0  0  0  0  0  0  0  0  0  0  0
    1.4113    2.3687   -0.6781 H   0  0  0  0  0  0  0  0  0  0  0  0
    2.8168    4.4080   -0.5086 H   0  0  0  0  0  0  0  0  0  0  0  0
    7.6588    4.0146   -0.0251 H   0  0  0  0  0  0  0  0  0  0  0  0
    6.8377    3.9052    1.6130 H   0  0  0  0  0  0  0  0  0  0  0  0
    4.8368    0.0033    0.1280 H   0  0  0  0  0  0  0  0  0  0  0  0
    0.9961   -5.1147    0.5929 H   0  0  0  0  0  0  0  0  0  0  0  0
   -1.0298   -6.1052    0.0119 H   0  0  0  0  0  0  0  0  0  0  0  0
   -3.4516   -5.8566   -0.6257 H   0  0  0  0  0  0  0  0  0  0  0  0
  1  2  1  0
  2  3  1  0
  3  4  2  0
  4  5  1  0
  5  6  2  0
  6  7  1  0
  7  8  2  0
  6  9  1  0
  9 10  1  0
 10 11  2  0
 11 12  1  0
 12 13  1  0
 13 14  1  0
 14 15  1  0
 15 16  2  0
 16 17  1  0
 17 18  2  0
 18 19  1  0
 19 20  1  0
 20 21  1  0
 21 22  1  0
 22 23  2  0
 12 24  2  0
 24 25  1  0
 25 26  2  0
 26 27  1  0
 27 28  2  0
 28 29  1  0
 29 30  2  0
  8  3  1  0
 29  9  1  0
 26 10  1  0
 23 15  1  0
 22 18  1  0
  1 31  1  0
  1 32  1  0
  1 33  1  0
  4 34  1  0
  5 35  1  0
  7 36  1  0
  8 37  1  0
 11 38  1  0
 13 39  1  0
 13 40  1  0
 14 41  1  0
 14 42  1  0
 16 43  1  0
 17 44  1  0
 20 45  1  0
 20 46  1  0
 23 47  1  0
 25 48  1  0
 27 49  1  0
 28 50  1  0
M  END
$$$$
[H]c1nc(-c2nn([H])c(=O)n2C([H])([H])[H])c2nc(-c3c([H])c([H])c([H])c([H])c3[H])c([H])c(N([H])C(=O)C3([H])C([H])([H])C([H])([H])C(C([H])([H])[H])(C([H])([H])[H])C3([H])[H])c2c1[H]
     RDKit          3D

 59 63  0  0  0  0  0  0  0  0999 V2000
    6.5504    0.6367   -0.7179 C   0  0  0  0  0  0  0  0  0  0  0  0
    5.1388    0.0719   -0.7617 C   0  0  0  0  0  0  0  0  0  0  0  0
    4.9675   -0.8682   -1.9315 C   0  0  0  0  0  0  0  0  0  0  0  0
    4.8459   -0.5714    0.5521 C   0  0  0  0  0  0  0  0  0  0  0  0
    4.3661    0.5537    1.4116 C   0  0  0  0  0  0  0  0  0  0  0  0
    3.8043    1.5942    0.5070 C   0  0  0  0  0  0  0  0  0  0  0  0
    4.1133    1.1739   -0.9155 C   0  0  0  0  0  0  0  0  0  0  0  0
    2.2847    1.6523    0.5890 C   0  0  0  0  0  0  0  0  0  0  0  0
    1.8628    2.7557    0.9662 O   0  0  0  0  0  0  0  0  0  0  0  0
    1.5251    0.5212    0.2518 N   0  0  0  0  0  0  0  0  0  0  0  0
    0.1364    0.4042    0.2710 C   0  0  0  0  0  0  0  0  0  0  0  0
   -0.7304    1.4176    0.6317 C   0  0  0  0  0  0  0  0  0  0  0  0
   -2.0976    1.2466    0.6315 C   0  0  0  0  0  0  0  0  0  0  0  0
   -2.6487    0.0716    0.2758 N   0  0  0  0  0  0  0  0  0  0  0  0
   -1.8368   -0.9473   -0.0844 C   0  0  0  0  0  0  0  0  0  0  0  0
   -2.4544   -2.1381   -0.4423 C   0  0  0  0  0  0  0  0  0  0  0  0
   -1.6535   -3.1610   -0.8031 N   0  0  0  0  0  0  0  0  0  0  0  0
   -0.3422   -3.1063   -0.8381 C   0  0  0  0  0  0  0  0  0  0  0  0
    0.2858   -1.9109   -0.4791 C   0  0  0  0  0  0  0  0  0  0  0  0
   -0.4571   -0.8132   -0.0966 C   0  0  0  0  0  0  0  0  0  0  0  0
   -3.9125   -2.3125   -0.4401 C   0  0  0  0  0  0  0  0  0  0  0  0
   -4.8973   -1.4677   -0.1293 N   0  0  0  0  0  0  0  0  0  0  0  0
   -6.0889   -2.0171   -0.2582 N   0  0  0  0  0  0  0  0  0  0  0  0
   -5.8682   -3.2759   -0.6715 C   0  0  0  0  0  0  0  0  0  0  0  0
   -6.7482   -4.1499   -0.9171 O   0  0  0  0  0  0  0  0  0  0  0  0
   -4.5283   -3.4724   -0.7881 N   0  0  0  0  0  0  0  0  0  0  0  0
   -3.8659   -4.6872   -1.2050 C   0  0  0  0  0  0  0  0  0  0  0  0
   -2.9566    2.3836    1.0315 C   0  0  0  0  0  0  0  0  0  0  0  0
   -2.4567    3.6006    1.4027 C   0  0  0  0  0  0  0  0  0  0  0  0
   -3.2753    4.6663    1.7782 C   0  0  0  0  0  0  0  0  0  0  0  0
   -4.6305    4.5223    1.7862 C   0  0  0  0  0  0  0  0  0  0  0  0
   -5.1633    3.3120    1.4184 C   0  0  0  0  0  0  0  0  0  0  0  0
   -4.3329    2.2530    1.0447 C   0  0  0  0  0  0  0  0  0  0  0  0
    6.7696    1.0495    0.2836 H   0  0  0  0  0  0  0  0  0  0  0  0
    7.2546   -0.2082   -0.8667 H   0  0  0  0  0  0  0  0  0  0  0  0
    6.6961    1.4514   -1.4626 H   0  0  0  0  0  0  0  0  0  0  0  0
    5.4190   -0.3715   -2.8150 H   0  0  0  0  0  0  0  0  0  0  0  0
    3.8800   -0.9580   -2.1341 H   0  0  0  0  0  0  0  0  0  0  0  0
    5.4533   -1.8493   -1.7756 H   0  0  0  0  0  0  0  0  0  0  0  0
    4.1521   -1.4310    0.4984 H   0  0  0  0  0  0  0  0  0  0  0  0
    5.7941   -0.9854    0.9921 H   0  0  0  0  0  0  0  0  0  0  0  0
    3.6747    0.2385    2.2186 H   0  0  0  0  0  0  0  0  0  0  0  0
    5.2618    0.9880    1.9435 H   0  0  0  0  0  0  0  0  0  0  0  0
    4.2602    2.5837    0.6715 H   0  0  0  0  0  0  0  0  0  0  0  0
    4.5419    2.0233   -1.5081 H   0  0  0  0  0  0  0  0  0  0  0  0
    3.2199    0.8041   -1.4579 H   0  0  0  0  0  0  0  0  0  0  0  0
    2.0902   -0.3334   -0.0505 H   0  0  0  0  0  0  0  0  0  0  0  0
   -0.3004    2.3724    0.9212 H   0  0  0  0  0  0  0  0  0  0  0  0
    0.2584   -3.9396   -1.1299 H   0  0  0  0  0  0  0  0  0  0  0  0
    1.3544   -1.8716   -0.5091 H   0  0  0  0  0  0  0  0  0  0  0  0
   -7.0347   -1.5971   -0.0855 H   0  0  0  0  0  0  0  0  0  0  0  0
   -4.6665   -5.4496   -1.4296 H   0  0  0  0  0  0  0  0  0  0  0  0
   -3.3301   -4.5626   -2.1649 H   0  0  0  0  0  0  0  0  0  0  0  0
   -3.2524   -5.1397   -0.4078 H   0  0  0  0  0  0  0  0  0  0  0  0
   -1.3897    3.7805    1.4178 H   0  0  0  0  0  0  0  0  0  0  0  0
   -2.7810    5.5803    2.0522 H   0  0  0  0  0  0  0  0  0  0  0  0
   -5.2361    5.3661    2.0818 H   0  0  0  0  0  0  0  0  0  0  0  0
   -6.2405    3.2050    1.4272 H   0  0  0  0  0  0  0  0  0  0  0  0
   -4.7849    1.3158    0.7615 H   0  0  0  0  0  0  0  0  0  0  0  0
  1  2  1  0
  2  3  1  0
  2  4  1  0
  4  5  1  0
  5  6  1  0
  6  7  1  0
  6  8  1  0
  8  9  2  0
  8 10  1  0
 10 11  1  0
 11 12  2  0
 12 13  1  0
 13 14  2  0
 14 15  1  0
 15 16  2  0
 16 17  1  0
 17 18  2  0
 18 19  1  0
 19 20  2  0
 16 21  1  0
 21 22  2  0
 22 23  1  0
 23 24  1  0
 24 25  2  0
 24 26  1  0
 26 27  1  0
 13 28  1  0
 28 29  2  0
 29 30  1  0
 30 31  2  0
 31 32  1  0
 32 33  2  0
  7  2  1  0
 20 11  1  0
 26 21  1  0
 33 28  1  0
 20 15  1  0
  1 34  1  0
  1 35  1  0
  1 36  1  0
  3 37  1  0
  3 38  1  0
  3 39  1  0
  4 40  1  0
  4 41  1  0
  5 42  1  0
  5 43  1  0
  6 44  1  0
  7 45  1  0
  7 46  1  0
 10 47  1  0
 12 48  1  0
 18 49  1  0
 19 50  1  0
 23 51  1  0
 27 52  1  0
 27 53  1  0
 27 54  1  0
 29 55  1  0
 30 56  1  0
 31 57  1  0
 32 58  1  0
 33 59  1  0
M  END
$$$$
[H]c1nc(C([H])([H])C([H])([H])[H])c(Oc2c([H])c(C(=O)N([H])c3c([H])c([H])c4oc(C(C([H])([H])[H])(C([H])([H])[H])C([H])([H])[H])nc4c3[H])c([H])c(N(C([H])([H])[H])C([H])([H])[H])c2[H])c([H])c1[H]
     RDKit          3D

 64 67  0  0  0  0  0  0  0  0999 V2000
   -6.1513   -3.2052   -1.9737 C   0  0  0  0  0  0  0  0  0  0  0  0
   -6.8001   -1.8562   -2.3075 C   0  0  0  0  0  0  0  0  0  0  0  0
   -7.1192   -1.2278   -0.9961 C   0  0  0  0  0  0  0  0  0  0  0  0
   -8.3525   -1.3380   -0.5310 N   0  0  0  0  0  0  0  0  0  0  0  0
   -8.7067   -0.8187    0.6624 C   0  0  0  0  0  0  0  0  0  0  0  0
   -7.7518   -0.1595    1.4034 C   0  0  0  0  0  0  0  0  0  0  0  0
   -6.4615   -0.0411    0.9218 C   0  0  0  0  0  0  0  0  0  0  0  0
   -6.1079   -0.5769   -0.3017 C   0  0  0  0  0  0  0  0  0  0  0  0
   -4.8663   -0.5140   -0.8742 O   0  0  0  0  0  0  0  0  0  0  0  0
   -3.7601    0.0817   -0.3129 C   0  0  0  0  0  0  0  0  0  0  0  0
   -3.7146    1.4300    0.0419 C   0  0  0  0  0  0  0  0  0  0  0  0
   -2.6146    2.0347    0.5978 C   0  0  0  0  0  0  0  0  0  0  0  0
   -1.4855    1.2318    0.8100 C   0  0  0  0  0  0  0  0  0  0  0  0
   -1.4954   -0.0923    0.4752 C   0  0  0  0  0  0  0  0  0  0  0  0
   -2.5901   -0.6567   -0.0670 C   0  0  0  0  0  0  0  0  0  0  0  0
   -0.2651   -0.8465    0.6917 C   0  0  0  0  0  0  0  0  0  0  0  0
   -0.3756   -1.9400    1.2761 O   0  0  0  0  0  0  0  0  0  0  0  0
    0.9169   -0.2574    0.2156 N   0  0  0  0  0  0  0  0  0  0  0  0
    2.2378   -0.7502    0.2863 C   0  0  0  0  0  0  0  0  0  0  0  0
    2.5955   -1.9691    0.7727 C   0  0  0  0  0  0  0  0  0  0  0  0
    3.9228   -2.3998    0.8394 C   0  0  0  0  0  0  0  0  0  0  0  0
    4.9252   -1.5846    0.4049 C   0  0  0  0  0  0  0  0  0  0  0  0
    6.2455   -1.6950    0.3371 O   0  0  0  0  0  0  0  0  0  0  0  0
    6.7941   -0.6182   -0.1640 C   0  0  0  0  0  0  0  0  0  0  0  0
    5.7846    0.2244   -0.4324 N   0  0  0  0  0  0  0  0  0  0  0  0
    4.6021   -0.3401   -0.0944 C   0  0  0  0  0  0  0  0  0  0  0  0
    3.2904    0.0573   -0.1492 C   0  0  0  0  0  0  0  0  0  0  0  0
    8.2622   -0.3674   -0.3953 C   0  0  0  0  0  0  0  0  0  0  0  0
    8.6648    0.7408    0.5905 C   0  0  0  0  0  0  0  0  0  0  0  0
    9.0373   -1.5943   -0.0522 C   0  0  0  0  0  0  0  0  0  0  0  0
    8.4915    0.1218   -1.7956 C   0  0  0  0  0  0  0  0  0  0  0  0
   -2.6091    3.3909    0.9758 N   0  0  0  0  0  0  0  0  0  0  0  0
   -2.3406    4.4291    0.0269 C   0  0  0  0  0  0  0  0  0  0  0  0
   -2.8669    3.7070    2.3549 C   0  0  0  0  0  0  0  0  0  0  0  0
   -5.0738   -3.1041   -1.7741 H   0  0  0  0  0  0  0  0  0  0  0  0
   -6.3652   -3.9530   -2.7845 H   0  0  0  0  0  0  0  0  0  0  0  0
   -6.6124   -3.6247   -1.0276 H   0  0  0  0  0  0  0  0  0  0  0  0
   -6.0354   -1.2724   -2.8797 H   0  0  0  0  0  0  0  0  0  0  0  0
   -7.6809   -1.9692   -2.9554 H   0  0  0  0  0  0  0  0  0  0  0  0
   -9.7395   -0.9354    1.0229 H   0  0  0  0  0  0  0  0  0  0  0  0
   -7.9795    0.2784    2.3636 H   0  0  0  0  0  0  0  0  0  0  0  0
   -5.7206    0.4725    1.4946 H   0  0  0  0  0  0  0  0  0  0  0  0
   -4.6408    1.9914   -0.1527 H   0  0  0  0  0  0  0  0  0  0  0  0
   -0.6048    1.6668    1.2452 H   0  0  0  0  0  0  0  0  0  0  0  0
   -2.6040   -1.7021   -0.3266 H   0  0  0  0  0  0  0  0  0  0  0  0
    0.7761    0.7013   -0.2766 H   0  0  0  0  0  0  0  0  0  0  0  0
    1.8337   -2.6784    1.1356 H   0  0  0  0  0  0  0  0  0  0  0  0
    4.1355   -3.3729    1.2349 H   0  0  0  0  0  0  0  0  0  0  0  0
    3.0418    1.0357   -0.5393 H   0  0  0  0  0  0  0  0  0  0  0  0
    9.7531    0.8235    0.7018 H   0  0  0  0  0  0  0  0  0  0  0  0
    8.1472    1.6711    0.2953 H   0  0  0  0  0  0  0  0  0  0  0  0
    8.2173    0.4250    1.5795 H   0  0  0  0  0  0  0  0  0  0  0  0
    9.1651   -2.2943   -0.8973 H   0  0  0  0  0  0  0  0  0  0  0  0
   10.0611   -1.2524    0.2505 H   0  0  0  0  0  0  0  0  0  0  0  0
    8.5959   -2.0503    0.8505 H   0  0  0  0  0  0  0  0  0  0  0  0
    9.5039    0.5783   -1.8242 H   0  0  0  0  0  0  0  0  0  0  0  0
    7.7753    0.9532   -2.0219 H   0  0  0  0  0  0  0  0  0  0  0  0
    8.4296   -0.7122   -2.5063 H   0  0  0  0  0  0  0  0  0  0  0  0
   -2.4314    5.4277    0.5417 H   0  0  0  0  0  0  0  0  0  0  0  0
   -3.1051    4.4489   -0.7912 H   0  0  0  0  0  0  0  0  0  0  0  0
   -1.3067    4.3972   -0.3772 H   0  0  0  0  0  0  0  0  0  0  0  0
   -2.5600    4.7586    2.5178 H   0  0  0  0  0  0  0  0  0  0  0  0
   -2.3483    3.0148    3.0695 H   0  0  0  0  0  0  0  0  0  0  0  0
   -3.9630    3.6764    2.5471 H   0  0  0  0  0  0  0  0  0  0  0  0
  1  2  1  0
  2  3  1  0
  3  4  2  0
  4  5  1  0
  5  6  2  0
  6  7  1  0
  7  8  2  0
  8  9  1  0
  9 10  1  0
 10 11  2  0
 11 12  1  0
 12 13  2  0
 13 14  1  0
 14 15  2  0
 14 16  1  0
 16 17  2  0
 16 18  1  0
 18 19  1  0
 19 20  2  0
 20 21  1  0
 21 22  2  0
 22 23  1  0
 23 24  1  0
 24 25  2  0
 25 26  1  0
 26 27  2  0
 24 28  1  0
 28 29  1  0
 28 30  1  0
 28 31  1  0
 12 32  1  0
 32 33  1  0
 32 34  1  0
  8  3  1  0
 15 10  1  0
 27 19  1  0
 26 22  1  0
  1 35  1  0
  1 36  1  0
  1 37  1  0
  2 38  1  0
  2 39  1  0
  5 40  1  0
  6 41  1  0
  7 42  1  0
 11 43  1  0
 13 44  1  0
 15 45  1  0
 18 46  1  0
 20 47  1  0
 21 48  1  0
 27 49  1  0
 29 50  1  0
 29 51  1  0
 29 52  1  0
 30 53  1  0
 30 54  1  0
 30 55  1  0
 31 56  1  0
 31 57  1  0
 31 58  1  0
 33 59  1  0
 33 60  1  0
 33 61  1  0
 34 62  1  0
 34 63  1  0
 34 64  1  0
M  END
$$$$
[H]c1c(C(=O)N2C([H])([H])C([H])([H])N(C([H])([H])[H])C([H])([H])C2([H])[H])nc(-c2c([H])c(F)c(F)c(N([H])c3c([H])c([H])c(C(F)(F)F)c([H])c3[H])c2[H])nc1N1C([H])([H])C([H])([H])OC([H])([H])C1([H])[H]
     RDKit          3D

 67 71  0  0  0  0  0  0  0  0999 V2000
   -6.0394    2.7239   -0.6574 C   0  0  0  0  0  0  0  0  0  0  0  0
   -4.8996    3.5924   -0.4114 N   0  0  0  0  0  0  0  0  0  0  0  0
   -3.6833    3.0536   -0.9373 C   0  0  0  0  0  0  0  0  0  0  0  0
   -2.6481    2.8710    0.1727 C   0  0  0  0  0  0  0  0  0  0  0  0
   -3.3242    2.1004    1.1504 N   0  0  0  0  0  0  0  0  0  0  0  0
   -4.3582    2.8825    1.8771 C   0  0  0  0  0  0  0  0  0  0  0  0
   -4.8346    3.9896    0.9701 C   0  0  0  0  0  0  0  0  0  0  0  0
   -3.1268    0.7841    1.4966 C   0  0  0  0  0  0  0  0  0  0  0  0
   -3.8340    0.2178    2.4136 O   0  0  0  0  0  0  0  0  0  0  0  0
   -2.1263   -0.0650    0.8890 C   0  0  0  0  0  0  0  0  0  0  0  0
   -1.8858   -1.3736    1.3865 C   0  0  0  0  0  0  0  0  0  0  0  0
   -0.8837   -2.1637    0.8770 C   0  0  0  0  0  0  0  0  0  0  0  0
   -0.1290   -1.6340   -0.1295 N   0  0  0  0  0  0  0  0  0  0  0  0
   -0.3186   -0.4188   -0.6304 C   0  0  0  0  0  0  0  0  0  0  0  0
   -1.3217    0.3115   -0.0880 N   0  0  0  0  0  0  0  0  0  0  0  0
    0.5244    0.2554   -1.6062 C   0  0  0  0  0  0  0  0  0  0  0  0
   -0.0805    1.0170   -2.5817 C   0  0  0  0  0  0  0  0  0  0  0  0
    0.6337    1.7719   -3.4746 C   0  0  0  0  0  0  0  0  0  0  0  0
   -0.0151    2.5131   -4.4286 F   0  0  0  0  0  0  0  0  0  0  0  0
    1.9870    1.7762   -3.4016 C   0  0  0  0  0  0  0  0  0  0  0  0
    2.6995    2.5251   -4.2944 F   0  0  0  0  0  0  0  0  0  0  0  0
    2.6269    1.0225   -2.4241 C   0  0  0  0  0  0  0  0  0  0  0  0
    4.0345    1.1800   -2.3576 N   0  0  0  0  0  0  0  0  0  0  0  0
    4.8648    0.6920   -1.3187 C   0  0  0  0  0  0  0  0  0  0  0  0
    4.9256   -0.5496   -0.8033 C   0  0  0  0  0  0  0  0  0  0  0  0
    5.7465   -0.8251    0.2938 C   0  0  0  0  0  0  0  0  0  0  0  0
    6.5220    0.1373    0.8947 C   0  0  0  0  0  0  0  0  0  0  0  0
    6.4557    1.4122    0.3532 C   0  0  0  0  0  0  0  0  0  0  0  0
    5.6549    1.6784   -0.7126 C   0  0  0  0  0  0  0  0  0  0  0  0
    7.3941   -0.0563    2.0536 C   0  0  0  0  0  0  0  0  0  0  0  0
    7.7033   -1.3689    2.2836 F   0  0  0  0  0  0  0  0  0  0  0  0
    8.5419    0.6847    1.8694 F   0  0  0  0  0  0  0  0  0  0  0  0
    6.7881    0.4518    3.2170 F   0  0  0  0  0  0  0  0  0  0  0  0
    1.9046    0.2626   -1.5339 C   0  0  0  0  0  0  0  0  0  0  0  0
   -0.6664   -3.4875    1.3222 N   0  0  0  0  0  0  0  0  0  0  0  0
    0.3089   -4.3662    0.6151 C   0  0  0  0  0  0  0  0  0  0  0  0
   -0.5603   -5.4049   -0.0806 C   0  0  0  0  0  0  0  0  0  0  0  0
   -1.8446   -5.3985    0.3963 O   0  0  0  0  0  0  0  0  0  0  0  0
   -1.9713   -5.3982    1.7755 C   0  0  0  0  0  0  0  0  0  0  0  0
   -1.3228   -4.1571    2.4138 C   0  0  0  0  0  0  0  0  0  0  0  0
   -6.2962    2.1529    0.2623 H   0  0  0  0  0  0  0  0  0  0  0  0
   -6.9023    3.3288   -0.9540 H   0  0  0  0  0  0  0  0  0  0  0  0
   -5.7708    2.0798   -1.5160 H   0  0  0  0  0  0  0  0  0  0  0  0
   -3.8939    1.9969   -1.2913 H   0  0  0  0  0  0  0  0  0  0  0  0
   -3.2838    3.6061   -1.7865 H   0  0  0  0  0  0  0  0  0  0  0  0
   -2.4919    3.9154    0.6508 H   0  0  0  0  0  0  0  0  0  0  0  0
   -1.6899    2.5863   -0.2051 H   0  0  0  0  0  0  0  0  0  0  0  0
   -3.7912    3.3467    2.7078 H   0  0  0  0  0  0  0  0  0  0  0  0
   -5.1437    2.2583    2.3072 H   0  0  0  0  0  0  0  0  0  0  0  0
   -4.2158    4.9072    1.0332 H   0  0  0  0  0  0  0  0  0  0  0  0
   -5.8556    4.2638    1.2997 H   0  0  0  0  0  0  0  0  0  0  0  0
   -2.5092   -1.7436    2.1846 H   0  0  0  0  0  0  0  0  0  0  0  0
   -1.1614    1.0229   -2.6477 H   0  0  0  0  0  0  0  0  0  0  0  0
    4.5207    1.6976   -3.1229 H   0  0  0  0  0  0  0  0  0  0  0  0
    4.3481   -1.3715   -1.2406 H   0  0  0  0  0  0  0  0  0  0  0  0
    5.7711   -1.8229    0.6916 H   0  0  0  0  0  0  0  0  0  0  0  0
    7.0733    2.1925    0.8212 H   0  0  0  0  0  0  0  0  0  0  0  0
    5.6497    2.6878   -1.0857 H   0  0  0  0  0  0  0  0  0  0  0  0
    2.3351   -0.3322   -0.7670 H   0  0  0  0  0  0  0  0  0  0  0  0
    0.8797   -3.8322   -0.1267 H   0  0  0  0  0  0  0  0  0  0  0  0
    0.9394   -4.8841    1.3547 H   0  0  0  0  0  0  0  0  0  0  0  0
   -0.0592   -6.3941   -0.0502 H   0  0  0  0  0  0  0  0  0  0  0  0
   -0.6073   -5.1261   -1.1739 H   0  0  0  0  0  0  0  0  0  0  0  0
   -3.0563   -5.3395    2.0118 H   0  0  0  0  0  0  0  0  0  0  0  0
   -1.6118   -6.3310    2.2523 H   0  0  0  0  0  0  0  0  0  0  0  0
   -0.5515   -4.5352    3.1457 H   0  0  0  0  0  0  0  0  0  0  0  0
   -2.0670   -3.5700    2.9274 H   0  0  0  0  0  0  0  0  0  0  0  0
  1  2  1  0
  2  3  1  0
  3  4  1  0
  4  5  1  0
  5  6  1  0
  6  7  1  0
  5  8  1  0
  8  9  2  0
  8 10  1  0
 10 11  2  0
 11 12  1  0
 12 13  2  0
 13 14  1  0
 14 15  2  0
 14 16  1  0
 16 17  2  0
 17 18  1  0
 18 19  1  0
 18 20  2  0
 20 21  1  0
 20 22  1  0
 22 23  1  0
 23 24  1  0
 24 25  2  0
 25 26  1  0
 26 27  2  0
 27 28  1  0
 28 29  2  0
 27 30  1  0
 30 31  1  0
 30 32  1  0
 30 33  1  0
 22 34  2  0
 12 35  1  0
 35 36  1  0
 36 37  1  0
 37 38  1  0
 38 39  1  0
 39 40  1  0
  7  2  1  0
 15 10  1  0
 34 16  1  0
 40 35  1  0
 29 24  1  0
  1 41  1  0
  1 42  1  0
  1 43  1  0
  3 44  1  0
  3 45  1  0
  4 46  1  0
  4 47  1  0
  6 48  1  0
  6 49  1  0
  7 50  1  0
  7 51  1  0
 11 52  1  0
 17 53  1  0
 23 54  1  0
 25 55  1  0
 26 56  1  0
 28 57  1  0
 29 58  1  0
 34 59  1  0
 36 60  1  0
 36 61  1  0
 37 62  1  0
 37 63  1  0
 39 64  1  0
 39 65  1  0
 40 66  1  0
 40 67  1  0
M  END
$$$$
[H]c1c([H])c(C(=O)N([H])[C@]2([H])C([H])([H])[C@]([H])(N([H])[H])C2([H])[H])c([H])c(N([H])S(=O)(=O)c2c([H])c([H])c([H])c3c([H])c([H])c([H])c(F)c23)c1OC([H])([H])[H]
     RDKit          3D

 53 56  0  0  0  0  0  0  0  0999 V2000
    0.2992    1.8365   -4.9816 C   0  0  0  0  0  0  0  0  0  0  0  0
   -0.4008    1.7873   -3.7640 O   0  0  0  0  0  0  0  0  0  0  0  0
    0.0480    1.0811   -2.6327 C   0  0  0  0  0  0  0  0  0  0  0  0
    1.2403    0.4013   -2.7132 C   0  0  0  0  0  0  0  0  0  0  0  0
    1.7121   -0.2995   -1.6236 C   0  0  0  0  0  0  0  0  0  0  0  0
    0.9831   -0.3084   -0.4722 C   0  0  0  0  0  0  0  0  0  0  0  0
   -0.2076    0.3813   -0.4226 C   0  0  0  0  0  0  0  0  0  0  0  0
   -0.7097    1.0916   -1.4887 C   0  0  0  0  0  0  0  0  0  0  0  0
   -1.9027    1.7935   -1.3279 N   0  0  0  0  0  0  0  0  0  0  0  0
   -3.4444    1.0812   -1.3954 S   0  0  0  0  0  0  0  0  0  0  0  0
   -3.3291    0.3693   -2.7611 O   0  0  0  0  0  0  0  0  0  0  0  0
   -4.5378    2.0412   -1.7968 O   0  0  0  0  0  0  0  0  0  0  0  0
   -3.8851   -0.1399   -0.3029 C   0  0  0  0  0  0  0  0  0  0  0  0
   -4.0735   -1.4819   -0.7245 C   0  0  0  0  0  0  0  0  0  0  0  0
   -4.3668   -2.5232    0.0957 C   0  0  0  0  0  0  0  0  0  0  0  0
   -4.4971   -2.2912    1.4319 C   0  0  0  0  0  0  0  0  0  0  0  0
   -4.3316   -1.0077    1.9280 C   0  0  0  0  0  0  0  0  0  0  0  0
   -4.4884   -0.8441    3.2958 C   0  0  0  0  0  0  0  0  0  0  0  0
   -4.3416    0.4130    3.8182 C   0  0  0  0  0  0  0  0  0  0  0  0
   -4.0497    1.4617    2.9844 C   0  0  0  0  0  0  0  0  0  0  0  0
   -3.8959    1.2882    1.6215 C   0  0  0  0  0  0  0  0  0  0  0  0
   -3.6517    2.3296    0.8197 F   0  0  0  0  0  0  0  0  0  0  0  0
   -4.0322    0.0386    1.0622 C   0  0  0  0  0  0  0  0  0  0  0  0
    1.4984   -1.0106    0.7526 C   0  0  0  0  0  0  0  0  0  0  0  0
    0.5642   -1.3427    1.5242 O   0  0  0  0  0  0  0  0  0  0  0  0
    2.8538   -1.2191    0.9285 N   0  0  0  0  0  0  0  0  0  0  0  0
    4.1712   -1.4218    1.0996 C   0  0  2  0  0  0  0  0  0  0  0  0
    4.7982   -0.3524    2.0761 C   0  0  0  0  0  0  0  0  0  0  0  0
    6.0501   -0.4709    1.2234 C   0  0  2  0  0  0  0  0  0  0  0  0
    6.6785    0.8370    1.1382 N   0  0  0  0  0  0  0  0  0  0  0  0
    5.1502   -0.8179    0.0790 C   0  0  0  0  0  0  0  0  0  0  0  0
    1.1124    2.5552   -5.0200 H   0  0  0  0  0  0  0  0  0  0  0  0
   -0.4816    2.0732   -5.7655 H   0  0  0  0  0  0  0  0  0  0  0  0
    0.6467    0.7962   -5.2174 H   0  0  0  0  0  0  0  0  0  0  0  0
    1.8439    0.3978   -3.6355 H   0  0  0  0  0  0  0  0  0  0  0  0
    2.6631   -0.8484   -1.7249 H   0  0  0  0  0  0  0  0  0  0  0  0
   -0.7688    0.3533    0.5219 H   0  0  0  0  0  0  0  0  0  0  0  0
   -1.8236    2.8426   -1.1783 H   0  0  0  0  0  0  0  0  0  0  0  0
   -3.9638   -1.6351   -1.8099 H   0  0  0  0  0  0  0  0  0  0  0  0
   -4.4986   -3.5252   -0.2941 H   0  0  0  0  0  0  0  0  0  0  0  0
   -4.7323   -3.0971    2.1302 H   0  0  0  0  0  0  0  0  0  0  0  0
   -4.7193   -1.6638    3.9419 H   0  0  0  0  0  0  0  0  0  0  0  0
   -4.4513    0.5994    4.8955 H   0  0  0  0  0  0  0  0  0  0  0  0
   -3.9264    2.4756    3.3533 H   0  0  0  0  0  0  0  0  0  0  0  0
    2.5972   -1.7787    2.1537 H   0  0  0  0  0  0  0  0  0  0  0  0
    4.6115   -2.3810    1.5117 H   0  0  0  0  0  0  0  0  0  0  0  0
    4.2967    0.6161    2.0127 H   0  0  0  0  0  0  0  0  0  0  0  0
    4.9692   -0.7594    3.0808 H   0  0  0  0  0  0  0  0  0  0  0  0
    6.7337   -1.2979    1.4765 H   0  0  0  0  0  0  0  0  0  0  0  0
    7.6279    0.6923    0.7285 H   0  0  0  0  0  0  0  0  0  0  0  0
    6.1146    1.4237    0.4784 H   0  0  0  0  0  0  0  0  0  0  0  0
    5.5332   -1.5114   -0.6810 H   0  0  0  0  0  0  0  0  0  0  0  0
    4.7139    0.0753   -0.4304 H   0  0  0  0  0  0  0  0  0  0  0  0
  1  2  1  0
  2  3  1  0
  3  4  2  0
  4  5  1  0
  5  6  2  0
  6  7  1  0
  7  8  2  0
  8  9  1  0
  9 10  1  0
 10 11  2  0
 10 12  2  0
 10 13  1  0
 13 14  2  0
 14 15  1  0
 15 16  2  0
 16 17  1  0
 17 18  2  0
 18 19  1  0
 19 20  2  0
 20 21  1  0
 21 22  1  0
 21 23  2  0
  6 24  1  0
 24 25  2  0
 24 26  1  0
 26 27  1  0
 27 28  1  0
 28 29  1  0
 29 30  1  0
 29 31  1  0
  8  3  1  0
 23 13  1  0
 31 27  1  0
 23 17  1  0
  1 32  1  0
  1 33  1  0
  1 34  1  0
  4 35  1  0
  5 36  1  0
  7 37  1  0
  9 38  1  0
 14 39  1  0
 15 40  1  0
 16 41  1  0
 18 42  1  0
 19 43  1  0
 20 44  1  0
 26 45  1  0
 27 46  1  1
 28 47  1  0
 28 48  1  0
 29 49  1  1
 30 50  1  0
 30 51  1  0
 31 52  1  0
 31 53  1  0
M  END
$$$$
