[H]c1nc([H])c(-c2c(O[C@@]3([H])C([H])([H])OC([H])([H])C3([H])[H])nc3sc(N([H])C(=O)N([H])C([H])([H])C([H])([H])[H])nc3c2[H])c([H])c1[H]
     RDKit          3D

 46 49  0  0  0  0  0  0  0  0999 V2000
    7.9734   -1.0936   -1.5935 C   0  0  0  0  0  0  0  0  0  0  0  0
    8.1051   -0.7334   -0.1085 C   0  0  0  0  0  0  0  0  0  0  0  0
    7.0796    0.2186    0.2687 N   0  0  0  0  0  0  0  0  0  0  0  0
    5.7097   -0.0944    0.1417 C   0  0  0  0  0  0  0  0  0  0  0  0
    5.3777   -1.2372   -0.3136 O   0  0  0  0  0  0  0  0  0  0  0  0
    4.7080    0.8119    0.5007 N   0  0  0  0  0  0  0  0  0  0  0  0
    3.3097    0.4925    0.3710 C   0  0  0  0  0  0  0  0  0  0  0  0
    2.2624    1.2303    0.6626 N   0  0  0  0  0  0  0  0  0  0  0  0
    1.0658    0.7704    0.4773 C   0  0  0  0  0  0  0  0  0  0  0  0
   -0.1355    1.4485    0.7434 C   0  0  0  0  0  0  0  0  0  0  0  0
   -1.3368    0.8108    0.4871 C   0  0  0  0  0  0  0  0  0  0  0  0
   -2.5564    1.6196    0.7174 C   0  0  0  0  0  0  0  0  0  0  0  0
   -3.2271    2.1956   -0.3408 C   0  0  0  0  0  0  0  0  0  0  0  0
   -4.3565    2.9612   -0.0922 C   0  0  0  0  0  0  0  0  0  0  0  0
   -4.8074    3.1471    1.1951 C   0  0  0  0  0  0  0  0  0  0  0  0
   -4.1369    2.5746    2.2200 N   0  0  0  0  0  0  0  0  0  0  0  0
   -3.0378    1.8286    1.9883 C   0  0  0  0  0  0  0  0  0  0  0  0
   -1.4787   -0.4566   -0.0138 C   0  0  0  0  0  0  0  0  0  0  0  0
   -2.5557   -1.1768   -0.2960 O   0  0  0  0  0  0  0  0  0  0  0  0
   -3.8582   -1.2099   -0.2377 C   0  0  2  0  0  0  0  0  0  0  0  0
   -4.4025   -2.5726    0.2750 C   0  0  0  0  0  0  0  0  0  0  0  0
   -5.7997   -2.5268   -0.2612 C   0  0  0  0  0  0  0  0  0  0  0  0
   -5.8841   -1.5097   -1.1797 O   0  0  0  0  0  0  0  0  0  0  0  0
   -4.5895   -1.1961   -1.5910 C   0  0  0  0  0  0  0  0  0  0  0  0
   -0.2536   -1.0753   -0.2583 N   0  0  0  0  0  0  0  0  0  0  0  0
    0.9250   -0.4937   -0.0259 C   0  0  0  0  0  0  0  0  0  0  0  0
    2.5852   -0.9531   -0.2056 S   0  0  0  0  0  0  0  0  0  0  0  0
    8.9836   -1.1979   -2.0526 H   0  0  0  0  0  0  0  0  0  0  0  0
    7.3735   -2.0161   -1.7278 H   0  0  0  0  0  0  0  0  0  0  0  0
    7.5040   -0.2105   -2.1046 H   0  0  0  0  0  0  0  0  0  0  0  0
    9.0956   -0.2941    0.0099 H   0  0  0  0  0  0  0  0  0  0  0  0
    8.0201   -1.6797    0.4712 H   0  0  0  0  0  0  0  0  0  0  0  0
    7.3438    1.1534    0.6411 H   0  0  0  0  0  0  0  0  0  0  0  0
    4.9441    1.7431    0.8717 H   0  0  0  0  0  0  0  0  0  0  0  0
   -0.1353    2.4586    1.1445 H   0  0  0  0  0  0  0  0  0  0  0  0
   -2.8974    2.0689   -1.3743 H   0  0  0  0  0  0  0  0  0  0  0  0
   -4.9125    3.4320   -0.9028 H   0  0  0  0  0  0  0  0  0  0  0  0
   -5.6749    3.7278    1.4595 H   0  0  0  0  0  0  0  0  0  0  0  0
   -2.5507    1.3992    2.8665 H   0  0  0  0  0  0  0  0  0  0  0  0
   -4.3619   -0.4354    0.3535 H   0  0  0  0  0  0  0  0  0  0  0  0
   -3.7743   -3.3631   -0.1579 H   0  0  0  0  0  0  0  0  0  0  0  0
   -4.3411   -2.5493    1.3760 H   0  0  0  0  0  0  0  0  0  0  0  0
   -6.0308   -3.5029   -0.7715 H   0  0  0  0  0  0  0  0  0  0  0  0
   -6.4834   -2.3819    0.6034 H   0  0  0  0  0  0  0  0  0  0  0  0
   -4.5890   -0.1733   -1.9725 H   0  0  0  0  0  0  0  0  0  0  0  0
   -4.1986   -1.9593   -2.2640 H   0  0  0  0  0  0  0  0  0  0  0  0
  1  2  1  0
  2  3  1  0
  3  4  1  0
  4  5  2  0
  4  6  1  0
  6  7  1  0
  7  8  2  0
  8  9  1  0
  9 10  2  0
 10 11  1  0
 11 12  1  0
 12 13  2  0
 13 14  1  0
 14 15  2  0
 15 16  1  0
 16 17  2  0
 11 18  2  0
 18 19  1  0
 19 20  1  0
 20 21  1  0
 21 22  1  0
 22 23  1  0
 23 24  1  0
 18 25  1  0
 25 26  2  0
 26 27  1  0
 27  7  1  0
 26  9  1  0
 17 12  1  0
 24 20  1  0
  1 28  1  0
  1 29  1  0
  1 30  1  0
  2 31  1  0
  2 32  1  0
  3 33  1  0
  6 34  1  0
 10 35  1  0
 13 36  1  0
 14 37  1  0
 15 38  1  0
 17 39  1  0
 20 40  1  1
 21 41  1  0
 21 42  1  0
 22 43  1  0
 22 44  1  0
 24 45  1  0
 24 46  1  0
M  END
$$$$
[H]ON([H])C(=O)C([H])([H])[C@]([H])(C(=O)N([H])[C@]([H])(C(=O)N([H])C([H])([H])[H])C([H])([H])c1c([H])n([H])c2c([H])c([H])c([H])c([H])c12)C([H])([H])C([H])(C([H])([H])[H])C([H])([H])[H]
     RDKit          3D

 56 57  0  0  0  0  0  0  0  0999 V2000
    2.8825    0.5675    3.6143 C   0  0  0  0  0  0  0  0  0  0  0  0
    2.4131   -0.3051    2.5628 N   0  0  0  0  0  0  0  0  0  0  0  0
    1.1376   -0.1923    1.9583 C   0  0  0  0  0  0  0  0  0  0  0  0
    0.4139    0.7542    2.4268 O   0  0  0  0  0  0  0  0  0  0  0  0
    0.5840   -1.0240    0.9000 C   0  0  2  0  0  0  0  0  0  0  0  0
    1.1395   -0.9807   -0.4649 C   0  0  0  0  0  0  0  0  0  0  0  0
    2.5448   -1.2939   -0.7006 C   0  0  0  0  0  0  0  0  0  0  0  0
    3.1273   -2.5404   -0.9265 C   0  0  0  0  0  0  0  0  0  0  0  0
    4.4505   -2.3884   -1.0547 N   0  0  0  0  0  0  0  0  0  0  0  0
    4.7831   -1.0918   -0.9255 C   0  0  0  0  0  0  0  0  0  0  0  0
    5.9829   -0.4094   -0.9913 C   0  0  0  0  0  0  0  0  0  0  0  0
    6.0295    0.9766   -0.8402 C   0  0  0  0  0  0  0  0  0  0  0  0
    4.8665    1.6925   -0.6205 C   0  0  0  0  0  0  0  0  0  0  0  0
    3.6984    0.9797   -0.5608 C   0  0  0  0  0  0  0  0  0  0  0  0
    3.6231   -0.4044   -0.7075 C   0  0  0  0  0  0  0  0  0  0  0  0
   -0.8696   -0.7858    0.7594 N   0  0  0  0  0  0  0  0  0  0  0  0
   -1.4594    0.3923    0.2927 C   0  0  0  0  0  0  0  0  0  0  0  0
   -0.7362    1.3624   -0.0376 O   0  0  0  0  0  0  0  0  0  0  0  0
   -2.9167    0.5950    0.1530 C   0  0  2  0  0  0  0  0  0  0  0  0
   -3.5776   -0.1837   -0.9215 C   0  0  0  0  0  0  0  0  0  0  0  0
   -3.5618   -1.6552   -0.8841 C   0  0  0  0  0  0  0  0  0  0  0  0
   -4.3210   -2.1288   -2.1551 C   0  0  0  0  0  0  0  0  0  0  0  0
   -4.3671   -2.2502    0.2522 C   0  0  0  0  0  0  0  0  0  0  0  0
   -3.3057    2.0319    0.0565 C   0  0  0  0  0  0  0  0  0  0  0  0
   -2.8056    2.7987   -1.0819 C   0  0  0  0  0  0  0  0  0  0  0  0
   -2.1923    2.3659   -2.0853 O   0  0  0  0  0  0  0  0  0  0  0  0
   -3.0241    4.2153   -1.0860 N   0  0  0  0  0  0  0  0  0  0  0  0
   -2.6191    5.0310   -2.0621 O   0  0  0  0  0  0  0  0  0  0  0  0
    2.9729    1.5952    3.1545 H   0  0  0  0  0  0  0  0  0  0  0  0
    3.8601    0.2491    3.9718 H   0  0  0  0  0  0  0  0  0  0  0  0
    2.1298    0.6837    4.4202 H   0  0  0  0  0  0  0  0  0  0  0  0
    3.0439   -1.0645    2.2412 H   0  0  0  0  0  0  0  0  0  0  0  0
    0.6756   -2.1046    1.2521 H   0  0  0  0  0  0  0  0  0  0  0  0
    0.5298   -1.7106   -1.0765 H   0  0  0  0  0  0  0  0  0  0  0  0
    0.9474    0.0330   -0.9146 H   0  0  0  0  0  0  0  0  0  0  0  0
    2.5862   -3.4605   -0.9850 H   0  0  0  0  0  0  0  0  0  0  0  0
    5.1688   -3.1499   -1.2329 H   0  0  0  0  0  0  0  0  0  0  0  0
    6.8973   -0.9723   -1.1639 H   0  0  0  0  0  0  0  0  0  0  0  0
    6.9472    1.5222   -0.8877 H   0  0  0  0  0  0  0  0  0  0  0  0
    4.9106    2.7658   -0.5051 H   0  0  0  0  0  0  0  0  0  0  0  0
    2.7481    1.4901   -0.3895 H   0  0  0  0  0  0  0  0  0  0  0  0
   -1.5060   -1.5607    1.0514 H   0  0  0  0  0  0  0  0  0  0  0  0
   -3.3162    0.2740    1.1866 H   0  0  0  0  0  0  0  0  0  0  0  0
   -4.6266    0.2085   -1.0486 H   0  0  0  0  0  0  0  0  0  0  0  0
   -3.0871    0.1264   -1.8973 H   0  0  0  0  0  0  0  0  0  0  0  0
   -2.5846   -2.1335   -0.9321 H   0  0  0  0  0  0  0  0  0  0  0  0
   -4.4251   -3.2295   -2.0583 H   0  0  0  0  0  0  0  0  0  0  0  0
   -5.3355   -1.6925   -2.1540 H   0  0  0  0  0  0  0  0  0  0  0  0
   -3.7115   -1.8425   -3.0258 H   0  0  0  0  0  0  0  0  0  0  0  0
   -4.7665   -3.2237   -0.0788 H   0  0  0  0  0  0  0  0  0  0  0  0
   -5.2263   -1.6145    0.5307 H   0  0  0  0  0  0  0  0  0  0  0  0
   -3.7162   -2.4784    1.1375 H   0  0  0  0  0  0  0  0  0  0  0  0
   -4.4174    2.1294    0.0985 H   0  0  0  0  0  0  0  0  0  0  0  0
   -2.9382    2.5840    0.9806 H   0  0  0  0  0  0  0  0  0  0  0  0
   -3.5298    4.6223   -0.2755 H   0  0  0  0  0  0  0  0  0  0  0  0
   -2.1514    5.8253   -1.7223 H   0  0  0  0  0  0  0  0  0  0  0  0
  1  2  1  0
  2  3  1  0
  3  4  2  0
  3  5  1  0
  5  6  1  0
  6  7  1  0
  7  8  2  0
  8  9  1  0
  9 10  1  0
 10 11  2  0
 11 12  1  0
 12 13  2  0
 13 14  1  0
 14 15  2  0
  5 16  1  0
 16 17  1  0
 17 18  2  0
 17 19  1  0
 19 20  1  0
 20 21  1  0
 21 22  1  0
 21 23  1  0
 19 24  1  0
 24 25  1  0
 25 26  2  0
 25 27  1  0
 27 28  1  0
 15  7  1  0
 15 10  1  0
  1 29  1  0
  1 30  1  0
  1 31  1  0
  2 32  1  0
  5 33  1  1
  6 34  1  0
  6 35  1  0
  8 36  1  0
  9 37  1  0
 11 38  1  0
 12 39  1  0
 13 40  1  0
 14 41  1  0
 16 42  1  0
 19 43  1  1
 20 44  1  0
 20 45  1  0
 21 46  1  0
 22 47  1  0
 22 48  1  0
 22 49  1  0
 23 50  1  0
 23 51  1  0
 23 52  1  0
 24 53  1  0
 24 54  1  0
 27 55  1  0
 28 56  1  0
M  END
$$$$
[H]O[C@]1([H])[C@@]([H])(C([H])([H])OS(=O)(=O)N([H])C(=O)[C@@]([H])(N([H])[H])C([H])(C([H])([H])[H])C([H])([H])C([H])([H])[H])O[C@@]([H])(n2c([H])nc3c(N([H])[H])nc([H])nc32)[C@]1([H])O[H]
     RDKit          3D

 56 58  0  0  0  0  0  0  0  0999 V2000
    7.4415   -0.0528    1.1288 C   0  0  0  0  0  0  0  0  0  0  0  0
    6.8989   -0.8772   -0.0076 C   0  0  0  0  0  0  0  0  0  0  0  0
    6.0176   -0.1155   -0.9316 C   0  0  0  0  0  0  0  0  0  0  0  0
    6.7168    1.0689   -1.5810 C   0  0  0  0  0  0  0  0  0  0  0  0
    4.6546    0.2190   -0.4435 C   0  0  2  0  0  0  0  0  0  0  0  0
    4.5690    0.9988    0.7466 N   0  0  0  0  0  0  0  0  0  0  0  0
    3.7295   -0.9051   -0.5222 C   0  0  0  0  0  0  0  0  0  0  0  0
    3.8637   -1.7592   -1.4297 O   0  0  0  0  0  0  0  0  0  0  0  0
    2.6813   -1.0458    0.4038 N   0  0  0  0  0  0  0  0  0  0  0  0
    1.5940   -2.3725    0.2740 S   0  0  0  0  0  0  0  0  0  0  0  0
    1.4437   -3.1438    1.5346 O   0  0  0  0  0  0  0  0  0  0  0  0
    2.0965   -3.3436   -0.7975 O   0  0  0  0  0  0  0  0  0  0  0  0
    0.0781   -1.7692   -0.2154 O   0  0  0  0  0  0  0  0  0  0  0  0
   -0.0822   -0.4882    0.3008 C   0  0  0  0  0  0  0  0  0  0  0  0
   -1.3876    0.0451   -0.1510 C   0  0  1  0  0  0  0  0  0  0  0  0
   -2.5148   -0.6991    0.2377 O   0  0  0  0  0  0  0  0  0  0  0  0
   -3.5019    0.1294   -0.3478 C   0  0  2  0  0  0  0  0  0  0  0  0
   -3.2288    1.4463    0.2863 C   0  0  2  0  0  0  0  0  0  0  0  0
   -3.5990    2.5236   -0.5364 O   0  0  0  0  0  0  0  0  0  0  0  0
   -1.6920    1.4550    0.3573 C   0  0  2  0  0  0  0  0  0  0  0  0
   -1.1832    2.3384   -0.6016 O   0  0  0  0  0  0  0  0  0  0  0  0
   -4.8223   -0.3672   -0.2296 N   0  0  0  0  0  0  0  0  0  0  0  0
   -5.1708   -1.6359   -0.5172 C   0  0  0  0  0  0  0  0  0  0  0  0
   -6.4810   -1.8175   -0.3249 N   0  0  0  0  0  0  0  0  0  0  0  0
   -6.9970   -0.6514    0.0943 C   0  0  0  0  0  0  0  0  0  0  0  0
   -8.2864   -0.2780    0.4332 C   0  0  0  0  0  0  0  0  0  0  0  0
   -9.3515   -1.1957    0.3663 N   0  0  0  0  0  0  0  0  0  0  0  0
   -8.4752    0.9961    0.8177 N   0  0  0  0  0  0  0  0  0  0  0  0
   -7.4285    1.8537    0.8623 C   0  0  0  0  0  0  0  0  0  0  0  0
   -6.1838    1.5015    0.5379 N   0  0  0  0  0  0  0  0  0  0  0  0
   -5.9616    0.2310    0.1477 C   0  0  0  0  0  0  0  0  0  0  0  0
    7.3400    1.0402    0.9690 H   0  0  0  0  0  0  0  0  0  0  0  0
    8.5457   -0.2248    1.1734 H   0  0  0  0  0  0  0  0  0  0  0  0
    7.0684   -0.3391    2.1266 H   0  0  0  0  0  0  0  0  0  0  0  0
    6.3626   -1.7299    0.4211 H   0  0  0  0  0  0  0  0  0  0  0  0
    7.7576   -1.2542   -0.6148 H   0  0  0  0  0  0  0  0  0  0  0  0
    5.8436   -0.8255   -1.8137 H   0  0  0  0  0  0  0  0  0  0  0  0
    7.6691    1.3189   -1.0734 H   0  0  0  0  0  0  0  0  0  0  0  0
    6.0384    1.9716   -1.5162 H   0  0  0  0  0  0  0  0  0  0  0  0
    6.9577    0.9149   -2.6434 H   0  0  0  0  0  0  0  0  0  0  0  0
    4.2573    0.9535   -1.2655 H   0  0  0  0  0  0  0  0  0  0  0  0
    4.5724    0.4547    1.6169 H   0  0  0  0  0  0  0  0  0  0  0  0
    5.1014    1.8727    0.7436 H   0  0  0  0  0  0  0  0  0  0  0  0
    2.5522   -0.3601    1.1613 H   0  0  0  0  0  0  0  0  0  0  0  0
    0.7370    0.1153   -0.1990 H   0  0  0  0  0  0  0  0  0  0  0  0
    0.0839   -0.4698    1.3785 H   0  0  0  0  0  0  0  0  0  0  0  0
   -1.4429    0.0596   -1.2751 H   0  0  0  0  0  0  0  0  0  0  0  0
   -3.1651    0.2149   -1.4140 H   0  0  0  0  0  0  0  0  0  0  0  0
   -3.5785    1.5530    1.3247 H   0  0  0  0  0  0  0  0  0  0  0  0
   -3.7594    3.2948    0.0782 H   0  0  0  0  0  0  0  0  0  0  0  0
   -1.3260    1.6407    1.3661 H   0  0  0  0  0  0  0  0  0  0  0  0
   -1.3953    1.9386   -1.4807 H   0  0  0  0  0  0  0  0  0  0  0  0
   -4.4871   -2.4201   -0.8566 H   0  0  0  0  0  0  0  0  0  0  0  0
   -9.3448   -2.0174    1.0047 H   0  0  0  0  0  0  0  0  0  0  0  0
  -10.1602   -1.1115   -0.2883 H   0  0  0  0  0  0  0  0  0  0  0  0
   -7.6659    2.8568    1.1840 H   0  0  0  0  0  0  0  0  0  0  0  0
  1  2  1  0
  2  3  1  0
  3  4  1  0
  3  5  1  0
  5  6  1  0
  5  7  1  0
  7  8  2  0
  7  9  1  0
  9 10  1  0
 10 11  2  0
 10 12  2  0
 10 13  1  0
 13 14  1  0
 14 15  1  0
 15 16  1  0
 16 17  1  0
 17 18  1  0
 18 19  1  0
 18 20  1  0
 20 21  1  0
 17 22  1  0
 22 23  1  0
 23 24  2  0
 24 25  1  0
 25 26  2  0
 26 27  1  0
 26 28  1  0
 28 29  2  0
 29 30  1  0
 30 31  2  0
 20 15  1  0
 31 22  1  0
 31 25  1  0
  1 32  1  0
  1 33  1  0
  1 34  1  0
  2 35  1  0
  2 36  1  0
  3 37  1  0
  4 38  1  0
  4 39  1  0
  4 40  1  0
  5 41  1  6
  6 42  1  0
  6 43  1  0
  9 44  1  0
 14 45  1  0
 14 46  1  0
 15 47  1  6
 17 48  1  6
 18 49  1  1
 19 50  1  0
 20 51  1  1
 21 52  1  0
 23 53  1  0
 27 54  1  0
 27 55  1  0
 29 56  1  0
M  END
$$$$
[H]OC(=O)c1c([H])c([H])c(N2C([H])([H])C([H])([H])N(C(=O)/C([H])=C(\[H])c3c([H])c([H])c(-c4c([H])c([H])c([H])c(OC([H])([H])[H])c4[H])c([H])c3[H])C([H])([H])C2([H])[H])c([H])c1[H]
     RDKit          3D

 59 62  0  0  0  0  0  0  0  0999 V2000
   -8.3828   -3.2094   -0.0837 C   0  0  0  0  0  0  0  0  0  0  0  0
   -8.7705   -2.3307    0.9493 O   0  0  0  0  0  0  0  0  0  0  0  0
   -7.9884   -1.2975    1.4295 C   0  0  0  0  0  0  0  0  0  0  0  0
   -8.5281   -0.5278    2.4525 C   0  0  0  0  0  0  0  0  0  0  0  0
   -7.7592    0.4912    2.9276 C   0  0  0  0  0  0  0  0  0  0  0  0
   -6.5079    0.7815    2.4511 C   0  0  0  0  0  0  0  0  0  0  0  0
   -5.9587    0.0181    1.4282 C   0  0  0  0  0  0  0  0  0  0  0  0
   -6.7335   -1.0212    0.9381 C   0  0  0  0  0  0  0  0  0  0  0  0
   -4.6438    0.3144    0.9192 C   0  0  0  0  0  0  0  0  0  0  0  0
   -3.8419   -0.6835    0.4327 C   0  0  0  0  0  0  0  0  0  0  0  0
   -2.5926   -0.3962   -0.0502 C   0  0  0  0  0  0  0  0  0  0  0  0
   -2.0725    0.9049   -0.0748 C   0  0  0  0  0  0  0  0  0  0  0  0
   -0.7170    1.1160   -0.6136 C   0  0  0  0  0  0  0  0  0  0  0  0
   -0.1599    2.2846   -0.6741 C   0  0  0  0  0  0  0  0  0  0  0  0
    1.1429    2.6371   -1.1729 C   0  0  0  0  0  0  0  0  0  0  0  0
    1.3910    3.9422   -1.0313 O   0  0  0  0  0  0  0  0  0  0  0  0
    2.1677    1.9336   -1.7507 N   0  0  0  0  0  0  0  0  0  0  0  0
    3.4422    2.6449   -2.0390 C   0  0  0  0  0  0  0  0  0  0  0  0
    4.5976    1.7009   -1.9262 C   0  0  0  0  0  0  0  0  0  0  0  0
    4.3942    0.4865   -1.2283 N   0  0  0  0  0  0  0  0  0  0  0  0
    3.0684   -0.1149   -1.0891 C   0  0  0  0  0  0  0  0  0  0  0  0
    2.2016    0.5716   -2.1582 C   0  0  0  0  0  0  0  0  0  0  0  0
    5.5216   -0.2077   -0.6341 C   0  0  0  0  0  0  0  0  0  0  0  0
    5.2962   -1.2907    0.1972 C   0  0  0  0  0  0  0  0  0  0  0  0
    6.3237   -1.9977    0.7867 C   0  0  0  0  0  0  0  0  0  0  0  0
    7.6388   -1.6462    0.5663 C   0  0  0  0  0  0  0  0  0  0  0  0
    7.8675   -0.5684   -0.2611 C   0  0  0  0  0  0  0  0  0  0  0  0
    6.8241    0.1501   -0.8602 C   0  0  0  0  0  0  0  0  0  0  0  0
    8.7461   -2.3711    1.1726 C   0  0  0  0  0  0  0  0  0  0  0  0
    8.4724   -3.4486    1.9968 O   0  0  0  0  0  0  0  0  0  0  0  0
    9.9443   -2.0618    0.9811 O   0  0  0  0  0  0  0  0  0  0  0  0
   -2.8669    1.8871    0.4062 C   0  0  0  0  0  0  0  0  0  0  0  0
   -4.1449    1.5915    0.9000 C   0  0  0  0  0  0  0  0  0  0  0  0
   -7.7186   -2.7604   -0.8284 H   0  0  0  0  0  0  0  0  0  0  0  0
   -7.9677   -4.1202    0.4042 H   0  0  0  0  0  0  0  0  0  0  0  0
   -9.2907   -3.5480   -0.6260 H   0  0  0  0  0  0  0  0  0  0  0  0
   -9.5098   -0.7214    2.8575 H   0  0  0  0  0  0  0  0  0  0  0  0
   -8.1953    1.0946    3.7372 H   0  0  0  0  0  0  0  0  0  0  0  0
   -5.9693    1.5972    2.8769 H   0  0  0  0  0  0  0  0  0  0  0  0
   -6.3290   -1.6286    0.1437 H   0  0  0  0  0  0  0  0  0  0  0  0
   -4.1833   -1.7073    0.4235 H   0  0  0  0  0  0  0  0  0  0  0  0
   -1.9897   -1.1958   -0.4232 H   0  0  0  0  0  0  0  0  0  0  0  0
   -0.1865    0.2569   -0.9405 H   0  0  0  0  0  0  0  0  0  0  0  0
   -0.8012    3.1167   -0.2784 H   0  0  0  0  0  0  0  0  0  0  0  0
    3.5612    3.4763   -1.3228 H   0  0  0  0  0  0  0  0  0  0  0  0
    3.3325    3.0628   -3.0593 H   0  0  0  0  0  0  0  0  0  0  0  0
    4.8881    1.4321   -2.9853 H   0  0  0  0  0  0  0  0  0  0  0  0
    5.5204    2.2326   -1.5417 H   0  0  0  0  0  0  0  0  0  0  0  0
    3.0857   -1.2069   -1.2482 H   0  0  0  0  0  0  0  0  0  0  0  0
    2.6563    0.2022   -0.1235 H   0  0  0  0  0  0  0  0  0  0  0  0
    2.9057    0.4828   -3.0884 H   0  0  0  0  0  0  0  0  0  0  0  0
    1.2978    0.0583   -2.4093 H   0  0  0  0  0  0  0  0  0  0  0  0
    4.2516   -1.5799    0.3804 H   0  0  0  0  0  0  0  0  0  0  0  0
    6.1525   -2.8494    1.4407 H   0  0  0  0  0  0  0  0  0  0  0  0
    8.8968   -0.2830   -0.4415 H   0  0  0  0  0  0  0  0  0  0  0  0
    7.0556    0.9824   -1.5029 H   0  0  0  0  0  0  0  0  0  0  0  0
    8.5105   -4.3756    1.5483 H   0  0  0  0  0  0  0  0  0  0  0  0
   -2.5787    2.9185    0.4389 H   0  0  0  0  0  0  0  0  0  0  0  0
   -4.7664    2.3859    1.2801 H   0  0  0  0  0  0  0  0  0  0  0  0
  1  2  1  0
  2  3  1  0
  3  4  2  0
  4  5  1  0
  5  6  2  0
  6  7  1  0
  7  8  2  0
  7  9  1  0
  9 10  2  0
 10 11  1  0
 11 12  2  0
 12 13  1  0
 13 14  2  0
 14 15  1  0
 15 16  2  0
 15 17  1  0
 17 18  1  0
 18 19  1  0
 19 20  1  0
 20 21  1  0
 21 22  1  0
 20 23  1  0
 23 24  2  0
 24 25  1  0
 25 26  2  0
 26 27  1  0
 27 28  2  0
 26 29  1  0
 29 30  1  0
 29 31  2  0
 12 32  1  0
 32 33  2  0
  8  3  1  0
 33  9  1  0
 22 17  1  0
 28 23  1  0
  1 34  1  0
  1 35  1  0
  1 36  1  0
  4 37  1  0
  5 38  1  0
  6 39  1  0
  8 40  1  0
 10 41  1  0
 11 42  1  0
 13 43  1  0
 14 44  1  0
 18 45  1  0
 18 46  1  0
 19 47  1  0
 19 48  1  0
 21 49  1  0
 21 50  1  0
 22 51  1  0
 22 52  1  0
 24 53  1  0
 25 54  1  0
 27 55  1  0
 28 56  1  0
 30 57  1  0
 32 58  1  0
 33 59  1  0
M  END
$$$$
[H]c1c([H])c(Oc2c([H])c([H])c(C(F)(F)F)c([H])c2C(=O)N([H])c2c([H])c([H])n([H])c(=O)c2[H])c(Cl)c([H])c1OC([H])([H])[H]
     RDKit          3D

 44 46  0  0  0  0  0  0  0  0999 V2000
    5.3738   -3.0045    0.0578 C   0  0  0  0  0  0  0  0  0  0  0  0
    5.0047   -1.8003    0.6022 O   0  0  0  0  0  0  0  0  0  0  0  0
    3.7855   -1.2290    0.8308 C   0  0  0  0  0  0  0  0  0  0  0  0
    2.5689   -1.7809    0.5412 C   0  0  0  0  0  0  0  0  0  0  0  0
    1.3793   -1.0956    0.8131 C   0  0  0  0  0  0  0  0  0  0  0  0
    1.3513    0.1538    1.3735 C   0  0  0  0  0  0  0  0  0  0  0  0
    0.1645    0.8847    1.6608 O   0  0  0  0  0  0  0  0  0  0  0  0
   -0.1450    1.9824    0.7919 C   0  0  0  0  0  0  0  0  0  0  0  0
    0.1151    3.2892    1.1863 C   0  0  0  0  0  0  0  0  0  0  0  0
   -0.1339    4.3420    0.3208 C   0  0  0  0  0  0  0  0  0  0  0  0
   -0.6435    4.0598   -0.9164 C   0  0  0  0  0  0  0  0  0  0  0  0
   -0.9173    2.7850   -1.3148 C   0  0  0  0  0  0  0  0  0  0  0  0
   -0.6676    1.6914   -0.4213 C   0  0  0  0  0  0  0  0  0  0  0  0
   -1.4664    0.4975   -0.7704 C   0  0  0  0  0  0  0  0  0  0  0  0
   -1.6872    0.3049   -2.0106 O   0  0  0  0  0  0  0  0  0  0  0  0
   -1.9793   -0.4001    0.1508 N   0  0  0  0  0  0  0  0  0  0  0  0
   -2.7340   -1.5631   -0.0898 C   0  0  0  0  0  0  0  0  0  0  0  0
   -3.8106   -1.9412    0.7327 C   0  0  0  0  0  0  0  0  0  0  0  0
   -4.5188   -3.0992    0.5413 C   0  0  0  0  0  0  0  0  0  0  0  0
   -4.1832   -3.9133   -0.4596 N   0  0  0  0  0  0  0  0  0  0  0  0
   -3.1491   -3.6330   -1.3128 C   0  0  0  0  0  0  0  0  0  0  0  0
   -2.8367   -4.4133   -2.2673 O   0  0  0  0  0  0  0  0  0  0  0  0
   -2.4495   -2.4670   -1.1122 C   0  0  0  0  0  0  0  0  0  0  0  0
   -0.8861    5.2077   -1.8669 C   0  0  0  0  0  0  0  0  0  0  0  0
   -0.0961    6.2716   -1.4981 F   0  0  0  0  0  0  0  0  0  0  0  0
   -0.5215    4.7864   -3.1497 F   0  0  0  0  0  0  0  0  0  0  0  0
   -2.2211    5.5403   -1.9450 F   0  0  0  0  0  0  0  0  0  0  0  0
    2.6018    0.6914    1.6635 C   0  0  0  0  0  0  0  0  0  0  0  0
    2.8259    2.2220    2.5104 Cl  0  0  0  0  0  0  0  0  0  0  0  0
    3.7867    0.0297    1.4033 C   0  0  0  0  0  0  0  0  0  0  0  0
    5.3946   -3.0186   -1.0652 H   0  0  0  0  0  0  0  0  0  0  0  0
    4.8143   -3.8714    0.4535 H   0  0  0  0  0  0  0  0  0  0  0  0
    6.4688   -3.1478    0.3188 H   0  0  0  0  0  0  0  0  0  0  0  0
    2.5257   -2.7564    0.0798 H   0  0  0  0  0  0  0  0  0  0  0  0
    0.4642   -1.6042    0.5588 H   0  0  0  0  0  0  0  0  0  0  0  0
    0.4534    3.5368    2.1824 H   0  0  0  0  0  0  0  0  0  0  0  0
    0.0602    5.3700    0.5610 H   0  0  0  0  0  0  0  0  0  0  0  0
   -1.3136    2.5434   -2.2861 H   0  0  0  0  0  0  0  0  0  0  0  0
   -1.7918   -0.2263    1.1921 H   0  0  0  0  0  0  0  0  0  0  0  0
   -4.0486   -1.2301    1.5279 H   0  0  0  0  0  0  0  0  0  0  0  0
   -5.3348   -3.3727    1.1812 H   0  0  0  0  0  0  0  0  0  0  0  0
   -4.7193   -4.8194   -0.6129 H   0  0  0  0  0  0  0  0  0  0  0  0
   -1.6470   -2.2604   -1.7895 H   0  0  0  0  0  0  0  0  0  0  0  0
    4.7633    0.4578    1.6525 H   0  0  0  0  0  0  0  0  0  0  0  0
  1  2  1  0
  2  3  1  0
  3  4  2  0
  4  5  1  0
  5  6  2  0
  6  7  1  0
  7  8  1  0
  8  9  2  0
  9 10  1  0
 10 11  2  0
 11 12  1  0
 12 13  2  0
 13 14  1  0
 14 15  2  0
 14 16  1  0
 16 17  1  0
 17 18  1  0
 18 19  2  0
 19 20  1  0
 20 21  1  0
 21 22  2  0
 21 23  1  0
 11 24  1  0
 24 25  1  0
 24 26  1  0
 24 27  1  0
  6 28  1  0
 28 29  1  0
 28 30  2  0
 30  3  1  0
 13  8  1  0
 23 17  2  0
  1 31  1  0
  1 32  1  0
  1 33  1  0
  4 34  1  0
  5 35  1  0
  9 36  1  0
 10 37  1  0
 12 38  1  0
 16 39  1  0
 18 40  1  0
 19 41  1  0
 20 42  1  0
 23 43  1  0
 30 44  1  0
M  END
$$$$
[H]C#C[C@]1(O[H])C([H])([H])C([H])([H])[C@]2([H])[C@]1(C([H])([H])[H])C([H])([H])C([H])([H])[C@]1([H])c3c([H])c([H])c(O[H])c([H])c3C([H])([H])C([H])([H])[C@]12[H]
     RDKit          3D

 46 49  0  0  0  0  0  0  0  0999 V2000
    1.7068    0.6022   -1.6366 C   0  0  0  0  0  0  0  0  0  0  0  0
    1.9001   -0.2982   -0.4656 C   0  0  2  0  0  0  0  0  0  0  0  0
    1.2587   -1.6298   -0.6581 C   0  0  0  0  0  0  0  0  0  0  0  0
   -0.2243   -1.4684   -0.7962 C   0  0  0  0  0  0  0  0  0  0  0  0
   -0.8554   -0.6372    0.2739 C   0  0  1  0  0  0  0  0  0  0  0  0
   -0.0932    0.6670    0.5139 C   0  0  1  0  0  0  0  0  0  0  0  0
   -0.7573    1.4815    1.5610 C   0  0  0  0  0  0  0  0  0  0  0  0
   -2.2222    1.3213    1.7156 C   0  0  0  0  0  0  0  0  0  0  0  0
   -2.9114    0.6127    0.6328 C   0  0  0  0  0  0  0  0  0  0  0  0
   -4.2168    0.9181    0.3399 C   0  0  0  0  0  0  0  0  0  0  0  0
   -4.8958    0.2518   -0.6904 C   0  0  0  0  0  0  0  0  0  0  0  0
   -6.2135    0.5312   -1.0168 O   0  0  0  0  0  0  0  0  0  0  0  0
   -4.2353   -0.7270   -1.4190 C   0  0  0  0  0  0  0  0  0  0  0  0
   -2.9235   -1.0285   -1.1189 C   0  0  0  0  0  0  0  0  0  0  0  0
   -2.2600   -0.3537   -0.0871 C   0  0  0  0  0  0  0  0  0  0  0  0
    1.3047    0.2708    0.8234 C   0  0  2  0  0  0  0  0  0  0  0  0
    2.2408    1.3570    1.1658 C   0  0  0  0  0  0  0  0  0  0  0  0
    3.5922    0.6847    0.9600 C   0  0  0  0  0  0  0  0  0  0  0  0
    3.3584   -0.3611   -0.1105 C   0  0  2  0  0  0  0  0  0  0  0  0
    4.1282    0.0365   -1.2275 O   0  0  0  0  0  0  0  0  0  0  0  0
    3.7922   -1.6813    0.2744 C   0  0  0  0  0  0  0  0  0  0  0  0
    4.1565   -2.7808    0.5998 C   0  0  0  0  0  0  0  0  0  0  0  0
    1.8831    1.6629   -1.4324 H   0  0  0  0  0  0  0  0  0  0  0  0
    2.4789    0.3088   -2.4067 H   0  0  0  0  0  0  0  0  0  0  0  0
    0.7381    0.5066   -2.1459 H   0  0  0  0  0  0  0  0  0  0  0  0
    1.6383   -2.1092   -1.5700 H   0  0  0  0  0  0  0  0  0  0  0  0
    1.4458   -2.2423    0.2553 H   0  0  0  0  0  0  0  0  0  0  0  0
   -0.6751   -2.4817   -0.7436 H   0  0  0  0  0  0  0  0  0  0  0  0
   -0.5198   -1.0585   -1.7918 H   0  0  0  0  0  0  0  0  0  0  0  0
   -0.8292   -1.2283    1.2163 H   0  0  0  0  0  0  0  0  0  0  0  0
   -0.1340    1.2447   -0.4560 H   0  0  0  0  0  0  0  0  0  0  0  0
   -0.5264    2.5615    1.3310 H   0  0  0  0  0  0  0  0  0  0  0  0
   -0.2356    1.2869    2.5415 H   0  0  0  0  0  0  0  0  0  0  0  0
   -2.6954    2.3205    1.8761 H   0  0  0  0  0  0  0  0  0  0  0  0
   -2.4169    0.7749    2.6852 H   0  0  0  0  0  0  0  0  0  0  0  0
   -4.7959    1.6737    0.8697 H   0  0  0  0  0  0  0  0  0  0  0  0
   -7.0137    0.0853   -0.6242 H   0  0  0  0  0  0  0  0  0  0  0  0
   -4.7726   -1.2396   -2.2186 H   0  0  0  0  0  0  0  0  0  0  0  0
   -2.4235   -1.7786   -1.6800 H   0  0  0  0  0  0  0  0  0  0  0  0
    1.3081   -0.5277    1.5841 H   0  0  0  0  0  0  0  0  0  0  0  0
    2.1537    2.2272    0.5083 H   0  0  0  0  0  0  0  0  0  0  0  0
    2.1429    1.6990    2.2278 H   0  0  0  0  0  0  0  0  0  0  0  0
    3.9077    0.1971    1.9114 H   0  0  0  0  0  0  0  0  0  0  0  0
    4.3696    1.4220    0.6746 H   0  0  0  0  0  0  0  0  0  0  0  0
    4.8482    0.6699   -0.9591 H   0  0  0  0  0  0  0  0  0  0  0  0
    4.4940   -3.7438    0.8821 H   0  0  0  0  0  0  0  0  0  0  0  0
  2  1  1  6
  2  3  1  0
  3  4  1  0
  4  5  1  0
  5  6  1  0
  6  7  1  0
  7  8  1  0
  8  9  1  0
  9 10  2  0
 10 11  1  0
 11 12  1  0
 11 13  2  0
 13 14  1  0
 14 15  2  0
  6 16  1  0
 16 17  1  0
 17 18  1  0
 18 19  1  0
 19 20  1  0
 19 21  1  1
 21 22  3  0
 16  2  1  0
 19  2  1  0
 15  5  1  0
 15  9  1  0
  1 23  1  0
  1 24  1  0
  1 25  1  0
  3 26  1  0
  3 27  1  0
  4 28  1  0
  4 29  1  0
  5 30  1  1
  6 31  1  6
  7 32  1  0
  7 33  1  0
  8 34  1  0
  8 35  1  0
 10 36  1  0
 12 37  1  0
 13 38  1  0
 14 39  1  0
 16 40  1  1
 17 41  1  0
 17 42  1  0
 18 43  1  0
 18 44  1  0
 20 45  1  0
 22 46  1  0
M  END
$$$$
[H]O[C@]1([H])[C@@]([H])(C([H])([H])OP(=O)(O[H])OP(=O)(O[H])OC([H])([H])[C@@]2([H])O[C@@]([H])(O[H])[C@]2([H])O[H])O[C@@]([H])(n2c([H])nc3c(N([H])[H])nc([H])nc32)[C@]1([H])O[H]
     RDKit          3D

 55 58  0  0  0  0  0  0  0  0999 V2000
    6.1918   -1.7299   -0.6539 O   0  0  0  0  0  0  0  0  0  0  0  0
    6.3383   -0.5537   -0.0054 C   0  0  2  0  0  0  0  0  0  0  0  0
    6.5122    0.6965   -0.9750 C   0  0  1  0  0  0  0  0  0  0  0  0
    5.4579    1.7060   -0.3933 C   0  0  0  0  0  0  0  0  0  0  0  0
    4.5264    1.6958   -1.4553 O   0  0  0  0  0  0  0  0  0  0  0  0
    3.0234    1.1779   -1.1169 P   0  0  0  0  0  0  0  0  0  0  0  0
    2.8706   -0.2826   -2.0890 O   0  0  0  0  0  0  0  0  0  0  0  0
    1.9274    2.0708   -1.5024 O   0  0  0  0  0  0  0  0  0  0  0  0
    2.8662    0.5826    0.4635 O   0  0  0  0  0  0  0  0  0  0  0  0
    1.2298    0.3512    0.7906 P   0  0  0  0  0  0  0  0  0  0  0  0
    0.2832    1.5693    0.2394 O   0  0  0  0  0  0  0  0  0  0  0  0
    1.1213    0.3335    2.3518 O   0  0  0  0  0  0  0  0  0  0  0  0
    0.7670   -1.2343    0.3974 O   0  0  0  0  0  0  0  0  0  0  0  0
   -0.6020   -1.2475    0.0941 C   0  0  0  0  0  0  0  0  0  0  0  0
   -1.2913   -1.8060    1.3483 C   0  0  1  0  0  0  0  0  0  0  0  0
   -2.0632   -0.6942    1.8042 O   0  0  0  0  0  0  0  0  0  0  0  0
   -3.2982   -0.8724    1.3130 C   0  0  2  0  0  0  0  0  0  0  0  0
   -3.3426   -2.0406    0.3566 C   0  0  2  0  0  0  0  0  0  0  0  0
   -4.5568   -2.6817    0.3965 O   0  0  0  0  0  0  0  0  0  0  0  0
   -2.2266   -2.8903    1.0370 C   0  0  2  0  0  0  0  0  0  0  0  0
   -2.7994   -3.4447    2.2057 O   0  0  0  0  0  0  0  0  0  0  0  0
   -4.0133    0.2853    0.8632 N   0  0  0  0  0  0  0  0  0  0  0  0
   -4.2601    1.3227    1.6647 C   0  0  0  0  0  0  0  0  0  0  0  0
   -5.0401    2.1894    1.0190 N   0  0  0  0  0  0  0  0  0  0  0  0
   -5.3130    1.7312   -0.2042 C   0  0  0  0  0  0  0  0  0  0  0  0
   -6.0445    2.1420   -1.2763 C   0  0  0  0  0  0  0  0  0  0  0  0
   -6.8226    3.3052   -1.1669 N   0  0  0  0  0  0  0  0  0  0  0  0
   -6.1053    1.3853   -2.4089 N   0  0  0  0  0  0  0  0  0  0  0  0
   -5.4500    0.2349   -2.4460 C   0  0  0  0  0  0  0  0  0  0  0  0
   -4.7440   -0.1921   -1.4133 N   0  0  0  0  0  0  0  0  0  0  0  0
   -4.6494    0.5237   -0.2785 C   0  0  0  0  0  0  0  0  0  0  0  0
    7.7673    0.7764   -0.6162 O   0  0  0  0  0  0  0  0  0  0  0  0
    7.6907   -0.1376    0.4059 C   0  0  1  0  0  0  0  0  0  0  0  0
    7.7260    0.5814    1.6213 O   0  0  0  0  0  0  0  0  0  0  0  0
    6.1019   -1.7011   -1.6180 H   0  0  0  0  0  0  0  0  0  0  0  0
    5.5436   -0.3918    0.7460 H   0  0  0  0  0  0  0  0  0  0  0  0
    6.2446    0.3378   -1.9535 H   0  0  0  0  0  0  0  0  0  0  0  0
    5.9805    2.6485   -0.3283 H   0  0  0  0  0  0  0  0  0  0  0  0
    5.0798    1.3746    0.5543 H   0  0  0  0  0  0  0  0  0  0  0  0
    2.4287   -0.0583   -2.9544 H   0  0  0  0  0  0  0  0  0  0  0  0
   -0.3158    1.4539   -0.4884 H   0  0  0  0  0  0  0  0  0  0  0  0
   -0.7539   -1.9547   -0.7516 H   0  0  0  0  0  0  0  0  0  0  0  0
   -1.0152   -0.2840   -0.1923 H   0  0  0  0  0  0  0  0  0  0  0  0
   -0.5176   -2.0335    2.1034 H   0  0  0  0  0  0  0  0  0  0  0  0
   -3.9141   -1.2733    2.2104 H   0  0  0  0  0  0  0  0  0  0  0  0
   -2.9190   -1.8143   -0.6225 H   0  0  0  0  0  0  0  0  0  0  0  0
   -4.3720   -3.6614    0.5229 H   0  0  0  0  0  0  0  0  0  0  0  0
   -1.8323   -3.6539    0.3568 H   0  0  0  0  0  0  0  0  0  0  0  0
   -2.6297   -2.7839    2.9542 H   0  0  0  0  0  0  0  0  0  0  0  0
   -3.8982    1.5253    2.6850 H   0  0  0  0  0  0  0  0  0  0  0  0
   -7.3951    3.3855   -0.2474 H   0  0  0  0  0  0  0  0  0  0  0  0
   -6.9312    4.0671   -1.8299 H   0  0  0  0  0  0  0  0  0  0  0  0
   -5.4906   -0.3826   -3.3577 H   0  0  0  0  0  0  0  0  0  0  0  0
    8.4646   -0.9241    0.3996 H   0  0  0  0  0  0  0  0  0  0  0  0
    8.4643    1.2706    1.4409 H   0  0  0  0  0  0  0  0  0  0  0  0
  1  2  1  0
  2  3  1  0
  3  4  1  0
  4  5  1  0
  5  6  1  0
  6  7  1  0
  6  8  2  0
  6  9  1  0
  9 10  1  0
 10 11  1  0
 10 12  2  0
 10 13  1  0
 13 14  1  0
 14 15  1  0
 15 16  1  0
 16 17  1  0
 17 18  1  0
 18 19  1  0
 18 20  1  0
 20 21  1  0
 17 22  1  0
 22 23  1  0
 23 24  2  0
 24 25  1  0
 25 26  2  0
 26 27  1  0
 26 28  1  0
 28 29  2  0
 29 30  1  0
 30 31  2  0
  3 32  1  0
 32 33  1  0
 33 34  1  0
 33  2  1  0
 20 15  1  0
 31 22  1  0
 31 25  1  0
  1 35  1  0
  2 36  1  1
  3 37  1  6
  4 38  1  0
  4 39  1  0
  7 40  1  0
 11 41  1  0
 14 42  1  0
 14 43  1  0
 15 44  1  1
 17 45  1  1
 18 46  1  6
 19 47  1  0
 20 48  1  6
 21 49  1  0
 23 50  1  0
 27 51  1  0
 27 52  1  0
 29 53  1  0
 33 54  1  1
 34 55  1  0
M  END
$$$$
[H]OC(=O)c1c([H])c([H])c(C#Cc2c([H])c(O[C@@]([H])(C([H])([H])[H])C([H])([H])OC([H])([H])[H])c([H])c(C(=O)N([H])c3nn(C([H])([H])[H])c([H])c3[H])c2[H])c([H])c1[H]
     RDKit          3D

 55 57  0  0  0  0  0  0  0  0999 V2000
    0.3340    5.1040    1.9002 C   0  0  0  0  0  0  0  0  0  0  0  0
   -0.8394    5.5756    1.3703 O   0  0  0  0  0  0  0  0  0  0  0  0
   -0.7132    5.8374    0.0416 C   0  0  0  0  0  0  0  0  0  0  0  0
   -0.3751    4.6906   -0.8522 C   0  0  2  0  0  0  0  0  0  0  0  0
   -0.3073    5.2894   -2.2873 C   0  0  0  0  0  0  0  0  0  0  0  0
   -1.3363    3.6960   -0.8009 O   0  0  0  0  0  0  0  0  0  0  0  0
   -1.1321    2.3537   -0.6210 C   0  0  0  0  0  0  0  0  0  0  0  0
    0.1142    1.7528   -0.4697 C   0  0  0  0  0  0  0  0  0  0  0  0
    0.2807    0.3970   -0.2903 C   0  0  0  0  0  0  0  0  0  0  0  0
   -0.8623   -0.3846   -0.2627 C   0  0  0  0  0  0  0  0  0  0  0  0
   -2.1333    0.1527   -0.4075 C   0  0  0  0  0  0  0  0  0  0  0  0
   -2.2368    1.5092   -0.5831 C   0  0  0  0  0  0  0  0  0  0  0  0
   -3.3521   -0.6833   -0.3733 C   0  0  0  0  0  0  0  0  0  0  0  0
   -4.4164   -0.0916   -0.6599 O   0  0  0  0  0  0  0  0  0  0  0  0
   -3.2991   -2.0521   -0.0379 N   0  0  0  0  0  0  0  0  0  0  0  0
   -4.4444   -2.8840    0.0055 C   0  0  0  0  0  0  0  0  0  0  0  0
   -5.7635   -2.6162   -0.2384 C   0  0  0  0  0  0  0  0  0  0  0  0
   -6.5312   -3.7772   -0.0645 C   0  0  0  0  0  0  0  0  0  0  0  0
   -5.6468   -4.7144    0.2808 N   0  0  0  0  0  0  0  0  0  0  0  0
   -6.0535   -6.0970    0.5571 C   0  0  0  0  0  0  0  0  0  0  0  0
   -4.4303   -4.2175    0.3274 N   0  0  0  0  0  0  0  0  0  0  0  0
    1.5912   -0.1797   -0.1381 C   0  0  0  0  0  0  0  0  0  0  0  0
    2.6873   -0.6632    0.0104 C   0  0  0  0  0  0  0  0  0  0  0  0
    3.9822   -1.2574    0.1931 C   0  0  0  0  0  0  0  0  0  0  0  0
    4.7462   -1.6172   -0.8947 C   0  0  0  0  0  0  0  0  0  0  0  0
    5.9843   -2.1852   -0.7067 C   0  0  0  0  0  0  0  0  0  0  0  0
    6.4996   -2.4123    0.5741 C   0  0  0  0  0  0  0  0  0  0  0  0
    5.7444   -2.0567    1.6488 C   0  0  0  0  0  0  0  0  0  0  0  0
    4.5172   -1.4937    1.4543 C   0  0  0  0  0  0  0  0  0  0  0  0
    7.8036   -3.0105    0.7728 C   0  0  0  0  0  0  0  0  0  0  0  0
    8.5468   -3.3610   -0.3413 O   0  0  0  0  0  0  0  0  0  0  0  0
    8.2207   -3.1934    1.9361 O   0  0  0  0  0  0  0  0  0  0  0  0
    0.6467    4.1748    1.4163 H   0  0  0  0  0  0  0  0  0  0  0  0
    0.1613    4.8505    2.9762 H   0  0  0  0  0  0  0  0  0  0  0  0
    1.0904    5.9149    1.8202 H   0  0  0  0  0  0  0  0  0  0  0  0
   -1.6789    6.3293   -0.2838 H   0  0  0  0  0  0  0  0  0  0  0  0
    0.0399    6.6674   -0.0961 H   0  0  0  0  0  0  0  0  0  0  0  0
    0.6312    4.3143   -0.5950 H   0  0  0  0  0  0  0  0  0  0  0  0
   -1.0274    6.1298   -2.3608 H   0  0  0  0  0  0  0  0  0  0  0  0
    0.7384    5.6122   -2.4436 H   0  0  0  0  0  0  0  0  0  0  0  0
   -0.6351    4.5328   -3.0236 H   0  0  0  0  0  0  0  0  0  0  0  0
    1.0001    2.3626   -0.4925 H   0  0  0  0  0  0  0  0  0  0  0  0
   -0.7342   -1.4393   -0.1251 H   0  0  0  0  0  0  0  0  0  0  0  0
   -3.2035    1.9521   -0.6975 H   0  0  0  0  0  0  0  0  0  0  0  0
   -2.3743   -2.4980    0.1951 H   0  0  0  0  0  0  0  0  0  0  0  0
   -6.1782   -1.6678   -0.5224 H   0  0  0  0  0  0  0  0  0  0  0  0
   -7.6004   -3.8537   -0.1918 H   0  0  0  0  0  0  0  0  0  0  0  0
   -5.4014   -6.4603    1.3977 H   0  0  0  0  0  0  0  0  0  0  0  0
   -7.0888   -6.1259    0.9322 H   0  0  0  0  0  0  0  0  0  0  0  0
   -5.8893   -6.7482   -0.3120 H   0  0  0  0  0  0  0  0  0  0  0  0
    4.3896   -1.4610   -1.9145 H   0  0  0  0  0  0  0  0  0  0  0  0
    6.6277   -2.4874   -1.5249 H   0  0  0  0  0  0  0  0  0  0  0  0
    6.1055   -2.2149    2.6676 H   0  0  0  0  0  0  0  0  0  0  0  0
    3.9426   -1.2225    2.3502 H   0  0  0  0  0  0  0  0  0  0  0  0
    9.2588   -4.0719   -0.2153 H   0  0  0  0  0  0  0  0  0  0  0  0
  1  2  1  0
  2  3  1  0
  3  4  1  0
  4  5  1  0
  4  6  1  0
  6  7  1  0
  7  8  2  0
  8  9  1  0
  9 10  2  0
 10 11  1  0
 11 12  2  0
 11 13  1  0
 13 14  2  0
 13 15  1  0
 15 16  1  0
 16 17  1  0
 17 18  2  0
 18 19  1  0
 19 20  1  0
 19 21  1  0
  9 22  1  0
 22 23  3  0
 23 24  1  0
 24 25  2  0
 25 26  1  0
 26 27  2  0
 27 28  1  0
 28 29  2  0
 27 30  1  0
 30 31  1  0
 30 32  2  0
 12  7  1  0
 21 16  2  0
 29 24  1  0
  1 33  1  0
  1 34  1  0
  1 35  1  0
  3 36  1  0
  3 37  1  0
  4 38  1  1
  5 39  1  0
  5 40  1  0
  5 41  1  0
  8 42  1  0
 10 43  1  0
 12 44  1  0
 15 45  1  0
 17 46  1  0
 18 47  1  0
 20 48  1  0
 20 49  1  0
 20 50  1  0
 25 51  1  0
 26 52  1  0
 28 53  1  0
 29 54  1  0
 31 55  1  0
M  END
$$$$
[H]Oc1c([H])c([H])c(C([H])([H])[C@]2([H])C(=O)N([H])[C@@]([H])(C([H])([H])C([H])([H])C([H])([H])N=C(N([H])[H])N([H])[H])C(=O)N([H])[C@@]([H])(C([H])([H])c3c([H])n([H])c4c([H])c([H])c([H])c([H])c34)C(=O)N([H])[C@@]([H])([C@@]([H])(C([H])([H])[H])C([H])([H])C([H])([H])[H])C(=O)N3C([H])([H])C([H])([H])C([H])([H])[C@@]3([H])C(=O)N2[H])c([H])c1[H]
     RDKit          3D

101105  0  0  0  0  0  0  0  0999 V2000
   -6.4414   -1.9001    1.8727 C   0  0  0  0  0  0  0  0  0  0  0  0
   -5.0637   -1.5298    2.4045 C   0  0  0  0  0  0  0  0  0  0  0  0
   -4.0367   -1.9838    1.4185 C   0  0  2  0  0  0  0  0  0  0  0  0
   -4.1340   -3.4877    1.2199 C   0  0  0  0  0  0  0  0  0  0  0  0
   -2.6038   -1.5983    1.7885 C   0  0  2  0  0  0  0  0  0  0  0  0
   -2.5229   -0.1982    1.8658 N   0  0  0  0  0  0  0  0  0  0  0  0
   -1.7730    0.8213    1.3095 C   0  0  0  0  0  0  0  0  0  0  0  0
   -1.0292    1.4630    2.1727 O   0  0  0  0  0  0  0  0  0  0  0  0
   -1.6249    1.3547   -0.0504 C   0  0  2  0  0  0  0  0  0  0  0  0
   -2.9360    1.2313   -0.8574 C   0  0  0  0  0  0  0  0  0  0  0  0
   -2.7762    1.7667   -2.1957 C   0  0  0  0  0  0  0  0  0  0  0  0
   -2.6386    1.0441   -3.3548 C   0  0  0  0  0  0  0  0  0  0  0  0
   -2.5195    1.9281   -4.3867 N   0  0  0  0  0  0  0  0  0  0  0  0
   -2.5754    3.1920   -3.9336 C   0  0  0  0  0  0  0  0  0  0  0  0
   -2.4994    4.3939   -4.6064 C   0  0  0  0  0  0  0  0  0  0  0  0
   -2.5896    5.5437   -3.8615 C   0  0  0  0  0  0  0  0  0  0  0  0
   -2.7514    5.5150   -2.4809 C   0  0  0  0  0  0  0  0  0  0  0  0
   -2.8214    4.2795   -1.8594 C   0  0  0  0  0  0  0  0  0  0  0  0
   -2.7358    3.0900   -2.5642 C   0  0  0  0  0  0  0  0  0  0  0  0
   -0.5068    0.9197   -0.8063 N   0  0  0  0  0  0  0  0  0  0  0  0
    0.7805    1.4515   -0.9328 C   0  0  0  0  0  0  0  0  0  0  0  0
    1.3184    1.3844   -2.1098 O   0  0  0  0  0  0  0  0  0  0  0  0
    1.6111    2.0793    0.0884 C   0  0  2  0  0  0  0  0  0  0  0  0
    2.6760    2.9847   -0.5661 C   0  0  0  0  0  0  0  0  0  0  0  0
    3.5245    3.6248    0.5100 C   0  0  0  0  0  0  0  0  0  0  0  0
    4.5877    4.5138   -0.0398 C   0  0  0  0  0  0  0  0  0  0  0  0
    5.3136    5.0525    1.1243 N   0  0  0  0  0  0  0  0  0  0  0  0
    4.8973    6.1326    1.7025 C   0  0  0  0  0  0  0  0  0  0  0  0
    3.7467    6.8321    1.2505 N   0  0  0  0  0  0  0  0  0  0  0  0
    5.6364    6.5917    2.8127 N   0  0  0  0  0  0  0  0  0  0  0  0
    2.2610    1.2291    1.0304 N   0  0  0  0  0  0  0  0  0  0  0  0
    2.8923    0.0118    0.8750 C   0  0  0  0  0  0  0  0  0  0  0  0
    4.1387   -0.0889    1.1905 O   0  0  0  0  0  0  0  0  0  0  0  0
    2.3261   -1.2808    0.3713 C   0  0  1  0  0  0  0  0  0  0  0  0
    3.2002   -1.5847   -0.8588 C   0  0  0  0  0  0  0  0  0  0  0  0
    2.8360   -2.8126   -1.5460 C   0  0  0  0  0  0  0  0  0  0  0  0
    1.9102   -2.7822   -2.5647 C   0  0  0  0  0  0  0  0  0  0  0  0
    1.5521   -3.9563   -3.2409 C   0  0  0  0  0  0  0  0  0  0  0  0
    2.1362   -5.1492   -2.8775 C   0  0  0  0  0  0  0  0  0  0  0  0
    1.8013   -6.3197   -3.5274 O   0  0  0  0  0  0  0  0  0  0  0  0
    3.0762   -5.1989   -1.8474 C   0  0  0  0  0  0  0  0  0  0  0  0
    3.4071   -4.0088   -1.1977 C   0  0  0  0  0  0  0  0  0  0  0  0
    2.6399   -2.2528    1.4052 N   0  0  0  0  0  0  0  0  0  0  0  0
    1.7537   -3.1530    2.0293 C   0  0  0  0  0  0  0  0  0  0  0  0
    2.3065   -4.3019    2.2628 O   0  0  0  0  0  0  0  0  0  0  0  0
    0.3480   -2.8932    2.4073 C   0  0  2  0  0  0  0  0  0  0  0  0
   -0.0131   -4.0312    3.3994 C   0  0  0  0  0  0  0  0  0  0  0  0
   -0.1606   -5.1940    2.4055 C   0  0  0  0  0  0  0  0  0  0  0  0
   -0.2259   -4.5871    1.0302 C   0  0  0  0  0  0  0  0  0  0  0  0
   -0.6324   -3.2135    1.3929 N   0  0  0  0  0  0  0  0  0  0  0  0
   -1.6904   -2.3690    0.9556 C   0  0  0  0  0  0  0  0  0  0  0  0
   -1.8336   -2.3000   -0.2909 O   0  0  0  0  0  0  0  0  0  0  0  0
   -7.1719   -1.1811    2.2938 H   0  0  0  0  0  0  0  0  0  0  0  0
   -6.7785   -2.8956    2.2283 H   0  0  0  0  0  0  0  0  0  0  0  0
   -6.4490   -1.8036    0.7808 H   0  0  0  0  0  0  0  0  0  0  0  0
   -5.1049   -0.4360    2.5663 H   0  0  0  0  0  0  0  0  0  0  0  0
   -4.9471   -2.0826    3.3731 H   0  0  0  0  0  0  0  0  0  0  0  0
   -4.2504   -1.5281    0.4411 H   0  0  0  0  0  0  0  0  0  0  0  0
   -5.1813   -3.7636    1.3181 H   0  0  0  0  0  0  0  0  0  0  0  0
   -3.4914   -3.9511    2.0159 H   0  0  0  0  0  0  0  0  0  0  0  0
   -3.7873   -3.7136    0.1971 H   0  0  0  0  0  0  0  0  0  0  0  0
   -2.5145   -1.9829    2.8710 H   0  0  0  0  0  0  0  0  0  0  0  0
   -3.2630    0.1601    2.5964 H   0  0  0  0  0  0  0  0  0  0  0  0
   -1.5268    2.4989   -0.0250 H   0  0  0  0  0  0  0  0  0  0  0  0
   -3.6919    1.7580   -0.2215 H   0  0  0  0  0  0  0  0  0  0  0  0
   -3.2604    0.1570   -0.8570 H   0  0  0  0  0  0  0  0  0  0  0  0
   -2.6225   -0.0520   -3.4728 H   0  0  0  0  0  0  0  0  0  0  0  0
   -2.4020    1.6508   -5.3837 H   0  0  0  0  0  0  0  0  0  0  0  0
   -2.3746    4.4886   -5.6758 H   0  0  0  0  0  0  0  0  0  0  0  0
   -2.5353    6.5233   -4.3408 H   0  0  0  0  0  0  0  0  0  0  0  0
   -2.8239    6.4101   -1.8789 H   0  0  0  0  0  0  0  0  0  0  0  0
   -2.9477    4.2782   -0.7810 H   0  0  0  0  0  0  0  0  0  0  0  0
   -0.6741    0.0373   -1.3882 H   0  0  0  0  0  0  0  0  0  0  0  0
    0.9509    2.8213    0.6071 H   0  0  0  0  0  0  0  0  0  0  0  0
    3.3338    2.3804   -1.2208 H   0  0  0  0  0  0  0  0  0  0  0  0
    2.1890    3.7588   -1.1913 H   0  0  0  0  0  0  0  0  0  0  0  0
    2.8567    4.1718    1.2401 H   0  0  0  0  0  0  0  0  0  0  0  0
    3.9944    2.8052    1.0885 H   0  0  0  0  0  0  0  0  0  0  0  0
    5.3321    3.8458   -0.5623 H   0  0  0  0  0  0  0  0  0  0  0  0
    4.2351    5.3019   -0.7038 H   0  0  0  0  0  0  0  0  0  0  0  0
    2.8782    6.8672    1.8227 H   0  0  0  0  0  0  0  0  0  0  0  0
    3.7367    7.3311    0.3349 H   0  0  0  0  0  0  0  0  0  0  0  0
    5.5285    6.1334    3.7304 H   0  0  0  0  0  0  0  0  0  0  0  0
    6.2853    7.3853    2.7088 H   0  0  0  0  0  0  0  0  0  0  0  0
    2.2740    1.5968    2.0519 H   0  0  0  0  0  0  0  0  0  0  0  0
    1.2694   -1.2717    0.1650 H   0  0  0  0  0  0  0  0  0  0  0  0
    4.2433   -1.6297   -0.4153 H   0  0  0  0  0  0  0  0  0  0  0  0
    3.2052   -0.6779   -1.4727 H   0  0  0  0  0  0  0  0  0  0  0  0
    1.4391   -1.8473   -2.8637 H   0  0  0  0  0  0  0  0  0  0  0  0
    0.8203   -3.8604   -4.0297 H   0  0  0  0  0  0  0  0  0  0  0  0
    1.1266   -6.2886   -4.2693 H   0  0  0  0  0  0  0  0  0  0  0  0
    3.5566   -6.1136   -1.5325 H   0  0  0  0  0  0  0  0  0  0  0  0
    4.1411   -4.0605   -0.3958 H   0  0  0  0  0  0  0  0  0  0  0  0
    3.6700   -2.2404    1.6844 H   0  0  0  0  0  0  0  0  0  0  0  0
    0.1914   -1.9099    2.8638 H   0  0  0  0  0  0  0  0  0  0  0  0
   -0.9466   -3.8157    3.9130 H   0  0  0  0  0  0  0  0  0  0  0  0
    0.8222   -4.2549    4.0621 H   0  0  0  0  0  0  0  0  0  0  0  0
    0.5666   -5.9835    2.5468 H   0  0  0  0  0  0  0  0  0  0  0  0
   -1.1901   -5.6246    2.5924 H   0  0  0  0  0  0  0  0  0  0  0  0
   -0.9629   -5.0870    0.3751 H   0  0  0  0  0  0  0  0  0  0  0  0
    0.7094   -4.5613    0.4737 H   0  0  0  0  0  0  0  0  0  0  0  0
  1  2  1  0
  2  3  1  0
  3  4  1  0
  3  5  1  0
  5  6  1  0
  6  7  1  0
  7  8  2  0
  7  9  1  0
  9 10  1  0
 10 11  1  0
 11 12  2  0
 12 13  1  0
 13 14  1  0
 14 15  2  0
 15 16  1  0
 16 17  2  0
 17 18  1  0
 18 19  2  0
  9 20  1  0
 20 21  1  0
 21 22  2  0
 21 23  1  0
 23 24  1  0
 24 25  1  0
 25 26  1  0
 26 27  1  0
 27 28  2  3
 28 29  1  0
 28 30  1  0
 23 31  1  0
 31 32  1  0
 32 33  2  0
 32 34  1  0
 34 35  1  0
 35 36  1  0
 36 37  2  0
 37 38  1  0
 38 39  2  0
 39 40  1  0
 39 41  1  0
 41 42  2  0
 34 43  1  0
 43 44  1  0
 44 45  2  0
 44 46  1  0
 46 47  1  0
 47 48  1  0
 48 49  1  0
 49 50  1  0
 50 51  1  0
 51 52  2  0
 51  5  1  0
 19 11  1  0
 42 36  1  0
 50 46  1  0
 19 14  1  0
  1 53  1  0
  1 54  1  0
  1 55  1  0
  2 56  1  0
  2 57  1  0
  3 58  1  6
  4 59  1  0
  4 60  1  0
  4 61  1  0
  5 62  1  1
  6 63  1  0
  9 64  1  1
 10 65  1  0
 10 66  1  0
 12 67  1  0
 13 68  1  0
 15 69  1  0
 16 70  1  0
 17 71  1  0
 18 72  1  0
 20 73  1  0
 23 74  1  1
 24 75  1  0
 24 76  1  0
 25 77  1  0
 25 78  1  0
 26 79  1  0
 26 80  1  0
 29 81  1  0
 29 82  1  0
 30 83  1  0
 30 84  1  0
 31 85  1  0
 34 86  1  6
 35 87  1  0
 35 88  1  0
 37 89  1  0
 38 90  1  0
 40 91  1  0
 41 92  1  0
 42 93  1  0
 43 94  1  0
 46 95  1  1
 47 96  1  0
 47 97  1  0
 48 98  1  0
 48 99  1  0
 49100  1  0
 49101  1  0
M  END
$$$$
[H]c1c([H])c(S(=O)(=O)N([H])[H])c([H])c([H])c1N([H])c1nc(N([H])C([H])(C([H])([H])[H])C([H])([H])[H])c2c([H])c([H])n([H])c2n1
     RDKit          3D

 42 44  0  0  0  0  0  0  0  0999 V2000
   -3.5112    2.6941    0.8580 C   0  0  0  0  0  0  0  0  0  0  0  0
   -4.1970    1.4089    1.2184 C   0  0  0  0  0  0  0  0  0  0  0  0
   -5.6767    1.5890    1.4555 C   0  0  0  0  0  0  0  0  0  0  0  0
   -3.9956    0.3624    0.2378 N   0  0  0  0  0  0  0  0  0  0  0  0
   -2.7079   -0.1306   -0.1006 C   0  0  0  0  0  0  0  0  0  0  0  0
   -1.5870    0.3412    0.4668 N   0  0  0  0  0  0  0  0  0  0  0  0
   -0.3418   -0.1138    0.1604 C   0  0  0  0  0  0  0  0  0  0  0  0
    0.7943    0.4067    0.7983 N   0  0  0  0  0  0  0  0  0  0  0  0
    2.1494    0.0678    0.6026 C   0  0  0  0  0  0  0  0  0  0  0  0
    3.0816    0.4583    1.5798 C   0  0  0  0  0  0  0  0  0  0  0  0
    4.4199    0.2057    1.5000 C   0  0  0  0  0  0  0  0  0  0  0  0
    4.9184   -0.4703    0.4094 C   0  0  0  0  0  0  0  0  0  0  0  0
    4.0460   -0.8720   -0.5717 C   0  0  0  0  0  0  0  0  0  0  0  0
    2.6740   -0.6008   -0.4682 C   0  0  0  0  0  0  0  0  0  0  0  0
    6.6371   -0.7835    0.3292 S   0  0  0  0  0  0  0  0  0  0  0  0
    7.3819    0.5306   -0.4678 N   0  0  0  0  0  0  0  0  0  0  0  0
    6.9266   -2.0924   -0.3441 O   0  0  0  0  0  0  0  0  0  0  0  0
    7.1772   -0.8474    1.7373 O   0  0  0  0  0  0  0  0  0  0  0  0
   -0.3002   -1.0798   -0.7597 N   0  0  0  0  0  0  0  0  0  0  0  0
   -1.3559   -1.6123   -1.3786 C   0  0  0  0  0  0  0  0  0  0  0  0
   -1.5363   -2.5635   -2.3076 N   0  0  0  0  0  0  0  0  0  0  0  0
   -2.8415   -2.7127   -2.5855 C   0  0  0  0  0  0  0  0  0  0  0  0
   -3.5336   -1.8260   -1.8086 C   0  0  0  0  0  0  0  0  0  0  0  0
   -2.6208   -1.1276   -1.0457 C   0  0  0  0  0  0  0  0  0  0  0  0
   -4.2422    3.5143    0.9967 H   0  0  0  0  0  0  0  0  0  0  0  0
   -3.2039    2.6748   -0.2054 H   0  0  0  0  0  0  0  0  0  0  0  0
   -2.6384    2.8748    1.5283 H   0  0  0  0  0  0  0  0  0  0  0  0
   -3.7665    1.0399    2.1954 H   0  0  0  0  0  0  0  0  0  0  0  0
   -6.2322    1.2198    0.5464 H   0  0  0  0  0  0  0  0  0  0  0  0
   -5.9272    2.6755    1.5661 H   0  0  0  0  0  0  0  0  0  0  0  0
   -6.0168    1.0149    2.3160 H   0  0  0  0  0  0  0  0  0  0  0  0
   -4.8240   -0.0396   -0.2331 H   0  0  0  0  0  0  0  0  0  0  0  0
    0.5777    1.1702    1.5289 H   0  0  0  0  0  0  0  0  0  0  0  0
    2.6974    0.9816    2.4267 H   0  0  0  0  0  0  0  0  0  0  0  0
    5.1242    0.5220    2.2771 H   0  0  0  0  0  0  0  0  0  0  0  0
    4.4323   -1.4067   -1.4367 H   0  0  0  0  0  0  0  0  0  0  0  0
    2.0406   -0.9306   -1.2761 H   0  0  0  0  0  0  0  0  0  0  0  0
    6.7674    1.3663   -0.4785 H   0  0  0  0  0  0  0  0  0  0  0  0
    7.8049    0.2933   -1.3839 H   0  0  0  0  0  0  0  0  0  0  0  0
   -0.7200   -3.0928   -2.7296 H   0  0  0  0  0  0  0  0  0  0  0  0
   -3.2545   -3.4253   -3.3101 H   0  0  0  0  0  0  0  0  0  0  0  0
   -4.6193   -1.6844   -1.7854 H   0  0  0  0  0  0  0  0  0  0  0  0
  1  2  1  0
  2  3  1  0
  2  4  1  0
  4  5  1  0
  5  6  2  0
  6  7  1  0
  7  8  1  0
  8  9  1  0
  9 10  2  0
 10 11  1  0
 11 12  2  0
 12 13  1  0
 13 14  2  0
 12 15  1  0
 15 16  1  0
 15 17  2  0
 15 18  2  0
  7 19  2  0
 19 20  1  0
 20 21  1  0
 21 22  1  0
 22 23  2  0
 23 24  1  0
 24  5  1  0
 14  9  1  0
 24 20  2  0
  1 25  1  0
  1 26  1  0
  1 27  1  0
  2 28  1  0
  3 29  1  0
  3 30  1  0
  3 31  1  0
  4 32  1  0
  8 33  1  0
 10 34  1  0
 11 35  1  0
 13 36  1  0
 14 37  1  0
 16 38  1  0
 16 39  1  0
 21 40  1  0
 22 41  1  0
 23 42  1  0
M  END
$$$$
[H]OC(=O)C([H])([H])[C@@]([H])(C(=O)C([H])([H])SC([H])([H])c1c([H])c([H])c([H])c([H])c1[H])N([H])C(=O)[C@@]([H])(N([H])C(=O)[C@@]([H])(N([H])C(=O)OC([H])([H])c1c([H])c([H])c([H])c([H])c1[H])C([H])(C([H])([H])[H])C([H])([H])[H])C([H])([H])[H]
     RDKit          3D

 74 75  0  0  0  0  0  0  0  0999 V2000
   -3.7273   -2.9388   -2.0593 C   0  0  0  0  0  0  0  0  0  0  0  0
   -3.8220   -1.4664   -1.7775 C   0  0  0  0  0  0  0  0  0  0  0  0
   -5.3227   -1.1024   -1.8751 C   0  0  0  0  0  0  0  0  0  0  0  0
   -3.4244   -1.1639   -0.3817 C   0  0  2  0  0  0  0  0  0  0  0  0
   -3.5803    0.2589   -0.0604 N   0  0  0  0  0  0  0  0  0  0  0  0
   -4.5951    0.7734    0.7866 C   0  0  0  0  0  0  0  0  0  0  0  0
   -5.4128   -0.0297    1.3023 O   0  0  0  0  0  0  0  0  0  0  0  0
   -4.7448    2.0981    1.0794 O   0  0  0  0  0  0  0  0  0  0  0  0
   -5.6875    2.7261    1.8686 C   0  0  0  0  0  0  0  0  0  0  0  0
   -7.0886    2.5978    1.4614 C   0  0  0  0  0  0  0  0  0  0  0  0
   -8.0321    3.0354    2.3950 C   0  0  0  0  0  0  0  0  0  0  0  0
   -9.3659    2.9593    2.1083 C   0  0  0  0  0  0  0  0  0  0  0  0
   -9.7716    2.4464    0.8898 C   0  0  0  0  0  0  0  0  0  0  0  0
   -8.8404    2.0217   -0.0147 C   0  0  0  0  0  0  0  0  0  0  0  0
   -7.4697    2.0933    0.2625 C   0  0  0  0  0  0  0  0  0  0  0  0
   -2.1163   -1.6261    0.1004 C   0  0  0  0  0  0  0  0  0  0  0  0
   -1.7669   -1.2793    1.3124 O   0  0  0  0  0  0  0  0  0  0  0  0
   -1.1627   -2.3928   -0.5609 N   0  0  0  0  0  0  0  0  0  0  0  0
    0.0804   -2.7424    0.1299 C   0  0  1  0  0  0  0  0  0  0  0  0
    0.4894   -4.1186   -0.2489 C   0  0  0  0  0  0  0  0  0  0  0  0
    1.1363   -1.7287   -0.1661 C   0  0  0  0  0  0  0  0  0  0  0  0
    0.8334   -0.7106   -0.8552 O   0  0  0  0  0  0  0  0  0  0  0  0
    2.4324   -1.9483    0.3391 N   0  0  0  0  0  0  0  0  0  0  0  0
    3.4585   -0.9295    0.0661 C   0  0  1  0  0  0  0  0  0  0  0  0
    4.2048   -0.6451    1.3486 C   0  0  0  0  0  0  0  0  0  0  0  0
    4.8950   -1.8028    1.9166 C   0  0  0  0  0  0  0  0  0  0  0  0
    5.5973   -1.5897    3.1263 O   0  0  0  0  0  0  0  0  0  0  0  0
    4.9489   -2.9544    1.4746 O   0  0  0  0  0  0  0  0  0  0  0  0
    4.3433   -1.3459   -1.0224 C   0  0  0  0  0  0  0  0  0  0  0  0
    4.2881   -2.5630   -1.3322 O   0  0  0  0  0  0  0  0  0  0  0  0
    5.2834   -0.5592   -1.8235 C   0  0  0  0  0  0  0  0  0  0  0  0
    6.9985   -0.6990   -1.5024 S   0  0  0  0  0  0  0  0  0  0  0  0
    7.7241    0.1079   -0.1159 C   0  0  0  0  0  0  0  0  0  0  0  0
    7.7891    1.5843   -0.3209 C   0  0  0  0  0  0  0  0  0  0  0  0
    8.9032    2.0751   -0.9715 C   0  0  0  0  0  0  0  0  0  0  0  0
    9.0839    3.4105   -1.2050 C   0  0  0  0  0  0  0  0  0  0  0  0
    8.1178    4.2858   -0.7740 C   0  0  0  0  0  0  0  0  0  0  0  0
    6.9990    3.8184   -0.1241 C   0  0  0  0  0  0  0  0  0  0  0  0
    6.8263    2.4495    0.1090 C   0  0  0  0  0  0  0  0  0  0  0  0
   -3.0543   -3.2120   -2.8869 H   0  0  0  0  0  0  0  0  0  0  0  0
   -4.7496   -3.3589   -2.3096 H   0  0  0  0  0  0  0  0  0  0  0  0
   -3.4225   -3.4526   -1.1277 H   0  0  0  0  0  0  0  0  0  0  0  0
   -3.2590   -0.8618   -2.5344 H   0  0  0  0  0  0  0  0  0  0  0  0
   -5.4283   -0.0267   -1.6480 H   0  0  0  0  0  0  0  0  0  0  0  0
   -5.8259   -1.6883   -1.0794 H   0  0  0  0  0  0  0  0  0  0  0  0
   -5.7113   -1.3949   -2.8690 H   0  0  0  0  0  0  0  0  0  0  0  0
   -4.2049   -1.6694    0.2717 H   0  0  0  0  0  0  0  0  0  0  0  0
   -2.9137    0.9445   -0.4736 H   0  0  0  0  0  0  0  0  0  0  0  0
   -5.4592    3.8349    1.8108 H   0  0  0  0  0  0  0  0  0  0  0  0
   -5.6187    2.4949    2.9514 H   0  0  0  0  0  0  0  0  0  0  0  0
   -7.7260    3.4403    3.3534 H   0  0  0  0  0  0  0  0  0  0  0  0
  -10.1384    3.2910    2.8049 H   0  0  0  0  0  0  0  0  0  0  0  0
  -10.8194    2.3769    0.6432 H   0  0  0  0  0  0  0  0  0  0  0  0
   -9.0972    1.6105   -0.9834 H   0  0  0  0  0  0  0  0  0  0  0  0
   -6.7379    1.7714   -0.4488 H   0  0  0  0  0  0  0  0  0  0  0  0
   -1.2134   -2.7540   -1.5322 H   0  0  0  0  0  0  0  0  0  0  0  0
   -0.0768   -2.6483    1.2323 H   0  0  0  0  0  0  0  0  0  0  0  0
    1.2633   -4.0584   -1.0383 H   0  0  0  0  0  0  0  0  0  0  0  0
    0.8690   -4.6564    0.6573 H   0  0  0  0  0  0  0  0  0  0  0  0
   -0.4097   -4.6535   -0.6642 H   0  0  0  0  0  0  0  0  0  0  0  0
    2.6562   -2.7828    0.8793 H   0  0  0  0  0  0  0  0  0  0  0  0
    2.9454    0.0057   -0.2456 H   0  0  0  0  0  0  0  0  0  0  0  0
    3.4900   -0.1914    2.1115 H   0  0  0  0  0  0  0  0  0  0  0  0
    4.9246    0.1559    1.1570 H   0  0  0  0  0  0  0  0  0  0  0  0
    5.0507   -1.3555    3.9351 H   0  0  0  0  0  0  0  0  0  0  0  0
    5.0694   -0.7294   -2.9199 H   0  0  0  0  0  0  0  0  0  0  0  0
    4.9924    0.5409   -1.6904 H   0  0  0  0  0  0  0  0  0  0  0  0
    8.7947   -0.2500   -0.0044 H   0  0  0  0  0  0  0  0  0  0  0  0
    7.2761   -0.1335    0.8750 H   0  0  0  0  0  0  0  0  0  0  0  0
    9.6610    1.3715   -1.3061 H   0  0  0  0  0  0  0  0  0  0  0  0
    9.9812    3.7271   -1.7201 H   0  0  0  0  0  0  0  0  0  0  0  0
    8.2423    5.3540   -0.9495 H   0  0  0  0  0  0  0  0  0  0  0  0
    6.2026    4.4548    0.2405 H   0  0  0  0  0  0  0  0  0  0  0  0
    5.9449    2.0983    0.6229 H   0  0  0  0  0  0  0  0  0  0  0  0
  1  2  1  0
  2  3  1  0
  2  4  1  0
  4  5  1  0
  5  6  1  0
  6  7  2  0
  6  8  1  0
  8  9  1  0
  9 10  1  0
 10 11  2  0
 11 12  1  0
 12 13  2  0
 13 14  1  0
 14 15  2  0
  4 16  1  0
 16 17  2  0
 16 18  1  0
 18 19  1  0
 19 20  1  0
 19 21  1  0
 21 22  2  0
 21 23  1  0
 23 24  1  0
 24 25  1  0
 25 26  1  0
 26 27  1  0
 26 28  2  0
 24 29  1  0
 29 30  2  0
 29 31  1  0
 31 32  1  0
 32 33  1  0
 33 34  1  0
 34 35  2  0
 35 36  1  0
 36 37  2  0
 37 38  1  0
 38 39  2  0
 15 10  1  0
 39 34  1  0
  1 40  1  0
  1 41  1  0
  1 42  1  0
  2 43  1  0
  3 44  1  0
  3 45  1  0
  3 46  1  0
  4 47  1  1
  5 48  1  0
  9 49  1  0
  9 50  1  0
 11 51  1  0
 12 52  1  0
 13 53  1  0
 14 54  1  0
 15 55  1  0
 18 56  1  0
 19 57  1  1
 20 58  1  0
 20 59  1  0
 20 60  1  0
 23 61  1  0
 24 62  1  6
 25 63  1  0
 25 64  1  0
 27 65  1  0
 31 66  1  0
 31 67  1  0
 33 68  1  0
 33 69  1  0
 35 70  1  0
 36 71  1  0
 37 72  1  0
 38 73  1  0
 39 74  1  0
M  END
$$$$
[H]O[C@@]1(C#CC(C([H])([H])[H])(C([H])([H])[H])C([H])([H])[H])C([H])([H])C([H])([H])[C@]2([H])[C@]1(C([H])([H])[H])C([H])([H])C([H])([H])[C@]1([H])[C@]3(C([H])([H])[H])C(=C([H])C(=O)C([H])([H])C3([H])[H])C([H])([H])C([H])([H])[C@@]21[H]
     RDKit          3D

 63 66  0  0  0  0  0  0  0  0999 V2000
    0.2148   -2.1742   -0.9196 C   0  0  0  0  0  0  0  0  0  0  0  0
    0.7692   -0.7997   -0.6933 C   0  0  2  0  0  0  0  0  0  0  0  0
    0.6891   -0.4120    0.7329 C   0  0  0  0  0  0  0  0  0  0  0  0
   -0.7204   -0.4005    1.2082 C   0  0  0  0  0  0  0  0  0  0  0  0
   -1.7185    0.2164    0.3078 C   0  0  1  0  0  0  0  0  0  0  0  0
   -1.4642   -0.0500   -1.1743 C   0  0  1  0  0  0  0  0  0  0  0  0
   -2.3252    0.9099   -1.9754 C   0  0  0  0  0  0  0  0  0  0  0  0
   -3.7691    0.8081   -1.6472 C   0  0  0  0  0  0  0  0  0  0  0  0
   -4.0831    0.4454   -0.2548 C   0  0  0  0  0  0  0  0  0  0  0  0
   -5.3297    0.6278    0.1604 C   0  0  0  0  0  0  0  0  0  0  0  0
   -5.7657    0.3051    1.5236 C   0  0  0  0  0  0  0  0  0  0  0  0
   -6.9422    0.0221    1.7972 O   0  0  0  0  0  0  0  0  0  0  0  0
   -4.7535    0.3257    2.5813 C   0  0  0  0  0  0  0  0  0  0  0  0
   -3.3565    0.5445    2.0650 C   0  0  0  0  0  0  0  0  0  0  0  0
   -3.1196   -0.1107    0.7256 C   0  0  2  0  0  0  0  0  0  0  0  0
   -3.3771   -1.5978    0.8022 C   0  0  0  0  0  0  0  0  0  0  0  0
   -0.0464    0.2751   -1.4178 C   0  0  2  0  0  0  0  0  0  0  0  0
    0.4636    0.1811   -2.7914 C   0  0  0  0  0  0  0  0  0  0  0  0
    1.9781    0.2566   -2.5271 C   0  0  0  0  0  0  0  0  0  0  0  0
    2.0944   -0.6895   -1.3476 C   0  0  2  0  0  0  0  0  0  0  0  0
    2.4839   -1.9175   -1.9031 O   0  0  0  0  0  0  0  0  0  0  0  0
    3.0915   -0.2107   -0.3816 C   0  0  0  0  0  0  0  0  0  0  0  0
    3.9177    0.1657    0.4226 C   0  0  0  0  0  0  0  0  0  0  0  0
    4.9198    0.5967    1.4007 C   0  0  0  0  0  0  0  0  0  0  0  0
    6.2671    0.8557    0.7294 C   0  0  0  0  0  0  0  0  0  0  0  0
    4.4288    1.8514    2.0393 C   0  0  0  0  0  0  0  0  0  0  0  0
    5.1548   -0.5206    2.3990 C   0  0  0  0  0  0  0  0  0  0  0  0
    1.0786   -2.8952   -0.8206 H   0  0  0  0  0  0  0  0  0  0  0  0
   -0.4943   -2.4947   -0.1241 H   0  0  0  0  0  0  0  0  0  0  0  0
   -0.1756   -2.2823   -1.9350 H   0  0  0  0  0  0  0  0  0  0  0  0
    1.2799   -1.0519    1.4189 H   0  0  0  0  0  0  0  0  0  0  0  0
    1.0759    0.6462    0.8195 H   0  0  0  0  0  0  0  0  0  0  0  0
   -0.7298    0.1885    2.1746 H   0  0  0  0  0  0  0  0  0  0  0  0
   -1.0249   -1.4346    1.5340 H   0  0  0  0  0  0  0  0  0  0  0  0
   -1.6188    1.3377    0.4116 H   0  0  0  0  0  0  0  0  0  0  0  0
   -1.7513   -1.0634   -1.4755 H   0  0  0  0  0  0  0  0  0  0  0  0
   -1.9049    1.9317   -1.7773 H   0  0  0  0  0  0  0  0  0  0  0  0
   -2.1569    0.7041   -3.0550 H   0  0  0  0  0  0  0  0  0  0  0  0
   -4.2594    0.0570   -2.3097 H   0  0  0  0  0  0  0  0  0  0  0  0
   -4.2460    1.7993   -1.9029 H   0  0  0  0  0  0  0  0  0  0  0  0
   -6.0683    1.0386   -0.5491 H   0  0  0  0  0  0  0  0  0  0  0  0
   -4.8331   -0.5794    3.2242 H   0  0  0  0  0  0  0  0  0  0  0  0
   -4.9890    1.1865    3.2569 H   0  0  0  0  0  0  0  0  0  0  0  0
   -2.6653    0.0939    2.8065 H   0  0  0  0  0  0  0  0  0  0  0  0
   -3.1007    1.6101    1.9704 H   0  0  0  0  0  0  0  0  0  0  0  0
   -4.4484   -1.8526    0.6526 H   0  0  0  0  0  0  0  0  0  0  0  0
   -2.8487   -2.0544   -0.0707 H   0  0  0  0  0  0  0  0  0  0  0  0
   -2.9545   -2.0691    1.7069 H   0  0  0  0  0  0  0  0  0  0  0  0
    0.1807    1.2663   -0.9965 H   0  0  0  0  0  0  0  0  0  0  0  0
    0.2016    1.0958   -3.3693 H   0  0  0  0  0  0  0  0  0  0  0  0
    0.2014   -0.7437   -3.3210 H   0  0  0  0  0  0  0  0  0  0  0  0
    2.1887    1.2976   -2.2411 H   0  0  0  0  0  0  0  0  0  0  0  0
    2.5429   -0.0899   -3.4067 H   0  0  0  0  0  0  0  0  0  0  0  0
    3.4766   -1.9144   -1.9953 H   0  0  0  0  0  0  0  0  0  0  0  0
    6.0414    1.2207   -0.2972 H   0  0  0  0  0  0  0  0  0  0  0  0
    6.8326   -0.1088    0.5935 H   0  0  0  0  0  0  0  0  0  0  0  0
    6.8923    1.5348    1.3071 H   0  0  0  0  0  0  0  0  0  0  0  0
    3.8835    2.4473    1.2958 H   0  0  0  0  0  0  0  0  0  0  0  0
    5.3239    2.4515    2.3463 H   0  0  0  0  0  0  0  0  0  0  0  0
    3.8383    1.6526    2.9676 H   0  0  0  0  0  0  0  0  0  0  0  0
    5.9991   -0.3192    3.0574 H   0  0  0  0  0  0  0  0  0  0  0  0
    4.2202   -0.6589    2.9774 H   0  0  0  0  0  0  0  0  0  0  0  0
    5.3106   -1.4516    1.8195 H   0  0  0  0  0  0  0  0  0  0  0  0
  2  1  1  1
  2  3  1  0
  3  4  1  0
  4  5  1  0
  5  6  1  0
  6  7  1  0
  7  8  1  0
  8  9  1  0
  9 10  2  0
 10 11  1  0
 11 12  2  0
 11 13  1  0
 13 14  1  0
 14 15  1  0
 15 16  1  1
  6 17  1  0
 17 18  1  0
 18 19  1  0
 19 20  1  0
 20 21  1  0
 20 22  1  1
 22 23  3  0
 23 24  1  0
 24 25  1  0
 24 26  1  0
 24 27  1  0
 17  2  1  0
 20  2  1  0
 15  5  1  0
 15  9  1  0
  1 28  1  0
  1 29  1  0
  1 30  1  0
  3 31  1  0
  3 32  1  0
  4 33  1  0
  4 34  1  0
  5 35  1  6
  6 36  1  6
  7 37  1  0
  7 38  1  0
  8 39  1  0
  8 40  1  0
 10 41  1  0
 13 42  1  0
 13 43  1  0
 14 44  1  0
 14 45  1  0
 16 46  1  0
 16 47  1  0
 16 48  1  0
 17 49  1  1
 18 50  1  0
 18 51  1  0
 19 52  1  0
 19 53  1  0
 21 54  1  0
 25 55  1  0
 25 56  1  0
 25 57  1  0
 26 58  1  0
 26 59  1  0
 26 60  1  0
 27 61  1  0
 27 62  1  0
 27 63  1  0
M  END
$$$$
[H]c1nc(N([H])c2c([H])c(N([H])C(=O)c3c([H])c([H])c(C([H])([H])N4C([H])([H])C([H])([H])N(C([H])([H])[H])C([H])([H])C4([H])[H])c(C(F)(F)F)c3[H])c([H])c([H])c2C([H])([H])[H])nc(-c2c([H])nc([H])c([H])c2[H])c1[H]
     RDKit          3D

 71 75  0  0  0  0  0  0  0  0999 V2000
   -9.9347    0.2361   -1.3530 C   0  0  0  0  0  0  0  0  0  0  0  0
   -8.7315   -0.2431   -2.0052 N   0  0  0  0  0  0  0  0  0  0  0  0
   -8.3643   -1.4998   -1.3435 C   0  0  0  0  0  0  0  0  0  0  0  0
   -7.7519   -1.1751   -0.0144 C   0  0  0  0  0  0  0  0  0  0  0  0
   -6.3847   -0.6145   -0.1490 N   0  0  0  0  0  0  0  0  0  0  0  0
   -5.4582   -1.7716   -0.2410 C   0  0  0  0  0  0  0  0  0  0  0  0
   -4.0923   -1.3053   -0.0157 C   0  0  0  0  0  0  0  0  0  0  0  0
   -3.8574   -0.0110    0.3758 C   0  0  0  0  0  0  0  0  0  0  0  0
   -2.5723    0.4484    0.6525 C   0  0  0  0  0  0  0  0  0  0  0  0
   -1.4841   -0.3764    0.5464 C   0  0  0  0  0  0  0  0  0  0  0  0
   -1.7408   -1.6721    0.1532 C   0  0  0  0  0  0  0  0  0  0  0  0
   -2.9957   -2.1554   -0.1275 C   0  0  0  0  0  0  0  0  0  0  0  0
   -3.2301   -3.5575   -0.5510 C   0  0  0  0  0  0  0  0  0  0  0  0
   -3.7929   -3.6608   -1.8005 F   0  0  0  0  0  0  0  0  0  0  0  0
   -1.9900   -4.1845   -0.5944 F   0  0  0  0  0  0  0  0  0  0  0  0
   -3.9703   -4.2573    0.3945 F   0  0  0  0  0  0  0  0  0  0  0  0
   -0.1205    0.0746    0.8363 C   0  0  0  0  0  0  0  0  0  0  0  0
    0.7874   -0.7156    0.5100 O   0  0  0  0  0  0  0  0  0  0  0  0
    0.1496    1.3030    1.4367 N   0  0  0  0  0  0  0  0  0  0  0  0
    1.3829    1.8862    1.7753 C   0  0  0  0  0  0  0  0  0  0  0  0
    1.3784    2.9682    2.6655 C   0  0  0  0  0  0  0  0  0  0  0  0
    2.5562    3.5802    3.0131 C   0  0  0  0  0  0  0  0  0  0  0  0
    3.7559    3.1427    2.4950 C   0  0  0  0  0  0  0  0  0  0  0  0
    5.0213    3.8036    2.8736 C   0  0  0  0  0  0  0  0  0  0  0  0
    3.8205    2.0721    1.6058 C   0  0  0  0  0  0  0  0  0  0  0  0
    5.0640    1.6812    1.1133 N   0  0  0  0  0  0  0  0  0  0  0  0
    5.4168    0.6392    0.2403 C   0  0  0  0  0  0  0  0  0  0  0  0
    4.5806   -0.2402   -0.3245 N   0  0  0  0  0  0  0  0  0  0  0  0
    4.9838   -1.2125   -1.1507 C   0  0  0  0  0  0  0  0  0  0  0  0
    6.3432   -1.3501   -1.4657 C   0  0  0  0  0  0  0  0  0  0  0  0
    7.2134   -0.4546   -0.8935 C   0  0  0  0  0  0  0  0  0  0  0  0
    6.7169    0.4847   -0.0790 N   0  0  0  0  0  0  0  0  0  0  0  0
    8.6702   -0.5095   -1.1601 C   0  0  0  0  0  0  0  0  0  0  0  0
    9.1974   -1.4582   -1.9850 C   0  0  0  0  0  0  0  0  0  0  0  0
   10.5790   -1.4717   -2.2091 C   0  0  0  0  0  0  0  0  0  0  0  0
   11.4031   -0.5478   -1.6125 C   0  0  0  0  0  0  0  0  0  0  0  0
   10.8420    0.3687   -0.8075 N   0  0  0  0  0  0  0  0  0  0  0  0
    9.5195    0.4071   -0.5731 C   0  0  0  0  0  0  0  0  0  0  0  0
    2.6286    1.4802    1.2763 C   0  0  0  0  0  0  0  0  0  0  0  0
   -6.3661    0.0487   -1.4754 C   0  0  0  0  0  0  0  0  0  0  0  0
   -7.6847    0.7475   -1.7423 C   0  0  0  0  0  0  0  0  0  0  0  0
  -10.8400    0.0820   -1.9782 H   0  0  0  0  0  0  0  0  0  0  0  0
  -10.1219   -0.3026   -0.4045 H   0  0  0  0  0  0  0  0  0  0  0  0
   -9.8649    1.3283   -1.1812 H   0  0  0  0  0  0  0  0  0  0  0  0
   -7.6639   -2.0729   -1.9562 H   0  0  0  0  0  0  0  0  0  0  0  0
   -9.2658   -2.1094   -1.1456 H   0  0  0  0  0  0  0  0  0  0  0  0
   -7.6343   -2.1192    0.5481 H   0  0  0  0  0  0  0  0  0  0  0  0
   -8.3505   -0.4856    0.5888 H   0  0  0  0  0  0  0  0  0  0  0  0
   -5.7781   -2.5230    0.4961 H   0  0  0  0  0  0  0  0  0  0  0  0
   -5.6613   -2.1828   -1.2517 H   0  0  0  0  0  0  0  0  0  0  0  0
   -4.6678    0.6957    0.5168 H   0  0  0  0  0  0  0  0  0  0  0  0
   -2.4771    1.4610    0.9446 H   0  0  0  0  0  0  0  0  0  0  0  0
   -0.9071   -2.3603    0.0566 H   0  0  0  0  0  0  0  0  0  0  0  0
   -0.7059    1.9212    1.6860 H   0  0  0  0  0  0  0  0  0  0  0  0
    0.4539    3.3373    3.0924 H   0  0  0  0  0  0  0  0  0  0  0  0
    2.5407    4.4303    3.7141 H   0  0  0  0  0  0  0  0  0  0  0  0
    5.7606    3.0867    3.2981 H   0  0  0  0  0  0  0  0  0  0  0  0
    4.8047    4.5194    3.6921 H   0  0  0  0  0  0  0  0  0  0  0  0
    5.4494    4.4108    2.0471 H   0  0  0  0  0  0  0  0  0  0  0  0
    5.9212    2.2641    1.4427 H   0  0  0  0  0  0  0  0  0  0  0  0
    4.2947   -1.9013   -1.5878 H   0  0  0  0  0  0  0  0  0  0  0  0
    6.6728   -2.1241   -2.1247 H   0  0  0  0  0  0  0  0  0  0  0  0
    8.6112   -2.2088   -2.4823 H   0  0  0  0  0  0  0  0  0  0  0  0
   11.0325   -2.2048   -2.8536 H   0  0  0  0  0  0  0  0  0  0  0  0
   12.4912   -0.5498   -1.7822 H   0  0  0  0  0  0  0  0  0  0  0  0
    9.0900    1.1545    0.0789 H   0  0  0  0  0  0  0  0  0  0  0  0
    2.6027    0.6574    0.5857 H   0  0  0  0  0  0  0  0  0  0  0  0
   -6.1870   -0.7063   -2.2777 H   0  0  0  0  0  0  0  0  0  0  0  0
   -5.5974    0.8055   -1.4807 H   0  0  0  0  0  0  0  0  0  0  0  0
   -7.5458    1.3496   -2.6604 H   0  0  0  0  0  0  0  0  0  0  0  0
   -7.9450    1.4195   -0.9167 H   0  0  0  0  0  0  0  0  0  0  0  0
  1  2  1  0
  2  3  1  0
  3  4  1  0
  4  5  1  0
  5  6  1  0
  6  7  1  0
  7  8  2  0
  8  9  1  0
  9 10  2  0
 10 11  1  0
 11 12  2  0
 12 13  1  0
 13 14  1  0
 13 15  1  0
 13 16  1  0
 10 17  1  0
 17 18  2  0
 17 19  1  0
 19 20  1  0
 20 21  2  0
 21 22  1  0
 22 23  2  0
 23 24  1  0
 23 25  1  0
 25 26  1  0
 26 27  1  0
 27 28  2  0
 28 29  1  0
 29 30  2  0
 30 31  1  0
 31 32  2  0
 31 33  1  0
 33 34  2  0
 34 35  1  0
 35 36  2  0
 36 37  1  0
 37 38  2  0
 25 39  2  0
  5 40  1  0
 40 41  1  0
 41  2  1  0
 12  7  1  0
 39 20  1  0
 32 27  1  0
 38 33  1  0
  1 42  1  0
  1 43  1  0
  1 44  1  0
  3 45  1  0
  3 46  1  0
  4 47  1  0
  4 48  1  0
  6 49  1  0
  6 50  1  0
  8 51  1  0
  9 52  1  0
 11 53  1  0
 19 54  1  0
 21 55  1  0
 22 56  1  0
 24 57  1  0
 24 58  1  0
 24 59  1  0
 26 60  1  0
 29 61  1  0
 30 62  1  0
 34 63  1  0
 35 64  1  0
 36 65  1  0
 38 66  1  0
 39 67  1  0
 40 68  1  0
 40 69  1  0
 41 70  1  0
 41 71  1  0
M  END
$$$$
[H]c1nc([H])n(C([H])(C(=O)N2C([H])([H])C([H])([H])C([H])([H])[C@@]2([H])C(=O)N2C([H])([H])C([H])([H])C([H])([H])[C@]2([H])C#N)C([H])([H])c2c([H])c([H])c([H])c([H])c2[H])c1[H]
     RDKit          3D

 54 57  0  0  0  0  0  0  0  0999 V2000
    0.7773    0.4820   -1.1752 O   0  0  0  0  0  0  0  0  0  0  0  0
    0.0935   -0.4515   -0.6698 C   0  0  0  0  0  0  0  0  0  0  0  0
   -1.3023   -0.0822   -0.5392 C   0  0  0  0  0  0  0  0  0  0  0  0
   -1.9789   -0.1125    0.7513 C   0  0  0  0  0  0  0  0  0  0  0  0
   -3.4109    0.2833    0.7037 C   0  0  0  0  0  0  0  0  0  0  0  0
   -4.4043   -0.6477    0.3881 C   0  0  0  0  0  0  0  0  0  0  0  0
   -5.7397   -0.3228    0.3519 C   0  0  0  0  0  0  0  0  0  0  0  0
   -6.1576    0.9569    0.6307 C   0  0  0  0  0  0  0  0  0  0  0  0
   -5.2134    1.9035    0.9462 C   0  0  0  0  0  0  0  0  0  0  0  0
   -3.8647    1.5506    0.9768 C   0  0  0  0  0  0  0  0  0  0  0  0
   -1.5567    1.1912   -1.1732 N   0  0  0  0  0  0  0  0  0  0  0  0
   -2.4299    1.5099   -2.1414 C   0  0  0  0  0  0  0  0  0  0  0  0
   -2.3130    2.8479   -2.4346 C   0  0  0  0  0  0  0  0  0  0  0  0
   -1.3667    3.3605   -1.6479 N   0  0  0  0  0  0  0  0  0  0  0  0
   -0.9132    2.3495   -0.8858 C   0  0  0  0  0  0  0  0  0  0  0  0
    0.7666   -1.6181   -0.3421 N   0  0  0  0  0  0  0  0  0  0  0  0
    0.3756   -2.9067    0.2154 C   0  0  0  0  0  0  0  0  0  0  0  0
    0.8238   -3.8084   -0.8933 C   0  0  0  0  0  0  0  0  0  0  0  0
    2.0643   -3.0816   -1.4297 C   0  0  0  0  0  0  0  0  0  0  0  0
    2.1710   -1.9191   -0.4834 C   0  0  1  0  0  0  0  0  0  0  0  0
    3.1080   -0.8812   -0.7402 C   0  0  0  0  0  0  0  0  0  0  0  0
    3.6693   -0.7592   -1.8767 O   0  0  0  0  0  0  0  0  0  0  0  0
    3.4651    0.0622    0.2572 N   0  0  0  0  0  0  0  0  0  0  0  0
    2.9652    0.1353    1.6419 C   0  0  0  0  0  0  0  0  0  0  0  0
    4.0241    0.7601    2.4736 C   0  0  0  0  0  0  0  0  0  0  0  0
    5.0050    1.3050    1.4913 C   0  0  0  0  0  0  0  0  0  0  0  0
    4.4349    1.1546    0.1026 C   0  0  2  0  0  0  0  0  0  0  0  0
    3.7117    2.3624   -0.2173 C   0  0  0  0  0  0  0  0  0  0  0  0
    3.1393    3.3333   -0.4742 N   0  0  0  0  0  0  0  0  0  0  0  0
   -1.8588   -0.8337   -1.1952 H   0  0  0  0  0  0  0  0  0  0  0  0
   -1.5175    0.6285    1.4811 H   0  0  0  0  0  0  0  0  0  0  0  0
   -1.9448   -1.0481    1.3266 H   0  0  0  0  0  0  0  0  0  0  0  0
   -4.0674   -1.6569    0.1688 H   0  0  0  0  0  0  0  0  0  0  0  0
   -6.4885   -1.0570    0.1063 H   0  0  0  0  0  0  0  0  0  0  0  0
   -7.2067    1.1905    0.5968 H   0  0  0  0  0  0  0  0  0  0  0  0
   -5.5158    2.9083    1.1673 H   0  0  0  0  0  0  0  0  0  0  0  0
   -3.1264    2.3105    1.2420 H   0  0  0  0  0  0  0  0  0  0  0  0
   -3.1023    0.8004   -2.5947 H   0  0  0  0  0  0  0  0  0  0  0  0
   -2.8676    3.4247   -3.1642 H   0  0  0  0  0  0  0  0  0  0  0  0
   -0.1251    2.4653   -0.1264 H   0  0  0  0  0  0  0  0  0  0  0  0
   -0.6355   -2.9981    0.5405 H   0  0  0  0  0  0  0  0  0  0  0  0
    1.0039   -3.1294    1.1111 H   0  0  0  0  0  0  0  0  0  0  0  0
    1.0694   -4.8210   -0.5397 H   0  0  0  0  0  0  0  0  0  0  0  0
    0.0194   -3.8160   -1.6668 H   0  0  0  0  0  0  0  0  0  0  0  0
    1.8807   -2.7542   -2.4804 H   0  0  0  0  0  0  0  0  0  0  0  0
    2.9008   -3.7906   -1.3529 H   0  0  0  0  0  0  0  0  0  0  0  0
    2.5338   -2.4115    0.4983 H   0  0  0  0  0  0  0  0  0  0  0  0
    2.0708    0.8005    1.5787 H   0  0  0  0  0  0  0  0  0  0  0  0
    2.6530   -0.8739    1.9988 H   0  0  0  0  0  0  0  0  0  0  0  0
    3.5437    1.5768    3.0894 H   0  0  0  0  0  0  0  0  0  0  0  0
    4.4703    0.0024    3.1582 H   0  0  0  0  0  0  0  0  0  0  0  0
    5.1373    2.3999    1.7235 H   0  0  0  0  0  0  0  0  0  0  0  0
    5.9893    0.8320    1.6155 H   0  0  0  0  0  0  0  0  0  0  0  0
    5.2403    0.8933   -0.5941 H   0  0  0  0  0  0  0  0  0  0  0  0
  1  2  2  0
  2  3  1  0
  3  4  1  0
  4  5  1  0
  5  6  2  0
  6  7  1  0
  7  8  2  0
  8  9  1  0
  9 10  2  0
  3 11  1  0
 11 12  1  0
 12 13  2  0
 13 14  1  0
 14 15  2  0
  2 16  1  0
 16 17  1  0
 17 18  1  0
 18 19  1  0
 19 20  1  0
 20 21  1  0
 21 22  2  0
 21 23  1  0
 23 24  1  0
 24 25  1  0
 25 26  1  0
 26 27  1  0
 27 28  1  0
 28 29  3  0
 10  5  1  0
 15 11  1  0
 20 16  1  0
 27 23  1  0
  3 30  1  0
  4 31  1  0
  4 32  1  0
  6 33  1  0
  7 34  1  0
  8 35  1  0
  9 36  1  0
 10 37  1  0
 12 38  1  0
 13 39  1  0
 15 40  1  0
 17 41  1  0
 17 42  1  0
 18 43  1  0
 18 44  1  0
 19 45  1  0
 19 46  1  0
 20 47  1  1
 24 48  1  0
 24 49  1  0
 25 50  1  0
 25 51  1  0
 26 52  1  0
 26 53  1  0
 27 54  1  6
M  END
$$$$
[H]C1=C([H])C([H])(F)C([H])([H])C([H])=C1N([H])C(=O)C1(C(=O)N([H])c2c([H])c([H])c(Oc3nc([H])nc4c([H])c(OC([H])([H])C([H])([H])C([H])([H])N5C([H])([H])C([H])([H])OC([H])([H])C5([H])[H])c(OC([H])([H])[H])c([H])c34)c(F)c2[H])C([H])([H])C1([H])[H]
     RDKit          3D

 81 86  0  0  0  0  0  0  0  0999 V2000
   -4.0515   -0.6409   -2.8413 C   0  0  0  0  0  0  0  0  0  0  0  0
   -4.6943   -0.4364   -1.6206 O   0  0  0  0  0  0  0  0  0  0  0  0
   -4.0851   -0.3386   -0.3852 C   0  0  0  0  0  0  0  0  0  0  0  0
   -2.7230   -0.4336   -0.1953 C   0  0  0  0  0  0  0  0  0  0  0  0
   -2.1222   -0.3348    1.0425 C   0  0  0  0  0  0  0  0  0  0  0  0
   -0.7333   -0.4407    1.1922 C   0  0  0  0  0  0  0  0  0  0  0  0
    0.0254   -0.6437    0.0499 O   0  0  0  0  0  0  0  0  0  0  0  0
    1.3837   -0.7741    0.1461 C   0  0  0  0  0  0  0  0  0  0  0  0
    2.2120    0.1326   -0.4491 C   0  0  0  0  0  0  0  0  0  0  0  0
    3.5749    0.0315   -0.3745 C   0  0  0  0  0  0  0  0  0  0  0  0
    4.1428   -1.0238    0.3268 C   0  0  0  0  0  0  0  0  0  0  0  0
    5.5728   -1.0585    0.3886 N   0  0  0  0  0  0  0  0  0  0  0  0
    6.3762   -2.1648    0.5496 C   0  0  0  0  0  0  0  0  0  0  0  0
    5.7925   -3.3040    0.6738 O   0  0  0  0  0  0  0  0  0  0  0  0
    7.8416   -2.2283    0.6087 C   0  0  0  0  0  0  0  0  0  0  0  0
    8.4640   -3.5987    0.3210 C   0  0  0  0  0  0  0  0  0  0  0  0
    8.3635   -3.1383    1.7041 C   0  0  0  0  0  0  0  0  0  0  0  0
    8.7177   -1.1384    0.1785 C   0  0  0  0  0  0  0  0  0  0  0  0
    9.9499   -1.2750    0.5944 O   0  0  0  0  0  0  0  0  0  0  0  0
    8.4252   -0.0207   -0.5938 N   0  0  0  0  0  0  0  0  0  0  0  0
    9.4827    0.9183   -0.8629 C   0  0  0  0  0  0  0  0  0  0  0  0
    9.8306    1.1676   -2.0993 C   0  0  0  0  0  0  0  0  0  0  0  0
   10.8852    2.0959   -2.5321 C   0  0  0  0  0  0  0  0  0  0  0  0
   11.6088    2.7822   -1.4275 C   0  0  0  0  0  0  0  0  0  0  0  0
   12.9572    2.4033   -1.4812 F   0  0  0  0  0  0  0  0  0  0  0  0
   11.1404    2.4330   -0.0737 C   0  0  0  0  0  0  0  0  0  0  0  0
   10.1834    1.5956    0.2160 C   0  0  0  0  0  0  0  0  0  0  0  0
    3.3505   -1.9387    0.9283 C   0  0  0  0  0  0  0  0  0  0  0  0
    1.9521   -1.8070    0.8326 C   0  0  0  0  0  0  0  0  0  0  0  0
    1.1964   -2.7339    1.4232 F   0  0  0  0  0  0  0  0  0  0  0  0
   -0.2512   -0.3356    2.4237 N   0  0  0  0  0  0  0  0  0  0  0  0
   -1.0585   -0.1373    3.4729 C   0  0  0  0  0  0  0  0  0  0  0  0
   -2.3870   -0.0334    3.3510 N   0  0  0  0  0  0  0  0  0  0  0  0
   -2.9383   -0.1316    2.1266 C   0  0  0  0  0  0  0  0  0  0  0  0
   -4.3143   -0.0342    1.9460 C   0  0  0  0  0  0  0  0  0  0  0  0
   -4.8823   -0.1364    0.7061 C   0  0  0  0  0  0  0  0  0  0  0  0
   -6.2649   -0.0266    0.6254 O   0  0  0  0  0  0  0  0  0  0  0  0
   -7.0851    0.1850    1.7437 C   0  0  0  0  0  0  0  0  0  0  0  0
   -8.5235    0.2583    1.3403 C   0  0  0  0  0  0  0  0  0  0  0  0
   -8.7846    1.3714    0.3782 C   0  0  0  0  0  0  0  0  0  0  0  0
  -10.1956    1.3772    0.0375 N   0  0  0  0  0  0  0  0  0  0  0  0
  -10.4072    2.4684   -0.8974 C   0  0  0  0  0  0  0  0  0  0  0  0
  -10.7550    1.9220   -2.2809 C   0  0  0  0  0  0  0  0  0  0  0  0
  -11.9166    1.1934   -2.1529 O   0  0  0  0  0  0  0  0  0  0  0  0
  -11.8477    0.1352   -1.2861 C   0  0  0  0  0  0  0  0  0  0  0  0
  -10.5771    0.0994   -0.4731 C   0  0  0  0  0  0  0  0  0  0  0  0
   -3.9894    0.3533   -3.3610 H   0  0  0  0  0  0  0  0  0  0  0  0
   -4.6892   -1.2908   -3.4967 H   0  0  0  0  0  0  0  0  0  0  0  0
   -3.0403   -1.0428   -2.7867 H   0  0  0  0  0  0  0  0  0  0  0  0
   -2.0731   -0.5936   -1.0463 H   0  0  0  0  0  0  0  0  0  0  0  0
    1.7623    0.9606   -1.0001 H   0  0  0  0  0  0  0  0  0  0  0  0
    4.2028    0.7474   -0.8441 H   0  0  0  0  0  0  0  0  0  0  0  0
    6.0286   -0.0992    0.3550 H   0  0  0  0  0  0  0  0  0  0  0  0
    7.7658   -4.3485   -0.0835 H   0  0  0  0  0  0  0  0  0  0  0  0
    9.4672   -3.6450   -0.1205 H   0  0  0  0  0  0  0  0  0  0  0  0
    7.6217   -3.5931    2.3764 H   0  0  0  0  0  0  0  0  0  0  0  0
    9.2750   -2.7386    2.2140 H   0  0  0  0  0  0  0  0  0  0  0  0
    7.5319    0.1846   -1.0255 H   0  0  0  0  0  0  0  0  0  0  0  0
    9.2922    0.6415   -2.8781 H   0  0  0  0  0  0  0  0  0  0  0  0
   11.5430    1.5868   -3.2595 H   0  0  0  0  0  0  0  0  0  0  0  0
   10.3662    2.9018   -3.1310 H   0  0  0  0  0  0  0  0  0  0  0  0
   11.6146    3.8921   -1.5339 H   0  0  0  0  0  0  0  0  0  0  0  0
   11.6428    2.9216    0.7542 H   0  0  0  0  0  0  0  0  0  0  0  0
    9.8760    1.3734    1.2511 H   0  0  0  0  0  0  0  0  0  0  0  0
    3.7375   -2.7583    1.4923 H   0  0  0  0  0  0  0  0  0  0  0  0
   -0.5867   -0.0628    4.4451 H   0  0  0  0  0  0  0  0  0  0  0  0
   -4.9127    0.1258    2.8326 H   0  0  0  0  0  0  0  0  0  0  0  0
   -6.9529   -0.7179    2.4069 H   0  0  0  0  0  0  0  0  0  0  0  0
   -6.7536    1.0497    2.3482 H   0  0  0  0  0  0  0  0  0  0  0  0
   -9.1760    0.4199    2.2254 H   0  0  0  0  0  0  0  0  0  0  0  0
   -8.7688   -0.7089    0.8283 H   0  0  0  0  0  0  0  0  0  0  0  0
   -8.4760    2.3428    0.8323 H   0  0  0  0  0  0  0  0  0  0  0  0
   -8.1430    1.2238   -0.5113 H   0  0  0  0  0  0  0  0  0  0  0  0
  -11.3073    3.0224   -0.5476 H   0  0  0  0  0  0  0  0  0  0  0  0
   -9.5744    3.1773   -0.9222 H   0  0  0  0  0  0  0  0  0  0  0  0
  -10.9606    2.7986   -2.9184 H   0  0  0  0  0  0  0  0  0  0  0  0
   -9.9475    1.2913   -2.6881 H   0  0  0  0  0  0  0  0  0  0  0  0
  -11.8872   -0.8088   -1.8759 H   0  0  0  0  0  0  0  0  0  0  0  0
  -12.7568    0.0999   -0.6193 H   0  0  0  0  0  0  0  0  0  0  0  0
  -10.7955   -0.5546    0.4221 H   0  0  0  0  0  0  0  0  0  0  0  0
   -9.7677   -0.4138   -1.0192 H   0  0  0  0  0  0  0  0  0  0  0  0
  1  2  1  0
  2  3  1  0
  3  4  2  0
  4  5  1  0
  5  6  2  0
  6  7  1  0
  7  8  1  0
  8  9  2  0
  9 10  1  0
 10 11  2  0
 11 12  1  0
 12 13  1  0
 13 14  2  0
 13 15  1  0
 15 16  1  0
 16 17  1  0
 15 18  1  0
 18 19  2  0
 18 20  1  0
 20 21  1  0
 21 22  2  0
 22 23  1  0
 23 24  1  0
 24 25  1  0
 24 26  1  0
 26 27  2  0
 11 28  1  0
 28 29  2  0
 29 30  1  0
  6 31  1  0
 31 32  2  0
 32 33  1  0
 33 34  2  0
 34 35  1  0
 35 36  2  0
 36 37  1  0
 37 38  1  0
 38 39  1  0
 39 40  1  0
 40 41  1  0
 41 42  1  0
 42 43  1  0
 43 44  1  0
 44 45  1  0
 45 46  1  0
 36  3  1  0
 46 41  1  0
 34  5  1  0
 29  8  1  0
 17 15  1  0
 27 21  1  0
  1 47  1  0
  1 48  1  0
  1 49  1  0
  4 50  1  0
  9 51  1  0
 10 52  1  0
 12 53  1  0
 16 54  1  0
 16 55  1  0
 17 56  1  0
 17 57  1  0
 20 58  1  0
 22 59  1  0
 23 60  1  0
 23 61  1  0
 24 62  1  0
 26 63  1  0
 27 64  1  0
 28 65  1  0
 32 66  1  0
 35 67  1  0
 38 68  1  0
 38 69  1  0
 39 70  1  0
 39 71  1  0
 40 72  1  0
 40 73  1  0
 42 74  1  0
 42 75  1  0
 43 76  1  0
 43 77  1  0
 45 78  1  0
 45 79  1  0
 46 80  1  0
 46 81  1  0
M  END
$$$$
[H]N=C(N([H])[H])N([H])C([H])([H])C([H])([H])C([H])([H])[C@@]([H])(C(=O)N([H])[C@]([H])(C(=O)N([H])[C@]([H])(C(=O)N([H])[C@]([H])(C(=O)N([H])[H])C([H])([H])c1c([H])c([H])c([H])c([H])c1[H])C([H])([H])C(=O)N([H])[H])C([H])([H])C(=O)N([H])[H])N([H])C(=O)[C@@]([H])(N([H])C(=O)[C@@]1([H])N(C(=O)[C@@]([H])(N([H])[H])C([H])([H])C([H])([H])C(=O)O[H])C([H])([H])C([H])([H])C1([H])[H])C([H])([H])C([H])([H])C(=O)N([H])[H]
     RDKit          3D

122123  0  0  0  0  0  0  0  0999 V2000
   -1.8993   -2.7263    4.9396 N   0  0  0  0  0  0  0  0  0  0  0  0
   -0.7600   -3.2918    4.3229 C   0  0  0  0  0  0  0  0  0  0  0  0
   -0.8654   -4.4994    3.8832 N   0  0  0  0  0  0  0  0  0  0  0  0
    0.4512   -2.5780    4.1831 N   0  0  0  0  0  0  0  0  0  0  0  0
    0.7695   -1.9029    2.9099 C   0  0  0  0  0  0  0  0  0  0  0  0
   -0.1830   -0.7817    2.7360 C   0  0  0  0  0  0  0  0  0  0  0  0
   -0.0996    0.0917    1.5689 C   0  0  0  0  0  0  0  0  0  0  0  0
   -0.2625   -0.4223    0.1989 C   0  0  2  0  0  0  0  0  0  0  0  0
   -1.5471   -1.0938   -0.0475 N   0  0  0  0  0  0  0  0  0  0  0  0
   -2.7481   -0.4051   -0.1950 C   0  0  0  0  0  0  0  0  0  0  0  0
   -2.8045    0.8332   -0.0913 O   0  0  0  0  0  0  0  0  0  0  0  0
   -4.0353   -1.1422   -0.4924 C   0  0  2  0  0  0  0  0  0  0  0  0
   -4.0650   -1.3469   -1.9682 C   0  0  0  0  0  0  0  0  0  0  0  0
   -5.1985   -2.0592   -2.5899 C   0  0  0  0  0  0  0  0  0  0  0  0
   -6.5091   -1.4325   -2.5727 C   0  0  0  0  0  0  0  0  0  0  0  0
   -7.6988   -2.2607   -2.5274 N   0  0  0  0  0  0  0  0  0  0  0  0
   -6.6624   -0.2077   -2.6036 O   0  0  0  0  0  0  0  0  0  0  0  0
   -5.1456   -0.2889   -0.0548 N   0  0  0  0  0  0  0  0  0  0  0  0
   -6.0982   -0.7728    0.8288 C   0  0  0  0  0  0  0  0  0  0  0  0
   -5.8358   -2.0507    1.1670 O   0  0  0  0  0  0  0  0  0  0  0  0
   -7.2702   -0.3142    1.4845 C   0  0  2  0  0  0  0  0  0  0  0  0
   -8.4661   -1.2891    1.2561 C   0  0  0  0  0  0  0  0  0  0  0  0
   -9.5459   -0.6102    2.0785 C   0  0  0  0  0  0  0  0  0  0  0  0
   -8.9744    0.7223    2.5096 C   0  0  0  0  0  0  0  0  0  0  0  0
   -7.9341    0.9028    1.3984 N   0  0  0  0  0  0  0  0  0  0  0  0
   -7.9216    2.1145    0.6673 C   0  0  0  0  0  0  0  0  0  0  0  0
   -7.1170    2.3654   -0.2381 O   0  0  0  0  0  0  0  0  0  0  0  0
   -8.9203    3.2034    0.9617 C   0  0  1  0  0  0  0  0  0  0  0  0
   -8.4379    4.4153    0.2812 N   0  0  0  0  0  0  0  0  0  0  0  0
  -10.1828    2.8321    0.1724 C   0  0  0  0  0  0  0  0  0  0  0  0
  -11.2629    3.8472    0.3992 C   0  0  0  0  0  0  0  0  0  0  0  0
  -12.4645    3.4589   -0.3772 C   0  0  0  0  0  0  0  0  0  0  0  0
  -12.4586    2.3088   -1.1612 O   0  0  0  0  0  0  0  0  0  0  0  0
  -13.4812    4.2095   -0.2965 O   0  0  0  0  0  0  0  0  0  0  0  0
    0.8705   -1.0659   -0.4617 C   0  0  0  0  0  0  0  0  0  0  0  0
    0.8576   -2.3196   -0.5323 O   0  0  0  0  0  0  0  0  0  0  0  0
    1.9620   -0.3648   -1.0224 N   0  0  0  0  0  0  0  0  0  0  0  0
    3.0969   -0.9329   -1.6954 C   0  0  1  0  0  0  0  0  0  0  0  0
    3.2257   -0.3582   -3.0775 C   0  0  0  0  0  0  0  0  0  0  0  0
    2.0667   -0.6287   -3.9172 C   0  0  0  0  0  0  0  0  0  0  0  0
    1.9538   -0.0119   -5.2267 N   0  0  0  0  0  0  0  0  0  0  0  0
    1.1350   -1.3782   -3.5730 O   0  0  0  0  0  0  0  0  0  0  0  0
    4.3704   -0.6402   -0.9440 C   0  0  0  0  0  0  0  0  0  0  0  0
    4.3718    0.0234    0.0968 O   0  0  0  0  0  0  0  0  0  0  0  0
    5.5589   -1.1571   -1.4919 N   0  0  0  0  0  0  0  0  0  0  0  0
    6.8689   -0.9199   -0.8589 C   0  0  1  0  0  0  0  0  0  0  0  0
    7.6256   -2.2115   -0.6929 C   0  0  0  0  0  0  0  0  0  0  0  0
    6.8880   -3.1694    0.1390 C   0  0  0  0  0  0  0  0  0  0  0  0
    7.4785   -4.4386    0.3903 N   0  0  0  0  0  0  0  0  0  0  0  0
    5.7702   -2.9547    0.6488 O   0  0  0  0  0  0  0  0  0  0  0  0
    7.6579    0.0053   -1.7218 C   0  0  0  0  0  0  0  0  0  0  0  0
    7.1904    0.3925   -2.8006 O   0  0  0  0  0  0  0  0  0  0  0  0
    8.9381    0.4360   -1.3007 N   0  0  0  0  0  0  0  0  0  0  0  0
    9.7272    1.3347   -2.1498 C   0  0  1  0  0  0  0  0  0  0  0  0
    9.8458    2.6940   -1.5518 C   0  0  0  0  0  0  0  0  0  0  0  0
   10.4862    2.7804   -0.2440 C   0  0  0  0  0  0  0  0  0  0  0  0
   11.8266    3.0172   -0.1315 C   0  0  0  0  0  0  0  0  0  0  0  0
   12.4195    3.1016    1.1024 C   0  0  0  0  0  0  0  0  0  0  0  0
   11.6351    2.9414    2.2308 C   0  0  0  0  0  0  0  0  0  0  0  0
   10.2725    2.6994    2.1671 C   0  0  0  0  0  0  0  0  0  0  0  0
    9.7371    2.6262    0.8999 C   0  0  0  0  0  0  0  0  0  0  0  0
   10.9967    0.6626   -2.4638 C   0  0  0  0  0  0  0  0  0  0  0  0
   12.0097    1.2223   -3.2745 N   0  0  0  0  0  0  0  0  0  0  0  0
   11.2098   -0.4925   -1.9849 O   0  0  0  0  0  0  0  0  0  0  0  0
   -2.7760   -2.6501    4.4113 H   0  0  0  0  0  0  0  0  0  0  0  0
   -1.8410   -2.3956    5.9116 H   0  0  0  0  0  0  0  0  0  0  0  0
   -1.7401   -5.0623    3.9640 H   0  0  0  0  0  0  0  0  0  0  0  0
    1.1211   -2.5111    4.9454 H   0  0  0  0  0  0  0  0  0  0  0  0
    0.6618   -2.7355    2.1691 H   0  0  0  0  0  0  0  0  0  0  0  0
    1.8389   -1.6245    2.8939 H   0  0  0  0  0  0  0  0  0  0  0  0
   -1.2115   -1.2155    2.9096 H   0  0  0  0  0  0  0  0  0  0  0  0
   -0.0567   -0.1179    3.6526 H   0  0  0  0  0  0  0  0  0  0  0  0
    0.8391    0.7158    1.6785 H   0  0  0  0  0  0  0  0  0  0  0  0
   -0.9076    0.8938    1.7064 H   0  0  0  0  0  0  0  0  0  0  0  0
   -0.4377    0.5590   -0.4215 H   0  0  0  0  0  0  0  0  0  0  0  0
   -1.4800   -2.1513   -0.1038 H   0  0  0  0  0  0  0  0  0  0  0  0
   -4.0672   -2.0890    0.0712 H   0  0  0  0  0  0  0  0  0  0  0  0
   -3.0783   -1.7958   -2.3323 H   0  0  0  0  0  0  0  0  0  0  0  0
   -4.0152   -0.3210   -2.4956 H   0  0  0  0  0  0  0  0  0  0  0  0
   -5.2515   -3.1430   -2.2522 H   0  0  0  0  0  0  0  0  0  0  0  0
   -4.9304   -2.1753   -3.6957 H   0  0  0  0  0  0  0  0  0  0  0  0
   -8.5659   -1.9172   -2.9589 H   0  0  0  0  0  0  0  0  0  0  0  0
   -7.6792   -3.1802   -2.0708 H   0  0  0  0  0  0  0  0  0  0  0  0
   -5.1243    0.6502   -0.4336 H   0  0  0  0  0  0  0  0  0  0  0  0
   -7.0988   -0.4776    2.6316 H   0  0  0  0  0  0  0  0  0  0  0  0
   -8.7078   -1.3820    0.2016 H   0  0  0  0  0  0  0  0  0  0  0  0
   -8.2201   -2.2506    1.7381 H   0  0  0  0  0  0  0  0  0  0  0  0
   -9.8051   -1.1534    3.0022 H   0  0  0  0  0  0  0  0  0  0  0  0
  -10.4581   -0.4216    1.4677 H   0  0  0  0  0  0  0  0  0  0  0  0
   -8.3618    0.6188    3.4107 H   0  0  0  0  0  0  0  0  0  0  0  0
   -9.6832    1.5303    2.5083 H   0  0  0  0  0  0  0  0  0  0  0  0
   -9.0946    3.3717    2.0152 H   0  0  0  0  0  0  0  0  0  0  0  0
   -8.0022    4.1203   -0.6140 H   0  0  0  0  0  0  0  0  0  0  0  0
   -7.6764    4.7774    0.8959 H   0  0  0  0  0  0  0  0  0  0  0  0
   -9.9361    2.8941   -0.9349 H   0  0  0  0  0  0  0  0  0  0  0  0
  -10.4846    1.7833    0.3082 H   0  0  0  0  0  0  0  0  0  0  0  0
  -11.5515    3.8560    1.4790 H   0  0  0  0  0  0  0  0  0  0  0  0
  -10.9086    4.8350    0.1102 H   0  0  0  0  0  0  0  0  0  0  0  0
  -13.2532    1.6761   -1.1610 H   0  0  0  0  0  0  0  0  0  0  0  0
    1.9818    0.7017   -0.9541 H   0  0  0  0  0  0  0  0  0  0  0  0
    3.0236   -2.0420   -1.7510 H   0  0  0  0  0  0  0  0  0  0  0  0
    3.4594    0.7484   -3.0272 H   0  0  0  0  0  0  0  0  0  0  0  0
    4.1728   -0.8046   -3.5085 H   0  0  0  0  0  0  0  0  0  0  0  0
    1.8456    1.0095   -5.3287 H   0  0  0  0  0  0  0  0  0  0  0  0
    1.9801   -0.6134   -6.0647 H   0  0  0  0  0  0  0  0  0  0  0  0
    5.5945   -1.7322   -2.3652 H   0  0  0  0  0  0  0  0  0  0  0  0
    6.6784   -0.3985    0.0864 H   0  0  0  0  0  0  0  0  0  0  0  0
    7.8184   -2.7035   -1.6669 H   0  0  0  0  0  0  0  0  0  0  0  0
    8.6354   -1.9667   -0.2878 H   0  0  0  0  0  0  0  0  0  0  0  0
    7.5992   -4.7892    1.3653 H   0  0  0  0  0  0  0  0  0  0  0  0
    7.8201   -5.0855   -0.3580 H   0  0  0  0  0  0  0  0  0  0  0  0
    9.3002    0.1063   -0.3894 H   0  0  0  0  0  0  0  0  0  0  0  0
    9.1622    1.4831   -3.1239 H   0  0  0  0  0  0  0  0  0  0  0  0
    8.8110    3.1347   -1.5492 H   0  0  0  0  0  0  0  0  0  0  0  0
   10.4285    3.3802   -2.2373 H   0  0  0  0  0  0  0  0  0  0  0  0
   12.4781    3.1524   -0.9925 H   0  0  0  0  0  0  0  0  0  0  0  0
   13.4964    3.2924    1.2162 H   0  0  0  0  0  0  0  0  0  0  0  0
   12.1165    3.0121    3.2110 H   0  0  0  0  0  0  0  0  0  0  0  0
    9.6881    2.5810    3.0830 H   0  0  0  0  0  0  0  0  0  0  0  0
    8.6566    2.4347    0.8703 H   0  0  0  0  0  0  0  0  0  0  0  0
   11.9671    2.2176   -3.5674 H   0  0  0  0  0  0  0  0  0  0  0  0
   12.8114    0.6482   -3.5901 H   0  0  0  0  0  0  0  0  0  0  0  0
  1  2  1  0
  2  3  2  3
  2  4  1  0
  4  5  1  0
  5  6  1  0
  6  7  1  0
  7  8  1  0
  8  9  1  0
  9 10  1  0
 10 11  2  0
 10 12  1  0
 12 13  1  0
 13 14  1  0
 14 15  1  0
 15 16  1  0
 15 17  2  0
 12 18  1  0
 18 19  1  0
 19 20  2  0
 19 21  1  0
 21 22  1  0
 22 23  1  0
 23 24  1  0
 24 25  1  0
 25 26  1  0
 26 27  2  0
 26 28  1  0
 28 29  1  0
 28 30  1  0
 30 31  1  0
 31 32  1  0
 32 33  1  0
 32 34  2  0
  8 35  1  0
 35 36  2  0
 35 37  1  0
 37 38  1  0
 38 39  1  0
 39 40  1  0
 40 41  1  0
 40 42  2  0
 38 43  1  0
 43 44  2  0
 43 45  1  0
 45 46  1  0
 46 47  1  0
 47 48  1  0
 48 49  1  0
 48 50  2  0
 46 51  1  0
 51 52  2  0
 51 53  1  0
 53 54  1  0
 54 55  1  0
 55 56  1  0
 56 57  2  0
 57 58  1  0
 58 59  2  0
 59 60  1  0
 60 61  2  0
 54 62  1  0
 62 63  1  0
 62 64  2  0
 25 21  1  0
 61 56  1  0
  1 65  1  0
  1 66  1  0
  3 67  1  0
  4 68  1  0
  5 69  1  0
  5 70  1  0
  6 71  1  0
  6 72  1  0
  7 73  1  0
  7 74  1  0
  8 75  1  6
  9 76  1  0
 12 77  1  1
 13 78  1  0
 13 79  1  0
 14 80  1  0
 14 81  1  0
 16 82  1  0
 16 83  1  0
 18 84  1  0
 21 85  1  1
 22 86  1  0
 22 87  1  0
 23 88  1  0
 23 89  1  0
 24 90  1  0
 24 91  1  0
 28 92  1  1
 29 93  1  0
 29 94  1  0
 30 95  1  0
 30 96  1  0
 31 97  1  0
 31 98  1  0
 33 99  1  0
 37100  1  0
 38101  1  6
 39102  1  0
 39103  1  0
 41104  1  0
 41105  1  0
 45106  1  0
 46107  1  1
 47108  1  0
 47109  1  0
 49110  1  0
 49111  1  0
 53112  1  0
 54113  1  6
 55114  1  0
 55115  1  0
 57116  1  0
 58117  1  0
 59118  1  0
 60119  1  0
 61120  1  0
 63121  1  0
 63122  1  0
M  END
$$$$
[H]Oc1c([H])c([H])c(C([H])([H])[C@@]2([H])C(=O)N([H])[C@@]([H])(C([H])([H])c3c([H])c([H])c(O[H])c([H])c3[H])C(=O)N([H])[C@@]([H])(C([H])(C([H])([H])[H])C([H])([H])[H])C(=O)N([H])[C@@]([H])(C([H])([H])C([H])([H])C([H])([H])C([H])([H])N([H])[H])C(=O)N([H])[C@@]([H])(C([H])([H])[H])C(=O)N2[H])c([H])c1[H]
     RDKit          3D

 89 91  0  0  0  0  0  0  0  0999 V2000
    0.3620   -3.1950    1.7711 C   0  0  0  0  0  0  0  0  0  0  0  0
    0.8266   -3.6834    0.4517 C   0  0  2  0  0  0  0  0  0  0  0  0
    2.2887   -3.7715    0.4292 N   0  0  0  0  0  0  0  0  0  0  0  0
    3.1888   -2.7712    0.7912 C   0  0  0  0  0  0  0  0  0  0  0  0
    4.1699   -3.0510    1.5259 O   0  0  0  0  0  0  0  0  0  0  0  0
    3.1347   -1.3085    0.3886 C   0  0  2  0  0  0  0  0  0  0  0  0
    4.4416   -1.1291   -0.3590 C   0  0  0  0  0  0  0  0  0  0  0  0
    4.7079    0.2120   -0.9105 C   0  0  0  0  0  0  0  0  0  0  0  0
    6.0275    0.2942   -1.6560 C   0  0  0  0  0  0  0  0  0  0  0  0
    7.1921   -0.0304   -0.7761 C   0  0  0  0  0  0  0  0  0  0  0  0
    8.4381    0.0611   -1.5085 N   0  0  0  0  0  0  0  0  0  0  0  0
    3.0028   -0.5053    1.5745 N   0  0  0  0  0  0  0  0  0  0  0  0
    2.8999    0.8317    1.8284 C   0  0  0  0  0  0  0  0  0  0  0  0
    3.8785    1.3192    2.5598 O   0  0  0  0  0  0  0  0  0  0  0  0
    1.9171    1.8930    1.4695 C   0  0  1  0  0  0  0  0  0  0  0  0
    1.1626    1.5924    0.3078 N   0  0  0  0  0  0  0  0  0  0  0  0
   -0.0784    1.7832   -0.2547 C   0  0  0  0  0  0  0  0  0  0  0  0
   -0.1410    2.6787   -1.2156 O   0  0  0  0  0  0  0  0  0  0  0  0
   -1.4146    1.2085   -0.0497 C   0  0  2  0  0  0  0  0  0  0  0  0
   -2.5628    2.1571    0.1555 C   0  0  0  0  0  0  0  0  0  0  0  0
   -2.8440    3.0969   -0.9094 C   0  0  0  0  0  0  0  0  0  0  0  0
   -3.5951    2.7379   -2.0346 C   0  0  0  0  0  0  0  0  0  0  0  0
   -3.9051    3.6325   -3.0320 C   0  0  0  0  0  0  0  0  0  0  0  0
   -3.4820    4.9341   -2.9609 C   0  0  0  0  0  0  0  0  0  0  0  0
   -3.7876    5.8655   -3.9709 O   0  0  0  0  0  0  0  0  0  0  0  0
   -2.7401    5.3158   -1.8631 C   0  0  0  0  0  0  0  0  0  0  0  0
   -2.4361    4.4134   -0.8708 C   0  0  0  0  0  0  0  0  0  0  0  0
   -1.4884    0.1565    0.9213 N   0  0  0  0  0  0  0  0  0  0  0  0
   -2.1395   -1.1069    0.7473 C   0  0  0  0  0  0  0  0  0  0  0  0
   -2.8651   -1.5651    1.6713 O   0  0  0  0  0  0  0  0  0  0  0  0
   -1.9777   -1.8828   -0.4931 C   0  0  2  0  0  0  0  0  0  0  0  0
   -2.7059   -3.1483   -0.6439 C   0  0  0  0  0  0  0  0  0  0  0  0
   -4.1541   -3.1596   -0.6103 C   0  0  0  0  0  0  0  0  0  0  0  0
   -4.8332   -3.5491    0.5171 C   0  0  0  0  0  0  0  0  0  0  0  0
   -6.2321   -3.5461    0.5736 C   0  0  0  0  0  0  0  0  0  0  0  0
   -6.9886   -3.1518   -0.5015 C   0  0  0  0  0  0  0  0  0  0  0  0
   -8.3738   -3.1193   -0.5286 O   0  0  0  0  0  0  0  0  0  0  0  0
   -6.3263   -2.7584   -1.6418 C   0  0  0  0  0  0  0  0  0  0  0  0
   -4.9545   -2.7678   -1.6780 C   0  0  0  0  0  0  0  0  0  0  0  0
   -0.5809   -1.9676   -0.9187 N   0  0  0  0  0  0  0  0  0  0  0  0
    0.3373   -2.9769   -0.7429 C   0  0  0  0  0  0  0  0  0  0  0  0
    0.9130   -3.4262   -1.8141 O   0  0  0  0  0  0  0  0  0  0  0  0
    1.1804    2.3545    2.7012 C   0  0  0  0  0  0  0  0  0  0  0  0
    0.2007    3.4493    2.4213 C   0  0  0  0  0  0  0  0  0  0  0  0
    2.1388    2.8513    3.7694 C   0  0  0  0  0  0  0  0  0  0  0  0
   -0.6550   -3.5505    2.0571 H   0  0  0  0  0  0  0  0  0  0  0  0
    1.0265   -3.7125    2.5313 H   0  0  0  0  0  0  0  0  0  0  0  0
    0.5302   -2.1396    1.9295 H   0  0  0  0  0  0  0  0  0  0  0  0
    0.3865   -4.7292    0.3525 H   0  0  0  0  0  0  0  0  0  0  0  0
    2.6685   -4.7198    0.0952 H   0  0  0  0  0  0  0  0  0  0  0  0
    2.3288   -1.2432   -0.3327 H   0  0  0  0  0  0  0  0  0  0  0  0
    5.2451   -1.4287    0.3788 H   0  0  0  0  0  0  0  0  0  0  0  0
    4.5469   -1.8749   -1.1737 H   0  0  0  0  0  0  0  0  0  0  0  0
    4.7721    0.9807   -0.1194 H   0  0  0  0  0  0  0  0  0  0  0  0
    3.8658    0.5602   -1.5786 H   0  0  0  0  0  0  0  0  0  0  0  0
    6.1746    1.2609   -2.1385 H   0  0  0  0  0  0  0  0  0  0  0  0
    5.9714   -0.4896   -2.4538 H   0  0  0  0  0  0  0  0  0  0  0  0
    7.2685    0.6522    0.1040 H   0  0  0  0  0  0  0  0  0  0  0  0
    7.1246   -1.0711   -0.3627 H   0  0  0  0  0  0  0  0  0  0  0  0
    8.7684   -0.8536   -1.8566 H   0  0  0  0  0  0  0  0  0  0  0  0
    8.3543    0.7108   -2.3366 H   0  0  0  0  0  0  0  0  0  0  0  0
    2.9852   -1.1270    2.4862 H   0  0  0  0  0  0  0  0  0  0  0  0
    2.5926    2.8114    1.2545 H   0  0  0  0  0  0  0  0  0  0  0  0
    1.8195    1.0381   -0.3765 H   0  0  0  0  0  0  0  0  0  0  0  0
   -1.7375    0.6613   -1.0283 H   0  0  0  0  0  0  0  0  0  0  0  0
   -2.5545    2.6406    1.1747 H   0  0  0  0  0  0  0  0  0  0  0  0
   -3.4776    1.4702    0.2104 H   0  0  0  0  0  0  0  0  0  0  0  0
   -3.9500    1.7252   -2.1310 H   0  0  0  0  0  0  0  0  0  0  0  0
   -4.4879    3.3563   -3.9083 H   0  0  0  0  0  0  0  0  0  0  0  0
   -4.6181    6.4383   -3.9493 H   0  0  0  0  0  0  0  0  0  0  0  0
   -2.4220    6.3606   -1.8404 H   0  0  0  0  0  0  0  0  0  0  0  0
   -1.8547    4.7452   -0.0216 H   0  0  0  0  0  0  0  0  0  0  0  0
   -1.0354    0.3320    1.8372 H   0  0  0  0  0  0  0  0  0  0  0  0
   -2.4606   -1.1958   -1.2911 H   0  0  0  0  0  0  0  0  0  0  0  0
   -2.3467   -3.9234    0.1038 H   0  0  0  0  0  0  0  0  0  0  0  0
   -2.3914   -3.6133   -1.6285 H   0  0  0  0  0  0  0  0  0  0  0  0
   -4.3674   -3.8989    1.4274 H   0  0  0  0  0  0  0  0  0  0  0  0
   -6.7622   -3.8569    1.4666 H   0  0  0  0  0  0  0  0  0  0  0  0
   -8.8900   -3.3986    0.2770 H   0  0  0  0  0  0  0  0  0  0  0  0
   -6.8990   -2.4442   -2.4992 H   0  0  0  0  0  0  0  0  0  0  0  0
   -4.4702   -2.4556   -2.5802 H   0  0  0  0  0  0  0  0  0  0  0  0
   -0.2323   -1.1027   -1.4515 H   0  0  0  0  0  0  0  0  0  0  0  0
    0.6323    1.5285    3.2015 H   0  0  0  0  0  0  0  0  0  0  0  0
    0.2521    3.8627    1.3922 H   0  0  0  0  0  0  0  0  0  0  0  0
   -0.8323    3.1078    2.7114 H   0  0  0  0  0  0  0  0  0  0  0  0
    0.4052    4.2916    3.1535 H   0  0  0  0  0  0  0  0  0  0  0  0
    2.4861    2.0327    4.4377 H   0  0  0  0  0  0  0  0  0  0  0  0
    1.5040    3.4979    4.4498 H   0  0  0  0  0  0  0  0  0  0  0  0
    2.9334    3.4963    3.3953 H   0  0  0  0  0  0  0  0  0  0  0  0
  1  2  1  0
  2  3  1  0
  3  4  1  0
  4  5  2  0
  4  6  1  0
  6  7  1  0
  7  8  1  0
  8  9  1  0
  9 10  1  0
 10 11  1  0
  6 12  1  0
 12 13  1  0
 13 14  2  0
 13 15  1  0
 15 16  1  0
 16 17  1  0
 17 18  2  0
 17 19  1  0
 19 20  1  0
 20 21  1  0
 21 22  2  0
 22 23  1  0
 23 24  2  0
 24 25  1  0
 24 26  1  0
 26 27  2  0
 19 28  1  0
 28 29  1  0
 29 30  2  0
 29 31  1  0
 31 32  1  0
 32 33  1  0
 33 34  2  0
 34 35  1  0
 35 36  2  0
 36 37  1  0
 36 38  1  0
 38 39  2  0
 31 40  1  0
 40 41  1  0
 41 42  2  0
 15 43  1  0
 43 44  1  0
 43 45  1  0
 41  2  1  0
 27 21  1  0
 39 33  1  0
  1 46  1  0
  1 47  1  0
  1 48  1  0
  2 49  1  6
  3 50  1  0
  6 51  1  6
  7 52  1  0
  7 53  1  0
  8 54  1  0
  8 55  1  0
  9 56  1  0
  9 57  1  0
 10 58  1  0
 10 59  1  0
 11 60  1  0
 11 61  1  0
 12 62  1  0
 15 63  1  6
 16 64  1  0
 19 65  1  6
 20 66  1  0
 20 67  1  0
 22 68  1  0
 23 69  1  0
 25 70  1  0
 26 71  1  0
 27 72  1  0
 28 73  1  0
 31 74  1  6
 32 75  1  0
 32 76  1  0
 34 77  1  0
 35 78  1  0
 37 79  1  0
 38 80  1  0
 39 81  1  0
 40 82  1  0
 43 83  1  0
 44 84  1  0
 44 85  1  0
 44 86  1  0
 45 87  1  0
 45 88  1  0
 45 89  1  0
M  END
$$$$
[H]c1c([H])c([H])c(C([H])([H])[C@@]2([H])C(=O)N([H])[C@@]([H])(C([H])([H])C([H])([H])C([H])([H])N=C(N([H])[H])N([H])[H])C(=O)N([H])[C@@]([H])(C([H])([H])c3nc([H])n([H])c3[H])C(=O)N([H])[C@@]([H])(C([H])([H])c3c([H])c([H])c([H])c([H])c3[H])C(=O)N3C([H])([H])C([H])([H])C([H])([H])[C@@]3([H])C(=O)N2[H])c([H])c1[H]
     RDKit          3D

 94 98  0  0  0  0  0  0  0  0999 V2000
    7.0090    1.0311    1.8754 N   0  0  0  0  0  0  0  0  0  0  0  0
    5.7597    0.3802    1.9267 C   0  0  0  0  0  0  0  0  0  0  0  0
    5.6942   -0.9924    1.6281 N   0  0  0  0  0  0  0  0  0  0  0  0
    4.6864    1.0134    2.2396 N   0  0  0  0  0  0  0  0  0  0  0  0
    3.4116    0.3225    2.2860 C   0  0  0  0  0  0  0  0  0  0  0  0
    2.3084    1.3099    2.3224 C   0  0  0  0  0  0  0  0  0  0  0  0
    2.1898    2.2362    1.1576 C   0  0  0  0  0  0  0  0  0  0  0  0
    1.8901    1.6528   -0.1664 C   0  0  2  0  0  0  0  0  0  0  0  0
    2.8194    0.7100   -0.7207 N   0  0  0  0  0  0  0  0  0  0  0  0
    2.5093   -0.4769   -1.4243 C   0  0  0  0  0  0  0  0  0  0  0  0
    3.0020   -0.6479   -2.5821 O   0  0  0  0  0  0  0  0  0  0  0  0
    1.6218   -1.5629   -0.8762 C   0  0  2  0  0  0  0  0  0  0  0  0
    2.5852   -2.7321   -0.6288 C   0  0  0  0  0  0  0  0  0  0  0  0
    1.9612   -3.9233   -0.0867 C   0  0  0  0  0  0  0  0  0  0  0  0
    1.4838   -4.9053   -0.9198 C   0  0  0  0  0  0  0  0  0  0  0  0
    0.8905   -6.0384   -0.4250 C   0  0  0  0  0  0  0  0  0  0  0  0
    0.7810   -6.1751    0.9417 C   0  0  0  0  0  0  0  0  0  0  0  0
    1.2417   -5.2239    1.8104 C   0  0  0  0  0  0  0  0  0  0  0  0
    1.8318   -4.0993    1.2705 C   0  0  0  0  0  0  0  0  0  0  0  0
    0.7264   -1.9581   -1.9354 N   0  0  0  0  0  0  0  0  0  0  0  0
   -0.6302   -2.3134   -1.8297 C   0  0  0  0  0  0  0  0  0  0  0  0
   -1.1013   -3.1064   -2.7209 O   0  0  0  0  0  0  0  0  0  0  0  0
   -1.5733   -1.8519   -0.7754 C   0  0  2  0  0  0  0  0  0  0  0  0
   -1.9685   -3.0169    0.1547 C   0  0  0  0  0  0  0  0  0  0  0  0
   -2.9896   -3.7249   -0.7191 C   0  0  0  0  0  0  0  0  0  0  0  0
   -3.5617   -2.6750   -1.6283 C   0  0  0  0  0  0  0  0  0  0  0  0
   -2.8654   -1.4739   -1.2545 N   0  0  0  0  0  0  0  0  0  0  0  0
   -3.3141   -0.1338   -1.3184 C   0  0  0  0  0  0  0  0  0  0  0  0
   -4.3267    0.1789   -2.0516 O   0  0  0  0  0  0  0  0  0  0  0  0
   -2.7194    1.0148   -0.5980 C   0  0  2  0  0  0  0  0  0  0  0  0
   -3.6874    1.4181    0.5185 C   0  0  0  0  0  0  0  0  0  0  0  0
   -3.9318    0.3334    1.4865 C   0  0  0  0  0  0  0  0  0  0  0  0
   -3.1580    0.1381    2.6111 C   0  0  0  0  0  0  0  0  0  0  0  0
   -3.4212   -0.8944    3.5050 C   0  0  0  0  0  0  0  0  0  0  0  0
   -4.4549   -1.7506    3.2999 C   0  0  0  0  0  0  0  0  0  0  0  0
   -5.2403   -1.5738    2.1834 C   0  0  0  0  0  0  0  0  0  0  0  0
   -4.9741   -0.5474    1.3001 C   0  0  0  0  0  0  0  0  0  0  0  0
   -2.7639    2.1486   -1.5364 N   0  0  0  0  0  0  0  0  0  0  0  0
   -1.6248    2.9122   -1.8918 C   0  0  0  0  0  0  0  0  0  0  0  0
   -1.5130    3.3039   -3.0797 O   0  0  0  0  0  0  0  0  0  0  0  0
   -0.5396    3.2885   -0.9530 C   0  0  2  0  0  0  0  0  0  0  0  0
   -0.7514    4.7176   -0.4642 C   0  0  0  0  0  0  0  0  0  0  0  0
   -0.7572    5.7107   -1.5389 C   0  0  0  0  0  0  0  0  0  0  0  0
    0.3389    6.3966   -2.0446 C   0  0  0  0  0  0  0  0  0  0  0  0
   -0.0563    7.2354   -3.0292 N   0  0  0  0  0  0  0  0  0  0  0  0
   -1.3779    7.0919   -3.1541 C   0  0  0  0  0  0  0  0  0  0  0  0
   -1.8086    6.1802   -2.2654 N   0  0  0  0  0  0  0  0  0  0  0  0
    0.6992    3.2860   -1.7066 N   0  0  0  0  0  0  0  0  0  0  0  0
    1.8811    2.7941   -1.1534 C   0  0  0  0  0  0  0  0  0  0  0  0
    2.9793    3.2912   -1.4640 O   0  0  0  0  0  0  0  0  0  0  0  0
    7.5068    1.1206    0.9765 H   0  0  0  0  0  0  0  0  0  0  0  0
    7.4250    1.4180    2.7363 H   0  0  0  0  0  0  0  0  0  0  0  0
    5.5121   -1.2946    0.6547 H   0  0  0  0  0  0  0  0  0  0  0  0
    5.8253   -1.6947    2.3659 H   0  0  0  0  0  0  0  0  0  0  0  0
    3.4148   -0.2094    3.2882 H   0  0  0  0  0  0  0  0  0  0  0  0
    3.3087   -0.4837    1.5469 H   0  0  0  0  0  0  0  0  0  0  0  0
    2.3498    1.8810    3.2984 H   0  0  0  0  0  0  0  0  0  0  0  0
    1.3410    0.7214    2.4455 H   0  0  0  0  0  0  0  0  0  0  0  0
    3.1035    2.9176    1.0964 H   0  0  0  0  0  0  0  0  0  0  0  0
    1.3691    2.9981    1.3626 H   0  0  0  0  0  0  0  0  0  0  0  0
    0.8830    1.1562   -0.1719 H   0  0  0  0  0  0  0  0  0  0  0  0
    3.8503    0.9488   -0.6003 H   0  0  0  0  0  0  0  0  0  0  0  0
    1.1308   -1.2591    0.0457 H   0  0  0  0  0  0  0  0  0  0  0  0
    3.1385   -2.9265   -1.5971 H   0  0  0  0  0  0  0  0  0  0  0  0
    3.3734   -2.3360    0.0450 H   0  0  0  0  0  0  0  0  0  0  0  0
    1.5596   -4.8191   -2.0091 H   0  0  0  0  0  0  0  0  0  0  0  0
    0.5193   -6.8022   -1.1038 H   0  0  0  0  0  0  0  0  0  0  0  0
    0.3091   -7.0738    1.3419 H   0  0  0  0  0  0  0  0  0  0  0  0
    1.1473   -5.3473    2.8902 H   0  0  0  0  0  0  0  0  0  0  0  0
    2.1907   -3.3550    1.9935 H   0  0  0  0  0  0  0  0  0  0  0  0
    1.1452   -1.9824   -2.9100 H   0  0  0  0  0  0  0  0  0  0  0  0
   -1.0998   -1.0583   -0.1453 H   0  0  0  0  0  0  0  0  0  0  0  0
   -1.1384   -3.7065    0.3141 H   0  0  0  0  0  0  0  0  0  0  0  0
   -2.4080   -2.6020    1.0617 H   0  0  0  0  0  0  0  0  0  0  0  0
   -3.7995   -4.1280   -0.0533 H   0  0  0  0  0  0  0  0  0  0  0  0
   -2.5454   -4.5303   -1.3309 H   0  0  0  0  0  0  0  0  0  0  0  0
   -4.6644   -2.5878   -1.4374 H   0  0  0  0  0  0  0  0  0  0  0  0
   -3.5026   -2.9248   -2.7095 H   0  0  0  0  0  0  0  0  0  0  0  0
   -1.7091    0.8552   -0.2166 H   0  0  0  0  0  0  0  0  0  0  0  0
   -4.6383    1.7970    0.0860 H   0  0  0  0  0  0  0  0  0  0  0  0
   -3.2657    2.3050    1.0776 H   0  0  0  0  0  0  0  0  0  0  0  0
   -2.3291    0.8007    2.8035 H   0  0  0  0  0  0  0  0  0  0  0  0
   -2.7954   -1.0158    4.3725 H   0  0  0  0  0  0  0  0  0  0  0  0
   -4.6564   -2.5631    4.0101 H   0  0  0  0  0  0  0  0  0  0  0  0
   -6.0575   -2.2541    2.0248 H   0  0  0  0  0  0  0  0  0  0  0  0
   -5.6483   -0.4752    0.4361 H   0  0  0  0  0  0  0  0  0  0  0  0
   -3.7079    2.3514   -1.9272 H   0  0  0  0  0  0  0  0  0  0  0  0
   -0.5090    2.6259   -0.0650 H   0  0  0  0  0  0  0  0  0  0  0  0
    0.0475    4.9929    0.2530 H   0  0  0  0  0  0  0  0  0  0  0  0
   -1.7305    4.7360    0.0553 H   0  0  0  0  0  0  0  0  0  0  0  0
    1.3778    6.3234   -1.7467 H   0  0  0  0  0  0  0  0  0  0  0  0
    0.5557    7.8791   -3.5914 H   0  0  0  0  0  0  0  0  0  0  0  0
   -2.0017    7.6223   -3.8551 H   0  0  0  0  0  0  0  0  0  0  0  0
    0.6316    3.6809   -2.6869 H   0  0  0  0  0  0  0  0  0  0  0  0
  1  2  1  0
  2  3  1  0
  2  4  2  3
  4  5  1  0
  5  6  1  0
  6  7  1  0
  7  8  1  0
  8  9  1  0
  9 10  1  0
 10 11  2  0
 10 12  1  0
 12 13  1  0
 13 14  1  0
 14 15  2  0
 15 16  1  0
 16 17  2  0
 17 18  1  0
 18 19  2  0
 12 20  1  0
 20 21  1  0
 21 22  2  0
 21 23  1  0
 23 24  1  0
 24 25  1  0
 25 26  1  0
 26 27  1  0
 27 28  1  0
 28 29  2  0
 28 30  1  0
 30 31  1  0
 31 32  1  0
 32 33  2  0
 33 34  1  0
 34 35  2  0
 35 36  1  0
 36 37  2  0
 30 38  1  0
 38 39  1  0
 39 40  2  0
 39 41  1  0
 41 42  1  0
 42 43  1  0
 43 44  2  0
 44 45  1  0
 45 46  1  0
 46 47  2  0
 41 48  1  0
 48 49  1  0
 49 50  2  0
 49  8  1  0
 19 14  1  0
 27 23  1  0
 37 32  1  0
 47 43  1  0
  1 51  1  0
  1 52  1  0
  3 53  1  0
  3 54  1  0
  5 55  1  0
  5 56  1  0
  6 57  1  0
  6 58  1  0
  7 59  1  0
  7 60  1  0
  8 61  1  1
  9 62  1  0
 12 63  1  1
 13 64  1  0
 13 65  1  0
 15 66  1  0
 16 67  1  0
 17 68  1  0
 18 69  1  0
 19 70  1  0
 20 71  1  0
 23 72  1  1
 24 73  1  0
 24 74  1  0
 25 75  1  0
 25 76  1  0
 26 77  1  0
 26 78  1  0
 30 79  1  1
 31 80  1  0
 31 81  1  0
 33 82  1  0
 34 83  1  0
 35 84  1  0
 36 85  1  0
 37 86  1  0
 38 87  1  0
 41 88  1  1
 42 89  1  0
 42 90  1  0
 44 91  1  0
 45 92  1  0
 46 93  1  0
 48 94  1  0
M  END
$$$$
[H]N=C(N([H])[H])N([H])C([H])([H])C([H])([H])C([H])([H])[C@@]([H])(C(=O)c1nc2c([H])c([H])c([H])c([H])c2s1)N([H])C(=O)[C@@]1([H])N(C(=O)[C@@]([H])(N([H])[H])C([H])([H])c2c([H])c([H])c([H])c([H])c2[H])C([H])([H])c2c([H])c([H])c([H])c([H])c2C1([H])[H]
     RDKit          3D

 78 82  0  0  0  0  0  0  0  0999 V2000
   -4.4782   -4.5898    2.2574 N   0  0  0  0  0  0  0  0  0  0  0  0
   -5.1772   -3.3985    1.9672 C   0  0  0  0  0  0  0  0  0  0  0  0
   -6.3711   -3.5242    1.4716 N   0  0  0  0  0  0  0  0  0  0  0  0
   -4.5899   -2.1483    2.2105 N   0  0  0  0  0  0  0  0  0  0  0  0
   -4.0953   -1.3447    1.0653 C   0  0  0  0  0  0  0  0  0  0  0  0
   -2.9185   -2.0811    0.5282 C   0  0  0  0  0  0  0  0  0  0  0  0
   -2.2891   -1.4800   -0.6670 C   0  0  0  0  0  0  0  0  0  0  0  0
   -1.7212   -0.1213   -0.5279 C   0  0  2  0  0  0  0  0  0  0  0  0
   -0.6902   -0.1224    0.5109 N   0  0  0  0  0  0  0  0  0  0  0  0
    0.7193   -0.0931    0.2041 C   0  0  0  0  0  0  0  0  0  0  0  0
    0.9546   -0.0810   -1.0360 O   0  0  0  0  0  0  0  0  0  0  0  0
    1.6510   -0.0793    1.2928 C   0  0  2  0  0  0  0  0  0  0  0  0
    1.1021    0.4075    2.6291 C   0  0  0  0  0  0  0  0  0  0  0  0
    2.1977    0.3333    3.6489 C   0  0  0  0  0  0  0  0  0  0  0  0
    1.8640    0.6015    4.9556 C   0  0  0  0  0  0  0  0  0  0  0  0
    2.8060    0.5480    5.9730 C   0  0  0  0  0  0  0  0  0  0  0  0
    4.1140    0.2164    5.6755 C   0  0  0  0  0  0  0  0  0  0  0  0
    4.4590   -0.0555    4.3581 C   0  0  0  0  0  0  0  0  0  0  0  0
    3.4948    0.0079    3.3704 C   0  0  0  0  0  0  0  0  0  0  0  0
    3.9533   -0.2784    1.9661 C   0  0  0  0  0  0  0  0  0  0  0  0
    3.0011    0.4088    1.1113 N   0  0  0  0  0  0  0  0  0  0  0  0
    3.3897    1.4379    0.2669 C   0  0  0  0  0  0  0  0  0  0  0  0
    2.3646    1.9757   -0.3839 O   0  0  0  0  0  0  0  0  0  0  0  0
    4.7013    2.0297   -0.0376 C   0  0  1  0  0  0  0  0  0  0  0  0
    5.4261    2.3710    1.1139 N   0  0  0  0  0  0  0  0  0  0  0  0
    5.5910    1.1514   -0.8930 C   0  0  0  0  0  0  0  0  0  0  0  0
    5.0839    0.7953   -2.2070 C   0  0  0  0  0  0  0  0  0  0  0  0
    4.3203   -0.3782   -2.2847 C   0  0  0  0  0  0  0  0  0  0  0  0
    3.8350   -0.7847   -3.5193 C   0  0  0  0  0  0  0  0  0  0  0  0
    4.0621   -0.0889   -4.6931 C   0  0  0  0  0  0  0  0  0  0  0  0
    4.8270    1.0814   -4.5879 C   0  0  0  0  0  0  0  0  0  0  0  0
    5.3129    1.4925   -3.3707 C   0  0  0  0  0  0  0  0  0  0  0  0
   -2.6064    1.0192   -0.4344 C   0  0  0  0  0  0  0  0  0  0  0  0
   -2.4636    1.8769    0.4720 O   0  0  0  0  0  0  0  0  0  0  0  0
   -3.6958    1.2227   -1.3861 C   0  0  0  0  0  0  0  0  0  0  0  0
   -4.0763    0.5138   -2.4294 N   0  0  0  0  0  0  0  0  0  0  0  0
   -5.0886    0.8783   -3.1556 C   0  0  0  0  0  0  0  0  0  0  0  0
   -5.5755    0.2121   -4.2977 C   0  0  0  0  0  0  0  0  0  0  0  0
   -6.6339    0.7000   -4.9810 C   0  0  0  0  0  0  0  0  0  0  0  0
   -7.2958    1.8449   -4.6262 C   0  0  0  0  0  0  0  0  0  0  0  0
   -6.8444    2.5258   -3.5100 C   0  0  0  0  0  0  0  0  0  0  0  0
   -5.7436    2.0243   -2.7958 C   0  0  0  0  0  0  0  0  0  0  0  0
   -4.8557    2.5119   -1.4201 S   0  0  0  0  0  0  0  0  0  0  0  0
   -4.3883   -4.9560    3.2523 H   0  0  0  0  0  0  0  0  0  0  0  0
   -4.0539   -5.1036    1.4671 H   0  0  0  0  0  0  0  0  0  0  0  0
   -6.9837   -2.7117    1.2205 H   0  0  0  0  0  0  0  0  0  0  0  0
   -4.4613   -1.7160    3.1512 H   0  0  0  0  0  0  0  0  0  0  0  0
   -4.8744   -1.3025    0.2674 H   0  0  0  0  0  0  0  0  0  0  0  0
   -3.8024   -0.3567    1.4471 H   0  0  0  0  0  0  0  0  0  0  0  0
   -2.1838   -2.1954    1.3844 H   0  0  0  0  0  0  0  0  0  0  0  0
   -3.2632   -3.1461    0.3208 H   0  0  0  0  0  0  0  0  0  0  0  0
   -2.9297   -1.5719   -1.5821 H   0  0  0  0  0  0  0  0  0  0  0  0
   -1.3954   -2.1534   -0.9116 H   0  0  0  0  0  0  0  0  0  0  0  0
   -1.1171    0.0563   -1.4967 H   0  0  0  0  0  0  0  0  0  0  0  0
   -0.9669   -0.1433    1.5027 H   0  0  0  0  0  0  0  0  0  0  0  0
    1.8214   -1.2122    1.5196 H   0  0  0  0  0  0  0  0  0  0  0  0
    0.7016    1.4084    2.5110 H   0  0  0  0  0  0  0  0  0  0  0  0
    0.3357   -0.2814    2.9782 H   0  0  0  0  0  0  0  0  0  0  0  0
    0.8556    0.8666    5.2628 H   0  0  0  0  0  0  0  0  0  0  0  0
    2.5659    0.7537    7.0068 H   0  0  0  0  0  0  0  0  0  0  0  0
    4.8923    0.1620    6.4229 H   0  0  0  0  0  0  0  0  0  0  0  0
    5.4658   -0.3134    4.0982 H   0  0  0  0  0  0  0  0  0  0  0  0
    3.7311   -1.3735    1.8121 H   0  0  0  0  0  0  0  0  0  0  0  0
    4.9925   -0.1370    1.7861 H   0  0  0  0  0  0  0  0  0  0  0  0
    4.5436    3.0260   -0.6011 H   0  0  0  0  0  0  0  0  0  0  0  0
    5.1873    2.1076    2.0332 H   0  0  0  0  0  0  0  0  0  0  0  0
    6.4015    2.7002    1.0283 H   0  0  0  0  0  0  0  0  0  0  0  0
    5.8956    0.2785   -0.2890 H   0  0  0  0  0  0  0  0  0  0  0  0
    6.5605    1.7040   -1.0683 H   0  0  0  0  0  0  0  0  0  0  0  0
    4.0903   -0.9921   -1.4385 H   0  0  0  0  0  0  0  0  0  0  0  0
    3.2345   -1.6891   -3.6150 H   0  0  0  0  0  0  0  0  0  0  0  0
    3.6990   -0.3875   -5.6631 H   0  0  0  0  0  0  0  0  0  0  0  0
    5.0361    1.6601   -5.4663 H   0  0  0  0  0  0  0  0  0  0  0  0
    5.8917    2.3901   -3.3153 H   0  0  0  0  0  0  0  0  0  0  0  0
   -5.1055   -0.7108   -4.6529 H   0  0  0  0  0  0  0  0  0  0  0  0
   -7.0000    0.1766   -5.8598 H   0  0  0  0  0  0  0  0  0  0  0  0
   -8.1219    2.2015   -5.1773 H   0  0  0  0  0  0  0  0  0  0  0  0
   -7.2748    3.4233   -3.1400 H   0  0  0  0  0  0  0  0  0  0  0  0
  1  2  1  0
  2  3  2  3
  2  4  1  0
  4  5  1  0
  5  6  1  0
  6  7  1  0
  7  8  1  0
  8  9  1  0
  9 10  1  0
 10 11  2  0
 10 12  1  0
 12 13  1  0
 13 14  1  0
 14 15  2  0
 15 16  1  0
 16 17  2  0
 17 18  1  0
 18 19  2  0
 19 20  1  0
 20 21  1  0
 21 22  1  0
 22 23  2  0
 22 24  1  0
 24 25  1  0
 24 26  1  0
 26 27  1  0
 27 28  2  0
 28 29  1  0
 29 30  2  0
 30 31  1  0
 31 32  2  0
  8 33  1  0
 33 34  2  0
 33 35  1  0
 35 36  2  0
 36 37  1  0
 37 38  2  0
 38 39  1  0
 39 40  2  0
 40 41  1  0
 41 42  2  0
 42 43  1  0
 21 12  1  0
 32 27  1  0
 43 35  1  0
 19 14  1  0
 42 37  1  0
  1 44  1  0
  1 45  1  0
  3 46  1  0
  4 47  1  0
  5 48  1  0
  5 49  1  0
  6 50  1  0
  6 51  1  0
  7 52  1  0
  7 53  1  0
  8 54  1  6
  9 55  1  0
 12 56  1  1
 13 57  1  0
 13 58  1  0
 15 59  1  0
 16 60  1  0
 17 61  1  0
 18 62  1  0
 20 63  1  0
 20 64  1  0
 24 65  1  6
 25 66  1  0
 25 67  1  0
 26 68  1  0
 26 69  1  0
 28 70  1  0
 29 71  1  0
 30 72  1  0
 31 73  1  0
 32 74  1  0
 38 75  1  0
 39 76  1  0
 40 77  1  0
 41 78  1  0
M  END
$$$$
[H]c1nc(N([H])S(=O)(=O)c2c([H])c([H])c(N([H])C(=O)c3c([H])c([H])c([H])c([N+](=O)[O-])c3[H])c([H])c2[H])c([H])c([H])c1[H]
     RDKit          3D

 42 44  0  0  0  0  0  0  0  0999 V2000
    7.8081   -1.2966    2.0422 O   0  0  0  0  0  0  0  0  0  0  0  0
    6.5005   -0.9863    1.8901 N   0  0  0  0  0  0  0  0  0  0  0  0
    5.7111   -1.1056    2.8407 O   0  0  0  0  0  0  0  0  0  0  0  0
    6.0126   -0.5198    0.6416 C   0  0  0  0  0  0  0  0  0  0  0  0
    6.8779   -0.3834   -0.4194 C   0  0  0  0  0  0  0  0  0  0  0  0
    6.3723    0.0718   -1.6175 C   0  0  0  0  0  0  0  0  0  0  0  0
    5.0316    0.3793   -1.7364 C   0  0  0  0  0  0  0  0  0  0  0  0
    4.1470    0.2504   -0.6874 C   0  0  0  0  0  0  0  0  0  0  0  0
    4.6512   -0.2022    0.5021 C   0  0  0  0  0  0  0  0  0  0  0  0
    2.7168    0.5894   -0.8677 C   0  0  0  0  0  0  0  0  0  0  0  0
    2.3679    0.7933   -2.0655 O   0  0  0  0  0  0  0  0  0  0  0  0
    1.8255    0.6796    0.1757 N   0  0  0  0  0  0  0  0  0  0  0  0
    0.4582    0.9843    0.1053 C   0  0  0  0  0  0  0  0  0  0  0  0
   -0.2288    1.3913    1.2711 C   0  0  0  0  0  0  0  0  0  0  0  0
   -1.5602    1.6884    1.2917 C   0  0  0  0  0  0  0  0  0  0  0  0
   -2.3364    1.6045    0.1317 C   0  0  0  0  0  0  0  0  0  0  0  0
   -1.6957    1.2133   -1.0068 C   0  0  0  0  0  0  0  0  0  0  0  0
   -0.3261    0.9093   -1.0187 C   0  0  0  0  0  0  0  0  0  0  0  0
   -4.0150    2.0503    0.2264 S   0  0  0  0  0  0  0  0  0  0  0  0
   -4.0957    3.3688    0.9815 O   0  0  0  0  0  0  0  0  0  0  0  0
   -4.5227    2.3012   -1.1735 O   0  0  0  0  0  0  0  0  0  0  0  0
   -4.9081    0.8513    1.0290 N   0  0  0  0  0  0  0  0  0  0  0  0
   -5.1193   -0.4980    0.6424 C   0  0  0  0  0  0  0  0  0  0  0  0
   -4.6734   -1.0203   -0.5368 C   0  0  0  0  0  0  0  0  0  0  0  0
   -4.9186   -2.3452   -0.9276 C   0  0  0  0  0  0  0  0  0  0  0  0
   -5.6440   -3.1181   -0.0578 C   0  0  0  0  0  0  0  0  0  0  0  0
   -6.0909   -2.5891    1.1254 C   0  0  0  0  0  0  0  0  0  0  0  0
   -5.8296   -1.3321    1.4433 N   0  0  0  0  0  0  0  0  0  0  0  0
    7.9354   -0.6255   -0.3268 H   0  0  0  0  0  0  0  0  0  0  0  0
    7.0680    0.1731   -2.4423 H   0  0  0  0  0  0  0  0  0  0  0  0
    4.6642    0.7386   -2.7039 H   0  0  0  0  0  0  0  0  0  0  0  0
    3.9920   -0.3178    1.3401 H   0  0  0  0  0  0  0  0  0  0  0  0
    2.2092    0.4978    1.1537 H   0  0  0  0  0  0  0  0  0  0  0  0
    0.3842    1.4578    2.1821 H   0  0  0  0  0  0  0  0  0  0  0  0
   -2.0532    1.9966    2.2022 H   0  0  0  0  0  0  0  0  0  0  0  0
   -2.2604    1.1320   -1.9431 H   0  0  0  0  0  0  0  0  0  0  0  0
    0.1227    0.5892   -1.9595 H   0  0  0  0  0  0  0  0  0  0  0  0
   -5.3728    1.1575    1.9489 H   0  0  0  0  0  0  0  0  0  0  0  0
   -4.1249   -0.4476   -1.2563 H   0  0  0  0  0  0  0  0  0  0  0  0
   -4.5555   -2.7385   -1.8653 H   0  0  0  0  0  0  0  0  0  0  0  0
   -5.8537   -4.1491   -0.3261 H   0  0  0  0  0  0  0  0  0  0  0  0
   -6.6712   -3.1940    1.8291 H   0  0  0  0  0  0  0  0  0  0  0  0
  1  2  1  0
  2  3  2  0
  2  4  1  0
  4  5  2  0
  5  6  1  0
  6  7  2  0
  7  8  1  0
  8  9  2  0
  8 10  1  0
 10 11  2  0
 10 12  1  0
 12 13  1  0
 13 14  2  0
 14 15  1  0
 15 16  2  0
 16 17  1  0
 17 18  2  0
 16 19  1  0
 19 20  2  0
 19 21  2  0
 19 22  1  0
 22 23  1  0
 23 24  2  0
 24 25  1  0
 25 26  2  0
 26 27  1  0
 27 28  2  0
  9  4  1  0
 18 13  1  0
 28 23  1  0
  5 29  1  0
  6 30  1  0
  7 31  1  0
  9 32  1  0
 12 33  1  0
 14 34  1  0
 15 35  1  0
 17 36  1  0
 18 37  1  0
 22 38  1  0
 24 39  1  0
 25 40  1  0
 26 41  1  0
 27 42  1  0
M  CHG  2   1  -1   2   1
M  END
$$$$
[H]OC(=O)c1c([H])c(O[H])c2c([H])c(O[H])c(O[H])c([H])c2c1[H]
     RDKit          3D

 24 25  0  0  0  0  0  0  0  0999 V2000
    4.6594    0.4260   -0.5563 O   0  0  0  0  0  0  0  0  0  0  0  0
    3.6262   -0.4921   -0.5518 C   0  0  0  0  0  0  0  0  0  0  0  0
    3.8935   -1.6915   -0.7491 O   0  0  0  0  0  0  0  0  0  0  0  0
    2.2373   -0.1152   -0.3259 C   0  0  0  0  0  0  0  0  0  0  0  0
    1.9092    1.1954   -0.1058 C   0  0  0  0  0  0  0  0  0  0  0  0
    0.5905    1.6149    0.1170 C   0  0  0  0  0  0  0  0  0  0  0  0
    0.3020    2.9323    0.3331 O   0  0  0  0  0  0  0  0  0  0  0  0
   -0.4297    0.6794    0.1175 C   0  0  0  0  0  0  0  0  0  0  0  0
   -1.7409    1.0448    0.3321 C   0  0  0  0  0  0  0  0  0  0  0  0
   -2.7638    0.0903    0.3303 C   0  0  0  0  0  0  0  0  0  0  0  0
   -4.0676    0.5091    0.5512 O   0  0  0  0  0  0  0  0  0  0  0  0
   -2.4022   -1.2181    0.1062 C   0  0  0  0  0  0  0  0  0  0  0  0
   -3.3962   -2.1836    0.0993 O   0  0  0  0  0  0  0  0  0  0  0  0
   -1.0928   -1.5767   -0.1072 C   0  0  0  0  0  0  0  0  0  0  0  0
   -0.0730   -0.6490   -0.1086 C   0  0  0  0  0  0  0  0  0  0  0  0
    1.2264   -1.0508   -0.3267 C   0  0  0  0  0  0  0  0  0  0  0  0
    4.7442    1.0932    0.2250 H   0  0  0  0  0  0  0  0  0  0  0  0
    2.6895    1.9359   -0.1028 H   0  0  0  0  0  0  0  0  0  0  0  0
   -0.5461    3.3959    0.5029 H   0  0  0  0  0  0  0  0  0  0  0  0
   -2.0202    2.0891    0.5097 H   0  0  0  0  0  0  0  0  0  0  0  0
   -4.8182   -0.1698    0.5529 H   0  0  0  0  0  0  0  0  0  0  0  0
   -3.2223   -3.1559   -0.0552 H   0  0  0  0  0  0  0  0  0  0  0  0
   -0.7965   -2.6091   -0.2853 H   0  0  0  0  0  0  0  0  0  0  0  0
    1.4911   -2.0947   -0.5024 H   0  0  0  0  0  0  0  0  0  0  0  0
  1  2  1  0
  2  3  2  0
  2  4  1  0
  4  5  2  0
  5  6  1  0
  6  7  1  0
  6  8  2  0
  8  9  1  0
  9 10  2  0
 10 11  1  0
 10 12  1  0
 12 13  1  0
 12 14  2  0
 14 15  1  0
 15 16  2  0
 16  4  1  0
 15  8  1  0
  1 17  1  0
  5 18  1  0
  7 19  1  0
  9 20  1  0
 11 21  1  0
 13 22  1  0
 14 23  1  0
 16 24  1  0
M  END
$$$$
[H]OC(=O)c1c([H])c([H])c(N2C(=O)N(c3c([H])c([H])c(-c4c([H])c([H])c([H])c([H])c4[H])c([H])c3[H])C3(C2=O)C([H])([H])C([H])([H])N(C([H])([H])c2c([H])c([H])c([H])c([H])c2C([H])([H])[H])C([H])([H])C3([H])[H])c([H])c1[H]
     RDKit          3D

 72 77  0  0  0  0  0  0  0  0999 V2000
    6.7166    0.6815    0.5531 C   0  0  0  0  0  0  0  0  0  0  0  0
    6.3356   -0.7089    0.2523 C   0  0  0  0  0  0  0  0  0  0  0  0
    7.2976   -1.6808    0.2811 C   0  0  0  0  0  0  0  0  0  0  0  0
    6.9677   -2.9692    0.0178 C   0  0  0  0  0  0  0  0  0  0  0  0
    5.6876   -3.2901   -0.2721 C   0  0  0  0  0  0  0  0  0  0  0  0
    4.6894   -2.2883   -0.3030 C   0  0  0  0  0  0  0  0  0  0  0  0
    4.9754   -0.9944   -0.0486 C   0  0  0  0  0  0  0  0  0  0  0  0
    4.0535    0.1045   -0.0582 C   0  0  0  0  0  0  0  0  0  0  0  0
    2.7177    0.1108   -0.3199 N   0  0  0  0  0  0  0  0  0  0  0  0
    2.1128    1.4362   -0.2042 C   0  0  0  0  0  0  0  0  0  0  0  0
    0.7828    1.2122    0.4812 C   0  0  0  0  0  0  0  0  0  0  0  0
   -0.1255    0.6630   -0.6282 C   0  0  0  0  0  0  0  0  0  0  0  0
    0.6126   -0.3153   -1.4248 C   0  0  0  0  0  0  0  0  0  0  0  0
    1.9070   -0.8619   -0.8504 C   0  0  0  0  0  0  0  0  0  0  0  0
   -1.4133    0.3222   -0.1273 N   0  0  0  0  0  0  0  0  0  0  0  0
   -1.9827    1.6059    0.2423 C   0  0  0  0  0  0  0  0  0  0  0  0
   -2.8552    1.8024    1.1446 O   0  0  0  0  0  0  0  0  0  0  0  0
   -1.3920    2.6001   -0.5835 N   0  0  0  0  0  0  0  0  0  0  0  0
   -0.4854    1.9019   -1.4299 C   0  0  0  0  0  0  0  0  0  0  0  0
   -0.0836    2.2367   -2.5672 O   0  0  0  0  0  0  0  0  0  0  0  0
   -1.6139    4.0074   -0.6117 C   0  0  0  0  0  0  0  0  0  0  0  0
   -1.9470    4.6906   -1.7617 C   0  0  0  0  0  0  0  0  0  0  0  0
   -2.1358    6.0544   -1.6730 C   0  0  0  0  0  0  0  0  0  0  0  0
   -2.0043    6.7496   -0.4879 C   0  0  0  0  0  0  0  0  0  0  0  0
   -1.6745    6.0577    0.6416 C   0  0  0  0  0  0  0  0  0  0  0  0
   -1.4817    4.6975    0.5754 C   0  0  0  0  0  0  0  0  0  0  0  0
   -2.2252    8.2021   -0.4944 C   0  0  0  0  0  0  0  0  0  0  0  0
   -2.1011    8.9364    0.6705 O   0  0  0  0  0  0  0  0  0  0  0  0
   -2.5293    8.8075   -1.5489 O   0  0  0  0  0  0  0  0  0  0  0  0
   -2.1309   -0.8833    0.0504 C   0  0  0  0  0  0  0  0  0  0  0  0
   -2.4068   -1.2723    1.3442 C   0  0  0  0  0  0  0  0  0  0  0  0
   -3.1136   -2.4302    1.6285 C   0  0  0  0  0  0  0  0  0  0  0  0
   -3.5559   -3.2205    0.5821 C   0  0  0  0  0  0  0  0  0  0  0  0
   -3.2859   -2.8424   -0.7153 C   0  0  0  0  0  0  0  0  0  0  0  0
   -2.5872   -1.6959   -0.9602 C   0  0  0  0  0  0  0  0  0  0  0  0
   -4.3039   -4.4598    0.7858 C   0  0  0  0  0  0  0  0  0  0  0  0
   -4.0931   -5.2658    1.8887 C   0  0  0  0  0  0  0  0  0  0  0  0
   -4.8076   -6.4235    2.0608 C   0  0  0  0  0  0  0  0  0  0  0  0
   -5.7646   -6.8487    1.1615 C   0  0  0  0  0  0  0  0  0  0  0  0
   -5.9700   -6.0407    0.0646 C   0  0  0  0  0  0  0  0  0  0  0  0
   -5.2557   -4.8695   -0.1221 C   0  0  0  0  0  0  0  0  0  0  0  0
    6.5688    1.3650   -0.2918 H   0  0  0  0  0  0  0  0  0  0  0  0
    6.1246    0.9848    1.4706 H   0  0  0  0  0  0  0  0  0  0  0  0
    7.7633    0.7493    0.8626 H   0  0  0  0  0  0  0  0  0  0  0  0
    8.3441   -1.4241    0.5185 H   0  0  0  0  0  0  0  0  0  0  0  0
    7.7766   -3.6983    0.0550 H   0  0  0  0  0  0  0  0  0  0  0  0
    5.4623   -4.3258   -0.4771 H   0  0  0  0  0  0  0  0  0  0  0  0
    3.7184   -2.6926   -0.5359 H   0  0  0  0  0  0  0  0  0  0  0  0
    4.1697    0.6951    0.9553 H   0  0  0  0  0  0  0  0  0  0  0  0
    4.5097    0.9516   -0.7396 H   0  0  0  0  0  0  0  0  0  0  0  0
    1.9242    1.7846   -1.2359 H   0  0  0  0  0  0  0  0  0  0  0  0
    2.7607    2.1577    0.2833 H   0  0  0  0  0  0  0  0  0  0  0  0
    0.3347    2.1651    0.8046 H   0  0  0  0  0  0  0  0  0  0  0  0
    0.8600    0.4598    1.3054 H   0  0  0  0  0  0  0  0  0  0  0  0
    0.8851    0.1678   -2.4164 H   0  0  0  0  0  0  0  0  0  0  0  0
    0.0255   -1.2278   -1.7040 H   0  0  0  0  0  0  0  0  0  0  0  0
    2.3916   -1.3387   -1.7560 H   0  0  0  0  0  0  0  0  0  0  0  0
    1.6499   -1.7213   -0.1632 H   0  0  0  0  0  0  0  0  0  0  0  0
   -2.0501    4.1460   -2.6858 H   0  0  0  0  0  0  0  0  0  0  0  0
   -2.3945    6.5790   -2.5779 H   0  0  0  0  0  0  0  0  0  0  0  0
   -1.5663    6.5752    1.5792 H   0  0  0  0  0  0  0  0  0  0  0  0
   -1.2176    4.1654    1.4971 H   0  0  0  0  0  0  0  0  0  0  0  0
   -1.6812    8.6080    1.5198 H   0  0  0  0  0  0  0  0  0  0  0  0
   -2.0855   -0.6945    2.2141 H   0  0  0  0  0  0  0  0  0  0  0  0
   -3.3313   -2.7331    2.6559 H   0  0  0  0  0  0  0  0  0  0  0  0
   -3.6357   -3.4663   -1.5496 H   0  0  0  0  0  0  0  0  0  0  0  0
   -2.3783   -1.4046   -2.0012 H   0  0  0  0  0  0  0  0  0  0  0  0
   -3.3426   -4.9581    2.6226 H   0  0  0  0  0  0  0  0  0  0  0  0
   -4.6189   -7.0376    2.9398 H   0  0  0  0  0  0  0  0  0  0  0  0
   -6.3291   -7.7586    1.2970 H   0  0  0  0  0  0  0  0  0  0  0  0
   -6.7166   -6.3342   -0.6718 H   0  0  0  0  0  0  0  0  0  0  0  0
   -5.4524   -4.2579   -1.0085 H   0  0  0  0  0  0  0  0  0  0  0  0
  1  2  1  0
  2  3  2  0
  3  4  1  0
  4  5  2  0
  5  6  1  0
  6  7  2  0
  7  8  1  0
  8  9  1  0
  9 10  1  0
 10 11  1  0
 11 12  1  0
 12 13  1  0
 13 14  1  0
 12 15  1  0
 15 16  1  0
 16 17  2  0
 16 18  1  0
 18 19  1  0
 19 20  2  0
 18 21  1  0
 21 22  2  0
 22 23  1  0
 23 24  2  0
 24 25  1  0
 25 26  2  0
 24 27  1  0
 27 28  1  0
 27 29  2  0
 15 30  1  0
 30 31  2  0
 31 32  1  0
 32 33  2  0
 33 34  1  0
 34 35  2  0
 33 36  1  0
 36 37  2  0
 37 38  1  0
 38 39  2  0
 39 40  1  0
 40 41  2  0
  7  2  1  0
 14  9  1  0
 26 21  1  0
 35 30  1  0
 41 36  1  0
 19 12  1  0
  1 42  1  0
  1 43  1  0
  1 44  1  0
  3 45  1  0
  4 46  1  0
  5 47  1  0
  6 48  1  0
  8 49  1  0
  8 50  1  0
 10 51  1  0
 10 52  1  0
 11 53  1  0
 11 54  1  0
 13 55  1  0
 13 56  1  0
 14 57  1  0
 14 58  1  0
 22 59  1  0
 23 60  1  0
 25 61  1  0
 26 62  1  0
 28 63  1  0
 31 64  1  0
 32 65  1  0
 34 66  1  0
 35 67  1  0
 37 68  1  0
 38 69  1  0
 39 70  1  0
 40 71  1  0
 41 72  1  0
M  END
$$$$
[H]c1c([H])c([H])c(C([H])([H])[C@@]([H])(C(=O)[C@]2(C([H])([H])[H])OC2([H])[H])N([H])C(=O)[C@@]([H])(N([H])C(=O)[C@]2([H])OC(=O)[C@@]2([H])[C@@]([H])(C([H])([H])[H])C([H])([H])C([H])([H])[H])C([H])(C([H])([H])[H])C([H])([H])[H])c([H])c1[H]
     RDKit          3D

 67 69  0  0  0  0  0  0  0  0999 V2000
    8.2728   -0.5795   -0.2223 C   0  0  0  0  0  0  0  0  0  0  0  0
    7.0591    0.3073   -0.2062 C   0  0  0  0  0  0  0  0  0  0  0  0
    6.0571   -0.2922    0.7587 C   0  0  2  0  0  0  0  0  0  0  0  0
    5.7095   -1.6679    0.2723 C   0  0  0  0  0  0  0  0  0  0  0  0
    4.8593    0.6299    0.7930 C   0  0  1  0  0  0  0  0  0  0  0  0
    3.8003    0.1283    1.7225 C   0  0  1  0  0  0  0  0  0  0  0  0
    4.3946    0.8840    2.7372 O   0  0  0  0  0  0  0  0  0  0  0  0
    4.9193    1.7270    1.7676 C   0  0  0  0  0  0  0  0  0  0  0  0
    5.2770    2.9325    1.7907 O   0  0  0  0  0  0  0  0  0  0  0  0
    2.4735    0.7309    1.3472 C   0  0  0  0  0  0  0  0  0  0  0  0
    2.0318    1.7608    1.9056 O   0  0  0  0  0  0  0  0  0  0  0  0
    1.7280    0.1068    0.3435 N   0  0  0  0  0  0  0  0  0  0  0  0
    0.4268    0.6639   -0.0522 C   0  0  1  0  0  0  0  0  0  0  0  0
    0.5313    1.0751   -1.4939 C   0  0  0  0  0  0  0  0  0  0  0  0
   -0.6934    1.6735   -2.0858 C   0  0  0  0  0  0  0  0  0  0  0  0
    1.6358    2.1298   -1.5778 C   0  0  0  0  0  0  0  0  0  0  0  0
   -0.6044   -0.3177    0.2582 C   0  0  0  0  0  0  0  0  0  0  0  0
   -0.2166   -1.4347    0.7528 O   0  0  0  0  0  0  0  0  0  0  0  0
   -1.9872   -0.1893    0.0813 N   0  0  0  0  0  0  0  0  0  0  0  0
   -2.9437   -1.2459    0.4271 C   0  0  1  0  0  0  0  0  0  0  0  0
   -3.8141   -0.7594    1.5576 C   0  0  0  0  0  0  0  0  0  0  0  0
   -4.5855    0.4640    1.2570 C   0  0  0  0  0  0  0  0  0  0  0  0
   -4.0165    1.7212    1.4929 C   0  0  0  0  0  0  0  0  0  0  0  0
   -4.6578    2.9094    1.2563 C   0  0  0  0  0  0  0  0  0  0  0  0
   -5.9490    2.8573    0.7524 C   0  0  0  0  0  0  0  0  0  0  0  0
   -6.5475    1.6470    0.5056 C   0  0  0  0  0  0  0  0  0  0  0  0
   -5.8709    0.4642    0.7562 C   0  0  0  0  0  0  0  0  0  0  0  0
   -3.7451   -1.5936   -0.7391 C   0  0  0  0  0  0  0  0  0  0  0  0
   -3.5896   -0.8958   -1.7585 O   0  0  0  0  0  0  0  0  0  0  0  0
   -4.7306   -2.6933   -0.8577 C   0  0  1  0  0  0  0  0  0  0  0  0
   -5.0004   -3.6335    0.2665 C   0  0  0  0  0  0  0  0  0  0  0  0
   -5.6322   -2.7121   -2.0648 C   0  0  0  0  0  0  0  0  0  0  0  0
   -4.4674   -3.4660   -2.1249 O   0  0  0  0  0  0  0  0  0  0  0  0
    8.3180   -1.2863    0.6281 H   0  0  0  0  0  0  0  0  0  0  0  0
    9.1862    0.0461   -0.1632 H   0  0  0  0  0  0  0  0  0  0  0  0
    8.3087   -1.1694   -1.1745 H   0  0  0  0  0  0  0  0  0  0  0  0
    7.3271    1.3543    0.1225 H   0  0  0  0  0  0  0  0  0  0  0  0
    6.6285    0.4003   -1.2144 H   0  0  0  0  0  0  0  0  0  0  0  0
    6.4678   -0.3730    1.7776 H   0  0  0  0  0  0  0  0  0  0  0  0
    4.9138   -1.6346   -0.4965 H   0  0  0  0  0  0  0  0  0  0  0  0
    6.6198   -2.0918   -0.2072 H   0  0  0  0  0  0  0  0  0  0  0  0
    5.4615   -2.3705    1.1122 H   0  0  0  0  0  0  0  0  0  0  0  0
    4.4578    0.9090   -0.1957 H   0  0  0  0  0  0  0  0  0  0  0  0
    3.7683   -0.9650    1.8905 H   0  0  0  0  0  0  0  0  0  0  0  0
    2.0358   -0.7399   -0.1518 H   0  0  0  0  0  0  0  0  0  0  0  0
    0.2114    1.5819    0.5446 H   0  0  0  0  0  0  0  0  0  0  0  0
    0.8867    0.1866   -2.0551 H   0  0  0  0  0  0  0  0  0  0  0  0
   -0.4034    2.2348   -3.0240 H   0  0  0  0  0  0  0  0  0  0  0  0
   -1.3426    0.8490   -2.4612 H   0  0  0  0  0  0  0  0  0  0  0  0
   -1.1969    2.4081   -1.4615 H   0  0  0  0  0  0  0  0  0  0  0  0
    1.4916    2.7546   -2.5041 H   0  0  0  0  0  0  0  0  0  0  0  0
    2.6383    1.6741   -1.5550 H   0  0  0  0  0  0  0  0  0  0  0  0
    1.5795    2.8525   -0.7398 H   0  0  0  0  0  0  0  0  0  0  0  0
   -2.3841    0.6826   -0.3113 H   0  0  0  0  0  0  0  0  0  0  0  0
   -2.4059   -2.1492    0.7938 H   0  0  0  0  0  0  0  0  0  0  0  0
   -3.2201   -0.6275    2.4957 H   0  0  0  0  0  0  0  0  0  0  0  0
   -4.5485   -1.5517    1.7906 H   0  0  0  0  0  0  0  0  0  0  0  0
   -3.0085    1.7432    1.8863 H   0  0  0  0  0  0  0  0  0  0  0  0
   -4.1955    3.8682    1.4475 H   0  0  0  0  0  0  0  0  0  0  0  0
   -6.4471    3.8017    0.5686 H   0  0  0  0  0  0  0  0  0  0  0  0
   -7.5425    1.5754    0.1168 H   0  0  0  0  0  0  0  0  0  0  0  0
   -6.3724   -0.4949    0.5588 H   0  0  0  0  0  0  0  0  0  0  0  0
   -5.2278   -4.6719   -0.0672 H   0  0  0  0  0  0  0  0  0  0  0  0
   -5.8808   -3.3362    0.8984 H   0  0  0  0  0  0  0  0  0  0  0  0
   -4.0701   -3.7167    0.8740 H   0  0  0  0  0  0  0  0  0  0  0  0
   -5.6130   -1.7958   -2.6962 H   0  0  0  0  0  0  0  0  0  0  0  0
   -6.5658   -3.2797   -2.0244 H   0  0  0  0  0  0  0  0  0  0  0  0
  1  2  1  0
  2  3  1  0
  3  4  1  0
  3  5  1  0
  5  6  1  0
  6  7  1  0
  7  8  1  0
  8  9  2  0
  6 10  1  0
 10 11  2  0
 10 12  1  0
 12 13  1  0
 13 14  1  0
 14 15  1  0
 14 16  1  0
 13 17  1  0
 17 18  2  0
 17 19  1  0
 19 20  1  0
 20 21  1  0
 21 22  1  0
 22 23  2  0
 23 24  1  0
 24 25  2  0
 25 26  1  0
 26 27  2  0
 20 28  1  0
 28 29  2  0
 30 28  1  1
 30 31  1  0
 30 32  1  0
 32 33  1  0
  8  5  1  0
 27 22  1  0
 33 30  1  0
  1 34  1  0
  1 35  1  0
  1 36  1  0
  2 37  1  0
  2 38  1  0
  3 39  1  1
  4 40  1  0
  4 41  1  0
  4 42  1  0
  5 43  1  6
  6 44  1  1
 12 45  1  0
 13 46  1  1
 14 47  1  0
 15 48  1  0
 15 49  1  0
 15 50  1  0
 16 51  1  0
 16 52  1  0
 16 53  1  0
 19 54  1  0
 20 55  1  1
 21 56  1  0
 21 57  1  0
 23 58  1  0
 24 59  1  0
 25 60  1  0
 26 61  1  0
 27 62  1  0
 31 63  1  0
 31 64  1  0
 31 65  1  0
 32 66  1  0
 32 67  1  0
M  END
$$$$
[H]c1nc(N([H])c2c([H])c(OC([H])([H])[H])c([H])c(OC([H])([H])[H])c2[H])nc(N([H])c2nc3c(c([H])c2[H])OC(C([H])([H])[H])(C([H])([H])[H])C(=O)N3[H])c1F
     RDKit          3D

 53 56  0  0  0  0  0  0  0  0999 V2000
   -4.9384    4.5871    0.3441 C   0  0  0  0  0  0  0  0  0  0  0  0
   -5.9036    3.6236    0.7021 O   0  0  0  0  0  0  0  0  0  0  0  0
   -5.5889    2.2856    0.8344 C   0  0  0  0  0  0  0  0  0  0  0  0
   -4.3226    1.8411    0.6223 C   0  0  0  0  0  0  0  0  0  0  0  0
   -3.9264    0.4959    0.7377 C   0  0  0  0  0  0  0  0  0  0  0  0
   -2.5863    0.1773    0.4687 N   0  0  0  0  0  0  0  0  0  0  0  0
   -1.8465   -0.9663    0.8186 C   0  0  0  0  0  0  0  0  0  0  0  0
   -2.3975   -1.9622    1.5248 N   0  0  0  0  0  0  0  0  0  0  0  0
   -1.7469   -3.0572    1.8790 C   0  0  0  0  0  0  0  0  0  0  0  0
   -0.4354   -3.1992    1.5125 C   0  0  0  0  0  0  0  0  0  0  0  0
    0.3107   -4.2770    1.8255 F   0  0  0  0  0  0  0  0  0  0  0  0
    0.1630   -2.1615    0.7685 C   0  0  0  0  0  0  0  0  0  0  0  0
    1.5114   -2.3254    0.4009 N   0  0  0  0  0  0  0  0  0  0  0  0
    2.3152   -1.4341   -0.3358 C   0  0  0  0  0  0  0  0  0  0  0  0
    1.9075   -0.2256   -0.8309 C   0  0  0  0  0  0  0  0  0  0  0  0
    2.7894    0.5875   -1.5533 C   0  0  0  0  0  0  0  0  0  0  0  0
    4.0656    0.1232   -1.7401 C   0  0  0  0  0  0  0  0  0  0  0  0
    4.9423    0.9309   -2.4580 O   0  0  0  0  0  0  0  0  0  0  0  0
    6.3272    0.7031   -2.4399 C   0  0  0  0  0  0  0  0  0  0  0  0
    6.9566    1.5377   -1.3415 C   0  0  0  0  0  0  0  0  0  0  0  0
    6.9310    1.0935   -3.7893 C   0  0  0  0  0  0  0  0  0  0  0  0
    6.6675   -0.7021   -2.1844 C   0  0  0  0  0  0  0  0  0  0  0  0
    7.7650   -1.1390   -2.6398 O   0  0  0  0  0  0  0  0  0  0  0  0
    5.7900   -1.5441   -1.4483 N   0  0  0  0  0  0  0  0  0  0  0  0
    4.4451   -1.1060   -1.2247 C   0  0  0  0  0  0  0  0  0  0  0  0
    3.6025   -1.8518   -0.5506 N   0  0  0  0  0  0  0  0  0  0  0  0
   -0.5447   -1.0985    0.4502 N   0  0  0  0  0  0  0  0  0  0  0  0
   -4.9199   -0.3685    1.0862 C   0  0  0  0  0  0  0  0  0  0  0  0
   -6.2399    0.0186    1.3192 C   0  0  0  0  0  0  0  0  0  0  0  0
   -7.2259   -0.8806    1.6720 O   0  0  0  0  0  0  0  0  0  0  0  0
   -6.8893   -2.2563    1.8048 C   0  0  0  0  0  0  0  0  0  0  0  0
   -6.5418    1.3548    1.1846 C   0  0  0  0  0  0  0  0  0  0  0  0
   -4.7078    4.4935   -0.7379 H   0  0  0  0  0  0  0  0  0  0  0  0
   -4.0184    4.5049    0.9781 H   0  0  0  0  0  0  0  0  0  0  0  0
   -5.3363    5.6099    0.4864 H   0  0  0  0  0  0  0  0  0  0  0  0
   -3.5495    2.5623    0.3448 H   0  0  0  0  0  0  0  0  0  0  0  0
   -2.0163    0.9049   -0.0976 H   0  0  0  0  0  0  0  0  0  0  0  0
   -2.2257   -3.8432    2.4511 H   0  0  0  0  0  0  0  0  0  0  0  0
    2.0107   -3.2454    0.7146 H   0  0  0  0  0  0  0  0  0  0  0  0
    0.9075    0.1573   -0.6945 H   0  0  0  0  0  0  0  0  0  0  0  0
    2.4413    1.5383   -1.9337 H   0  0  0  0  0  0  0  0  0  0  0  0
    7.8868    1.0394   -0.9542 H   0  0  0  0  0  0  0  0  0  0  0  0
    6.2388    1.5550   -0.4897 H   0  0  0  0  0  0  0  0  0  0  0  0
    7.2053    2.5599   -1.6895 H   0  0  0  0  0  0  0  0  0  0  0  0
    7.8181    0.4658   -3.9460 H   0  0  0  0  0  0  0  0  0  0  0  0
    6.1955    0.8662   -4.5692 H   0  0  0  0  0  0  0  0  0  0  0  0
    7.2019    2.1765   -3.7706 H   0  0  0  0  0  0  0  0  0  0  0  0
    6.1413   -2.4611   -1.0867 H   0  0  0  0  0  0  0  0  0  0  0  0
   -4.7034   -1.4170    1.1820 H   0  0  0  0  0  0  0  0  0  0  0  0
   -6.1664   -2.4069    2.6422 H   0  0  0  0  0  0  0  0  0  0  0  0
   -7.7938   -2.8627    1.9604 H   0  0  0  0  0  0  0  0  0  0  0  0
   -6.3934   -2.6479    0.8929 H   0  0  0  0  0  0  0  0  0  0  0  0
   -7.5721    1.6458    1.3680 H   0  0  0  0  0  0  0  0  0  0  0  0
  1  2  1  0
  2  3  1  0
  3  4  2  0
  4  5  1  0
  5  6  1  0
  6  7  1  0
  7  8  2  0
  8  9  1  0
  9 10  2  0
 10 11  1  0
 10 12  1  0
 12 13  1  0
 13 14  1  0
 14 15  2  0
 15 16  1  0
 16 17  2  0
 17 18  1  0
 18 19  1  0
 19 20  1  0
 19 21  1  0
 19 22  1  0
 22 23  2  0
 22 24  1  0
 24 25  1  0
 25 26  2  0
 12 27  2  0
  5 28  2  0
 28 29  1  0
 29 30  1  0
 30 31  1  0
 29 32  2  0
 32  3  1  0
 27  7  1  0
 26 14  1  0
 25 17  1  0
  1 33  1  0
  1 34  1  0
  1 35  1  0
  4 36  1  0
  6 37  1  0
  9 38  1  0
 13 39  1  0
 15 40  1  0
 16 41  1  0
 20 42  1  0
 20 43  1  0
 20 44  1  0
 21 45  1  0
 21 46  1  0
 21 47  1  0
 24 48  1  0
 28 49  1  0
 31 50  1  0
 31 51  1  0
 31 52  1  0
 32 53  1  0
M  END
$$$$
[H]c1c([H])c(-n2c(=O)c3c([H])nc4c([H])c([H])c([H])c([H])c4c3n2[H])c([H])c([H])c1F
     RDKit          3D

 31 34  0  0  0  0  0  0  0  0999 V2000
    6.5281    0.2358   -0.3915 F   0  0  0  0  0  0  0  0  0  0  0  0
    5.2133    0.2271   -0.1027 C   0  0  0  0  0  0  0  0  0  0  0  0
    4.3618   -0.3647   -1.0323 C   0  0  0  0  0  0  0  0  0  0  0  0
    3.0224   -0.3877   -0.7650 C   0  0  0  0  0  0  0  0  0  0  0  0
    2.4617    0.1446    0.3795 C   0  0  0  0  0  0  0  0  0  0  0  0
    3.3048    0.7226    1.2849 C   0  0  0  0  0  0  0  0  0  0  0  0
    4.6640    0.7587    1.0379 C   0  0  0  0  0  0  0  0  0  0  0  0
    1.0553    0.0819    0.5867 N   0  0  0  0  0  0  0  0  0  0  0  0
    0.1469    0.1604   -0.4015 N   0  0  0  0  0  0  0  0  0  0  0  0
   -1.0999    0.0708    0.1023 C   0  0  0  0  0  0  0  0  0  0  0  0
   -0.9094   -0.0699    1.4824 C   0  0  0  0  0  0  0  0  0  0  0  0
   -2.0296   -0.1867    2.2777 C   0  0  0  0  0  0  0  0  0  0  0  0
   -3.2635   -0.1651    1.7365 N   0  0  0  0  0  0  0  0  0  0  0  0
   -3.4558   -0.0301    0.4109 C   0  0  0  0  0  0  0  0  0  0  0  0
   -4.7103   -0.0051   -0.1681 C   0  0  0  0  0  0  0  0  0  0  0  0
   -4.8734    0.1360   -1.5433 C   0  0  0  0  0  0  0  0  0  0  0  0
   -3.7669    0.2536   -2.3510 C   0  0  0  0  0  0  0  0  0  0  0  0
   -2.4853    0.2317   -1.7940 C   0  0  0  0  0  0  0  0  0  0  0  0
   -2.3714    0.0906   -0.4321 C   0  0  0  0  0  0  0  0  0  0  0  0
    0.4184   -0.0594    1.7459 C   0  0  0  0  0  0  0  0  0  0  0  0
    0.9558   -0.1629    2.8688 O   0  0  0  0  0  0  0  0  0  0  0  0
    4.7534   -0.7928   -1.9389 H   0  0  0  0  0  0  0  0  0  0  0  0
    2.3721   -0.8570   -1.5080 H   0  0  0  0  0  0  0  0  0  0  0  0
    2.9278    1.1649    2.2150 H   0  0  0  0  0  0  0  0  0  0  0  0
    5.3278    1.2155    1.7539 H   0  0  0  0  0  0  0  0  0  0  0  0
    0.3465    0.2738   -1.4171 H   0  0  0  0  0  0  0  0  0  0  0  0
   -1.8598   -0.2948    3.3441 H   0  0  0  0  0  0  0  0  0  0  0  0
   -5.5958   -0.0967    0.4537 H   0  0  0  0  0  0  0  0  0  0  0  0
   -5.8722    0.1519   -1.9663 H   0  0  0  0  0  0  0  0  0  0  0  0
   -3.9326    0.3615   -3.4141 H   0  0  0  0  0  0  0  0  0  0  0  0
   -1.6341    0.3264   -2.4541 H   0  0  0  0  0  0  0  0  0  0  0  0
  1  2  1  0
  2  3  2  0
  3  4  1  0
  4  5  2  0
  5  6  1  0
  6  7  2  0
  5  8  1  0
  8  9  1  0
  9 10  1  0
 10 11  2  0
 11 12  1  0
 12 13  2  0
 13 14  1  0
 14 15  2  0
 15 16  1  0
 16 17  2  0
 17 18  1  0
 18 19  2  0
 11 20  1  0
 20 21  2  0
  7  2  1  0
 20  8  1  0
 19 10  1  0
 19 14  1  0
  3 22  1  0
  4 23  1  0
  6 24  1  0
  7 25  1  0
  9 26  1  0
 12 27  1  0
 15 28  1  0
 16 29  1  0
 17 30  1  0
 18 31  1  0
M  END
$$$$
[H]c1nc(-c2c([H])c([H])c([H])c([H])c2F)c([H])c([H])c1C#Cc1nc(C([H])([H])[H])sc1[H]
     RDKit          3D

 32 34  0  0  0  0  0  0  0  0999 V2000
    7.6484   -0.9842   -0.5995 C   0  0  0  0  0  0  0  0  0  0  0  0
    6.5215   -0.4488    0.2487 C   0  0  0  0  0  0  0  0  0  0  0  0
    5.2257   -0.4497    0.0084 N   0  0  0  0  0  0  0  0  0  0  0  0
    4.4012    0.0691    0.8794 C   0  0  0  0  0  0  0  0  0  0  0  0
    4.9556    0.5967    2.0218 C   0  0  0  0  0  0  0  0  0  0  0  0
    6.6183    0.3132    1.7692 S   0  0  0  0  0  0  0  0  0  0  0  0
    2.9499    0.0741    0.6220 C   0  0  0  0  0  0  0  0  0  0  0  0
    1.7611    0.0873    0.4308 C   0  0  0  0  0  0  0  0  0  0  0  0
    0.3383    0.0998    0.2274 C   0  0  0  0  0  0  0  0  0  0  0  0
   -0.1514   -0.1899   -1.0032 C   0  0  0  0  0  0  0  0  0  0  0  0
   -1.5409   -0.1734   -1.1852 C   0  0  0  0  0  0  0  0  0  0  0  0
   -2.4193    0.1183   -0.1899 C   0  0  0  0  0  0  0  0  0  0  0  0
   -1.8581    0.4009    1.0257 N   0  0  0  0  0  0  0  0  0  0  0  0
   -0.5426    0.3962    1.2413 C   0  0  0  0  0  0  0  0  0  0  0  0
   -3.8694    0.1494   -0.2962 C   0  0  0  0  0  0  0  0  0  0  0  0
   -4.6061    0.4076    0.8748 C   0  0  0  0  0  0  0  0  0  0  0  0
   -5.9728    0.4693    0.9087 C   0  0  0  0  0  0  0  0  0  0  0  0
   -6.6923    0.2734   -0.2435 C   0  0  0  0  0  0  0  0  0  0  0  0
   -6.0109    0.0187   -1.4081 C   0  0  0  0  0  0  0  0  0  0  0  0
   -4.6064   -0.0409   -1.4241 C   0  0  0  0  0  0  0  0  0  0  0  0
   -4.0044   -0.2904   -2.6122 F   0  0  0  0  0  0  0  0  0  0  0  0
    8.5203   -0.2929   -0.4571 H   0  0  0  0  0  0  0  0  0  0  0  0
    7.9684   -1.9743   -0.2580 H   0  0  0  0  0  0  0  0  0  0  0  0
    7.3544   -0.9262   -1.6469 H   0  0  0  0  0  0  0  0  0  0  0  0
    4.4237    1.0745    2.8660 H   0  0  0  0  0  0  0  0  0  0  0  0
    0.5194   -0.4232   -1.8053 H   0  0  0  0  0  0  0  0  0  0  0  0
   -1.8816   -0.4088   -2.1564 H   0  0  0  0  0  0  0  0  0  0  0  0
   -0.1808    0.6269    2.2169 H   0  0  0  0  0  0  0  0  0  0  0  0
   -4.0235    0.5631    1.7947 H   0  0  0  0  0  0  0  0  0  0  0  0
   -6.4987    0.6712    1.8353 H   0  0  0  0  0  0  0  0  0  0  0  0
   -7.7709    0.3267   -0.1925 H   0  0  0  0  0  0  0  0  0  0  0  0
   -6.5762   -0.1336   -2.3049 H   0  0  0  0  0  0  0  0  0  0  0  0
  1  2  1  0
  2  3  2  0
  3  4  1  0
  4  5  2  0
  5  6  1  0
  4  7  1  0
  7  8  3  0
  8  9  1  0
  9 10  2  0
 10 11  1  0
 11 12  2  0
 12 13  1  0
 13 14  2  0
 12 15  1  0
 15 16  2  0
 16 17  1  0
 17 18  2  0
 18 19  1  0
 19 20  2  0
 20 21  1  0
  6  2  1  0
 14  9  1  0
 20 15  1  0
  1 22  1  0
  1 23  1  0
  1 24  1  0
  5 25  1  0
 10 26  1  0
 11 27  1  0
 14 28  1  0
 16 29  1  0
 17 30  1  0
 18 31  1  0
 19 32  1  0
M  END
$$$$
[H]N=C(N([H])[H])N([H])C([H])([H])C([H])([H])C([H])([H])[C@@]([H])(C(=O)N1C([H])([H])C([H])([H])C([H])([H])[C@@]1([H])C(=O)N([H])[C@]([H])(C(=O)c1nc2c([H])c([H])c([H])c([H])c2s1)C([H])([H])C([H])(C([H])([H])[H])C([H])([H])[H])N([H])C(=O)OC([H])([H])c1c([H])c([H])c([H])c([H])c1[H]
     RDKit          3D

 86 89  0  0  0  0  0  0  0  0999 V2000
   -5.6568    0.8669   -2.4398 C   0  0  0  0  0  0  0  0  0  0  0  0
   -4.5523   -0.0805   -2.7947 C   0  0  0  0  0  0  0  0  0  0  0  0
   -4.4352   -0.1147   -4.3274 C   0  0  0  0  0  0  0  0  0  0  0  0
   -3.2381    0.2045   -2.1640 C   0  0  0  0  0  0  0  0  0  0  0  0
   -3.2355    0.1282   -0.6530 C   0  0  2  0  0  0  0  0  0  0  0  0
   -1.8375    0.4979   -0.2486 N   0  0  0  0  0  0  0  0  0  0  0  0
   -1.6196    1.4867    0.7123 C   0  0  0  0  0  0  0  0  0  0  0  0
   -2.7156    2.0068    1.1832 O   0  0  0  0  0  0  0  0  0  0  0  0
   -0.3589    1.9951    1.2380 C   0  0  2  0  0  0  0  0  0  0  0  0
   -0.1828    3.4834    0.8945 C   0  0  0  0  0  0  0  0  0  0  0  0
    0.4248    3.4349   -0.4935 C   0  0  0  0  0  0  0  0  0  0  0  0
    1.0273    2.0418   -0.5860 C   0  0  0  0  0  0  0  0  0  0  0  0
    0.8632    1.4621    0.7278 N   0  0  0  0  0  0  0  0  0  0  0  0
    1.7525    0.5922    1.3850 C   0  0  0  0  0  0  0  0  0  0  0  0
    1.5314    0.1608    2.5329 O   0  0  0  0  0  0  0  0  0  0  0  0
    3.0264    0.1545    0.7182 C   0  0  2  0  0  0  0  0  0  0  0  0
    2.8767   -1.2929    0.3357 C   0  0  0  0  0  0  0  0  0  0  0  0
    1.7102   -1.4497   -0.5964 C   0  0  0  0  0  0  0  0  0  0  0  0
    1.6038   -2.9256   -0.9492 C   0  0  0  0  0  0  0  0  0  0  0  0
    0.4939   -3.1533   -1.8407 N   0  0  0  0  0  0  0  0  0  0  0  0
    0.1999   -4.4568   -2.2766 C   0  0  0  0  0  0  0  0  0  0  0  0
    1.0526   -5.5273   -1.9575 N   0  0  0  0  0  0  0  0  0  0  0  0
   -0.8551   -4.6772   -2.9700 N   0  0  0  0  0  0  0  0  0  0  0  0
    4.0477    0.2457    1.7866 N   0  0  0  0  0  0  0  0  0  0  0  0
    4.8843    1.3780    1.9069 C   0  0  0  0  0  0  0  0  0  0  0  0
    4.7226    2.3311    1.0676 O   0  0  0  0  0  0  0  0  0  0  0  0
    5.8626    1.5340    2.8623 O   0  0  0  0  0  0  0  0  0  0  0  0
    6.6974    2.6379    3.0274 C   0  0  0  0  0  0  0  0  0  0  0  0
    7.5498    2.9822    1.8824 C   0  0  0  0  0  0  0  0  0  0  0  0
    8.1580    4.2337    1.7844 C   0  0  0  0  0  0  0  0  0  0  0  0
    8.9522    4.5897    0.7339 C   0  0  0  0  0  0  0  0  0  0  0  0
    9.1532    3.6660   -0.2640 C   0  0  0  0  0  0  0  0  0  0  0  0
    8.5677    2.4275   -0.1938 C   0  0  0  0  0  0  0  0  0  0  0  0
    7.7702    2.0825    0.8710 C   0  0  0  0  0  0  0  0  0  0  0  0
   -3.4558   -1.2543   -0.1710 C   0  0  0  0  0  0  0  0  0  0  0  0
   -2.5592   -2.1036   -0.3587 O   0  0  0  0  0  0  0  0  0  0  0  0
   -4.6765   -1.6423    0.5173 C   0  0  0  0  0  0  0  0  0  0  0  0
   -5.0267   -2.8188    0.9938 N   0  0  0  0  0  0  0  0  0  0  0  0
   -6.1533   -2.9831    1.6168 C   0  0  0  0  0  0  0  0  0  0  0  0
   -6.6250   -4.1952    2.1731 C   0  0  0  0  0  0  0  0  0  0  0  0
   -7.8229   -4.2147    2.8018 C   0  0  0  0  0  0  0  0  0  0  0  0
   -8.6656   -3.1193    2.9594 C   0  0  0  0  0  0  0  0  0  0  0  0
   -8.2008   -1.9388    2.4152 C   0  0  0  0  0  0  0  0  0  0  0  0
   -6.9638   -1.8866    1.7586 C   0  0  0  0  0  0  0  0  0  0  0  0
   -6.0375   -0.6872    0.9786 S   0  0  0  0  0  0  0  0  0  0  0  0
   -5.5056    1.3744   -1.4723 H   0  0  0  0  0  0  0  0  0  0  0  0
   -5.7547    1.6962   -3.1951 H   0  0  0  0  0  0  0  0  0  0  0  0
   -6.6656    0.3797   -2.4120 H   0  0  0  0  0  0  0  0  0  0  0  0
   -4.9287   -1.1046   -2.5283 H   0  0  0  0  0  0  0  0  0  0  0  0
   -4.0309   -1.1117   -4.5880 H   0  0  0  0  0  0  0  0  0  0  0  0
   -5.4433   -0.0341   -4.7438 H   0  0  0  0  0  0  0  0  0  0  0  0
   -3.7647    0.7045   -4.6663 H   0  0  0  0  0  0  0  0  0  0  0  0
   -2.4375   -0.4389   -2.6021 H   0  0  0  0  0  0  0  0  0  0  0  0
   -3.0118    1.2946   -2.3879 H   0  0  0  0  0  0  0  0  0  0  0  0
   -3.8782    0.8904   -0.2427 H   0  0  0  0  0  0  0  0  0  0  0  0
   -1.0820   -0.0014   -0.7130 H   0  0  0  0  0  0  0  0  0  0  0  0
   -0.4166    1.9655    2.3527 H   0  0  0  0  0  0  0  0  0  0  0  0
   -1.1048    4.0513    0.9674 H   0  0  0  0  0  0  0  0  0  0  0  0
    0.5519    3.9001    1.6062 H   0  0  0  0  0  0  0  0  0  0  0  0
   -0.3409    3.6321   -1.2528 H   0  0  0  0  0  0  0  0  0  0  0  0
    1.1919    4.2278   -0.5828 H   0  0  0  0  0  0  0  0  0  0  0  0
    2.1054    2.2167   -0.8593 H   0  0  0  0  0  0  0  0  0  0  0  0
    0.6181    1.4601   -1.4122 H   0  0  0  0  0  0  0  0  0  0  0  0
    3.3104    0.8447   -0.0654 H   0  0  0  0  0  0  0  0  0  0  0  0
    2.5938   -1.8446    1.2778 H   0  0  0  0  0  0  0  0  0  0  0  0
    3.8121   -1.7191   -0.0791 H   0  0  0  0  0  0  0  0  0  0  0  0
    1.8549   -0.8400   -1.4906 H   0  0  0  0  0  0  0  0  0  0  0  0
    0.7915   -1.1111   -0.0628 H   0  0  0  0  0  0  0  0  0  0  0  0
    1.4372   -3.4758    0.0055 H   0  0  0  0  0  0  0  0  0  0  0  0
    2.5796   -3.2060   -1.4210 H   0  0  0  0  0  0  0  0  0  0  0  0
   -0.0858   -2.3520   -2.1590 H   0  0  0  0  0  0  0  0  0  0  0  0
    1.6069   -5.9851   -2.6997 H   0  0  0  0  0  0  0  0  0  0  0  0
    1.1228   -5.8558   -0.9794 H   0  0  0  0  0  0  0  0  0  0  0  0
   -1.4889   -3.8959   -3.2077 H   0  0  0  0  0  0  0  0  0  0  0  0
    4.1678   -0.5301    2.4705 H   0  0  0  0  0  0  0  0  0  0  0  0
    6.1359    3.5415    3.3657 H   0  0  0  0  0  0  0  0  0  0  0  0
    7.3763    2.3905    3.8877 H   0  0  0  0  0  0  0  0  0  0  0  0
    7.9806    4.9469    2.5926 H   0  0  0  0  0  0  0  0  0  0  0  0
    9.4179    5.5786    0.6786 H   0  0  0  0  0  0  0  0  0  0  0  0
    9.7755    3.9116   -1.1127 H   0  0  0  0  0  0  0  0  0  0  0  0
    8.7671    1.7348   -1.0243 H   0  0  0  0  0  0  0  0  0  0  0  0
    7.3319    1.0936    0.8840 H   0  0  0  0  0  0  0  0  0  0  0  0
   -6.0507   -5.1067    2.1102 H   0  0  0  0  0  0  0  0  0  0  0  0
   -8.1999   -5.1375    3.2366 H   0  0  0  0  0  0  0  0  0  0  0  0
   -9.6149   -3.1528    3.4619 H   0  0  0  0  0  0  0  0  0  0  0  0
   -8.7779   -1.0345    2.4835 H   0  0  0  0  0  0  0  0  0  0  0  0
  1  2  1  0
  2  3  1  0
  2  4  1  0
  4  5  1  0
  5  6  1  0
  6  7  1  0
  7  8  2  0
  7  9  1  0
  9 10  1  0
 10 11  1  0
 11 12  1  0
 12 13  1  0
 13 14  1  0
 14 15  2  0
 14 16  1  0
 16 17  1  0
 17 18  1  0
 18 19  1  0
 19 20  1  0
 20 21  1  0
 21 22  1  0
 21 23  2  3
 16 24  1  0
 24 25  1  0
 25 26  2  0
 25 27  1  0
 27 28  1  0
 28 29  1  0
 29 30  2  0
 30 31  1  0
 31 32  2  0
 32 33  1  0
 33 34  2  0
  5 35  1  0
 35 36  2  0
 35 37  1  0
 37 38  2  0
 38 39  1  0
 39 40  2  0
 40 41  1  0
 41 42  2  0
 42 43  1  0
 43 44  2  0
 44 45  1  0
 13  9  1  0
 34 29  1  0
 45 37  1  0
 44 39  1  0
  1 46  1  0
  1 47  1  0
  1 48  1  0
  2 49  1  0
  3 50  1  0
  3 51  1  0
  3 52  1  0
  4 53  1  0
  4 54  1  0
  5 55  1  1
  6 56  1  0
  9 57  1  1
 10 58  1  0
 10 59  1  0
 11 60  1  0
 11 61  1  0
 12 62  1  0
 12 63  1  0
 16 64  1  6
 17 65  1  0
 17 66  1  0
 18 67  1  0
 18 68  1  0
 19 69  1  0
 19 70  1  0
 20 71  1  0
 22 72  1  0
 22 73  1  0
 23 74  1  0
 24 75  1  0
 28 76  1  0
 28 77  1  0
 30 78  1  0
 31 79  1  0
 32 80  1  0
 33 81  1  0
 34 82  1  0
 40 83  1  0
 41 84  1  0
 42 85  1  0
 43 86  1  0
M  END
$$$$
[H]Oc1c([H])c([H])c(C(=O)/C([H])=C(\[H])c2c([H])c([H])c(O[H])c(O[H])c2[H])c(O[H])c1[H]
     RDKit          3D

 32 33  0  0  0  0  0  0  0  0999 V2000
    6.3435    1.0006    0.1915 O   0  0  0  0  0  0  0  0  0  0  0  0
    5.0738    0.4602    0.0394 C   0  0  0  0  0  0  0  0  0  0  0  0
    4.9158   -0.8403   -0.3841 C   0  0  0  0  0  0  0  0  0  0  0  0
    3.6304   -1.3176   -0.5153 C   0  0  0  0  0  0  0  0  0  0  0  0
    2.5139   -0.5632   -0.2457 C   0  0  0  0  0  0  0  0  0  0  0  0
    1.1827   -1.0999   -0.3955 C   0  0  0  0  0  0  0  0  0  0  0  0
    0.0524   -0.4658   -0.1652 C   0  0  0  0  0  0  0  0  0  0  0  0
   -1.2546   -1.1050   -0.3490 C   0  0  0  0  0  0  0  0  0  0  0  0
   -1.2721   -2.3091   -0.7437 O   0  0  0  0  0  0  0  0  0  0  0  0
   -2.5050   -0.4091   -0.0960 C   0  0  0  0  0  0  0  0  0  0  0  0
   -2.5600    0.8980    0.3339 C   0  0  0  0  0  0  0  0  0  0  0  0
   -3.8109    1.4802    0.5496 C   0  0  0  0  0  0  0  0  0  0  0  0
   -4.9956    0.8192    0.3562 C   0  0  0  0  0  0  0  0  0  0  0  0
   -6.2389    1.3749    0.5631 O   0  0  0  0  0  0  0  0  0  0  0  0
   -4.9264   -0.4854   -0.0732 C   0  0  0  0  0  0  0  0  0  0  0  0
   -3.6969   -1.0763   -0.2914 C   0  0  0  0  0  0  0  0  0  0  0  0
   -3.6461   -2.4133   -0.7311 O   0  0  0  0  0  0  0  0  0  0  0  0
    2.6932    0.7307    0.1751 C   0  0  0  0  0  0  0  0  0  0  0  0
    3.9887    1.2481    0.3193 C   0  0  0  0  0  0  0  0  0  0  0  0
    4.1923    2.5493    0.7421 O   0  0  0  0  0  0  0  0  0  0  0  0
    7.1547    0.4342   -0.0102 H   0  0  0  0  0  0  0  0  0  0  0  0
    5.7926   -1.4366   -0.5970 H   0  0  0  0  0  0  0  0  0  0  0  0
    3.4556   -2.3406   -0.8474 H   0  0  0  0  0  0  0  0  0  0  0  0
    1.0825   -2.1288   -0.7311 H   0  0  0  0  0  0  0  0  0  0  0  0
    0.1053    0.5567    0.1692 H   0  0  0  0  0  0  0  0  0  0  0  0
   -1.6576    1.4725    0.5046 H   0  0  0  0  0  0  0  0  0  0  0  0
   -3.8734    2.5157    0.8906 H   0  0  0  0  0  0  0  0  0  0  0  0
   -6.7604    1.8656   -0.1598 H   0  0  0  0  0  0  0  0  0  0  0  0
   -5.8240   -1.0678   -0.2466 H   0  0  0  0  0  0  0  0  0  0  0  0
   -4.4748   -2.9388   -0.8871 H   0  0  0  0  0  0  0  0  0  0  0  0
    1.8919    1.4168    0.4160 H   0  0  0  0  0  0  0  0  0  0  0  0
    3.4274    3.1750    0.9624 H   0  0  0  0  0  0  0  0  0  0  0  0
  1  2  1  0
  2  3  2  0
  3  4  1  0
  4  5  2  0
  5  6  1  0
  6  7  2  0
  7  8  1  0
  8  9  2  0
  8 10  1  0
 10 11  2  0
 11 12  1  0
 12 13  2  0
 13 14  1  0
 13 15  1  0
 15 16  2  0
 16 17  1  0
  5 18  1  0
 18 19  2  0
 19 20  1  0
 19  2  1  0
 16 10  1  0
  1 21  1  0
  3 22  1  0
  4 23  1  0
  6 24  1  0
  7 25  1  0
 11 26  1  0
 12 27  1  0
 14 28  1  0
 15 29  1  0
 17 30  1  0
 18 31  1  0
 20 32  1  0
M  END
$$$$
[H]c1nc2c(nc([H])c(=O)n2[H])c(Oc2c([H])c([H])c(N([H])C(=O)N([H])c3c([H])c(C(C([H])([H])[H])(C([H])([H])[H])C([H])([H])[H])nn3-c3c([H])c([H])c(OC([H])([H])[H])c([H])c3[H])c3c([H])c([H])c([H])c([H])c23)c1[H]
     RDKit          3D

 72 77  0  0  0  0  0  0  0  0999 V2000
   -5.1485    6.2319   -1.4754 C   0  0  0  0  0  0  0  0  0  0  0  0
   -5.2814    5.0522   -2.2976 O   0  0  0  0  0  0  0  0  0  0  0  0
   -5.0233    3.8127   -1.7209 C   0  0  0  0  0  0  0  0  0  0  0  0
   -4.6121    3.6866   -0.4155 C   0  0  0  0  0  0  0  0  0  0  0  0
   -4.3702    2.4664    0.1584 C   0  0  0  0  0  0  0  0  0  0  0  0
   -4.5135    1.3176   -0.5218 C   0  0  0  0  0  0  0  0  0  0  0  0
   -4.9297    1.4170   -1.8771 C   0  0  0  0  0  0  0  0  0  0  0  0
   -5.1767    2.6579   -2.4504 C   0  0  0  0  0  0  0  0  0  0  0  0
   -4.3540    0.0232    0.0620 N   0  0  0  0  0  0  0  0  0  0  0  0
   -5.4522   -0.7221    0.2962 N   0  0  0  0  0  0  0  0  0  0  0  0
   -5.1548   -1.8679    0.8495 C   0  0  0  0  0  0  0  0  0  0  0  0
   -3.7813   -1.8573    0.9863 C   0  0  0  0  0  0  0  0  0  0  0  0
   -3.2545   -0.6207    0.4671 C   0  0  0  0  0  0  0  0  0  0  0  0
   -1.8810   -0.4983    0.3884 N   0  0  0  0  0  0  0  0  0  0  0  0
   -1.0655    0.3675   -0.4308 C   0  0  0  0  0  0  0  0  0  0  0  0
   -1.6012    1.1091   -1.2349 O   0  0  0  0  0  0  0  0  0  0  0  0
    0.3158    0.3383   -0.2974 N   0  0  0  0  0  0  0  0  0  0  0  0
    1.6429    0.3157   -0.1752 C   0  0  0  0  0  0  0  0  0  0  0  0
    2.4008    1.4529   -0.5463 C   0  0  0  0  0  0  0  0  0  0  0  0
    3.7237    1.5280   -0.3982 C   0  0  0  0  0  0  0  0  0  0  0  0
    4.4334    0.4368    0.1503 C   0  0  0  0  0  0  0  0  0  0  0  0
    5.7870    0.6864    0.2057 O   0  0  0  0  0  0  0  0  0  0  0  0
    6.7849    0.1516   -0.5506 C   0  0  0  0  0  0  0  0  0  0  0  0
    6.6911   -0.8769   -1.4339 C   0  0  0  0  0  0  0  0  0  0  0  0
    7.7958   -1.3436   -2.1707 C   0  0  0  0  0  0  0  0  0  0  0  0
    8.9621   -0.7415   -1.9867 N   0  0  0  0  0  0  0  0  0  0  0  0
    9.1116    0.2926   -1.1223 C   0  0  0  0  0  0  0  0  0  0  0  0
   10.3210    0.8882   -1.0250 N   0  0  0  0  0  0  0  0  0  0  0  0
   10.4976    1.9366   -0.2032 C   0  0  0  0  0  0  0  0  0  0  0  0
   11.6159    2.5067   -0.1157 O   0  0  0  0  0  0  0  0  0  0  0  0
    9.3915    2.3905    0.5414 C   0  0  0  0  0  0  0  0  0  0  0  0
    8.2003    1.7984    0.4356 N   0  0  0  0  0  0  0  0  0  0  0  0
    8.0489    0.7509   -0.3982 C   0  0  0  0  0  0  0  0  0  0  0  0
    3.7456   -0.6530    0.5200 C   0  0  0  0  0  0  0  0  0  0  0  0
    4.4464   -1.7085    1.0917 C   0  0  0  0  0  0  0  0  0  0  0  0
    3.8154   -2.8434    1.5129 C   0  0  0  0  0  0  0  0  0  0  0  0
    2.4597   -2.9194    1.3651 C   0  0  0  0  0  0  0  0  0  0  0  0
    1.7586   -1.8812    0.8004 C   0  0  0  0  0  0  0  0  0  0  0  0
    2.3677   -0.7263    0.3660 C   0  0  0  0  0  0  0  0  0  0  0  0
   -6.0302   -3.0302    1.2522 C   0  0  0  0  0  0  0  0  0  0  0  0
   -7.3181   -3.0055    0.4272 C   0  0  0  0  0  0  0  0  0  0  0  0
   -5.3302   -4.3405    0.9722 C   0  0  0  0  0  0  0  0  0  0  0  0
   -6.3821   -2.9770    2.6908 C   0  0  0  0  0  0  0  0  0  0  0  0
   -4.1233    6.4052   -1.1982 H   0  0  0  0  0  0  0  0  0  0  0  0
   -5.4299    7.0810   -2.1572 H   0  0  0  0  0  0  0  0  0  0  0  0
   -5.7751    6.1634   -0.5693 H   0  0  0  0  0  0  0  0  0  0  0  0
   -4.4773    4.6434    0.1192 H   0  0  0  0  0  0  0  0  0  0  0  0
   -4.0775    2.4880    1.2003 H   0  0  0  0  0  0  0  0  0  0  0  0
   -5.0460    0.4887   -2.3927 H   0  0  0  0  0  0  0  0  0  0  0  0
   -5.5186    2.6876   -3.4862 H   0  0  0  0  0  0  0  0  0  0  0  0
   -3.2396   -2.6523    1.4112 H   0  0  0  0  0  0  0  0  0  0  0  0
   -1.3295   -1.1379    1.0767 H   0  0  0  0  0  0  0  0  0  0  0  0
    0.4301    0.7515   -1.6111 H   0  0  0  0  0  0  0  0  0  0  0  0
    1.8307    2.2987   -0.9775 H   0  0  0  0  0  0  0  0  0  0  0  0
    4.3120    2.3972   -0.6848 H   0  0  0  0  0  0  0  0  0  0  0  0
    5.7565   -1.3432   -1.6231 H   0  0  0  0  0  0  0  0  0  0  0  0
    7.6624   -2.1662   -2.8732 H   0  0  0  0  0  0  0  0  0  0  0  0
   11.1207    0.5356   -1.5878 H   0  0  0  0  0  0  0  0  0  0  0  0
    9.5921    3.2252    1.1754 H   0  0  0  0  0  0  0  0  0  0  0  0
    5.5308   -1.6576    1.2623 H   0  0  0  0  0  0  0  0  0  0  0  0
    4.3610   -3.6651    1.9604 H   0  0  0  0  0  0  0  0  0  0  0  0
    1.8941   -3.7528    1.6919 H   0  0  0  0  0  0  0  0  0  0  0  0
    0.7028   -1.9648    0.6647 H   0  0  0  0  0  0  0  0  0  0  0  0
   -7.9166   -3.9099    0.6408 H   0  0  0  0  0  0  0  0  0  0  0  0
   -7.0866   -2.8670   -0.6285 H   0  0  0  0  0  0  0  0  0  0  0  0
   -7.9428   -2.1561    0.7466 H   0  0  0  0  0  0  0  0  0  0  0  0
   -4.3061   -4.3632    1.4266 H   0  0  0  0  0  0  0  0  0  0  0  0
   -5.1869   -4.4345   -0.1227 H   0  0  0  0  0  0  0  0  0  0  0  0
   -5.8896   -5.1825    1.3920 H   0  0  0  0  0  0  0  0  0  0  0  0
   -6.5953   -3.9989    3.0352 H   0  0  0  0  0  0  0  0  0  0  0  0
   -7.3316   -2.3635    2.8482 H   0  0  0  0  0  0  0  0  0  0  0  0
   -5.5784   -2.5527    3.3106 H   0  0  0  0  0  0  0  0  0  0  0  0
  1  2  1  0
  2  3  1  0
  3  4  2  0
  4  5  1  0
  5  6  2  0
  6  7  1  0
  7  8  2  0
  6  9  1  0
  9 10  1  0
 10 11  2  0
 11 12  1  0
 12 13  2  0
 13 14  1  0
 14 15  1  0
 15 16  2  0
 15 17  1  0
 17 18  1  0
 18 19  2  0
 19 20  1  0
 20 21  2  0
 21 22  1  0
 22 23  1  0
 23 24  2  0
 24 25  1  0
 25 26  2  0
 26 27  1  0
 27 28  1  0
 28 29  1  0
 29 30  2  0
 29 31  1  0
 31 32  2  0
 32 33  1  0
 21 34  1  0
 34 35  2  0
 35 36  1  0
 36 37  2  0
 37 38  1  0
 38 39  2  0
 11 40  1  0
 40 41  1  0
 40 42  1  0
 40 43  1  0
  8  3  1  0
 13  9  1  0
 39 18  1  0
 33 23  1  0
 39 34  1  0
 33 27  2  0
  1 44  1  0
  1 45  1  0
  1 46  1  0
  4 47  1  0
  5 48  1  0
  7 49  1  0
  8 50  1  0
 12 51  1  0
 14 52  1  0
 17 53  1  0
 19 54  1  0
 20 55  1  0
 24 56  1  0
 25 57  1  0
 28 58  1  0
 31 59  1  0
 35 60  1  0
 36 61  1  0
 37 62  1  0
 38 63  1  0
 41 64  1  0
 41 65  1  0
 41 66  1  0
 42 67  1  0
 42 68  1  0
 42 69  1  0
 43 70  1  0
 43 71  1  0
 43 72  1  0
M  END
$$$$
[H]c1nc(N([H])c2c([H])c(OC([H])([H])[H])c(OC([H])([H])[H])c(OC([H])([H])[H])c2[H])nc(N([H])c2nc3c(c([H])c2[H])OC(C([H])([H])[H])(C([H])([H])[H])C(=O)N3[H])c1F
     RDKit          3D

 57 60  0  0  0  0  0  0  0  0999 V2000
   -5.6364    2.1181   -1.8630 C   0  0  0  0  0  0  0  0  0  0  0  0
   -5.8443    0.7587   -1.5880 O   0  0  0  0  0  0  0  0  0  0  0  0
   -4.8072    0.0010   -1.0783 C   0  0  0  0  0  0  0  0  0  0  0  0
   -3.5618    0.6012   -0.8432 C   0  0  0  0  0  0  0  0  0  0  0  0
   -2.5031   -0.0703   -0.3477 C   0  0  0  0  0  0  0  0  0  0  0  0
   -1.2316    0.4626   -0.0655 N   0  0  0  0  0  0  0  0  0  0  0  0
   -0.9067    1.8244    0.0656 C   0  0  0  0  0  0  0  0  0  0  0  0
   -1.7494    2.8585   -0.0431 N   0  0  0  0  0  0  0  0  0  0  0  0
   -1.4116    4.1432    0.0863 C   0  0  0  0  0  0  0  0  0  0  0  0
   -0.1125    4.4539    0.3502 C   0  0  0  0  0  0  0  0  0  0  0  0
    0.3587    5.6995    0.5032 F   0  0  0  0  0  0  0  0  0  0  0  0
    0.8217    3.4140    0.4762 C   0  0  0  0  0  0  0  0  0  0  0  0
    2.1801    3.7060    0.7505 N   0  0  0  0  0  0  0  0  0  0  0  0
    3.1050    2.6399    0.8733 C   0  0  0  0  0  0  0  0  0  0  0  0
    4.4571    2.8965    1.1446 C   0  0  0  0  0  0  0  0  0  0  0  0
    5.3443    1.8517    1.2613 C   0  0  0  0  0  0  0  0  0  0  0  0
    4.9285    0.5481    1.1161 C   0  0  0  0  0  0  0  0  0  0  0  0
    5.7961   -0.5293    1.2273 O   0  0  0  0  0  0  0  0  0  0  0  0
    5.5066   -1.7939    0.6515 C   0  0  0  0  0  0  0  0  0  0  0  0
    6.2846   -2.8749    1.3459 C   0  0  0  0  0  0  0  0  0  0  0  0
    5.8127   -1.7705   -0.8228 C   0  0  0  0  0  0  0  0  0  0  0  0
    4.0556   -2.1122    0.8177 C   0  0  0  0  0  0  0  0  0  0  0  0
    3.6763   -3.3008    1.0572 O   0  0  0  0  0  0  0  0  0  0  0  0
    3.1427   -1.0383    0.6962 N   0  0  0  0  0  0  0  0  0  0  0  0
    3.5828    0.3027    0.8467 C   0  0  0  0  0  0  0  0  0  0  0  0
    2.7547    1.3550    0.7416 N   0  0  0  0  0  0  0  0  0  0  0  0
    0.3826    2.1601    0.3289 N   0  0  0  0  0  0  0  0  0  0  0  0
   -2.7045   -1.4372   -0.0691 C   0  0  0  0  0  0  0  0  0  0  0  0
   -3.9082   -2.0549   -0.2874 C   0  0  0  0  0  0  0  0  0  0  0  0
   -4.0666   -3.3859   -0.0045 O   0  0  0  0  0  0  0  0  0  0  0  0
   -2.9762   -4.1177    0.5153 C   0  0  0  0  0  0  0  0  0  0  0  0
   -4.9761   -1.3425   -0.7952 C   0  0  0  0  0  0  0  0  0  0  0  0
   -6.2188   -1.9257   -1.0338 O   0  0  0  0  0  0  0  0  0  0  0  0
   -7.1743   -1.9137    0.0186 C   0  0  0  0  0  0  0  0  0  0  0  0
   -4.7813    2.3111   -2.5387 H   0  0  0  0  0  0  0  0  0  0  0  0
   -5.4850    2.7232   -0.9417 H   0  0  0  0  0  0  0  0  0  0  0  0
   -6.5386    2.5082   -2.4098 H   0  0  0  0  0  0  0  0  0  0  0  0
   -3.4970    1.6360   -1.0973 H   0  0  0  0  0  0  0  0  0  0  0  0
   -0.4103   -0.2136    0.0641 H   0  0  0  0  0  0  0  0  0  0  0  0
   -2.1604    4.9024   -0.0184 H   0  0  0  0  0  0  0  0  0  0  0  0
    2.4712    4.6872    0.8556 H   0  0  0  0  0  0  0  0  0  0  0  0
    4.7318    3.9285    1.2492 H   0  0  0  0  0  0  0  0  0  0  0  0
    6.3943    2.0780    1.4734 H   0  0  0  0  0  0  0  0  0  0  0  0
    5.7812   -3.1588    2.2953 H   0  0  0  0  0  0  0  0  0  0  0  0
    7.3278   -2.5920    1.5737 H   0  0  0  0  0  0  0  0  0  0  0  0
    6.3119   -3.7970    0.7168 H   0  0  0  0  0  0  0  0  0  0  0  0
    5.5475   -2.7321   -1.2838 H   0  0  0  0  0  0  0  0  0  0  0  0
    5.2428   -0.9509   -1.3072 H   0  0  0  0  0  0  0  0  0  0  0  0
    6.8942   -1.5474   -0.9277 H   0  0  0  0  0  0  0  0  0  0  0  0
    2.1474   -1.2464    0.4955 H   0  0  0  0  0  0  0  0  0  0  0  0
   -1.8577   -2.0119    0.3366 H   0  0  0  0  0  0  0  0  0  0  0  0
   -2.2185   -4.1935   -0.2936 H   0  0  0  0  0  0  0  0  0  0  0  0
   -3.3828   -5.1246    0.7905 H   0  0  0  0  0  0  0  0  0  0  0  0
   -2.5554   -3.6060    1.4036 H   0  0  0  0  0  0  0  0  0  0  0  0
   -7.4919   -2.9486    0.2973 H   0  0  0  0  0  0  0  0  0  0  0  0
   -8.0902   -1.3564   -0.3279 H   0  0  0  0  0  0  0  0  0  0  0  0
   -6.7818   -1.4227    0.9319 H   0  0  0  0  0  0  0  0  0  0  0  0
  1  2  1  0
  2  3  1  0
  3  4  2  0
  4  5  1  0
  5  6  1  0
  6  7  1  0
  7  8  2  0
  8  9  1  0
  9 10  2  0
 10 11  1  0
 10 12  1  0
 12 13  1  0
 13 14  1  0
 14 15  2  0
 15 16  1  0
 16 17  2  0
 17 18  1  0
 18 19  1  0
 19 20  1  0
 19 21  1  0
 19 22  1  0
 22 23  2  0
 22 24  1  0
 24 25  1  0
 25 26  2  0
 12 27  2  0
  5 28  2  0
 28 29  1  0
 29 30  1  0
 30 31  1  0
 29 32  2  0
 32 33  1  0
 33 34  1  0
 32  3  1  0
 27  7  1  0
 26 14  1  0
 25 17  1  0
  1 35  1  0
  1 36  1  0
  1 37  1  0
  4 38  1  0
  6 39  1  0
  9 40  1  0
 13 41  1  0
 15 42  1  0
 16 43  1  0
 20 44  1  0
 20 45  1  0
 20 46  1  0
 21 47  1  0
 21 48  1  0
 21 49  1  0
 24 50  1  0
 28 51  1  0
 31 52  1  0
 31 53  1  0
 31 54  1  0
 34 55  1  0
 34 56  1  0
 34 57  1  0
M  END
$$$$
[H]N=C(N([H])[H])N([H])C([H])([H])C([H])([H])C([H])([H])[C@@]([H])(C(=O)c1nc([H])c([H])s1)N([H])C(=O)[C@@]([H])(N([H])C(=O)[C@@]([H])(N([H])C(=O)[C@@]([H])(N([H])C(=O)C([H])([H])[H])C([H])([H])C([H])([H])C([H])([H])C([H])([H])N([H])[H])C([H])([H])C([H])([H])C(=O)N([H])[H])C([H])([H])C([H])(C([H])([H])[H])C([H])([H])[H]
     RDKit          3D

 93 93  0  0  0  0  0  0  0  0999 V2000
    1.2703    0.3239    5.0685 C   0  0  0  0  0  0  0  0  0  0  0  0
    1.7589   -0.9576    4.4360 C   0  0  0  0  0  0  0  0  0  0  0  0
    3.2447   -0.9508    4.2826 C   0  0  0  0  0  0  0  0  0  0  0  0
    1.0293   -1.3651    3.2308 C   0  0  0  0  0  0  0  0  0  0  0  0
    0.9619   -0.4784    2.0540 C   0  0  2  0  0  0  0  0  0  0  0  0
    0.1158   -1.2595    1.0778 N   0  0  0  0  0  0  0  0  0  0  0  0
   -1.1819   -0.8620    0.7391 C   0  0  0  0  0  0  0  0  0  0  0  0
   -1.6887    0.1565    1.2420 O   0  0  0  0  0  0  0  0  0  0  0  0
   -1.9523   -1.6628   -0.2245 C   0  0  2  0  0  0  0  0  0  0  0  0
   -1.2375   -1.8074   -1.5502 C   0  0  0  0  0  0  0  0  0  0  0  0
   -0.9772   -0.4805   -2.2088 C   0  0  0  0  0  0  0  0  0  0  0  0
   -0.2790   -0.7394   -3.4972 C   0  0  0  0  0  0  0  0  0  0  0  0
    0.1258    0.3219   -4.3600 N   0  0  0  0  0  0  0  0  0  0  0  0
   -0.0057   -1.9037   -3.9002 O   0  0  0  0  0  0  0  0  0  0  0  0
   -3.3179   -1.1593   -0.4272 N   0  0  0  0  0  0  0  0  0  0  0  0
   -4.4419   -1.9156   -0.1308 C   0  0  0  0  0  0  0  0  0  0  0  0
   -4.2116   -3.0997    0.3267 O   0  0  0  0  0  0  0  0  0  0  0  0
   -5.8408   -1.5582   -0.2692 C   0  0  2  0  0  0  0  0  0  0  0  0
   -6.2518   -0.5363    0.7568 C   0  0  0  0  0  0  0  0  0  0  0  0
   -5.5859    0.7836    0.7154 C   0  0  0  0  0  0  0  0  0  0  0  0
   -5.8917    1.4625   -0.6139 C   0  0  0  0  0  0  0  0  0  0  0  0
   -7.3805    1.6424   -0.7745 C   0  0  0  0  0  0  0  0  0  0  0  0
   -7.9715    2.4510    0.2625 N   0  0  0  0  0  0  0  0  0  0  0  0
   -6.7073   -2.7461   -0.0622 N   0  0  0  0  0  0  0  0  0  0  0  0
   -7.5780   -3.0982   -1.1251 C   0  0  0  0  0  0  0  0  0  0  0  0
   -8.4560   -4.3026   -0.9197 C   0  0  0  0  0  0  0  0  0  0  0  0
   -7.6543   -2.4802   -2.1943 O   0  0  0  0  0  0  0  0  0  0  0  0
    2.1796   -0.2174    1.2898 C   0  0  0  0  0  0  0  0  0  0  0  0
    2.6341   -1.1455    0.5439 O   0  0  0  0  0  0  0  0  0  0  0  0
    2.8787    0.9795    1.3041 N   0  0  0  0  0  0  0  0  0  0  0  0
    4.1003    1.2345    0.4782 C   0  0  1  0  0  0  0  0  0  0  0  0
    3.6618    1.7195   -0.8208 C   0  0  0  0  0  0  0  0  0  0  0  0
    4.6418    1.9393   -1.9165 C   0  0  0  0  0  0  0  0  0  0  0  0
    5.3741    0.6266   -2.2106 C   0  0  0  0  0  0  0  0  0  0  0  0
    6.3262    0.8487   -3.2753 N   0  0  0  0  0  0  0  0  0  0  0  0
    7.1719   -0.1723   -3.7750 C   0  0  0  0  0  0  0  0  0  0  0  0
    7.3142   -1.3653   -2.9829 N   0  0  0  0  0  0  0  0  0  0  0  0
    7.7897   -0.0436   -4.8902 N   0  0  0  0  0  0  0  0  0  0  0  0
    5.1664    1.7229    1.2797 C   0  0  0  0  0  0  0  0  0  0  0  0
    5.4670    0.9940    2.3525 O   0  0  0  0  0  0  0  0  0  0  0  0
    6.0392    2.8887    1.2046 C   0  0  0  0  0  0  0  0  0  0  0  0
    7.0812    3.1258    2.0176 N   0  0  0  0  0  0  0  0  0  0  0  0
    7.7502    4.2146    1.9237 C   0  0  0  0  0  0  0  0  0  0  0  0
    7.3734    5.1288    0.9728 C   0  0  0  0  0  0  0  0  0  0  0  0
    6.0511    4.3187    0.2765 S   0  0  0  0  0  0  0  0  0  0  0  0
    1.9576    0.5239    5.9315 H   0  0  0  0  0  0  0  0  0  0  0  0
    0.2690    0.1694    5.5240 H   0  0  0  0  0  0  0  0  0  0  0  0
    1.3409    1.1965    4.4124 H   0  0  0  0  0  0  0  0  0  0  0  0
    1.5711   -1.7358    5.2703 H   0  0  0  0  0  0  0  0  0  0  0  0
    3.6015    0.1183    4.3531 H   0  0  0  0  0  0  0  0  0  0  0  0
    3.5740   -1.3058    3.2755 H   0  0  0  0  0  0  0  0  0  0  0  0
    3.7853   -1.5551    5.0527 H   0  0  0  0  0  0  0  0  0  0  0  0
    1.3706   -2.3822    2.8748 H   0  0  0  0  0  0  0  0  0  0  0  0
   -0.0460   -1.5773    3.5363 H   0  0  0  0  0  0  0  0  0  0  0  0
    0.3727    0.4393    2.2568 H   0  0  0  0  0  0  0  0  0  0  0  0
    0.5529   -2.1052    0.6754 H   0  0  0  0  0  0  0  0  0  0  0  0
   -2.0539   -2.6810    0.1906 H   0  0  0  0  0  0  0  0  0  0  0  0
   -0.2555   -2.2778   -1.3437 H   0  0  0  0  0  0  0  0  0  0  0  0
   -1.8155   -2.4759   -2.1809 H   0  0  0  0  0  0  0  0  0  0  0  0
   -0.3164    0.1663   -1.6035 H   0  0  0  0  0  0  0  0  0  0  0  0
   -1.8967    0.0993   -2.4136 H   0  0  0  0  0  0  0  0  0  0  0  0
    0.3137    1.2429   -3.9219 H   0  0  0  0  0  0  0  0  0  0  0  0
    0.2431    0.2313   -5.3865 H   0  0  0  0  0  0  0  0  0  0  0  0
   -3.4099   -0.2079   -0.8279 H   0  0  0  0  0  0  0  0  0  0  0  0
   -6.0193   -1.1364   -1.2702 H   0  0  0  0  0  0  0  0  0  0  0  0
   -6.0337   -0.9608    1.7968 H   0  0  0  0  0  0  0  0  0  0  0  0
   -7.3660   -0.4125    0.7883 H   0  0  0  0  0  0  0  0  0  0  0  0
   -4.5131    0.8055    0.9302 H   0  0  0  0  0  0  0  0  0  0  0  0
   -6.0256    1.4910    1.4952 H   0  0  0  0  0  0  0  0  0  0  0  0
   -5.5288    0.8105   -1.4222 H   0  0  0  0  0  0  0  0  0  0  0  0
   -5.3981    2.4601   -0.6701 H   0  0  0  0  0  0  0  0  0  0  0  0
   -7.5857    2.1479   -1.7543 H   0  0  0  0  0  0  0  0  0  0  0  0
   -7.9111    0.6694   -0.8463 H   0  0  0  0  0  0  0  0  0  0  0  0
   -7.9904    1.9799    1.1770 H   0  0  0  0  0  0  0  0  0  0  0  0
   -8.9265    2.7181   -0.0752 H   0  0  0  0  0  0  0  0  0  0  0  0
   -6.6615   -3.2744    0.8198 H   0  0  0  0  0  0  0  0  0  0  0  0
   -8.6966   -4.3400    0.1559 H   0  0  0  0  0  0  0  0  0  0  0  0
   -7.9568   -5.2323   -1.2775 H   0  0  0  0  0  0  0  0  0  0  0  0
   -9.4088   -4.1333   -1.4717 H   0  0  0  0  0  0  0  0  0  0  0  0
    2.5861    1.7698    1.8985 H   0  0  0  0  0  0  0  0  0  0  0  0
    4.3882    0.1123    0.2487 H   0  0  0  0  0  0  0  0  0  0  0  0
    2.9672    2.6165   -0.7577 H   0  0  0  0  0  0  0  0  0  0  0  0
    2.9328    0.9296   -1.2314 H   0  0  0  0  0  0  0  0  0  0  0  0
    3.9742    2.0407   -2.8696 H   0  0  0  0  0  0  0  0  0  0  0  0
    5.3035    2.7553   -1.9251 H   0  0  0  0  0  0  0  0  0  0  0  0
    4.6484   -0.1261   -2.5670 H   0  0  0  0  0  0  0  0  0  0  0  0
    5.9333    0.2662   -1.3198 H   0  0  0  0  0  0  0  0  0  0  0  0
    6.4051    1.7952   -3.7034 H   0  0  0  0  0  0  0  0  0  0  0  0
    8.2096   -1.5907   -2.5024 H   0  0  0  0  0  0  0  0  0  0  0  0
    6.4765   -1.9787   -2.9232 H   0  0  0  0  0  0  0  0  0  0  0  0
    7.6831    0.8148   -5.4538 H   0  0  0  0  0  0  0  0  0  0  0  0
    8.6209    4.4355    2.5870 H   0  0  0  0  0  0  0  0  0  0  0  0
    7.8382    6.1077    0.7614 H   0  0  0  0  0  0  0  0  0  0  0  0
  1  2  1  0
  2  3  1  0
  2  4  1  0
  4  5  1  0
  5  6  1  0
  6  7  1  0
  7  8  2  0
  7  9  1  0
  9 10  1  0
 10 11  1  0
 11 12  1  0
 12 13  1  0
 12 14  2  0
  9 15  1  0
 15 16  1  0
 16 17  2  0
 16 18  1  0
 18 19  1  0
 19 20  1  0
 20 21  1  0
 21 22  1  0
 22 23  1  0
 18 24  1  0
 24 25  1  0
 25 26  1  0
 25 27  2  0
  5 28  1  0
 28 29  2  0
 28 30  1  0
 30 31  1  0
 31 32  1  0
 32 33  1  0
 33 34  1  0
 34 35  1  0
 35 36  1  0
 36 37  1  0
 36 38  2  3
 31 39  1  0
 39 40  2  0
 39 41  1  0
 41 42  2  0
 42 43  1  0
 43 44  2  0
 44 45  1  0
 45 41  1  0
  1 46  1  0
  1 47  1  0
  1 48  1  0
  2 49  1  0
  3 50  1  0
  3 51  1  0
  3 52  1  0
  4 53  1  0
  4 54  1  0
  5 55  1  1
  6 56  1  0
  9 57  1  1
 10 58  1  0
 10 59  1  0
 11 60  1  0
 11 61  1  0
 13 62  1  0
 13 63  1  0
 15 64  1  0
 18 65  1  6
 19 66  1  0
 19 67  1  0
 20 68  1  0
 20 69  1  0
 21 70  1  0
 21 71  1  0
 22 72  1  0
 22 73  1  0
 23 74  1  0
 23 75  1  0
 24 76  1  0
 26 77  1  0
 26 78  1  0
 26 79  1  0
 30 80  1  0
 31 81  1  6
 32 82  1  0
 32 83  1  0
 33 84  1  0
 33 85  1  0
 34 86  1  0
 34 87  1  0
 35 88  1  0
 37 89  1  0
 37 90  1  0
 38 91  1  0
 43 92  1  0
 44 93  1  0
M  END
$$$$
[H]N=C(N([H])[H])N([H])C([H])([H])C([H])([H])C([H])([H])[C@@]([H])(C(=O)c1nc2c([H])c([H])c([H])c([H])c2s1)N([H])C(=O)[C@@]([H])(N([H])C(=O)OC(C([H])([H])[H])(C([H])([H])[H])C([H])([H])[H])C([H])([H])c1c([H])c([H])c([H])c([H])c1[H]
     RDKit          3D

 72 74  0  0  0  0  0  0  0  0999 V2000
    6.2294    2.3819    1.5683 C   0  0  0  0  0  0  0  0  0  0  0  0
    5.7072    1.0418    2.0501 C   0  0  0  0  0  0  0  0  0  0  0  0
    5.1485    1.1587    3.4261 C   0  0  0  0  0  0  0  0  0  0  0  0
    6.9376    0.1271    2.1386 C   0  0  0  0  0  0  0  0  0  0  0  0
    4.8586    0.4676    1.1086 O   0  0  0  0  0  0  0  0  0  0  0  0
    3.6856    1.0380    0.6501 C   0  0  0  0  0  0  0  0  0  0  0  0
    3.3654    2.1530    1.1173 O   0  0  0  0  0  0  0  0  0  0  0  0
    2.9233    0.3472   -0.3034 N   0  0  0  0  0  0  0  0  0  0  0  0
    1.6806    0.9641   -0.7824 C   0  0  1  0  0  0  0  0  0  0  0  0
    1.7691    1.3341   -2.2126 C   0  0  0  0  0  0  0  0  0  0  0  0
    2.0456    0.2727   -3.1709 C   0  0  0  0  0  0  0  0  0  0  0  0
    3.3570   -0.1235   -3.4069 C   0  0  0  0  0  0  0  0  0  0  0  0
    3.5606   -1.1138   -4.3407 C   0  0  0  0  0  0  0  0  0  0  0  0
    2.5260   -1.7090   -5.0313 C   0  0  0  0  0  0  0  0  0  0  0  0
    1.2226   -1.3238   -4.8056 C   0  0  0  0  0  0  0  0  0  0  0  0
    1.0218   -0.3235   -3.8621 C   0  0  0  0  0  0  0  0  0  0  0  0
    0.5642    0.1682   -0.3121 C   0  0  0  0  0  0  0  0  0  0  0  0
    0.7844   -0.9052    0.3604 O   0  0  0  0  0  0  0  0  0  0  0  0
   -0.8370    0.4775   -0.5238 N   0  0  0  0  0  0  0  0  0  0  0  0
   -1.8467   -0.3671    0.0229 C   0  0  1  0  0  0  0  0  0  0  0  0
   -2.9668    0.3743    0.6683 C   0  0  0  0  0  0  0  0  0  0  0  0
   -2.6589    1.2457    1.8104 C   0  0  0  0  0  0  0  0  0  0  0  0
   -1.7980    2.4476    1.5728 C   0  0  0  0  0  0  0  0  0  0  0  0
   -2.4458    3.3171    0.6097 N   0  0  0  0  0  0  0  0  0  0  0  0
   -3.6257    3.9906    0.9782 C   0  0  0  0  0  0  0  0  0  0  0  0
   -4.9349    3.5399    0.7009 N   0  0  0  0  0  0  0  0  0  0  0  0
   -3.4700    5.1176    1.6270 N   0  0  0  0  0  0  0  0  0  0  0  0
   -2.4108   -1.2495   -1.0448 C   0  0  0  0  0  0  0  0  0  0  0  0
   -2.1320   -1.1191   -2.2488 O   0  0  0  0  0  0  0  0  0  0  0  0
   -3.3347   -2.3298   -0.6956 C   0  0  0  0  0  0  0  0  0  0  0  0
   -3.7992   -2.7292    0.4666 N   0  0  0  0  0  0  0  0  0  0  0  0
   -4.6268   -3.7294    0.5530 C   0  0  0  0  0  0  0  0  0  0  0  0
   -5.1861   -4.2405    1.7436 C   0  0  0  0  0  0  0  0  0  0  0  0
   -6.0370   -5.2888    1.6953 C   0  0  0  0  0  0  0  0  0  0  0  0
   -6.4305   -5.9388    0.5356 C   0  0  0  0  0  0  0  0  0  0  0  0
   -5.8802   -5.4361   -0.6348 C   0  0  0  0  0  0  0  0  0  0  0  0
   -4.9943   -4.3483   -0.6115 C   0  0  0  0  0  0  0  0  0  0  0  0
   -4.1183   -3.4446   -1.7679 S   0  0  0  0  0  0  0  0  0  0  0  0
    5.6685    3.2313    1.9859 H   0  0  0  0  0  0  0  0  0  0  0  0
    6.1899    2.4041    0.4548 H   0  0  0  0  0  0  0  0  0  0  0  0
    7.3020    2.4972    1.8342 H   0  0  0  0  0  0  0  0  0  0  0  0
    4.4684    0.3484    3.7088 H   0  0  0  0  0  0  0  0  0  0  0  0
    6.0132    1.0927    4.1514 H   0  0  0  0  0  0  0  0  0  0  0  0
    4.7136    2.1719    3.6190 H   0  0  0  0  0  0  0  0  0  0  0  0
    7.5080    0.3078    3.0639 H   0  0  0  0  0  0  0  0  0  0  0  0
    7.5440    0.3811    1.2250 H   0  0  0  0  0  0  0  0  0  0  0  0
    6.5806   -0.9007    2.0057 H   0  0  0  0  0  0  0  0  0  0  0  0
    3.1860   -0.5697   -0.6873 H   0  0  0  0  0  0  0  0  0  0  0  0
    1.5613    1.9750   -0.2348 H   0  0  0  0  0  0  0  0  0  0  0  0
    0.7901    1.8279   -2.4794 H   0  0  0  0  0  0  0  0  0  0  0  0
    2.5408    2.1390   -2.3986 H   0  0  0  0  0  0  0  0  0  0  0  0
    4.1900    0.3291   -2.8776 H   0  0  0  0  0  0  0  0  0  0  0  0
    4.6036   -1.4212   -4.5209 H   0  0  0  0  0  0  0  0  0  0  0  0
    2.7555   -2.4966   -5.7661 H   0  0  0  0  0  0  0  0  0  0  0  0
    0.3874   -1.7755   -5.3356 H   0  0  0  0  0  0  0  0  0  0  0  0
   -0.0039   -0.0323   -3.7161 H   0  0  0  0  0  0  0  0  0  0  0  0
   -1.0200    1.3237   -1.0916 H   0  0  0  0  0  0  0  0  0  0  0  0
   -1.3956   -1.1068    0.7556 H   0  0  0  0  0  0  0  0  0  0  0  0
   -3.8433   -0.2865    0.8936 H   0  0  0  0  0  0  0  0  0  0  0  0
   -3.4148    1.0616   -0.1472 H   0  0  0  0  0  0  0  0  0  0  0  0
   -2.1826    0.6501    2.6530 H   0  0  0  0  0  0  0  0  0  0  0  0
   -3.6465    1.5583    2.2860 H   0  0  0  0  0  0  0  0  0  0  0  0
   -0.7461    2.2438    1.3588 H   0  0  0  0  0  0  0  0  0  0  0  0
   -1.7970    3.0647    2.5545 H   0  0  0  0  0  0  0  0  0  0  0  0
   -2.0296    3.4236   -0.3217 H   0  0  0  0  0  0  0  0  0  0  0  0
   -5.1417    2.8596   -0.0760 H   0  0  0  0  0  0  0  0  0  0  0  0
   -5.7422    3.8737    1.2659 H   0  0  0  0  0  0  0  0  0  0  0  0
   -4.2669    5.6886    1.9426 H   0  0  0  0  0  0  0  0  0  0  0  0
   -4.9526   -3.8140    2.7135 H   0  0  0  0  0  0  0  0  0  0  0  0
   -6.4652   -5.6787    2.6155 H   0  0  0  0  0  0  0  0  0  0  0  0
   -7.1066   -6.7671    0.5208 H   0  0  0  0  0  0  0  0  0  0  0  0
   -6.1020   -5.8487   -1.6042 H   0  0  0  0  0  0  0  0  0  0  0  0
  1  2  1  0
  2  3  1  0
  2  4  1  0
  2  5  1  0
  5  6  1  0
  6  7  2  0
  6  8  1  0
  8  9  1  0
  9 10  1  0
 10 11  1  0
 11 12  2  0
 12 13  1  0
 13 14  2  0
 14 15  1  0
 15 16  2  0
  9 17  1  0
 17 18  2  0
 17 19  1  0
 19 20  1  0
 20 21  1  0
 21 22  1  0
 22 23  1  0
 23 24  1  0
 24 25  1  0
 25 26  1  0
 25 27  2  3
 20 28  1  0
 28 29  2  0
 28 30  1  0
 30 31  2  0
 31 32  1  0
 32 33  2  0
 33 34  1  0
 34 35  2  0
 35 36  1  0
 36 37  2  0
 37 38  1  0
 16 11  1  0
 38 30  1  0
 37 32  1  0
  1 39  1  0
  1 40  1  0
  1 41  1  0
  3 42  1  0
  3 43  1  0
  3 44  1  0
  4 45  1  0
  4 46  1  0
  4 47  1  0
  8 48  1  0
  9 49  1  1
 10 50  1  0
 10 51  1  0
 12 52  1  0
 13 53  1  0
 14 54  1  0
 15 55  1  0
 16 56  1  0
 19 57  1  0
 20 58  1  1
 21 59  1  0
 21 60  1  0
 22 61  1  0
 22 62  1  0
 23 63  1  0
 23 64  1  0
 24 65  1  0
 26 66  1  0
 26 67  1  0
 27 68  1  0
 33 69  1  0
 34 70  1  0
 35 71  1  0
 36 72  1  0
M  END
$$$$
[H]N=C(N([H])[H])N([H])C([H])([H])C([H])([H])C([H])([H])[C@@]([H])(C([H])=O)N([H])C(=O)[C@@]1([H])N(C(=O)[C@]([H])(c2c([H])c([H])c([H])c([H])c2[H])N([H])C(=O)OC(C([H])([H])[H])(C([H])([H])[H])C([H])([H])[H])C([H])([H])C([H])([H])C1([H])[H]
     RDKit          3D

 71 72  0  0  0  0  0  0  0  0999 V2000
   -8.4949    0.8089    0.4822 C   0  0  0  0  0  0  0  0  0  0  0  0
   -7.2663    1.4125   -0.1934 C   0  0  0  0  0  0  0  0  0  0  0  0
   -7.5721    1.4493   -1.6695 C   0  0  0  0  0  0  0  0  0  0  0  0
   -7.1404    2.8247    0.3048 C   0  0  0  0  0  0  0  0  0  0  0  0
   -6.2035    0.5893    0.1220 O   0  0  0  0  0  0  0  0  0  0  0  0
   -4.8386    0.8547   -0.3232 C   0  0  0  0  0  0  0  0  0  0  0  0
   -4.8469    1.9291   -0.9822 O   0  0  0  0  0  0  0  0  0  0  0  0
   -3.8805   -0.0335    0.0239 N   0  0  0  0  0  0  0  0  0  0  0  0
   -2.9011   -0.9397    0.3778 C   0  0  2  0  0  0  0  0  0  0  0  0
   -1.5007   -0.5451    0.0294 C   0  0  0  0  0  0  0  0  0  0  0  0
   -1.3449   -0.0854   -1.1178 O   0  0  0  0  0  0  0  0  0  0  0  0
   -0.4038   -0.6727    0.9548 N   0  0  0  0  0  0  0  0  0  0  0  0
   -0.7048   -1.2796    2.2864 C   0  0  0  0  0  0  0  0  0  0  0  0
    0.5798   -1.0998    3.0936 C   0  0  0  0  0  0  0  0  0  0  0  0
    1.5717   -1.3628    1.9346 C   0  0  0  0  0  0  0  0  0  0  0  0
    0.9403   -0.3117    0.9770 C   0  0  1  0  0  0  0  0  0  0  0  0
    1.7799   -0.1238   -0.1909 C   0  0  0  0  0  0  0  0  0  0  0  0
    1.3915   -0.1451   -1.3764 O   0  0  0  0  0  0  0  0  0  0  0  0
    3.1471    0.1038    0.0393 N   0  0  0  0  0  0  0  0  0  0  0  0
    4.2597    0.3422   -0.8197 C   0  0  1  0  0  0  0  0  0  0  0  0
    5.1561    1.3893   -0.1731 C   0  0  0  0  0  0  0  0  0  0  0  0
    6.4078    1.6641   -0.9125 C   0  0  0  0  0  0  0  0  0  0  0  0
    7.2222    2.6961   -0.0847 C   0  0  0  0  0  0  0  0  0  0  0  0
    8.4973    2.9360   -0.6868 N   0  0  0  0  0  0  0  0  0  0  0  0
    9.4767    1.9144   -0.6161 C   0  0  0  0  0  0  0  0  0  0  0  0
    9.2520    0.7125    0.1013 N   0  0  0  0  0  0  0  0  0  0  0  0
   10.6340    2.0592   -1.2087 N   0  0  0  0  0  0  0  0  0  0  0  0
    5.0929   -0.8910   -0.9949 C   0  0  0  0  0  0  0  0  0  0  0  0
    4.9020   -1.9251   -0.4371 O   0  0  0  0  0  0  0  0  0  0  0  0
   -3.1899   -2.3006   -0.1617 C   0  0  0  0  0  0  0  0  0  0  0  0
   -3.4260   -2.4904   -1.5280 C   0  0  0  0  0  0  0  0  0  0  0  0
   -3.7171   -3.7559   -1.9947 C   0  0  0  0  0  0  0  0  0  0  0  0
   -3.7838   -4.8467   -1.1520 C   0  0  0  0  0  0  0  0  0  0  0  0
   -3.5499   -4.6589    0.2011 C   0  0  0  0  0  0  0  0  0  0  0  0
   -3.2567   -3.3801    0.6567 C   0  0  0  0  0  0  0  0  0  0  0  0
   -8.1350    0.3508    1.4297 H   0  0  0  0  0  0  0  0  0  0  0  0
   -8.8611    0.0010   -0.1642 H   0  0  0  0  0  0  0  0  0  0  0  0
   -9.2664    1.5822    0.6561 H   0  0  0  0  0  0  0  0  0  0  0  0
   -8.6685    1.4017   -1.7919 H   0  0  0  0  0  0  0  0  0  0  0  0
   -7.2329    2.3887   -2.1536 H   0  0  0  0  0  0  0  0  0  0  0  0
   -7.1984    0.5342   -2.2159 H   0  0  0  0  0  0  0  0  0  0  0  0
   -6.6057    3.5047   -0.3657 H   0  0  0  0  0  0  0  0  0  0  0  0
   -6.5980    2.7411    1.2914 H   0  0  0  0  0  0  0  0  0  0  0  0
   -8.1585    3.1992    0.4818 H   0  0  0  0  0  0  0  0  0  0  0  0
   -2.9642    0.7833   -0.5553 H   0  0  0  0  0  0  0  0  0  0  0  0
   -2.8971   -1.0489    1.5251 H   0  0  0  0  0  0  0  0  0  0  0  0
   -1.4548   -0.6357    2.7503 H   0  0  0  0  0  0  0  0  0  0  0  0
   -0.9662   -2.3258    2.2252 H   0  0  0  0  0  0  0  0  0  0  0  0
    0.7003   -1.7690    3.9261 H   0  0  0  0  0  0  0  0  0  0  0  0
    0.6856   -0.0206    3.3225 H   0  0  0  0  0  0  0  0  0  0  0  0
    2.5708   -1.1250    2.2465 H   0  0  0  0  0  0  0  0  0  0  0  0
    1.3539   -2.3474    1.5358 H   0  0  0  0  0  0  0  0  0  0  0  0
    1.0334    0.6797    1.5887 H   0  0  0  0  0  0  0  0  0  0  0  0
    3.4485    0.1201    1.0871 H   0  0  0  0  0  0  0  0  0  0  0  0
    3.9742    0.6784   -1.8182 H   0  0  0  0  0  0  0  0  0  0  0  0
    5.3974    1.0712    0.8795 H   0  0  0  0  0  0  0  0  0  0  0  0
    4.5588    2.3262   -0.0756 H   0  0  0  0  0  0  0  0  0  0  0  0
    6.1918    2.1522   -1.9116 H   0  0  0  0  0  0  0  0  0  0  0  0
    7.0249    0.7712   -1.0307 H   0  0  0  0  0  0  0  0  0  0  0  0
    7.3845    2.2655    0.9437 H   0  0  0  0  0  0  0  0  0  0  0  0
    6.6196    3.6183    0.0832 H   0  0  0  0  0  0  0  0  0  0  0  0
    8.7206    3.8143   -1.1638 H   0  0  0  0  0  0  0  0  0  0  0  0
    9.2124   -0.2469   -0.3418 H   0  0  0  0  0  0  0  0  0  0  0  0
    9.0943    0.7446    1.1417 H   0  0  0  0  0  0  0  0  0  0  0  0
   10.7988    2.9544   -1.7349 H   0  0  0  0  0  0  0  0  0  0  0  0
    5.9239   -0.7983   -1.6945 H   0  0  0  0  0  0  0  0  0  0  0  0
   -3.3688   -1.6456   -2.1831 H   0  0  0  0  0  0  0  0  0  0  0  0
   -3.9032   -3.8860   -3.0571 H   0  0  0  0  0  0  0  0  0  0  0  0
   -4.0276   -5.8348   -1.5354 H   0  0  0  0  0  0  0  0  0  0  0  0
   -3.6025   -5.5186    0.8376 H   0  0  0  0  0  0  0  0  0  0  0  0
   -3.0739   -3.3184    1.7454 H   0  0  0  0  0  0  0  0  0  0  0  0
  1  2  1  0
  2  3  1  0
  2  4  1  0
  2  5  1  0
  5  6  1  0
  6  7  2  0
  6  8  1  0
  8  9  1  0
  9 10  1  0
 10 11  2  0
 10 12  1  0
 12 13  1  0
 13 14  1  0
 14 15  1  0
 15 16  1  0
 16 17  1  0
 17 18  2  0
 17 19  1  0
 19 20  1  0
 20 21  1  0
 21 22  1  0
 22 23  1  0
 23 24  1  0
 24 25  1  0
 25 26  1  0
 25 27  2  3
 20 28  1  0
 28 29  2  0
  9 30  1  0
 30 31  2  0
 31 32  1  0
 32 33  2  0
 33 34  1  0
 34 35  2  0
 16 12  1  0
 35 30  1  0
  1 36  1  0
  1 37  1  0
  1 38  1  0
  3 39  1  0
  3 40  1  0
  3 41  1  0
  4 42  1  0
  4 43  1  0
  4 44  1  0
  8 45  1  0
  9 46  1  1
 13 47  1  0
 13 48  1  0
 14 49  1  0
 14 50  1  0
 15 51  1  0
 15 52  1  0
 16 53  1  1
 19 54  1  0
 20 55  1  6
 21 56  1  0
 21 57  1  0
 22 58  1  0
 22 59  1  0
 23 60  1  0
 23 61  1  0
 24 62  1  0
 26 63  1  0
 26 64  1  0
 27 65  1  0
 28 66  1  0
 31 67  1  0
 32 68  1  0
 33 69  1  0
 34 70  1  0
 35 71  1  0
M  END
$$$$
[H]/C(C(=O)N([H])c1c(OC([H])([H])[H])c([H])c2nc([H])nc(N([H])c3c([H])c([H])c(F)c(Cl)c3[H])c2c1[H])=C(/[H])C([H])([H])N1C([H])([H])[C@]2([H])OC([H])([H])C([H])([H])O[C@]2([H])C1([H])[H]
     RDKit          3D

 61 65  0  0  0  0  0  0  0  0999 V2000
   -0.5578   -3.0497    3.1485 C   0  0  0  0  0  0  0  0  0  0  0  0
   -0.3440   -2.3177    1.9578 O   0  0  0  0  0  0  0  0  0  0  0  0
    0.8541   -1.7222    1.6668 C   0  0  0  0  0  0  0  0  0  0  0  0
    1.9352   -1.7803    2.4884 C   0  0  0  0  0  0  0  0  0  0  0  0
    3.1423   -1.1958    2.2234 C   0  0  0  0  0  0  0  0  0  0  0  0
    4.1826   -1.2813    3.0704 N   0  0  0  0  0  0  0  0  0  0  0  0
    5.3452   -0.6872    2.7611 C   0  0  0  0  0  0  0  0  0  0  0  0
    5.4524   -0.0267    1.6295 N   0  0  0  0  0  0  0  0  0  0  0  0
    4.4560    0.1062    0.7249 C   0  0  0  0  0  0  0  0  0  0  0  0
    4.6713    0.8048   -0.4815 N   0  0  0  0  0  0  0  0  0  0  0  0
    5.8726    1.4689   -0.8106 C   0  0  0  0  0  0  0  0  0  0  0  0
    6.1682    1.5602   -2.1771 C   0  0  0  0  0  0  0  0  0  0  0  0
    7.2905    2.2059   -2.6204 C   0  0  0  0  0  0  0  0  0  0  0  0
    8.1500    2.7791   -1.7153 C   0  0  0  0  0  0  0  0  0  0  0  0
    9.2788    3.4310   -2.1109 F   0  0  0  0  0  0  0  0  0  0  0  0
    7.8794    2.7017   -0.3723 C   0  0  0  0  0  0  0  0  0  0  0  0
    8.9715    3.4305    0.7940 Cl  0  0  0  0  0  0  0  0  0  0  0  0
    6.7288    2.0404    0.0841 C   0  0  0  0  0  0  0  0  0  0  0  0
    3.2507   -0.5032    1.0343 C   0  0  0  0  0  0  0  0  0  0  0  0
    2.1748   -0.4112    0.1547 C   0  0  0  0  0  0  0  0  0  0  0  0
    0.9764   -1.0138    0.4583 C   0  0  0  0  0  0  0  0  0  0  0  0
   -0.1592   -0.9663   -0.3790 N   0  0  0  0  0  0  0  0  0  0  0  0
   -0.2655   -0.3418   -1.6150 C   0  0  0  0  0  0  0  0  0  0  0  0
    0.6559    0.2775   -2.1645 O   0  0  0  0  0  0  0  0  0  0  0  0
   -1.5331   -0.3793   -2.3795 C   0  0  0  0  0  0  0  0  0  0  0  0
   -2.6199   -0.9849   -1.9625 C   0  0  0  0  0  0  0  0  0  0  0  0
   -3.8396   -0.9554   -2.8215 C   0  0  0  0  0  0  0  0  0  0  0  0
   -4.9658   -0.3402   -2.1933 N   0  0  0  0  0  0  0  0  0  0  0  0
   -5.5009   -1.0987   -1.0782 C   0  0  0  0  0  0  0  0  0  0  0  0
   -6.3994   -0.0569   -0.4265 C   0  0  1  0  0  0  0  0  0  0  0  0
   -6.7646   -0.4331    0.8615 O   0  0  0  0  0  0  0  0  0  0  0  0
   -6.6499    0.6761    1.7069 C   0  0  0  0  0  0  0  0  0  0  0  0
   -5.1751    0.9631    1.8576 C   0  0  0  0  0  0  0  0  0  0  0  0
   -4.5629    1.0447    0.6093 O   0  0  0  0  0  0  0  0  0  0  0  0
   -5.4839    1.1489   -0.4235 C   0  0  1  0  0  0  0  0  0  0  0  0
   -4.7305    0.9866   -1.7252 C   0  0  0  0  0  0  0  0  0  0  0  0
    0.2587   -3.8165    3.2291 H   0  0  0  0  0  0  0  0  0  0  0  0
   -0.5434   -2.3965    4.0323 H   0  0  0  0  0  0  0  0  0  0  0  0
   -1.5342   -3.5705    3.0657 H   0  0  0  0  0  0  0  0  0  0  0  0
    1.8324   -2.3348    3.4294 H   0  0  0  0  0  0  0  0  0  0  0  0
    6.1996   -0.7516    3.4464 H   0  0  0  0  0  0  0  0  0  0  0  0
    3.8884    0.8421   -1.1979 H   0  0  0  0  0  0  0  0  0  0  0  0
    5.4870    1.1062   -2.8990 H   0  0  0  0  0  0  0  0  0  0  0  0
    7.5117    2.2708   -3.6947 H   0  0  0  0  0  0  0  0  0  0  0  0
    6.5695    2.0372    1.1570 H   0  0  0  0  0  0  0  0  0  0  0  0
    2.2739    0.1343   -0.7658 H   0  0  0  0  0  0  0  0  0  0  0  0
   -1.0460   -1.4718   -0.0190 H   0  0  0  0  0  0  0  0  0  0  0  0
   -1.5657    0.1179   -3.3313 H   0  0  0  0  0  0  0  0  0  0  0  0
   -2.6906   -1.5095   -1.0277 H   0  0  0  0  0  0  0  0  0  0  0  0
   -4.1179   -1.9994   -3.1174 H   0  0  0  0  0  0  0  0  0  0  0  0
   -3.6305   -0.4227   -3.7695 H   0  0  0  0  0  0  0  0  0  0  0  0
   -4.6585   -1.3477   -0.3861 H   0  0  0  0  0  0  0  0  0  0  0  0
   -6.0694   -1.9854   -1.4001 H   0  0  0  0  0  0  0  0  0  0  0  0
   -7.2506    0.0935   -1.1029 H   0  0  0  0  0  0  0  0  0  0  0  0
   -7.0073    0.3298    2.7159 H   0  0  0  0  0  0  0  0  0  0  0  0
   -7.2257    1.5449    1.3456 H   0  0  0  0  0  0  0  0  0  0  0  0
   -4.9959    1.8900    2.4664 H   0  0  0  0  0  0  0  0  0  0  0  0
   -4.7349    0.1328    2.4660 H   0  0  0  0  0  0  0  0  0  0  0  0
   -6.0469    2.1040   -0.3790 H   0  0  0  0  0  0  0  0  0  0  0  0
   -5.1411    1.7062   -2.4580 H   0  0  0  0  0  0  0  0  0  0  0  0
   -3.6473    1.2166   -1.5800 H   0  0  0  0  0  0  0  0  0  0  0  0
  1  2  1  0
  2  3  1  0
  3  4  2  0
  4  5  1  0
  5  6  2  0
  6  7  1  0
  7  8  2  0
  8  9  1  0
  9 10  1  0
 10 11  1  0
 11 12  2  0
 12 13  1  0
 13 14  2  0
 14 15  1  0
 14 16  1  0
 16 17  1  0
 16 18  2  0
  9 19  2  0
 19 20  1  0
 20 21  2  0
 21 22  1  0
 22 23  1  0
 23 24  2  0
 23 25  1  0
 25 26  2  0
 26 27  1  0
 27 28  1  0
 28 29  1  0
 29 30  1  0
 30 31  1  0
 31 32  1  0
 32 33  1  0
 33 34  1  0
 34 35  1  0
 35 36  1  0
 21  3  1  0
 36 28  1  0
 19  5  1  0
 35 30  1  0
 18 11  1  0
  1 37  1  0
  1 38  1  0
  1 39  1  0
  4 40  1  0
  7 41  1  0
 10 42  1  0
 12 43  1  0
 13 44  1  0
 18 45  1  0
 20 46  1  0
 22 47  1  0
 25 48  1  0
 26 49  1  0
 27 50  1  0
 27 51  1  0
 29 52  1  0
 29 53  1  0
 30 54  1  6
 32 55  1  0
 32 56  1  0
 33 57  1  0
 33 58  1  0
 35 59  1  6
 36 60  1  0
 36 61  1  0
M  END
$$$$
[H]c1nc([H])c(-c2nc(N([H])c3c([H])c(N([H])C(=O)c4c([H])c([H])c(C([H])([H])N5C([H])([H])C([H])([H])N(C([H])([H])[H])C([H])([H])C5([H])[H])c([H])c4[H])c([H])c([H])c3C([H])([H])[H])sc2[H])c([H])c1[H]
     RDKit          3D

 66 70  0  0  0  0  0  0  0  0999 V2000
   -7.2637    3.3483   -1.3093 C   0  0  0  0  0  0  0  0  0  0  0  0
   -7.9549    2.2569   -0.6896 N   0  0  0  0  0  0  0  0  0  0  0  0
   -8.3393    1.2751   -1.6536 C   0  0  0  0  0  0  0  0  0  0  0  0
   -7.6850   -0.0691   -1.4552 C   0  0  0  0  0  0  0  0  0  0  0  0
   -6.2503    0.0317   -1.2492 N   0  0  0  0  0  0  0  0  0  0  0  0
   -5.8453   -1.2300   -0.6593 C   0  0  0  0  0  0  0  0  0  0  0  0
   -4.3792   -1.3068   -0.4058 C   0  0  0  0  0  0  0  0  0  0  0  0
   -3.8694   -2.2515    0.4576 C   0  0  0  0  0  0  0  0  0  0  0  0
   -2.4911   -2.3411    0.7041 C   0  0  0  0  0  0  0  0  0  0  0  0
   -1.6050   -1.4923    0.0949 C   0  0  0  0  0  0  0  0  0  0  0  0
   -2.1253   -0.5421   -0.7748 C   0  0  0  0  0  0  0  0  0  0  0  0
   -3.4807   -0.4568   -1.0149 C   0  0  0  0  0  0  0  0  0  0  0  0
   -0.1476   -1.5634    0.3488 C   0  0  0  0  0  0  0  0  0  0  0  0
    0.5593   -1.0202   -0.5166 O   0  0  0  0  0  0  0  0  0  0  0  0
    0.3562   -2.2058    1.4954 N   0  0  0  0  0  0  0  0  0  0  0  0
    1.7088   -2.3478    1.8698 C   0  0  0  0  0  0  0  0  0  0  0  0
    1.9773   -3.3245    2.8371 C   0  0  0  0  0  0  0  0  0  0  0  0
    3.2749   -3.4863    3.2430 C   0  0  0  0  0  0  0  0  0  0  0  0
    4.3027   -2.7308    2.7368 C   0  0  0  0  0  0  0  0  0  0  0  0
    5.6570   -2.9765    3.2315 C   0  0  0  0  0  0  0  0  0  0  0  0
    4.0599   -1.7467    1.7680 C   0  0  0  0  0  0  0  0  0  0  0  0
    5.1538   -1.0420    1.3258 N   0  0  0  0  0  0  0  0  0  0  0  0
    5.1935    0.0030    0.3347 C   0  0  0  0  0  0  0  0  0  0  0  0
    6.2746    0.6637   -0.0629 N   0  0  0  0  0  0  0  0  0  0  0  0
    6.1855    1.5765   -0.9590 C   0  0  0  0  0  0  0  0  0  0  0  0
    4.9471    1.8461   -1.4893 C   0  0  0  0  0  0  0  0  0  0  0  0
    3.9887    0.7306   -0.6281 S   0  0  0  0  0  0  0  0  0  0  0  0
    7.3882    2.3361   -1.4246 C   0  0  0  0  0  0  0  0  0  0  0  0
    8.6357    2.0699   -0.8939 C   0  0  0  0  0  0  0  0  0  0  0  0
    9.7654    2.7481   -1.2975 C   0  0  0  0  0  0  0  0  0  0  0  0
    9.6265    3.7215   -2.2642 C   0  0  0  0  0  0  0  0  0  0  0  0
    8.4025    3.9581   -2.7613 N   0  0  0  0  0  0  0  0  0  0  0  0
    7.2890    3.2945   -2.3682 C   0  0  0  0  0  0  0  0  0  0  0  0
    2.7620   -1.5876    1.3651 C   0  0  0  0  0  0  0  0  0  0  0  0
   -5.9353    1.0526   -0.2606 C   0  0  0  0  0  0  0  0  0  0  0  0
   -7.1883    1.6298    0.3656 C   0  0  0  0  0  0  0  0  0  0  0  0
   -6.8123    4.0326   -0.5498 H   0  0  0  0  0  0  0  0  0  0  0  0
   -6.5171    3.0314   -2.0557 H   0  0  0  0  0  0  0  0  0  0  0  0
   -8.0228    3.9657   -1.8403 H   0  0  0  0  0  0  0  0  0  0  0  0
   -8.2007    1.6719   -2.6700 H   0  0  0  0  0  0  0  0  0  0  0  0
   -9.4430    1.1093   -1.5375 H   0  0  0  0  0  0  0  0  0  0  0  0
   -7.8245   -0.6452   -2.3931 H   0  0  0  0  0  0  0  0  0  0  0  0
   -8.1620   -0.6547   -0.6453 H   0  0  0  0  0  0  0  0  0  0  0  0
   -6.0966   -2.0842   -1.3502 H   0  0  0  0  0  0  0  0  0  0  0  0
   -6.4358   -1.4323    0.2625 H   0  0  0  0  0  0  0  0  0  0  0  0
   -4.5489   -2.9351    0.9526 H   0  0  0  0  0  0  0  0  0  0  0  0
   -2.1191   -3.0999    1.3859 H   0  0  0  0  0  0  0  0  0  0  0  0
   -1.4017    0.1250   -1.2504 H   0  0  0  0  0  0  0  0  0  0  0  0
   -3.8357    0.2989   -1.7033 H   0  0  0  0  0  0  0  0  0  0  0  0
   -0.3716   -2.6248    2.1665 H   0  0  0  0  0  0  0  0  0  0  0  0
    1.1769   -3.9417    3.2569 H   0  0  0  0  0  0  0  0  0  0  0  0
    3.4669   -4.2619    4.0071 H   0  0  0  0  0  0  0  0  0  0  0  0
    6.4056   -3.1315    2.4290 H   0  0  0  0  0  0  0  0  0  0  0  0
    5.6651   -3.9105    3.8246 H   0  0  0  0  0  0  0  0  0  0  0  0
    5.9205   -2.1570    3.9287 H   0  0  0  0  0  0  0  0  0  0  0  0
    6.1112   -1.2459    1.7248 H   0  0  0  0  0  0  0  0  0  0  0  0
    4.6623    2.5782   -2.2549 H   0  0  0  0  0  0  0  0  0  0  0  0
    8.7257    1.2933   -0.1269 H   0  0  0  0  0  0  0  0  0  0  0  0
   10.7343    2.5355   -0.8797 H   0  0  0  0  0  0  0  0  0  0  0  0
   10.4966    4.2815   -2.6111 H   0  0  0  0  0  0  0  0  0  0  0  0
    6.3250    3.5355   -2.8123 H   0  0  0  0  0  0  0  0  0  0  0  0
    2.5084   -0.8454    0.6393 H   0  0  0  0  0  0  0  0  0  0  0  0
   -5.3153    0.6756    0.5681 H   0  0  0  0  0  0  0  0  0  0  0  0
   -5.3978    1.8700   -0.7815 H   0  0  0  0  0  0  0  0  0  0  0  0
   -6.8705    2.3497    1.1284 H   0  0  0  0  0  0  0  0  0  0  0  0
   -7.7715    0.7949    0.7654 H   0  0  0  0  0  0  0  0  0  0  0  0
  1  2  1  0
  2  3  1  0
  3  4  1  0
  4  5  1  0
  5  6  1  0
  6  7  1  0
  7  8  2  0
  8  9  1  0
  9 10  2  0
 10 11  1  0
 11 12  2  0
 10 13  1  0
 13 14  2  0
 13 15  1  0
 15 16  1  0
 16 17  2  0
 17 18  1  0
 18 19  2  0
 19 20  1  0
 19 21  1  0
 21 22  1  0
 22 23  1  0
 23 24  2  0
 24 25  1  0
 25 26  2  0
 26 27  1  0
 25 28  1  0
 28 29  2  0
 29 30  1  0
 30 31  2  0
 31 32  1  0
 32 33  2  0
 21 34  2  0
  5 35  1  0
 35 36  1  0
 36  2  1  0
 12  7  1  0
 34 16  1  0
 27 23  1  0
 33 28  1  0
  1 37  1  0
  1 38  1  0
  1 39  1  0
  3 40  1  0
  3 41  1  0
  4 42  1  0
  4 43  1  0
  6 44  1  0
  6 45  1  0
  8 46  1  0
  9 47  1  0
 11 48  1  0
 12 49  1  0
 15 50  1  0
 17 51  1  0
 18 52  1  0
 20 53  1  0
 20 54  1  0
 20 55  1  0
 22 56  1  0
 26 57  1  0
 29 58  1  0
 30 59  1  0
 31 60  1  0
 33 61  1  0
 34 62  1  0
 35 63  1  0
 35 64  1  0
 36 65  1  0
 36 66  1  0
M  END
$$$$
[H]c1nc(N([H])S(=O)(=O)c2c([H])c([H])c(N([H])C(=O)c3c([H])c([H])c([H])c([H])c3[N+](=O)[O-])c([H])c2[H])c([H])c([H])c1[H]
     RDKit          3D

 42 44  0  0  0  0  0  0  0  0999 V2000
   -3.9864    2.6190    1.9302 O   0  0  0  0  0  0  0  0  0  0  0  0
   -3.6900    1.9960    0.7259 N   0  0  0  0  0  0  0  0  0  0  0  0
   -2.6817    2.3158    0.0852 O   0  0  0  0  0  0  0  0  0  0  0  0
   -4.6023    1.0449    0.2338 C   0  0  0  0  0  0  0  0  0  0  0  0
   -5.9538    1.3252    0.5051 C   0  0  0  0  0  0  0  0  0  0  0  0
   -6.9569    0.5049    0.0444 C   0  0  0  0  0  0  0  0  0  0  0  0
   -6.6957   -0.6238   -0.6998 C   0  0  0  0  0  0  0  0  0  0  0  0
   -5.3812   -0.9040   -0.9663 C   0  0  0  0  0  0  0  0  0  0  0  0
   -4.3625   -0.0656   -0.4925 C   0  0  0  0  0  0  0  0  0  0  0  0
   -2.9801   -0.5295   -0.7186 C   0  0  0  0  0  0  0  0  0  0  0  0
   -2.6927   -0.9786   -1.8702 O   0  0  0  0  0  0  0  0  0  0  0  0
   -2.0035   -0.4979    0.2771 N   0  0  0  0  0  0  0  0  0  0  0  0
   -0.6781   -0.9063    0.1121 C   0  0  0  0  0  0  0  0  0  0  0  0
    0.0498   -1.4000    1.2056 C   0  0  0  0  0  0  0  0  0  0  0  0
    1.3538   -1.7850    1.1354 C   0  0  0  0  0  0  0  0  0  0  0  0
    2.0351   -1.6960   -0.0797 C   0  0  0  0  0  0  0  0  0  0  0  0
    1.3344   -1.2136   -1.1586 C   0  0  0  0  0  0  0  0  0  0  0  0
   -0.0049   -0.8205   -1.0763 C   0  0  0  0  0  0  0  0  0  0  0  0
    3.6922   -2.2474   -0.1459 S   0  0  0  0  0  0  0  0  0  0  0  0
    3.6699   -3.6636    0.4272 O   0  0  0  0  0  0  0  0  0  0  0  0
    4.1395   -2.4214   -1.5799 O   0  0  0  0  0  0  0  0  0  0  0  0
    4.7094   -1.2623    0.7520 N   0  0  0  0  0  0  0  0  0  0  0  0
    4.9785    0.1015    0.5419 C   0  0  0  0  0  0  0  0  0  0  0  0
    4.4809    0.8591   -0.4924 C   0  0  0  0  0  0  0  0  0  0  0  0
    4.8089    2.1855   -0.6387 C   0  0  0  0  0  0  0  0  0  0  0  0
    5.6519    2.8204    0.2421 C   0  0  0  0  0  0  0  0  0  0  0  0
    6.1466    2.0561    1.2742 C   0  0  0  0  0  0  0  0  0  0  0  0
    5.8119    0.7744    1.3917 N   0  0  0  0  0  0  0  0  0  0  0  0
   -6.2066    2.2060    1.0900 H   0  0  0  0  0  0  0  0  0  0  0  0
   -8.0110    0.7167    0.2517 H   0  0  0  0  0  0  0  0  0  0  0  0
   -7.4951   -1.2713   -1.0640 H   0  0  0  0  0  0  0  0  0  0  0  0
   -5.1442   -1.7775   -1.5446 H   0  0  0  0  0  0  0  0  0  0  0  0
   -2.2968   -0.1590    1.2403 H   0  0  0  0  0  0  0  0  0  0  0  0
   -0.5124   -1.4602    2.1506 H   0  0  0  0  0  0  0  0  0  0  0  0
    1.8447   -2.1569    2.0278 H   0  0  0  0  0  0  0  0  0  0  0  0
    1.8695   -1.1464   -2.1002 H   0  0  0  0  0  0  0  0  0  0  0  0
   -0.4498   -0.4417   -1.9916 H   0  0  0  0  0  0  0  0  0  0  0  0
    5.2200   -1.7068    1.5804 H   0  0  0  0  0  0  0  0  0  0  0  0
    3.8382    0.4156   -1.2139 H   0  0  0  0  0  0  0  0  0  0  0  0
    4.4097    2.7869   -1.4628 H   0  0  0  0  0  0  0  0  0  0  0  0
    5.9291    3.8715    0.1507 H   0  0  0  0  0  0  0  0  0  0  0  0
    6.8118    2.5357    1.9790 H   0  0  0  0  0  0  0  0  0  0  0  0
  1  2  1  0
  2  3  2  0
  2  4  1  0
  4  5  2  0
  5  6  1  0
  6  7  2  0
  7  8  1  0
  8  9  2  0
  9 10  1  0
 10 11  2  0
 10 12  1  0
 12 13  1  0
 13 14  2  0
 14 15  1  0
 15 16  2  0
 16 17  1  0
 17 18  2  0
 16 19  1  0
 19 20  2  0
 19 21  2  0
 19 22  1  0
 22 23  1  0
 23 24  2  0
 24 25  1  0
 25 26  2  0
 26 27  1  0
 27 28  2  0
  9  4  1  0
 18 13  1  0
 28 23  1  0
  5 29  1  0
  6 30  1  0
  7 31  1  0
  8 32  1  0
 12 33  1  0
 14 34  1  0
 15 35  1  0
 17 36  1  0
 18 37  1  0
 22 38  1  0
 24 39  1  0
 25 40  1  0
 26 41  1  0
 27 42  1  0
M  CHG  2   1  -1   2   1
M  END
$$$$
[H]c1nc([H])c(Cl)c(N([H])C(=O)N([H])c2c([H])c(-c3c([H])c([H])c([H])c(-c4c([H])c([H])c(S(=O)(=O)C([H])([H])[H])c([H])c4[H])c3[H])nn(C([H])([H])C([H])([H])[H])c2=O)c1Cl
     RDKit          3D

 58 61  0  0  0  0  0  0  0  0999 V2000
   -3.1700   -5.8352   -1.9464 C   0  0  0  0  0  0  0  0  0  0  0  0
   -2.9339   -5.5528   -0.4858 C   0  0  0  0  0  0  0  0  0  0  0  0
   -2.3625   -4.2170   -0.3805 N   0  0  0  0  0  0  0  0  0  0  0  0
   -1.0498   -4.0328   -0.4149 N   0  0  0  0  0  0  0  0  0  0  0  0
   -0.5067   -2.7986   -0.3183 C   0  0  0  0  0  0  0  0  0  0  0  0
   -1.3713   -1.7349   -0.1827 C   0  0  0  0  0  0  0  0  0  0  0  0
   -2.7406   -1.8948   -0.1439 C   0  0  0  0  0  0  0  0  0  0  0  0
   -3.6840   -0.8504   -0.0029 N   0  0  0  0  0  0  0  0  0  0  0  0
   -3.4615    0.5276    0.0914 C   0  0  0  0  0  0  0  0  0  0  0  0
   -2.3324    1.0386    0.0590 O   0  0  0  0  0  0  0  0  0  0  0  0
   -4.5651    1.4462    0.2347 N   0  0  0  0  0  0  0  0  0  0  0  0
   -4.3713    2.8423    0.3295 C   0  0  0  0  0  0  0  0  0  0  0  0
   -4.1936    3.4307    1.5452 C   0  0  0  0  0  0  0  0  0  0  0  0
   -4.1965    2.5046    3.0029 Cl  0  0  0  0  0  0  0  0  0  0  0  0
   -4.0081    4.7946    1.6038 C   0  0  0  0  0  0  0  0  0  0  0  0
   -4.0033    5.5295    0.4769 N   0  0  0  0  0  0  0  0  0  0  0  0
   -4.1761    4.9759   -0.7358 C   0  0  0  0  0  0  0  0  0  0  0  0
   -4.3611    3.6185   -0.7986 C   0  0  0  0  0  0  0  0  0  0  0  0
   -4.5871    2.8915   -2.3725 Cl  0  0  0  0  0  0  0  0  0  0  0  0
   -3.2281   -3.2049   -0.2496 C   0  0  0  0  0  0  0  0  0  0  0  0
   -4.4653   -3.3887   -0.2180 O   0  0  0  0  0  0  0  0  0  0  0  0
    0.9223   -2.5815   -0.3534 C   0  0  0  0  0  0  0  0  0  0  0  0
    1.7213   -3.7287   -0.5080 C   0  0  0  0  0  0  0  0  0  0  0  0
    3.0941   -3.6676   -0.5534 C   0  0  0  0  0  0  0  0  0  0  0  0
    3.6871   -2.4262   -0.4413 C   0  0  0  0  0  0  0  0  0  0  0  0
    2.9601   -1.2696   -0.2884 C   0  0  0  0  0  0  0  0  0  0  0  0
    1.5693   -1.3838   -0.2481 C   0  0  0  0  0  0  0  0  0  0  0  0
    3.5892    0.0415   -0.1665 C   0  0  0  0  0  0  0  0  0  0  0  0
    4.8235    0.2010    0.4326 C   0  0  0  0  0  0  0  0  0  0  0  0
    5.4240    1.4367    0.5531 C   0  0  0  0  0  0  0  0  0  0  0  0
    4.8198    2.5823    0.0792 C   0  0  0  0  0  0  0  0  0  0  0  0
    3.5863    2.4299   -0.5206 C   0  0  0  0  0  0  0  0  0  0  0  0
    2.9883    1.1915   -0.6394 C   0  0  0  0  0  0  0  0  0  0  0  0
    5.5885    4.1511    0.2362 S   0  0  0  0  0  0  0  0  0  0  0  0
    5.1319    4.9429    1.7581 C   0  0  0  0  0  0  0  0  0  0  0  0
    7.0870    4.0410    0.2198 O   0  0  0  0  0  0  0  0  0  0  0  0
    5.1817    5.0432   -0.8931 O   0  0  0  0  0  0  0  0  0  0  0  0
   -2.8175   -6.8476   -2.2108 H   0  0  0  0  0  0  0  0  0  0  0  0
   -2.6288   -5.1173   -2.5793 H   0  0  0  0  0  0  0  0  0  0  0  0
   -4.2596   -5.6998   -2.2018 H   0  0  0  0  0  0  0  0  0  0  0  0
   -3.9099   -5.6068    0.0351 H   0  0  0  0  0  0  0  0  0  0  0  0
   -2.2848   -6.3118   -0.0058 H   0  0  0  0  0  0  0  0  0  0  0  0
   -0.9438   -0.7477   -0.1047 H   0  0  0  0  0  0  0  0  0  0  0  0
   -4.7340   -1.1120    0.0431 H   0  0  0  0  0  0  0  0  0  0  0  0
   -5.5160    1.0147    0.2636 H   0  0  0  0  0  0  0  0  0  0  0  0
   -3.8649    5.2792    2.5669 H   0  0  0  0  0  0  0  0  0  0  0  0
   -4.1726    5.5740   -1.6577 H   0  0  0  0  0  0  0  0  0  0  0  0
    1.2493   -4.7130   -0.5966 H   0  0  0  0  0  0  0  0  0  0  0  0
    3.6974   -4.5713   -0.6746 H   0  0  0  0  0  0  0  0  0  0  0  0
    4.7776   -2.3092   -0.4697 H   0  0  0  0  0  0  0  0  0  0  0  0
    0.9700   -0.4857   -0.1275 H   0  0  0  0  0  0  0  0  0  0  0  0
    5.3010   -0.6980    0.8057 H   0  0  0  0  0  0  0  0  0  0  0  0
    6.4063    1.5553    1.0311 H   0  0  0  0  0  0  0  0  0  0  0  0
    3.1092    3.3265   -0.8937 H   0  0  0  0  0  0  0  0  0  0  0  0
    2.0063    1.0738   -1.1175 H   0  0  0  0  0  0  0  0  0  0  0  0
    5.9027    5.7058    2.0095 H   0  0  0  0  0  0  0  0  0  0  0  0
    4.1419    5.3966    1.7313 H   0  0  0  0  0  0  0  0  0  0  0  0
    5.1645    4.2009    2.6064 H   0  0  0  0  0  0  0  0  0  0  0  0
  1  2  1  0
  2  3  1  0
  3  4  1  0
  4  5  2  0
  5  6  1  0
  6  7  2  0
  7  8  1  0
  8  9  1  0
  9 10  2  0
  9 11  1  0
 11 12  1  0
 12 13  2  0
 13 14  1  0
 13 15  1  0
 15 16  2  0
 16 17  1  0
 17 18  2  0
 18 19  1  0
  7 20  1  0
 20 21  2  0
  5 22  1  0
 22 23  2  0
 23 24  1  0
 24 25  2  0
 25 26  1  0
 26 27  2  0
 26 28  1  0
 28 29  2  0
 29 30  1  0
 30 31  2  0
 31 32  1  0
 32 33  2  0
 31 34  1  0
 34 35  1  0
 34 36  2  0
 34 37  2  0
 20  3  1  0
 27 22  1  0
 33 28  1  0
 18 12  1  0
  1 38  1  0
  1 39  1  0
  1 40  1  0
  2 41  1  0
  2 42  1  0
  6 43  1  0
  8 44  1  0
 11 45  1  0
 15 46  1  0
 17 47  1  0
 23 48  1  0
 24 49  1  0
 25 50  1  0
 27 51  1  0
 29 52  1  0
 30 53  1  0
 32 54  1  0
 33 55  1  0
 35 56  1  0
 35 57  1  0
 35 58  1  0
M  END
$$$$
[H]c1c([H])c([H])c(C([H])([H])[C@@]2([H])C(=O)N3C([H])([H])C([H])([H])C([H])([H])[C@@]3([H])C(=O)N([H])[C@]([H])(C([H])([H])c3c([H])c([H])c([H])c([H])c3[H])C(=O)N([H])[C@@]([H])(C([H])([H])C([H])([H])C([H])([H])N=C(N([H])[H])N([H])[H])C(=O)N([H])[C@@]([H])(C([H])([H])c3nc([H])n([H])c3[H])C(=O)N2[H])c([H])c1[H]
     RDKit          3D

 94 98  0  0  0  0  0  0  0  0999 V2000
    6.0149    3.3077    3.1903 N   0  0  0  0  0  0  0  0  0  0  0  0
    6.2324    2.2398    2.2879 C   0  0  0  0  0  0  0  0  0  0  0  0
    7.5131    2.0270    1.7195 N   0  0  0  0  0  0  0  0  0  0  0  0
    5.2714    1.4657    1.9859 N   0  0  0  0  0  0  0  0  0  0  0  0
    5.4133    0.3678    1.0849 C   0  0  0  0  0  0  0  0  0  0  0  0
    4.0661    0.0708    0.4602 C   0  0  0  0  0  0  0  0  0  0  0  0
    3.5107    1.2145   -0.2944 C   0  0  0  0  0  0  0  0  0  0  0  0
    2.1637    0.9869   -0.9401 C   0  0  2  0  0  0  0  0  0  0  0  0
    2.1390   -0.0854   -1.8990 N   0  0  0  0  0  0  0  0  0  0  0  0
    1.1885   -1.0699   -2.1591 C   0  0  0  0  0  0  0  0  0  0  0  0
    0.6197   -1.0493   -3.3268 O   0  0  0  0  0  0  0  0  0  0  0  0
    0.7145   -2.1763   -1.2706 C   0  0  1  0  0  0  0  0  0  0  0  0
    1.9076   -3.1081   -0.9527 C   0  0  0  0  0  0  0  0  0  0  0  0
    1.5510   -4.2389   -0.0957 C   0  0  0  0  0  0  0  0  0  0  0  0
    1.1573   -5.4746   -0.6172 C   0  0  0  0  0  0  0  0  0  0  0  0
    0.8346   -6.5242    0.2134 C   0  0  0  0  0  0  0  0  0  0  0  0
    0.8895   -6.3884    1.5786 C   0  0  0  0  0  0  0  0  0  0  0  0
    1.2740   -5.1819    2.1204 C   0  0  0  0  0  0  0  0  0  0  0  0
    1.5937   -4.1427    1.2763 C   0  0  0  0  0  0  0  0  0  0  0  0
    0.1214   -1.7175   -0.0494 N   0  0  0  0  0  0  0  0  0  0  0  0
   -1.1143   -1.8750    0.5453 C   0  0  0  0  0  0  0  0  0  0  0  0
   -1.0939   -1.7703    1.8652 O   0  0  0  0  0  0  0  0  0  0  0  0
   -2.4595   -2.1344    0.0603 C   0  0  2  0  0  0  0  0  0  0  0  0
   -2.5395   -3.6286   -0.3061 C   0  0  0  0  0  0  0  0  0  0  0  0
   -2.9715   -3.6528   -1.7259 C   0  0  0  0  0  0  0  0  0  0  0  0
   -2.9288   -2.2468   -2.2498 C   0  0  0  0  0  0  0  0  0  0  0  0
   -2.9991   -1.4199   -1.0235 N   0  0  0  0  0  0  0  0  0  0  0  0
   -3.5634   -0.1323   -0.9776 C   0  0  0  0  0  0  0  0  0  0  0  0
   -4.6752    0.1180   -1.5968 O   0  0  0  0  0  0  0  0  0  0  0  0
   -3.0152    1.0371   -0.2753 C   0  0  2  0  0  0  0  0  0  0  0  0
   -4.0212    1.5559    0.7270 C   0  0  0  0  0  0  0  0  0  0  0  0
   -4.4207    0.6249    1.7814 C   0  0  0  0  0  0  0  0  0  0  0  0
   -3.6856    0.5125    2.9685 C   0  0  0  0  0  0  0  0  0  0  0  0
   -4.0845   -0.3534    3.9642 C   0  0  0  0  0  0  0  0  0  0  0  0
   -5.1998   -1.1254    3.8299 C   0  0  0  0  0  0  0  0  0  0  0  0
   -5.9370   -1.0353    2.6795 C   0  0  0  0  0  0  0  0  0  0  0  0
   -5.5360   -0.1624    1.6753 C   0  0  0  0  0  0  0  0  0  0  0  0
   -2.9209    2.1234   -1.2767 N   0  0  0  0  0  0  0  0  0  0  0  0
   -1.7210    2.6357   -1.7957 C   0  0  0  0  0  0  0  0  0  0  0  0
   -1.6823    3.0678   -2.9923 O   0  0  0  0  0  0  0  0  0  0  0  0
   -0.4351    2.7275   -1.0502 C   0  0  2  0  0  0  0  0  0  0  0  0
   -0.4361    4.0814   -0.3468 C   0  0  0  0  0  0  0  0  0  0  0  0
   -0.5367    5.2153   -1.2771 C   0  0  0  0  0  0  0  0  0  0  0  0
    0.4956    5.9037   -1.8860 C   0  0  0  0  0  0  0  0  0  0  0  0
   -0.0045    6.8875   -2.6781 N   0  0  0  0  0  0  0  0  0  0  0  0
   -1.3362    6.8142   -2.5652 C   0  0  0  0  0  0  0  0  0  0  0  0
   -1.6696    5.8231   -1.7343 N   0  0  0  0  0  0  0  0  0  0  0  0
    0.6479    2.7476   -1.9903 N   0  0  0  0  0  0  0  0  0  0  0  0
    1.9357    2.2519   -1.7415 C   0  0  0  0  0  0  0  0  0  0  0  0
    2.9353    2.8617   -2.1884 O   0  0  0  0  0  0  0  0  0  0  0  0
    6.2080    4.2764    2.8775 H   0  0  0  0  0  0  0  0  0  0  0  0
    5.6656    3.0850    4.1429 H   0  0  0  0  0  0  0  0  0  0  0  0
    7.6932    2.3665    0.7537 H   0  0  0  0  0  0  0  0  0  0  0  0
    8.2395    1.5485    2.2538 H   0  0  0  0  0  0  0  0  0  0  0  0
    5.7637   -0.5716    1.5696 H   0  0  0  0  0  0  0  0  0  0  0  0
    6.1340    0.5665    0.2615 H   0  0  0  0  0  0  0  0  0  0  0  0
    3.3577   -0.3786    1.1846 H   0  0  0  0  0  0  0  0  0  0  0  0
    4.2831   -0.7516   -0.2882 H   0  0  0  0  0  0  0  0  0  0  0  0
    4.2747    1.5366   -1.0462 H   0  0  0  0  0  0  0  0  0  0  0  0
    3.3841    2.0750    0.3929 H   0  0  0  0  0  0  0  0  0  0  0  0
    1.3687    0.9945   -0.2015 H   0  0  0  0  0  0  0  0  0  0  0  0
    3.0166   -0.0828   -2.5199 H   0  0  0  0  0  0  0  0  0  0  0  0
    0.0563   -2.8806   -1.8388 H   0  0  0  0  0  0  0  0  0  0  0  0
    2.1872   -3.5629   -1.9545 H   0  0  0  0  0  0  0  0  0  0  0  0
    2.7876   -2.5600   -0.6239 H   0  0  0  0  0  0  0  0  0  0  0  0
    1.0994   -5.6250   -1.6870 H   0  0  0  0  0  0  0  0  0  0  0  0
    0.5253   -7.4988   -0.1813 H   0  0  0  0  0  0  0  0  0  0  0  0
    0.6301   -7.2282    2.2372 H   0  0  0  0  0  0  0  0  0  0  0  0
    1.3295   -5.0384    3.1867 H   0  0  0  0  0  0  0  0  0  0  0  0
    1.8951   -3.2021    1.7524 H   0  0  0  0  0  0  0  0  0  0  0  0
    0.8237   -1.1282    0.5205 H   0  0  0  0  0  0  0  0  0  0  0  0
   -3.1957   -2.1045    0.9527 H   0  0  0  0  0  0  0  0  0  0  0  0
   -1.5809   -4.1357   -0.0890 H   0  0  0  0  0  0  0  0  0  0  0  0
   -3.3297   -4.1574    0.2859 H   0  0  0  0  0  0  0  0  0  0  0  0
   -3.9495   -4.1336   -1.8811 H   0  0  0  0  0  0  0  0  0  0  0  0
   -2.2258   -4.2523   -2.3079 H   0  0  0  0  0  0  0  0  0  0  0  0
   -3.8014   -2.1053   -2.8936 H   0  0  0  0  0  0  0  0  0  0  0  0
   -2.0278   -2.0305   -2.8451 H   0  0  0  0  0  0  0  0  0  0  0  0
   -2.0324    0.8549    0.1812 H   0  0  0  0  0  0  0  0  0  0  0  0
   -4.9302    1.9723    0.1843 H   0  0  0  0  0  0  0  0  0  0  0  0
   -3.6222    2.4885    1.2379 H   0  0  0  0  0  0  0  0  0  0  0  0
   -2.8063    1.1355    3.0484 H   0  0  0  0  0  0  0  0  0  0  0  0
   -3.5046   -0.4233    4.8689 H   0  0  0  0  0  0  0  0  0  0  0  0
   -5.4790   -1.8022    4.6502 H   0  0  0  0  0  0  0  0  0  0  0  0
   -6.8242   -1.6376    2.5557 H   0  0  0  0  0  0  0  0  0  0  0  0
   -6.1808   -0.1437    0.7910 H   0  0  0  0  0  0  0  0  0  0  0  0
   -3.8343    2.5036   -1.5907 H   0  0  0  0  0  0  0  0  0  0  0  0
   -0.3635    1.9602   -0.2627 H   0  0  0  0  0  0  0  0  0  0  0  0
    0.5138    4.1385    0.2241 H   0  0  0  0  0  0  0  0  0  0  0  0
   -1.2915    4.0841    0.3640 H   0  0  0  0  0  0  0  0  0  0  0  0
    1.5648    5.6935   -1.7527 H   0  0  0  0  0  0  0  0  0  0  0  0
    0.5973    7.5317   -3.2359 H   0  0  0  0  0  0  0  0  0  0  0  0
   -2.0274    7.4590   -3.0697 H   0  0  0  0  0  0  0  0  0  0  0  0
    0.4050    3.1882   -2.9390 H   0  0  0  0  0  0  0  0  0  0  0  0
  1  2  1  0
  2  3  1  0
  2  4  2  3
  4  5  1  0
  5  6  1  0
  6  7  1  0
  7  8  1  0
  8  9  1  0
  9 10  1  0
 10 11  2  0
 10 12  1  0
 12 13  1  0
 13 14  1  0
 14 15  2  0
 15 16  1  0
 16 17  2  0
 17 18  1  0
 18 19  2  0
 12 20  1  0
 20 21  1  0
 21 22  2  0
 21 23  1  0
 23 24  1  0
 24 25  1  0
 25 26  1  0
 26 27  1  0
 27 28  1  0
 28 29  2  0
 28 30  1  0
 30 31  1  0
 31 32  1  0
 32 33  2  0
 33 34  1  0
 34 35  2  0
 35 36  1  0
 36 37  2  0
 30 38  1  0
 38 39  1  0
 39 40  2  0
 39 41  1  0
 41 42  1  0
 42 43  1  0
 43 44  2  0
 44 45  1  0
 45 46  1  0
 46 47  2  0
 41 48  1  0
 48 49  1  0
 49 50  2  0
 49  8  1  0
 19 14  1  0
 27 23  1  0
 37 32  1  0
 47 43  1  0
  1 51  1  0
  1 52  1  0
  3 53  1  0
  3 54  1  0
  5 55  1  0
  5 56  1  0
  6 57  1  0
  6 58  1  0
  7 59  1  0
  7 60  1  0
  8 61  1  1
  9 62  1  0
 12 63  1  6
 13 64  1  0
 13 65  1  0
 15 66  1  0
 16 67  1  0
 17 68  1  0
 18 69  1  0
 19 70  1  0
 20 71  1  0
 23 72  1  1
 24 73  1  0
 24 74  1  0
 25 75  1  0
 25 76  1  0
 26 77  1  0
 26 78  1  0
 30 79  1  1
 31 80  1  0
 31 81  1  0
 33 82  1  0
 34 83  1  0
 35 84  1  0
 36 85  1  0
 37 86  1  0
 38 87  1  0
 41 88  1  1
 42 89  1  0
 42 90  1  0
 44 91  1  0
 45 92  1  0
 46 93  1  0
 48 94  1  0
M  END
$$$$
[H]O[C@]1([H])[C@@]([H])(C([H])([H])OP(=O)(O[H])OP(=O)(O[H])OP(=O)(O[H])OC([H])([H])[C@@]2([H])O[C@]([H])(O[H])[C@]2([H])O[H])O[C@@]([H])(n2c([H])nc3c(N([H])[H])nc([H])nc32)[C@]1([H])O[H]
     RDKit          3D

 60 63  0  0  0  0  0  0  0  0999 V2000
    8.9985    1.1008    0.3231 O   0  0  0  0  0  0  0  0  0  0  0  0
    8.6151   -0.1052   -0.2910 C   0  0  2  0  0  0  0  0  0  0  0  0
    7.3908   -0.6487    0.3027 C   0  0  1  0  0  0  0  0  0  0  0  0
    6.2983   -1.0654   -0.6924 C   0  0  0  0  0  0  0  0  0  0  0  0
    5.4449   -1.7568    0.1793 O   0  0  0  0  0  0  0  0  0  0  0  0
    3.8557   -1.2431    0.0118 P   0  0  0  0  0  0  0  0  0  0  0  0
    3.6405   -0.5126    1.5847 O   0  0  0  0  0  0  0  0  0  0  0  0
    2.9438   -2.3408   -0.2551 O   0  0  0  0  0  0  0  0  0  0  0  0
    3.7140   -0.0331   -1.1535 O   0  0  0  0  0  0  0  0  0  0  0  0
    3.5849    1.5097   -0.5605 P   0  0  0  0  0  0  0  0  0  0  0  0
    2.8537    2.4752   -1.7789 O   0  0  0  0  0  0  0  0  0  0  0  0
    4.8927    2.1732   -0.2033 O   0  0  0  0  0  0  0  0  0  0  0  0
    2.5806    1.6563    0.8018 O   0  0  0  0  0  0  0  0  0  0  0  0
    1.0968    1.0139    0.5734 P   0  0  0  0  0  0  0  0  0  0  0  0
    1.0364   -0.4512    1.5733 O   0  0  0  0  0  0  0  0  0  0  0  0
    0.9963    0.5732   -0.8902 O   0  0  0  0  0  0  0  0  0  0  0  0
   -0.2650    1.7455    1.0819 O   0  0  0  0  0  0  0  0  0  0  0  0
   -1.2483    2.0185    0.1395 C   0  0  0  0  0  0  0  0  0  0  0  0
   -2.4890    1.2622    0.6852 C   0  0  1  0  0  0  0  0  0  0  0  0
   -3.6998    1.7754    0.3296 O   0  0  0  0  0  0  0  0  0  0  0  0
   -4.5080    0.6545    0.5846 C   0  0  2  0  0  0  0  0  0  0  0  0
   -3.8631   -0.2328   -0.5758 C   0  0  2  0  0  0  0  0  0  0  0  0
   -4.3803   -1.4818   -0.5482 O   0  0  0  0  0  0  0  0  0  0  0  0
   -2.4383   -0.0573   -0.1761 C   0  0  2  0  0  0  0  0  0  0  0  0
   -2.0348   -1.1702    0.4947 O   0  0  0  0  0  0  0  0  0  0  0  0
   -5.8654    0.7695    0.1870 N   0  0  0  0  0  0  0  0  0  0  0  0
   -6.3574    1.6130   -0.7565 C   0  0  0  0  0  0  0  0  0  0  0  0
   -7.6201    1.1793   -1.0945 N   0  0  0  0  0  0  0  0  0  0  0  0
   -7.8664    0.0484   -0.3471 C   0  0  0  0  0  0  0  0  0  0  0  0
   -8.9468   -0.7410   -0.3777 C   0  0  0  0  0  0  0  0  0  0  0  0
   -9.9160   -0.7326   -1.3978 N   0  0  0  0  0  0  0  0  0  0  0  0
   -8.9877   -1.7587    0.5069 N   0  0  0  0  0  0  0  0  0  0  0  0
   -7.9591   -1.9891    1.3138 C   0  0  0  0  0  0  0  0  0  0  0  0
   -6.7677   -1.2196    1.3119 N   0  0  0  0  0  0  0  0  0  0  0  0
   -6.8092   -0.1481    0.4270 C   0  0  0  0  0  0  0  0  0  0  0  0
    7.9808   -1.6066    1.0466 O   0  0  0  0  0  0  0  0  0  0  0  0
    9.1704   -1.3532    0.3373 C   0  0  2  0  0  0  0  0  0  0  0  0
   10.2034   -1.1395    1.2138 O   0  0  0  0  0  0  0  0  0  0  0  0
    8.1429    1.6290    0.4347 H   0  0  0  0  0  0  0  0  0  0  0  0
    8.6134   -0.0320   -1.3801 H   0  0  0  0  0  0  0  0  0  0  0  0
    6.8738    0.1790    0.9274 H   0  0  0  0  0  0  0  0  0  0  0  0
    5.8690   -0.2303   -1.1714 H   0  0  0  0  0  0  0  0  0  0  0  0
    6.7322   -1.7737   -1.4485 H   0  0  0  0  0  0  0  0  0  0  0  0
    4.2302   -0.9973    2.2422 H   0  0  0  0  0  0  0  0  0  0  0  0
    2.1019    3.0021   -1.4358 H   0  0  0  0  0  0  0  0  0  0  0  0
    0.6365   -1.1007    0.9932 H   0  0  0  0  0  0  0  0  0  0  0  0
   -1.5365    3.0603    0.1395 H   0  0  0  0  0  0  0  0  0  0  0  0
   -1.0162    1.6637   -0.8478 H   0  0  0  0  0  0  0  0  0  0  0  0
   -2.3349    1.0805    1.7247 H   0  0  0  0  0  0  0  0  0  0  0  0
   -4.2762    0.1133    1.4906 H   0  0  0  0  0  0  0  0  0  0  0  0
   -4.1382    0.3487   -1.4829 H   0  0  0  0  0  0  0  0  0  0  0  0
   -4.9344   -1.6194   -1.3817 H   0  0  0  0  0  0  0  0  0  0  0  0
   -1.8419    0.1804   -1.1004 H   0  0  0  0  0  0  0  0  0  0  0  0
   -1.6868   -0.9519    1.3805 H   0  0  0  0  0  0  0  0  0  0  0  0
   -5.9026    2.4681   -1.2072 H   0  0  0  0  0  0  0  0  0  0  0  0
  -10.7512   -0.1876   -1.5769 H   0  0  0  0  0  0  0  0  0  0  0  0
   -9.7449   -1.4724   -2.1878 H   0  0  0  0  0  0  0  0  0  0  0  0
   -7.9117   -2.8139    2.0256 H   0  0  0  0  0  0  0  0  0  0  0  0
    9.2628   -2.1745   -0.4044 H   0  0  0  0  0  0  0  0  0  0  0  0
   10.3372   -0.1530    1.3630 H   0  0  0  0  0  0  0  0  0  0  0  0
  1  2  1  0
  2  3  1  0
  3  4  1  0
  4  5  1  0
  5  6  1  0
  6  7  1  0
  6  8  2  0
  6  9  1  0
  9 10  1  0
 10 11  1  0
 10 12  2  0
 10 13  1  0
 13 14  1  0
 14 15  1  0
 14 16  2  0
 14 17  1  0
 17 18  1  0
 18 19  1  0
 19 20  1  0
 20 21  1  0
 21 22  1  0
 22 23  1  0
 22 24  1  0
 24 25  1  0
 21 26  1  0
 26 27  1  0
 27 28  2  0
 28 29  1  0
 29 30  2  0
 30 31  1  0
 30 32  1  0
 32 33  2  0
 33 34  1  0
 34 35  2  0
  3 36  1  0
 36 37  1  0
 37 38  1  0
 37  2  1  0
 24 19  1  0
 35 26  1  0
 35 29  1  0
  1 39  1  0
  2 40  1  6
  3 41  1  1
  4 42  1  0
  4 43  1  0
  7 44  1  0
 11 45  1  0
 15 46  1  0
 18 47  1  0
 18 48  1  0
 19 49  1  1
 21 50  1  1
 22 51  1  6
 23 52  1  0
 24 53  1  6
 25 54  1  0
 27 55  1  0
 31 56  1  0
 31 57  1  0
 33 58  1  0
 37 59  1  6
 38 60  1  0
M  END
$$$$
[H]c1nc([H])c(-c2c([H])c3nc(N([H])C(=O)N([H])C([H])([H])C([H])([H])[H])sc3n(C([H])(C([H])([H])[H])C([H])([H])[H])c2=O)c([H])c1[H]
     RDKit          3D

 44 46  0  0  0  0  0  0  0  0999 V2000
    7.8051   -1.1162    0.5284 C   0  0  0  0  0  0  0  0  0  0  0  0
    6.3918   -1.5958    0.4545 C   0  0  0  0  0  0  0  0  0  0  0  0
    5.5001   -0.4502    0.3463 N   0  0  0  0  0  0  0  0  0  0  0  0
    4.1017   -0.5917    0.2590 C   0  0  0  0  0  0  0  0  0  0  0  0
    3.5795   -1.7259    0.2724 O   0  0  0  0  0  0  0  0  0  0  0  0
    3.2865    0.5516    0.1560 N   0  0  0  0  0  0  0  0  0  0  0  0
    1.8481    0.3930    0.0667 C   0  0  0  0  0  0  0  0  0  0  0  0
    0.9190    1.3135   -0.0344 N   0  0  0  0  0  0  0  0  0  0  0  0
   -0.3314    0.9789   -0.1036 C   0  0  0  0  0  0  0  0  0  0  0  0
   -1.4408    1.8431   -0.2144 C   0  0  0  0  0  0  0  0  0  0  0  0
   -2.6951    1.3291   -0.2763 C   0  0  0  0  0  0  0  0  0  0  0  0
   -3.8073    2.2611   -0.3938 C   0  0  0  0  0  0  0  0  0  0  0  0
   -3.9290    3.3869    0.3900 C   0  0  0  0  0  0  0  0  0  0  0  0
   -5.0069    4.2580    0.2448 C   0  0  0  0  0  0  0  0  0  0  0  0
   -5.9576    3.9839   -0.6949 C   0  0  0  0  0  0  0  0  0  0  0  0
   -5.8380    2.8824   -1.4614 N   0  0  0  0  0  0  0  0  0  0  0  0
   -4.7843    2.0217   -1.3267 C   0  0  0  0  0  0  0  0  0  0  0  0
   -2.9800   -0.0196   -0.2378 C   0  0  0  0  0  0  0  0  0  0  0  0
   -4.1454   -0.4679   -0.2960 O   0  0  0  0  0  0  0  0  0  0  0  0
   -1.9186   -0.8364   -0.1323 N   0  0  0  0  0  0  0  0  0  0  0  0
   -2.0617   -2.2718   -0.0808 C   0  0  0  0  0  0  0  0  0  0  0  0
   -1.2284   -2.9623   -1.1304 C   0  0  0  0  0  0  0  0  0  0  0  0
   -1.7539   -2.8286    1.2907 C   0  0  0  0  0  0  0  0  0  0  0  0
   -0.6383   -0.3559   -0.0673 C   0  0  0  0  0  0  0  0  0  0  0  0
    0.9219   -1.0454    0.0661 S   0  0  0  0  0  0  0  0  0  0  0  0
    8.2328   -1.1769    1.5511 H   0  0  0  0  0  0  0  0  0  0  0  0
    7.8915   -0.0594    0.2021 H   0  0  0  0  0  0  0  0  0  0  0  0
    8.4539   -1.7084   -0.1497 H   0  0  0  0  0  0  0  0  0  0  0  0
    6.2781   -2.2264   -0.4353 H   0  0  0  0  0  0  0  0  0  0  0  0
    6.1695   -2.1448    1.3996 H   0  0  0  0  0  0  0  0  0  0  0  0
    5.9019    0.5177    0.3319 H   0  0  0  0  0  0  0  0  0  0  0  0
    3.7047    1.5059    0.1433 H   0  0  0  0  0  0  0  0  0  0  0  0
   -1.3062    2.9156   -0.2511 H   0  0  0  0  0  0  0  0  0  0  0  0
   -3.1896    3.6341    1.1473 H   0  0  0  0  0  0  0  0  0  0  0  0
   -5.0897    5.1362    0.8655 H   0  0  0  0  0  0  0  0  0  0  0  0
   -6.8262    4.6231   -0.8607 H   0  0  0  0  0  0  0  0  0  0  0  0
   -4.7888    1.1724   -1.9951 H   0  0  0  0  0  0  0  0  0  0  0  0
   -3.1213   -2.5224   -0.2936 H   0  0  0  0  0  0  0  0  0  0  0  0
   -0.6568   -2.2882   -1.7673 H   0  0  0  0  0  0  0  0  0  0  0  0
   -0.5574   -3.7071   -0.6208 H   0  0  0  0  0  0  0  0  0  0  0  0
   -1.8559   -3.5916   -1.8228 H   0  0  0  0  0  0  0  0  0  0  0  0
   -1.3151   -3.8468    1.1608 H   0  0  0  0  0  0  0  0  0  0  0  0
   -1.0726   -2.2118    1.8778 H   0  0  0  0  0  0  0  0  0  0  0  0
   -2.6899   -2.9566    1.8926 H   0  0  0  0  0  0  0  0  0  0  0  0
  1  2  1  0
  2  3  1  0
  3  4  1  0
  4  5  2  0
  4  6  1  0
  6  7  1  0
  7  8  2  0
  8  9  1  0
  9 10  1  0
 10 11  2  0
 11 12  1  0
 12 13  2  0
 13 14  1  0
 14 15  2  0
 15 16  1  0
 16 17  2  0
 11 18  1  0
 18 19  2  0
 18 20  1  0
 20 21  1  0
 21 22  1  0
 21 23  1  0
 20 24  1  0
 24 25  1  0
 25  7  1  0
 24  9  2  0
 17 12  1  0
  1 26  1  0
  1 27  1  0
  1 28  1  0
  2 29  1  0
  2 30  1  0
  3 31  1  0
  6 32  1  0
 10 33  1  0
 13 34  1  0
 14 35  1  0
 15 36  1  0
 17 37  1  0
 21 38  1  0
 22 39  1  0
 22 40  1  0
 22 41  1  0
 23 42  1  0
 23 43  1  0
 23 44  1  0
M  END
$$$$
[H]OC([H])([H])C([H])(n1nc([H])c(-c2c([H])c(OC([H])(C([H])([H])[H])C([H])([H])[H])c([H])c3c2-c2c([H])c([H])c([H])c([H])c2C3(O[H])C(F)(F)F)c1[H])C([H])([H])O[H]
     RDKit          3D

 55 58  0  0  0  0  0  0  0  0999 V2000
    4.4038    3.8174    1.4369 C   0  0  0  0  0  0  0  0  0  0  0  0
    3.9412    3.1336    0.1404 C   0  0  0  0  0  0  0  0  0  0  0  0
    4.1441    4.1726   -0.9468 C   0  0  0  0  0  0  0  0  0  0  0  0
    2.6099    2.8168    0.3107 O   0  0  0  0  0  0  0  0  0  0  0  0
    2.0176    1.5632    0.3098 C   0  0  0  0  0  0  0  0  0  0  0  0
    2.7136    0.3951    0.1288 C   0  0  0  0  0  0  0  0  0  0  0  0
    2.1395   -0.8719    0.1254 C   0  0  0  0  0  0  0  0  0  0  0  0
    0.7808   -0.9551    0.3176 C   0  0  0  0  0  0  0  0  0  0  0  0
    0.4087   -2.3827    0.3166 C   0  0  0  0  0  0  0  0  0  0  0  0
   -0.7900   -3.0321    0.5012 C   0  0  0  0  0  0  0  0  0  0  0  0
   -0.8194   -4.4169    0.4839 C   0  0  0  0  0  0  0  0  0  0  0  0
    0.3255   -5.1669    0.2865 C   0  0  0  0  0  0  0  0  0  0  0  0
    1.5224   -4.5136    0.1028 C   0  0  0  0  0  0  0  0  0  0  0  0
    1.5668   -3.1283    0.1167 C   0  0  0  0  0  0  0  0  0  0  0  0
    2.6773   -2.2188   -0.0589 C   0  0  0  0  0  0  0  0  0  0  0  0
    3.6579   -2.5273    0.8900 O   0  0  0  0  0  0  0  0  0  0  0  0
    3.3270   -2.3926   -1.4180 C   0  0  0  0  0  0  0  0  0  0  0  0
    3.8062   -3.6786   -1.4964 F   0  0  0  0  0  0  0  0  0  0  0  0
    4.3914   -1.5376   -1.5830 F   0  0  0  0  0  0  0  0  0  0  0  0
    2.3855   -2.2374   -2.4355 F   0  0  0  0  0  0  0  0  0  0  0  0
    0.0095    0.1822    0.5049 C   0  0  0  0  0  0  0  0  0  0  0  0
    0.6578    1.4281    0.4969 C   0  0  0  0  0  0  0  0  0  0  0  0
   -1.4305    0.1990    0.6499 C   0  0  0  0  0  0  0  0  0  0  0  0
   -2.0970    0.3360    1.8444 C   0  0  0  0  0  0  0  0  0  0  0  0
   -3.4045    0.3651    1.5468 N   0  0  0  0  0  0  0  0  0  0  0  0
   -3.5882    0.2532    0.2276 N   0  0  0  0  0  0  0  0  0  0  0  0
   -2.3850    0.1505   -0.3352 C   0  0  0  0  0  0  0  0  0  0  0  0
   -4.8752    0.2482   -0.4356 C   0  0  0  0  0  0  0  0  0  0  0  0
   -4.9738    1.3899   -1.4413 C   0  0  0  0  0  0  0  0  0  0  0  0
   -4.0150    1.3181   -2.4240 O   0  0  0  0  0  0  0  0  0  0  0  0
   -5.9755    0.4971    0.5874 C   0  0  0  0  0  0  0  0  0  0  0  0
   -7.2304    0.4990   -0.0159 O   0  0  0  0  0  0  0  0  0  0  0  0
    3.5902    4.5028    1.7729 H   0  0  0  0  0  0  0  0  0  0  0  0
    5.3094    4.4132    1.1973 H   0  0  0  0  0  0  0  0  0  0  0  0
    4.6443    3.0778    2.2161 H   0  0  0  0  0  0  0  0  0  0  0  0
    4.5571    2.2506   -0.0093 H   0  0  0  0  0  0  0  0  0  0  0  0
    3.8424    3.7256   -1.9025 H   0  0  0  0  0  0  0  0  0  0  0  0
    3.6370    5.1047   -0.7037 H   0  0  0  0  0  0  0  0  0  0  0  0
    5.2347    4.3792   -1.0049 H   0  0  0  0  0  0  0  0  0  0  0  0
    3.7749    0.4103   -0.0243 H   0  0  0  0  0  0  0  0  0  0  0  0
   -1.7178   -2.5341    0.6738 H   0  0  0  0  0  0  0  0  0  0  0  0
   -1.7690   -4.9151    0.6296 H   0  0  0  0  0  0  0  0  0  0  0  0
    0.3019   -6.2477    0.2734 H   0  0  0  0  0  0  0  0  0  0  0  0
    2.4245   -5.0559   -0.0457 H   0  0  0  0  0  0  0  0  0  0  0  0
    3.2419   -2.7111    1.7593 H   0  0  0  0  0  0  0  0  0  0  0  0
    0.0772    2.3252    0.6423 H   0  0  0  0  0  0  0  0  0  0  0  0
   -1.6771    0.4101    2.8583 H   0  0  0  0  0  0  0  0  0  0  0  0
   -2.1805    0.0470   -1.3782 H   0  0  0  0  0  0  0  0  0  0  0  0
   -5.0745   -0.7227   -0.9356 H   0  0  0  0  0  0  0  0  0  0  0  0
   -5.9655    1.3578   -1.9093 H   0  0  0  0  0  0  0  0  0  0  0  0
   -4.8517    2.3311   -0.8309 H   0  0  0  0  0  0  0  0  0  0  0  0
   -3.6814    2.1850   -2.7269 H   0  0  0  0  0  0  0  0  0  0  0  0
   -5.8124    1.5163    1.0287 H   0  0  0  0  0  0  0  0  0  0  0  0
   -5.9217   -0.2094    1.4379 H   0  0  0  0  0  0  0  0  0  0  0  0
   -7.8859    0.6539    0.7107 H   0  0  0  0  0  0  0  0  0  0  0  0
  1  2  1  0
  2  3  1  0
  2  4  1  0
  4  5  1  0
  5  6  2  0
  6  7  1  0
  7  8  2  0
  8  9  1  0
  9 10  2  0
 10 11  1  0
 11 12  2  0
 12 13  1  0
 13 14  2  0
 14 15  1  0
 15 16  1  0
 15 17  1  0
 17 18  1  0
 17 19  1  0
 17 20  1  0
  8 21  1  0
 21 22  2  0
 21 23  1  0
 23 24  1  0
 24 25  2  0
 25 26  1  0
 26 27  1  0
 26 28  1  0
 28 29  1  0
 29 30  1  0
 28 31  1  0
 31 32  1  0
 22  5  1  0
 27 23  2  0
 15  7  1  0
 14  9  1  0
  1 33  1  0
  1 34  1  0
  1 35  1  0
  2 36  1  0
  3 37  1  0
  3 38  1  0
  3 39  1  0
  6 40  1  0
 10 41  1  0
 11 42  1  0
 12 43  1  0
 13 44  1  0
 16 45  1  0
 22 46  1  0
 24 47  1  0
 27 48  1  0
 28 49  1  0
 29 50  1  0
 29 51  1  0
 30 52  1  0
 31 53  1  0
 31 54  1  0
 32 55  1  0
M  END
$$$$
[H]c1c([H])c([H])c(C([H])([H])[C@@]([H])(C(=O)N([H])[C@]([H])(C(=O)[C@]2(C([H])([H])[H])OC2([H])[H])C([H])([H])c2c([H])c([H])c([H])c([H])c2[H])N([H])C(=O)[C@]2([H])OC(=O)[C@@]2([H])[C@@]([H])(C([H])([H])[H])C([H])([H])C([H])([H])[H])c([H])c1[H]
     RDKit          3D

 71 74  0  0  0  0  0  0  0  0999 V2000
    7.6433   -2.7884    1.8165 C   0  0  0  0  0  0  0  0  0  0  0  0
    6.4950   -1.8179    2.0060 C   0  0  0  0  0  0  0  0  0  0  0  0
    5.2403   -2.5217    1.5156 C   0  0  2  0  0  0  0  0  0  0  0  0
    5.3940   -2.8836    0.0689 C   0  0  0  0  0  0  0  0  0  0  0  0
    4.0031   -1.7224    1.8013 C   0  0  1  0  0  0  0  0  0  0  0  0
    2.7089   -2.3036    1.3706 C   0  0  1  0  0  0  0  0  0  0  0  0
    2.7791   -3.1107    2.5233 O   0  0  0  0  0  0  0  0  0  0  0  0
    3.4623   -2.0701    3.1335 C   0  0  0  0  0  0  0  0  0  0  0  0
    3.6225   -1.5651    4.2737 O   0  0  0  0  0  0  0  0  0  0  0  0
    1.6046   -1.3223    1.4875 C   0  0  0  0  0  0  0  0  0  0  0  0
    0.8593   -1.2932    2.5242 O   0  0  0  0  0  0  0  0  0  0  0  0
    1.3166   -0.3770    0.4750 N   0  0  0  0  0  0  0  0  0  0  0  0
    0.1988    0.6058    0.6061 C   0  0  1  0  0  0  0  0  0  0  0  0
    0.8355    1.9535    0.7627 C   0  0  0  0  0  0  0  0  0  0  0  0
   -0.0204    3.1166    0.9122 C   0  0  0  0  0  0  0  0  0  0  0  0
   -0.3802    3.9801   -0.1066 C   0  0  0  0  0  0  0  0  0  0  0  0
   -1.1935    5.0716    0.1024 C   0  0  0  0  0  0  0  0  0  0  0  0
   -1.6840    5.3429    1.3577 C   0  0  0  0  0  0  0  0  0  0  0  0
   -1.3525    4.5110    2.4014 C   0  0  0  0  0  0  0  0  0  0  0  0
   -0.5349    3.4178    2.1797 C   0  0  0  0  0  0  0  0  0  0  0  0
   -0.7553    0.4106   -0.4671 C   0  0  0  0  0  0  0  0  0  0  0  0
   -0.4168   -0.4191   -1.3904 O   0  0  0  0  0  0  0  0  0  0  0  0
   -2.0180    1.0009   -0.6409 N   0  0  0  0  0  0  0  0  0  0  0  0
   -2.8707    0.6749   -1.7882 C   0  0  1  0  0  0  0  0  0  0  0  0
   -4.0898   -0.0745   -1.2173 C   0  0  0  0  0  0  0  0  0  0  0  0
   -3.6556   -1.3056   -0.5127 C   0  0  0  0  0  0  0  0  0  0  0  0
   -3.5476   -2.5022   -1.1887 C   0  0  0  0  0  0  0  0  0  0  0  0
   -3.1448   -3.6570   -0.5365 C   0  0  0  0  0  0  0  0  0  0  0  0
   -2.8481   -3.6071    0.8066 C   0  0  0  0  0  0  0  0  0  0  0  0
   -2.9542   -2.4041    1.4972 C   0  0  0  0  0  0  0  0  0  0  0  0
   -3.3599   -1.2658    0.8171 C   0  0  0  0  0  0  0  0  0  0  0  0
   -3.3783    1.8438   -2.5102 C   0  0  0  0  0  0  0  0  0  0  0  0
   -3.1844    2.9531   -2.0779 O   0  0  0  0  0  0  0  0  0  0  0  0
   -4.1283    1.7066   -3.7732 C   0  0  1  0  0  0  0  0  0  0  0  0
   -4.9869    2.9002   -4.2198 C   0  0  0  0  0  0  0  0  0  0  0  0
   -3.5778    0.9006   -4.8768 C   0  0  0  0  0  0  0  0  0  0  0  0
   -4.6880    0.4872   -4.1671 O   0  0  0  0  0  0  0  0  0  0  0  0
    8.0014   -3.1847    2.8039 H   0  0  0  0  0  0  0  0  0  0  0  0
    8.5101   -2.3193    1.3002 H   0  0  0  0  0  0  0  0  0  0  0  0
    7.3584   -3.6710    1.2134 H   0  0  0  0  0  0  0  0  0  0  0  0
    6.6737   -0.9576    1.3517 H   0  0  0  0  0  0  0  0  0  0  0  0
    6.4081   -1.5517    3.0780 H   0  0  0  0  0  0  0  0  0  0  0  0
    5.1693   -3.4694    2.0869 H   0  0  0  0  0  0  0  0  0  0  0  0
    4.7111   -2.3219   -0.5974 H   0  0  0  0  0  0  0  0  0  0  0  0
    5.3133   -3.9831   -0.0891 H   0  0  0  0  0  0  0  0  0  0  0  0
    6.4178   -2.6081   -0.2505 H   0  0  0  0  0  0  0  0  0  0  0  0
    4.0918   -0.6406    1.5796 H   0  0  0  0  0  0  0  0  0  0  0  0
    2.6890   -2.8451    0.4077 H   0  0  0  0  0  0  0  0  0  0  0  0
    1.9130   -0.3814   -0.3784 H   0  0  0  0  0  0  0  0  0  0  0  0
   -0.2718    0.3684    1.5896 H   0  0  0  0  0  0  0  0  0  0  0  0
    1.4329    2.1116   -0.1980 H   0  0  0  0  0  0  0  0  0  0  0  0
    1.5976    1.9154    1.6006 H   0  0  0  0  0  0  0  0  0  0  0  0
    0.0130    3.7631   -1.1114 H   0  0  0  0  0  0  0  0  0  0  0  0
   -1.4744    5.7496   -0.7045 H   0  0  0  0  0  0  0  0  0  0  0  0
   -2.3279    6.1948    1.5577 H   0  0  0  0  0  0  0  0  0  0  0  0
   -1.7121    4.6803    3.4084 H   0  0  0  0  0  0  0  0  0  0  0  0
   -0.2639    2.7537    2.9875 H   0  0  0  0  0  0  0  0  0  0  0  0
   -2.3772    1.6740    0.0564 H   0  0  0  0  0  0  0  0  0  0  0  0
   -2.3414   -0.0441   -2.4437 H   0  0  0  0  0  0  0  0  0  0  0  0
   -4.5928    0.6235   -0.5004 H   0  0  0  0  0  0  0  0  0  0  0  0
   -4.8147   -0.3724   -1.9619 H   0  0  0  0  0  0  0  0  0  0  0  0
   -3.7852   -2.5394   -2.2599 H   0  0  0  0  0  0  0  0  0  0  0  0
   -3.0690   -4.5832   -1.0907 H   0  0  0  0  0  0  0  0  0  0  0  0
   -2.5287   -4.5209    1.3204 H   0  0  0  0  0  0  0  0  0  0  0  0
   -2.7160   -2.3917    2.5500 H   0  0  0  0  0  0  0  0  0  0  0  0
   -3.4234   -0.3503    1.4224 H   0  0  0  0  0  0  0  0  0  0  0  0
   -4.3113    3.7490   -4.4538 H   0  0  0  0  0  0  0  0  0  0  0  0
   -5.7351    3.1552   -3.4409 H   0  0  0  0  0  0  0  0  0  0  0  0
   -5.5059    2.6309   -5.1456 H   0  0  0  0  0  0  0  0  0  0  0  0
   -3.7853    1.2128   -5.9143 H   0  0  0  0  0  0  0  0  0  0  0  0
   -2.6578    0.2875   -4.7397 H   0  0  0  0  0  0  0  0  0  0  0  0
  1  2  1  0
  2  3  1  0
  3  4  1  0
  3  5  1  0
  5  6  1  0
  6  7  1  0
  7  8  1  0
  8  9  2  0
  6 10  1  0
 10 11  2  0
 10 12  1  0
 12 13  1  0
 13 14  1  0
 14 15  1  0
 15 16  2  0
 16 17  1  0
 17 18  2  0
 18 19  1  0
 19 20  2  0
 13 21  1  0
 21 22  2  0
 21 23  1  0
 23 24  1  0
 24 25  1  0
 25 26  1  0
 26 27  2  0
 27 28  1  0
 28 29  2  0
 29 30  1  0
 30 31  2  0
 24 32  1  0
 32 33  2  0
 34 32  1  1
 34 35  1  0
 34 36  1  0
 36 37  1  0
  8  5  1  0
 20 15  1  0
 31 26  1  0
 37 34  1  0
  1 38  1  0
  1 39  1  0
  1 40  1  0
  2 41  1  0
  2 42  1  0
  3 43  1  1
  4 44  1  0
  4 45  1  0
  4 46  1  0
  5 47  1  1
  6 48  1  6
 12 49  1  0
 13 50  1  1
 14 51  1  0
 14 52  1  0
 16 53  1  0
 17 54  1  0
 18 55  1  0
 19 56  1  0
 20 57  1  0
 23 58  1  0
 24 59  1  6
 25 60  1  0
 25 61  1  0
 27 62  1  0
 28 63  1  0
 29 64  1  0
 30 65  1  0
 31 66  1  0
 35 67  1  0
 35 68  1  0
 35 69  1  0
 36 70  1  0
 36 71  1  0
M  END
$$$$
[H]c1oc(C(=O)N([H])[C@]2([H])C([H])([H])N(c3nc(N([H])[H])c4c([H])c(OC([H])([H])[H])c(OC([H])([H])[H])c([H])c4n3)C([H])([H])C([H])([H])C2([H])[H])c([H])c1[H]
     RDKit          3D

 52 55  0  0  0  0  0  0  0  0999 V2000
   -4.4990    2.4921   -2.2525 C   0  0  0  0  0  0  0  0  0  0  0  0
   -5.2126    1.7005   -1.3140 O   0  0  0  0  0  0  0  0  0  0  0  0
   -4.4723    0.7705   -0.5736 C   0  0  0  0  0  0  0  0  0  0  0  0
   -3.1136    0.6088   -0.7286 C   0  0  0  0  0  0  0  0  0  0  0  0
   -2.4099   -0.3211    0.0199 C   0  0  0  0  0  0  0  0  0  0  0  0
   -1.0800   -0.4810   -0.1257 N   0  0  0  0  0  0  0  0  0  0  0  0
   -0.3684   -1.3697    0.5851 C   0  0  0  0  0  0  0  0  0  0  0  0
   -1.0348   -2.1218    1.4751 N   0  0  0  0  0  0  0  0  0  0  0  0
   -2.3591   -2.0249    1.6809 C   0  0  0  0  0  0  0  0  0  0  0  0
   -3.0491   -2.8267    2.6220 N   0  0  0  0  0  0  0  0  0  0  0  0
   -3.0733   -1.1157    0.9511 C   0  0  0  0  0  0  0  0  0  0  0  0
   -4.4281   -0.9771    1.1279 C   0  0  0  0  0  0  0  0  0  0  0  0
   -5.0975   -0.0440    0.3685 C   0  0  0  0  0  0  0  0  0  0  0  0
   -6.4701    0.1303    0.5141 O   0  0  0  0  0  0  0  0  0  0  0  0
   -7.2015   -0.6681    1.4531 C   0  0  0  0  0  0  0  0  0  0  0  0
    1.0562   -1.5074    0.3999 N   0  0  0  0  0  0  0  0  0  0  0  0
    1.7590   -2.4867    1.1991 C   0  0  0  0  0  0  0  0  0  0  0  0
    2.9515   -1.8608    1.8976 C   0  0  0  0  0  0  0  0  0  0  0  0
    3.2358   -0.4832    1.3403 C   0  0  0  0  0  0  0  0  0  0  0  0
    3.1525   -0.4963   -0.1467 C   0  0  1  0  0  0  0  0  0  0  0  0
    1.7190   -0.6654   -0.5671 C   0  0  0  0  0  0  0  0  0  0  0  0
    3.7584    0.6770   -0.7345 N   0  0  0  0  0  0  0  0  0  0  0  0
    4.8718    0.6809   -1.5952 C   0  0  0  0  0  0  0  0  0  0  0  0
    5.4198   -0.3904   -1.9098 O   0  0  0  0  0  0  0  0  0  0  0  0
    5.3766    1.9327   -2.1129 C   0  0  0  0  0  0  0  0  0  0  0  0
    6.4731    2.0877   -2.9716 C   0  0  0  0  0  0  0  0  0  0  0  0
    6.6186    3.4348   -3.2233 C   0  0  0  0  0  0  0  0  0  0  0  0
    5.6117    4.0561   -2.5139 C   0  0  0  0  0  0  0  0  0  0  0  0
    4.9215    3.1450   -1.8890 O   0  0  0  0  0  0  0  0  0  0  0  0
   -4.0669    1.8453   -3.0698 H   0  0  0  0  0  0  0  0  0  0  0  0
   -5.1850    3.2026   -2.7790 H   0  0  0  0  0  0  0  0  0  0  0  0
   -3.6286    3.0027   -1.7897 H   0  0  0  0  0  0  0  0  0  0  0  0
   -2.5760    1.2127   -1.4475 H   0  0  0  0  0  0  0  0  0  0  0  0
   -2.8043   -2.8857    3.6328 H   0  0  0  0  0  0  0  0  0  0  0  0
   -3.8528   -3.3941    2.2796 H   0  0  0  0  0  0  0  0  0  0  0  0
   -4.9079   -1.6069    1.8537 H   0  0  0  0  0  0  0  0  0  0  0  0
   -8.2884   -0.5538    1.2637 H   0  0  0  0  0  0  0  0  0  0  0  0
   -7.0218   -0.2545    2.4787 H   0  0  0  0  0  0  0  0  0  0  0  0
   -6.9534   -1.7377    1.3625 H   0  0  0  0  0  0  0  0  0  0  0  0
    1.0688   -2.8334    1.9918 H   0  0  0  0  0  0  0  0  0  0  0  0
    2.0403   -3.3739    0.5954 H   0  0  0  0  0  0  0  0  0  0  0  0
    3.8297   -2.4940    1.6789 H   0  0  0  0  0  0  0  0  0  0  0  0
    2.8178   -1.8434    2.9937 H   0  0  0  0  0  0  0  0  0  0  0  0
    2.4510    0.1902    1.7384 H   0  0  0  0  0  0  0  0  0  0  0  0
    4.2167   -0.0941    1.7120 H   0  0  0  0  0  0  0  0  0  0  0  0
    3.7359   -1.3909   -0.5102 H   0  0  0  0  0  0  0  0  0  0  0  0
    1.2330    0.3424   -0.4687 H   0  0  0  0  0  0  0  0  0  0  0  0
    1.6231   -1.0555   -1.6028 H   0  0  0  0  0  0  0  0  0  0  0  0
    3.2832    1.5903   -0.4625 H   0  0  0  0  0  0  0  0  0  0  0  0
    7.0922    1.2822   -3.3654 H   0  0  0  0  0  0  0  0  0  0  0  0
    7.3892    3.8422   -3.8580 H   0  0  0  0  0  0  0  0  0  0  0  0
    5.4480    5.1315   -2.4993 H   0  0  0  0  0  0  0  0  0  0  0  0
  1  2  1  0
  2  3  1  0
  3  4  2  0
  4  5  1  0
  5  6  2  0
  6  7  1  0
  7  8  2  0
  8  9  1  0
  9 10  1  0
  9 11  2  0
 11 12  1  0
 12 13  2  0
 13 14  1  0
 14 15  1  0
  7 16  1  0
 16 17  1  0
 17 18  1  0
 18 19  1  0
 19 20  1  0
 20 21  1  0
 20 22  1  0
 22 23  1  0
 23 24  2  0
 23 25  1  0
 25 26  2  0
 26 27  1  0
 27 28  2  0
 28 29  1  0
 13  3  1  0
 21 16  1  0
 29 25  1  0
 11  5  1  0
  1 30  1  0
  1 31  1  0
  1 32  1  0
  4 33  1  0
 10 34  1  0
 10 35  1  0
 12 36  1  0
 15 37  1  0
 15 38  1  0
 15 39  1  0
 17 40  1  0
 17 41  1  0
 18 42  1  0
 18 43  1  0
 19 44  1  0
 19 45  1  0
 20 46  1  6
 21 47  1  0
 21 48  1  0
 22 49  1  0
 26 50  1  0
 27 51  1  0
 28 52  1  0
M  END
$$$$
[H]N=C(N([H])[H])N([H])C([H])([H])C([H])([H])C([H])([H])[C@@]([H])(C(=O)c1nc2c([H])c([H])c([H])c([H])c2s1)N([H])C(=O)[C@@]1([H])N(C(=O)[C@@]([H])(N([H])S(=O)(=O)C([H])([H])c2c([H])c([H])c([H])c([H])c2[H])C([H])([H])c2c([H])c([H])c([H])c([H])c2[H])C([H])([H])C([H])([H])C1([H])[H]
     RDKit          3D

 87 91  0  0  0  0  0  0  0  0999 V2000
   -7.5393   -3.9503   -1.0114 N   0  0  0  0  0  0  0  0  0  0  0  0
   -6.7797   -4.1644    0.1465 C   0  0  0  0  0  0  0  0  0  0  0  0
   -5.8519   -5.0832    0.1099 N   0  0  0  0  0  0  0  0  0  0  0  0
   -7.0155   -3.4388    1.3260 N   0  0  0  0  0  0  0  0  0  0  0  0
   -6.0512   -2.8885    2.2001 C   0  0  0  0  0  0  0  0  0  0  0  0
   -5.2827   -1.6733    1.7164 C   0  0  0  0  0  0  0  0  0  0  0  0
   -4.4991   -1.8584    0.4839 C   0  0  0  0  0  0  0  0  0  0  0  0
   -3.6181   -0.8444   -0.0518 C   0  0  2  0  0  0  0  0  0  0  0  0
   -2.4904   -0.3333    0.6470 N   0  0  0  0  0  0  0  0  0  0  0  0
   -1.1551   -0.6431    0.2996 C   0  0  0  0  0  0  0  0  0  0  0  0
   -0.8400   -1.4400   -0.6178 O   0  0  0  0  0  0  0  0  0  0  0  0
   -0.0188    0.0254    1.0474 C   0  0  2  0  0  0  0  0  0  0  0  0
   -0.3107    1.5277    1.0600 C   0  0  0  0  0  0  0  0  0  0  0  0
   -0.2746    1.8632   -0.4456 C   0  0  0  0  0  0  0  0  0  0  0  0
    0.7206    0.8399   -0.9859 C   0  0  0  0  0  0  0  0  0  0  0  0
    1.1480    0.0404    0.1472 N   0  0  0  0  0  0  0  0  0  0  0  0
    2.4265   -0.4886    0.3438 C   0  0  0  0  0  0  0  0  0  0  0  0
    2.7553   -0.9704    1.4688 O   0  0  0  0  0  0  0  0  0  0  0  0
    3.4976   -0.5399   -0.7146 C   0  0  2  0  0  0  0  0  0  0  0  0
    3.3715   -1.7912   -1.4893 C   0  0  0  0  0  0  0  0  0  0  0  0
    4.3558   -2.1003   -2.5159 C   0  0  0  0  0  0  0  0  0  0  0  0
    5.3746   -3.0099   -2.1521 C   0  0  0  0  0  0  0  0  0  0  0  0
    6.3394   -3.3876   -3.0583 C   0  0  0  0  0  0  0  0  0  0  0  0
    6.2540   -2.8364   -4.3169 C   0  0  0  0  0  0  0  0  0  0  0  0
    5.2517   -1.9379   -4.6940 C   0  0  0  0  0  0  0  0  0  0  0  0
    4.2792   -1.5568   -3.7740 C   0  0  0  0  0  0  0  0  0  0  0  0
    4.7856   -0.3110   -0.1803 N   0  0  0  0  0  0  0  0  0  0  0  0
    5.3309    1.2804   -0.6311 S   0  0  0  0  0  0  0  0  0  0  0  0
    6.6762    1.0489   -1.3152 O   0  0  0  0  0  0  0  0  0  0  0  0
    4.4076    1.8706   -1.6150 O   0  0  0  0  0  0  0  0  0  0  0  0
    5.5346    2.3301    0.7713 C   0  0  0  0  0  0  0  0  0  0  0  0
    6.6586    1.8631    1.5841 C   0  0  0  0  0  0  0  0  0  0  0  0
    7.8968    2.4787    1.3102 C   0  0  0  0  0  0  0  0  0  0  0  0
    9.0414    2.1423    1.9710 C   0  0  0  0  0  0  0  0  0  0  0  0
    8.9752    1.1541    2.9484 C   0  0  0  0  0  0  0  0  0  0  0  0
    7.7809    0.5263    3.2461 C   0  0  0  0  0  0  0  0  0  0  0  0
    6.6214    0.9085    2.5369 C   0  0  0  0  0  0  0  0  0  0  0  0
   -4.2179    0.1876   -0.9161 C   0  0  0  0  0  0  0  0  0  0  0  0
   -4.0344    0.1780   -2.1454 O   0  0  0  0  0  0  0  0  0  0  0  0
   -5.0461    1.2934   -0.3778 C   0  0  0  0  0  0  0  0  0  0  0  0
   -5.7160    2.2231   -1.0049 N   0  0  0  0  0  0  0  0  0  0  0  0
   -6.2782    3.1982   -0.3597 C   0  0  0  0  0  0  0  0  0  0  0  0
   -7.0141    4.2522   -0.9392 C   0  0  0  0  0  0  0  0  0  0  0  0
   -7.5371    5.2134   -0.1336 C   0  0  0  0  0  0  0  0  0  0  0  0
   -7.4204    5.2639    1.2369 C   0  0  0  0  0  0  0  0  0  0  0  0
   -6.7011    4.2289    1.8003 C   0  0  0  0  0  0  0  0  0  0  0  0
   -6.1422    3.2183    1.0037 C   0  0  0  0  0  0  0  0  0  0  0  0
   -5.2107    1.8201    1.2658 S   0  0  0  0  0  0  0  0  0  0  0  0
   -8.1569   -4.7197   -1.3976 H   0  0  0  0  0  0  0  0  0  0  0  0
   -7.5454   -3.0592   -1.5449 H   0  0  0  0  0  0  0  0  0  0  0  0
   -5.2577   -5.2781    0.9534 H   0  0  0  0  0  0  0  0  0  0  0  0
   -8.0369   -3.2826    1.6039 H   0  0  0  0  0  0  0  0  0  0  0  0
   -6.4919   -2.5597    3.1900 H   0  0  0  0  0  0  0  0  0  0  0  0
   -5.3421   -3.7058    2.5088 H   0  0  0  0  0  0  0  0  0  0  0  0
   -4.6919   -1.2919    2.5654 H   0  0  0  0  0  0  0  0  0  0  0  0
   -6.0716   -0.8789    1.4816 H   0  0  0  0  0  0  0  0  0  0  0  0
   -3.8874   -2.8299    0.6203 H   0  0  0  0  0  0  0  0  0  0  0  0
   -5.1680   -2.1825   -0.3870 H   0  0  0  0  0  0  0  0  0  0  0  0
   -3.0257   -1.4826   -0.9176 H   0  0  0  0  0  0  0  0  0  0  0  0
   -2.5951    0.3152    1.4804 H   0  0  0  0  0  0  0  0  0  0  0  0
    0.1500   -0.3555    2.0159 H   0  0  0  0  0  0  0  0  0  0  0  0
   -1.2897    1.7987    1.4313 H   0  0  0  0  0  0  0  0  0  0  0  0
    0.5196    2.0865    1.5193 H   0  0  0  0  0  0  0  0  0  0  0  0
   -1.2616    1.6255   -0.8928 H   0  0  0  0  0  0  0  0  0  0  0  0
    0.0975    2.8682   -0.6345 H   0  0  0  0  0  0  0  0  0  0  0  0
    0.3089    0.1983   -1.7583 H   0  0  0  0  0  0  0  0  0  0  0  0
    1.6043    1.3764   -1.4145 H   0  0  0  0  0  0  0  0  0  0  0  0
    3.2253    0.3611   -1.3501 H   0  0  0  0  0  0  0  0  0  0  0  0
    2.3863   -1.6355   -2.1038 H   0  0  0  0  0  0  0  0  0  0  0  0
    3.0595   -2.6900   -0.8778 H   0  0  0  0  0  0  0  0  0  0  0  0
    5.4418   -3.4467   -1.1589 H   0  0  0  0  0  0  0  0  0  0  0  0
    7.1377   -4.0870   -2.8466 H   0  0  0  0  0  0  0  0  0  0  0  0
    6.9748   -3.0798   -5.0917 H   0  0  0  0  0  0  0  0  0  0  0  0
    5.1755   -1.5111   -5.6709 H   0  0  0  0  0  0  0  0  0  0  0  0
    3.4816   -0.8584   -3.9903 H   0  0  0  0  0  0  0  0  0  0  0  0
    4.9501   -0.5499    0.7912 H   0  0  0  0  0  0  0  0  0  0  0  0
    5.6562    3.4034    0.4772 H   0  0  0  0  0  0  0  0  0  0  0  0
    4.6077    2.3137    1.4202 H   0  0  0  0  0  0  0  0  0  0  0  0
    7.9330    3.2653    0.5327 H   0  0  0  0  0  0  0  0  0  0  0  0
    9.9948    2.5992    1.7770 H   0  0  0  0  0  0  0  0  0  0  0  0
    9.8615    0.8541    3.4834 H   0  0  0  0  0  0  0  0  0  0  0  0
    7.7496   -0.2429    4.0063 H   0  0  0  0  0  0  0  0  0  0  0  0
    5.7183    0.4189    2.7980 H   0  0  0  0  0  0  0  0  0  0  0  0
   -7.1753    4.3316   -2.0022 H   0  0  0  0  0  0  0  0  0  0  0  0
   -8.1129    6.0285   -0.5824 H   0  0  0  0  0  0  0  0  0  0  0  0
   -7.8345    6.0193    1.8748 H   0  0  0  0  0  0  0  0  0  0  0  0
   -6.5270    4.1348    2.8652 H   0  0  0  0  0  0  0  0  0  0  0  0
  1  2  1  0
  2  3  2  3
  2  4  1  0
  4  5  1  0
  5  6  1  0
  6  7  1  0
  7  8  1  0
  8  9  1  0
  9 10  1  0
 10 11  2  0
 10 12  1  0
 12 13  1  0
 13 14  1  0
 14 15  1  0
 15 16  1  0
 16 17  1  0
 17 18  2  0
 17 19  1  0
 19 20  1  0
 20 21  1  0
 21 22  2  0
 22 23  1  0
 23 24  2  0
 24 25  1  0
 25 26  2  0
 19 27  1  0
 27 28  1  0
 28 29  2  0
 28 30  2  0
 28 31  1  0
 31 32  1  0
 32 33  2  0
 33 34  1  0
 34 35  2  0
 35 36  1  0
 36 37  2  0
  8 38  1  0
 38 39  2  0
 38 40  1  0
 40 41  2  0
 41 42  1  0
 42 43  2  0
 43 44  1  0
 44 45  2  0
 45 46  1  0
 46 47  2  0
 47 48  1  0
 16 12  1  0
 26 21  1  0
 37 32  1  0
 48 40  1  0
 47 42  1  0
  1 49  1  0
  1 50  1  0
  3 51  1  0
  4 52  1  0
  5 53  1  0
  5 54  1  0
  6 55  1  0
  6 56  1  0
  7 57  1  0
  7 58  1  0
  8 59  1  6
  9 60  1  0
 12 61  1  1
 13 62  1  0
 13 63  1  0
 14 64  1  0
 14 65  1  0
 15 66  1  0
 15 67  1  0
 19 68  1  6
 20 69  1  0
 20 70  1  0
 22 71  1  0
 23 72  1  0
 24 73  1  0
 25 74  1  0
 26 75  1  0
 27 76  1  0
 31 77  1  0
 31 78  1  0
 33 79  1  0
 34 80  1  0
 35 81  1  0
 36 82  1  0
 37 83  1  0
 43 84  1  0
 44 85  1  0
 45 86  1  0
 46 87  1  0
M  END
$$$$
[H]c1nc(S(=O)(=O)N([H])C([H])([H])C(=O)[C@@]([H])(N([H])C(=O)O[C@]([H])(C([H])([H])n2nc(-c3c([H])c([H])c(C(F)(F)F)c([H])c3[H])c([H])c2[H])C(C([H])([H])[H])(C([H])([H])[H])C([H])([H])[H])C([H])([H])C([H])([H])C([H])([H])C([H])([H])[H])c([H])c([H])c1[H]
     RDKit          3D

 79 81  0  0  0  0  0  0  0  0999 V2000
   -5.7511   -3.6206    0.1554 C   0  0  0  0  0  0  0  0  0  0  0  0
   -4.3108   -3.7632    0.5984 C   0  0  0  0  0  0  0  0  0  0  0  0
   -3.6106   -2.4259    0.5375 C   0  0  0  0  0  0  0  0  0  0  0  0
   -3.5751   -1.8147   -0.8182 C   0  0  0  0  0  0  0  0  0  0  0  0
   -2.8429   -0.4814   -0.8207 C   0  0  2  0  0  0  0  0  0  0  0  0
   -1.5379   -0.5223   -0.4381 N   0  0  0  0  0  0  0  0  0  0  0  0
   -0.2366   -0.4907    0.0065 C   0  0  0  0  0  0  0  0  0  0  0  0
    0.2489    0.2657    0.8917 O   0  0  0  0  0  0  0  0  0  0  0  0
    0.7230   -1.3767   -0.5689 O   0  0  0  0  0  0  0  0  0  0  0  0
    2.1125   -1.3272   -0.1288 C   0  0  2  0  0  0  0  0  0  0  0  0
    2.7596   -0.6090   -1.2976 C   0  0  0  0  0  0  0  0  0  0  0  0
    4.1406   -0.3536   -1.2728 N   0  0  0  0  0  0  0  0  0  0  0  0
    5.0716   -1.1486   -1.8170 C   0  0  0  0  0  0  0  0  0  0  0  0
    6.3026   -0.6343   -1.6291 C   0  0  0  0  0  0  0  0  0  0  0  0
    6.1305    0.5681   -0.9189 C   0  0  0  0  0  0  0  0  0  0  0  0
    4.8136    0.6663   -0.7432 N   0  0  0  0  0  0  0  0  0  0  0  0
    7.2348    1.4212   -0.5202 C   0  0  0  0  0  0  0  0  0  0  0  0
    8.5299    1.0665   -0.8204 C   0  0  0  0  0  0  0  0  0  0  0  0
    9.5951    1.8504   -0.4432 C   0  0  0  0  0  0  0  0  0  0  0  0
    9.4123    3.0236    0.2514 C   0  0  0  0  0  0  0  0  0  0  0  0
    8.1192    3.4060    0.5656 C   0  0  0  0  0  0  0  0  0  0  0  0
    7.0578    2.5894    0.1684 C   0  0  0  0  0  0  0  0  0  0  0  0
   10.5538    3.8655    0.6886 C   0  0  0  0  0  0  0  0  0  0  0  0
   10.4378    5.1383    0.2006 F   0  0  0  0  0  0  0  0  0  0  0  0
   10.5777    3.8378    2.0654 F   0  0  0  0  0  0  0  0  0  0  0  0
   11.7361    3.2727    0.2688 F   0  0  0  0  0  0  0  0  0  0  0  0
    2.5049   -2.7291    0.1021 C   0  0  0  0  0  0  0  0  0  0  0  0
    1.5627   -3.3569    1.1679 C   0  0  0  0  0  0  0  0  0  0  0  0
    3.8905   -2.9465    0.6647 C   0  0  0  0  0  0  0  0  0  0  0  0
    2.3620   -3.6012   -1.1260 C   0  0  0  0  0  0  0  0  0  0  0  0
   -3.7661    0.6169   -0.4427 C   0  0  0  0  0  0  0  0  0  0  0  0
   -3.3419    1.7886   -0.4478 O   0  0  0  0  0  0  0  0  0  0  0  0
   -5.1809    0.4852   -0.0510 C   0  0  0  0  0  0  0  0  0  0  0  0
   -5.9332    1.4673   -0.7787 N   0  0  0  0  0  0  0  0  0  0  0  0
   -7.6059    1.4785   -0.4564 S   0  0  0  0  0  0  0  0  0  0  0  0
   -8.4459    1.1421   -1.6667 O   0  0  0  0  0  0  0  0  0  0  0  0
   -7.9539    0.4339    0.5841 O   0  0  0  0  0  0  0  0  0  0  0  0
   -8.0542    3.0390    0.1850 C   0  0  0  0  0  0  0  0  0  0  0  0
   -8.5639    3.2075    1.4498 C   0  0  0  0  0  0  0  0  0  0  0  0
   -8.9238    4.4713    1.9251 C   0  0  0  0  0  0  0  0  0  0  0  0
   -8.7710    5.5748    1.1201 C   0  0  0  0  0  0  0  0  0  0  0  0
   -8.2532    5.3660   -0.1501 C   0  0  0  0  0  0  0  0  0  0  0  0
   -7.9073    4.1359   -0.5990 N   0  0  0  0  0  0  0  0  0  0  0  0
   -6.2800   -3.0620    0.9669 H   0  0  0  0  0  0  0  0  0  0  0  0
   -6.2107   -4.6317    0.0617 H   0  0  0  0  0  0  0  0  0  0  0  0
   -5.8615   -3.0742   -0.8008 H   0  0  0  0  0  0  0  0  0  0  0  0
   -3.7910   -4.5658    0.0299 H   0  0  0  0  0  0  0  0  0  0  0  0
   -4.3719   -4.0790    1.6821 H   0  0  0  0  0  0  0  0  0  0  0  0
   -4.1627   -1.7735    1.2761 H   0  0  0  0  0  0  0  0  0  0  0  0
   -2.5904   -2.5241    0.9971 H   0  0  0  0  0  0  0  0  0  0  0  0
   -2.9384   -2.5219   -1.4441 H   0  0  0  0  0  0  0  0  0  0  0  0
   -4.5004   -1.7218   -1.3599 H   0  0  0  0  0  0  0  0  0  0  0  0
   -2.7636   -0.2125   -1.9945 H   0  0  0  0  0  0  0  0  0  0  0  0
   -1.8055    0.4804    0.4684 H   0  0  0  0  0  0  0  0  0  0  0  0
    2.1194   -0.6674    0.7571 H   0  0  0  0  0  0  0  0  0  0  0  0
    2.4874   -1.1896   -2.2053 H   0  0  0  0  0  0  0  0  0  0  0  0
    2.1635    0.3474   -1.3978 H   0  0  0  0  0  0  0  0  0  0  0  0
    4.8608   -2.0968   -2.3460 H   0  0  0  0  0  0  0  0  0  0  0  0
    7.2464   -1.0592   -1.9639 H   0  0  0  0  0  0  0  0  0  0  0  0
    8.7257    0.1493   -1.3660 H   0  0  0  0  0  0  0  0  0  0  0  0
   10.6156    1.5686   -0.6762 H   0  0  0  0  0  0  0  0  0  0  0  0
    7.9624    4.3224    1.1099 H   0  0  0  0  0  0  0  0  0  0  0  0
    6.0509    2.8733    0.4013 H   0  0  0  0  0  0  0  0  0  0  0  0
    1.6917   -4.4658    1.1199 H   0  0  0  0  0  0  0  0  0  0  0  0
    0.5150   -3.1547    0.8902 H   0  0  0  0  0  0  0  0  0  0  0  0
    1.8023   -2.9902    2.1704 H   0  0  0  0  0  0  0  0  0  0  0  0
    3.7721   -3.6109    1.5727 H   0  0  0  0  0  0  0  0  0  0  0  0
    4.3647   -2.0433    1.0639 H   0  0  0  0  0  0  0  0  0  0  0  0
    4.5197   -3.5611   -0.0100 H   0  0  0  0  0  0  0  0  0  0  0  0
    1.8578   -4.5655   -0.8870 H   0  0  0  0  0  0  0  0  0  0  0  0
    1.6417   -3.0626   -1.8143 H   0  0  0  0  0  0  0  0  0  0  0  0
    3.2935   -3.7396   -1.6952 H   0  0  0  0  0  0  0  0  0  0  0  0
   -5.5865   -0.5078   -0.2532 H   0  0  0  0  0  0  0  0  0  0  0  0
   -5.2871    0.7530    1.0476 H   0  0  0  0  0  0  0  0  0  0  0  0
   -5.6730    1.6021   -1.7600 H   0  0  0  0  0  0  0  0  0  0  0  0
   -8.6774    2.3382    2.0710 H   0  0  0  0  0  0  0  0  0  0  0  0
   -9.3223    4.6186    2.9203 H   0  0  0  0  0  0  0  0  0  0  0  0
   -9.0399    6.6005    1.4402 H   0  0  0  0  0  0  0  0  0  0  0  0
   -8.1395    6.2507   -0.7717 H   0  0  0  0  0  0  0  0  0  0  0  0
  1  2  1  0
  2  3  1  0
  3  4  1  0
  4  5  1  0
  5  6  1  0
  6  7  1  0
  7  8  2  0
  7  9  1  0
  9 10  1  0
 10 11  1  0
 11 12  1  0
 12 13  1  0
 13 14  2  0
 14 15  1  0
 15 16  2  0
 15 17  1  0
 17 18  2  0
 18 19  1  0
 19 20  2  0
 20 21  1  0
 21 22  2  0
 20 23  1  0
 23 24  1  0
 23 25  1  0
 23 26  1  0
 10 27  1  0
 27 28  1  0
 27 29  1  0
 27 30  1  0
  5 31  1  0
 31 32  2  0
 31 33  1  0
 33 34  1  0
 34 35  1  0
 35 36  2  0
 35 37  2  0
 35 38  1  0
 38 39  2  0
 39 40  1  0
 40 41  2  0
 41 42  1  0
 42 43  2  0
 16 12  1  0
 22 17  1  0
 43 38  1  0
  1 44  1  0
  1 45  1  0
  1 46  1  0
  2 47  1  0
  2 48  1  0
  3 49  1  0
  3 50  1  0
  4 51  1  0
  4 52  1  0
  5 53  1  6
  6 54  1  0
 10 55  1  1
 11 56  1  0
 11 57  1  0
 13 58  1  0
 14 59  1  0
 18 60  1  0
 19 61  1  0
 21 62  1  0
 22 63  1  0
 28 64  1  0
 28 65  1  0
 28 66  1  0
 29 67  1  0
 29 68  1  0
 29 69  1  0
 30 70  1  0
 30 71  1  0
 30 72  1  0
 33 73  1  0
 33 74  1  0
 34 75  1  0
 39 76  1  0
 40 77  1  0
 41 78  1  0
 42 79  1  0
M  END
$$$$
[H]C([H])([H])N1C2([H])C([H])([H])C([H])([H])C1([H])C([H])([H])C([H])(OC(=O)c1c(Cl)nn(C([H])([H])C([H])([H])F)c1Cl)C2([H])[H]
     RDKit          3D

 40 42  0  0  0  0  0  0  0  0999 V2000
   -4.8821   -0.3426   -1.9220 C   0  0  0  0  0  0  0  0  0  0  0  0
   -3.4918   -0.3575   -1.5179 N   0  0  0  0  0  0  0  0  0  0  0  0
   -3.0311    0.9066   -1.0337 C   0  0  0  0  0  0  0  0  0  0  0  0
   -3.5641    1.0247    0.3917 C   0  0  0  0  0  0  0  0  0  0  0  0
   -3.7680   -0.4214    0.7660 C   0  0  0  0  0  0  0  0  0  0  0  0
   -3.2554   -1.2408   -0.4126 C   0  0  0  0  0  0  0  0  0  0  0  0
   -1.7810   -1.4816   -0.3009 C   0  0  0  0  0  0  0  0  0  0  0  0
   -1.0350   -0.1675   -0.1052 C   0  0  0  0  0  0  0  0  0  0  0  0
   -1.5227    0.9067   -1.0386 C   0  0  0  0  0  0  0  0  0  0  0  0
    0.3449   -0.3482   -0.1324 O   0  0  0  0  0  0  0  0  0  0  0  0
    1.1712   -0.1349    0.9633 C   0  0  0  0  0  0  0  0  0  0  0  0
    0.5892    0.2406    2.0098 O   0  0  0  0  0  0  0  0  0  0  0  0
    2.6217   -0.3353    0.8983 C   0  0  0  0  0  0  0  0  0  0  0  0
    3.5673    0.6137    0.5552 C   0  0  0  0  0  0  0  0  0  0  0  0
    3.1862    2.2652    0.1268 Cl  0  0  0  0  0  0  0  0  0  0  0  0
    4.7853    0.0435    0.6125 N   0  0  0  0  0  0  0  0  0  0  0  0
    6.0280    0.7295    0.3180 C   0  0  0  0  0  0  0  0  0  0  0  0
    6.3663    0.5966   -1.1654 C   0  0  0  0  0  0  0  0  0  0  0  0
    5.3464    1.1560   -1.8753 F   0  0  0  0  0  0  0  0  0  0  0  0
    4.6551   -1.2112    0.9729 N   0  0  0  0  0  0  0  0  0  0  0  0
    3.3490   -1.4825    1.1573 C   0  0  0  0  0  0  0  0  0  0  0  0
    2.6844   -3.0195    1.6409 Cl  0  0  0  0  0  0  0  0  0  0  0  0
   -5.1216   -1.1383   -2.6439 H   0  0  0  0  0  0  0  0  0  0  0  0
   -5.0879    0.6242   -2.4638 H   0  0  0  0  0  0  0  0  0  0  0  0
   -5.5446   -0.3373   -1.0283 H   0  0  0  0  0  0  0  0  0  0  0  0
   -3.4093    1.7796   -1.5791 H   0  0  0  0  0  0  0  0  0  0  0  0
   -2.8388    1.5149    1.0664 H   0  0  0  0  0  0  0  0  0  0  0  0
   -4.4974    1.6125    0.4009 H   0  0  0  0  0  0  0  0  0  0  0  0
   -4.8331   -0.5765    0.9463 H   0  0  0  0  0  0  0  0  0  0  0  0
   -3.2351   -0.6938    1.7044 H   0  0  0  0  0  0  0  0  0  0  0  0
   -3.7729   -2.1976   -0.4919 H   0  0  0  0  0  0  0  0  0  0  0  0
   -1.5977   -2.0701    0.6325 H   0  0  0  0  0  0  0  0  0  0  0  0
   -1.4300   -2.0450   -1.1618 H   0  0  0  0  0  0  0  0  0  0  0  0
   -1.2952    0.1651    0.9322 H   0  0  0  0  0  0  0  0  0  0  0  0
   -1.1850    0.7775   -2.0760 H   0  0  0  0  0  0  0  0  0  0  0  0
   -1.1982    1.8897   -0.6133 H   0  0  0  0  0  0  0  0  0  0  0  0
    6.8860    0.2717    0.8583 H   0  0  0  0  0  0  0  0  0  0  0  0
    5.9914    1.8012    0.6159 H   0  0  0  0  0  0  0  0  0  0  0  0
    6.4680   -0.4706   -1.3797 H   0  0  0  0  0  0  0  0  0  0  0  0
    7.3376    1.1528   -1.3062 H   0  0  0  0  0  0  0  0  0  0  0  0
  1  2  1  0
  2  3  1  0
  3  4  1  0
  4  5  1  0
  5  6  1  0
  6  7  1  0
  7  8  1  0
  8  9  1  0
  8 10  1  0
 10 11  1  0
 11 12  2  0
 11 13  1  0
 13 14  2  0
 14 15  1  0
 14 16  1  0
 16 17  1  0
 17 18  1  0
 18 19  1  0
 16 20  1  0
 20 21  2  0
 21 22  1  0
  6  2  1  0
 21 13  1  0
  9  3  1  0
  1 23  1  0
  1 24  1  0
  1 25  1  0
  3 26  1  0
  4 27  1  0
  4 28  1  0
  5 29  1  0
  5 30  1  0
  6 31  1  0
  7 32  1  0
  7 33  1  0
  8 34  1  0
  9 35  1  0
  9 36  1  0
 17 37  1  0
 17 38  1  0
 18 39  1  0
 18 40  1  0
M  END
$$$$
[H]c1nc2c([H])c([H])c([H])c([H])c2c(-c2c([H])nn3c([H])c(-c4c([H])c([H])c(N(C([H])([H])[H])C([H])([H])[H])c([H])c4[H])c([H])nc23)c1[H]
     RDKit          3D

 47 51  0  0  0  0  0  0  0  0999 V2000
    7.1985   -1.2736    1.5451 C   0  0  0  0  0  0  0  0  0  0  0  0
    6.6424   -0.6074    0.3743 N   0  0  0  0  0  0  0  0  0  0  0  0
    7.5394   -0.1487   -0.6575 C   0  0  0  0  0  0  0  0  0  0  0  0
    5.2615   -0.4206    0.2627 C   0  0  0  0  0  0  0  0  0  0  0  0
    4.7319    0.2051   -0.8416 C   0  0  0  0  0  0  0  0  0  0  0  0
    3.3506    0.3928   -0.9644 C   0  0  0  0  0  0  0  0  0  0  0  0
    2.4773   -0.0344    0.0000 C   0  0  0  0  0  0  0  0  0  0  0  0
    2.9898   -0.6625    1.1123 C   0  0  0  0  0  0  0  0  0  0  0  0
    4.3514   -0.8396    1.2184 C   0  0  0  0  0  0  0  0  0  0  0  0
    1.0335    0.1712   -0.1592 C   0  0  0  0  0  0  0  0  0  0  0  0
    0.2201    0.3604    0.9426 C   0  0  0  0  0  0  0  0  0  0  0  0
   -1.1035    0.5394    0.7573 N   0  0  0  0  0  0  0  0  0  0  0  0
   -1.6614    0.5408   -0.4621 C   0  0  0  0  0  0  0  0  0  0  0  0
   -2.9821    0.6988   -0.8992 C   0  0  0  0  0  0  0  0  0  0  0  0
   -2.8792    0.5941   -2.2635 C   0  0  0  0  0  0  0  0  0  0  0  0
   -1.6253    0.3901   -2.6521 N   0  0  0  0  0  0  0  0  0  0  0  0
   -0.8782    0.3580   -1.5365 N   0  0  0  0  0  0  0  0  0  0  0  0
    0.4441    0.1762   -1.3971 C   0  0  0  0  0  0  0  0  0  0  0  0
   -4.0769    0.9506    0.0107 C   0  0  0  0  0  0  0  0  0  0  0  0
   -4.0233    1.9907    0.9375 C   0  0  0  0  0  0  0  0  0  0  0  0
   -5.0736    2.2639    1.7838 C   0  0  0  0  0  0  0  0  0  0  0  0
   -6.1845    1.5127    1.7217 N   0  0  0  0  0  0  0  0  0  0  0  0
   -6.2997    0.4972    0.8539 C   0  0  0  0  0  0  0  0  0  0  0  0
   -7.4754   -0.2144    0.8831 C   0  0  0  0  0  0  0  0  0  0  0  0
   -7.5958   -1.2695    0.0014 C   0  0  0  0  0  0  0  0  0  0  0  0
   -6.5730   -1.5912   -0.8709 C   0  0  0  0  0  0  0  0  0  0  0  0
   -5.4062   -0.8505   -0.8691 C   0  0  0  0  0  0  0  0  0  0  0  0
   -5.2417    0.2039   -0.0146 C   0  0  0  0  0  0  0  0  0  0  0  0
    8.3140   -1.2983    1.4843 H   0  0  0  0  0  0  0  0  0  0  0  0
    6.9654   -0.6316    2.4178 H   0  0  0  0  0  0  0  0  0  0  0  0
    6.7743   -2.3095    1.6645 H   0  0  0  0  0  0  0  0  0  0  0  0
    7.1635   -0.3791   -1.6732 H   0  0  0  0  0  0  0  0  0  0  0  0
    8.5420   -0.6621   -0.5809 H   0  0  0  0  0  0  0  0  0  0  0  0
    7.6980    0.9645   -0.5769 H   0  0  0  0  0  0  0  0  0  0  0  0
    5.3742    0.5597   -1.6235 H   0  0  0  0  0  0  0  0  0  0  0  0
    3.0346    0.8974   -1.8734 H   0  0  0  0  0  0  0  0  0  0  0  0
    2.3133   -1.0145    1.9012 H   0  0  0  0  0  0  0  0  0  0  0  0
    4.7828   -1.3365    2.0964 H   0  0  0  0  0  0  0  0  0  0  0  0
    0.6914    0.3552    1.9215 H   0  0  0  0  0  0  0  0  0  0  0  0
   -3.7655    0.6779   -2.9068 H   0  0  0  0  0  0  0  0  0  0  0  0
    1.0862    0.0261   -2.2840 H   0  0  0  0  0  0  0  0  0  0  0  0
   -3.1028    2.5706    0.9488 H   0  0  0  0  0  0  0  0  0  0  0  0
   -5.0223    3.0797    2.5029 H   0  0  0  0  0  0  0  0  0  0  0  0
   -8.3107   -0.0191    1.5356 H   0  0  0  0  0  0  0  0  0  0  0  0
   -8.4802   -1.9009   -0.0631 H   0  0  0  0  0  0  0  0  0  0  0  0
   -6.6284   -2.4052   -1.5709 H   0  0  0  0  0  0  0  0  0  0  0  0
   -4.5904   -1.1079   -1.5463 H   0  0  0  0  0  0  0  0  0  0  0  0
  1  2  1  0
  2  3  1  0
  2  4  1  0
  4  5  2  0
  5  6  1  0
  6  7  2  0
  7  8  1  0
  8  9  2  0
  7 10  1  0
 10 11  1  0
 11 12  2  0
 12 13  1  0
 13 14  2  0
 14 15  1  0
 15 16  2  0
 16 17  1  0
 17 18  1  0
 14 19  1  0
 19 20  2  0
 20 21  1  0
 21 22  2  0
 22 23  1  0
 23 24  2  0
 24 25  1  0
 25 26  2  0
 26 27  1  0
 27 28  2  0
  9  4  1  0
 18 10  2  0
 28 19  1  0
 17 13  1  0
 28 23  1  0
  1 29  1  0
  1 30  1  0
  1 31  1  0
  3 32  1  0
  3 33  1  0
  3 34  1  0
  5 35  1  0
  6 36  1  0
  8 37  1  0
  9 38  1  0
 11 39  1  0
 15 40  1  0
 18 41  1  0
 20 42  1  0
 21 43  1  0
 24 44  1  0
 25 45  1  0
 26 46  1  0
 27 47  1  0
M  END
$$$$
[H]N=C(c1c([H])c([H])c([H])c(C([H])([H])[C@]([H])(C(=O)N2C([H])([H])C([H])([H])C([H])([H])C([H])([H])C2([H])[H])N([H])S(=O)(=O)c2c([H])c([H])c3c([H])c([H])c([H])c([H])c3c2[H])c1[H])N([H])[H]
     RDKit          3D

 61 64  0  0  0  0  0  0  0  0999 V2000
   -6.6425   -1.0137    0.1797 N   0  0  0  0  0  0  0  0  0  0  0  0
   -5.5650   -0.6254   -0.6769 C   0  0  0  0  0  0  0  0  0  0  0  0
   -5.6877    0.4610   -1.3307 N   0  0  0  0  0  0  0  0  0  0  0  0
   -4.3649   -1.4358   -0.8033 C   0  0  0  0  0  0  0  0  0  0  0  0
   -4.3063   -2.6088   -0.0615 C   0  0  0  0  0  0  0  0  0  0  0  0
   -3.1891   -3.3945   -0.1566 C   0  0  0  0  0  0  0  0  0  0  0  0
   -2.1272   -3.0540   -0.9645 C   0  0  0  0  0  0  0  0  0  0  0  0
   -2.1547   -1.8889   -1.7181 C   0  0  0  0  0  0  0  0  0  0  0  0
   -1.0356   -1.5674   -2.5696 C   0  0  0  0  0  0  0  0  0  0  0  0
    0.0211   -0.7327   -1.8702 C   0  0  1  0  0  0  0  0  0  0  0  0
    1.1019   -0.4681   -2.8241 N   0  0  0  0  0  0  0  0  0  0  0  0
    2.5838   -1.1721   -2.4655 S   0  0  0  0  0  0  0  0  0  0  0  0
    2.5823   -2.6718   -2.5173 O   0  0  0  0  0  0  0  0  0  0  0  0
    3.5825   -0.7364   -3.5308 O   0  0  0  0  0  0  0  0  0  0  0  0
    3.1875   -0.5735   -0.9480 C   0  0  0  0  0  0  0  0  0  0  0  0
    2.9945   -1.2104    0.2572 C   0  0  0  0  0  0  0  0  0  0  0  0
    3.5053   -0.6857    1.4449 C   0  0  0  0  0  0  0  0  0  0  0  0
    4.2203    0.4928    1.4359 C   0  0  0  0  0  0  0  0  0  0  0  0
    4.7424    1.0468    2.5935 C   0  0  0  0  0  0  0  0  0  0  0  0
    5.4502    2.2230    2.5587 C   0  0  0  0  0  0  0  0  0  0  0  0
    5.6507    2.8727    1.3548 C   0  0  0  0  0  0  0  0  0  0  0  0
    5.1224    2.3036    0.2149 C   0  0  0  0  0  0  0  0  0  0  0  0
    4.4109    1.1268    0.2297 C   0  0  0  0  0  0  0  0  0  0  0  0
    3.9044    0.6039   -0.9401 C   0  0  0  0  0  0  0  0  0  0  0  0
   -0.4605    0.5511   -1.3720 C   0  0  0  0  0  0  0  0  0  0  0  0
   -0.5410    1.4883   -2.2543 O   0  0  0  0  0  0  0  0  0  0  0  0
   -0.8231    0.8056   -0.0367 N   0  0  0  0  0  0  0  0  0  0  0  0
   -1.3328    2.1406    0.2811 C   0  0  0  0  0  0  0  0  0  0  0  0
   -0.7119    2.7474    1.4948 C   0  0  0  0  0  0  0  0  0  0  0  0
   -0.9877    1.7830    2.6548 C   0  0  0  0  0  0  0  0  0  0  0  0
   -0.1714    0.5372    2.3051 C   0  0  0  0  0  0  0  0  0  0  0  0
   -0.7197   -0.1162    1.0471 C   0  0  0  0  0  0  0  0  0  0  0  0
   -3.3023   -1.1072   -1.6037 C   0  0  0  0  0  0  0  0  0  0  0  0
   -7.0305   -1.9773    0.2135 H   0  0  0  0  0  0  0  0  0  0  0  0
   -7.0475   -0.2776    0.7958 H   0  0  0  0  0  0  0  0  0  0  0  0
   -4.9764    0.8313   -1.9720 H   0  0  0  0  0  0  0  0  0  0  0  0
   -5.1429   -2.8644    0.5667 H   0  0  0  0  0  0  0  0  0  0  0  0
   -3.1642   -4.3060    0.4312 H   0  0  0  0  0  0  0  0  0  0  0  0
   -1.2676   -3.7194   -0.9976 H   0  0  0  0  0  0  0  0  0  0  0  0
   -0.5176   -2.5169   -2.8657 H   0  0  0  0  0  0  0  0  0  0  0  0
   -1.3617   -1.1070   -3.5218 H   0  0  0  0  0  0  0  0  0  0  0  0
    0.4422   -1.3353   -1.0693 H   0  0  0  0  0  0  0  0  0  0  0  0
    0.7912   -0.4881   -3.7986 H   0  0  0  0  0  0  0  0  0  0  0  0
    2.4329   -2.1329    0.2523 H   0  0  0  0  0  0  0  0  0  0  0  0
    3.3366   -1.2114    2.3775 H   0  0  0  0  0  0  0  0  0  0  0  0
    4.5958    0.5536    3.5432 H   0  0  0  0  0  0  0  0  0  0  0  0
    5.8734    2.6896    3.4314 H   0  0  0  0  0  0  0  0  0  0  0  0
    6.1950    3.7976    1.2527 H   0  0  0  0  0  0  0  0  0  0  0  0
    5.2710    2.7991   -0.7282 H   0  0  0  0  0  0  0  0  0  0  0  0
    4.0813    1.1447   -1.8808 H   0  0  0  0  0  0  0  0  0  0  0  0
   -2.4341    2.1130    0.4345 H   0  0  0  0  0  0  0  0  0  0  0  0
   -1.1133    2.8037   -0.5686 H   0  0  0  0  0  0  0  0  0  0  0  0
   -1.2262    3.6822    1.7139 H   0  0  0  0  0  0  0  0  0  0  0  0
    0.3913    2.8275    1.4191 H   0  0  0  0  0  0  0  0  0  0  0  0
   -0.5984    2.1609    3.6047 H   0  0  0  0  0  0  0  0  0  0  0  0
   -2.0445    1.4950    2.7108 H   0  0  0  0  0  0  0  0  0  0  0  0
   -0.1968   -0.2079    3.1081 H   0  0  0  0  0  0  0  0  0  0  0  0
    0.8748    0.8659    2.1239 H   0  0  0  0  0  0  0  0  0  0  0  0
   -0.0765   -0.9959    0.8612 H   0  0  0  0  0  0  0  0  0  0  0  0
   -1.7176   -0.5360    1.3473 H   0  0  0  0  0  0  0  0  0  0  0  0
   -3.3068   -0.2094   -2.1935 H   0  0  0  0  0  0  0  0  0  0  0  0
  1  2  1  0
  2  3  2  3
  2  4  1  0
  4  5  2  0
  5  6  1  0
  6  7  2  0
  7  8  1  0
  8  9  1  0
  9 10  1  0
 10 11  1  0
 11 12  1  0
 12 13  2  0
 12 14  2  0
 12 15  1  0
 15 16  2  0
 16 17  1  0
 17 18  2  0
 18 19  1  0
 19 20  2  0
 20 21  1  0
 21 22  2  0
 22 23  1  0
 23 24  2  0
 10 25  1  0
 25 26  2  0
 25 27  1  0
 27 28  1  0
 28 29  1  0
 29 30  1  0
 30 31  1  0
 31 32  1  0
  8 33  2  0
 33  4  1  0
 24 15  1  0
 32 27  1  0
 23 18  1  0
  1 34  1  0
  1 35  1  0
  3 36  1  0
  5 37  1  0
  6 38  1  0
  7 39  1  0
  9 40  1  0
  9 41  1  0
 10 42  1  1
 11 43  1  0
 16 44  1  0
 17 45  1  0
 19 46  1  0
 20 47  1  0
 21 48  1  0
 22 49  1  0
 24 50  1  0
 28 51  1  0
 28 52  1  0
 29 53  1  0
 29 54  1  0
 30 55  1  0
 30 56  1  0
 31 57  1  0
 31 58  1  0
 32 59  1  0
 32 60  1  0
 33 61  1  0
M  END
$$$$
[H]OC(=O)C([H])([H])Oc1c([H])c([H])c([H])c2c1c(C(=O)C(=O)N([H])[H])c(C([H])([H])C([H])(C([H])([H])[H])C([H])([H])[H])n2C([H])([H])c1c([H])c([H])c([H])c([H])c1[H]
     RDKit          3D

 54 56  0  0  0  0  0  0  0  0999 V2000
   -0.9332    3.4805    1.5335 C   0  0  0  0  0  0  0  0  0  0  0  0
   -0.3617    3.4705    0.1368 C   0  0  0  0  0  0  0  0  0  0  0  0
   -1.0568    4.6582   -0.5732 C   0  0  0  0  0  0  0  0  0  0  0  0
   -0.7462    2.1836   -0.5710 C   0  0  0  0  0  0  0  0  0  0  0  0
   -0.2926    0.9587    0.0845 C   0  0  0  0  0  0  0  0  0  0  0  0
    1.0064    0.5167    0.1164 C   0  0  0  0  0  0  0  0  0  0  0  0
    2.1913    1.1113   -0.4842 C   0  0  0  0  0  0  0  0  0  0  0  0
    2.8654    1.9170    0.1984 O   0  0  0  0  0  0  0  0  0  0  0  0
    2.6070    0.7945   -1.8468 C   0  0  0  0  0  0  0  0  0  0  0  0
    3.7702    1.3943   -2.3996 N   0  0  0  0  0  0  0  0  0  0  0  0
    1.9611    0.0011   -2.5490 O   0  0  0  0  0  0  0  0  0  0  0  0
    1.0350   -0.6725    0.8633 C   0  0  0  0  0  0  0  0  0  0  0  0
    2.0855   -1.5148    1.2087 C   0  0  0  0  0  0  0  0  0  0  0  0
    3.3281   -1.1897    0.7662 O   0  0  0  0  0  0  0  0  0  0  0  0
    4.5393   -1.8291    0.9375 C   0  0  0  0  0  0  0  0  0  0  0  0
    4.6251   -3.1908    0.3645 C   0  0  0  0  0  0  0  0  0  0  0  0
    5.8327   -3.8724    0.5898 O   0  0  0  0  0  0  0  0  0  0  0  0
    3.6957   -3.7145   -0.2787 O   0  0  0  0  0  0  0  0  0  0  0  0
    1.7898   -2.6165    1.9762 C   0  0  0  0  0  0  0  0  0  0  0  0
    0.5120   -2.8498    2.3679 C   0  0  0  0  0  0  0  0  0  0  0  0
   -0.5177   -2.0042    2.0156 C   0  0  0  0  0  0  0  0  0  0  0  0
   -0.2672   -0.8953    1.2509 C   0  0  0  0  0  0  0  0  0  0  0  0
   -1.0785    0.0851    0.7813 N   0  0  0  0  0  0  0  0  0  0  0  0
   -2.4883    0.1687    0.9096 C   0  0  0  0  0  0  0  0  0  0  0  0
   -3.2908   -0.6185   -0.0558 C   0  0  0  0  0  0  0  0  0  0  0  0
   -3.8508   -1.7947    0.4294 C   0  0  0  0  0  0  0  0  0  0  0  0
   -4.6117   -2.6287   -0.3487 C   0  0  0  0  0  0  0  0  0  0  0  0
   -4.8428   -2.3122   -1.6560 C   0  0  0  0  0  0  0  0  0  0  0  0
   -4.3003   -1.1536   -2.1605 C   0  0  0  0  0  0  0  0  0  0  0  0
   -3.5345   -0.3263   -1.3548 C   0  0  0  0  0  0  0  0  0  0  0  0
   -0.6250    2.4997    1.9972 H   0  0  0  0  0  0  0  0  0  0  0  0
   -2.0382    3.4271    1.4228 H   0  0  0  0  0  0  0  0  0  0  0  0
   -0.5780    4.3030    2.1467 H   0  0  0  0  0  0  0  0  0  0  0  0
    0.6984    3.6753    0.0750 H   0  0  0  0  0  0  0  0  0  0  0  0
   -0.9793    5.5655    0.0337 H   0  0  0  0  0  0  0  0  0  0  0  0
   -0.6386    4.7857   -1.5997 H   0  0  0  0  0  0  0  0  0  0  0  0
   -2.1388    4.4320   -0.7023 H   0  0  0  0  0  0  0  0  0  0  0  0
   -0.3495    2.2717   -1.6169 H   0  0  0  0  0  0  0  0  0  0  0  0
   -1.8689    2.2164   -0.7054 H   0  0  0  0  0  0  0  0  0  0  0  0
    4.5122    0.8221   -2.8587 H   0  0  0  0  0  0  0  0  0  0  0  0
    3.9139    2.4244   -2.3613 H   0  0  0  0  0  0  0  0  0  0  0  0
    4.8028   -1.9171    2.0139 H   0  0  0  0  0  0  0  0  0  0  0  0
    5.3435   -1.2254    0.4621 H   0  0  0  0  0  0  0  0  0  0  0  0
    6.5048   -3.8311   -0.1543 H   0  0  0  0  0  0  0  0  0  0  0  0
    2.5702   -3.3131    2.2913 H   0  0  0  0  0  0  0  0  0  0  0  0
    0.2251   -3.7197    2.9842 H   0  0  0  0  0  0  0  0  0  0  0  0
   -1.5263   -2.2191    2.3646 H   0  0  0  0  0  0  0  0  0  0  0  0
   -2.8686    1.2240    0.7687 H   0  0  0  0  0  0  0  0  0  0  0  0
   -2.8610   -0.0911    1.9306 H   0  0  0  0  0  0  0  0  0  0  0  0
   -3.6933   -2.0803    1.4845 H   0  0  0  0  0  0  0  0  0  0  0  0
   -5.0454   -3.5570    0.0597 H   0  0  0  0  0  0  0  0  0  0  0  0
   -5.4481   -2.9618   -2.3020 H   0  0  0  0  0  0  0  0  0  0  0  0
   -4.4686   -0.8753   -3.2026 H   0  0  0  0  0  0  0  0  0  0  0  0
   -3.1149    0.5872   -1.7691 H   0  0  0  0  0  0  0  0  0  0  0  0
  1  2  1  0
  2  3  1  0
  2  4  1  0
  4  5  1  0
  5  6  2  0
  6  7  1  0
  7  8  2  0
  7  9  1  0
  9 10  1  0
  9 11  2  0
  6 12  1  0
 12 13  2  0
 13 14  1  0
 14 15  1  0
 15 16  1  0
 16 17  1  0
 16 18  2  0
 13 19  1  0
 19 20  2  0
 20 21  1  0
 21 22  2  0
 22 23  1  0
 23 24  1  0
 24 25  1  0
 25 26  2  0
 26 27  1  0
 27 28  2  0
 28 29  1  0
 29 30  2  0
 23  5  1  0
 30 25  1  0
 22 12  1  0
  1 31  1  0
  1 32  1  0
  1 33  1  0
  2 34  1  0
  3 35  1  0
  3 36  1  0
  3 37  1  0
  4 38  1  0
  4 39  1  0
 10 40  1  0
 10 41  1  0
 15 42  1  0
 15 43  1  0
 17 44  1  0
 19 45  1  0
 20 46  1  0
 21 47  1  0
 24 48  1  0
 24 49  1  0
 26 50  1  0
 27 51  1  0
 28 52  1  0
 29 53  1  0
 30 54  1  0
M  END
$$$$
[H]c1nc([H])c(-c2c(OC([H])([H])[H])nc3sc(N([H])C(=O)N([H])C([H])([H])C([H])([H])[H])nc3c2[H])c([H])c1[H]
     RDKit          3D

 38 40  0  0  0  0  0  0  0  0999 V2000
    7.0706   -0.1519   -0.2877 C   0  0  0  0  0  0  0  0  0  0  0  0
    6.8513    0.9294    0.7447 C   0  0  0  0  0  0  0  0  0  0  0  0
    5.5956    1.5922    0.5073 N   0  0  0  0  0  0  0  0  0  0  0  0
    4.3910    0.8535    0.5381 C   0  0  0  0  0  0  0  0  0  0  0  0
    4.4399   -0.3822    0.7749 O   0  0  0  0  0  0  0  0  0  0  0  0
    3.1876    1.5457    0.2998 N   0  0  0  0  0  0  0  0  0  0  0  0
    1.9416    0.8231    0.3239 C   0  0  0  0  0  0  0  0  0  0  0  0
    0.7405    1.3097    0.1245 N   0  0  0  0  0  0  0  0  0  0  0  0
   -0.3021    0.5185    0.1797 C   0  0  0  0  0  0  0  0  0  0  0  0
   -1.6641    0.8588   -0.0065 C   0  0  0  0  0  0  0  0  0  0  0  0
   -2.6213   -0.1036    0.0887 C   0  0  0  0  0  0  0  0  0  0  0  0
   -4.0191    0.2896   -0.1047 C   0  0  0  0  0  0  0  0  0  0  0  0
   -4.4600    1.0721   -1.1502 C   0  0  0  0  0  0  0  0  0  0  0  0
   -5.8131    1.4033   -1.2514 C   0  0  0  0  0  0  0  0  0  0  0  0
   -6.7262    0.9610   -0.3202 C   0  0  0  0  0  0  0  0  0  0  0  0
   -6.2727    0.2017    0.6871 N   0  0  0  0  0  0  0  0  0  0  0  0
   -4.9581   -0.1291    0.7991 C   0  0  0  0  0  0  0  0  0  0  0  0
   -2.3624   -1.4408    0.3632 C   0  0  0  0  0  0  0  0  0  0  0  0
   -3.3417   -2.3940    0.4538 O   0  0  0  0  0  0  0  0  0  0  0  0
   -3.1443   -3.7424    0.7249 C   0  0  0  0  0  0  0  0  0  0  0  0
   -1.0692   -1.7402    0.5357 N   0  0  0  0  0  0  0  0  0  0  0  0
   -0.0721   -0.8029    0.4490 C   0  0  0  0  0  0  0  0  0  0  0  0
    1.6357   -0.8290    0.6072 S   0  0  0  0  0  0  0  0  0  0  0  0
    7.9799    0.0958   -0.8766 H   0  0  0  0  0  0  0  0  0  0  0  0
    6.2211   -0.1516   -0.9981 H   0  0  0  0  0  0  0  0  0  0  0  0
    7.1270   -1.1576    0.1494 H   0  0  0  0  0  0  0  0  0  0  0  0
    7.6991    1.6342    0.7970 H   0  0  0  0  0  0  0  0  0  0  0  0
    6.8476    0.4078    1.7465 H   0  0  0  0  0  0  0  0  0  0  0  0
    5.6297    2.6190    0.3172 H   0  0  0  0  0  0  0  0  0  0  0  0
    3.1668    2.5428    0.1104 H   0  0  0  0  0  0  0  0  0  0  0  0
   -1.9446    1.8817   -0.2240 H   0  0  0  0  0  0  0  0  0  0  0  0
   -3.7694    1.4209   -1.8759 H   0  0  0  0  0  0  0  0  0  0  0  0
   -6.1877    2.0153   -2.0604 H   0  0  0  0  0  0  0  0  0  0  0  0
   -7.7890    1.2280   -0.4101 H   0  0  0  0  0  0  0  0  0  0  0  0
   -4.6831   -0.7456    1.6515 H   0  0  0  0  0  0  0  0  0  0  0  0
   -2.0711   -3.9882    0.7353 H   0  0  0  0  0  0  0  0  0  0  0  0
   -3.5866   -4.0703    1.7019 H   0  0  0  0  0  0  0  0  0  0  0  0
   -3.6673   -4.3750   -0.0463 H   0  0  0  0  0  0  0  0  0  0  0  0
  1  2  1  0
  2  3  1  0
  3  4  1  0
  4  5  2  0
  4  6  1  0
  6  7  1  0
  7  8  2  0
  8  9  1  0
  9 10  2  0
 10 11  1  0
 11 12  1  0
 12 13  2  0
 13 14  1  0
 14 15  2  0
 15 16  1  0
 16 17  2  0
 11 18  2  0
 18 19  1  0
 19 20  1  0
 18 21  1  0
 21 22  2  0
 22 23  1  0
 23  7  1  0
 22  9  1  0
 17 12  1  0
  1 24  1  0
  1 25  1  0
  1 26  1  0
  2 27  1  0
  2 28  1  0
  3 29  1  0
  6 30  1  0
 10 31  1  0
 13 32  1  0
 14 33  1  0
 15 34  1  0
 17 35  1  0
 20 36  1  0
 20 37  1  0
 20 38  1  0
M  END
$$$$
[H]c1nc(Oc2c([H])c([H])c(N([H])C(=O)N([H])c3c([H])c([H])c(C([H])([H])N4C([H])([H])C([H])([H])N(C([H])([H])[H])C([H])([H])C4([H])[H])c(C(F)(F)F)c3[H])c([H])c2[H])c([H])c(N([H])C([H])([H])[H])n1
     RDKit          3D

 65 68  0  0  0  0  0  0  0  0999 V2000
   -9.5124    0.7925    1.0221 C   0  0  0  0  0  0  0  0  0  0  0  0
   -8.2189    0.8348    0.4257 N   0  0  0  0  0  0  0  0  0  0  0  0
   -7.1579    0.4976    1.3201 C   0  0  0  0  0  0  0  0  0  0  0  0
   -5.9144    0.3815    0.3826 C   0  0  0  0  0  0  0  0  0  0  0  0
   -5.9865   -0.9158   -0.1766 N   0  0  0  0  0  0  0  0  0  0  0  0
   -4.8862   -1.3578   -0.9298 C   0  0  0  0  0  0  0  0  0  0  0  0
   -3.6087   -0.8387   -0.3326 C   0  0  0  0  0  0  0  0  0  0  0  0
   -3.1777    0.4551   -0.4204 C   0  0  0  0  0  0  0  0  0  0  0  0
   -1.9708    0.8884    0.1359 C   0  0  0  0  0  0  0  0  0  0  0  0
   -1.1991    0.0060    0.7847 C   0  0  0  0  0  0  0  0  0  0  0  0
    0.0320    0.3748    1.4325 N   0  0  0  0  0  0  0  0  0  0  0  0
    1.1662    0.3796    0.6489 C   0  0  0  0  0  0  0  0  0  0  0  0
    1.1872    0.0982   -0.5497 O   0  0  0  0  0  0  0  0  0  0  0  0
    2.4437    0.7440    1.2776 N   0  0  0  0  0  0  0  0  0  0  0  0
    3.5265    0.6587    0.3310 C   0  0  0  0  0  0  0  0  0  0  0  0
    4.3279    1.7079    0.0261 C   0  0  0  0  0  0  0  0  0  0  0  0
    5.3008    1.5235   -0.9530 C   0  0  0  0  0  0  0  0  0  0  0  0
    5.4710    0.3403   -1.6048 C   0  0  0  0  0  0  0  0  0  0  0  0
    6.4275    0.1048   -2.5986 O   0  0  0  0  0  0  0  0  0  0  0  0
    7.7314   -0.1527   -2.2482 C   0  0  0  0  0  0  0  0  0  0  0  0
    8.0989   -0.1476   -0.8760 C   0  0  0  0  0  0  0  0  0  0  0  0
    9.4021   -0.3926   -0.5114 C   0  0  0  0  0  0  0  0  0  0  0  0
    9.8333   -0.3257    0.8477 N   0  0  0  0  0  0  0  0  0  0  0  0
    9.0208    0.0527    1.9575 C   0  0  0  0  0  0  0  0  0  0  0  0
   10.3001   -0.6385   -1.4952 N   0  0  0  0  0  0  0  0  0  0  0  0
    9.9595   -0.6489   -2.7953 C   0  0  0  0  0  0  0  0  0  0  0  0
    8.6877   -0.4069   -3.1337 N   0  0  0  0  0  0  0  0  0  0  0  0
    4.6281   -0.7284   -1.2650 C   0  0  0  0  0  0  0  0  0  0  0  0
    3.6743   -0.5767   -0.3180 C   0  0  0  0  0  0  0  0  0  0  0  0
   -1.6216   -1.3320    0.8757 C   0  0  0  0  0  0  0  0  0  0  0  0
   -2.8092   -1.7511    0.3236 C   0  0  0  0  0  0  0  0  0  0  0  0
   -3.2349   -3.1394    0.5019 C   0  0  0  0  0  0  0  0  0  0  0  0
   -2.2580   -3.7651    1.3100 F   0  0  0  0  0  0  0  0  0  0  0  0
   -4.4018   -3.2183    1.2775 F   0  0  0  0  0  0  0  0  0  0  0  0
   -3.2838   -3.9272   -0.6009 F   0  0  0  0  0  0  0  0  0  0  0  0
   -7.2661   -1.1378   -0.7291 C   0  0  0  0  0  0  0  0  0  0  0  0
   -8.0488    0.1942   -0.8284 C   0  0  0  0  0  0  0  0  0  0  0  0
  -10.2438    1.1371    0.2956 H   0  0  0  0  0  0  0  0  0  0  0  0
   -9.4554    1.4899    1.9178 H   0  0  0  0  0  0  0  0  0  0  0  0
   -9.6659   -0.2359    1.4130 H   0  0  0  0  0  0  0  0  0  0  0  0
   -6.9468    1.1731    2.1418 H   0  0  0  0  0  0  0  0  0  0  0  0
   -7.2536   -0.5290    1.7605 H   0  0  0  0  0  0  0  0  0  0  0  0
   -5.0890    0.3444    1.1597 H   0  0  0  0  0  0  0  0  0  0  0  0
   -5.8581    1.2385   -0.2540 H   0  0  0  0  0  0  0  0  0  0  0  0
   -4.8620   -2.3583   -1.3115 H   0  0  0  0  0  0  0  0  0  0  0  0
   -4.9449   -0.7318   -1.9059 H   0  0  0  0  0  0  0  0  0  0  0  0
   -3.7731    1.1707   -0.9609 H   0  0  0  0  0  0  0  0  0  0  0  0
   -1.7100    1.9154    0.0264 H   0  0  0  0  0  0  0  0  0  0  0  0
    0.0462    0.6268    2.4557 H   0  0  0  0  0  0  0  0  0  0  0  0
    2.5855    1.0017    2.2321 H   0  0  0  0  0  0  0  0  0  0  0  0
    4.2184    2.6654    0.5239 H   0  0  0  0  0  0  0  0  0  0  0  0
    5.9195    2.3771   -1.1866 H   0  0  0  0  0  0  0  0  0  0  0  0
    7.3267    0.0410   -0.1505 H   0  0  0  0  0  0  0  0  0  0  0  0
   10.8488   -0.5620    1.0496 H   0  0  0  0  0  0  0  0  0  0  0  0
    8.9614   -0.7765    2.7228 H   0  0  0  0  0  0  0  0  0  0  0  0
    9.4624    0.9229    2.5259 H   0  0  0  0  0  0  0  0  0  0  0  0
    7.9943    0.3077    1.6886 H   0  0  0  0  0  0  0  0  0  0  0  0
   10.6531   -0.8404   -3.5827 H   0  0  0  0  0  0  0  0  0  0  0  0
    4.7613   -1.6821   -1.7874 H   0  0  0  0  0  0  0  0  0  0  0  0
    3.0157   -1.3821   -0.0250 H   0  0  0  0  0  0  0  0  0  0  0  0
   -0.9599   -2.0053    1.3897 H   0  0  0  0  0  0  0  0  0  0  0  0
   -7.3263   -1.5920   -1.7220 H   0  0  0  0  0  0  0  0  0  0  0  0
   -7.9219   -1.7732   -0.0711 H   0  0  0  0  0  0  0  0  0  0  0  0
   -8.9743   -0.0519   -1.3761 H   0  0  0  0  0  0  0  0  0  0  0  0
   -7.4705    0.8973   -1.4840 H   0  0  0  0  0  0  0  0  0  0  0  0
  1  2  1  0
  2  3  1  0
  3  4  1  0
  4  5  1  0
  5  6  1  0
  6  7  1  0
  7  8  2  0
  8  9  1  0
  9 10  2  0
 10 11  1  0
 11 12  1  0
 12 13  2  0
 12 14  1  0
 14 15  1  0
 15 16  2  0
 16 17  1  0
 17 18  2  0
 18 19  1  0
 19 20  1  0
 20 21  2  0
 21 22  1  0
 22 23  1  0
 23 24  1  0
 22 25  2  0
 25 26  1  0
 26 27  2  0
 18 28  1  0
 28 29  2  0
 10 30  1  0
 30 31  2  0
 31 32  1  0
 32 33  1  0
 32 34  1  0
 32 35  1  0
  5 36  1  0
 36 37  1  0
 37  2  1  0
 31  7  1  0
 29 15  1  0
 27 20  1  0
  1 38  1  0
  1 39  1  0
  1 40  1  0
  3 41  1  0
  3 42  1  0
  4 43  1  0
  4 44  1  0
  6 45  1  0
  6 46  1  0
  8 47  1  0
  9 48  1  0
 11 49  1  0
 14 50  1  0
 16 51  1  0
 17 52  1  0
 21 53  1  0
 23 54  1  0
 24 55  1  0
 24 56  1  0
 24 57  1  0
 26 58  1  0
 28 59  1  0
 29 60  1  0
 30 61  1  0
 36 62  1  0
 36 63  1  0
 37 64  1  0
 37 65  1  0
M  END
$$$$
[H]c1c([H])c([H])c(C(=O)N2C([H])([H])C3([H])C([H])([H])N([H])C([H])([H])C([H])(C2([H])[H])C3([H])[H])c([H])c1[H]
     RDKit          3D

 35 37  0  0  0  0  0  0  0  0999 V2000
    1.2108   -0.8276    2.2210 O   0  0  0  0  0  0  0  0  0  0  0  0
    1.1849   -0.4484    0.9620 C   0  0  0  0  0  0  0  0  0  0  0  0
   -0.1044   -0.3457    0.3878 N   0  0  0  0  0  0  0  0  0  0  0  0
   -1.2779   -0.7409    1.2101 C   0  0  0  0  0  0  0  0  0  0  0  0
   -2.4074    0.2388    1.1564 C   0  0  0  0  0  0  0  0  0  0  0  0
   -3.6893   -0.3967    0.6461 C   0  0  0  0  0  0  0  0  0  0  0  0
   -3.9159   -0.0948   -0.7535 N   0  0  0  0  0  0  0  0  0  0  0  0
   -2.6583   -0.2507   -1.4488 C   0  0  0  0  0  0  0  0  0  0  0  0
   -1.7103    0.8334   -1.0722 C   0  0  0  0  0  0  0  0  0  0  0  0
   -1.9875    1.4050    0.3115 C   0  0  0  0  0  0  0  0  0  0  0  0
   -0.3115    0.1774   -0.9302 C   0  0  0  0  0  0  0  0  0  0  0  0
    2.4571   -0.1938    0.3616 C   0  0  0  0  0  0  0  0  0  0  0  0
    3.5369   -0.0572    1.2712 C   0  0  0  0  0  0  0  0  0  0  0  0
    4.8136    0.1322    0.8590 C   0  0  0  0  0  0  0  0  0  0  0  0
    5.0701    0.1938   -0.4782 C   0  0  0  0  0  0  0  0  0  0  0  0
    4.0644    0.0670   -1.3960 C   0  0  0  0  0  0  0  0  0  0  0  0
    2.7618   -0.1272   -0.9702 C   0  0  0  0  0  0  0  0  0  0  0  0
   -0.9068   -0.7146    2.2777 H   0  0  0  0  0  0  0  0  0  0  0  0
   -1.5559   -1.7853    0.9512 H   0  0  0  0  0  0  0  0  0  0  0  0
   -2.6763    0.6643    2.1612 H   0  0  0  0  0  0  0  0  0  0  0  0
   -4.5858   -0.0437    1.1965 H   0  0  0  0  0  0  0  0  0  0  0  0
   -3.6407   -1.5119    0.7180 H   0  0  0  0  0  0  0  0  0  0  0  0
   -4.5881   -0.7593   -1.1616 H   0  0  0  0  0  0  0  0  0  0  0  0
   -2.3021   -1.2824   -1.2540 H   0  0  0  0  0  0  0  0  0  0  0  0
   -2.9067   -0.2494   -2.5441 H   0  0  0  0  0  0  0  0  0  0  0  0
   -1.7055    1.6598   -1.7817 H   0  0  0  0  0  0  0  0  0  0  0  0
   -1.0256    1.7812    0.7017 H   0  0  0  0  0  0  0  0  0  0  0  0
   -2.7276    2.2234    0.2774 H   0  0  0  0  0  0  0  0  0  0  0  0
    0.3591    1.0397   -1.1455 H   0  0  0  0  0  0  0  0  0  0  0  0
   -0.2206   -0.6387   -1.6662 H   0  0  0  0  0  0  0  0  0  0  0  0
    3.3641   -0.0976    2.3447 H   0  0  0  0  0  0  0  0  0  0  0  0
    5.6126    0.2325    1.5698 H   0  0  0  0  0  0  0  0  0  0  0  0
    6.1051    0.3478   -0.7951 H   0  0  0  0  0  0  0  0  0  0  0  0
    4.3234    0.1238   -2.4511 H   0  0  0  0  0  0  0  0  0  0  0  0
    2.0406   -0.2556   -1.7366 H   0  0  0  0  0  0  0  0  0  0  0  0
  1  2  2  0
  2  3  1  0
  3  4  1  0
  4  5  1  0
  5  6  1  0
  6  7  1  0
  7  8  1  0
  8  9  1  0
  9 10  1  0
  9 11  1  0
  2 12  1  0
 12 13  2  0
 13 14  1  0
 14 15  2  0
 15 16  1  0
 16 17  2  0
 11  3  1  0
 17 12  1  0
 10  5  1  0
  4 18  1  0
  4 19  1  0
  5 20  1  0
  6 21  1  0
  6 22  1  0
  7 23  1  0
  8 24  1  0
  8 25  1  0
  9 26  1  0
 10 27  1  0
 10 28  1  0
 11 29  1  0
 11 30  1  0
 13 31  1  0
 14 32  1  0
 15 33  1  0
 16 34  1  0
 17 35  1  0
M  END
$$$$
[H]c1nc([H])c(-c2nc([H])c3c(c(C([H])([H])[H])nn3[H])c2[H])c([H])c1OC([H])([H])[C@@]([H])(N([H])[H])C([H])([H])c1c([H])c([H])c([H])c([H])c1[H]
     RDKit          3D

 48 51  0  0  0  0  0  0  0  0999 V2000
   -7.9507   -0.7561    0.0372 C   0  0  0  0  0  0  0  0  0  0  0  0
   -7.1361    0.4580   -0.1749 C   0  0  0  0  0  0  0  0  0  0  0  0
   -7.5606    1.6867   -0.4641 N   0  0  0  0  0  0  0  0  0  0  0  0
   -6.5085    2.5139   -0.5790 N   0  0  0  0  0  0  0  0  0  0  0  0
   -5.3670    1.8440   -0.3671 C   0  0  0  0  0  0  0  0  0  0  0  0
   -4.0248    2.1482   -0.3524 C   0  0  0  0  0  0  0  0  0  0  0  0
   -3.0784    1.2305   -0.0989 N   0  0  0  0  0  0  0  0  0  0  0  0
   -3.4085   -0.0638    0.1594 C   0  0  0  0  0  0  0  0  0  0  0  0
   -4.7474   -0.3745    0.1463 C   0  0  0  0  0  0  0  0  0  0  0  0
   -5.7618    0.5263   -0.1077 C   0  0  0  0  0  0  0  0  0  0  0  0
   -2.3448   -1.0186    0.4278 C   0  0  0  0  0  0  0  0  0  0  0  0
   -2.5809   -2.3402    0.6975 C   0  0  0  0  0  0  0  0  0  0  0  0
   -1.5524   -3.2073    0.9450 N   0  0  0  0  0  0  0  0  0  0  0  0
   -0.2672   -2.8114    0.9366 C   0  0  0  0  0  0  0  0  0  0  0  0
    0.0181   -1.4773    0.6672 C   0  0  0  0  0  0  0  0  0  0  0  0
    1.3410   -1.0583    0.6561 O   0  0  0  0  0  0  0  0  0  0  0  0
    1.6009    0.3054    0.3787 C   0  0  0  0  0  0  0  0  0  0  0  0
    3.0742    0.6143    0.4002 C   0  0  1  0  0  0  0  0  0  0  0  0
    3.6275    0.3144    1.7010 N   0  0  0  0  0  0  0  0  0  0  0  0
    3.7449   -0.1946   -0.6887 C   0  0  0  0  0  0  0  0  0  0  0  0
    5.1998    0.0403   -0.7485 C   0  0  0  0  0  0  0  0  0  0  0  0
    6.1193   -0.6909   -0.0427 C   0  0  0  0  0  0  0  0  0  0  0  0
    7.4595   -0.4227   -0.1416 C   0  0  0  0  0  0  0  0  0  0  0  0
    7.9534    0.5851   -0.9464 C   0  0  0  0  0  0  0  0  0  0  0  0
    7.0353    1.3284   -1.6622 C   0  0  0  0  0  0  0  0  0  0  0  0
    5.6690    1.0520   -1.5589 C   0  0  0  0  0  0  0  0  0  0  0  0
   -1.0271   -0.6127    0.4192 C   0  0  0  0  0  0  0  0  0  0  0  0
   -7.9337   -1.0908    1.1110 H   0  0  0  0  0  0  0  0  0  0  0  0
   -7.5585   -1.6296   -0.5348 H   0  0  0  0  0  0  0  0  0  0  0  0
   -8.9946   -0.5999   -0.2888 H   0  0  0  0  0  0  0  0  0  0  0  0
   -6.5535    3.5263   -0.7991 H   0  0  0  0  0  0  0  0  0  0  0  0
   -3.7175    3.1618   -0.5517 H   0  0  0  0  0  0  0  0  0  0  0  0
   -5.0564   -1.3831    0.3444 H   0  0  0  0  0  0  0  0  0  0  0  0
   -3.5829   -2.7167    0.7187 H   0  0  0  0  0  0  0  0  0  0  0  0
    0.5394   -3.5180    1.1364 H   0  0  0  0  0  0  0  0  0  0  0  0
    1.1617    0.5339   -0.6081 H   0  0  0  0  0  0  0  0  0  0  0  0
    1.0400    0.9039    1.1289 H   0  0  0  0  0  0  0  0  0  0  0  0
    3.1975    1.6928    0.2038 H   0  0  0  0  0  0  0  0  0  0  0  0
    3.3893   -0.6993    1.9138 H   0  0  0  0  0  0  0  0  0  0  0  0
    3.1140    0.9159    2.3897 H   0  0  0  0  0  0  0  0  0  0  0  0
    3.3096    0.0907   -1.6678 H   0  0  0  0  0  0  0  0  0  0  0  0
    3.5248   -1.2693   -0.5365 H   0  0  0  0  0  0  0  0  0  0  0  0
    5.7767   -1.4925    0.6022 H   0  0  0  0  0  0  0  0  0  0  0  0
    8.1671   -1.0093    0.4217 H   0  0  0  0  0  0  0  0  0  0  0  0
    9.0207    0.7693   -1.0003 H   0  0  0  0  0  0  0  0  0  0  0  0
    7.4156    2.1165   -2.2921 H   0  0  0  0  0  0  0  0  0  0  0  0
    4.9667    1.6481   -2.1297 H   0  0  0  0  0  0  0  0  0  0  0  0
   -0.7527    0.4305    0.2115 H   0  0  0  0  0  0  0  0  0  0  0  0
  1  2  1  0
  2  3  2  0
  3  4  1  0
  4  5  1  0
  5  6  2  0
  6  7  1  0
  7  8  2  0
  8  9  1  0
  9 10  2  0
  8 11  1  0
 11 12  2  0
 12 13  1  0
 13 14  2  0
 14 15  1  0
 15 16  1  0
 16 17  1  0
 17 18  1  0
 18 19  1  0
 18 20  1  0
 20 21  1  0
 21 22  2  0
 22 23  1  0
 23 24  2  0
 24 25  1  0
 25 26  2  0
 15 27  2  0
 10  2  1  0
 27 11  1  0
 10  5  1  0
 26 21  1  0
  1 28  1  0
  1 29  1  0
  1 30  1  0
  4 31  1  0
  6 32  1  0
  9 33  1  0
 12 34  1  0
 14 35  1  0
 17 36  1  0
 17 37  1  0
 18 38  1  6
 19 39  1  0
 19 40  1  0
 20 41  1  0
 20 42  1  0
 22 43  1  0
 23 44  1  0
 24 45  1  0
 25 46  1  0
 26 47  1  0
 27 48  1  0
M  END
$$$$
[H]c1c([H])c([H])c(C(=O)N2C([H])([H])C([H])([H])N(c3nnc(-c4c([H])c([H])c(C(F)(F)F)c([H])c4[H])c4c([H])c([H])c([H])c([H])c34)[C@]([H])(C([H])([H])[H])C2([H])[H])c([H])c1[H]
     RDKit          3D

 58 62  0  0  0  0  0  0  0  0999 V2000
    1.0216   -0.5164    1.8971 C   0  0  0  0  0  0  0  0  0  0  0  0
    1.6415   -0.7004    0.5286 C   0  0  2  0  0  0  0  0  0  0  0  0
    3.0404   -0.0292    0.6818 C   0  0  0  0  0  0  0  0  0  0  0  0
    3.7957   -0.1072   -0.5257 N   0  0  0  0  0  0  0  0  0  0  0  0
    2.9813   -0.2556   -1.7499 C   0  0  0  0  0  0  0  0  0  0  0  0
    1.7103    0.5914   -1.5468 C   0  0  0  0  0  0  0  0  0  0  0  0
    0.8916   -0.0022   -0.5226 N   0  0  0  0  0  0  0  0  0  0  0  0
   -0.5238    0.0301   -0.4233 C   0  0  0  0  0  0  0  0  0  0  0  0
   -1.0912    0.6613    0.6499 N   0  0  0  0  0  0  0  0  0  0  0  0
   -2.3714    0.7234    0.8298 N   0  0  0  0  0  0  0  0  0  0  0  0
   -3.2682    0.1722   -0.0192 C   0  0  0  0  0  0  0  0  0  0  0  0
   -4.6819    0.2087    0.2684 C   0  0  0  0  0  0  0  0  0  0  0  0
   -5.3157    1.3818    0.5543 C   0  0  0  0  0  0  0  0  0  0  0  0
   -6.6727    1.4247    0.8823 C   0  0  0  0  0  0  0  0  0  0  0  0
   -7.4212    0.2858    0.9298 C   0  0  0  0  0  0  0  0  0  0  0  0
   -6.8084   -0.9069    0.6464 C   0  0  0  0  0  0  0  0  0  0  0  0
   -5.4694   -0.9410    0.3242 C   0  0  0  0  0  0  0  0  0  0  0  0
   -8.8881    0.2994    1.2689 C   0  0  0  0  0  0  0  0  0  0  0  0
   -9.5700    0.0968    0.0720 F   0  0  0  0  0  0  0  0  0  0  0  0
   -9.2393    1.4904    1.8325 F   0  0  0  0  0  0  0  0  0  0  0  0
   -9.1892   -0.7405    2.1354 F   0  0  0  0  0  0  0  0  0  0  0  0
   -2.7701   -0.4777   -1.1270 C   0  0  0  0  0  0  0  0  0  0  0  0
   -3.5964   -1.0511   -2.0650 C   0  0  0  0  0  0  0  0  0  0  0  0
   -3.0468   -1.6963   -3.1815 C   0  0  0  0  0  0  0  0  0  0  0  0
   -1.7038   -1.7786   -3.3817 C   0  0  0  0  0  0  0  0  0  0  0  0
   -0.8697   -1.1935   -2.4361 C   0  0  0  0  0  0  0  0  0  0  0  0
   -1.3888   -0.5488   -1.3250 C   0  0  0  0  0  0  0  0  0  0  0  0
    5.1810   -0.0317   -0.6253 C   0  0  0  0  0  0  0  0  0  0  0  0
    5.6408   -0.2225   -1.8353 O   0  0  0  0  0  0  0  0  0  0  0  0
    6.2039    0.2147    0.3502 C   0  0  0  0  0  0  0  0  0  0  0  0
    5.9014    0.7445    1.5798 C   0  0  0  0  0  0  0  0  0  0  0  0
    6.9418    0.9018    2.5015 C   0  0  0  0  0  0  0  0  0  0  0  0
    8.2318    0.5424    2.1945 C   0  0  0  0  0  0  0  0  0  0  0  0
    8.5548    0.0071    0.9619 C   0  0  0  0  0  0  0  0  0  0  0  0
    7.5465   -0.1512    0.0586 C   0  0  0  0  0  0  0  0  0  0  0  0
    0.1258   -1.1058    2.0824 H   0  0  0  0  0  0  0  0  0  0  0  0
    1.7997   -0.9410    2.6086 H   0  0  0  0  0  0  0  0  0  0  0  0
    0.9574    0.5565    2.1979 H   0  0  0  0  0  0  0  0  0  0  0  0
    1.7431   -1.7712    0.3289 H   0  0  0  0  0  0  0  0  0  0  0  0
    2.7988    1.0165    0.9030 H   0  0  0  0  0  0  0  0  0  0  0  0
    3.4877   -0.6005    1.5291 H   0  0  0  0  0  0  0  0  0  0  0  0
    3.4647    0.0769   -2.6529 H   0  0  0  0  0  0  0  0  0  0  0  0
    2.6508   -1.3118   -1.8033 H   0  0  0  0  0  0  0  0  0  0  0  0
    1.2357    0.8384   -2.4815 H   0  0  0  0  0  0  0  0  0  0  0  0
    2.1281    1.5494   -1.1011 H   0  0  0  0  0  0  0  0  0  0  0  0
   -4.7898    2.3257    0.5456 H   0  0  0  0  0  0  0  0  0  0  0  0
   -7.1156    2.3928    1.1033 H   0  0  0  0  0  0  0  0  0  0  0  0
   -7.4186   -1.8097    0.6947 H   0  0  0  0  0  0  0  0  0  0  0  0
   -5.0431   -1.9187    0.1266 H   0  0  0  0  0  0  0  0  0  0  0  0
   -4.6529   -0.9723   -1.9620 H   0  0  0  0  0  0  0  0  0  0  0  0
   -3.7202   -2.1295   -3.9015 H   0  0  0  0  0  0  0  0  0  0  0  0
   -1.2217   -2.2684   -4.2196 H   0  0  0  0  0  0  0  0  0  0  0  0
    0.1981   -1.2403   -2.5369 H   0  0  0  0  0  0  0  0  0  0  0  0
    4.9337    1.0926    1.8961 H   0  0  0  0  0  0  0  0  0  0  0  0
    6.6844    1.3267    3.4876 H   0  0  0  0  0  0  0  0  0  0  0  0
    9.0078    0.6802    2.9454 H   0  0  0  0  0  0  0  0  0  0  0  0
    9.5842   -0.2740    0.7522 H   0  0  0  0  0  0  0  0  0  0  0  0
    7.7637   -0.5795   -0.9264 H   0  0  0  0  0  0  0  0  0  0  0  0
  1  2  1  0
  2  3  1  0
  3  4  1  0
  4  5  1  0
  5  6  1  0
  6  7  1  0
  7  8  1  0
  8  9  2  0
  9 10  1  0
 10 11  2  0
 11 12  1  0
 12 13  2  0
 13 14  1  0
 14 15  2  0
 15 16  1  0
 16 17  2  0
 15 18  1  0
 18 19  1  0
 18 20  1  0
 18 21  1  0
 11 22  1  0
 22 23  2  0
 23 24  1  0
 24 25  2  0
 25 26  1  0
 26 27  2  0
  4 28  1  0
 28 29  2  0
 28 30  1  0
 30 31  2  0
 31 32  1  0
 32 33  2  0
 33 34  1  0
 34 35  2  0
  7  2  1  0
 27  8  1  0
 35 30  1  0
 17 12  1  0
 27 22  1  0
  1 36  1  0
  1 37  1  0
  1 38  1  0
  2 39  1  6
  3 40  1  0
  3 41  1  0
  5 42  1  0
  5 43  1  0
  6 44  1  0
  6 45  1  0
 13 46  1  0
 14 47  1  0
 16 48  1  0
 17 49  1  0
 23 50  1  0
 24 51  1  0
 25 52  1  0
 26 53  1  0
 31 54  1  0
 32 55  1  0
 33 56  1  0
 34 57  1  0
 35 58  1  0
M  END
$$$$
[H]OC1([H])OC(=O)C([H])([H])[C@]1([H])N([H])C(=O)[C@@]1([H])N2C(=O)[C@@]([H])(N([H])C(=O)c3nc([H])c([H])c4c([H])c([H])c([H])c([H])c34)C([H])([H])C([H])([H])C([H])([H])C([H])([H])[C@@]2([H])C([H])([H])OC1([H])[H]
     RDKit          3D

 64 68  0  0  0  0  0  0  0  0999 V2000
    5.6538    1.3229    0.7704 O   0  0  0  0  0  0  0  0  0  0  0  0
    5.3517    2.4417   -0.0398 C   0  0  0  0  0  0  0  0  0  0  0  0
    5.5510    3.5785    0.7615 O   0  0  0  0  0  0  0  0  0  0  0  0
    4.4879    4.4459    0.6807 C   0  0  0  0  0  0  0  0  0  0  0  0
    4.3697    5.5809    1.2436 O   0  0  0  0  0  0  0  0  0  0  0  0
    3.4711    3.8483   -0.1824 C   0  0  0  0  0  0  0  0  0  0  0  0
    3.8693    2.4208   -0.3549 C   0  0  2  0  0  0  0  0  0  0  0  0
    3.1994    1.5230    0.5569 N   0  0  0  0  0  0  0  0  0  0  0  0
    2.5312    0.3620    0.1162 C   0  0  0  0  0  0  0  0  0  0  0  0
    2.4713    0.0264   -1.1037 O   0  0  0  0  0  0  0  0  0  0  0  0
    1.8588   -0.5268    1.0980 C   0  0  2  0  0  0  0  0  0  0  0  0
    2.9091   -1.0559    2.0813 C   0  0  0  0  0  0  0  0  0  0  0  0
    3.8568   -1.8403    1.4978 O   0  0  0  0  0  0  0  0  0  0  0  0
    3.4751   -2.6596    0.4829 C   0  0  0  0  0  0  0  0  0  0  0  0
    1.9779   -2.8897    0.3608 C   0  0  2  0  0  0  0  0  0  0  0  0
    1.7328   -3.4223   -1.0144 C   0  0  0  0  0  0  0  0  0  0  0  0
    0.7010   -4.5010   -1.0889 C   0  0  0  0  0  0  0  0  0  0  0  0
   -0.6411   -4.1267   -0.5711 C   0  0  0  0  0  0  0  0  0  0  0  0
   -1.1975   -2.8555   -1.1683 C   0  0  0  0  0  0  0  0  0  0  0  0
   -1.3931   -1.8856   -0.0055 C   0  0  2  0  0  0  0  0  0  0  0  0
   -2.3991   -0.8863   -0.3342 N   0  0  0  0  0  0  0  0  0  0  0  0
   -3.5985   -0.7877    0.3547 C   0  0  0  0  0  0  0  0  0  0  0  0
   -3.7382   -1.6805    1.3054 O   0  0  0  0  0  0  0  0  0  0  0  0
   -4.7202    0.0973    0.2183 C   0  0  0  0  0  0  0  0  0  0  0  0
   -5.9916   -0.4349    0.3331 N   0  0  0  0  0  0  0  0  0  0  0  0
   -7.1043    0.2820    0.2372 C   0  0  0  0  0  0  0  0  0  0  0  0
   -7.0614    1.6317    0.0126 C   0  0  0  0  0  0  0  0  0  0  0  0
   -5.8160    2.2335   -0.1105 C   0  0  0  0  0  0  0  0  0  0  0  0
   -5.7128    3.5835   -0.3068 C   0  0  0  0  0  0  0  0  0  0  0  0
   -4.4956    4.2000   -0.3997 C   0  0  0  0  0  0  0  0  0  0  0  0
   -3.3434    3.4611   -0.2946 C   0  0  0  0  0  0  0  0  0  0  0  0
   -3.4379    2.0950   -0.0968 C   0  0  0  0  0  0  0  0  0  0  0  0
   -4.6587    1.4464   -0.0029 C   0  0  0  0  0  0  0  0  0  0  0  0
   -0.0864   -1.2382    0.2413 C   0  0  0  0  0  0  0  0  0  0  0  0
   -0.1047    0.0385    0.2032 O   0  0  0  0  0  0  0  0  0  0  0  0
    1.2316   -1.6678    0.5198 N   0  0  0  0  0  0  0  0  0  0  0  0
    6.3327    1.5858    1.4232 H   0  0  0  0  0  0  0  0  0  0  0  0
    5.9738    2.4177   -0.9485 H   0  0  0  0  0  0  0  0  0  0  0  0
    2.4355    3.9834    0.1809 H   0  0  0  0  0  0  0  0  0  0  0  0
    3.5484    4.3421   -1.1948 H   0  0  0  0  0  0  0  0  0  0  0  0
    3.7844    2.0673   -1.4054 H   0  0  0  0  0  0  0  0  0  0  0  0
    3.2186    1.7520    1.5657 H   0  0  0  0  0  0  0  0  0  0  0  0
    1.1655    0.1063    1.6942 H   0  0  0  0  0  0  0  0  0  0  0  0
    2.3395   -1.6398    2.8381 H   0  0  0  0  0  0  0  0  0  0  0  0
    3.3846   -0.2063    2.6074 H   0  0  0  0  0  0  0  0  0  0  0  0
    3.9178   -3.6784    0.6965 H   0  0  0  0  0  0  0  0  0  0  0  0
    3.9328   -2.4001   -0.5157 H   0  0  0  0  0  0  0  0  0  0  0  0
    1.7237   -3.6251    1.1605 H   0  0  0  0  0  0  0  0  0  0  0  0
    2.6778   -3.8738   -1.4407 H   0  0  0  0  0  0  0  0  0  0  0  0
    1.4753   -2.6158   -1.7308 H   0  0  0  0  0  0  0  0  0  0  0  0
    1.0357   -5.4106   -0.5847 H   0  0  0  0  0  0  0  0  0  0  0  0
    0.5846   -4.7646   -2.1707 H   0  0  0  0  0  0  0  0  0  0  0  0
   -1.3497   -4.9495   -0.8876 H   0  0  0  0  0  0  0  0  0  0  0  0
   -0.7045   -4.1371    0.5443 H   0  0  0  0  0  0  0  0  0  0  0  0
   -0.5344   -2.3746   -1.9050 H   0  0  0  0  0  0  0  0  0  0  0  0
   -2.1706   -3.0078   -1.6797 H   0  0  0  0  0  0  0  0  0  0  0  0
   -1.7771   -2.4614    0.8565 H   0  0  0  0  0  0  0  0  0  0  0  0
   -2.1927   -0.2564   -1.1474 H   0  0  0  0  0  0  0  0  0  0  0  0
   -8.0668   -0.2324    0.3423 H   0  0  0  0  0  0  0  0  0  0  0  0
   -7.9406    2.2364   -0.0712 H   0  0  0  0  0  0  0  0  0  0  0  0
   -6.6203    4.1888   -0.3922 H   0  0  0  0  0  0  0  0  0  0  0  0
   -4.4326    5.2840   -0.5579 H   0  0  0  0  0  0  0  0  0  0  0  0
   -2.3994    3.9695   -0.3697 H   0  0  0  0  0  0  0  0  0  0  0  0
   -2.5413    1.5397    0.0220 H   0  0  0  0  0  0  0  0  0  0  0  0
  1  2  1  0
  2  3  1  0
  3  4  1  0
  4  5  2  0
  4  6  1  0
  6  7  1  0
  7  8  1  0
  8  9  1  0
  9 10  2  0
  9 11  1  0
 11 12  1  0
 12 13  1  0
 13 14  1  0
 14 15  1  0
 15 16  1  0
 16 17  1  0
 17 18  1  0
 18 19  1  0
 19 20  1  0
 20 21  1  0
 21 22  1  0
 22 23  2  0
 22 24  1  0
 24 25  2  0
 25 26  1  0
 26 27  2  0
 27 28  1  0
 28 29  2  0
 29 30  1  0
 30 31  2  0
 31 32  1  0
 32 33  2  0
 20 34  1  0
 34 35  2  0
 34 36  1  0
  7  2  1  0
 36 11  1  0
 36 15  1  0
 33 24  1  0
 33 28  1  0
  1 37  1  0
  2 38  1  0
  6 39  1  0
  6 40  1  0
  7 41  1  6
  8 42  1  0
 11 43  1  1
 12 44  1  0
 12 45  1  0
 14 46  1  0
 14 47  1  0
 15 48  1  1
 16 49  1  0
 16 50  1  0
 17 51  1  0
 17 52  1  0
 18 53  1  0
 18 54  1  0
 19 55  1  0
 19 56  1  0
 20 57  1  1
 21 58  1  0
 26 59  1  0
 27 60  1  0
 29 61  1  0
 30 62  1  0
 31 63  1  0
 32 64  1  0
M  END
$$$$
[H]c1nn([H])c(N([H])C(=O)C(=O)[C@@]([H])(N([H])C(=O)OC([H])(C([H])(C([H])([H])[H])C([H])([H])[H])C([H])(C([H])([H])[H])C([H])([H])[H])C([H])([H])C([H])([H])C([H])([H])C([H])([H])[H])c1[H]
     RDKit          3D

 56 56  0  0  0  0  0  0  0  0999 V2000
    3.9234   -2.9714   -2.0648 C   0  0  0  0  0  0  0  0  0  0  0  0
    3.6072   -3.4114   -0.6625 C   0  0  0  0  0  0  0  0  0  0  0  0
    3.0330   -2.2108    0.0944 C   0  0  0  0  0  0  0  0  0  0  0  0
    1.7907   -1.7375   -0.5847 C   0  0  0  0  0  0  0  0  0  0  0  0
    1.1221   -0.5619    0.1033 C   0  0  2  0  0  0  0  0  0  0  0  0
   -0.0685   -0.1702   -0.6363 N   0  0  0  0  0  0  0  0  0  0  0  0
   -1.3747   -0.1623   -0.0885 C   0  0  0  0  0  0  0  0  0  0  0  0
   -1.5268   -0.5208    1.1289 O   0  0  0  0  0  0  0  0  0  0  0  0
   -2.4964    0.2062   -0.7780 O   0  0  0  0  0  0  0  0  0  0  0  0
   -3.8034    0.2143   -0.2355 C   0  0  0  0  0  0  0  0  0  0  0  0
   -4.3597    1.5947   -0.1667 C   0  0  0  0  0  0  0  0  0  0  0  0
   -5.7596    1.5863    0.4138 C   0  0  0  0  0  0  0  0  0  0  0  0
   -4.2959    2.4148   -1.3997 C   0  0  0  0  0  0  0  0  0  0  0  0
   -4.6239   -0.7877   -0.9633 C   0  0  0  0  0  0  0  0  0  0  0  0
   -3.9650   -2.1489   -0.7683 C   0  0  0  0  0  0  0  0  0  0  0  0
   -4.5876   -0.4830   -2.4333 C   0  0  0  0  0  0  0  0  0  0  0  0
    2.0463    0.5923    0.0523 C   0  0  0  0  0  0  0  0  0  0  0  0
    2.0243    1.3269   -0.9760 O   0  0  0  0  0  0  0  0  0  0  0  0
    2.9779    0.9229    1.1318 C   0  0  0  0  0  0  0  0  0  0  0  0
    2.9544    0.2137    2.1612 O   0  0  0  0  0  0  0  0  0  0  0  0
    3.8607    2.0041    0.9967 N   0  0  0  0  0  0  0  0  0  0  0  0
    4.7975    2.4090    1.9812 C   0  0  0  0  0  0  0  0  0  0  0  0
    5.0764    1.9063    3.2213 C   0  0  0  0  0  0  0  0  0  0  0  0
    6.0845    2.6714    3.7792 C   0  0  0  0  0  0  0  0  0  0  0  0
    6.3952    3.6090    2.8847 N   0  0  0  0  0  0  0  0  0  0  0  0
    5.6371    3.4551    1.8244 N   0  0  0  0  0  0  0  0  0  0  0  0
    4.4069   -1.9671   -2.0668 H   0  0  0  0  0  0  0  0  0  0  0  0
    3.0086   -2.9388   -2.6687 H   0  0  0  0  0  0  0  0  0  0  0  0
    4.6070   -3.6985   -2.5380 H   0  0  0  0  0  0  0  0  0  0  0  0
    4.5216   -3.7332   -0.1383 H   0  0  0  0  0  0  0  0  0  0  0  0
    2.8305   -4.2154   -0.6756 H   0  0  0  0  0  0  0  0  0  0  0  0
    3.8437   -1.4319    0.0416 H   0  0  0  0  0  0  0  0  0  0  0  0
    2.8192   -2.5000    1.1210 H   0  0  0  0  0  0  0  0  0  0  0  0
    2.0957   -1.3982   -1.6169 H   0  0  0  0  0  0  0  0  0  0  0  0
    1.0999   -2.5792   -0.7380 H   0  0  0  0  0  0  0  0  0  0  0  0
    0.8995   -0.8397    1.1361 H   0  0  0  0  0  0  0  0  0  0  0  0
    0.0493    0.1201   -1.6237 H   0  0  0  0  0  0  0  0  0  0  0  0
   -3.7425   -0.1385    0.8406 H   0  0  0  0  0  0  0  0  0  0  0  0
   -3.7351    2.1419    0.6053 H   0  0  0  0  0  0  0  0  0  0  0  0
   -5.9276    2.5297    0.9467 H   0  0  0  0  0  0  0  0  0  0  0  0
   -6.5243    1.3652   -0.3563 H   0  0  0  0  0  0  0  0  0  0  0  0
   -5.7476    0.7761    1.2012 H   0  0  0  0  0  0  0  0  0  0  0  0
   -5.0300    2.2081   -2.1745 H   0  0  0  0  0  0  0  0  0  0  0  0
   -4.4743    3.4856   -1.0835 H   0  0  0  0  0  0  0  0  0  0  0  0
   -3.2859    2.4293   -1.8570 H   0  0  0  0  0  0  0  0  0  0  0  0
   -5.6539   -0.9018   -0.5706 H   0  0  0  0  0  0  0  0  0  0  0  0
   -3.0939   -2.2979   -1.4226 H   0  0  0  0  0  0  0  0  0  0  0  0
   -4.6805   -2.9703   -0.9903 H   0  0  0  0  0  0  0  0  0  0  0  0
   -3.6495   -2.3034    0.2816 H   0  0  0  0  0  0  0  0  0  0  0  0
   -3.7129    0.1594   -2.7100 H   0  0  0  0  0  0  0  0  0  0  0  0
   -5.5507   -0.0472   -2.7982 H   0  0  0  0  0  0  0  0  0  0  0  0
   -4.4496   -1.4170   -3.0154 H   0  0  0  0  0  0  0  0  0  0  0  0
    3.8117    2.5501    0.0893 H   0  0  0  0  0  0  0  0  0  0  0  0
    4.5909    1.0574    3.6831 H   0  0  0  0  0  0  0  0  0  0  0  0
    6.5254    2.5306    4.7456 H   0  0  0  0  0  0  0  0  0  0  0  0
    5.6795    4.0636    0.9709 H   0  0  0  0  0  0  0  0  0  0  0  0
  1  2  1  0
  2  3  1  0
  3  4  1  0
  4  5  1  0
  5  6  1  0
  6  7  1  0
  7  8  2  0
  7  9  1  0
  9 10  1  0
 10 11  1  0
 11 12  1  0
 11 13  1  0
 10 14  1  0
 14 15  1  0
 14 16  1  0
  5 17  1  0
 17 18  2  0
 17 19  1  0
 19 20  2  0
 19 21  1  0
 21 22  1  0
 22 23  2  0
 23 24  1  0
 24 25  2  0
 25 26  1  0
 26 22  1  0
  1 27  1  0
  1 28  1  0
  1 29  1  0
  2 30  1  0
  2 31  1  0
  3 32  1  0
  3 33  1  0
  4 34  1  0
  4 35  1  0
  5 36  1  1
  6 37  1  0
 10 38  1  0
 11 39  1  0
 12 40  1  0
 12 41  1  0
 12 42  1  0
 13 43  1  0
 13 44  1  0
 13 45  1  0
 14 46  1  0
 15 47  1  0
 15 48  1  0
 15 49  1  0
 16 50  1  0
 16 51  1  0
 16 52  1  0
 21 53  1  0
 23 54  1  0
 24 55  1  0
 26 56  1  0
M  END
$$$$
[H]ON([H])C(=O)C([H])([H])C([H])([H])C([H])([H])C([H])([H])C([H])([H])C([H])([H])C(=O)N([H])c1c([H])c([H])c(-c2nnn(-c3c([H])c([H])c(F)c([H])c3[H])c2[H])c([H])c1[H]
     RDKit          3D

 55 57  0  0  0  0  0  0  0  0999 V2000
   -6.2027    3.7851    0.1843 O   0  0  0  0  0  0  0  0  0  0  0  0
   -6.8394    2.6076    0.0136 N   0  0  0  0  0  0  0  0  0  0  0  0
   -6.4315    1.4893    0.7944 C   0  0  0  0  0  0  0  0  0  0  0  0
   -5.4935    1.6228    1.6199 O   0  0  0  0  0  0  0  0  0  0  0  0
   -7.1335    0.1724    0.6130 C   0  0  0  0  0  0  0  0  0  0  0  0
   -6.6157   -0.9225    1.4359 C   0  0  0  0  0  0  0  0  0  0  0  0
   -5.2397   -1.4396    1.2866 C   0  0  0  0  0  0  0  0  0  0  0  0
   -4.8166   -2.0949    0.0381 C   0  0  0  0  0  0  0  0  0  0  0  0
   -4.7325   -1.3852   -1.2386 C   0  0  0  0  0  0  0  0  0  0  0  0
   -3.7879   -0.2547   -1.3870 C   0  0  0  0  0  0  0  0  0  0  0  0
   -2.3613   -0.6833   -1.2345 C   0  0  0  0  0  0  0  0  0  0  0  0
   -2.1400   -1.9026   -1.1568 O   0  0  0  0  0  0  0  0  0  0  0  0
   -1.3284    0.2557   -1.1826 N   0  0  0  0  0  0  0  0  0  0  0  0
    0.0356   -0.0584   -1.0498 C   0  0  0  0  0  0  0  0  0  0  0  0
    0.6281   -1.2671   -1.2977 C   0  0  0  0  0  0  0  0  0  0  0  0
    2.0057   -1.4898   -1.1114 C   0  0  0  0  0  0  0  0  0  0  0  0
    2.8359   -0.4946   -0.6670 C   0  0  0  0  0  0  0  0  0  0  0  0
    2.2465    0.7240   -0.4165 C   0  0  0  0  0  0  0  0  0  0  0  0
    0.9093    0.9534   -0.5931 C   0  0  0  0  0  0  0  0  0  0  0  0
    4.2680   -0.6873   -0.4616 C   0  0  0  0  0  0  0  0  0  0  0  0
    5.1888    0.2181   -0.0269 C   0  0  0  0  0  0  0  0  0  0  0  0
    6.3756   -0.4075    0.0064 N   0  0  0  0  0  0  0  0  0  0  0  0
    6.2143   -1.6732   -0.3953 N   0  0  0  0  0  0  0  0  0  0  0  0
    4.9381   -1.8554   -0.6825 N   0  0  0  0  0  0  0  0  0  0  0  0
    7.6034    0.1962    0.4086 C   0  0  0  0  0  0  0  0  0  0  0  0
    7.7276    0.8142    1.6329 C   0  0  0  0  0  0  0  0  0  0  0  0
    8.9315    1.3796    1.9707 C   0  0  0  0  0  0  0  0  0  0  0  0
    9.9851    1.3173    1.0827 C   0  0  0  0  0  0  0  0  0  0  0  0
   11.1594    1.8918    1.4611 F   0  0  0  0  0  0  0  0  0  0  0  0
    9.8951    0.7075   -0.1485 C   0  0  0  0  0  0  0  0  0  0  0  0
    8.6816    0.1430   -0.4777 C   0  0  0  0  0  0  0  0  0  0  0  0
   -6.8424    4.4469    0.5628 H   0  0  0  0  0  0  0  0  0  0  0  0
   -7.6208    2.4841   -0.6697 H   0  0  0  0  0  0  0  0  0  0  0  0
   -8.2315    0.3398    0.9069 H   0  0  0  0  0  0  0  0  0  0  0  0
   -7.1822   -0.0074   -0.4550 H   0  0  0  0  0  0  0  0  0  0  0  0
   -7.3704   -1.7835    1.5081 H   0  0  0  0  0  0  0  0  0  0  0  0
   -6.6562   -0.5335    2.5257 H   0  0  0  0  0  0  0  0  0  0  0  0
   -4.5440   -0.6077    1.5959 H   0  0  0  0  0  0  0  0  0  0  0  0
   -5.1228   -2.2093    2.1350 H   0  0  0  0  0  0  0  0  0  0  0  0
   -3.8397   -2.6536    0.2256 H   0  0  0  0  0  0  0  0  0  0  0  0
   -5.5498   -2.9804   -0.1744 H   0  0  0  0  0  0  0  0  0  0  0  0
   -5.7065   -1.1614   -1.7396 H   0  0  0  0  0  0  0  0  0  0  0  0
   -4.3154   -2.1862   -1.9809 H   0  0  0  0  0  0  0  0  0  0  0  0
   -3.8995    0.1105   -2.4576 H   0  0  0  0  0  0  0  0  0  0  0  0
   -3.9843    0.6451   -0.7878 H   0  0  0  0  0  0  0  0  0  0  0  0
   -1.6265    1.2743   -1.2531 H   0  0  0  0  0  0  0  0  0  0  0  0
    0.0378   -2.0891   -1.6654 H   0  0  0  0  0  0  0  0  0  0  0  0
    2.4197   -2.4734   -1.3249 H   0  0  0  0  0  0  0  0  0  0  0  0
    2.9105    1.5162   -0.0625 H   0  0  0  0  0  0  0  0  0  0  0  0
    0.4510    1.9079   -0.3961 H   0  0  0  0  0  0  0  0  0  0  0  0
    4.9521    1.2472    0.2324 H   0  0  0  0  0  0  0  0  0  0  0  0
    6.8618    0.8372    2.3027 H   0  0  0  0  0  0  0  0  0  0  0  0
    9.0068    1.8599    2.9373 H   0  0  0  0  0  0  0  0  0  0  0  0
   10.7577    0.6942   -0.7956 H   0  0  0  0  0  0  0  0  0  0  0  0
    8.5876   -0.3396   -1.4358 H   0  0  0  0  0  0  0  0  0  0  0  0
  1  2  1  0
  2  3  1  0
  3  4  2  0
  3  5  1  0
  5  6  1  0
  6  7  1  0
  7  8  1  0
  8  9  1  0
  9 10  1  0
 10 11  1  0
 11 12  2  0
 11 13  1  0
 13 14  1  0
 14 15  2  0
 15 16  1  0
 16 17  2  0
 17 18  1  0
 18 19  2  0
 17 20  1  0
 20 21  2  0
 21 22  1  0
 22 23  1  0
 23 24  2  0
 22 25  1  0
 25 26  2  0
 26 27  1  0
 27 28  2  0
 28 29  1  0
 28 30  1  0
 30 31  2  0
 19 14  1  0
 24 20  1  0
 31 25  1  0
  1 32  1  0
  2 33  1  0
  5 34  1  0
  5 35  1  0
  6 36  1  0
  6 37  1  0
  7 38  1  0
  7 39  1  0
  8 40  1  0
  8 41  1  0
  9 42  1  0
  9 43  1  0
 10 44  1  0
 10 45  1  0
 13 46  1  0
 15 47  1  0
 16 48  1  0
 18 49  1  0
 19 50  1  0
 21 51  1  0
 26 52  1  0
 27 53  1  0
 30 54  1  0
 31 55  1  0
M  END
$$$$
[H]c1c([H])c([H])c2c(c1[H])c1c3c(c4c5c([H])c([H])c([H])c([H])c5n5c4c1n2[C@]1([H])O[C@]5(C([H])([H])[H])[C@@]([H])(OC([H])([H])[H])[C@@]([H])(N([H])C([H])([H])[H])C1([H])[H])C([H])([H])N([H])C3=O
     RDKit          3D

 61 68  0  0  0  0  0  0  0  0999 V2000
   -4.7214    2.4097    0.5983 C   0  0  0  0  0  0  0  0  0  0  0  0
   -3.9822    1.1848    0.6324 N   0  0  0  0  0  0  0  0  0  0  0  0
   -3.1808    0.9438   -0.5514 C   0  0  1  0  0  0  0  0  0  0  0  0
   -2.1287    2.1030   -0.6160 C   0  0  0  0  0  0  0  0  0  0  0  0
   -0.9471    1.4134   -0.5220 C   0  0  1  0  0  0  0  0  0  0  0  0
   -0.9638    0.5601   -1.6162 O   0  0  0  0  0  0  0  0  0  0  0  0
   -1.3378   -0.7198   -1.0906 C   0  0  2  0  0  0  0  0  0  0  0  0
   -1.6688   -1.4664   -2.4309 C   0  0  0  0  0  0  0  0  0  0  0  0
   -2.5304   -0.4438   -0.3258 C   0  0  1  0  0  0  0  0  0  0  0  0
   -2.6388   -0.8827    0.9764 O   0  0  0  0  0  0  0  0  0  0  0  0
   -3.5794   -1.8389    1.2299 C   0  0  0  0  0  0  0  0  0  0  0  0
   -0.1297   -1.2831   -0.5475 N   0  0  0  0  0  0  0  0  0  0  0  0
    0.1543   -2.6040   -0.4727 C   0  0  0  0  0  0  0  0  0  0  0  0
   -0.5674   -3.7659   -0.7148 C   0  0  0  0  0  0  0  0  0  0  0  0
    0.0003   -5.0248   -0.5414 C   0  0  0  0  0  0  0  0  0  0  0  0
    1.3049   -5.1599   -0.1206 C   0  0  0  0  0  0  0  0  0  0  0  0
    2.0493   -4.0271    0.1293 C   0  0  0  0  0  0  0  0  0  0  0  0
    1.4590   -2.8076   -0.0520 C   0  0  0  0  0  0  0  0  0  0  0  0
    1.9904   -1.5692    0.1419 C   0  0  0  0  0  0  0  0  0  0  0  0
    3.2344   -1.0437    0.5170 C   0  0  0  0  0  0  0  0  0  0  0  0
    4.4559   -1.7835    0.8800 C   0  0  0  0  0  0  0  0  0  0  0  0
    5.4345   -0.7771    1.2024 N   0  0  0  0  0  0  0  0  0  0  0  0
    4.8582    0.5339    1.0195 C   0  0  0  0  0  0  0  0  0  0  0  0
    5.5482    1.5411    1.2321 O   0  0  0  0  0  0  0  0  0  0  0  0
    3.4942    0.3130    0.5954 C   0  0  0  0  0  0  0  0  0  0  0  0
    2.4992    1.2349    0.2990 C   0  0  0  0  0  0  0  0  0  0  0  0
    2.3596    2.5925    0.3108 C   0  0  0  0  0  0  0  0  0  0  0  0
    3.2065    3.6185    0.5806 C   0  0  0  0  0  0  0  0  0  0  0  0
    2.7033    4.9291    0.4896 C   0  0  0  0  0  0  0  0  0  0  0  0
    1.3946    5.1670    0.1386 C   0  0  0  0  0  0  0  0  0  0  0  0
    0.5300    4.1103   -0.1373 C   0  0  0  0  0  0  0  0  0  0  0  0
    1.0459    2.8409   -0.0415 C   0  0  0  0  0  0  0  0  0  0  0  0
    0.3968    1.7103   -0.2639 N   0  0  0  0  0  0  0  0  0  0  0  0
    1.2898    0.7040   -0.0649 C   0  0  0  0  0  0  0  0  0  0  0  0
    1.0348   -0.6769   -0.1506 C   0  0  0  0  0  0  0  0  0  0  0  0
   -4.1718    3.2170    1.1277 H   0  0  0  0  0  0  0  0  0  0  0  0
   -4.9729    2.6635   -0.4314 H   0  0  0  0  0  0  0  0  0  0  0  0
   -5.6660    2.2404    1.1684 H   0  0  0  0  0  0  0  0  0  0  0  0
   -3.5211    0.9595    1.5171 H   0  0  0  0  0  0  0  0  0  0  0  0
   -3.8406    0.9718   -1.4128 H   0  0  0  0  0  0  0  0  0  0  0  0
   -2.3613    2.6480   -1.5550 H   0  0  0  0  0  0  0  0  0  0  0  0
   -2.3259    2.8337    0.2023 H   0  0  0  0  0  0  0  0  0  0  0  0
   -1.1567    0.8348    0.4905 H   0  0  0  0  0  0  0  0  0  0  0  0
   -1.8666   -0.7570   -3.2417 H   0  0  0  0  0  0  0  0  0  0  0  0
   -0.8467   -2.0981   -2.7423 H   0  0  0  0  0  0  0  0  0  0  0  0
   -2.6367   -1.9690   -2.2345 H   0  0  0  0  0  0  0  0  0  0  0  0
   -3.3459   -1.0936   -0.8266 H   0  0  0  0  0  0  0  0  0  0  0  0
   -3.5387   -2.0794    2.3110 H   0  0  0  0  0  0  0  0  0  0  0  0
   -3.3830   -2.8163    0.6973 H   0  0  0  0  0  0  0  0  0  0  0  0
   -4.6203   -1.5293    1.0081 H   0  0  0  0  0  0  0  0  0  0  0  0
   -1.5742   -3.6918   -1.0322 H   0  0  0  0  0  0  0  0  0  0  0  0
   -0.6332   -5.8901   -0.7533 H   0  0  0  0  0  0  0  0  0  0  0  0
    1.6909   -6.1578   -0.0050 H   0  0  0  0  0  0  0  0  0  0  0  0
    3.0778   -4.1234    0.4614 H   0  0  0  0  0  0  0  0  0  0  0  0
    4.2970   -2.4098    1.7823 H   0  0  0  0  0  0  0  0  0  0  0  0
    4.7645   -2.4091    0.0144 H   0  0  0  0  0  0  0  0  0  0  0  0
    6.4012   -1.0207    1.5162 H   0  0  0  0  0  0  0  0  0  0  0  0
    4.2259    3.4694    0.8539 H   0  0  0  0  0  0  0  0  0  0  0  0
    3.4090    5.7212    0.7122 H   0  0  0  0  0  0  0  0  0  0  0  0
    1.0230    6.1798    0.0722 H   0  0  0  0  0  0  0  0  0  0  0  0
   -0.4958    4.2706   -0.4133 H   0  0  0  0  0  0  0  0  0  0  0  0
  1  2  1  0
  2  3  1  0
  3  4  1  0
  4  5  1  0
  5  6  1  0
  6  7  1  0
  7  8  1  6
  7  9  1  0
  9 10  1  0
 10 11  1  0
  7 12  1  0
 12 13  1  0
 13 14  2  0
 14 15  1  0
 15 16  2  0
 16 17  1  0
 17 18  2  0
 18 19  1  0
 19 20  2  0
 20 21  1  0
 21 22  1  0
 22 23  1  0
 23 24  2  0
 23 25  1  0
 25 26  2  0
 26 27  1  0
 27 28  2  0
 28 29  1  0
 29 30  2  0
 30 31  1  0
 31 32  2  0
 32 33  1  0
 33 34  1  0
 34 35  2  0
  9  3  1  0
 35 12  1  0
 33  5  1  0
 18 13  1  0
 35 19  1  0
 25 20  1  0
 34 26  1  0
 32 27  1  0
  1 36  1  0
  1 37  1  0
  1 38  1  0
  2 39  1  0
  3 40  1  6
  4 41  1  0
  4 42  1  0
  5 43  1  1
  8 44  1  0
  8 45  1  0
  8 46  1  0
  9 47  1  6
 11 48  1  0
 11 49  1  0
 11 50  1  0
 14 51  1  0
 15 52  1  0
 16 53  1  0
 17 54  1  0
 21 55  1  0
 21 56  1  0
 22 57  1  0
 28 58  1  0
 29 59  1  0
 30 60  1  0
 31 61  1  0
M  END
$$$$
[H]ON(C([H])=O)C([H])([H])[C@]([H])(C(=O)N1C([H])([H])C([H])([H])C([H])([H])[C@@]1([H])C(=O)N([H])C1([H])C([H])([H])C([H])([H])OC([H])([H])C1([H])[H])C([H])([H])C1([H])C([H])([H])C([H])([H])C([H])([H])C([H])([H])C1([H])[H]
     RDKit          3D

 64 66  0  0  0  0  0  0  0  0999 V2000
   -2.8422   -3.2285   -0.8686 O   0  0  0  0  0  0  0  0  0  0  0  0
   -1.6639   -2.7414   -0.4356 N   0  0  0  0  0  0  0  0  0  0  0  0
   -1.2860   -1.3813   -0.7399 C   0  0  0  0  0  0  0  0  0  0  0  0
   -1.7080   -0.3865    0.2692 C   0  0  1  0  0  0  0  0  0  0  0  0
   -3.1524   -0.2473    0.5252 C   0  0  0  0  0  0  0  0  0  0  0  0
   -4.0415    0.1546   -0.5959 C   0  0  0  0  0  0  0  0  0  0  0  0
   -5.4504    0.2125   -0.0440 C   0  0  0  0  0  0  0  0  0  0  0  0
   -5.8164    1.5697    0.4950 C   0  0  0  0  0  0  0  0  0  0  0  0
   -5.6139    2.5748   -0.6011 C   0  0  0  0  0  0  0  0  0  0  0  0
   -4.0891    2.6686   -0.7521 C   0  0  0  0  0  0  0  0  0  0  0  0
   -3.6414    1.3806   -1.3463 C   0  0  0  0  0  0  0  0  0  0  0  0
   -1.0335   -0.5623    1.5818 C   0  0  0  0  0  0  0  0  0  0  0  0
   -1.6316   -1.0210    2.5890 O   0  0  0  0  0  0  0  0  0  0  0  0
    0.3270   -0.2057    1.7203 N   0  0  0  0  0  0  0  0  0  0  0  0
    1.0576   -0.3452    2.9979 C   0  0  0  0  0  0  0  0  0  0  0  0
    2.1391    0.6852    2.9397 C   0  0  0  0  0  0  0  0  0  0  0  0
    1.8621    1.4805    1.6731 C   0  0  0  0  0  0  0  0  0  0  0  0
    1.2838    0.3530    0.7884 C   0  0  1  0  0  0  0  0  0  0  0  0
    2.4181   -0.5582    0.5406 C   0  0  0  0  0  0  0  0  0  0  0  0
    2.5453   -1.6979    1.0368 O   0  0  0  0  0  0  0  0  0  0  0  0
    3.4661   -0.1102   -0.3402 N   0  0  0  0  0  0  0  0  0  0  0  0
    4.6209   -0.9374   -0.6433 C   0  0  0  0  0  0  0  0  0  0  0  0
    4.7030   -1.1902   -2.1340 C   0  0  0  0  0  0  0  0  0  0  0  0
    5.0664    0.0886   -2.8595 C   0  0  0  0  0  0  0  0  0  0  0  0
    6.2943    0.5115   -2.4037 O   0  0  0  0  0  0  0  0  0  0  0  0
    6.2213    0.9358   -1.0828 C   0  0  0  0  0  0  0  0  0  0  0  0
    5.8575   -0.2000   -0.1643 C   0  0  0  0  0  0  0  0  0  0  0  0
   -0.8233   -3.5977    0.3116 C   0  0  0  0  0  0  0  0  0  0  0  0
   -1.1574   -4.7735    0.5664 O   0  0  0  0  0  0  0  0  0  0  0  0
   -3.2763   -3.8428   -0.2529 H   0  0  0  0  0  0  0  0  0  0  0  0
   -1.7010   -1.1900   -1.7555 H   0  0  0  0  0  0  0  0  0  0  0  0
   -0.1920   -1.3292   -0.8792 H   0  0  0  0  0  0  0  0  0  0  0  0
   -1.3272    0.6250   -0.0759 H   0  0  0  0  0  0  0  0  0  0  0  0
   -3.3033    0.4421    1.3827 H   0  0  0  0  0  0  0  0  0  0  0  0
   -3.5329   -1.2492    0.8845 H   0  0  0  0  0  0  0  0  0  0  0  0
   -4.0566   -0.6775   -1.3303 H   0  0  0  0  0  0  0  0  0  0  0  0
   -6.2219   -0.0552   -0.7957 H   0  0  0  0  0  0  0  0  0  0  0  0
   -5.5709   -0.5074    0.7922 H   0  0  0  0  0  0  0  0  0  0  0  0
   -6.8788    1.5260    0.7909 H   0  0  0  0  0  0  0  0  0  0  0  0
   -5.1602    1.8725    1.3515 H   0  0  0  0  0  0  0  0  0  0  0  0
   -5.9620    2.0813   -1.5529 H   0  0  0  0  0  0  0  0  0  0  0  0
   -6.0733    3.5429   -0.4306 H   0  0  0  0  0  0  0  0  0  0  0  0
   -3.8587    3.4769   -1.4808 H   0  0  0  0  0  0  0  0  0  0  0  0
   -3.6197    2.8774    0.2318 H   0  0  0  0  0  0  0  0  0  0  0  0
   -2.5461    1.4056   -1.4643 H   0  0  0  0  0  0  0  0  0  0  0  0
   -4.0423    1.3485   -2.4029 H   0  0  0  0  0  0  0  0  0  0  0  0
    0.3622   -0.1120    3.8374 H   0  0  0  0  0  0  0  0  0  0  0  0
    1.3844   -1.3755    3.1379 H   0  0  0  0  0  0  0  0  0  0  0  0
    2.0670    1.3637    3.8211 H   0  0  0  0  0  0  0  0  0  0  0  0
    3.1092    0.1745    2.8828 H   0  0  0  0  0  0  0  0  0  0  0  0
    1.0868    2.2437    1.8369 H   0  0  0  0  0  0  0  0  0  0  0  0
    2.7840    1.8895    1.2484 H   0  0  0  0  0  0  0  0  0  0  0  0
    0.8451    0.7808   -0.1103 H   0  0  0  0  0  0  0  0  0  0  0  0
    3.4319    0.8181   -0.7878 H   0  0  0  0  0  0  0  0  0  0  0  0
    4.5913   -1.9056   -0.1359 H   0  0  0  0  0  0  0  0  0  0  0  0
    3.7009   -1.5151   -2.4955 H   0  0  0  0  0  0  0  0  0  0  0  0
    5.4743   -1.9377   -2.3507 H   0  0  0  0  0  0  0  0  0  0  0  0
    4.3158    0.8803   -2.6290 H   0  0  0  0  0  0  0  0  0  0  0  0
    5.1062   -0.1376   -3.9353 H   0  0  0  0  0  0  0  0  0  0  0  0
    7.2245    1.2999   -0.7595 H   0  0  0  0  0  0  0  0  0  0  0  0
    5.4454    1.7325   -0.9489 H   0  0  0  0  0  0  0  0  0  0  0  0
    6.7012   -0.9276   -0.1670 H   0  0  0  0  0  0  0  0  0  0  0  0
    5.6568    0.1893    0.8468 H   0  0  0  0  0  0  0  0  0  0  0  0
    0.1247   -3.2394    0.6722 H   0  0  0  0  0  0  0  0  0  0  0  0
  1  2  1  0
  2  3  1  0
  3  4  1  0
  4  5  1  0
  5  6  1  0
  6  7  1  0
  7  8  1  0
  8  9  1  0
  9 10  1  0
 10 11  1  0
  4 12  1  0
 12 13  2  0
 12 14  1  0
 14 15  1  0
 15 16  1  0
 16 17  1  0
 17 18  1  0
 18 19  1  0
 19 20  2  0
 19 21  1  0
 21 22  1  0
 22 23  1  0
 23 24  1  0
 24 25  1  0
 25 26  1  0
 26 27  1  0
  2 28  1  0
 28 29  2  0
 11  6  1  0
 18 14  1  0
 27 22  1  0
  1 30  1  0
  3 31  1  0
  3 32  1  0
  4 33  1  6
  5 34  1  0
  5 35  1  0
  6 36  1  0
  7 37  1  0
  7 38  1  0
  8 39  1  0
  8 40  1  0
  9 41  1  0
  9 42  1  0
 10 43  1  0
 10 44  1  0
 11 45  1  0
 11 46  1  0
 15 47  1  0
 15 48  1  0
 16 49  1  0
 16 50  1  0
 17 51  1  0
 17 52  1  0
 18 53  1  6
 21 54  1  0
 22 55  1  0
 23 56  1  0
 23 57  1  0
 24 58  1  0
 24 59  1  0
 26 60  1  0
 26 61  1  0
 27 62  1  0
 27 63  1  0
 28 64  1  0
M  END
$$$$
[H]N(C(=O)[C@]1([H])OC(=O)[C@@]1([H])[C@@]([H])(C([H])([H])[H])C([H])([H])C([H])([H])[H])[C@]([H])(C(=O)N([H])[C@]([H])(C(=O)[C@]1(C([H])([H])[H])OC1([H])[H])C([H])(C([H])([H])[H])C([H])([H])[H])C([H])(C([H])([H])[H])C([H])([H])[H]
     RDKit          3D

 63 64  0  0  0  0  0  0  0  0999 V2000
    6.5222    0.9645   -1.0470 C   0  0  0  0  0  0  0  0  0  0  0  0
    6.8539   -0.4524   -0.6118 C   0  0  0  0  0  0  0  0  0  0  0  0
    5.7293   -1.4177   -0.8945 C   0  0  2  0  0  0  0  0  0  0  0  0
    5.4823   -1.4031   -2.3877 C   0  0  0  0  0  0  0  0  0  0  0  0
    4.5295   -0.9767   -0.0927 C   0  0  1  0  0  0  0  0  0  0  0  0
    3.3002   -1.8734   -0.2843 C   0  0  1  0  0  0  0  0  0  0  0  0
    4.0390   -2.8154    0.4710 O   0  0  0  0  0  0  0  0  0  0  0  0
    4.5119   -1.7137    1.1966 C   0  0  0  0  0  0  0  0  0  0  0  0
    4.8072   -1.4091    2.3757 O   0  0  0  0  0  0  0  0  0  0  0  0
    2.1655   -1.3503    0.5266 C   0  0  0  0  0  0  0  0  0  0  0  0
    1.9903   -1.7730    1.7062 O   0  0  0  0  0  0  0  0  0  0  0  0
    1.2577   -0.3919    0.0462 N   0  0  0  0  0  0  0  0  0  0  0  0
    0.1736    0.0714    0.8959 C   0  0  1  0  0  0  0  0  0  0  0  0
    0.3777    1.5655    1.1482 C   0  0  0  0  0  0  0  0  0  0  0  0
    0.3573    2.3599   -0.1222 C   0  0  0  0  0  0  0  0  0  0  0  0
   -0.4112    2.1209    2.2740 C   0  0  0  0  0  0  0  0  0  0  0  0
   -1.1413   -0.2219    0.2761 C   0  0  0  0  0  0  0  0  0  0  0  0
   -1.1381   -0.7353   -0.8881 O   0  0  0  0  0  0  0  0  0  0  0  0
   -2.3539    0.0404    0.9160 N   0  0  0  0  0  0  0  0  0  0  0  0
   -3.6762   -0.2431    0.3052 C   0  0  1  0  0  0  0  0  0  0  0  0
   -4.3835   -1.2487    1.1732 C   0  0  0  0  0  0  0  0  0  0  0  0
   -5.7345   -1.6570    0.6801 C   0  0  0  0  0  0  0  0  0  0  0  0
   -3.5455   -2.5148    1.2754 C   0  0  0  0  0  0  0  0  0  0  0  0
   -4.3604    1.0611    0.2632 C   0  0  0  0  0  0  0  0  0  0  0  0
   -4.2601    1.8131    1.2369 O   0  0  0  0  0  0  0  0  0  0  0  0
   -5.1547    1.5346   -0.8738 C   0  0  1  0  0  0  0  0  0  0  0  0
   -5.3909    3.0393   -1.0083 C   0  0  0  0  0  0  0  0  0  0  0  0
   -5.2522    0.7520   -2.0708 C   0  0  0  0  0  0  0  0  0  0  0  0
   -6.4174    0.8014   -1.1217 O   0  0  0  0  0  0  0  0  0  0  0  0
    6.1922    1.0122   -2.0983 H   0  0  0  0  0  0  0  0  0  0  0  0
    5.8049    1.4645   -0.3580 H   0  0  0  0  0  0  0  0  0  0  0  0
    7.4684    1.5468   -0.9793 H   0  0  0  0  0  0  0  0  0  0  0  0
    7.7594   -0.7513   -1.1964 H   0  0  0  0  0  0  0  0  0  0  0  0
    7.1471   -0.4085    0.4436 H   0  0  0  0  0  0  0  0  0  0  0  0
    6.0775   -2.4232   -0.6012 H   0  0  0  0  0  0  0  0  0  0  0  0
    4.8743   -2.2806   -2.6845 H   0  0  0  0  0  0  0  0  0  0  0  0
    4.9666   -0.4904   -2.7125 H   0  0  0  0  0  0  0  0  0  0  0  0
    6.4872   -1.4280   -2.8797 H   0  0  0  0  0  0  0  0  0  0  0  0
    4.3280    0.0907   -0.0667 H   0  0  0  0  0  0  0  0  0  0  0  0
    3.0851   -2.1485   -1.3139 H   0  0  0  0  0  0  0  0  0  0  0  0
    1.3475   -0.0113   -0.9019 H   0  0  0  0  0  0  0  0  0  0  0  0
    0.2215   -0.4854    1.8512 H   0  0  0  0  0  0  0  0  0  0  0  0
    1.4646    1.6153    1.4935 H   0  0  0  0  0  0  0  0  0  0  0  0
   -0.5677    2.2650   -0.7037 H   0  0  0  0  0  0  0  0  0  0  0  0
    0.5750    3.4181    0.1668 H   0  0  0  0  0  0  0  0  0  0  0  0
    1.2514    2.0400   -0.7246 H   0  0  0  0  0  0  0  0  0  0  0  0
   -1.3594    2.5935    1.9990 H   0  0  0  0  0  0  0  0  0  0  0  0
   -0.5041    1.3181    3.0528 H   0  0  0  0  0  0  0  0  0  0  0  0
    0.1634    2.9366    2.8117 H   0  0  0  0  0  0  0  0  0  0  0  0
   -2.3790    0.4427    1.8613 H   0  0  0  0  0  0  0  0  0  0  0  0
   -3.5575   -0.6333   -0.6939 H   0  0  0  0  0  0  0  0  0  0  0  0
   -4.4935   -0.7874    2.1989 H   0  0  0  0  0  0  0  0  0  0  0  0
   -6.0079   -2.6821    1.1185 H   0  0  0  0  0  0  0  0  0  0  0  0
   -5.7432   -1.8568   -0.4092 H   0  0  0  0  0  0  0  0  0  0  0  0
   -6.5532   -1.0173    1.0424 H   0  0  0  0  0  0  0  0  0  0  0  0
   -4.1435   -3.3676    1.6575 H   0  0  0  0  0  0  0  0  0  0  0  0
   -2.7005   -2.3489    1.9655 H   0  0  0  0  0  0  0  0  0  0  0  0
   -3.1933   -2.7939    0.2606 H   0  0  0  0  0  0  0  0  0  0  0  0
   -5.8088    3.4761   -0.0855 H   0  0  0  0  0  0  0  0  0  0  0  0
   -6.1329    3.2065   -1.8159 H   0  0  0  0  0  0  0  0  0  0  0  0
   -4.4836    3.5870   -1.2753 H   0  0  0  0  0  0  0  0  0  0  0  0
   -4.9466   -0.2980   -2.1559 H   0  0  0  0  0  0  0  0  0  0  0  0
   -5.5170    1.2724   -3.0270 H   0  0  0  0  0  0  0  0  0  0  0  0
  1  2  1  0
  2  3  1  0
  3  4  1  0
  3  5  1  0
  5  6  1  0
  6  7  1  0
  7  8  1  0
  8  9  2  0
  6 10  1  0
 10 11  2  0
 10 12  1  0
 12 13  1  0
 13 14  1  0
 14 15  1  0
 14 16  1  0
 13 17  1  0
 17 18  2  0
 17 19  1  0
 19 20  1  0
 20 21  1  0
 21 22  1  0
 21 23  1  0
 20 24  1  0
 24 25  2  0
 26 24  1  1
 26 27  1  0
 26 28  1  0
 28 29  1  0
  8  5  1  0
 29 26  1  0
  1 30  1  0
  1 31  1  0
  1 32  1  0
  2 33  1  0
  2 34  1  0
  3 35  1  1
  4 36  1  0
  4 37  1  0
  4 38  1  0
  5 39  1  1
  6 40  1  6
 12 41  1  0
 13 42  1  1
 14 43  1  0
 15 44  1  0
 15 45  1  0
 15 46  1  0
 16 47  1  0
 16 48  1  0
 16 49  1  0
 19 50  1  0
 20 51  1  6
 21 52  1  0
 22 53  1  0
 22 54  1  0
 22 55  1  0
 23 56  1  0
 23 57  1  0
 23 58  1  0
 27 59  1  0
 27 60  1  0
 27 61  1  0
 28 62  1  0
 28 63  1  0
M  END
$$$$
[H]O[C@]1([H])[C@@]([H])(C([H])([H])OP(=O)(O[H])O[H])OC([H])(n2c([H])c([H])c(=O)n([H])c2=S)[C@]1([H])O[H]
     RDKit          3D

 34 35  0  0  0  0  0  0  0  0999 V2000
    5.6107   -0.0282    0.0914 O   0  0  0  0  0  0  0  0  0  0  0  0
    4.4903    0.3959    1.2653 P   0  0  0  0  0  0  0  0  0  0  0  0
    5.0121    1.7281    2.1614 O   0  0  0  0  0  0  0  0  0  0  0  0
    4.3358   -0.7833    2.1997 O   0  0  0  0  0  0  0  0  0  0  0  0
    2.9484    0.6885    0.5819 O   0  0  0  0  0  0  0  0  0  0  0  0
    2.3287   -0.5246    0.4683 C   0  0  0  0  0  0  0  0  0  0  0  0
    0.9582   -0.4868   -0.1123 C   0  0  1  0  0  0  0  0  0  0  0  0
    0.0494    0.2599    0.5823 O   0  0  0  0  0  0  0  0  0  0  0  0
   -0.9644    0.6396   -0.2531 C   0  0  0  0  0  0  0  0  0  0  0  0
   -0.6289    0.1487   -1.6468 C   0  0  2  0  0  0  0  0  0  0  0  0
   -1.0509   -1.1643   -1.8464 O   0  0  0  0  0  0  0  0  0  0  0  0
    0.8970    0.0739   -1.5044 C   0  0  2  0  0  0  0  0  0  0  0  0
    1.4065   -0.7692   -2.4666 O   0  0  0  0  0  0  0  0  0  0  0  0
   -2.2696    0.2086    0.1576 N   0  0  0  0  0  0  0  0  0  0  0  0
   -3.2242    0.1119   -0.7831 C   0  0  0  0  0  0  0  0  0  0  0  0
   -4.5134   -0.2905   -0.5097 C   0  0  0  0  0  0  0  0  0  0  0  0
   -4.8381   -0.6109    0.8029 C   0  0  0  0  0  0  0  0  0  0  0  0
   -6.0005   -0.9785    1.0761 O   0  0  0  0  0  0  0  0  0  0  0  0
   -3.8559   -0.5015    1.7141 N   0  0  0  0  0  0  0  0  0  0  0  0
   -2.6027   -0.1063    1.4257 C   0  0  0  0  0  0  0  0  0  0  0  0
   -1.4416    0.0137    2.5562 S   0  0  0  0  0  0  0  0  0  0  0  0
    5.6148    0.5704   -0.6835 H   0  0  0  0  0  0  0  0  0  0  0  0
    4.7209    1.5984    3.0980 H   0  0  0  0  0  0  0  0  0  0  0  0
    2.9583   -1.1648   -0.1977 H   0  0  0  0  0  0  0  0  0  0  0  0
    2.2830   -1.0498    1.4364 H   0  0  0  0  0  0  0  0  0  0  0  0
    0.5790   -1.5344   -0.1541 H   0  0  0  0  0  0  0  0  0  0  0  0
   -1.0150    1.7646   -0.3379 H   0  0  0  0  0  0  0  0  0  0  0  0
   -0.9365    0.8275   -2.4377 H   0  0  0  0  0  0  0  0  0  0  0  0
   -1.4693   -1.2962   -2.7318 H   0  0  0  0  0  0  0  0  0  0  0  0
    1.3149    1.0969   -1.5444 H   0  0  0  0  0  0  0  0  0  0  0  0
    1.6706   -1.6075   -2.0408 H   0  0  0  0  0  0  0  0  0  0  0  0
   -2.9936    0.3557   -1.8076 H   0  0  0  0  0  0  0  0  0  0  0  0
   -5.2773   -0.3665   -1.2701 H   0  0  0  0  0  0  0  0  0  0  0  0
   -4.0968   -0.7433    2.7108 H   0  0  0  0  0  0  0  0  0  0  0  0
  1  2  1  0
  2  3  1  0
  2  4  2  0
  2  5  1  0
  5  6  1  0
  6  7  1  0
  7  8  1  0
  8  9  1  0
  9 10  1  0
 10 11  1  0
 10 12  1  0
 12 13  1  0
  9 14  1  0
 14 15  1  0
 15 16  2  0
 16 17  1  0
 17 18  2  0
 17 19  1  0
 19 20  1  0
 20 21  2  0
 12  7  1  0
 20 14  1  0
  1 22  1  0
  3 23  1  0
  6 24  1  0
  6 25  1  0
  7 26  1  6
  9 27  1  0
 10 28  1  6
 11 29  1  0
 12 30  1  1
 13 31  1  0
 15 32  1  0
 16 33  1  0
 19 34  1  0
M  END
$$$$
[H]c1c([H])c([H])c(N2C([H])([H])C([H])([H])N(C([H])([H])C([H])([H])n3c(=O)c4sc5c([H])c([H])c(F)c([H])c5c4n([H])c3=O)C([H])([H])C2([H])[H])c(OC([H])([H])[H])c1[H]
     RDKit          3D

 55 59  0  0  0  0  0  0  0  0999 V2000
   -6.5935    2.3288   -1.4838 C   0  0  0  0  0  0  0  0  0  0  0  0
   -5.7331    1.3917   -0.9351 O   0  0  0  0  0  0  0  0  0  0  0  0
   -5.9905    0.1366   -0.4884 C   0  0  0  0  0  0  0  0  0  0  0  0
   -7.2827   -0.3885   -0.5432 C   0  0  0  0  0  0  0  0  0  0  0  0
   -7.5745   -1.6610   -0.0955 C   0  0  0  0  0  0  0  0  0  0  0  0
   -6.5424   -2.4201    0.4184 C   0  0  0  0  0  0  0  0  0  0  0  0
   -5.2349   -1.9324    0.4910 C   0  0  0  0  0  0  0  0  0  0  0  0
   -4.9846   -0.6381    0.0258 C   0  0  0  0  0  0  0  0  0  0  0  0
   -3.6725   -0.1165    0.0782 N   0  0  0  0  0  0  0  0  0  0  0  0
   -2.9975    0.1894   -1.1626 C   0  0  0  0  0  0  0  0  0  0  0  0
   -1.5375    0.5331   -0.9341 C   0  0  0  0  0  0  0  0  0  0  0  0
   -0.9940   -0.4269   -0.0252 N   0  0  0  0  0  0  0  0  0  0  0  0
    0.4272   -0.5297   -0.0919 C   0  0  0  0  0  0  0  0  0  0  0  0
    1.1434    0.6922    0.4039 C   0  0  0  0  0  0  0  0  0  0  0  0
    2.5689    0.5045    0.2988 N   0  0  0  0  0  0  0  0  0  0  0  0
    3.2416    0.8566   -0.8175 C   0  0  0  0  0  0  0  0  0  0  0  0
    2.5247    1.3546   -1.7443 O   0  0  0  0  0  0  0  0  0  0  0  0
    4.5393    0.7191   -0.9921 N   0  0  0  0  0  0  0  0  0  0  0  0
    5.3561    0.1847   -0.0169 C   0  0  0  0  0  0  0  0  0  0  0  0
    6.6992   -0.0161   -0.0560 C   0  0  0  0  0  0  0  0  0  0  0  0
    7.6104    0.2664   -1.0979 C   0  0  0  0  0  0  0  0  0  0  0  0
    8.9284    0.0191   -1.0152 C   0  0  0  0  0  0  0  0  0  0  0  0
    9.7778    0.3090   -2.0505 F   0  0  0  0  0  0  0  0  0  0  0  0
    9.5071   -0.5336    0.0972 C   0  0  0  0  0  0  0  0  0  0  0  0
    8.6582   -0.8261    1.1392 C   0  0  0  0  0  0  0  0  0  0  0  0
    7.2763   -0.5667    1.0523 C   0  0  0  0  0  0  0  0  0  0  0  0
    5.9503   -0.7887    2.1086 S   0  0  0  0  0  0  0  0  0  0  0  0
    4.7061   -0.1809    1.1229 C   0  0  0  0  0  0  0  0  0  0  0  0
    3.3231   -0.0204    1.2747 C   0  0  0  0  0  0  0  0  0  0  0  0
    2.7950   -0.3776    2.3468 O   0  0  0  0  0  0  0  0  0  0  0  0
   -1.5518   -0.4061    1.2883 C   0  0  0  0  0  0  0  0  0  0  0  0
   -2.9586    0.1309    1.3129 C   0  0  0  0  0  0  0  0  0  0  0  0
   -6.6799    2.2928   -2.5880 H   0  0  0  0  0  0  0  0  0  0  0  0
   -6.2801    3.3367   -1.1226 H   0  0  0  0  0  0  0  0  0  0  0  0
   -7.6198    2.1786   -1.0877 H   0  0  0  0  0  0  0  0  0  0  0  0
   -8.0948    0.2021   -0.9444 H   0  0  0  0  0  0  0  0  0  0  0  0
   -8.5803   -2.0880   -0.1318 H   0  0  0  0  0  0  0  0  0  0  0  0
   -6.7220   -3.4194    0.7808 H   0  0  0  0  0  0  0  0  0  0  0  0
   -4.4240   -2.5264    0.8943 H   0  0  0  0  0  0  0  0  0  0  0  0
   -3.4585    1.0472   -1.6863 H   0  0  0  0  0  0  0  0  0  0  0  0
   -2.9971   -0.6761   -1.8619 H   0  0  0  0  0  0  0  0  0  0  0  0
   -1.0161    0.4223   -1.9013 H   0  0  0  0  0  0  0  0  0  0  0  0
   -1.4778    1.5874   -0.5634 H   0  0  0  0  0  0  0  0  0  0  0  0
    0.7569   -1.4684    0.3832 H   0  0  0  0  0  0  0  0  0  0  0  0
    0.6969   -0.6383   -1.1764 H   0  0  0  0  0  0  0  0  0  0  0  0
    0.8327    1.5386   -0.2613 H   0  0  0  0  0  0  0  0  0  0  0  0
    0.8489    0.9692    1.4418 H   0  0  0  0  0  0  0  0  0  0  0  0
    4.9259    1.0383   -1.9165 H   0  0  0  0  0  0  0  0  0  0  0  0
    7.2534    0.7120   -2.0374 H   0  0  0  0  0  0  0  0  0  0  0  0
   10.5416   -0.7525    0.2213 H   0  0  0  0  0  0  0  0  0  0  0  0
    8.9890   -1.2614    2.0658 H   0  0  0  0  0  0  0  0  0  0  0  0
   -0.9592    0.2035    1.9794 H   0  0  0  0  0  0  0  0  0  0  0  0
   -1.5412   -1.4532    1.7129 H   0  0  0  0  0  0  0  0  0  0  0  0
   -2.8849    1.2400    1.4273 H   0  0  0  0  0  0  0  0  0  0  0  0
   -3.4948   -0.2718    2.1962 H   0  0  0  0  0  0  0  0  0  0  0  0
  1  2  1  0
  2  3  1  0
  3  4  2  0
  4  5  1  0
  5  6  2  0
  6  7  1  0
  7  8  2  0
  8  9  1  0
  9 10  1  0
 10 11  1  0
 11 12  1  0
 12 13  1  0
 13 14  1  0
 14 15  1  0
 15 16  1  0
 16 17  2  0
 16 18  1  0
 18 19  1  0
 19 20  1  0
 20 21  2  0
 21 22  1  0
 22 23  1  0
 22 24  2  0
 24 25  1  0
 25 26  2  0
 26 27  1  0
 27 28  1  0
 28 29  1  0
 29 30  2  0
 12 31  1  0
 31 32  1  0
  8  3  1  0
 32  9  1  0
 29 15  1  0
 28 19  2  0
 26 20  1  0
  1 33  1  0
  1 34  1  0
  1 35  1  0
  4 36  1  0
  5 37  1  0
  6 38  1  0
  7 39  1  0
 10 40  1  0
 10 41  1  0
 11 42  1  0
 11 43  1  0
 13 44  1  0
 13 45  1  0
 14 46  1  0
 14 47  1  0
 18 48  1  0
 21 49  1  0
 24 50  1  0
 25 51  1  0
 31 52  1  0
 31 53  1  0
 32 54  1  0
 32 55  1  0
M  END
$$$$
[H]c1nc(N2C([H])([H])[C@@]3([H])N(C([H])([H])[H])C([H])([H])[C@]2([H])C3([H])[H])c([H])nc1-c1c([H])c([H])c2c(c1[H])c([H])c([H])n2[H]
     RDKit          3D

 42 46  0  0  0  0  0  0  0  0999 V2000
    6.3626    1.1281    0.5791 C   0  0  0  0  0  0  0  0  0  0  0  0
    5.0203    0.9351    0.1210 N   0  0  0  0  0  0  0  0  0  0  0  0
    4.0336    1.1028    1.1951 C   0  0  0  0  0  0  0  0  0  0  0  0
    3.2533   -0.1956    1.2125 C   0  0  2  0  0  0  0  0  0  0  0  0
    4.3973   -1.1557    0.8291 C   0  0  0  0  0  0  0  0  0  0  0  0
    4.7667   -0.3632   -0.4398 C   0  0  1  0  0  0  0  0  0  0  0  0
    3.4044   -0.3187   -1.0966 C   0  0  0  0  0  0  0  0  0  0  0  0
    2.4743   -0.2392    0.0158 N   0  0  0  0  0  0  0  0  0  0  0  0
    1.0586   -0.2132   -0.1274 C   0  0  0  0  0  0  0  0  0  0  0  0
    0.2123   -0.1370    0.9624 C   0  0  0  0  0  0  0  0  0  0  0  0
   -1.1213   -0.1139    0.7998 N   0  0  0  0  0  0  0  0  0  0  0  0
   -1.7000   -0.1634   -0.4224 C   0  0  0  0  0  0  0  0  0  0  0  0
   -0.8713   -0.2388   -1.5020 C   0  0  0  0  0  0  0  0  0  0  0  0
    0.4857   -0.2624   -1.3409 N   0  0  0  0  0  0  0  0  0  0  0  0
   -3.1493   -0.1361   -0.5540 C   0  0  0  0  0  0  0  0  0  0  0  0
   -3.8115   -0.1814   -1.7336 C   0  0  0  0  0  0  0  0  0  0  0  0
   -5.2037   -0.1548   -1.8544 C   0  0  0  0  0  0  0  0  0  0  0  0
   -5.9316   -0.0776   -0.6905 C   0  0  0  0  0  0  0  0  0  0  0  0
   -7.2640   -0.0360   -0.4927 N   0  0  0  0  0  0  0  0  0  0  0  0
   -7.5098    0.0380    0.8272 C   0  0  0  0  0  0  0  0  0  0  0  0
   -6.3152    0.0455    1.5178 C   0  0  0  0  0  0  0  0  0  0  0  0
   -5.3156   -0.0285    0.5408 C   0  0  0  0  0  0  0  0  0  0  0  0
   -3.9401   -0.0578    0.6012 C   0  0  0  0  0  0  0  0  0  0  0  0
    6.4494    1.8370    1.4207 H   0  0  0  0  0  0  0  0  0  0  0  0
    6.9790    1.4530   -0.3082 H   0  0  0  0  0  0  0  0  0  0  0  0
    6.7948    0.1351    0.8785 H   0  0  0  0  0  0  0  0  0  0  0  0
    4.5503    1.2662    2.1652 H   0  0  0  0  0  0  0  0  0  0  0  0
    3.3433    1.9361    0.9629 H   0  0  0  0  0  0  0  0  0  0  0  0
    2.7737   -0.4415    2.1328 H   0  0  0  0  0  0  0  0  0  0  0  0
    5.2130   -1.1243    1.5510 H   0  0  0  0  0  0  0  0  0  0  0  0
    4.0147   -2.1421    0.5751 H   0  0  0  0  0  0  0  0  0  0  0  0
    5.5520   -0.8052   -1.0101 H   0  0  0  0  0  0  0  0  0  0  0  0
    3.2241   -1.2102   -1.7310 H   0  0  0  0  0  0  0  0  0  0  0  0
    3.3419    0.6312   -1.6659 H   0  0  0  0  0  0  0  0  0  0  0  0
    0.6600   -0.0966    1.9477 H   0  0  0  0  0  0  0  0  0  0  0  0
   -1.2662   -0.2814   -2.5073 H   0  0  0  0  0  0  0  0  0  0  0  0
   -3.2588   -0.2427   -2.6701 H   0  0  0  0  0  0  0  0  0  0  0  0
   -5.6939   -0.1929   -2.8157 H   0  0  0  0  0  0  0  0  0  0  0  0
   -7.9694   -0.0595   -1.2696 H   0  0  0  0  0  0  0  0  0  0  0  0
   -8.4845    0.0864    1.3220 H   0  0  0  0  0  0  0  0  0  0  0  0
   -6.1279    0.0959    2.5809 H   0  0  0  0  0  0  0  0  0  0  0  0
   -3.4312   -0.0207    1.5516 H   0  0  0  0  0  0  0  0  0  0  0  0
  1  2  1  0
  2  3  1  0
  3  4  1  0
  4  5  1  0
  5  6  1  0
  6  7  1  0
  7  8  1  0
  8  9  1  0
  9 10  2  0
 10 11  1  0
 11 12  2  0
 12 13  1  0
 13 14  2  0
 12 15  1  0
 15 16  2  0
 16 17  1  0
 17 18  2  0
 18 19  1  0
 19 20  1  0
 20 21  2  0
 21 22  1  0
 22 23  2  0
  6  2  1  0
 14  9  1  0
 23 15  1  0
  8  4  1  0
 22 18  1  0
  1 24  1  0
  1 25  1  0
  1 26  1  0
  3 27  1  0
  3 28  1  0
  4 29  1  1
  5 30  1  0
  5 31  1  0
  6 32  1  6
  7 33  1  0
  7 34  1  0
 10 35  1  0
 13 36  1  0
 16 37  1  0
 17 38  1  0
 19 39  1  0
 20 40  1  0
 21 41  1  0
 23 42  1  0
M  END
$$$$
[H]c1c([H])c([H])c2c([H])c(C([H])([H])[C@@]3([H])C(=O)N([H])[C@@]([H])(C([H])([H])c4c([H])n([H])c5c([H])c([H])c([H])c([H])c45)C(=O)N([H])[C@]([H])(C([H])([H])c4c([H])n([H])c5c([H])c([H])c([H])c([H])c45)C(=O)N([H])[C@@]([H])(C([H])([H])C([H])([H])C([H])([H])C([H])([H])N([H])[H])C(=O)N([H])[C@@]([H])(C([H])(C([H])([H])[H])C([H])([H])[H])C(=O)N3[H])c([H])c([H])c2c1[H]
     RDKit          3D

111117  0  0  0  0  0  0  0  0999 V2000
    1.3978   -0.5806    3.7255 C   0  0  0  0  0  0  0  0  0  0  0  0
    0.6850   -1.5682    2.8122 C   0  0  0  0  0  0  0  0  0  0  0  0
    1.0067   -2.9732    3.2271 C   0  0  0  0  0  0  0  0  0  0  0  0
    1.1056   -1.2433    1.3721 C   0  0  2  0  0  0  0  0  0  0  0  0
    0.4855   -2.1188    0.4045 N   0  0  0  0  0  0  0  0  0  0  0  0
   -0.6401   -1.8400   -0.3970 C   0  0  0  0  0  0  0  0  0  0  0  0
   -0.5256   -2.0676   -1.6388 O   0  0  0  0  0  0  0  0  0  0  0  0
   -1.8774   -1.3262    0.1262 C   0  0  2  0  0  0  0  0  0  0  0  0
   -2.7874   -2.5752    0.3343 C   0  0  0  0  0  0  0  0  0  0  0  0
   -2.2201   -3.5753    1.2481 C   0  0  0  0  0  0  0  0  0  0  0  0
   -3.2245   -4.7249    1.3417 C   0  0  0  0  0  0  0  0  0  0  0  0
   -2.5687   -5.7434    2.2706 C   0  0  0  0  0  0  0  0  0  0  0  0
   -1.3098   -6.1817    1.6829 N   0  0  0  0  0  0  0  0  0  0  0  0
   -2.6291   -0.3732   -0.6576 N   0  0  0  0  0  0  0  0  0  0  0  0
   -2.5770    0.1343   -1.9389 C   0  0  0  0  0  0  0  0  0  0  0  0
   -3.3662   -0.4957   -2.7812 O   0  0  0  0  0  0  0  0  0  0  0  0
   -1.8560    1.2164   -2.6101 C   0  0  1  0  0  0  0  0  0  0  0  0
   -2.5944    2.5131   -2.5560 C   0  0  0  0  0  0  0  0  0  0  0  0
   -3.9383    2.5476   -3.1599 C   0  0  0  0  0  0  0  0  0  0  0  0
   -4.2093    2.8615   -4.4864 C   0  0  0  0  0  0  0  0  0  0  0  0
   -5.5126    2.7438   -4.6746 N   0  0  0  0  0  0  0  0  0  0  0  0
   -6.1455    2.3702   -3.5578 C   0  0  0  0  0  0  0  0  0  0  0  0
   -7.4909    2.1433   -3.2813 C   0  0  0  0  0  0  0  0  0  0  0  0
   -7.8782    1.7801   -2.0056 C   0  0  0  0  0  0  0  0  0  0  0  0
   -6.9002    1.6542   -1.0377 C   0  0  0  0  0  0  0  0  0  0  0  0
   -5.5788    1.8843   -1.3427 C   0  0  0  0  0  0  0  0  0  0  0  0
   -5.1612    2.2464   -2.6058 C   0  0  0  0  0  0  0  0  0  0  0  0
   -0.4454    1.3226   -2.3751 N   0  0  0  0  0  0  0  0  0  0  0  0
    0.3594    2.2411   -1.7120 C   0  0  0  0  0  0  0  0  0  0  0  0
    1.1542    3.0162   -2.3933 O   0  0  0  0  0  0  0  0  0  0  0  0
    0.5174    2.5464   -0.2558 C   0  0  2  0  0  0  0  0  0  0  0  0
   -0.0594    3.9605    0.0192 C   0  0  0  0  0  0  0  0  0  0  0  0
    0.0447    4.3871    1.4070 C   0  0  0  0  0  0  0  0  0  0  0  0
    0.9425    5.2765    1.9518 C   0  0  0  0  0  0  0  0  0  0  0  0
    0.6784    5.3849    3.2615 N   0  0  0  0  0  0  0  0  0  0  0  0
   -0.3572    4.6007    3.5990 C   0  0  0  0  0  0  0  0  0  0  0  0
   -1.0275    4.3396    4.7801 C   0  0  0  0  0  0  0  0  0  0  0  0
   -2.0983    3.4651    4.8583 C   0  0  0  0  0  0  0  0  0  0  0  0
   -2.5054    2.8324    3.7015 C   0  0  0  0  0  0  0  0  0  0  0  0
   -1.8399    3.0930    2.5343 C   0  0  0  0  0  0  0  0  0  0  0  0
   -0.7643    3.9677    2.4388 C   0  0  0  0  0  0  0  0  0  0  0  0
    1.9199    2.6081    0.1062 N   0  0  0  0  0  0  0  0  0  0  0  0
    2.8368    1.7881    0.7015 C   0  0  0  0  0  0  0  0  0  0  0  0
    3.1075    2.0510    1.9563 O   0  0  0  0  0  0  0  0  0  0  0  0
    3.6453    0.6242    0.2556 C   0  0  2  0  0  0  0  0  0  0  0  0
    3.5435    0.2709   -1.1917 C   0  0  0  0  0  0  0  0  0  0  0  0
    4.4116   -0.8490   -1.6193 C   0  0  0  0  0  0  0  0  0  0  0  0
    4.0277   -2.1537   -1.7388 C   0  0  0  0  0  0  0  0  0  0  0  0
    4.9253   -3.1530   -2.1346 C   0  0  0  0  0  0  0  0  0  0  0  0
    6.2441   -2.8506   -2.4209 C   0  0  0  0  0  0  0  0  0  0  0  0
    7.1761   -3.7863   -2.8155 C   0  0  0  0  0  0  0  0  0  0  0  0
    8.4742   -3.4254   -3.0878 C   0  0  0  0  0  0  0  0  0  0  0  0
    8.8931   -2.1134   -2.9762 C   0  0  0  0  0  0  0  0  0  0  0  0
    7.9549   -1.1849   -2.5810 C   0  0  0  0  0  0  0  0  0  0  0  0
    6.6403   -1.5419   -2.3040 C   0  0  0  0  0  0  0  0  0  0  0  0
    5.7508   -0.5850   -1.9175 C   0  0  0  0  0  0  0  0  0  0  0  0
    3.5822   -0.4709    1.1877 N   0  0  0  0  0  0  0  0  0  0  0  0
    2.5871   -1.4310    1.3852 C   0  0  0  0  0  0  0  0  0  0  0  0
    2.9457   -2.6449    1.6119 O   0  0  0  0  0  0  0  0  0  0  0  0
    1.0152    0.4273    3.5612 H   0  0  0  0  0  0  0  0  0  0  0  0
    1.0917   -0.8657    4.7764 H   0  0  0  0  0  0  0  0  0  0  0  0
    2.4835   -0.6934    3.6970 H   0  0  0  0  0  0  0  0  0  0  0  0
   -0.3843   -1.4117    2.9962 H   0  0  0  0  0  0  0  0  0  0  0  0
    1.9607   -3.0817    3.7834 H   0  0  0  0  0  0  0  0  0  0  0  0
    0.2341   -3.3342    3.9812 H   0  0  0  0  0  0  0  0  0  0  0  0
    0.8879   -3.6868    2.3866 H   0  0  0  0  0  0  0  0  0  0  0  0
    0.8235   -0.1745    1.2335 H   0  0  0  0  0  0  0  0  0  0  0  0
    0.9880   -3.0701    0.3285 H   0  0  0  0  0  0  0  0  0  0  0  0
   -1.7401   -0.9285    1.1529 H   0  0  0  0  0  0  0  0  0  0  0  0
   -2.9228   -3.0107   -0.6763 H   0  0  0  0  0  0  0  0  0  0  0  0
   -3.7712   -2.2413    0.7047 H   0  0  0  0  0  0  0  0  0  0  0  0
   -2.0197   -3.1939    2.2678 H   0  0  0  0  0  0  0  0  0  0  0  0
   -1.2775   -4.0425    0.9047 H   0  0  0  0  0  0  0  0  0  0  0  0
   -4.2055   -4.4057    1.7026 H   0  0  0  0  0  0  0  0  0  0  0  0
   -3.3407   -5.2404    0.3541 H   0  0  0  0  0  0  0  0  0  0  0  0
   -2.3285   -5.2085    3.2155 H   0  0  0  0  0  0  0  0  0  0  0  0
   -3.2382   -6.6054    2.4160 H   0  0  0  0  0  0  0  0  0  0  0  0
   -1.3198   -6.0563    0.6416 H   0  0  0  0  0  0  0  0  0  0  0  0
   -0.4974   -5.6940    2.1274 H   0  0  0  0  0  0  0  0  0  0  0  0
   -3.4493   -0.0249   -0.0286 H   0  0  0  0  0  0  0  0  0  0  0  0
   -1.9408    0.9705   -3.7525 H   0  0  0  0  0  0  0  0  0  0  0  0
   -2.7578    2.8015   -1.4747 H   0  0  0  0  0  0  0  0  0  0  0  0
   -2.0453    3.3609   -2.9959 H   0  0  0  0  0  0  0  0  0  0  0  0
   -3.4286    3.1436   -5.1806 H   0  0  0  0  0  0  0  0  0  0  0  0
   -5.9923    2.9204   -5.5837 H   0  0  0  0  0  0  0  0  0  0  0  0
   -8.2625    2.2442   -4.0503 H   0  0  0  0  0  0  0  0  0  0  0  0
   -8.9201    1.6013   -1.7795 H   0  0  0  0  0  0  0  0  0  0  0  0
   -7.2267    1.3676   -0.0348 H   0  0  0  0  0  0  0  0  0  0  0  0
   -4.8506    1.7881   -0.5727 H   0  0  0  0  0  0  0  0  0  0  0  0
    0.1032    0.5131   -2.8308 H   0  0  0  0  0  0  0  0  0  0  0  0
   -0.1129    1.8956    0.3717 H   0  0  0  0  0  0  0  0  0  0  0  0
    0.5603    4.6309   -0.6487 H   0  0  0  0  0  0  0  0  0  0  0  0
   -1.0844    4.0716   -0.3771 H   0  0  0  0  0  0  0  0  0  0  0  0
    1.7345    5.8193    1.4662 H   0  0  0  0  0  0  0  0  0  0  0  0
    1.1753    5.9826    3.9694 H   0  0  0  0  0  0  0  0  0  0  0  0
   -0.6962    4.8439    5.6688 H   0  0  0  0  0  0  0  0  0  0  0  0
   -2.5736    3.3150    5.8218 H   0  0  0  0  0  0  0  0  0  0  0  0
   -3.3393    2.1455    3.7419 H   0  0  0  0  0  0  0  0  0  0  0  0
   -2.1296    2.6142    1.5985 H   0  0  0  0  0  0  0  0  0  0  0  0
    2.3230    3.5948   -0.1810 H   0  0  0  0  0  0  0  0  0  0  0  0
    4.7347    1.0337    0.2809 H   0  0  0  0  0  0  0  0  0  0  0  0
    3.8665    1.1668   -1.7737 H   0  0  0  0  0  0  0  0  0  0  0  0
    2.4873    0.0892   -1.5130 H   0  0  0  0  0  0  0  0  0  0  0  0
    3.0020   -2.4182   -1.5295 H   0  0  0  0  0  0  0  0  0  0  0  0
    4.6271   -4.1834   -2.2289 H   0  0  0  0  0  0  0  0  0  0  0  0
    6.8888   -4.8090   -2.9120 H   0  0  0  0  0  0  0  0  0  0  0  0
    9.2347   -4.1450   -3.4037 H   0  0  0  0  0  0  0  0  0  0  0  0
    9.9164   -1.8440   -3.1935 H   0  0  0  0  0  0  0  0  0  0  0  0
    8.2417   -0.1584   -2.4825 H   0  0  0  0  0  0  0  0  0  0  0  0
    6.0753    0.4472   -1.8294 H   0  0  0  0  0  0  0  0  0  0  0  0
    4.4459   -0.5542    1.8366 H   0  0  0  0  0  0  0  0  0  0  0  0
  1  2  1  0
  2  3  1  0
  2  4  1  0
  4  5  1  0
  5  6  1  0
  6  7  2  0
  6  8  1  0
  8  9  1  0
  9 10  1  0
 10 11  1  0
 11 12  1  0
 12 13  1  0
  8 14  1  0
 14 15  1  0
 15 16  2  0
 15 17  1  0
 17 18  1  0
 18 19  1  0
 19 20  2  0
 20 21  1  0
 21 22  1  0
 22 23  2  0
 23 24  1  0
 24 25  2  0
 25 26  1  0
 26 27  2  0
 17 28  1  0
 28 29  1  0
 29 30  2  0
 29 31  1  0
 31 32  1  0
 32 33  1  0
 33 34  2  0
 34 35  1  0
 35 36  1  0
 36 37  2  0
 37 38  1  0
 38 39  2  0
 39 40  1  0
 40 41  2  0
 31 42  1  0
 42 43  1  0
 43 44  2  0
 43 45  1  0
 45 46  1  0
 46 47  1  0
 47 48  2  0
 48 49  1  0
 49 50  2  0
 50 51  1  0
 51 52  2  0
 52 53  1  0
 53 54  2  0
 54 55  1  0
 55 56  2  0
 45 57  1  0
 57 58  1  0
 58 59  2  0
 58  4  1  0
 27 19  1  0
 41 33  1  0
 56 47  1  0
 27 22  1  0
 41 36  1  0
 55 50  1  0
  1 60  1  0
  1 61  1  0
  1 62  1  0
  2 63  1  0
  3 64  1  0
  3 65  1  0
  3 66  1  0
  4 67  1  6
  5 68  1  0
  8 69  1  1
  9 70  1  0
  9 71  1  0
 10 72  1  0
 10 73  1  0
 11 74  1  0
 11 75  1  0
 12 76  1  0
 12 77  1  0
 13 78  1  0
 13 79  1  0
 14 80  1  0
 17 81  1  6
 18 82  1  0
 18 83  1  0
 20 84  1  0
 21 85  1  0
 23 86  1  0
 24 87  1  0
 25 88  1  0
 26 89  1  0
 28 90  1  0
 31 91  1  1
 32 92  1  0
 32 93  1  0
 34 94  1  0
 35 95  1  0
 37 96  1  0
 38 97  1  0
 39 98  1  0
 40 99  1  0
 42100  1  0
 45101  1  6
 46102  1  0
 46103  1  0
 48104  1  0
 49105  1  0
 51106  1  0
 52107  1  0
 53108  1  0
 54109  1  0
 56110  1  0
 57111  1  0
M  END
$$$$
[H]c1c(N2C([H])([H])C([H])([H])N(C([H])([H])[H])C([H])([H])C2([H])[H])c([H])c2c(nc(-c3c(N([H])[H])c4c(F)c([H])c([H])c([H])c4n([H])c3=O)n2[H])c1[H]
     RDKit          3D

 50 54  0  0  0  0  0  0  0  0999 V2000
   -7.5542    1.1250   -0.4011 C   0  0  0  0  0  0  0  0  0  0  0  0
   -6.7242   -0.0513   -0.2669 N   0  0  0  0  0  0  0  0  0  0  0  0
   -6.0477   -0.3472   -1.4926 C   0  0  0  0  0  0  0  0  0  0  0  0
   -4.7812   -1.1740   -1.2919 C   0  0  0  0  0  0  0  0  0  0  0  0
   -3.8987   -0.4052   -0.4548 N   0  0  0  0  0  0  0  0  0  0  0  0
   -4.5079    0.5628    0.4318 C   0  0  0  0  0  0  0  0  0  0  0  0
   -5.8592    0.0371    0.8700 C   0  0  0  0  0  0  0  0  0  0  0  0
   -2.4961   -0.6156   -0.5175 C   0  0  0  0  0  0  0  0  0  0  0  0
   -1.9852   -1.6372   -1.2888 C   0  0  0  0  0  0  0  0  0  0  0  0
   -0.6096   -1.8531   -1.3639 C   0  0  0  0  0  0  0  0  0  0  0  0
    0.2879   -1.0622   -0.6769 C   0  0  0  0  0  0  0  0  0  0  0  0
    1.6243   -1.0284   -0.5574 N   0  0  0  0  0  0  0  0  0  0  0  0
    1.9819   -0.0013    0.2787 C   0  0  0  0  0  0  0  0  0  0  0  0
    0.8585    0.5809    0.6605 N   0  0  0  0  0  0  0  0  0  0  0  0
   -0.2177   -0.0409    0.0947 C   0  0  0  0  0  0  0  0  0  0  0  0
   -1.5796    0.1642    0.1620 C   0  0  0  0  0  0  0  0  0  0  0  0
    3.3521    0.3314    0.6366 C   0  0  0  0  0  0  0  0  0  0  0  0
    4.4028   -0.4233    0.1135 C   0  0  0  0  0  0  0  0  0  0  0  0
    4.0915   -1.4981   -0.7568 N   0  0  0  0  0  0  0  0  0  0  0  0
    5.7279   -0.1909    0.3891 C   0  0  0  0  0  0  0  0  0  0  0  0
    6.7501   -0.9547   -0.1431 C   0  0  0  0  0  0  0  0  0  0  0  0
    6.4362   -1.9781   -0.9731 F   0  0  0  0  0  0  0  0  0  0  0  0
    8.0761   -0.7077    0.1440 C   0  0  0  0  0  0  0  0  0  0  0  0
    8.3653    0.3409    0.9920 C   0  0  0  0  0  0  0  0  0  0  0  0
    7.3431    1.1047    1.5243 C   0  0  0  0  0  0  0  0  0  0  0  0
    6.0177    0.8672    1.2447 C   0  0  0  0  0  0  0  0  0  0  0  0
    5.0206    1.6057    1.7587 N   0  0  0  0  0  0  0  0  0  0  0  0
    3.7172    1.3537    1.4693 C   0  0  0  0  0  0  0  0  0  0  0  0
    2.8682    2.0960    1.9965 O   0  0  0  0  0  0  0  0  0  0  0  0
   -7.8545    1.1935   -1.4715 H   0  0  0  0  0  0  0  0  0  0  0  0
   -7.0355    2.0591   -0.1227 H   0  0  0  0  0  0  0  0  0  0  0  0
   -8.4766    1.0461    0.2395 H   0  0  0  0  0  0  0  0  0  0  0  0
   -5.7342    0.6158   -1.9542 H   0  0  0  0  0  0  0  0  0  0  0  0
   -6.7133   -0.9227   -2.1549 H   0  0  0  0  0  0  0  0  0  0  0  0
   -4.3701   -1.3425   -2.3097 H   0  0  0  0  0  0  0  0  0  0  0  0
   -5.0409   -2.1137   -0.7744 H   0  0  0  0  0  0  0  0  0  0  0  0
   -3.8793    0.6548    1.3662 H   0  0  0  0  0  0  0  0  0  0  0  0
   -4.5594    1.5560   -0.0194 H   0  0  0  0  0  0  0  0  0  0  0  0
   -6.2616    0.7622    1.6129 H   0  0  0  0  0  0  0  0  0  0  0  0
   -5.6675   -0.9630    1.3290 H   0  0  0  0  0  0  0  0  0  0  0  0
   -2.6487   -2.2964   -1.8533 H   0  0  0  0  0  0  0  0  0  0  0  0
   -0.2378   -2.6569   -1.9729 H   0  0  0  0  0  0  0  0  0  0  0  0
    0.7361    1.3862    1.2881 H   0  0  0  0  0  0  0  0  0  0  0  0
   -1.9771    0.9716    0.7699 H   0  0  0  0  0  0  0  0  0  0  0  0
    3.9955   -1.4248   -1.7836 H   0  0  0  0  0  0  0  0  0  0  0  0
    3.9483   -2.4373   -0.3228 H   0  0  0  0  0  0  0  0  0  0  0  0
    8.8894   -1.3071   -0.2729 H   0  0  0  0  0  0  0  0  0  0  0  0
    9.4092    0.5505    1.2300 H   0  0  0  0  0  0  0  0  0  0  0  0
    7.5504    1.9413    2.1993 H   0  0  0  0  0  0  0  0  0  0  0  0
    5.2674    2.3910    2.3960 H   0  0  0  0  0  0  0  0  0  0  0  0
  1  2  1  0
  2  3  1  0
  3  4  1  0
  4  5  1  0
  5  6  1  0
  6  7  1  0
  5  8  1  0
  8  9  2  0
  9 10  1  0
 10 11  2  0
 11 12  1  0
 12 13  2  0
 13 14  1  0
 14 15  1  0
 15 16  2  0
 13 17  1  0
 17 18  2  0
 18 19  1  0
 18 20  1  0
 20 21  2  0
 21 22  1  0
 21 23  1  0
 23 24  2  0
 24 25  1  0
 25 26  2  0
 26 27  1  0
 27 28  1  0
 28 29  2  0
  7  2  1  0
 16  8  1  0
 28 17  1  0
 15 11  1  0
 26 20  1  0
  1 30  1  0
  1 31  1  0
  1 32  1  0
  3 33  1  0
  3 34  1  0
  4 35  1  0
  4 36  1  0
  6 37  1  0
  6 38  1  0
  7 39  1  0
  7 40  1  0
  9 41  1  0
 10 42  1  0
 14 43  1  0
 16 44  1  0
 19 45  1  0
 19 46  1  0
 23 47  1  0
 24 48  1  0
 25 49  1  0
 27 50  1  0
M  END
$$$$
[H]c1nc(N([H])c2c([H])c([H])c(N3C([H])([H])C([H])([H])C([H])(N4C([H])([H])C([H])([H])N(C([H])([H])[H])C([H])([H])C4([H])[H])C([H])([H])C3([H])[H])c([H])c2OC([H])([H])[H])nc(N([H])c2c([H])c([H])c([H])c([H])c2S(=O)(=O)C([H])(C([H])([H])[H])C([H])([H])[H])c1Cl
     RDKit          3D

 82 86  0  0  0  0  0  0  0  0999 V2000
   -0.1870    3.7228   -1.2569 C   0  0  0  0  0  0  0  0  0  0  0  0
    0.4390    2.5297   -0.8437 O   0  0  0  0  0  0  0  0  0  0  0  0
   -0.3483    1.4775   -0.4024 C   0  0  0  0  0  0  0  0  0  0  0  0
   -1.7220    1.6350   -0.3827 C   0  0  0  0  0  0  0  0  0  0  0  0
   -2.5624    0.6308    0.0436 C   0  0  0  0  0  0  0  0  0  0  0  0
   -1.9599   -0.5357    0.4478 C   0  0  0  0  0  0  0  0  0  0  0  0
   -0.5748   -0.7280    0.4408 C   0  0  0  0  0  0  0  0  0  0  0  0
    0.2576    0.2764    0.0150 C   0  0  0  0  0  0  0  0  0  0  0  0
    1.6540    0.2011   -0.0367 N   0  0  0  0  0  0  0  0  0  0  0  0
    2.4984   -0.8842    0.3177 C   0  0  0  0  0  0  0  0  0  0  0  0
    2.1033   -2.0726    0.7812 N   0  0  0  0  0  0  0  0  0  0  0  0
    2.9559   -3.0558    1.0957 C   0  0  0  0  0  0  0  0  0  0  0  0
    4.3092   -2.8632    0.9451 C   0  0  0  0  0  0  0  0  0  0  0  0
    5.4455   -4.1449    1.3534 Cl  0  0  0  0  0  0  0  0  0  0  0  0
    4.7527   -1.6166    0.4572 C   0  0  0  0  0  0  0  0  0  0  0  0
    6.1380   -1.4466    0.3110 N   0  0  0  0  0  0  0  0  0  0  0  0
    6.9009   -0.3576   -0.1368 C   0  0  0  0  0  0  0  0  0  0  0  0
    6.2766    0.8084   -0.5266 C   0  0  0  0  0  0  0  0  0  0  0  0
    7.0240    1.9039   -0.9778 C   0  0  0  0  0  0  0  0  0  0  0  0
    8.3820    1.8034   -1.0274 C   0  0  0  0  0  0  0  0  0  0  0  0
    9.0024    0.6381   -0.6374 C   0  0  0  0  0  0  0  0  0  0  0  0
    8.2961   -0.4485   -0.1920 C   0  0  0  0  0  0  0  0  0  0  0  0
    9.0842   -1.8926    0.2913 S   0  0  0  0  0  0  0  0  0  0  0  0
    8.6633   -3.0312   -0.6035 O   0  0  0  0  0  0  0  0  0  0  0  0
    8.8235   -2.3045    1.7132 O   0  0  0  0  0  0  0  0  0  0  0  0
   10.8572   -1.7881    0.1370 C   0  0  0  0  0  0  0  0  0  0  0  0
   11.2609   -1.6791   -1.2975 C   0  0  0  0  0  0  0  0  0  0  0  0
   11.4760   -0.7869    1.0544 C   0  0  0  0  0  0  0  0  0  0  0  0
    3.8248   -0.7008    0.1721 N   0  0  0  0  0  0  0  0  0  0  0  0
   -3.9818    0.8060    0.0512 N   0  0  0  0  0  0  0  0  0  0  0  0
   -4.5241    1.9609   -0.5784 C   0  0  0  0  0  0  0  0  0  0  0  0
   -6.0011    1.9283   -0.8544 C   0  0  0  0  0  0  0  0  0  0  0  0
   -6.8245    1.3726    0.2584 C   0  0  0  0  0  0  0  0  0  0  0  0
   -6.0036    0.6088    1.2781 C   0  0  0  0  0  0  0  0  0  0  0  0
   -4.8657   -0.1463    0.6796 C   0  0  0  0  0  0  0  0  0  0  0  0
   -7.9560    0.6086   -0.0875 N   0  0  0  0  0  0  0  0  0  0  0  0
   -7.7905   -0.5856   -0.8057 C   0  0  0  0  0  0  0  0  0  0  0  0
   -9.1362   -1.0235   -1.3907 C   0  0  0  0  0  0  0  0  0  0  0  0
  -10.1390   -0.8718   -0.3544 N   0  0  0  0  0  0  0  0  0  0  0  0
  -10.0361   -1.8235    0.7053 C   0  0  0  0  0  0  0  0  0  0  0  0
  -10.3349    0.4834    0.0484 C   0  0  0  0  0  0  0  0  0  0  0  0
   -9.1475    1.3193   -0.4248 C   0  0  0  0  0  0  0  0  0  0  0  0
    0.5375    4.4499   -1.6799 H   0  0  0  0  0  0  0  0  0  0  0  0
   -0.9481    3.5330   -2.0530 H   0  0  0  0  0  0  0  0  0  0  0  0
   -0.6880    4.2523   -0.4156 H   0  0  0  0  0  0  0  0  0  0  0  0
   -2.1476    2.5764   -0.7105 H   0  0  0  0  0  0  0  0  0  0  0  0
   -2.6020   -1.3517    0.7883 H   0  0  0  0  0  0  0  0  0  0  0  0
   -0.2121   -1.6859    0.7807 H   0  0  0  0  0  0  0  0  0  0  0  0
    2.1500    1.0935   -0.3956 H   0  0  0  0  0  0  0  0  0  0  0  0
    2.6174   -4.0222    1.4737 H   0  0  0  0  0  0  0  0  0  0  0  0
    6.7215   -2.3022    0.5911 H   0  0  0  0  0  0  0  0  0  0  0  0
    5.2202    0.9989   -0.5296 H   0  0  0  0  0  0  0  0  0  0  0  0
    6.5603    2.8305   -1.2896 H   0  0  0  0  0  0  0  0  0  0  0  0
    9.0220    2.6252   -1.3712 H   0  0  0  0  0  0  0  0  0  0  0  0
   10.0936    0.6299   -0.7052 H   0  0  0  0  0  0  0  0  0  0  0  0
   11.2252   -2.8031    0.4806 H   0  0  0  0  0  0  0  0  0  0  0  0
   11.9033   -0.7785   -1.4926 H   0  0  0  0  0  0  0  0  0  0  0  0
   10.3307   -1.5514   -1.9199 H   0  0  0  0  0  0  0  0  0  0  0  0
   11.7765   -2.5763   -1.6995 H   0  0  0  0  0  0  0  0  0  0  0  0
   12.0225   -1.2557    1.8769 H   0  0  0  0  0  0  0  0  0  0  0  0
   12.1781   -0.1622    0.4319 H   0  0  0  0  0  0  0  0  0  0  0  0
   10.7434   -0.0899    1.5079 H   0  0  0  0  0  0  0  0  0  0  0  0
   -4.2803    2.8410    0.0525 H   0  0  0  0  0  0  0  0  0  0  0  0
   -3.9354    2.1199   -1.5269 H   0  0  0  0  0  0  0  0  0  0  0  0
   -6.3084    2.9635   -1.1164 H   0  0  0  0  0  0  0  0  0  0  0  0
   -6.1470    1.3325   -1.7818 H   0  0  0  0  0  0  0  0  0  0  0  0
   -7.2139    2.2642    0.8421 H   0  0  0  0  0  0  0  0  0  0  0  0
   -6.6586   -0.1075    1.8153 H   0  0  0  0  0  0  0  0  0  0  0  0
   -5.5929    1.2907    2.0626 H   0  0  0  0  0  0  0  0  0  0  0  0
   -5.1731   -0.8869   -0.0780 H   0  0  0  0  0  0  0  0  0  0  0  0
   -4.3121   -0.6097    1.5260 H   0  0  0  0  0  0  0  0  0  0  0  0
   -7.5080   -1.4012   -0.0997 H   0  0  0  0  0  0  0  0  0  0  0  0
   -7.0082   -0.5774   -1.5870 H   0  0  0  0  0  0  0  0  0  0  0  0
   -9.4445   -0.3742   -2.2343 H   0  0  0  0  0  0  0  0  0  0  0  0
   -9.0261   -2.0597   -1.7202 H   0  0  0  0  0  0  0  0  0  0  0  0
   -9.1822   -2.5377    0.5321 H   0  0  0  0  0  0  0  0  0  0  0  0
   -9.9814   -1.3564    1.7041 H   0  0  0  0  0  0  0  0  0  0  0  0
  -10.9456   -2.4645    0.6802 H   0  0  0  0  0  0  0  0  0  0  0  0
  -11.2261    0.8855   -0.4545 H   0  0  0  0  0  0  0  0  0  0  0  0
  -10.4517    0.5517    1.1515 H   0  0  0  0  0  0  0  0  0  0  0  0
   -9.2778    1.5186   -1.4917 H   0  0  0  0  0  0  0  0  0  0  0  0
   -9.1611    2.2698    0.1783 H   0  0  0  0  0  0  0  0  0  0  0  0
  1  2  1  0
  2  3  1  0
  3  4  2  0
  4  5  1  0
  5  6  2  0
  6  7  1  0
  7  8  2  0
  8  9  1  0
  9 10  1  0
 10 11  2  0
 11 12  1  0
 12 13  2  0
 13 14  1  0
 13 15  1  0
 15 16  1  0
 16 17  1  0
 17 18  2  0
 18 19  1  0
 19 20  2  0
 20 21  1  0
 21 22  2  0
 22 23  1  0
 23 24  2  0
 23 25  2  0
 23 26  1  0
 26 27  1  0
 26 28  1  0
 15 29  2  0
  5 30  1  0
 30 31  1  0
 31 32  1  0
 32 33  1  0
 33 34  1  0
 34 35  1  0
 33 36  1  0
 36 37  1  0
 37 38  1  0
 38 39  1  0
 39 40  1  0
 39 41  1  0
 41 42  1  0
  8  3  1  0
 29 10  1  0
 35 30  1  0
 42 36  1  0
 22 17  1  0
  1 43  1  0
  1 44  1  0
  1 45  1  0
  4 46  1  0
  6 47  1  0
  7 48  1  0
  9 49  1  0
 12 50  1  0
 16 51  1  0
 18 52  1  0
 19 53  1  0
 20 54  1  0
 21 55  1  0
 26 56  1  0
 27 57  1  0
 27 58  1  0
 27 59  1  0
 28 60  1  0
 28 61  1  0
 28 62  1  0
 31 63  1  0
 31 64  1  0
 32 65  1  0
 32 66  1  0
 33 67  1  0
 34 68  1  0
 34 69  1  0
 35 70  1  0
 35 71  1  0
 37 72  1  0
 37 73  1  0
 38 74  1  0
 38 75  1  0
 40 76  1  0
 40 77  1  0
 40 78  1  0
 41 79  1  0
 41 80  1  0
 42 81  1  0
 42 82  1  0
M  END
$$$$
[H]c1nc(N2C([H])([H])C([H])([H])N(c3nc(N4C([H])([H])C([H])([H])C(F)(F)C([H])([H])C4([H])[H])nc(-c4c([H])c([H])c([H])c([H])c4[H])c3[H])[C@]([H])(C([H])([H])[H])C2([H])[H])c([H])c(C#N)c1[H]
     RDKit          3D

 62 66  0  0  0  0  0  0  0  0999 V2000
    0.8252   -2.3317   -0.0079 C   0  0  0  0  0  0  0  0  0  0  0  0
    1.7234   -1.1747   -0.2276 C   0  0  2  0  0  0  0  0  0  0  0  0
    2.8002   -1.2391    0.8693 C   0  0  0  0  0  0  0  0  0  0  0  0
    3.8733   -0.4007    0.3696 N   0  0  0  0  0  0  0  0  0  0  0  0
    3.5096    0.8982   -0.1201 C   0  0  0  0  0  0  0  0  0  0  0  0
    2.0803    1.2425   -0.0163 C   0  0  0  0  0  0  0  0  0  0  0  0
    1.1675    0.1245   -0.1520 N   0  0  0  0  0  0  0  0  0  0  0  0
   -0.2287    0.4174   -0.2032 C   0  0  0  0  0  0  0  0  0  0  0  0
   -0.6807    1.7322   -0.0639 C   0  0  0  0  0  0  0  0  0  0  0  0
   -2.0083    2.0594   -0.1089 C   0  0  0  0  0  0  0  0  0  0  0  0
   -2.8679    1.0278   -0.2979 N   0  0  0  0  0  0  0  0  0  0  0  0
   -2.4762   -0.2453   -0.4359 C   0  0  0  0  0  0  0  0  0  0  0  0
   -1.1650   -0.5185   -0.3850 N   0  0  0  0  0  0  0  0  0  0  0  0
   -3.4527   -1.2860   -0.6343 N   0  0  0  0  0  0  0  0  0  0  0  0
   -4.8326   -0.9114   -0.6719 C   0  0  0  0  0  0  0  0  0  0  0  0
   -5.7735   -1.9749   -0.2099 C   0  0  0  0  0  0  0  0  0  0  0  0
   -5.1089   -3.2412    0.2264 C   0  0  0  0  0  0  0  0  0  0  0  0
   -6.0714   -4.2261    0.3200 F   0  0  0  0  0  0  0  0  0  0  0  0
   -4.4652   -3.1329    1.4408 F   0  0  0  0  0  0  0  0  0  0  0  0
   -4.0847   -3.6455   -0.8165 C   0  0  0  0  0  0  0  0  0  0  0  0
   -2.9770   -2.6436   -0.7831 C   0  0  0  0  0  0  0  0  0  0  0  0
   -2.5288    3.4337    0.0341 C   0  0  0  0  0  0  0  0  0  0  0  0
   -3.8924    3.6630   -0.0251 C   0  0  0  0  0  0  0  0  0  0  0  0
   -4.3794    4.9421    0.1079 C   0  0  0  0  0  0  0  0  0  0  0  0
   -3.5038    5.9948    0.3003 C   0  0  0  0  0  0  0  0  0  0  0  0
   -2.1583    5.7634    0.3579 C   0  0  0  0  0  0  0  0  0  0  0  0
   -1.6805    4.4809    0.2239 C   0  0  0  0  0  0  0  0  0  0  0  0
    5.1906   -0.8951    0.3908 C   0  0  0  0  0  0  0  0  0  0  0  0
    6.2649   -0.1341   -0.0802 C   0  0  0  0  0  0  0  0  0  0  0  0
    7.5483   -0.6388   -0.0496 C   0  0  0  0  0  0  0  0  0  0  0  0
    7.7742   -1.9199    0.4560 C   0  0  0  0  0  0  0  0  0  0  0  0
    6.7064   -2.6310    0.9051 C   0  0  0  0  0  0  0  0  0  0  0  0
    5.4824   -2.1027    0.8563 N   0  0  0  0  0  0  0  0  0  0  0  0
    8.6861    0.0828   -0.5131 C   0  0  0  0  0  0  0  0  0  0  0  0
    9.6141    0.6888   -0.8873 N   0  0  0  0  0  0  0  0  0  0  0  0
    0.2275   -2.6345   -0.9010 H   0  0  0  0  0  0  0  0  0  0  0  0
    1.4942   -3.2279    0.1724 H   0  0  0  0  0  0  0  0  0  0  0  0
    0.2188   -2.2685    0.9199 H   0  0  0  0  0  0  0  0  0  0  0  0
    2.2855   -1.3599   -1.1742 H   0  0  0  0  0  0  0  0  0  0  0  0
    2.4066   -0.7307    1.7861 H   0  0  0  0  0  0  0  0  0  0  0  0
    3.1062   -2.2740    1.0620 H   0  0  0  0  0  0  0  0  0  0  0  0
    4.1274    1.6492    0.4149 H   0  0  0  0  0  0  0  0  0  0  0  0
    3.8115    0.9884   -1.2042 H   0  0  0  0  0  0  0  0  0  0  0  0
    1.7720    1.9688   -0.8263 H   0  0  0  0  0  0  0  0  0  0  0  0
    1.8343    1.7501    0.9395 H   0  0  0  0  0  0  0  0  0  0  0  0
    0.0382    2.5184    0.0849 H   0  0  0  0  0  0  0  0  0  0  0  0
   -5.0191    0.0317   -0.0880 H   0  0  0  0  0  0  0  0  0  0  0  0
   -5.1140   -0.6429   -1.7300 H   0  0  0  0  0  0  0  0  0  0  0  0
   -6.3722   -1.6040    0.6688 H   0  0  0  0  0  0  0  0  0  0  0  0
   -6.5260   -2.2551   -0.9981 H   0  0  0  0  0  0  0  0  0  0  0  0
   -3.6999   -4.6388   -0.5311 H   0  0  0  0  0  0  0  0  0  0  0  0
   -4.5550   -3.6968   -1.8290 H   0  0  0  0  0  0  0  0  0  0  0  0
   -2.2719   -2.9064    0.0397 H   0  0  0  0  0  0  0  0  0  0  0  0
   -2.3946   -2.7506   -1.7399 H   0  0  0  0  0  0  0  0  0  0  0  0
   -4.5497    2.8160   -0.1768 H   0  0  0  0  0  0  0  0  0  0  0  0
   -5.4474    5.1515    0.0654 H   0  0  0  0  0  0  0  0  0  0  0  0
   -3.8513    7.0162    0.4091 H   0  0  0  0  0  0  0  0  0  0  0  0
   -1.4867    6.6163    0.5113 H   0  0  0  0  0  0  0  0  0  0  0  0
   -0.6099    4.3701    0.2793 H   0  0  0  0  0  0  0  0  0  0  0  0
    6.0906    0.8393   -0.4640 H   0  0  0  0  0  0  0  0  0  0  0  0
    8.7776   -2.3454    0.4928 H   0  0  0  0  0  0  0  0  0  0  0  0
    6.7968   -3.6393    1.3154 H   0  0  0  0  0  0  0  0  0  0  0  0
  1  2  1  0
  2  3  1  0
  3  4  1  0
  4  5  1  0
  5  6  1  0
  6  7  1  0
  7  8  1  0
  8  9  2  0
  9 10  1  0
 10 11  2  0
 11 12  1  0
 12 13  2  0
 12 14  1  0
 14 15  1  0
 15 16  1  0
 16 17  1  0
 17 18  1  0
 17 19  1  0
 17 20  1  0
 20 21  1  0
 10 22  1  0
 22 23  2  0
 23 24  1  0
 24 25  2  0
 25 26  1  0
 26 27  2  0
  4 28  1  0
 28 29  2  0
 29 30  1  0
 30 31  2  0
 31 32  1  0
 32 33  2  0
 30 34  1  0
 34 35  3  0
  7  2  1  0
 13  8  1  0
 21 14  1  0
 27 22  1  0
 33 28  1  0
  1 36  1  0
  1 37  1  0
  1 38  1  0
  2 39  1  6
  3 40  1  0
  3 41  1  0
  5 42  1  0
  5 43  1  0
  6 44  1  0
  6 45  1  0
  9 46  1  0
 15 47  1  0
 15 48  1  0
 16 49  1  0
 16 50  1  0
 20 51  1  0
 20 52  1  0
 21 53  1  0
 21 54  1  0
 23 55  1  0
 24 56  1  0
 25 57  1  0
 26 58  1  0
 27 59  1  0
 29 60  1  0
 31 61  1  0
 32 62  1  0
M  END
$$$$
[H]Oc1c([H])c(-c2c([H])c([H])c([H])c3c([H])c([H])c([H])c([H])c23)nc2c([H])c(OC([H])([H])[H])c(-c3oc([H])nc3[H])c([H])c12
     RDKit          3D

 44 48  0  0  0  0  0  0  0  0999 V2000
   -1.3053    2.8168    3.5154 C   0  0  0  0  0  0  0  0  0  0  0  0
   -2.3343    2.0981    2.8930 O   0  0  0  0  0  0  0  0  0  0  0  0
   -2.1752    1.1799    1.8881 C   0  0  0  0  0  0  0  0  0  0  0  0
   -0.8925    0.9178    1.4237 C   0  0  0  0  0  0  0  0  0  0  0  0
   -0.6534    0.0076    0.4156 C   0  0  0  0  0  0  0  0  0  0  0  0
    0.5592   -0.2657   -0.0501 N   0  0  0  0  0  0  0  0  0  0  0  0
    0.8950   -1.1186   -1.0102 C   0  0  0  0  0  0  0  0  0  0  0  0
   -0.2021   -1.7929   -1.5757 C   0  0  0  0  0  0  0  0  0  0  0  0
   -1.5076   -1.5649   -1.1443 C   0  0  0  0  0  0  0  0  0  0  0  0
   -2.5384   -2.2535   -1.7332 O   0  0  0  0  0  0  0  0  0  0  0  0
   -1.7270   -0.6581   -0.1424 C   0  0  0  0  0  0  0  0  0  0  0  0
   -2.9894   -0.3794    0.3369 C   0  0  0  0  0  0  0  0  0  0  0  0
   -3.2524    0.5328    1.3504 C   0  0  0  0  0  0  0  0  0  0  0  0
   -4.6467    0.7445    1.7768 C   0  0  0  0  0  0  0  0  0  0  0  0
   -5.1378    1.5784    2.7384 C   0  0  0  0  0  0  0  0  0  0  0  0
   -6.5020    1.4266    2.7721 N   0  0  0  0  0  0  0  0  0  0  0  0
   -6.8083    0.5127    1.8395 C   0  0  0  0  0  0  0  0  0  0  0  0
   -5.7013    0.1276    1.2690 O   0  0  0  0  0  0  0  0  0  0  0  0
    2.2360   -1.3789   -1.5319 C   0  0  0  0  0  0  0  0  0  0  0  0
    2.4646   -2.5858   -2.1925 C   0  0  0  0  0  0  0  0  0  0  0  0
    3.6551   -2.9394   -2.7496 C   0  0  0  0  0  0  0  0  0  0  0  0
    4.7012   -2.0635   -2.6617 C   0  0  0  0  0  0  0  0  0  0  0  0
    4.5318   -0.8589   -2.0217 C   0  0  0  0  0  0  0  0  0  0  0  0
    5.6070    0.0015   -1.9651 C   0  0  0  0  0  0  0  0  0  0  0  0
    5.4885    1.2269   -1.3478 C   0  0  0  0  0  0  0  0  0  0  0  0
    4.2855    1.5507   -0.8038 C   0  0  0  0  0  0  0  0  0  0  0  0
    3.1756    0.7027   -0.8428 C   0  0  0  0  0  0  0  0  0  0  0  0
    3.3000   -0.5026   -1.4509 C   0  0  0  0  0  0  0  0  0  0  0  0
   -0.4630    2.1002    3.7182 H   0  0  0  0  0  0  0  0  0  0  0  0
   -0.9960    3.6813    2.9123 H   0  0  0  0  0  0  0  0  0  0  0  0
   -1.6382    3.2242    4.4990 H   0  0  0  0  0  0  0  0  0  0  0  0
   -0.0477    1.4231    1.8426 H   0  0  0  0  0  0  0  0  0  0  0  0
   -0.0152   -2.4784   -2.3603 H   0  0  0  0  0  0  0  0  0  0  0  0
   -3.4996   -2.1648   -1.5011 H   0  0  0  0  0  0  0  0  0  0  0  0
   -3.8578   -0.8809   -0.0749 H   0  0  0  0  0  0  0  0  0  0  0  0
   -4.5866    2.2601    3.3877 H   0  0  0  0  0  0  0  0  0  0  0  0
   -7.8283    0.2032    1.6552 H   0  0  0  0  0  0  0  0  0  0  0  0
    1.6527   -3.2937   -2.2522 H   0  0  0  0  0  0  0  0  0  0  0  0
    3.7905   -3.9040   -3.2631 H   0  0  0  0  0  0  0  0  0  0  0  0
    5.6465   -2.3409   -3.1014 H   0  0  0  0  0  0  0  0  0  0  0  0
    6.5449   -0.3026   -2.4140 H   0  0  0  0  0  0  0  0  0  0  0  0
    6.3570    1.8771   -1.3230 H   0  0  0  0  0  0  0  0  0  0  0  0
    4.1611    2.5091   -0.3114 H   0  0  0  0  0  0  0  0  0  0  0  0
    2.2539    1.0249   -0.4088 H   0  0  0  0  0  0  0  0  0  0  0  0
  1  2  1  0
  2  3  1  0
  3  4  2  0
  4  5  1  0
  5  6  2  0
  6  7  1  0
  7  8  2  0
  8  9  1  0
  9 10  1  0
  9 11  2  0
 11 12  1  0
 12 13  2  0
 13 14  1  0
 14 15  2  0
 15 16  1  0
 16 17  2  0
 17 18  1  0
  7 19  1  0
 19 20  2  0
 20 21  1  0
 21 22  2  0
 22 23  1  0
 23 24  2  0
 24 25  1  0
 25 26  2  0
 26 27  1  0
 27 28  2  0
 13  3  1  0
 18 14  1  0
 28 19  1  0
 11  5  1  0
 28 23  1  0
  1 29  1  0
  1 30  1  0
  1 31  1  0
  4 32  1  0
  8 33  1  0
 10 34  1  0
 12 35  1  0
 15 36  1  0
 17 37  1  0
 20 38  1  0
 21 39  1  0
 22 40  1  0
 24 41  1  0
 25 42  1  0
 26 43  1  0
 27 44  1  0
M  END
$$$$
[H]c1nc(OC([H])([H])[H])c(N([H])S(=O)(=O)C([H])([H])[H])c([H])c1-c1c([H])c(OC([H])([H])[H])c2nc(N3C([H])([H])C([H])([H])OC([H])([H])C3([H])[H])n([H])c2c1[H]
     RDKit          3D

 53 56  0  0  0  0  0  0  0  0999 V2000
    5.9219    0.1758   -4.2056 C   0  0  0  0  0  0  0  0  0  0  0  0
    5.8633    0.1973   -2.8036 O   0  0  0  0  0  0  0  0  0  0  0  0
    4.6169    0.0656   -2.1778 C   0  0  0  0  0  0  0  0  0  0  0  0
    3.4885   -0.0793   -2.8943 N   0  0  0  0  0  0  0  0  0  0  0  0
    2.2629   -0.2100   -2.3595 C   0  0  0  0  0  0  0  0  0  0  0  0
    2.0964   -0.2018   -0.9924 C   0  0  0  0  0  0  0  0  0  0  0  0
    3.2553   -0.0525   -0.2271 C   0  0  0  0  0  0  0  0  0  0  0  0
    4.5037    0.0803   -0.7983 C   0  0  0  0  0  0  0  0  0  0  0  0
    5.6646    0.2246    0.0168 N   0  0  0  0  0  0  0  0  0  0  0  0
    5.5907    0.5235    1.7138 S   0  0  0  0  0  0  0  0  0  0  0  0
    4.7691    2.0715    1.9692 C   0  0  0  0  0  0  0  0  0  0  0  0
    7.0162    0.5963    2.2278 O   0  0  0  0  0  0  0  0  0  0  0  0
    4.8888   -0.6158    2.4207 O   0  0  0  0  0  0  0  0  0  0  0  0
    0.7752   -0.3429   -0.3725 C   0  0  0  0  0  0  0  0  0  0  0  0
    0.6855   -0.9635    0.8732 C   0  0  0  0  0  0  0  0  0  0  0  0
   -0.5183   -1.1265    1.5038 C   0  0  0  0  0  0  0  0  0  0  0  0
   -0.5599   -1.7453    2.7341 O   0  0  0  0  0  0  0  0  0  0  0  0
    0.5812   -2.2220    3.3807 C   0  0  0  0  0  0  0  0  0  0  0  0
   -1.6644   -0.6684    0.8958 C   0  0  0  0  0  0  0  0  0  0  0  0
   -2.9549   -0.6701    1.2303 N   0  0  0  0  0  0  0  0  0  0  0  0
   -3.7170   -0.0880    0.2790 C   0  0  0  0  0  0  0  0  0  0  0  0
   -2.8449    0.2887   -0.6868 N   0  0  0  0  0  0  0  0  0  0  0  0
   -1.5928   -0.0468   -0.3473 C   0  0  0  0  0  0  0  0  0  0  0  0
   -0.3670    0.1129   -0.9771 C   0  0  0  0  0  0  0  0  0  0  0  0
   -5.1200    0.0967    0.2752 N   0  0  0  0  0  0  0  0  0  0  0  0
   -5.7442    0.7432   -0.8422 C   0  0  0  0  0  0  0  0  0  0  0  0
   -7.1845    0.3707   -1.0104 C   0  0  0  0  0  0  0  0  0  0  0  0
   -7.9120    0.2681    0.1408 O   0  0  0  0  0  0  0  0  0  0  0  0
   -7.2334    0.3959    1.3190 C   0  0  0  0  0  0  0  0  0  0  0  0
   -5.9221   -0.3553    1.3754 C   0  0  0  0  0  0  0  0  0  0  0  0
    6.4862    1.0436   -4.6060 H   0  0  0  0  0  0  0  0  0  0  0  0
    6.3929   -0.7662   -4.5937 H   0  0  0  0  0  0  0  0  0  0  0  0
    4.8923    0.1781   -4.6101 H   0  0  0  0  0  0  0  0  0  0  0  0
    1.3810   -0.3253   -2.9967 H   0  0  0  0  0  0  0  0  0  0  0  0
    3.1015   -0.0517    0.8343 H   0  0  0  0  0  0  0  0  0  0  0  0
    6.5944    0.1360   -0.4850 H   0  0  0  0  0  0  0  0  0  0  0  0
    3.6917    1.9333    2.0047 H   0  0  0  0  0  0  0  0  0  0  0  0
    4.9944    2.7027    1.0631 H   0  0  0  0  0  0  0  0  0  0  0  0
    5.1763    2.6098    2.8537 H   0  0  0  0  0  0  0  0  0  0  0  0
    1.5863   -1.3191    1.3428 H   0  0  0  0  0  0  0  0  0  0  0  0
    1.3793   -1.4560    3.3670 H   0  0  0  0  0  0  0  0  0  0  0  0
    1.0106   -3.1355    2.8901 H   0  0  0  0  0  0  0  0  0  0  0  0
    0.3242   -2.4519    4.4567 H   0  0  0  0  0  0  0  0  0  0  0  0
   -3.1261    0.7703   -1.5630 H   0  0  0  0  0  0  0  0  0  0  0  0
   -0.3126    0.5960   -1.9427 H   0  0  0  0  0  0  0  0  0  0  0  0
   -5.6060    1.8430   -0.8426 H   0  0  0  0  0  0  0  0  0  0  0  0
   -5.2104    0.3844   -1.7645 H   0  0  0  0  0  0  0  0  0  0  0  0
   -7.3060   -0.5487   -1.6503 H   0  0  0  0  0  0  0  0  0  0  0  0
   -7.6591    1.1881   -1.6293 H   0  0  0  0  0  0  0  0  0  0  0  0
   -7.0311    1.4287    1.6415 H   0  0  0  0  0  0  0  0  0  0  0  0
   -7.8864   -0.0494    2.1267 H   0  0  0  0  0  0  0  0  0  0  0  0
   -5.4665   -0.0865    2.3678 H   0  0  0  0  0  0  0  0  0  0  0  0
   -6.0517   -1.4466    1.4009 H   0  0  0  0  0  0  0  0  0  0  0  0
  1  2  1  0
  2  3  1  0
  3  4  2  0
  4  5  1  0
  5  6  2  0
  6  7  1  0
  7  8  2  0
  8  9  1  0
  9 10  1  0
 10 11  1  0
 10 12  2  0
 10 13  2  0
  6 14  1  0
 14 15  2  0
 15 16  1  0
 16 17  1  0
 17 18  1  0
 16 19  2  0
 19 20  1  0
 20 21  2  0
 21 22  1  0
 22 23  1  0
 23 24  2  0
 21 25  1  0
 25 26  1  0
 26 27  1  0
 27 28  1  0
 28 29  1  0
 29 30  1  0
  8  3  1  0
 24 14  1  0
 30 25  1  0
 23 19  1  0
  1 31  1  0
  1 32  1  0
  1 33  1  0
  5 34  1  0
  7 35  1  0
  9 36  1  0
 11 37  1  0
 11 38  1  0
 11 39  1  0
 15 40  1  0
 18 41  1  0
 18 42  1  0
 18 43  1  0
 22 44  1  0
 24 45  1  0
 26 46  1  0
 26 47  1  0
 27 48  1  0
 27 49  1  0
 29 50  1  0
 29 51  1  0
 30 52  1  0
 30 53  1  0
M  END
$$$$
[H]ON([H])C(=O)C([H])([H])N(C([H])([H])c1c([H])c([H])c([N+](=O)[O-])c([H])c1[H])S(=O)(=O)c1c([H])c([H])c(Br)c([H])c1[H]
     RDKit          3D

 40 41  0  0  0  0  0  0  0  0999 V2000
   -2.1675    3.6659   -2.4223 O   0  0  0  0  0  0  0  0  0  0  0  0
   -1.4418    3.3539   -1.3331 N   0  0  0  0  0  0  0  0  0  0  0  0
   -1.0770    2.0202   -1.0750 C   0  0  0  0  0  0  0  0  0  0  0  0
   -1.4361    1.1277   -1.8713 O   0  0  0  0  0  0  0  0  0  0  0  0
   -0.2930    1.6874    0.1028 C   0  0  0  0  0  0  0  0  0  0  0  0
    0.0371    0.3291    0.3041 N   0  0  0  0  0  0  0  0  0  0  0  0
    1.0064   -0.2398   -0.5167 C   0  0  0  0  0  0  0  0  0  0  0  0
    2.3497   -0.4635    0.0755 C   0  0  0  0  0  0  0  0  0  0  0  0
    2.8247   -1.6928    0.4771 C   0  0  0  0  0  0  0  0  0  0  0  0
    4.0772   -1.8650    1.0273 C   0  0  0  0  0  0  0  0  0  0  0  0
    4.9240   -0.8107    1.2049 C   0  0  0  0  0  0  0  0  0  0  0  0
    4.4718    0.4436    0.8084 C   0  0  0  0  0  0  0  0  0  0  0  0
    3.2189    0.6098    0.2592 C   0  0  0  0  0  0  0  0  0  0  0  0
    6.2117   -0.9947    1.7716 N   0  0  0  0  0  0  0  0  0  0  0  0
    6.5943   -2.2554    2.1402 O   0  0  0  0  0  0  0  0  0  0  0  0
    6.9930   -0.0489    1.9399 O   0  0  0  0  0  0  0  0  0  0  0  0
   -0.9867   -0.6199    1.2134 S   0  0  0  0  0  0  0  0  0  0  0  0
   -0.4007   -1.9878    1.4222 O   0  0  0  0  0  0  0  0  0  0  0  0
   -1.1527   -0.0307    2.5850 O   0  0  0  0  0  0  0  0  0  0  0  0
   -2.5994   -0.7811    0.5552 C   0  0  0  0  0  0  0  0  0  0  0  0
   -2.9222   -1.8073   -0.3105 C   0  0  0  0  0  0  0  0  0  0  0  0
   -4.1657   -1.9727   -0.8478 C   0  0  0  0  0  0  0  0  0  0  0  0
   -5.1591   -1.0902   -0.5275 C   0  0  0  0  0  0  0  0  0  0  0  0
   -6.9106   -1.3240   -1.2849 Br  0  0  0  0  0  0  0  0  0  0  0  0
   -4.8930   -0.0501    0.3295 C   0  0  0  0  0  0  0  0  0  0  0  0
   -3.6277    0.0866    0.8529 C   0  0  0  0  0  0  0  0  0  0  0  0
   -3.1178    3.4549   -2.3427 H   0  0  0  0  0  0  0  0  0  0  0  0
   -1.1616    4.1232   -0.6937 H   0  0  0  0  0  0  0  0  0  0  0  0
   -0.7953    2.0579    1.0440 H   0  0  0  0  0  0  0  0  0  0  0  0
    0.6555    2.2790    0.0581 H   0  0  0  0  0  0  0  0  0  0  0  0
    1.1977    0.3140   -1.4815 H   0  0  0  0  0  0  0  0  0  0  0  0
    0.6407   -1.2483   -0.8683 H   0  0  0  0  0  0  0  0  0  0  0  0
    2.2070   -2.5685    0.3611 H   0  0  0  0  0  0  0  0  0  0  0  0
    4.4382   -2.8463    1.3405 H   0  0  0  0  0  0  0  0  0  0  0  0
    5.1602    1.2882    0.9549 H   0  0  0  0  0  0  0  0  0  0  0  0
    2.9581    1.6255   -0.0186 H   0  0  0  0  0  0  0  0  0  0  0  0
   -2.1441   -2.5116   -0.5710 H   0  0  0  0  0  0  0  0  0  0  0  0
   -4.3792   -2.8064   -1.5348 H   0  0  0  0  0  0  0  0  0  0  0  0
   -5.7122    0.6284    0.5573 H   0  0  0  0  0  0  0  0  0  0  0  0
   -3.4229    0.9204    1.5371 H   0  0  0  0  0  0  0  0  0  0  0  0
  1  2  1  0
  2  3  1  0
  3  4  2  0
  3  5  1  0
  5  6  1  0
  6  7  1  0
  7  8  1  0
  8  9  2  0
  9 10  1  0
 10 11  2  0
 11 12  1  0
 12 13  2  0
 11 14  1  0
 14 15  1  0
 14 16  2  0
  6 17  1  0
 17 18  2  0
 17 19  2  0
 17 20  1  0
 20 21  2  0
 21 22  1  0
 22 23  2  0
 23 24  1  0
 23 25  1  0
 25 26  2  0
 13  8  1  0
 26 20  1  0
  1 27  1  0
  2 28  1  0
  5 29  1  0
  5 30  1  0
  7 31  1  0
  7 32  1  0
  9 33  1  0
 10 34  1  0
 12 35  1  0
 13 36  1  0
 21 37  1  0
 22 38  1  0
 25 39  1  0
 26 40  1  0
M  CHG  2  14   1  15  -1
M  END
$$$$
[H]c1c([H])c(S(=O)(=O)N(C([H])([H])c2c([H])c([H])c3c(c2[H])OC([H])([H])O3)[C@]2([H])C([H])([H])N(c3nc4c([H])c([H])c([H])c([H])c4o3)C([H])([H])C2([H])[H])c([H])c([H])c1OC([H])([H])[H]
     RDKit          3D

 61 66  0  0  0  0  0  0  0  0999 V2000
   -5.2559   -4.1948    2.3626 C   0  0  0  0  0  0  0  0  0  0  0  0
   -4.2776   -4.3470    1.3753 O   0  0  0  0  0  0  0  0  0  0  0  0
   -3.7936   -3.2654    0.6418 C   0  0  0  0  0  0  0  0  0  0  0  0
   -2.8333   -3.4800   -0.3134 C   0  0  0  0  0  0  0  0  0  0  0  0
   -2.3201   -2.4446   -1.0676 C   0  0  0  0  0  0  0  0  0  0  0  0
   -2.7678   -1.1559   -0.8741 C   0  0  0  0  0  0  0  0  0  0  0  0
   -3.7324   -0.9444    0.0863 C   0  0  0  0  0  0  0  0  0  0  0  0
   -4.2505   -1.9825    0.8461 C   0  0  0  0  0  0  0  0  0  0  0  0
   -2.1632    0.1662   -1.7967 S   0  0  0  0  0  0  0  0  0  0  0  0
   -3.1881    1.2407   -2.0094 O   0  0  0  0  0  0  0  0  0  0  0  0
   -1.7889   -0.3570   -3.1746 O   0  0  0  0  0  0  0  0  0  0  0  0
   -0.7411    0.8922   -1.1478 N   0  0  0  0  0  0  0  0  0  0  0  0
   -0.9754    1.4344    0.1407 C   0  0  0  0  0  0  0  0  0  0  0  0
   -1.3441    2.8777   -0.0287 C   0  0  0  0  0  0  0  0  0  0  0  0
   -1.2570    3.5249   -1.2403 C   0  0  0  0  0  0  0  0  0  0  0  0
   -1.5959    4.8506   -1.3993 C   0  0  0  0  0  0  0  0  0  0  0  0
   -2.0360    5.5643   -0.3285 C   0  0  0  0  0  0  0  0  0  0  0  0
   -2.4397    6.8986   -0.2080 O   0  0  0  0  0  0  0  0  0  0  0  0
   -2.3429    7.2254    1.1854 C   0  0  0  0  0  0  0  0  0  0  0  0
   -2.6096    5.9478    1.7598 O   0  0  0  0  0  0  0  0  0  0  0  0
   -2.1383    4.9558    0.9019 C   0  0  0  0  0  0  0  0  0  0  0  0
   -1.7950    3.6290    1.0427 C   0  0  0  0  0  0  0  0  0  0  0  0
    0.4020    0.1058   -1.3595 C   0  0  1  0  0  0  0  0  0  0  0  0
    1.3740    0.8800   -2.2724 C   0  0  0  0  0  0  0  0  0  0  0  0
    2.5287   -0.1086   -2.2799 C   0  0  0  0  0  0  0  0  0  0  0  0
    2.5585   -0.5638   -0.9070 N   0  0  0  0  0  0  0  0  0  0  0  0
    1.3112   -0.1644   -0.2169 C   0  0  0  0  0  0  0  0  0  0  0  0
    3.6410   -1.2857   -0.3360 C   0  0  0  0  0  0  0  0  0  0  0  0
    4.7799   -1.6573   -0.9445 N   0  0  0  0  0  0  0  0  0  0  0  0
    5.5806   -2.3263   -0.1011 C   0  0  0  0  0  0  0  0  0  0  0  0
    6.8254   -2.9053   -0.2276 C   0  0  0  0  0  0  0  0  0  0  0  0
    7.4320   -3.5505    0.8429 C   0  0  0  0  0  0  0  0  0  0  0  0
    6.7193   -3.5740    2.0223 C   0  0  0  0  0  0  0  0  0  0  0  0
    5.4750   -3.0005    2.1654 C   0  0  0  0  0  0  0  0  0  0  0  0
    4.8829   -2.3607    1.0889 C   0  0  0  0  0  0  0  0  0  0  0  0
    3.7473   -1.7356    0.9024 O   0  0  0  0  0  0  0  0  0  0  0  0
   -4.9612   -3.4642    3.1453 H   0  0  0  0  0  0  0  0  0  0  0  0
   -5.3804   -5.1693    2.8870 H   0  0  0  0  0  0  0  0  0  0  0  0
   -6.2111   -3.8660    1.8949 H   0  0  0  0  0  0  0  0  0  0  0  0
   -2.4812   -4.4939   -0.4656 H   0  0  0  0  0  0  0  0  0  0  0  0
   -1.5544   -2.6843   -1.8147 H   0  0  0  0  0  0  0  0  0  0  0  0
   -4.1267    0.0423    0.2868 H   0  0  0  0  0  0  0  0  0  0  0  0
   -4.9975   -1.7710    1.5798 H   0  0  0  0  0  0  0  0  0  0  0  0
   -0.1990    1.3039    0.8962 H   0  0  0  0  0  0  0  0  0  0  0  0
   -1.9227    0.9453    0.5277 H   0  0  0  0  0  0  0  0  0  0  0  0
   -0.9140    3.0128   -2.1269 H   0  0  0  0  0  0  0  0  0  0  0  0
   -1.5203    5.3384   -2.3574 H   0  0  0  0  0  0  0  0  0  0  0  0
   -3.0826    7.9817    1.4795 H   0  0  0  0  0  0  0  0  0  0  0  0
   -1.3190    7.5793    1.4317 H   0  0  0  0  0  0  0  0  0  0  0  0
   -1.8764    3.1635    1.9981 H   0  0  0  0  0  0  0  0  0  0  0  0
    0.2254   -0.8511   -1.8967 H   0  0  0  0  0  0  0  0  0  0  0  0
    1.6530    1.7912   -1.7202 H   0  0  0  0  0  0  0  0  0  0  0  0
    0.9503    1.0580   -3.2586 H   0  0  0  0  0  0  0  0  0  0  0  0
    2.2243   -0.9315   -2.9836 H   0  0  0  0  0  0  0  0  0  0  0  0
    3.4768    0.3621   -2.6009 H   0  0  0  0  0  0  0  0  0  0  0  0
    0.9438   -0.9474    0.4479 H   0  0  0  0  0  0  0  0  0  0  0  0
    1.6304    0.7714    0.3319 H   0  0  0  0  0  0  0  0  0  0  0  0
    7.3436   -2.8580   -1.1795 H   0  0  0  0  0  0  0  0  0  0  0  0
    8.4106   -4.0085    0.7522 H   0  0  0  0  0  0  0  0  0  0  0  0
    7.1582   -4.0727    2.8966 H   0  0  0  0  0  0  0  0  0  0  0  0
    4.9183   -3.0208    3.0927 H   0  0  0  0  0  0  0  0  0  0  0  0
  1  2  1  0
  2  3  1  0
  3  4  2  0
  4  5  1  0
  5  6  2  0
  6  7  1  0
  7  8  2  0
  6  9  1  0
  9 10  2  0
  9 11  2  0
  9 12  1  0
 12 13  1  0
 13 14  1  0
 14 15  2  0
 15 16  1  0
 16 17  2  0
 17 18  1  0
 18 19  1  0
 19 20  1  0
 20 21  1  0
 21 22  2  0
 12 23  1  0
 23 24  1  0
 24 25  1  0
 25 26  1  0
 26 27  1  0
 26 28  1  0
 28 29  2  0
 29 30  1  0
 30 31  2  0
 31 32  1  0
 32 33  2  0
 33 34  1  0
 34 35  2  0
 35 36  1  0
  8  3  1  0
 22 14  1  0
 27 23  1  0
 36 28  1  0
 21 17  1  0
 35 30  1  0
  1 37  1  0
  1 38  1  0
  1 39  1  0
  4 40  1  0
  5 41  1  0
  7 42  1  0
  8 43  1  0
 13 44  1  0
 13 45  1  0
 15 46  1  0
 16 47  1  0
 19 48  1  0
 19 49  1  0
 22 50  1  0
 23 51  1  6
 24 52  1  0
 24 53  1  0
 25 54  1  0
 25 55  1  0
 27 56  1  0
 27 57  1  0
 31 58  1  0
 32 59  1  0
 33 60  1  0
 34 61  1  0
M  END
$$$$
[H]c1c(C([H])([H])[H])c([H])c2c(C3=C(c4c([H])n([H])c5c([H])c([H])c([H])c([H])c45)C(=O)N([H])C3=O)nc(N3C([H])([H])C([H])([H])N(C([H])([H])[H])C([H])([H])C3([H])[H])nc2c1[H]
     RDKit          3D

 58 63  0  0  0  0  0  0  0  0999 V2000
   -5.8185   -3.1535   -1.7505 C   0  0  0  0  0  0  0  0  0  0  0  0
   -4.8329   -2.1319   -1.6016 N   0  0  0  0  0  0  0  0  0  0  0  0
   -3.4869   -2.5474   -1.9055 C   0  0  0  0  0  0  0  0  0  0  0  0
   -2.6581   -1.2948   -2.0943 C   0  0  0  0  0  0  0  0  0  0  0  0
   -2.9199   -0.3008   -1.0990 N   0  0  0  0  0  0  0  0  0  0  0  0
   -4.2277   -0.1270   -0.4725 C   0  0  0  0  0  0  0  0  0  0  0  0
   -4.8089   -1.5193   -0.2885 C   0  0  0  0  0  0  0  0  0  0  0  0
   -1.8756    0.5867   -0.6682 C   0  0  0  0  0  0  0  0  0  0  0  0
   -0.6355    0.5298   -1.1709 N   0  0  0  0  0  0  0  0  0  0  0  0
    0.3804    1.3085   -0.8294 C   0  0  0  0  0  0  0  0  0  0  0  0
    1.7346    1.2136   -1.3932 C   0  0  0  0  0  0  0  0  0  0  0  0
    2.5941    0.2242   -1.2546 C   0  0  0  0  0  0  0  0  0  0  0  0
    3.8099    0.5991   -2.0124 C   0  0  0  0  0  0  0  0  0  0  0  0
    4.8421   -0.1038   -2.1052 O   0  0  0  0  0  0  0  0  0  0  0  0
    3.6379    1.8594   -2.6150 N   0  0  0  0  0  0  0  0  0  0  0  0
    2.3374    2.2732   -2.2441 C   0  0  0  0  0  0  0  0  0  0  0  0
    1.7919    3.3577   -2.5847 O   0  0  0  0  0  0  0  0  0  0  0  0
    2.4350   -1.0515   -0.5340 C   0  0  0  0  0  0  0  0  0  0  0  0
    1.4878   -2.0284   -0.6558 C   0  0  0  0  0  0  0  0  0  0  0  0
    1.7259   -3.0123    0.2457 N   0  0  0  0  0  0  0  0  0  0  0  0
    2.8299   -2.7012    0.9733 C   0  0  0  0  0  0  0  0  0  0  0  0
    3.4675   -3.3774    2.0048 C   0  0  0  0  0  0  0  0  0  0  0  0
    4.5885   -2.8453    2.5971 C   0  0  0  0  0  0  0  0  0  0  0  0
    5.0529   -1.6323    2.1383 C   0  0  0  0  0  0  0  0  0  0  0  0
    4.4049   -0.9796    1.1143 C   0  0  0  0  0  0  0  0  0  0  0  0
    3.2769   -1.4833    0.4948 C   0  0  0  0  0  0  0  0  0  0  0  0
    0.1295    2.2770    0.1488 C   0  0  0  0  0  0  0  0  0  0  0  0
    1.0981    3.1268    0.6008 C   0  0  0  0  0  0  0  0  0  0  0  0
    0.7881    4.0524    1.5805 C   0  0  0  0  0  0  0  0  0  0  0  0
    1.8558    4.9588    2.0482 C   0  0  0  0  0  0  0  0  0  0  0  0
   -0.4758    4.1377    2.1134 C   0  0  0  0  0  0  0  0  0  0  0  0
   -1.4742    3.2926    1.6793 C   0  0  0  0  0  0  0  0  0  0  0  0
   -1.1447    2.3807    0.7060 C   0  0  0  0  0  0  0  0  0  0  0  0
   -2.0844    1.5285    0.2678 N   0  0  0  0  0  0  0  0  0  0  0  0
   -5.3228   -4.1389   -1.7013 H   0  0  0  0  0  0  0  0  0  0  0  0
   -6.2520   -3.0538   -2.7863 H   0  0  0  0  0  0  0  0  0  0  0  0
   -6.6753   -3.0638   -1.0593 H   0  0  0  0  0  0  0  0  0  0  0  0
   -3.1218   -3.1686   -1.0587 H   0  0  0  0  0  0  0  0  0  0  0  0
   -3.4968   -3.1389   -2.8382 H   0  0  0  0  0  0  0  0  0  0  0  0
   -1.5978   -1.6047   -1.9973 H   0  0  0  0  0  0  0  0  0  0  0  0
   -2.7908   -0.9223   -3.1371 H   0  0  0  0  0  0  0  0  0  0  0  0
   -4.1648    0.3395    0.5137 H   0  0  0  0  0  0  0  0  0  0  0  0
   -4.9228    0.4133   -1.1576 H   0  0  0  0  0  0  0  0  0  0  0  0
   -4.0671   -2.0892    0.3208 H   0  0  0  0  0  0  0  0  0  0  0  0
   -5.7935   -1.4972    0.2041 H   0  0  0  0  0  0  0  0  0  0  0  0
    4.3069    2.3838   -3.2043 H   0  0  0  0  0  0  0  0  0  0  0  0
    0.6608   -2.0829   -1.3501 H   0  0  0  0  0  0  0  0  0  0  0  0
    1.1817   -3.9000    0.4076 H   0  0  0  0  0  0  0  0  0  0  0  0
    3.0953   -4.3403    2.3662 H   0  0  0  0  0  0  0  0  0  0  0  0
    5.1098   -3.3585    3.4119 H   0  0  0  0  0  0  0  0  0  0  0  0
    5.9433   -1.1743    2.5838 H   0  0  0  0  0  0  0  0  0  0  0  0
    4.7606   -0.0065    0.7431 H   0  0  0  0  0  0  0  0  0  0  0  0
    2.0952    3.0556    0.2059 H   0  0  0  0  0  0  0  0  0  0  0  0
    1.4491    5.9613    2.2906 H   0  0  0  0  0  0  0  0  0  0  0  0
    2.5656    5.1210    1.2047 H   0  0  0  0  0  0  0  0  0  0  0  0
    2.3615    4.5936    2.9668 H   0  0  0  0  0  0  0  0  0  0  0  0
   -0.6845    4.8847    2.8880 H   0  0  0  0  0  0  0  0  0  0  0  0
   -2.4658    3.3700    2.1080 H   0  0  0  0  0  0  0  0  0  0  0  0
  1  2  1  0
  2  3  1  0
  3  4  1  0
  4  5  1  0
  5  6  1  0
  6  7  1  0
  5  8  1  0
  8  9  2  0
  9 10  1  0
 10 11  1  0
 11 12  2  0
 12 13  1  0
 13 14  2  0
 13 15  1  0
 15 16  1  0
 16 17  2  0
 12 18  1  0
 18 19  2  0
 19 20  1  0
 20 21  1  0
 21 22  2  0
 22 23  1  0
 23 24  2  0
 24 25  1  0
 25 26  2  0
 10 27  2  0
 27 28  1  0
 28 29  2  0
 29 30  1  0
 29 31  1  0
 31 32  2  0
 32 33  1  0
 33 34  2  0
  7  2  1  0
 34  8  1  0
 16 11  1  0
 26 18  1  0
 33 27  1  0
 26 21  1  0
  1 35  1  0
  1 36  1  0
  1 37  1  0
  3 38  1  0
  3 39  1  0
  4 40  1  0
  4 41  1  0
  6 42  1  0
  6 43  1  0
  7 44  1  0
  7 45  1  0
 15 46  1  0
 19 47  1  0
 20 48  1  0
 22 49  1  0
 23 50  1  0
 24 51  1  0
 25 52  1  0
 28 53  1  0
 30 54  1  0
 30 55  1  0
 30 56  1  0
 31 57  1  0
 32 58  1  0
M  END
$$$$
[H]c1c([H])c([H])c2c(c1[H])C(=O)N(C([H])([H])c1c([H])c([H])c([N+](=O)[O-])c([H])c1[H])C2=O
     RDKit          3D

 31 33  0  0  0  0  0  0  0  0999 V2000
    5.8460   -1.4491   -0.8917 O   0  0  0  0  0  0  0  0  0  0  0  0
    5.1772   -0.2566   -1.0003 N   0  0  0  0  0  0  0  0  0  0  0  0
    5.6389    0.6188   -1.7543 O   0  0  0  0  0  0  0  0  0  0  0  0
    3.9758    0.0120   -0.2813 C   0  0  0  0  0  0  0  0  0  0  0  0
    3.4370   -0.9383    0.5637 C   0  0  0  0  0  0  0  0  0  0  0  0
    2.2725   -0.6256    1.2352 C   0  0  0  0  0  0  0  0  0  0  0  0
    1.6142    0.5674    1.1188 C   0  0  0  0  0  0  0  0  0  0  0  0
    0.3581    0.8413    1.8739 C   0  0  0  0  0  0  0  0  0  0  0  0
   -0.8124    0.4469    1.1359 N   0  0  0  0  0  0  0  0  0  0  0  0
   -1.4586   -0.8171    1.1575 C   0  0  0  0  0  0  0  0  0  0  0  0
   -1.1034   -1.8221    1.8427 O   0  0  0  0  0  0  0  0  0  0  0  0
   -2.6172   -0.8129    0.2653 C   0  0  0  0  0  0  0  0  0  0  0  0
   -3.5617   -1.7930   -0.0588 C   0  0  0  0  0  0  0  0  0  0  0  0
   -4.5520   -1.4686   -0.9531 C   0  0  0  0  0  0  0  0  0  0  0  0
   -4.6320   -0.2210   -1.5262 C   0  0  0  0  0  0  0  0  0  0  0  0
   -3.6904    0.7160   -1.1866 C   0  0  0  0  0  0  0  0  0  0  0  0
   -2.6715    0.4378   -0.2894 C   0  0  0  0  0  0  0  0  0  0  0  0
   -1.5664    1.2409    0.2308 C   0  0  0  0  0  0  0  0  0  0  0  0
   -1.3534    2.4554   -0.1035 O   0  0  0  0  0  0  0  0  0  0  0  0
    2.1619    1.5174    0.2675 C   0  0  0  0  0  0  0  0  0  0  0  0
    3.3361    1.2250   -0.4207 C   0  0  0  0  0  0  0  0  0  0  0  0
    3.9423   -1.8899    0.6706 H   0  0  0  0  0  0  0  0  0  0  0  0
    1.8566   -1.3721    1.8938 H   0  0  0  0  0  0  0  0  0  0  0  0
    0.3624    1.9211    2.1306 H   0  0  0  0  0  0  0  0  0  0  0  0
    0.4573    0.3047    2.8515 H   0  0  0  0  0  0  0  0  0  0  0  0
   -3.4724   -2.7606    0.4065 H   0  0  0  0  0  0  0  0  0  0  0  0
   -5.3047   -2.2150   -1.2256 H   0  0  0  0  0  0  0  0  0  0  0  0
   -5.4211    0.0100   -2.2275 H   0  0  0  0  0  0  0  0  0  0  0  0
   -3.7204    1.7038   -1.6147 H   0  0  0  0  0  0  0  0  0  0  0  0
    1.7059    2.4699    0.1253 H   0  0  0  0  0  0  0  0  0  0  0  0
    3.7953    1.9535   -1.1012 H   0  0  0  0  0  0  0  0  0  0  0  0
  1  2  1  0
  2  3  2  0
  2  4  1  0
  4  5  2  0
  5  6  1  0
  6  7  2  0
  7  8  1  0
  8  9  1  0
  9 10  1  0
 10 11  2  0
 10 12  1  0
 12 13  2  0
 13 14  1  0
 14 15  2  0
 15 16  1  0
 16 17  2  0
 17 18  1  0
 18 19  2  0
  7 20  1  0
 20 21  2  0
 21  4  1  0
 18  9  1  0
 17 12  1  0
  5 22  1  0
  6 23  1  0
  8 24  1  0
  8 25  1  0
 13 26  1  0
 14 27  1  0
 15 28  1  0
 16 29  1  0
 20 30  1  0
 21 31  1  0
M  CHG  2   1  -1   2   1
M  END
$$$$
[H]OC(=O)c1c([H])c([H])c(-c2sc(N([H])C(=O)c3c([H])c([H])c(OC([H])([H])[H])c([H])c3[H])nc2[H])c(OC([H])([H])c2c([H])c([H])c([H])c([H])c2Cl)c1[H]
     RDKit          3D

 53 56  0  0  0  0  0  0  0  0999 V2000
   10.1669    1.4667    0.1996 C   0  0  0  0  0  0  0  0  0  0  0  0
    9.4982    0.2484    0.3032 O   0  0  0  0  0  0  0  0  0  0  0  0
    8.1283    0.0924    0.2448 C   0  0  0  0  0  0  0  0  0  0  0  0
    7.2648    1.1405    0.0754 C   0  0  0  0  0  0  0  0  0  0  0  0
    5.8938    0.9480    0.0211 C   0  0  0  0  0  0  0  0  0  0  0  0
    5.3535   -0.3004    0.1354 C   0  0  0  0  0  0  0  0  0  0  0  0
    6.2189   -1.3788    0.3085 C   0  0  0  0  0  0  0  0  0  0  0  0
    7.5744   -1.1657    0.3595 C   0  0  0  0  0  0  0  0  0  0  0  0
    3.9313   -0.5207    0.0815 C   0  0  0  0  0  0  0  0  0  0  0  0
    3.4970   -1.7228    0.1948 O   0  0  0  0  0  0  0  0  0  0  0  0
    3.0151    0.5286   -0.0894 N   0  0  0  0  0  0  0  0  0  0  0  0
    1.6160    0.2154   -0.1315 C   0  0  0  0  0  0  0  0  0  0  0  0
    0.5852    1.0253   -0.2813 N   0  0  0  0  0  0  0  0  0  0  0  0
   -0.6249    0.5534   -0.2947 C   0  0  0  0  0  0  0  0  0  0  0  0
   -0.7998   -0.7893   -0.1509 C   0  0  0  0  0  0  0  0  0  0  0  0
    0.8468   -1.3046   -0.0005 S   0  0  0  0  0  0  0  0  0  0  0  0
   -1.9555   -1.6675   -0.1181 C   0  0  0  0  0  0  0  0  0  0  0  0
   -1.7115   -3.0537    0.0318 C   0  0  0  0  0  0  0  0  0  0  0  0
   -2.7630   -3.9355    0.0703 C   0  0  0  0  0  0  0  0  0  0  0  0
   -4.0738   -3.5373   -0.0313 C   0  0  0  0  0  0  0  0  0  0  0  0
   -4.3019   -2.1868   -0.1768 C   0  0  0  0  0  0  0  0  0  0  0  0
   -3.2380   -1.2665   -0.2185 C   0  0  0  0  0  0  0  0  0  0  0  0
   -3.5491    0.1062   -0.3691 O   0  0  0  0  0  0  0  0  0  0  0  0
   -4.9042    0.4546   -0.4699 C   0  0  0  0  0  0  0  0  0  0  0  0
   -5.1936    1.8727   -0.6157 C   0  0  0  0  0  0  0  0  0  0  0  0
   -4.2688    2.8578   -0.6561 C   0  0  0  0  0  0  0  0  0  0  0  0
   -4.6080    4.1898   -0.7953 C   0  0  0  0  0  0  0  0  0  0  0  0
   -5.9297    4.5164   -0.8952 C   0  0  0  0  0  0  0  0  0  0  0  0
   -6.8986    3.5406   -0.8580 C   0  0  0  0  0  0  0  0  0  0  0  0
   -6.5428    2.2472   -0.7215 C   0  0  0  0  0  0  0  0  0  0  0  0
   -7.7490    0.9943   -0.6717 Cl  0  0  0  0  0  0  0  0  0  0  0  0
   -5.1837   -4.4931    0.0117 C   0  0  0  0  0  0  0  0  0  0  0  0
   -6.4640   -4.0227   -0.0956 O   0  0  0  0  0  0  0  0  0  0  0  0
   -4.8926   -5.7168    0.1475 O   0  0  0  0  0  0  0  0  0  0  0  0
   11.2081    1.3017   -0.1000 H   0  0  0  0  0  0  0  0  0  0  0  0
    9.6559    2.1090   -0.5689 H   0  0  0  0  0  0  0  0  0  0  0  0
   10.0827    2.0653    1.1504 H   0  0  0  0  0  0  0  0  0  0  0  0
    7.6840    2.1369   -0.0165 H   0  0  0  0  0  0  0  0  0  0  0  0
    5.3024    1.8396   -0.1151 H   0  0  0  0  0  0  0  0  0  0  0  0
    5.7904   -2.3504    0.3970 H   0  0  0  0  0  0  0  0  0  0  0  0
    8.2661   -1.9958    0.4941 H   0  0  0  0  0  0  0  0  0  0  0  0
    3.3215    1.4980   -0.1833 H   0  0  0  0  0  0  0  0  0  0  0  0
   -1.4848    1.2555   -0.4247 H   0  0  0  0  0  0  0  0  0  0  0  0
   -0.6775   -3.3790    0.1129 H   0  0  0  0  0  0  0  0  0  0  0  0
   -2.5844   -4.9965    0.1846 H   0  0  0  0  0  0  0  0  0  0  0  0
   -5.3123   -1.8012   -0.2618 H   0  0  0  0  0  0  0  0  0  0  0  0
   -5.3620   -0.0940   -1.3386 H   0  0  0  0  0  0  0  0  0  0  0  0
   -5.3933    0.0919    0.4679 H   0  0  0  0  0  0  0  0  0  0  0  0
   -3.2337    2.6352   -0.5799 H   0  0  0  0  0  0  0  0  0  0  0  0
   -3.8788    4.9884   -0.8291 H   0  0  0  0  0  0  0  0  0  0  0  0
   -6.2200    5.5550   -1.0051 H   0  0  0  0  0  0  0  0  0  0  0  0
   -7.9408    3.8553   -0.9419 H   0  0  0  0  0  0  0  0  0  0  0  0
   -7.1609   -4.6506   -0.5155 H   0  0  0  0  0  0  0  0  0  0  0  0
  1  2  1  0
  2  3  1  0
  3  4  2  0
  4  5  1  0
  5  6  2  0
  6  7  1  0
  7  8  2  0
  6  9  1  0
  9 10  2  0
  9 11  1  0
 11 12  1  0
 12 13  2  0
 13 14  1  0
 14 15  2  0
 15 16  1  0
 15 17  1  0
 17 18  2  0
 18 19  1  0
 19 20  2  0
 20 21  1  0
 21 22  2  0
 22 23  1  0
 23 24  1  0
 24 25  1  0
 25 26  2  0
 26 27  1  0
 27 28  2  0
 28 29  1  0
 29 30  2  0
 30 31  1  0
 20 32  1  0
 32 33  1  0
 32 34  2  0
  8  3  1  0
 16 12  1  0
 22 17  1  0
 30 25  1  0
  1 35  1  0
  1 36  1  0
  1 37  1  0
  4 38  1  0
  5 39  1  0
  7 40  1  0
  8 41  1  0
 11 42  1  0
 14 43  1  0
 18 44  1  0
 19 45  1  0
 21 46  1  0
 24 47  1  0
 24 48  1  0
 26 49  1  0
 27 50  1  0
 28 51  1  0
 29 52  1  0
 33 53  1  0
M  END
$$$$
[H]OC([H])([H])[C@@]1([H])OC([H])([H])[C@@]([H])(O[H])[C@@]([H])(O[H])[C@@]1([H])O[H]
     RDKit          3D

 23 23  0  0  0  0  0  0  0  0999 V2000
    2.8216   -0.2096    1.8240 O   0  0  0  0  0  0  0  0  0  0  0  0
    2.1636    0.5812    0.8854 C   0  0  0  0  0  0  0  0  0  0  0  0
    0.9978   -0.1611    0.2745 C   0  0  1  0  0  0  0  0  0  0  0  0
    0.1127   -0.5013    1.2784 O   0  0  0  0  0  0  0  0  0  0  0  0
   -0.9674   -1.2324    0.8456 C   0  0  0  0  0  0  0  0  0  0  0  0
   -1.7885   -0.4932   -0.2008 C   0  0  1  0  0  0  0  0  0  0  0  0
   -2.4155    0.6255    0.3131 O   0  0  0  0  0  0  0  0  0  0  0  0
   -0.8280   -0.1418   -1.3227 C   0  0  1  0  0  0  0  0  0  0  0  0
   -1.4400    0.4500   -2.3959 O   0  0  0  0  0  0  0  0  0  0  0  0
    0.2565    0.7295   -0.7003 C   0  0  1  0  0  0  0  0  0  0  0  0
   -0.3123    1.7698    0.0417 O   0  0  0  0  0  0  0  0  0  0  0  0
    3.5591   -0.7387    1.3960 H   0  0  0  0  0  0  0  0  0  0  0  0
    1.8105    1.5078    1.3870 H   0  0  0  0  0  0  0  0  0  0  0  0
    2.8772    0.8436    0.0727 H   0  0  0  0  0  0  0  0  0  0  0  0
    1.3971   -1.0351   -0.2828 H   0  0  0  0  0  0  0  0  0  0  0  0
   -0.6714   -2.2081    0.3660 H   0  0  0  0  0  0  0  0  0  0  0  0
   -1.5845   -1.4726    1.7432 H   0  0  0  0  0  0  0  0  0  0  0  0
   -2.5475   -1.2098   -0.5761 H   0  0  0  0  0  0  0  0  0  0  0  0
   -2.5912    0.5128    1.2923 H   0  0  0  0  0  0  0  0  0  0  0  0
   -0.3187   -1.1029   -1.5965 H   0  0  0  0  0  0  0  0  0  0  0  0
   -1.5925   -0.2759   -3.0830 H   0  0  0  0  0  0  0  0  0  0  0  0
    0.9562    1.1248   -1.4377 H   0  0  0  0  0  0  0  0  0  0  0  0
    0.1052    2.6374   -0.1240 H   0  0  0  0  0  0  0  0  0  0  0  0
  1  2  1  0
  2  3  1  0
  3  4  1  0
  4  5  1  0
  5  6  1  0
  6  7  1  0
  6  8  1  0
  8  9  1  0
  8 10  1  0
 10 11  1  0
 10  3  1  0
  1 12  1  0
  2 13  1  0
  2 14  1  0
  3 15  1  6
  5 16  1  0
  5 17  1  0
  6 18  1  6
  7 19  1  0
  8 20  1  6
  9 21  1  0
 10 22  1  6
 11 23  1  0
M  END
$$$$
[H]/C(=C(/[H])C([H])([H])N1C([H])([H])C([H])([H])N(C([H])([H])[C@]2([H])ON=C3c4c([H])c(OC([H])([H])[H])c(OC([H])([H])[H])c([H])c4OC([H])([H])[C@]32[H])C([H])([H])C1([H])[H])c1c([H])c([H])c([H])c([H])c1[H]
     RDKit          3D

 64 68  0  0  0  0  0  0  0  0999 V2000
   -8.0974   -0.5444   -1.9618 C   0  0  0  0  0  0  0  0  0  0  0  0
   -7.8931   -1.5243   -0.8837 O   0  0  0  0  0  0  0  0  0  0  0  0
   -6.5042   -1.2847   -0.5881 C   0  0  0  0  0  0  0  0  0  0  0  0
   -5.5014   -0.9530   -1.3888 C   0  0  0  0  0  0  0  0  0  0  0  0
   -4.2402   -0.5224   -0.8116 C   0  0  0  0  0  0  0  0  0  0  0  0
   -3.2756   -0.2582   -1.6891 O   0  0  0  0  0  0  0  0  0  0  0  0
   -2.4116    0.8727   -1.3620 C   0  0  0  0  0  0  0  0  0  0  0  0
   -1.9700    0.7786    0.0243 C   0  0  1  0  0  0  0  0  0  0  0  0
   -1.6346    2.2204    0.7059 C   0  0  2  0  0  0  0  0  0  0  0  0
   -0.2394    2.6005    0.3242 C   0  0  0  0  0  0  0  0  0  0  0  0
    0.6942    1.5921    0.1395 N   0  0  0  0  0  0  0  0  0  0  0  0
    1.2828    0.7535    1.0830 C   0  0  0  0  0  0  0  0  0  0  0  0
    2.6881    0.4212    0.5691 C   0  0  0  0  0  0  0  0  0  0  0  0
    2.7326   -0.3797   -0.6219 N   0  0  0  0  0  0  0  0  0  0  0  0
    3.8495    0.0373   -1.4845 C   0  0  0  0  0  0  0  0  0  0  0  0
    5.0989    0.0092   -0.7386 C   0  0  0  0  0  0  0  0  0  0  0  0
    5.8349   -1.0662   -0.5927 C   0  0  0  0  0  0  0  0  0  0  0  0
    7.0615   -0.9651    0.1300 C   0  0  0  0  0  0  0  0  0  0  0  0
    7.4704   -1.9770    0.9165 C   0  0  0  0  0  0  0  0  0  0  0  0
    8.7883   -1.9316    1.3436 C   0  0  0  0  0  0  0  0  0  0  0  0
    9.6434   -0.8890    0.9746 C   0  0  0  0  0  0  0  0  0  0  0  0
    9.1954    0.1183    0.1649 C   0  0  0  0  0  0  0  0  0  0  0  0
    7.8408    0.1188   -0.2910 C   0  0  0  0  0  0  0  0  0  0  0  0
    1.5547    0.1139   -1.4818 C   0  0  0  0  0  0  0  0  0  0  0  0
    1.3096    1.5530   -1.0922 C   0  0  0  0  0  0  0  0  0  0  0  0
   -1.7079    1.7839    2.0455 O   0  0  0  0  0  0  0  0  0  0  0  0
   -2.7868    0.9880    2.1395 N   0  0  0  0  0  0  0  0  0  0  0  0
   -3.0319    0.3733    0.9780 C   0  0  0  0  0  0  0  0  0  0  0  0
   -4.1597   -0.5052    0.5324 C   0  0  0  0  0  0  0  0  0  0  0  0
   -5.1891   -0.9128    1.4423 C   0  0  0  0  0  0  0  0  0  0  0  0
   -6.3670   -1.3066    0.8483 C   0  0  0  0  0  0  0  0  0  0  0  0
   -7.5442   -1.6983    1.4063 O   0  0  0  0  0  0  0  0  0  0  0  0
   -8.5393   -2.0294    1.8923 C   0  0  0  0  0  0  0  0  0  0  0  0
   -7.8115    0.4162   -1.0097 H   0  0  0  0  0  0  0  0  0  0  0  0
   -7.4645   -0.2132   -2.6442 H   0  0  0  0  0  0  0  0  0  0  0  0
   -9.1948   -0.1703   -1.9222 H   0  0  0  0  0  0  0  0  0  0  0  0
   -5.6380   -1.1245   -2.4705 H   0  0  0  0  0  0  0  0  0  0  0  0
   -1.5977    0.7883   -2.1007 H   0  0  0  0  0  0  0  0  0  0  0  0
   -2.9256    1.8475   -1.5502 H   0  0  0  0  0  0  0  0  0  0  0  0
   -1.1386    0.1285    0.1942 H   0  0  0  0  0  0  0  0  0  0  0  0
   -2.3789    2.8730    0.3984 H   0  0  0  0  0  0  0  0  0  0  0  0
    0.1352    3.3352    1.1895 H   0  0  0  0  0  0  0  0  0  0  0  0
   -0.2614    3.2594   -0.5199 H   0  0  0  0  0  0  0  0  0  0  0  0
    0.8277   -0.1806    1.3346 H   0  0  0  0  0  0  0  0  0  0  0  0
    1.4964    1.2722    2.0551 H   0  0  0  0  0  0  0  0  0  0  0  0
    3.1160   -0.2833    1.3795 H   0  0  0  0  0  0  0  0  0  0  0  0
    3.3118    1.3107    0.5912 H   0  0  0  0  0  0  0  0  0  0  0  0
    3.6241    0.9986   -1.9435 H   0  0  0  0  0  0  0  0  0  0  0  0
    3.8943   -0.6985   -2.3391 H   0  0  0  0  0  0  0  0  0  0  0  0
    5.4620    0.9982   -0.3533 H   0  0  0  0  0  0  0  0  0  0  0  0
    5.4118   -2.0163   -0.9211 H   0  0  0  0  0  0  0  0  0  0  0  0
    6.8048   -2.7653    1.1919 H   0  0  0  0  0  0  0  0  0  0  0  0
    9.1414   -2.7035    2.0246 H   0  0  0  0  0  0  0  0  0  0  0  0
   10.6435   -0.9421    1.2820 H   0  0  0  0  0  0  0  0  0  0  0  0
    9.8518    0.9317   -0.1243 H   0  0  0  0  0  0  0  0  0  0  0  0
    7.4657    0.9175   -0.8919 H   0  0  0  0  0  0  0  0  0  0  0  0
    0.6946   -0.5680   -1.2255 H   0  0  0  0  0  0  0  0  0  0  0  0
    1.8118   -0.0625   -2.5447 H   0  0  0  0  0  0  0  0  0  0  0  0
    0.7104    2.0547   -1.8956 H   0  0  0  0  0  0  0  0  0  0  0  0
    2.3299    2.0508   -1.0610 H   0  0  0  0  0  0  0  0  0  0  0  0
   -4.9619   -0.7844    2.4157 H   0  0  0  0  0  0  0  0  0  0  0  0
   -8.7014   -2.7186    2.7106 H   0  0  0  0  0  0  0  0  0  0  0  0
   -9.2834   -1.0713    2.0896 H   0  0  0  0  0  0  0  0  0  0  0  0
   -9.3272   -2.4668    1.1521 H   0  0  0  0  0  0  0  0  0  0  0  0
  1  2  1  0
  2  3  1  0
  3  4  2  0
  4  5  1  0
  5  6  1  0
  6  7  1  0
  7  8  1  0
  8  9  1  0
  9 10  1  0
 10 11  1  0
 11 12  1  0
 12 13  1  0
 13 14  1  0
 14 15  1  0
 15 16  1  0
 16 17  2  0
 17 18  1  0
 18 19  2  0
 19 20  1  0
 20 21  2  0
 21 22  1  0
 22 23  2  0
 14 24  1  0
 24 25  1  0
  9 26  1  0
 26 27  1  0
 27 28  2  0
 28 29  1  0
 29 30  1  0
 30 31  2  0
 31 32  1  0
 32 33  1  0
 31  3  1  0
 29  5  2  0
 28  8  1  0
 25 11  1  0
 23 18  1  0
  1 34  1  0
  1 35  1  0
  1 36  1  0
  4 37  1  0
  7 38  1  0
  7 39  1  0
  8 40  1  6
  9 41  1  1
 10 42  1  0
 10 43  1  0
 12 44  1  0
 12 45  1  0
 13 46  1  0
 13 47  1  0
 15 48  1  0
 15 49  1  0
 16 50  1  0
 17 51  1  0
 19 52  1  0
 20 53  1  0
 21 54  1  0
 22 55  1  0
 23 56  1  0
 24 57  1  0
 24 58  1  0
 25 59  1  0
 25 60  1  0
 30 61  1  0
 33 62  1  0
 33 63  1  0
 33 64  1  0
M  END
$$$$
[H]Oc1c([H])c(C([H])([H])[H])c2c(oc(=O)c3c(O[H])c([H])c(O[H])c([H])c32)c1[H]
     RDKit          3D

 29 31  0  0  0  0  0  0  0  0999 V2000
   -1.5540    2.0115   -0.0779 C   0  0  0  0  0  0  0  0  0  0  0  0
   -1.6875    0.5760    0.0494 C   0  0  0  0  0  0  0  0  0  0  0  0
   -2.9993    0.0311    0.1531 C   0  0  0  0  0  0  0  0  0  0  0  0
   -3.2530   -1.3047    0.2737 C   0  0  0  0  0  0  0  0  0  0  0  0
   -4.5438   -1.7832    0.3710 O   0  0  0  0  0  0  0  0  0  0  0  0
   -2.2059   -2.1757    0.2976 C   0  0  0  0  0  0  0  0  0  0  0  0
   -0.9131   -1.7095    0.2013 C   0  0  0  0  0  0  0  0  0  0  0  0
    0.0740   -2.5715    0.2271 O   0  0  0  0  0  0  0  0  0  0  0  0
    1.3147   -2.2232    0.1427 C   0  0  0  0  0  0  0  0  0  0  0  0
    2.2415   -3.0642    0.1693 O   0  0  0  0  0  0  0  0  0  0  0  0
    1.6542   -0.8950    0.0192 C   0  0  0  0  0  0  0  0  0  0  0  0
    2.9696   -0.5208   -0.0696 C   0  0  0  0  0  0  0  0  0  0  0  0
    3.9322   -1.5159   -0.0322 O   0  0  0  0  0  0  0  0  0  0  0  0
    3.2978    0.8039   -0.1911 C   0  0  0  0  0  0  0  0  0  0  0  0
    2.3256    1.7611   -0.2250 C   0  0  0  0  0  0  0  0  0  0  0  0
    2.6257    3.1012   -0.3464 O   0  0  0  0  0  0  0  0  0  0  0  0
    0.9672    1.3930   -0.1348 C   0  0  0  0  0  0  0  0  0  0  0  0
    0.6594    0.0754   -0.0150 C   0  0  0  0  0  0  0  0  0  0  0  0
   -0.6661   -0.3326    0.0778 C   0  0  0  0  0  0  0  0  0  0  0  0
   -2.6501    2.3997   -0.0722 H   0  0  0  0  0  0  0  0  0  0  0  0
   -1.3408    2.4378   -1.0826 H   0  0  0  0  0  0  0  0  0  0  0  0
   -1.2712    2.5988    0.8209 H   0  0  0  0  0  0  0  0  0  0  0  0
   -3.8357    0.6980    0.1365 H   0  0  0  0  0  0  0  0  0  0  0  0
   -5.0476   -2.0276   -0.4797 H   0  0  0  0  0  0  0  0  0  0  0  0
   -2.3586   -3.2327    0.3908 H   0  0  0  0  0  0  0  0  0  0  0  0
    4.8965   -1.2344   -0.0979 H   0  0  0  0  0  0  0  0  0  0  0  0
    4.3544    1.0599   -0.2590 H   0  0  0  0  0  0  0  0  0  0  0  0
    2.6827    3.4649   -1.3101 H   0  0  0  0  0  0  0  0  0  0  0  0
    0.3312    2.1787   -0.1676 H   0  0  0  0  0  0  0  0  0  0  0  0
  1  2  1  0
  2  3  2  0
  3  4  1  0
  4  5  1  0
  4  6  2  0
  6  7  1  0
  7  8  1  0
  8  9  1  0
  9 10  2  0
  9 11  1  0
 11 12  2  0
 12 13  1  0
 12 14  1  0
 14 15  2  0
 15 16  1  0
 15 17  1  0
 17 18  2  0
 18 19  1  0
 19  2  1  0
 19  7  2  0
 18 11  1  0
  1 20  1  0
  1 21  1  0
  1 22  1  0
  3 23  1  0
  5 24  1  0
  6 25  1  0
 13 26  1  0
 14 27  1  0
 16 28  1  0
 17 29  1  0
M  END
$$$$
[H]OC(=O)C([H])([H])C([H])([H])[C@@]([H])(C([H])([H])[H])[C@@]1([H])C([H])([H])C([H])([H])[C@]2([H])[C@]1(C([H])([H])[H])C([H])([H])C([H])([H])[C@]1([H])[C@@]3(C([H])([H])[H])C([H])([H])C([H])([H])C([H])(OC(=O)C([H])([H])[H])C([H])([H])[C@@]3([H])C([H])([H])[C@@]([H])(O[H])[C@]12[H]
     RDKit          3D

 73 76  0  0  0  0  0  0  0  0999 V2000
    5.1321    2.2006   -0.8730 C   0  0  0  0  0  0  0  0  0  0  0  0
    4.2098    1.4725    0.0763 C   0  0  2  0  0  0  0  0  0  0  0  0
    4.8996    0.8341    1.1892 C   0  0  0  0  0  0  0  0  0  0  0  0
    5.9169   -0.1994    1.0488 C   0  0  0  0  0  0  0  0  0  0  0  0
    7.2238    0.0788    0.4569 C   0  0  0  0  0  0  0  0  0  0  0  0
    8.0395   -1.0240    0.0422 O   0  0  0  0  0  0  0  0  0  0  0  0
    7.7491    1.1918    0.2547 O   0  0  0  0  0  0  0  0  0  0  0  0
    3.1583    0.7729   -0.6665 C   0  0  1  0  0  0  0  0  0  0  0  0
    3.5119   -0.2744   -1.6524 C   0  0  0  0  0  0  0  0  0  0  0  0
    2.2010   -1.0491   -1.9177 C   0  0  0  0  0  0  0  0  0  0  0  0
    1.1808   -0.1950   -1.2100 C   0  0  1  0  0  0  0  0  0  0  0  0
   -0.1164   -0.8247   -0.9130 C   0  0  2  0  0  0  0  0  0  0  0  0
   -0.8512   -0.9680   -2.2489 C   0  0  2  0  0  0  0  0  0  0  0  0
   -0.2880   -0.1310   -3.2208 O   0  0  0  0  0  0  0  0  0  0  0  0
   -2.2995   -0.6396   -2.1484 C   0  0  0  0  0  0  0  0  0  0  0  0
   -2.9261   -1.0884   -0.8206 C   0  0  2  0  0  0  0  0  0  0  0  0
   -4.3997   -0.9470   -0.9715 C   0  0  0  0  0  0  0  0  0  0  0  0
   -5.1399   -0.4072    0.2021 C   0  0  0  0  0  0  0  0  0  0  0  0
   -4.4215    0.6280    1.0029 C   0  0  0  0  0  0  0  0  0  0  0  0
   -3.1266    1.0213    0.3645 C   0  0  0  0  0  0  0  0  0  0  0  0
   -2.2916   -0.2557    0.2396 C   0  0  1  0  0  0  0  0  0  0  0  0
   -2.3217   -1.0343    1.5431 C   0  0  0  0  0  0  0  0  0  0  0  0
   -0.8941    0.1610   -0.0431 C   0  0  1  0  0  0  0  0  0  0  0  0
   -0.1065    0.4260    1.2226 C   0  0  0  0  0  0  0  0  0  0  0  0
    1.1937    1.1101    0.8559 C   0  0  0  0  0  0  0  0  0  0  0  0
    2.0099    0.1614    0.0535 C   0  0  2  0  0  0  0  0  0  0  0  0
    2.3411   -1.1108    0.7561 C   0  0  0  0  0  0  0  0  0  0  0  0
   -6.3204    0.2328   -0.3083 O   0  0  0  0  0  0  0  0  0  0  0  0
   -7.5926   -0.1996    0.0267 C   0  0  0  0  0  0  0  0  0  0  0  0
   -8.7337    0.5472   -0.5683 C   0  0  0  0  0  0  0  0  0  0  0  0
   -7.6939   -1.1739    0.7952 O   0  0  0  0  0  0  0  0  0  0  0  0
    5.7325    2.9811   -0.4069 H   0  0  0  0  0  0  0  0  0  0  0  0
    4.4068    2.7647   -1.5791 H   0  0  0  0  0  0  0  0  0  0  0  0
    5.6876    1.5712   -1.5612 H   0  0  0  0  0  0  0  0  0  0  0  0
    3.6414    2.3748    0.5731 H   0  0  0  0  0  0  0  0  0  0  0  0
    5.4634    1.7182    1.7169 H   0  0  0  0  0  0  0  0  0  0  0  0
    4.1736    0.6020    2.0540 H   0  0  0  0  0  0  0  0  0  0  0  0
    5.5220   -1.1728    0.6221 H   0  0  0  0  0  0  0  0  0  0  0  0
    6.1646   -0.5477    2.1265 H   0  0  0  0  0  0  0  0  0  0  0  0
    8.4457   -1.0305   -0.8890 H   0  0  0  0  0  0  0  0  0  0  0  0
    2.6542    1.6026   -1.3165 H   0  0  0  0  0  0  0  0  0  0  0  0
    3.8090    0.1826   -2.6359 H   0  0  0  0  0  0  0  0  0  0  0  0
    4.2500   -1.0147   -1.3736 H   0  0  0  0  0  0  0  0  0  0  0  0
    2.0249   -1.1403   -2.9910 H   0  0  0  0  0  0  0  0  0  0  0  0
    2.2664   -2.0807   -1.5064 H   0  0  0  0  0  0  0  0  0  0  0  0
    1.0350    0.7103   -1.7947 H   0  0  0  0  0  0  0  0  0  0  0  0
   -0.1102   -1.8303   -0.4825 H   0  0  0  0  0  0  0  0  0  0  0  0
   -0.7729   -2.0300   -2.6267 H   0  0  0  0  0  0  0  0  0  0  0  0
   -0.1091   -0.6477   -4.0618 H   0  0  0  0  0  0  0  0  0  0  0  0
   -2.5067    0.4350   -2.2262 H   0  0  0  0  0  0  0  0  0  0  0  0
   -2.8698   -1.2076   -2.9279 H   0  0  0  0  0  0  0  0  0  0  0  0
   -2.6738   -2.1662   -0.6612 H   0  0  0  0  0  0  0  0  0  0  0  0
   -4.8506   -1.9547   -1.1947 H   0  0  0  0  0  0  0  0  0  0  0  0
   -4.6694   -0.3415   -1.8882 H   0  0  0  0  0  0  0  0  0  0  0  0
   -5.4994   -1.2497    0.8633 H   0  0  0  0  0  0  0  0  0  0  0  0
   -4.2087    0.2851    2.0373 H   0  0  0  0  0  0  0  0  0  0  0  0
   -5.0130    1.5801    1.1385 H   0  0  0  0  0  0  0  0  0  0  0  0
   -3.2255    1.4699   -0.6263 H   0  0  0  0  0  0  0  0  0  0  0  0
   -2.6325    1.7530    1.0388 H   0  0  0  0  0  0  0  0  0  0  0  0
   -3.2532   -1.6192    1.6697 H   0  0  0  0  0  0  0  0  0  0  0  0
   -2.1160   -0.3830    2.4248 H   0  0  0  0  0  0  0  0  0  0  0  0
   -1.4901   -1.7662    1.4950 H   0  0  0  0  0  0  0  0  0  0  0  0
   -0.9090    1.1184   -0.6019 H   0  0  0  0  0  0  0  0  0  0  0  0
   -0.7040    1.0333    1.9139 H   0  0  0  0  0  0  0  0  0  0  0  0
    0.1626   -0.5158    1.7532 H   0  0  0  0  0  0  0  0  0  0  0  0
    1.0382    2.0270    0.2681 H   0  0  0  0  0  0  0  0  0  0  0  0
    1.7115    1.3182    1.8339 H   0  0  0  0  0  0  0  0  0  0  0  0
    2.4696   -0.9695    1.8394 H   0  0  0  0  0  0  0  0  0  0  0  0
    1.5358   -1.8841    0.6495 H   0  0  0  0  0  0  0  0  0  0  0  0
    3.2231   -1.5769    0.2802 H   0  0  0  0  0  0  0  0  0  0  0  0
   -9.7027    0.0418   -0.4344 H   0  0  0  0  0  0  0  0  0  0  0  0
   -8.7438    1.5959   -0.1976 H   0  0  0  0  0  0  0  0  0  0  0  0
   -8.6018    0.6474   -1.6826 H   0  0  0  0  0  0  0  0  0  0  0  0
  1  2  1  0
  2  3  1  0
  3  4  1  0
  4  5  1  0
  5  6  1  0
  5  7  2  0
  2  8  1  0
  8  9  1  0
  9 10  1  0
 10 11  1  0
 11 12  1  0
 12 13  1  0
 13 14  1  0
 13 15  1  0
 15 16  1  0
 16 17  1  0
 17 18  1  0
 18 19  1  0
 19 20  1  0
 20 21  1  0
 21 22  1  1
 21 23  1  0
 23 24  1  0
 24 25  1  0
 25 26  1  0
 26 27  1  1
 18 28  1  0
 28 29  1  0
 29 30  1  0
 29 31  2  0
 26  8  1  0
 26 11  1  0
 23 12  1  0
 21 16  1  0
  1 32  1  0
  1 33  1  0
  1 34  1  0
  2 35  1  1
  3 36  1  0
  3 37  1  0
  4 38  1  0
  4 39  1  0
  6 40  1  0
  8 41  1  6
  9 42  1  0
  9 43  1  0
 10 44  1  0
 10 45  1  0
 11 46  1  6
 12 47  1  1
 13 48  1  6
 14 49  1  0
 15 50  1  0
 15 51  1  0
 16 52  1  1
 17 53  1  0
 17 54  1  0
 18 55  1  0
 19 56  1  0
 19 57  1  0
 20 58  1  0
 20 59  1  0
 22 60  1  0
 22 61  1  0
 22 62  1  0
 23 63  1  6
 24 64  1  0
 24 65  1  0
 25 66  1  0
 25 67  1  0
 27 68  1  0
 27 69  1  0
 27 70  1  0
 30 71  1  0
 30 72  1  0
 30 73  1  0
M  END
$$$$
[H]C#C[C@]1(O[H])C([H])([H])C([H])([H])[C@]2([H])[C@]1(C([H])([H])[H])C([H])([H])C([H])([H])[C@]1([H])[C@]3(C([H])([H])[H])C(=C([H])C([H])([H])[C@@]21[H])C([H])([H])[C@@]([H])(O[H])C([H])([H])C3([H])[H]
     RDKit          3D

 53 56  0  0  0  0  0  0  0  0999 V2000
   -2.2868    0.7680    1.7014 C   0  0  0  0  0  0  0  0  0  0  0  0
   -2.4679    0.1118    0.3730 C   0  0  2  0  0  0  0  0  0  0  0  0
   -1.9981   -1.3214    0.3525 C   0  0  0  0  0  0  0  0  0  0  0  0
   -0.5055   -1.4331    0.4890 C   0  0  0  0  0  0  0  0  0  0  0  0
    0.2580   -0.5155   -0.4435 C   0  0  1  0  0  0  0  0  0  0  0  0
   -0.2836    0.8977   -0.3715 C   0  0  1  0  0  0  0  0  0  0  0  0
    0.4910    1.8219   -1.2492 C   0  0  0  0  0  0  0  0  0  0  0  0
    1.9258    1.7241   -0.8970 C   0  0  0  0  0  0  0  0  0  0  0  0
    2.4782    0.6512   -0.3954 C   0  0  0  0  0  0  0  0  0  0  0  0
    3.9197    0.6631   -0.0817 C   0  0  0  0  0  0  0  0  0  0  0  0
    4.6227   -0.5387   -0.6567 C   0  0  1  0  0  0  0  0  0  0  0  0
    5.7613   -0.7684    0.1278 O   0  0  0  0  0  0  0  0  0  0  0  0
    3.8280   -1.7946   -0.6861 C   0  0  0  0  0  0  0  0  0  0  0  0
    2.3717   -1.6271   -1.0467 C   0  0  0  0  0  0  0  0  0  0  0  0
    1.7144   -0.5724   -0.1329 C   0  0  2  0  0  0  0  0  0  0  0  0
    1.9771   -0.9642    1.3156 C   0  0  0  0  0  0  0  0  0  0  0  0
   -1.7358    0.8149   -0.7450 C   0  0  2  0  0  0  0  0  0  0  0  0
   -2.4553    2.1025   -0.8424 C   0  0  0  0  0  0  0  0  0  0  0  0
   -3.8943    1.7245   -0.5786 C   0  0  0  0  0  0  0  0  0  0  0  0
   -3.8830    0.2803   -0.0664 C   0  0  2  0  0  0  0  0  0  0  0  0
   -4.7310    0.1873    1.0325 O   0  0  0  0  0  0  0  0  0  0  0  0
   -4.2427   -0.6364   -1.1304 C   0  0  0  0  0  0  0  0  0  0  0  0
   -4.5601   -1.3914   -2.0261 C   0  0  0  0  0  0  0  0  0  0  0  0
   -1.5363    0.2293    2.3259 H   0  0  0  0  0  0  0  0  0  0  0  0
   -2.0108    1.8354    1.6490 H   0  0  0  0  0  0  0  0  0  0  0  0
   -3.2364    0.7380    2.3129 H   0  0  0  0  0  0  0  0  0  0  0  0
   -2.4468   -1.8281    1.2316 H   0  0  0  0  0  0  0  0  0  0  0  0
   -2.3749   -1.8432   -0.5463 H   0  0  0  0  0  0  0  0  0  0  0  0
   -0.2252   -2.4708    0.2176 H   0  0  0  0  0  0  0  0  0  0  0  0
   -0.1858   -1.2944    1.5532 H   0  0  0  0  0  0  0  0  0  0  0  0
    0.0728   -0.9231   -1.4808 H   0  0  0  0  0  0  0  0  0  0  0  0
   -0.1354    1.2339    0.6828 H   0  0  0  0  0  0  0  0  0  0  0  0
    0.3080    1.6580   -2.3315 H   0  0  0  0  0  0  0  0  0  0  0  0
    0.1229    2.8586   -1.0359 H   0  0  0  0  0  0  0  0  0  0  0  0
    2.5114    2.6466   -1.0940 H   0  0  0  0  0  0  0  0  0  0  0  0
    4.4113    1.5694   -0.5486 H   0  0  0  0  0  0  0  0  0  0  0  0
    4.1441    0.7074    1.0036 H   0  0  0  0  0  0  0  0  0  0  0  0
    5.0320   -0.2622   -1.6726 H   0  0  0  0  0  0  0  0  0  0  0  0
    5.9498   -1.7177    0.2642 H   0  0  0  0  0  0  0  0  0  0  0  0
    4.2682   -2.4641   -1.4552 H   0  0  0  0  0  0  0  0  0  0  0  0
    3.9328   -2.3643    0.2825 H   0  0  0  0  0  0  0  0  0  0  0  0
    2.3300   -1.1992   -2.0694 H   0  0  0  0  0  0  0  0  0  0  0  0
    1.8851   -2.5972   -0.9632 H   0  0  0  0  0  0  0  0  0  0  0  0
    1.5087   -0.2540    2.0008 H   0  0  0  0  0  0  0  0  0  0  0  0
    1.6982   -2.0339    1.5070 H   0  0  0  0  0  0  0  0  0  0  0  0
    3.0717   -0.9348    1.4876 H   0  0  0  0  0  0  0  0  0  0  0  0
   -1.8284    0.1954   -1.6527 H   0  0  0  0  0  0  0  0  0  0  0  0
   -2.3888    2.5100   -1.8611 H   0  0  0  0  0  0  0  0  0  0  0  0
   -2.0734    2.8540   -0.1277 H   0  0  0  0  0  0  0  0  0  0  0  0
   -4.4797    1.7202   -1.5417 H   0  0  0  0  0  0  0  0  0  0  0  0
   -4.3649    2.4073    0.1586 H   0  0  0  0  0  0  0  0  0  0  0  0
   -5.4273    0.9069    0.9343 H   0  0  0  0  0  0  0  0  0  0  0  0
   -4.8368   -2.0676   -2.8030 H   0  0  0  0  0  0  0  0  0  0  0  0
  2  1  1  1
  2  3  1  0
  3  4  1  0
  4  5  1  0
  5  6  1  0
  6  7  1  0
  7  8  1  0
  8  9  2  0
  9 10  1  0
 10 11  1  0
 11 12  1  0
 11 13  1  0
 13 14  1  0
 14 15  1  0
 15 16  1  1
  6 17  1  0
 17 18  1  0
 18 19  1  0
 19 20  1  0
 20 21  1  0
 20 22  1  6
 22 23  3  0
 17  2  1  0
 20  2  1  0
 15  5  1  0
 15  9  1  0
  1 24  1  0
  1 25  1  0
  1 26  1  0
  3 27  1  0
  3 28  1  0
  4 29  1  0
  4 30  1  0
  5 31  1  6
  6 32  1  1
  7 33  1  0
  7 34  1  0
  8 35  1  0
 10 36  1  0
 10 37  1  0
 11 38  1  6
 12 39  1  0
 13 40  1  0
 13 41  1  0
 14 42  1  0
 14 43  1  0
 16 44  1  0
 16 45  1  0
 16 46  1  0
 17 47  1  6
 18 48  1  0
 18 49  1  0
 19 50  1  0
 19 51  1  0
 21 52  1  0
 23 53  1  0
M  END
$$$$
[H]ON([H])C(=O)C([H])([H])N(C([H])([H])c1c([H])c([H])c([N+](=O)[O-])c([H])c1[H])S(=O)(=O)c1c([H])c([H])c(N([H])C(=O)N([H])S(=O)(=O)c2c([H])c([H])c(Cl)c([H])c2[H])c([H])c1[H]
     RDKit          3D

 59 61  0  0  0  0  0  0  0  0999 V2000
   -6.4450   -3.7716    3.2074 O   0  0  0  0  0  0  0  0  0  0  0  0
   -5.5611   -2.8491    2.7220 N   0  0  0  0  0  0  0  0  0  0  0  0
   -5.3911   -2.6391    1.3277 C   0  0  0  0  0  0  0  0  0  0  0  0
   -6.0865   -3.3359    0.5470 O   0  0  0  0  0  0  0  0  0  0  0  0
   -4.4096   -1.6170    0.9029 C   0  0  0  0  0  0  0  0  0  0  0  0
   -4.2811   -1.4506   -0.4789 N   0  0  0  0  0  0  0  0  0  0  0  0
   -5.0303   -0.4817   -1.1511 C   0  0  0  0  0  0  0  0  0  0  0  0
   -4.4847    0.8983   -1.1228 C   0  0  0  0  0  0  0  0  0  0  0  0
   -5.0231    1.9085   -1.9139 C   0  0  0  0  0  0  0  0  0  0  0  0
   -4.5334    3.1890   -1.8919 C   0  0  0  0  0  0  0  0  0  0  0  0
   -3.4726    3.5405   -1.0765 C   0  0  0  0  0  0  0  0  0  0  0  0
   -2.9219    2.5517   -0.2816 C   0  0  0  0  0  0  0  0  0  0  0  0
   -3.4324    1.2722   -0.3220 C   0  0  0  0  0  0  0  0  0  0  0  0
   -2.9586    4.8671   -1.0452 N   0  0  0  0  0  0  0  0  0  0  0  0
   -1.9097    5.1591   -0.2154 O   0  0  0  0  0  0  0  0  0  0  0  0
   -3.4286    5.7740   -1.7487 O   0  0  0  0  0  0  0  0  0  0  0  0
   -3.1474   -2.3659   -1.3176 S   0  0  0  0  0  0  0  0  0  0  0  0
   -3.1827   -2.1031   -2.8160 O   0  0  0  0  0  0  0  0  0  0  0  0
   -3.4855   -3.8351   -1.0757 O   0  0  0  0  0  0  0  0  0  0  0  0
   -1.4882   -2.1080   -0.8326 C   0  0  0  0  0  0  0  0  0  0  0  0
   -0.6861   -1.2036   -1.4827 C   0  0  0  0  0  0  0  0  0  0  0  0
    0.6355   -0.9749   -1.1189 C   0  0  0  0  0  0  0  0  0  0  0  0
    1.2235   -1.6479   -0.0768 C   0  0  0  0  0  0  0  0  0  0  0  0
    2.5590   -1.5069    0.3579 N   0  0  0  0  0  0  0  0  0  0  0  0
    3.5989   -0.9284   -0.3565 C   0  0  0  0  0  0  0  0  0  0  0  0
    3.4683   -0.4576   -1.5053 O   0  0  0  0  0  0  0  0  0  0  0  0
    4.8945   -0.8482    0.2153 N   0  0  0  0  0  0  0  0  0  0  0  0
    6.1708   -0.1299   -0.6762 S   0  0  0  0  0  0  0  0  0  0  0  0
    5.6005    0.5871   -1.8690 O   0  0  0  0  0  0  0  0  0  0  0  0
    7.0781   -1.2146   -1.1787 O   0  0  0  0  0  0  0  0  0  0  0  0
    7.0513    0.9895    0.3568 C   0  0  0  0  0  0  0  0  0  0  0  0
    6.6978    2.3255    0.4264 C   0  0  0  0  0  0  0  0  0  0  0  0
    7.3881    3.2023    1.2354 C   0  0  0  0  0  0  0  0  0  0  0  0
    8.4475    2.7814    1.9985 C   0  0  0  0  0  0  0  0  0  0  0  0
    9.3511    3.8733    3.0440 Cl  0  0  0  0  0  0  0  0  0  0  0  0
    8.8150    1.4500    1.9417 C   0  0  0  0  0  0  0  0  0  0  0  0
    8.1164    0.5766    1.1268 C   0  0  0  0  0  0  0  0  0  0  0  0
    0.3973   -2.5806    0.5946 C   0  0  0  0  0  0  0  0  0  0  0  0
   -0.8981   -2.7887    0.2202 C   0  0  0  0  0  0  0  0  0  0  0  0
   -7.1927   -3.9168    2.5572 H   0  0  0  0  0  0  0  0  0  0  0  0
   -5.0315   -2.3234    3.4553 H   0  0  0  0  0  0  0  0  0  0  0  0
   -3.4423   -1.8359    1.4199 H   0  0  0  0  0  0  0  0  0  0  0  0
   -4.7594   -0.6560    1.3575 H   0  0  0  0  0  0  0  0  0  0  0  0
   -5.2199   -0.8298   -2.1893 H   0  0  0  0  0  0  0  0  0  0  0  0
   -6.0422   -0.4140   -0.6583 H   0  0  0  0  0  0  0  0  0  0  0  0
   -5.8550    1.6764   -2.5676 H   0  0  0  0  0  0  0  0  0  0  0  0
   -4.9499    3.9838   -2.5081 H   0  0  0  0  0  0  0  0  0  0  0  0
   -2.0911    2.7927    0.3671 H   0  0  0  0  0  0  0  0  0  0  0  0
   -2.9544    0.5485    0.3237 H   0  0  0  0  0  0  0  0  0  0  0  0
   -1.1081   -0.6386   -2.3250 H   0  0  0  0  0  0  0  0  0  0  0  0
    1.2210   -0.2332   -1.6638 H   0  0  0  0  0  0  0  0  0  0  0  0
    2.7879   -1.8788    1.3329 H   0  0  0  0  0  0  0  0  0  0  0  0
    5.0516   -1.2248    1.1652 H   0  0  0  0  0  0  0  0  0  0  0  0
    5.8525    2.6551   -0.1858 H   0  0  0  0  0  0  0  0  0  0  0  0
    7.0923    4.2403    1.2712 H   0  0  0  0  0  0  0  0  0  0  0  0
    9.6466    1.0723    2.5280 H   0  0  0  0  0  0  0  0  0  0  0  0
    8.3808   -0.4853    1.0579 H   0  0  0  0  0  0  0  0  0  0  0  0
    0.8477   -3.1299    1.4310 H   0  0  0  0  0  0  0  0  0  0  0  0
   -1.4698   -3.5104    0.7720 H   0  0  0  0  0  0  0  0  0  0  0  0
  1  2  1  0
  2  3  1  0
  3  4  2  0
  3  5  1  0
  5  6  1  0
  6  7  1  0
  7  8  1  0
  8  9  2  0
  9 10  1  0
 10 11  2  0
 11 12  1  0
 12 13  2  0
 11 14  1  0
 14 15  1  0
 14 16  2  0
  6 17  1  0
 17 18  2  0
 17 19  2  0
 17 20  1  0
 20 21  2  0
 21 22  1  0
 22 23  2  0
 23 24  1  0
 24 25  1  0
 25 26  2  0
 25 27  1  0
 27 28  1  0
 28 29  2  0
 28 30  2  0
 28 31  1  0
 31 32  2  0
 32 33  1  0
 33 34  2  0
 34 35  1  0
 34 36  1  0
 36 37  2  0
 23 38  1  0
 38 39  2  0
 13  8  1  0
 39 20  1  0
 37 31  1  0
  1 40  1  0
  2 41  1  0
  5 42  1  0
  5 43  1  0
  7 44  1  0
  7 45  1  0
  9 46  1  0
 10 47  1  0
 12 48  1  0
 13 49  1  0
 21 50  1  0
 22 51  1  0
 24 52  1  0
 27 53  1  0
 32 54  1  0
 33 55  1  0
 36 56  1  0
 37 57  1  0
 38 58  1  0
 39 59  1  0
M  CHG  2  14   1  15  -1
M  END
$$$$
[H]c1c([H])c([H])c2c(c1[H])c(C([H])([H])[C@@]([H])(C(=O)N([H])[H])N([H])C(=O)[C@@]([H])(N([H])C(=O)[C@@]([H])(N([H])C(=O)[C@@]1([H])N(C(=O)[C@@]([H])(N([H])[H])C([H])([H])C([H])([H])C([H])([H])N=C(N([H])[H])N([H])[H])C([H])([H])C([H])([H])C1([H])[H])C([H])([H])C([H])(C([H])([H])[H])C([H])([H])[H])C([H])([H])C([H])([H])C([H])([H])C([H])([H])N([H])[H])c([H])n2[H]
     RDKit          3D

105107  0  0  0  0  0  0  0  0999 V2000
    1.5094   -3.9633    2.4364 C   0  0  0  0  0  0  0  0  0  0  0  0
    1.5418   -3.4411    0.9900 C   0  0  0  0  0  0  0  0  0  0  0  0
    1.0970   -4.6567    0.1581 C   0  0  0  0  0  0  0  0  0  0  0  0
    0.5868   -2.3121    0.8348 C   0  0  0  0  0  0  0  0  0  0  0  0
    0.5348   -1.6918   -0.5358 C   0  0  2  0  0  0  0  0  0  0  0  0
    1.7323   -1.0585   -0.9785 N   0  0  0  0  0  0  0  0  0  0  0  0
    2.8334   -0.5908   -0.2550 C   0  0  0  0  0  0  0  0  0  0  0  0
    2.9091   -0.6541    0.9784 O   0  0  0  0  0  0  0  0  0  0  0  0
    3.9850    0.0156   -0.9840 C   0  0  2  0  0  0  0  0  0  0  0  0
    4.6485   -1.0700   -1.8294 C   0  0  0  0  0  0  0  0  0  0  0  0
    5.3045   -1.9235   -0.7336 C   0  0  0  0  0  0  0  0  0  0  0  0
    5.6613   -0.9337    0.3484 C   0  0  0  0  0  0  0  0  0  0  0  0
    5.0681    0.3135   -0.0329 N   0  0  0  0  0  0  0  0  0  0  0  0
    5.3707    1.6540    0.3443 C   0  0  0  0  0  0  0  0  0  0  0  0
    4.7135    2.6231   -0.1817 O   0  0  0  0  0  0  0  0  0  0  0  0
    6.3973    2.0380    1.3107 C   0  0  1  0  0  0  0  0  0  0  0  0
    6.9997    0.9829    2.0617 N   0  0  0  0  0  0  0  0  0  0  0  0
    7.4537    2.9032    0.6160 C   0  0  0  0  0  0  0  0  0  0  0  0
    8.0951    2.1219   -0.5197 C   0  0  0  0  0  0  0  0  0  0  0  0
    9.1479    2.9331   -1.2350 C   0  0  0  0  0  0  0  0  0  0  0  0
   10.2261    3.3501   -0.3973 N   0  0  0  0  0  0  0  0  0  0  0  0
   11.2498    2.6508   -0.0685 C   0  0  0  0  0  0  0  0  0  0  0  0
   12.2069    3.2511    0.7733 N   0  0  0  0  0  0  0  0  0  0  0  0
   11.4221    1.3047   -0.5365 N   0  0  0  0  0  0  0  0  0  0  0  0
   -0.6743   -0.8998   -0.7888 C   0  0  0  0  0  0  0  0  0  0  0  0
   -0.5632    0.2282   -1.3434 O   0  0  0  0  0  0  0  0  0  0  0  0
   -1.9600   -1.3496   -0.4389 N   0  0  0  0  0  0  0  0  0  0  0  0
   -3.1223   -0.5538   -0.7069 C   0  0  1  0  0  0  0  0  0  0  0  0
   -3.9892   -1.2005   -1.7835 C   0  0  0  0  0  0  0  0  0  0  0  0
   -4.4357   -2.5898   -1.3142 C   0  0  0  0  0  0  0  0  0  0  0  0
   -5.2868   -3.1986   -2.4064 C   0  0  0  0  0  0  0  0  0  0  0  0
   -5.7760   -4.5742   -2.0437 C   0  0  0  0  0  0  0  0  0  0  0  0
   -6.5811   -4.6386   -0.8681 N   0  0  0  0  0  0  0  0  0  0  0  0
   -3.9924   -0.3335    0.4696 C   0  0  0  0  0  0  0  0  0  0  0  0
   -3.6558   -0.8375    1.5643 O   0  0  0  0  0  0  0  0  0  0  0  0
   -5.1877    0.4203    0.4141 N   0  0  0  0  0  0  0  0  0  0  0  0
   -6.0272    0.6136    1.6162 C   0  0  1  0  0  0  0  0  0  0  0  0
   -5.9690    2.0635    1.9128 C   0  0  0  0  0  0  0  0  0  0  0  0
   -6.3959    2.9945    0.8860 C   0  0  0  0  0  0  0  0  0  0  0  0
   -5.5128    3.6111   -0.0168 C   0  0  0  0  0  0  0  0  0  0  0  0
   -6.2121    4.3696   -0.8541 N   0  0  0  0  0  0  0  0  0  0  0  0
   -7.5356    4.2801   -0.5386 C   0  0  0  0  0  0  0  0  0  0  0  0
   -8.6516    4.8824   -1.1029 C   0  0  0  0  0  0  0  0  0  0  0  0
   -9.9155    4.6584   -0.6115 C   0  0  0  0  0  0  0  0  0  0  0  0
  -10.0078    3.8080    0.4654 C   0  0  0  0  0  0  0  0  0  0  0  0
   -8.9211    3.1960    1.0460 C   0  0  0  0  0  0  0  0  0  0  0  0
   -7.6419    3.4286    0.5390 C   0  0  0  0  0  0  0  0  0  0  0  0
   -7.2912   -0.0583    1.4885 C   0  0  0  0  0  0  0  0  0  0  0  0
   -8.1702   -0.1453    2.6223 N   0  0  0  0  0  0  0  0  0  0  0  0
   -7.7370   -0.6134    0.4451 O   0  0  0  0  0  0  0  0  0  0  0  0
    2.0204   -4.9409    2.4709 H   0  0  0  0  0  0  0  0  0  0  0  0
    1.9746   -3.1851    3.0635 H   0  0  0  0  0  0  0  0  0  0  0  0
    0.4519   -4.0941    2.7744 H   0  0  0  0  0  0  0  0  0  0  0  0
    2.5769   -3.2857    0.7195 H   0  0  0  0  0  0  0  0  0  0  0  0
    0.1190   -5.0314    0.4604 H   0  0  0  0  0  0  0  0  0  0  0  0
    1.8332   -5.4645    0.4116 H   0  0  0  0  0  0  0  0  0  0  0  0
    1.2259   -4.4828   -0.9272 H   0  0  0  0  0  0  0  0  0  0  0  0
    0.7803   -1.5509    1.6124 H   0  0  0  0  0  0  0  0  0  0  0  0
   -0.4276   -2.7252    1.1016 H   0  0  0  0  0  0  0  0  0  0  0  0
    0.4719   -2.6281   -1.2397 H   0  0  0  0  0  0  0  0  0  0  0  0
    1.7807   -0.9200   -2.0611 H   0  0  0  0  0  0  0  0  0  0  0  0
    3.7154    0.8895   -1.5869 H   0  0  0  0  0  0  0  0  0  0  0  0
    5.4152   -0.6336   -2.4682 H   0  0  0  0  0  0  0  0  0  0  0  0
    3.9304   -1.6407   -2.4276 H   0  0  0  0  0  0  0  0  0  0  0  0
    4.6223   -2.7168   -0.3964 H   0  0  0  0  0  0  0  0  0  0  0  0
    6.2063   -2.4106   -1.1851 H   0  0  0  0  0  0  0  0  0  0  0  0
    6.7770   -0.8764    0.4615 H   0  0  0  0  0  0  0  0  0  0  0  0
    5.2410   -1.3480    1.2937 H   0  0  0  0  0  0  0  0  0  0  0  0
    5.9188    2.7452    2.0499 H   0  0  0  0  0  0  0  0  0  0  0  0
    6.9015    1.1151    3.0905 H   0  0  0  0  0  0  0  0  0  0  0  0
    7.9820    0.7812    1.7701 H   0  0  0  0  0  0  0  0  0  0  0  0
    8.1907    3.2198    1.3588 H   0  0  0  0  0  0  0  0  0  0  0  0
    6.9374    3.7786    0.1815 H   0  0  0  0  0  0  0  0  0  0  0  0
    7.3102    1.7589   -1.1930 H   0  0  0  0  0  0  0  0  0  0  0  0
    8.6259    1.2189   -0.1163 H   0  0  0  0  0  0  0  0  0  0  0  0
    9.5612    2.2827   -2.0396 H   0  0  0  0  0  0  0  0  0  0  0  0
    8.6742    3.8202   -1.7286 H   0  0  0  0  0  0  0  0  0  0  0  0
   13.0113    3.7517    0.3658 H   0  0  0  0  0  0  0  0  0  0  0  0
   12.1026    3.1893    1.7974 H   0  0  0  0  0  0  0  0  0  0  0  0
   11.6516    1.1421   -1.5238 H   0  0  0  0  0  0  0  0  0  0  0  0
   11.3020    0.5340    0.1722 H   0  0  0  0  0  0  0  0  0  0  0  0
   -2.0720   -2.2692    0.0190 H   0  0  0  0  0  0  0  0  0  0  0  0
   -2.7844    0.4055   -1.1627 H   0  0  0  0  0  0  0  0  0  0  0  0
   -4.8593   -0.5320   -1.9290 H   0  0  0  0  0  0  0  0  0  0  0  0
   -3.4663   -1.3039   -2.7369 H   0  0  0  0  0  0  0  0  0  0  0  0
   -3.4973   -3.1660   -1.1730 H   0  0  0  0  0  0  0  0  0  0  0  0
   -4.9592   -2.5513   -0.3598 H   0  0  0  0  0  0  0  0  0  0  0  0
   -4.6380   -3.3063   -3.3014 H   0  0  0  0  0  0  0  0  0  0  0  0
   -6.1123   -2.5219   -2.6795 H   0  0  0  0  0  0  0  0  0  0  0  0
   -4.9353   -5.2812   -1.9453 H   0  0  0  0  0  0  0  0  0  0  0  0
   -6.3955   -4.9420   -2.8962 H   0  0  0  0  0  0  0  0  0  0  0  0
   -6.0828   -4.5924    0.0240 H   0  0  0  0  0  0  0  0  0  0  0  0
   -7.4554   -4.0787   -0.9174 H   0  0  0  0  0  0  0  0  0  0  0  0
   -5.5101    0.8613   -0.4722 H   0  0  0  0  0  0  0  0  0  0  0  0
   -5.4775    0.0903    2.4779 H   0  0  0  0  0  0  0  0  0  0  0  0
   -4.9361    2.3480    2.2850 H   0  0  0  0  0  0  0  0  0  0  0  0
   -6.5974    2.2187    2.8465 H   0  0  0  0  0  0  0  0  0  0  0  0
   -4.4300    3.4649   -0.0002 H   0  0  0  0  0  0  0  0  0  0  0  0
   -5.8677    4.9670   -1.6513 H   0  0  0  0  0  0  0  0  0  0  0  0
   -8.5310    5.5457   -1.9509 H   0  0  0  0  0  0  0  0  0  0  0  0
  -10.8004    5.1311   -1.0535 H   0  0  0  0  0  0  0  0  0  0  0  0
  -10.9741    3.5902    0.8983 H   0  0  0  0  0  0  0  0  0  0  0  0
   -9.0028    2.5462    1.8977 H   0  0  0  0  0  0  0  0  0  0  0  0
   -8.7027   -1.0028    2.8509 H   0  0  0  0  0  0  0  0  0  0  0  0
   -8.2773    0.6789    3.2356 H   0  0  0  0  0  0  0  0  0  0  0  0
  1  2  1  0
  2  3  1  0
  2  4  1  0
  4  5  1  0
  5  6  1  0
  6  7  1  0
  7  8  2  0
  7  9  1  0
  9 10  1  0
 10 11  1  0
 11 12  1  0
 12 13  1  0
 13 14  1  0
 14 15  2  0
 14 16  1  0
 16 17  1  0
 16 18  1  0
 18 19  1  0
 19 20  1  0
 20 21  1  0
 21 22  2  3
 22 23  1  0
 22 24  1  0
  5 25  1  0
 25 26  2  0
 25 27  1  0
 27 28  1  0
 28 29  1  0
 29 30  1  0
 30 31  1  0
 31 32  1  0
 32 33  1  0
 28 34  1  0
 34 35  2  0
 34 36  1  0
 36 37  1  0
 37 38  1  0
 38 39  1  0
 39 40  2  0
 40 41  1  0
 41 42  1  0
 42 43  2  0
 43 44  1  0
 44 45  2  0
 45 46  1  0
 46 47  2  0
 37 48  1  0
 48 49  1  0
 48 50  2  0
 13  9  1  0
 47 39  1  0
 47 42  1  0
  1 51  1  0
  1 52  1  0
  1 53  1  0
  2 54  1  0
  3 55  1  0
  3 56  1  0
  3 57  1  0
  4 58  1  0
  4 59  1  0
  5 60  1  6
  6 61  1  0
  9 62  1  6
 10 63  1  0
 10 64  1  0
 11 65  1  0
 11 66  1  0
 12 67  1  0
 12 68  1  0
 16 69  1  1
 17 70  1  0
 17 71  1  0
 18 72  1  0
 18 73  1  0
 19 74  1  0
 19 75  1  0
 20 76  1  0
 20 77  1  0
 23 78  1  0
 23 79  1  0
 24 80  1  0
 24 81  1  0
 27 82  1  0
 28 83  1  6
 29 84  1  0
 29 85  1  0
 30 86  1  0
 30 87  1  0
 31 88  1  0
 31 89  1  0
 32 90  1  0
 32 91  1  0
 33 92  1  0
 33 93  1  0
 36 94  1  0
 37 95  1  1
 38 96  1  0
 38 97  1  0
 40 98  1  0
 41 99  1  0
 43100  1  0
 44101  1  0
 45102  1  0
 46103  1  0
 49104  1  0
 49105  1  0
M  END
$$$$
[H]c1c([H])c([H])c(C([H])([H])C([H])([H])N([H])C(=O)C(=O)[C@@]([H])(N([H])C(=O)[C@@]2([H])N(C(=O)C3(c4c([H])c([H])c(Cl)c([H])c4[H])C([H])([H])C3([H])[H])C([H])([H])[C@]([H])(S(=O)(=O)c3c([H])c([H])c([H])c([H])c3Cl)C2([H])[H])C([H])([H])C([H])([H])C([H])([H])[H])c([H])c1[H]
     RDKit          3D

 84 88  0  0  0  0  0  0  0  0999 V2000
    1.2537   -4.0588    2.3221 C   0  0  0  0  0  0  0  0  0  0  0  0
    1.2721   -3.1859    1.0530 C   0  0  0  0  0  0  0  0  0  0  0  0
    1.7188   -1.8419    1.5238 C   0  0  0  0  0  0  0  0  0  0  0  0
    1.8261   -0.8523    0.3530 C   0  0  2  0  0  0  0  0  0  0  0  0
    0.5448   -0.6819   -0.2919 N   0  0  0  0  0  0  0  0  0  0  0  0
   -0.4942    0.0788    0.3309 C   0  0  0  0  0  0  0  0  0  0  0  0
   -0.2482    0.5212    1.4601 O   0  0  0  0  0  0  0  0  0  0  0  0
   -1.7371    0.2963   -0.3628 C   0  0  2  0  0  0  0  0  0  0  0  0
   -1.4293    1.7076   -1.1281 C   0  0  0  0  0  0  0  0  0  0  0  0
   -1.4848    2.6313    0.0462 C   0  0  2  0  0  0  0  0  0  0  0  0
   -2.4853    2.0238    0.9843 C   0  0  0  0  0  0  0  0  0  0  0  0
   -2.8957    0.7690    0.3211 N   0  0  0  0  0  0  0  0  0  0  0  0
   -4.1899    0.2326    0.2945 C   0  0  0  0  0  0  0  0  0  0  0  0
   -5.1576    0.8715    0.8420 O   0  0  0  0  0  0  0  0  0  0  0  0
   -4.5888   -1.0561   -0.3432 C   0  0  0  0  0  0  0  0  0  0  0  0
   -5.0187   -0.9593   -1.8049 C   0  0  0  0  0  0  0  0  0  0  0  0
   -6.0404   -1.2017   -0.7177 C   0  0  0  0  0  0  0  0  0  0  0  0
   -3.8704   -2.2899    0.0037 C   0  0  0  0  0  0  0  0  0  0  0  0
   -3.8075   -2.6281    1.3754 C   0  0  0  0  0  0  0  0  0  0  0  0
   -3.2386   -3.7973    1.8258 C   0  0  0  0  0  0  0  0  0  0  0  0
   -2.6986   -4.6897    0.9098 C   0  0  0  0  0  0  0  0  0  0  0  0
   -2.0403   -6.2332    1.4472 Cl  0  0  0  0  0  0  0  0  0  0  0  0
   -2.7420   -4.3830   -0.4304 C   0  0  0  0  0  0  0  0  0  0  0  0
   -3.3284   -3.1819   -0.8629 C   0  0  0  0  0  0  0  0  0  0  0  0
   -1.8439    4.3011   -0.3168 S   0  0  0  0  0  0  0  0  0  0  0  0
   -1.4618    5.2024    0.8623 O   0  0  0  0  0  0  0  0  0  0  0  0
   -0.9169    4.7861   -1.4342 O   0  0  0  0  0  0  0  0  0  0  0  0
   -3.4918    4.6621   -0.6985 C   0  0  0  0  0  0  0  0  0  0  0  0
   -4.3369    5.0813    0.3680 C   0  0  0  0  0  0  0  0  0  0  0  0
   -5.6810    5.3046    0.1910 C   0  0  0  0  0  0  0  0  0  0  0  0
   -6.2321    5.1206   -1.0466 C   0  0  0  0  0  0  0  0  0  0  0  0
   -5.4133    4.7194   -2.0689 C   0  0  0  0  0  0  0  0  0  0  0  0
   -4.0390    4.4845   -1.9250 C   0  0  0  0  0  0  0  0  0  0  0  0
   -3.0958    4.0847   -3.3692 Cl  0  0  0  0  0  0  0  0  0  0  0  0
    2.8231   -1.4140   -0.5474 C   0  0  0  0  0  0  0  0  0  0  0  0
    2.4803   -1.8700   -1.6627 O   0  0  0  0  0  0  0  0  0  0  0  0
    4.2449   -1.4392   -0.1236 C   0  0  0  0  0  0  0  0  0  0  0  0
    4.5080   -0.8002    0.9105 O   0  0  0  0  0  0  0  0  0  0  0  0
    5.1897   -2.1567   -0.8840 N   0  0  0  0  0  0  0  0  0  0  0  0
    6.5744   -2.2818   -0.7132 C   0  0  0  0  0  0  0  0  0  0  0  0
    7.4049   -1.1308   -1.0992 C   0  0  0  0  0  0  0  0  0  0  0  0
    7.1854    0.1376   -0.4609 C   0  0  0  0  0  0  0  0  0  0  0  0
    7.8311    0.4178    0.7312 C   0  0  0  0  0  0  0  0  0  0  0  0
    7.7302    1.6467    1.3778 C   0  0  0  0  0  0  0  0  0  0  0  0
    6.9427    2.6229    0.7848 C   0  0  0  0  0  0  0  0  0  0  0  0
    6.2801    2.3977   -0.3986 C   0  0  0  0  0  0  0  0  0  0  0  0
    6.4096    1.1646   -1.0026 C   0  0  0  0  0  0  0  0  0  0  0  0
    0.5388   -4.8788    2.2560 H   0  0  0  0  0  0  0  0  0  0  0  0
    2.3017   -4.3943    2.4914 H   0  0  0  0  0  0  0  0  0  0  0  0
    0.9939   -3.4507    3.2080 H   0  0  0  0  0  0  0  0  0  0  0  0
    1.9811   -3.6127    0.3114 H   0  0  0  0  0  0  0  0  0  0  0  0
    0.2600   -3.1584    0.6129 H   0  0  0  0  0  0  0  0  0  0  0  0
    0.9730   -1.4672    2.2705 H   0  0  0  0  0  0  0  0  0  0  0  0
    2.6815   -1.8943    2.0143 H   0  0  0  0  0  0  0  0  0  0  0  0
    2.1347    0.0997    0.7857 H   0  0  0  0  0  0  0  0  0  0  0  0
    0.3835   -1.1166   -1.2063 H   0  0  0  0  0  0  0  0  0  0  0  0
   -1.9450   -0.3929   -1.1952 H   0  0  0  0  0  0  0  0  0  0  0  0
   -2.2797    1.8271   -1.7776 H   0  0  0  0  0  0  0  0  0  0  0  0
   -0.4958    1.5955   -1.6335 H   0  0  0  0  0  0  0  0  0  0  0  0
   -0.4354    2.6679    0.5133 H   0  0  0  0  0  0  0  0  0  0  0  0
   -2.0998    1.7698    1.9680 H   0  0  0  0  0  0  0  0  0  0  0  0
   -3.4162    2.6470    1.0532 H   0  0  0  0  0  0  0  0  0  0  0  0
   -4.9068    0.0180   -2.2712 H   0  0  0  0  0  0  0  0  0  0  0  0
   -4.7766   -1.8260   -2.4418 H   0  0  0  0  0  0  0  0  0  0  0  0
   -6.5432   -2.1838   -0.7355 H   0  0  0  0  0  0  0  0  0  0  0  0
   -6.7030   -0.3470   -0.4422 H   0  0  0  0  0  0  0  0  0  0  0  0
   -4.2228   -1.9432    2.0986 H   0  0  0  0  0  0  0  0  0  0  0  0
   -3.1862   -4.0720    2.8749 H   0  0  0  0  0  0  0  0  0  0  0  0
   -2.3169   -5.0758   -1.1275 H   0  0  0  0  0  0  0  0  0  0  0  0
   -3.3204   -2.9842   -1.9315 H   0  0  0  0  0  0  0  0  0  0  0  0
   -3.8513    5.2181    1.3333 H   0  0  0  0  0  0  0  0  0  0  0  0
   -6.2663    5.6275    1.0627 H   0  0  0  0  0  0  0  0  0  0  0  0
   -7.3011    5.3002   -1.1784 H   0  0  0  0  0  0  0  0  0  0  0  0
   -5.8410    4.5651   -3.0507 H   0  0  0  0  0  0  0  0  0  0  0  0
    4.8075   -2.7192   -1.7494 H   0  0  0  0  0  0  0  0  0  0  0  0
    6.7149   -2.5083    0.4149 H   0  0  0  0  0  0  0  0  0  0  0  0
    6.9677   -3.2485   -1.1867 H   0  0  0  0  0  0  0  0  0  0  0  0
    8.5076   -1.4347   -1.0746 H   0  0  0  0  0  0  0  0  0  0  0  0
    7.2931   -0.9324   -2.2385 H   0  0  0  0  0  0  0  0  0  0  0  0
    8.4470   -0.3627    1.1862 H   0  0  0  0  0  0  0  0  0  0  0  0
    8.2544    1.7830    2.2870 H   0  0  0  0  0  0  0  0  0  0  0  0
    6.8785    3.5801    1.3039 H   0  0  0  0  0  0  0  0  0  0  0  0
    5.6723    3.2141   -0.8198 H   0  0  0  0  0  0  0  0  0  0  0  0
    5.9048    0.9583   -1.9210 H   0  0  0  0  0  0  0  0  0  0  0  0
  1  2  1  0
  2  3  1  0
  3  4  1  0
  4  5  1  0
  5  6  1  0
  6  7  2  0
  6  8  1  0
  8  9  1  0
  9 10  1  0
 10 11  1  0
 11 12  1  0
 12 13  1  0
 13 14  2  0
 13 15  1  0
 15 16  1  0
 16 17  1  0
 15 18  1  0
 18 19  2  0
 19 20  1  0
 20 21  2  0
 21 22  1  0
 21 23  1  0
 23 24  2  0
 10 25  1  0
 25 26  2  0
 25 27  2  0
 25 28  1  0
 28 29  2  0
 29 30  1  0
 30 31  2  0
 31 32  1  0
 32 33  2  0
 33 34  1  0
  4 35  1  0
 35 36  2  0
 35 37  1  0
 37 38  2  0
 37 39  1  0
 39 40  1  0
 40 41  1  0
 41 42  1  0
 42 43  2  0
 43 44  1  0
 44 45  2  0
 45 46  1  0
 46 47  2  0
 12  8  1  0
 17 15  1  0
 24 18  1  0
 33 28  1  0
 47 42  1  0
  1 48  1  0
  1 49  1  0
  1 50  1  0
  2 51  1  0
  2 52  1  0
  3 53  1  0
  3 54  1  0
  4 55  1  1
  5 56  1  0
  8 57  1  6
  9 58  1  0
  9 59  1  0
 10 60  1  1
 11 61  1  0
 11 62  1  0
 16 63  1  0
 16 64  1  0
 17 65  1  0
 17 66  1  0
 19 67  1  0
 20 68  1  0
 23 69  1  0
 24 70  1  0
 29 71  1  0
 30 72  1  0
 31 73  1  0
 32 74  1  0
 39 75  1  0
 40 76  1  0
 40 77  1  0
 41 78  1  0
 41 79  1  0
 43 80  1  0
 44 81  1  0
 45 82  1  0
 46 83  1  0
 47 84  1  0
M  END
$$$$
[H]/C(C(=O)N([H])[C@]([H])(c1c([H])c([H])c(-c2c([H])c([H])c([H])c([H])c2[H])c([H])c1[H])C([H])([H])[H])=C(/[H])c1c([H])c([H])c([H])c([H])c1[H]
     RDKit          3D

 46 48  0  0  0  0  0  0  0  0999 V2000
    0.0553   -3.0557    2.0907 C   0  0  0  0  0  0  0  0  0  0  0  0
    0.0937   -1.5468    2.1427 C   0  0  2  0  0  0  0  0  0  0  0  0
   -1.1034   -1.0331    1.4912 N   0  0  0  0  0  0  0  0  0  0  0  0
   -2.0207   -0.2688    2.2284 C   0  0  0  0  0  0  0  0  0  0  0  0
   -1.8044   -0.0335    3.4411 O   0  0  0  0  0  0  0  0  0  0  0  0
   -3.2208    0.2556    1.6053 C   0  0  0  0  0  0  0  0  0  0  0  0
   -3.5719    0.0870    0.3472 C   0  0  0  0  0  0  0  0  0  0  0  0
   -4.7774    0.6190   -0.2604 C   0  0  0  0  0  0  0  0  0  0  0  0
   -5.0358    0.3702   -1.6048 C   0  0  0  0  0  0  0  0  0  0  0  0
   -6.1577    0.8397   -2.2547 C   0  0  0  0  0  0  0  0  0  0  0  0
   -7.0859    1.5944   -1.5661 C   0  0  0  0  0  0  0  0  0  0  0  0
   -6.8558    1.8560   -0.2348 C   0  0  0  0  0  0  0  0  0  0  0  0
   -5.7101    1.3691    0.4037 C   0  0  0  0  0  0  0  0  0  0  0  0
    1.2485   -1.0359    1.3498 C   0  0  0  0  0  0  0  0  0  0  0  0
    2.3164   -1.8201    0.9865 C   0  0  0  0  0  0  0  0  0  0  0  0
    3.3593   -1.2949    0.2502 C   0  0  0  0  0  0  0  0  0  0  0  0
    3.3874    0.0236   -0.1548 C   0  0  0  0  0  0  0  0  0  0  0  0
    2.3114    0.8052    0.2139 C   0  0  0  0  0  0  0  0  0  0  0  0
    1.2589    0.2838    0.9543 C   0  0  0  0  0  0  0  0  0  0  0  0
    4.5151    0.5274   -0.9317 C   0  0  0  0  0  0  0  0  0  0  0  0
    4.9354    1.8377   -0.8369 C   0  0  0  0  0  0  0  0  0  0  0  0
    5.9989    2.3348   -1.5612 C   0  0  0  0  0  0  0  0  0  0  0  0
    6.6972    1.5173   -2.4282 C   0  0  0  0  0  0  0  0  0  0  0  0
    6.2922    0.2036   -2.5369 C   0  0  0  0  0  0  0  0  0  0  0  0
    5.2267   -0.2807   -1.8066 C   0  0  0  0  0  0  0  0  0  0  0  0
    0.3585   -3.3594    1.0761 H   0  0  0  0  0  0  0  0  0  0  0  0
   -1.0151   -3.3525    2.2737 H   0  0  0  0  0  0  0  0  0  0  0  0
    0.6797   -3.4842    2.8928 H   0  0  0  0  0  0  0  0  0  0  0  0
    0.1268   -1.2429    3.2023 H   0  0  0  0  0  0  0  0  0  0  0  0
   -1.2552   -1.2432    0.4906 H   0  0  0  0  0  0  0  0  0  0  0  0
   -3.9002    0.8425    2.2216 H   0  0  0  0  0  0  0  0  0  0  0  0
   -2.9124   -0.4919   -0.2820 H   0  0  0  0  0  0  0  0  0  0  0  0
   -4.3189   -0.2239   -2.1748 H   0  0  0  0  0  0  0  0  0  0  0  0
   -6.3445    0.6351   -3.3098 H   0  0  0  0  0  0  0  0  0  0  0  0
   -7.9528    1.9462   -2.1041 H   0  0  0  0  0  0  0  0  0  0  0  0
   -7.5504    2.4350    0.3280 H   0  0  0  0  0  0  0  0  0  0  0  0
   -5.5617    1.5926    1.4457 H   0  0  0  0  0  0  0  0  0  0  0  0
    2.3214   -2.8486    1.2876 H   0  0  0  0  0  0  0  0  0  0  0  0
    4.2042   -1.9359   -0.0315 H   0  0  0  0  0  0  0  0  0  0  0  0
    2.3116    1.8381   -0.0910 H   0  0  0  0  0  0  0  0  0  0  0  0
    0.4099    0.9163    1.2406 H   0  0  0  0  0  0  0  0  0  0  0  0
    4.4019    2.4926   -0.1640 H   0  0  0  0  0  0  0  0  0  0  0  0
    6.3248    3.3628   -1.4837 H   0  0  0  0  0  0  0  0  0  0  0  0
    7.5347    1.8701   -3.0118 H   0  0  0  0  0  0  0  0  0  0  0  0
    6.8567   -0.4223   -3.2256 H   0  0  0  0  0  0  0  0  0  0  0  0
    4.9284   -1.3122   -1.9087 H   0  0  0  0  0  0  0  0  0  0  0  0
  1  2  1  0
  2  3  1  0
  3  4  1  0
  4  5  2  0
  4  6  1  0
  6  7  2  0
  7  8  1  0
  8  9  2  0
  9 10  1  0
 10 11  2  0
 11 12  1  0
 12 13  2  0
  2 14  1  0
 14 15  2  0
 15 16  1  0
 16 17  2  0
 17 18  1  0
 18 19  2  0
 17 20  1  0
 20 21  2  0
 21 22  1  0
 22 23  2  0
 23 24  1  0
 24 25  2  0
 13  8  1  0
 19 14  1  0
 25 20  1  0
  1 26  1  0
  1 27  1  0
  1 28  1  0
  2 29  1  1
  3 30  1  0
  6 31  1  0
  7 32  1  0
  9 33  1  0
 10 34  1  0
 11 35  1  0
 12 36  1  0
 13 37  1  0
 15 38  1  0
 16 39  1  0
 18 40  1  0
 19 41  1  0
 21 42  1  0
 22 43  1  0
 23 44  1  0
 24 45  1  0
 25 46  1  0
M  END
$$$$
[H]OC([H])([H])C1(C([H])([H])OC(=O)C([H])([H])C([H])([H])C([H])([H])C([H])([H])C([H])([H])C([H])([H])C([H])([H])[H])OC(=O)/C(=C(\[H])C([H])([H])C([H])(C([H])([H])[H])C([H])([H])[H])C1([H])[H]
     RDKit          3D

 56 56  0  0  0  0  0  0  0  0999 V2000
    8.2751   -1.2370    2.2480 C   0  0  0  0  0  0  0  0  0  0  0  0
    6.7658   -1.0257    2.1156 C   0  0  0  0  0  0  0  0  0  0  0  0
    6.5543    0.4142    1.7955 C   0  0  0  0  0  0  0  0  0  0  0  0
    5.0994    0.7788    1.6332 C   0  0  0  0  0  0  0  0  0  0  0  0
    4.4404   -0.0173    0.5025 C   0  0  0  0  0  0  0  0  0  0  0  0
    3.0029    0.4512    0.4593 C   0  0  0  0  0  0  0  0  0  0  0  0
    2.1942   -0.2365   -0.6104 C   0  0  0  0  0  0  0  0  0  0  0  0
    0.8029    0.3612   -0.4937 C   0  0  0  0  0  0  0  0  0  0  0  0
    0.0423   -0.0336    0.3929 O   0  0  0  0  0  0  0  0  0  0  0  0
    0.4340    1.3080   -1.3613 O   0  0  0  0  0  0  0  0  0  0  0  0
   -0.6701    2.0584   -1.5995 C   0  0  0  0  0  0  0  0  0  0  0  0
   -1.9359    1.4377   -2.0582 C   0  0  0  0  0  0  0  0  0  0  0  0
   -1.8171    0.6560   -3.3215 C   0  0  0  0  0  0  0  0  0  0  0  0
   -1.4007    1.4384   -4.4030 O   0  0  0  0  0  0  0  0  0  0  0  0
   -2.5920    0.6092   -0.9990 C   0  0  0  0  0  0  0  0  0  0  0  0
   -4.0499    0.6634   -1.3766 C   0  0  0  0  0  0  0  0  0  0  0  0
   -4.9525   -0.2202   -1.0131 C   0  0  0  0  0  0  0  0  0  0  0  0
   -4.6693   -1.4082   -0.1727 C   0  0  0  0  0  0  0  0  0  0  0  0
   -5.4997   -1.3634    1.1044 C   0  0  0  0  0  0  0  0  0  0  0  0
   -5.1641   -2.5984    1.9116 C   0  0  0  0  0  0  0  0  0  0  0  0
   -6.9765   -1.3857    0.8235 C   0  0  0  0  0  0  0  0  0  0  0  0
   -4.1857    1.8651   -2.1881 C   0  0  0  0  0  0  0  0  0  0  0  0
   -5.2781    2.2714   -2.6775 O   0  0  0  0  0  0  0  0  0  0  0  0
   -2.9240    2.4763   -2.3273 O   0  0  0  0  0  0  0  0  0  0  0  0
    8.5603   -2.2730    2.0309 H   0  0  0  0  0  0  0  0  0  0  0  0
    8.5843   -0.9019    3.2703 H   0  0  0  0  0  0  0  0  0  0  0  0
    8.7421   -0.5714    1.4881 H   0  0  0  0  0  0  0  0  0  0  0  0
    6.3981   -1.6493    1.2632 H   0  0  0  0  0  0  0  0  0  0  0  0
    6.2861   -1.3520    3.0526 H   0  0  0  0  0  0  0  0  0  0  0  0
    7.0831    0.6538    0.8649 H   0  0  0  0  0  0  0  0  0  0  0  0
    6.9631    1.0471    2.5882 H   0  0  0  0  0  0  0  0  0  0  0  0
    5.0021    1.8470    1.3522 H   0  0  0  0  0  0  0  0  0  0  0  0
    4.5051    0.5704    2.5441 H   0  0  0  0  0  0  0  0  0  0  0  0
    4.5063   -1.1082    0.7286 H   0  0  0  0  0  0  0  0  0  0  0  0
    4.9686    0.1323   -0.4552 H   0  0  0  0  0  0  0  0  0  0  0  0
    2.5807    0.2887    1.4708 H   0  0  0  0  0  0  0  0  0  0  0  0
    3.0496    1.5501    0.2258 H   0  0  0  0  0  0  0  0  0  0  0  0
    2.1509   -1.3155   -0.3679 H   0  0  0  0  0  0  0  0  0  0  0  0
    2.6357   -0.0254   -1.5888 H   0  0  0  0  0  0  0  0  0  0  0  0
   -0.8685    2.6432   -0.6226 H   0  0  0  0  0  0  0  0  0  0  0  0
   -0.3783    2.9013   -2.3011 H   0  0  0  0  0  0  0  0  0  0  0  0
   -2.8495    0.2900   -3.5886 H   0  0  0  0  0  0  0  0  0  0  0  0
   -1.1969   -0.2468   -3.2463 H   0  0  0  0  0  0  0  0  0  0  0  0
   -0.4182    1.3455   -4.5763 H   0  0  0  0  0  0  0  0  0  0  0  0
   -2.5336    1.0064    0.0207 H   0  0  0  0  0  0  0  0  0  0  0  0
   -2.3168   -0.4546   -1.0780 H   0  0  0  0  0  0  0  0  0  0  0  0
   -5.9707   -0.0203   -1.3828 H   0  0  0  0  0  0  0  0  0  0  0  0
   -4.8262   -2.3563   -0.6974 H   0  0  0  0  0  0  0  0  0  0  0  0
   -3.6158   -1.3907    0.1638 H   0  0  0  0  0  0  0  0  0  0  0  0
   -5.2890   -0.4422    1.6769 H   0  0  0  0  0  0  0  0  0  0  0  0
   -6.0739   -3.0334    2.3875 H   0  0  0  0  0  0  0  0  0  0  0  0
   -4.6307   -3.3378    1.2824 H   0  0  0  0  0  0  0  0  0  0  0  0
   -4.4194   -2.2752    2.6840 H   0  0  0  0  0  0  0  0  0  0  0  0
   -7.4849   -1.5750    1.8004 H   0  0  0  0  0  0  0  0  0  0  0  0
   -7.2707   -2.2458    0.1724 H   0  0  0  0  0  0  0  0  0  0  0  0
   -7.3689   -0.4170    0.4527 H   0  0  0  0  0  0  0  0  0  0  0  0
  1  2  1  0
  2  3  1  0
  3  4  1  0
  4  5  1  0
  5  6  1  0
  6  7  1  0
  7  8  1  0
  8  9  2  0
  8 10  1  0
 10 11  1  0
 11 12  1  0
 12 13  1  0
 13 14  1  0
 12 15  1  0
 15 16  1  0
 16 17  2  0
 17 18  1  0
 18 19  1  0
 19 20  1  0
 19 21  1  0
 16 22  1  0
 22 23  2  0
 22 24  1  0
 24 12  1  0
  1 25  1  0
  1 26  1  0
  1 27  1  0
  2 28  1  0
  2 29  1  0
  3 30  1  0
  3 31  1  0
  4 32  1  0
  4 33  1  0
  5 34  1  0
  5 35  1  0
  6 36  1  0
  6 37  1  0
  7 38  1  0
  7 39  1  0
 11 40  1  0
 11 41  1  0
 13 42  1  0
 13 43  1  0
 14 44  1  0
 15 45  1  0
 15 46  1  0
 17 47  1  0
 18 48  1  0
 18 49  1  0
 19 50  1  0
 20 51  1  0
 20 52  1  0
 20 53  1  0
 21 54  1  0
 21 55  1  0
 21 56  1  0
M  END
$$$$
[H]Oc1c([H])c([H])c(C([H])([H])[C@@]2([H])C(=O)N([H])[C@@]([H])(C([H])([H])C([H])([H])C([H])([H])C([H])([H])N([H])[H])C(=O)N([H])[C@@]([H])(C([H])([H])c3c([H])n([H])c4c([H])c([H])c([H])c([H])c34)C(=O)N([H])[C@@]([H])([C@@]([H])(C([H])([H])[H])C([H])([H])C([H])([H])[H])C(=O)N([H])[C@@]([H])(C([H])([H])c3c([H])c([H])c([H])c([H])c3[H])C(=O)N3C([H])([H])C([H])([H])C([H])([H])[C@@]3([H])C(=O)N2[H])c([H])c1[H]
     RDKit          3D

119124  0  0  0  0  0  0  0  0999 V2000
   -1.9855   -4.8426   -2.4744 C   0  0  0  0  0  0  0  0  0  0  0  0
   -3.2149   -4.3841   -1.7215 C   0  0  0  0  0  0  0  0  0  0  0  0
   -3.5081   -2.9297   -1.8884 C   0  0  2  0  0  0  0  0  0  0  0  0
   -3.7459   -2.5118   -3.2978 C   0  0  0  0  0  0  0  0  0  0  0  0
   -2.3883   -2.1302   -1.2466 C   0  0  2  0  0  0  0  0  0  0  0  0
   -2.2719   -2.4142    0.1571 N   0  0  0  0  0  0  0  0  0  0  0  0
   -1.2681   -2.0282    1.0343 C   0  0  0  0  0  0  0  0  0  0  0  0
   -1.6019   -1.4265    2.1257 O   0  0  0  0  0  0  0  0  0  0  0  0
    0.2065   -2.2254    0.8793 C   0  0  2  0  0  0  0  0  0  0  0  0
    0.4161   -3.7014    1.1362 C   0  0  0  0  0  0  0  0  0  0  0  0
    1.7948   -4.1714    1.0589 C   0  0  0  0  0  0  0  0  0  0  0  0
    2.3910   -4.7440   -0.0581 C   0  0  0  0  0  0  0  0  0  0  0  0
    3.6755   -5.0311    0.2123 N   0  0  0  0  0  0  0  0  0  0  0  0
    3.9180   -4.6553    1.4810 C   0  0  0  0  0  0  0  0  0  0  0  0
    5.0583   -4.7411    2.2410 C   0  0  0  0  0  0  0  0  0  0  0  0
    5.0402   -4.2916    3.5421 C   0  0  0  0  0  0  0  0  0  0  0  0
    3.9147   -3.7518    4.1265 C   0  0  0  0  0  0  0  0  0  0  0  0
    2.7884   -3.6748    3.3536 C   0  0  0  0  0  0  0  0  0  0  0  0
    2.7551   -4.1142    2.0325 C   0  0  0  0  0  0  0  0  0  0  0  0
    0.9109   -1.3556    1.7782 N   0  0  0  0  0  0  0  0  0  0  0  0
    1.8846   -0.4010    1.4997 C   0  0  0  0  0  0  0  0  0  0  0  0
    2.1580    0.4704    2.3732 O   0  0  0  0  0  0  0  0  0  0  0  0
    2.6803   -0.2835    0.2290 C   0  0  2  0  0  0  0  0  0  0  0  0
    4.0601    0.1035    0.6113 C   0  0  0  0  0  0  0  0  0  0  0  0
    5.0492    0.2750   -0.4776 C   0  0  0  0  0  0  0  0  0  0  0  0
    5.2540   -0.9791   -1.3039 C   0  0  0  0  0  0  0  0  0  0  0  0
    6.2786   -0.7375   -2.3927 C   0  0  0  0  0  0  0  0  0  0  0  0
    7.5581   -0.3648   -1.8796 N   0  0  0  0  0  0  0  0  0  0  0  0
    2.0374    0.4239   -0.8224 N   0  0  0  0  0  0  0  0  0  0  0  0
    1.8043    1.7398   -1.1793 C   0  0  0  0  0  0  0  0  0  0  0  0
    2.5147    2.1967   -2.1975 O   0  0  0  0  0  0  0  0  0  0  0  0
    0.9202    2.8124   -0.6923 C   0  0  2  0  0  0  0  0  0  0  0  0
    1.6271    4.1108   -0.3924 C   0  0  0  0  0  0  0  0  0  0  0  0
    2.6685    4.1095    0.6092 C   0  0  0  0  0  0  0  0  0  0  0  0
    2.4069    4.2849    1.9774 C   0  0  0  0  0  0  0  0  0  0  0  0
    3.3673    4.3136    2.9356 C   0  0  0  0  0  0  0  0  0  0  0  0
    4.6852    4.1657    2.5827 C   0  0  0  0  0  0  0  0  0  0  0  0
    5.6726    4.1946    3.5603 O   0  0  0  0  0  0  0  0  0  0  0  0
    5.0111    3.9905    1.2629 C   0  0  0  0  0  0  0  0  0  0  0  0
    4.0058    3.9647    0.3012 C   0  0  0  0  0  0  0  0  0  0  0  0
   -0.1432    2.4946    0.1843 N   0  0  0  0  0  0  0  0  0  0  0  0
   -1.5289    2.8831    0.0181 C   0  0  0  0  0  0  0  0  0  0  0  0
   -2.2592    2.7721    1.0500 O   0  0  0  0  0  0  0  0  0  0  0  0
   -2.1160    3.3705   -1.1893 C   0  0  2  0  0  0  0  0  0  0  0  0
   -2.0699    4.9178   -1.0769 C   0  0  0  0  0  0  0  0  0  0  0  0
   -3.2100    5.4425   -1.8637 C   0  0  0  0  0  0  0  0  0  0  0  0
   -3.6646    4.1620   -2.5826 C   0  0  0  0  0  0  0  0  0  0  0  0
   -3.4959    3.1432   -1.4882 N   0  0  0  0  0  0  0  0  0  0  0  0
   -4.4492    2.2525   -0.9570 C   0  0  0  0  0  0  0  0  0  0  0  0
   -5.4770    2.8271   -0.4532 O   0  0  0  0  0  0  0  0  0  0  0  0
   -4.4530    0.7822   -0.8965 C   0  0  2  0  0  0  0  0  0  0  0  0
   -4.6320    0.1666    0.4127 C   0  0  0  0  0  0  0  0  0  0  0  0
   -5.8981    0.5468    1.0712 C   0  0  0  0  0  0  0  0  0  0  0  0
   -6.0362    1.4961    2.0545 C   0  0  0  0  0  0  0  0  0  0  0  0
   -7.2528    1.8087    2.6160 C   0  0  0  0  0  0  0  0  0  0  0  0
   -8.3940    1.1485    2.1834 C   0  0  0  0  0  0  0  0  0  0  0  0
   -8.2968    0.1845    1.1937 C   0  0  0  0  0  0  0  0  0  0  0  0
   -7.0584   -0.0944    0.6618 C   0  0  0  0  0  0  0  0  0  0  0  0
   -3.4508    0.2007   -1.7656 N   0  0  0  0  0  0  0  0  0  0  0  0
   -2.4336   -0.7040   -1.6045 C   0  0  0  0  0  0  0  0  0  0  0  0
   -1.2417   -0.2271   -1.8078 O   0  0  0  0  0  0  0  0  0  0  0  0
   -1.7625   -4.1344   -3.2900 H   0  0  0  0  0  0  0  0  0  0  0  0
   -2.2134   -5.8663   -2.8786 H   0  0  0  0  0  0  0  0  0  0  0  0
   -1.1041   -4.9572   -1.8394 H   0  0  0  0  0  0  0  0  0  0  0  0
   -3.0207   -4.5856   -0.6492 H   0  0  0  0  0  0  0  0  0  0  0  0
   -4.0909   -5.0311   -1.9758 H   0  0  0  0  0  0  0  0  0  0  0  0
   -4.4458   -2.7200   -1.3132 H   0  0  0  0  0  0  0  0  0  0  0  0
   -2.8356   -2.2188   -3.8451 H   0  0  0  0  0  0  0  0  0  0  0  0
   -4.1703   -3.4014   -3.8387 H   0  0  0  0  0  0  0  0  0  0  0  0
   -4.5168   -1.7128   -3.3628 H   0  0  0  0  0  0  0  0  0  0  0  0
   -1.4725   -2.6408   -1.6903 H   0  0  0  0  0  0  0  0  0  0  0  0
   -3.0749   -2.9893    0.5857 H   0  0  0  0  0  0  0  0  0  0  0  0
    0.4994   -2.0705   -0.1845 H   0  0  0  0  0  0  0  0  0  0  0  0
   -0.2238   -4.3052    0.4194 H   0  0  0  0  0  0  0  0  0  0  0  0
   -0.0502   -3.9202    2.1296 H   0  0  0  0  0  0  0  0  0  0  0  0
    1.9172   -4.9388   -1.0078 H   0  0  0  0  0  0  0  0  0  0  0  0
    4.3482   -5.4658   -0.4511 H   0  0  0  0  0  0  0  0  0  0  0  0
    5.9865   -5.1537    1.8556 H   0  0  0  0  0  0  0  0  0  0  0  0
    5.9381   -4.3571    4.1460 H   0  0  0  0  0  0  0  0  0  0  0  0
    3.8824   -3.3997    5.1327 H   0  0  0  0  0  0  0  0  0  0  0  0
    1.8975   -3.2595    3.8200 H   0  0  0  0  0  0  0  0  0  0  0  0
    0.6323   -1.4701    2.8043 H   0  0  0  0  0  0  0  0  0  0  0  0
    2.7945   -1.4011   -0.0520 H   0  0  0  0  0  0  0  0  0  0  0  0
    4.1034    0.9928    1.2798 H   0  0  0  0  0  0  0  0  0  0  0  0
    4.4542   -0.7326    1.2683 H   0  0  0  0  0  0  0  0  0  0  0  0
    4.9310    1.1166   -1.1499 H   0  0  0  0  0  0  0  0  0  0  0  0
    6.0489    0.4533    0.0342 H   0  0  0  0  0  0  0  0  0  0  0  0
    5.6240   -1.8087   -0.6651 H   0  0  0  0  0  0  0  0  0  0  0  0
    4.2810   -1.2519   -1.7533 H   0  0  0  0  0  0  0  0  0  0  0  0
    5.9388    0.0817   -3.0826 H   0  0  0  0  0  0  0  0  0  0  0  0
    6.3378   -1.6785   -3.0036 H   0  0  0  0  0  0  0  0  0  0  0  0
    7.7188    0.6646   -1.8129 H   0  0  0  0  0  0  0  0  0  0  0  0
    8.3763   -0.7632   -2.3934 H   0  0  0  0  0  0  0  0  0  0  0  0
    1.6266   -0.2820   -1.5569 H   0  0  0  0  0  0  0  0  0  0  0  0
    0.3348    3.1046   -1.6618 H   0  0  0  0  0  0  0  0  0  0  0  0
    0.9000    4.9138   -0.1592 H   0  0  0  0  0  0  0  0  0  0  0  0
    2.0669    4.4516   -1.3855 H   0  0  0  0  0  0  0  0  0  0  0  0
    1.3789    4.4062    2.2925 H   0  0  0  0  0  0  0  0  0  0  0  0
    3.1333    4.4499    3.9823 H   0  0  0  0  0  0  0  0  0  0  0  0
    5.4269    4.3235    4.5191 H   0  0  0  0  0  0  0  0  0  0  0  0
    6.0595    3.8754    1.0169 H   0  0  0  0  0  0  0  0  0  0  0  0
    4.3490    3.8265   -0.7129 H   0  0  0  0  0  0  0  0  0  0  0  0
    0.0699    1.9417    1.0404 H   0  0  0  0  0  0  0  0  0  0  0  0
   -1.5677    3.1729   -2.1384 H   0  0  0  0  0  0  0  0  0  0  0  0
   -1.1144    5.2790   -1.5206 H   0  0  0  0  0  0  0  0  0  0  0  0
   -2.0700    5.2268   -0.0119 H   0  0  0  0  0  0  0  0  0  0  0  0
   -4.0260    5.7553   -1.1594 H   0  0  0  0  0  0  0  0  0  0  0  0
   -2.9816    6.2165   -2.6004 H   0  0  0  0  0  0  0  0  0  0  0  0
   -3.0054    3.9437   -3.4182 H   0  0  0  0  0  0  0  0  0  0  0  0
   -4.6886    4.3467   -2.8567 H   0  0  0  0  0  0  0  0  0  0  0  0
   -5.4284    0.5026   -1.4473 H   0  0  0  0  0  0  0  0  0  0  0  0
   -4.7675   -0.9492    0.2826 H   0  0  0  0  0  0  0  0  0  0  0  0
   -3.7603    0.2646    1.1062 H   0  0  0  0  0  0  0  0  0  0  0  0
   -5.1416    2.0045    2.3845 H   0  0  0  0  0  0  0  0  0  0  0  0
   -7.3713    2.5545    3.3914 H   0  0  0  0  0  0  0  0  0  0  0  0
   -9.3845    1.3639    2.6006 H   0  0  0  0  0  0  0  0  0  0  0  0
   -9.1628   -0.3539    0.8265 H   0  0  0  0  0  0  0  0  0  0  0  0
   -7.0125   -0.8660   -0.1258 H   0  0  0  0  0  0  0  0  0  0  0  0
   -3.5596    0.6134   -2.7612 H   0  0  0  0  0  0  0  0  0  0  0  0
  1  2  1  0
  2  3  1  0
  3  4  1  0
  3  5  1  0
  5  6  1  0
  6  7  1  0
  7  8  2  0
  7  9  1  0
  9 10  1  0
 10 11  1  0
 11 12  2  0
 12 13  1  0
 13 14  1  0
 14 15  2  0
 15 16  1  0
 16 17  2  0
 17 18  1  0
 18 19  2  0
  9 20  1  0
 20 21  1  0
 21 22  2  0
 21 23  1  0
 23 24  1  0
 24 25  1  0
 25 26  1  0
 26 27  1  0
 27 28  1  0
 23 29  1  0
 29 30  1  0
 30 31  2  0
 30 32  1  0
 32 33  1  0
 33 34  1  0
 34 35  2  0
 35 36  1  0
 36 37  2  0
 37 38  1  0
 37 39  1  0
 39 40  2  0
 32 41  1  0
 41 42  1  0
 42 43  2  0
 42 44  1  0
 44 45  1  0
 45 46  1  0
 46 47  1  0
 47 48  1  0
 48 49  1  0
 49 50  2  0
 49 51  1  0
 51 52  1  0
 52 53  1  0
 53 54  2  0
 54 55  1  0
 55 56  2  0
 56 57  1  0
 57 58  2  0
 51 59  1  0
 59 60  1  0
 60 61  2  0
 60  5  1  0
 19 11  1  0
 40 34  1  0
 48 44  1  0
 58 53  1  0
 19 14  1  0
  1 62  1  0
  1 63  1  0
  1 64  1  0
  2 65  1  0
  2 66  1  0
  3 67  1  1
  4 68  1  0
  4 69  1  0
  4 70  1  0
  5 71  1  6
  6 72  1  0
  9 73  1  6
 10 74  1  0
 10 75  1  0
 12 76  1  0
 13 77  1  0
 15 78  1  0
 16 79  1  0
 17 80  1  0
 18 81  1  0
 20 82  1  0
 23 83  1  6
 24 84  1  0
 24 85  1  0
 25 86  1  0
 25 87  1  0
 26 88  1  0
 26 89  1  0
 27 90  1  0
 27 91  1  0
 28 92  1  0
 28 93  1  0
 29 94  1  0
 32 95  1  6
 33 96  1  0
 33 97  1  0
 35 98  1  0
 36 99  1  0
 38100  1  0
 39101  1  0
 40102  1  0
 41103  1  0
 44104  1  6
 45105  1  0
 45106  1  0
 46107  1  0
 46108  1  0
 47109  1  0
 47110  1  0
 51111  1  6
 52112  1  0
 52113  1  0
 54114  1  0
 55115  1  0
 56116  1  0
 57117  1  0
 58118  1  0
 59119  1  0
M  END
$$$$
[H]c1nc2c(C([H])([H])[H])c(C([H])([H])[H])c(-c3c(C([H])(C([H])([H])[H])C([H])([H])[H])c4c([H])c(C5([H])C([H])([H])C([H])([H])N(C([H])([H])C([H])([H])S(=O)(=O)C([H])([H])[H])C([H])([H])C5([H])[H])c([H])c([H])c4n3[H])c([H])n2n1
     RDKit          3D

 70 74  0  0  0  0  0  0  0  0999 V2000
   -2.0670   -3.0907    1.3275 C   0  0  0  0  0  0  0  0  0  0  0  0
   -2.9393   -1.8660    1.1752 C   0  0  0  0  0  0  0  0  0  0  0  0
   -4.3629   -2.1850    1.3925 C   0  0  0  0  0  0  0  0  0  0  0  0
   -2.5273   -0.8545    0.2249 C   0  0  0  0  0  0  0  0  0  0  0  0
   -3.2460    0.0641   -0.4869 C   0  0  0  0  0  0  0  0  0  0  0  0
   -2.3542    0.9041   -1.1119 N   0  0  0  0  0  0  0  0  0  0  0  0
   -1.1166    0.5482   -0.8234 C   0  0  0  0  0  0  0  0  0  0  0  0
    0.0797    1.1054   -1.2098 C   0  0  0  0  0  0  0  0  0  0  0  0
    1.2805    0.5776   -0.7659 C   0  0  0  0  0  0  0  0  0  0  0  0
    1.2871   -0.5147    0.0705 C   0  0  0  0  0  0  0  0  0  0  0  0
    0.0391   -1.0366    0.4277 C   0  0  0  0  0  0  0  0  0  0  0  0
   -1.1588   -0.5432    0.0075 C   0  0  0  0  0  0  0  0  0  0  0  0
    2.5658   -1.0901    0.5708 C   0  0  0  0  0  0  0  0  0  0  0  0
    3.3299   -1.6390   -0.5634 C   0  0  0  0  0  0  0  0  0  0  0  0
    4.5338   -0.9061   -1.0200 C   0  0  0  0  0  0  0  0  0  0  0  0
    5.2524   -0.4284    0.0835 N   0  0  0  0  0  0  0  0  0  0  0  0
    6.6414   -0.2154   -0.0698 C   0  0  0  0  0  0  0  0  0  0  0  0
    6.9804    0.9318   -1.0015 C   0  0  0  0  0  0  0  0  0  0  0  0
    8.7514    1.0614   -1.0701 S   0  0  0  0  0  0  0  0  0  0  0  0
    9.3330    1.3829    0.5955 C   0  0  0  0  0  0  0  0  0  0  0  0
    9.3623   -0.2295   -1.5178 O   0  0  0  0  0  0  0  0  0  0  0  0
    9.1708    2.1875   -1.9845 O   0  0  0  0  0  0  0  0  0  0  0  0
    4.5639    0.4081    0.9924 C   0  0  0  0  0  0  0  0  0  0  0  0
    3.2820   -0.1486    1.4874 C   0  0  0  0  0  0  0  0  0  0  0  0
   -4.6724    0.2529   -0.5827 C   0  0  0  0  0  0  0  0  0  0  0  0
   -5.5076   -0.6555   -1.1440 C   0  0  0  0  0  0  0  0  0  0  0  0
   -6.8473   -0.4947   -1.2139 N   0  0  0  0  0  0  0  0  0  0  0  0
   -7.8409   -1.2192   -1.6997 N   0  0  0  0  0  0  0  0  0  0  0  0
   -9.0263   -0.5904   -1.5136 C   0  0  0  0  0  0  0  0  0  0  0  0
   -8.7396    0.5591   -0.8913 N   0  0  0  0  0  0  0  0  0  0  0  0
   -7.3977    0.6076   -0.7119 C   0  0  0  0  0  0  0  0  0  0  0  0
   -6.6159    1.5591   -0.1353 C   0  0  0  0  0  0  0  0  0  0  0  0
   -7.2313    2.7992    0.4295 C   0  0  0  0  0  0  0  0  0  0  0  0
   -5.2283    1.4059   -0.0548 C   0  0  0  0  0  0  0  0  0  0  0  0
   -4.4110    2.4588    0.6004 C   0  0  0  0  0  0  0  0  0  0  0  0
   -2.7718   -3.9797    1.5331 H   0  0  0  0  0  0  0  0  0  0  0  0
   -1.4338   -3.0852    2.2247 H   0  0  0  0  0  0  0  0  0  0  0  0
   -1.4666   -3.3305    0.4472 H   0  0  0  0  0  0  0  0  0  0  0  0
   -2.6811   -1.3084    2.2140 H   0  0  0  0  0  0  0  0  0  0  0  0
   -4.9494   -1.3249    1.7036 H   0  0  0  0  0  0  0  0  0  0  0  0
   -4.8041   -2.8979    0.6934 H   0  0  0  0  0  0  0  0  0  0  0  0
   -4.3659   -2.8168    2.3786 H   0  0  0  0  0  0  0  0  0  0  0  0
   -2.6788    1.6969   -1.7253 H   0  0  0  0  0  0  0  0  0  0  0  0
    0.0814    1.9571   -1.8639 H   0  0  0  0  0  0  0  0  0  0  0  0
    2.2353    0.9991   -1.0580 H   0  0  0  0  0  0  0  0  0  0  0  0
    0.1022   -1.8638    1.0953 H   0  0  0  0  0  0  0  0  0  0  0  0
    2.2652   -1.9724    1.2159 H   0  0  0  0  0  0  0  0  0  0  0  0
    2.6529   -1.7423   -1.4637 H   0  0  0  0  0  0  0  0  0  0  0  0
    3.6507   -2.7048   -0.3781 H   0  0  0  0  0  0  0  0  0  0  0  0
    5.1905   -1.6084   -1.5936 H   0  0  0  0  0  0  0  0  0  0  0  0
    4.2658   -0.0783   -1.7285 H   0  0  0  0  0  0  0  0  0  0  0  0
    7.0880   -1.1429   -0.4992 H   0  0  0  0  0  0  0  0  0  0  0  0
    7.1819   -0.0303    0.8807 H   0  0  0  0  0  0  0  0  0  0  0  0
    6.6080    0.7623   -2.0255 H   0  0  0  0  0  0  0  0  0  0  0  0
    6.5846    1.8889   -0.5876 H   0  0  0  0  0  0  0  0  0  0  0  0
   10.4315    1.6066    0.5831 H   0  0  0  0  0  0  0  0  0  0  0  0
    9.1546    0.4822    1.1849 H   0  0  0  0  0  0  0  0  0  0  0  0
    8.7344    2.2400    0.9745 H   0  0  0  0  0  0  0  0  0  0  0  0
    4.3971    1.3915    0.4972 H   0  0  0  0  0  0  0  0  0  0  0  0
    5.2689    0.6323    1.8465 H   0  0  0  0  0  0  0  0  0  0  0  0
    3.4508   -0.5754    2.5002 H   0  0  0  0  0  0  0  0  0  0  0  0
    2.5784    0.7200    1.6689 H   0  0  0  0  0  0  0  0  0  0  0  0
   -5.1121   -1.5666   -1.5743 H   0  0  0  0  0  0  0  0  0  0  0  0
  -10.0199   -0.9525   -1.8122 H   0  0  0  0  0  0  0  0  0  0  0  0
   -6.7777    3.7155    0.0232 H   0  0  0  0  0  0  0  0  0  0  0  0
   -8.3255    2.7690    0.2562 H   0  0  0  0  0  0  0  0  0  0  0  0
   -7.0071    2.7631    1.5267 H   0  0  0  0  0  0  0  0  0  0  0  0
   -3.8702    2.0318    1.4956 H   0  0  0  0  0  0  0  0  0  0  0  0
   -5.0913    3.2231    1.0413 H   0  0  0  0  0  0  0  0  0  0  0  0
   -3.7301    2.9956   -0.0580 H   0  0  0  0  0  0  0  0  0  0  0  0
  1  2  1  0
  2  3  1  0
  2  4  1  0
  4  5  2  0
  5  6  1  0
  6  7  1  0
  7  8  2  0
  8  9  1  0
  9 10  2  0
 10 11  1  0
 11 12  2  0
 10 13  1  0
 13 14  1  0
 14 15  1  0
 15 16  1  0
 16 17  1  0
 17 18  1  0
 18 19  1  0
 19 20  1  0
 19 21  2  0
 19 22  2  0
 16 23  1  0
 23 24  1  0
  5 25  1  0
 25 26  2  0
 26 27  1  0
 27 28  1  0
 28 29  2  0
 29 30  1  0
 30 31  2  0
 31 32  1  0
 32 33  1  0
 32 34  2  0
 34 35  1  0
 12  4  1  0
 24 13  1  0
 34 25  1  0
 12  7  1  0
 31 27  1  0
  1 36  1  0
  1 37  1  0
  1 38  1  0
  2 39  1  0
  3 40  1  0
  3 41  1  0
  3 42  1  0
  6 43  1  0
  8 44  1  0
  9 45  1  0
 11 46  1  0
 13 47  1  0
 14 48  1  0
 14 49  1  0
 15 50  1  0
 15 51  1  0
 17 52  1  0
 17 53  1  0
 18 54  1  0
 18 55  1  0
 20 56  1  0
 20 57  1  0
 20 58  1  0
 23 59  1  0
 23 60  1  0
 24 61  1  0
 24 62  1  0
 26 63  1  0
 29 64  1  0
 33 65  1  0
 33 66  1  0
 33 67  1  0
 35 68  1  0
 35 69  1  0
 35 70  1  0
M  END
$$$$
[H]c1c([H])c([H])c(/C(=C2/C(=O)N([H])c3c([H])c(C(=O)OC([H])([H])[H])c([H])c([H])c32)N([H])c2c([H])c([H])c(N(C(=O)C([H])([H])N3C([H])([H])C([H])([H])N(C([H])([H])[H])C([H])([H])C3([H])[H])C([H])([H])[H])c([H])c2[H])c([H])c1[H]
     RDKit          3D

 73 77  0  0  0  0  0  0  0  0999 V2000
   -9.6259    2.7362   -3.1505 C   0  0  0  0  0  0  0  0  0  0  0  0
   -8.5822    2.1423   -2.4234 O   0  0  0  0  0  0  0  0  0  0  0  0
   -7.8814    1.0256   -2.8716 C   0  0  0  0  0  0  0  0  0  0  0  0
   -8.1814    0.5157   -3.9683 O   0  0  0  0  0  0  0  0  0  0  0  0
   -6.8215    0.5153   -2.0123 C   0  0  0  0  0  0  0  0  0  0  0  0
   -6.4947    1.0717   -0.8140 C   0  0  0  0  0  0  0  0  0  0  0  0
   -5.4728    0.5613   -0.0049 C   0  0  0  0  0  0  0  0  0  0  0  0
   -4.7972   -0.5386   -0.4611 C   0  0  0  0  0  0  0  0  0  0  0  0
   -3.6924   -1.2784    0.1218 C   0  0  0  0  0  0  0  0  0  0  0  0
   -3.1406   -1.1461    1.2984 C   0  0  0  0  0  0  0  0  0  0  0  0
   -2.0489   -2.0001    1.6122 N   0  0  0  0  0  0  0  0  0  0  0  0
   -0.6955   -1.7404    1.2757 C   0  0  0  0  0  0  0  0  0  0  0  0
   -0.3049   -0.6232    0.5755 C   0  0  0  0  0  0  0  0  0  0  0  0
    1.0409   -0.3967    0.2619 C   0  0  0  0  0  0  0  0  0  0  0  0
    1.9996   -1.2983    0.6546 C   0  0  0  0  0  0  0  0  0  0  0  0
    1.6109   -2.4148    1.3542 C   0  0  0  0  0  0  0  0  0  0  0  0
    0.2717   -2.6400    1.6660 C   0  0  0  0  0  0  0  0  0  0  0  0
    3.3997   -1.0553    0.3267 N   0  0  0  0  0  0  0  0  0  0  0  0
    4.2743   -1.0443    1.4779 C   0  0  0  0  0  0  0  0  0  0  0  0
    3.8217   -0.9048   -0.9850 C   0  0  0  0  0  0  0  0  0  0  0  0
    2.8737   -1.1517   -1.8665 O   0  0  0  0  0  0  0  0  0  0  0  0
    5.0990   -0.5334   -1.5790 C   0  0  0  0  0  0  0  0  0  0  0  0
    6.1819   -0.1535   -0.7808 N   0  0  0  0  0  0  0  0  0  0  0  0
    6.1479    1.1188   -0.1443 C   0  0  0  0  0  0  0  0  0  0  0  0
    7.0593    2.1225   -0.8152 C   0  0  0  0  0  0  0  0  0  0  0  0
    8.4000    1.6684   -0.9414 N   0  0  0  0  0  0  0  0  0  0  0  0
    9.2089    2.3796   -1.8600 C   0  0  0  0  0  0  0  0  0  0  0  0
    8.6125    0.2731   -0.8355 C   0  0  0  0  0  0  0  0  0  0  0  0
    7.4754   -0.6243   -1.1164 C   0  0  0  0  0  0  0  0  0  0  0  0
   -3.6419   -0.3131    2.3473 C   0  0  0  0  0  0  0  0  0  0  0  0
   -3.0180    0.7830    2.8957 C   0  0  0  0  0  0  0  0  0  0  0  0
   -3.5184    1.4571    3.9801 C   0  0  0  0  0  0  0  0  0  0  0  0
   -4.6869    1.0413    4.5595 C   0  0  0  0  0  0  0  0  0  0  0  0
   -5.3502   -0.0483    4.0505 C   0  0  0  0  0  0  0  0  0  0  0  0
   -4.8397   -0.7104    2.9694 C   0  0  0  0  0  0  0  0  0  0  0  0
   -3.3759   -2.3505   -0.8690 C   0  0  0  0  0  0  0  0  0  0  0  0
   -2.4929   -3.2072   -0.7677 O   0  0  0  0  0  0  0  0  0  0  0  0
   -4.2699   -2.2220   -1.9626 N   0  0  0  0  0  0  0  0  0  0  0  0
   -5.1182   -1.1186   -1.6868 C   0  0  0  0  0  0  0  0  0  0  0  0
   -6.1305   -0.5894   -2.4585 C   0  0  0  0  0  0  0  0  0  0  0  0
   -9.4840    3.8397   -3.1260 H   0  0  0  0  0  0  0  0  0  0  0  0
  -10.6287    2.4400   -2.7994 H   0  0  0  0  0  0  0  0  0  0  0  0
   -9.5092    2.4513   -4.2231 H   0  0  0  0  0  0  0  0  0  0  0  0
   -7.0554    1.9338   -0.4979 H   0  0  0  0  0  0  0  0  0  0  0  0
   -5.2980    1.1170    0.8877 H   0  0  0  0  0  0  0  0  0  0  0  0
   -2.3225   -2.8839    2.1371 H   0  0  0  0  0  0  0  0  0  0  0  0
   -1.0852    0.0650    0.2820 H   0  0  0  0  0  0  0  0  0  0  0  0
    1.2956    0.4918   -0.2875 H   0  0  0  0  0  0  0  0  0  0  0  0
    2.3988   -3.1019    1.6458 H   0  0  0  0  0  0  0  0  0  0  0  0
   -0.0090   -3.5256    2.2172 H   0  0  0  0  0  0  0  0  0  0  0  0
    4.3098   -0.0784    2.0033 H   0  0  0  0  0  0  0  0  0  0  0  0
    5.2439   -1.4894    1.2146 H   0  0  0  0  0  0  0  0  0  0  0  0
    3.8678   -1.7578    2.2758 H   0  0  0  0  0  0  0  0  0  0  0  0
    4.9292    0.2743   -2.3603 H   0  0  0  0  0  0  0  0  0  0  0  0
    5.4335   -1.4380   -2.1821 H   0  0  0  0  0  0  0  0  0  0  0  0
    6.5430    1.0192    0.8973 H   0  0  0  0  0  0  0  0  0  0  0  0
    5.1051    1.4958   -0.1442 H   0  0  0  0  0  0  0  0  0  0  0  0
    7.0209    3.0816   -0.2641 H   0  0  0  0  0  0  0  0  0  0  0  0
    6.6418    2.3090   -1.8254 H   0  0  0  0  0  0  0  0  0  0  0  0
    9.5515    1.7468   -2.6801 H   0  0  0  0  0  0  0  0  0  0  0  0
    8.6875    3.2979   -2.1848 H   0  0  0  0  0  0  0  0  0  0  0  0
   10.1414    2.7025   -1.3095 H   0  0  0  0  0  0  0  0  0  0  0  0
    9.4640   -0.0087   -1.5031 H   0  0  0  0  0  0  0  0  0  0  0  0
    8.9967    0.0613    0.2048 H   0  0  0  0  0  0  0  0  0  0  0  0
    7.6214   -1.6038   -0.5691 H   0  0  0  0  0  0  0  0  0  0  0  0
    7.4535   -0.9472   -2.2000 H   0  0  0  0  0  0  0  0  0  0  0  0
   -2.1060    1.1196    2.4536 H   0  0  0  0  0  0  0  0  0  0  0  0
   -3.0267    2.3165    4.4077 H   0  0  0  0  0  0  0  0  0  0  0  0
   -5.1025    1.5578    5.4176 H   0  0  0  0  0  0  0  0  0  0  0  0
   -6.2843   -0.3557    4.5382 H   0  0  0  0  0  0  0  0  0  0  0  0
   -5.4043   -1.5664    2.6063 H   0  0  0  0  0  0  0  0  0  0  0  0
   -4.3057   -2.8330   -2.8311 H   0  0  0  0  0  0  0  0  0  0  0  0
   -6.3795   -1.0398   -3.4080 H   0  0  0  0  0  0  0  0  0  0  0  0
  1  2  1  0
  2  3  1  0
  3  4  2  0
  3  5  1  0
  5  6  2  0
  6  7  1  0
  7  8  2  0
  8  9  1  0
  9 10  2  0
 10 11  1  0
 11 12  1  0
 12 13  2  0
 13 14  1  0
 14 15  2  0
 15 16  1  0
 16 17  2  0
 15 18  1  0
 18 19  1  0
 18 20  1  0
 20 21  2  0
 20 22  1  0
 22 23  1  0
 23 24  1  0
 24 25  1  0
 25 26  1  0
 26 27  1  0
 26 28  1  0
 28 29  1  0
 10 30  1  0
 30 31  2  0
 31 32  1  0
 32 33  2  0
 33 34  1  0
 34 35  2  0
  9 36  1  0
 36 37  2  0
 36 38  1  0
 38 39  1  0
 39 40  2  0
 40  5  1  0
 39  8  1  0
 17 12  1  0
 29 23  1  0
 35 30  1  0
  1 41  1  0
  1 42  1  0
  1 43  1  0
  6 44  1  0
  7 45  1  0
 11 46  1  0
 13 47  1  0
 14 48  1  0
 16 49  1  0
 17 50  1  0
 19 51  1  0
 19 52  1  0
 19 53  1  0
 22 54  1  0
 22 55  1  0
 24 56  1  0
 24 57  1  0
 25 58  1  0
 25 59  1  0
 27 60  1  0
 27 61  1  0
 27 62  1  0
 28 63  1  0
 28 64  1  0
 29 65  1  0
 29 66  1  0
 31 67  1  0
 32 68  1  0
 33 69  1  0
 34 70  1  0
 35 71  1  0
 38 72  1  0
 40 73  1  0
M  END
$$$$
[H]O[C@@]([H])(C([H])([H])C(=O)OC([H])([H])C([H])([H])[H])[C@@]([H])(N([H])C(=O)[C@@]([H])(N([H])C(=O)[C@@]([H])(N([H])C(=O)C([H])([H])C([H])(C([H])([H])[H])C([H])([H])[H])C([H])(C([H])([H])[H])C([H])([H])[H])C([H])(C([H])([H])[H])C([H])([H])[H])C([H])([H])C([H])(C([H])([H])[H])C([H])([H])[H]
     RDKit          3D

 81 80  0  0  0  0  0  0  0  0999 V2000
    6.9864    4.2789    0.6689 C   0  0  0  0  0  0  0  0  0  0  0  0
    7.3314    2.9838    1.3250 C   0  0  0  0  0  0  0  0  0  0  0  0
    6.4083    1.9468    1.0135 O   0  0  0  0  0  0  0  0  0  0  0  0
    6.1463    1.4832   -0.2562 C   0  0  0  0  0  0  0  0  0  0  0  0
    6.7461    1.9941   -1.2255 O   0  0  0  0  0  0  0  0  0  0  0  0
    5.1613    0.3898   -0.4441 C   0  0  0  0  0  0  0  0  0  0  0  0
    4.5358    0.0772    0.8686 C   0  0  2  0  0  0  0  0  0  0  0  0
    5.4960   -0.3198    1.8029 O   0  0  0  0  0  0  0  0  0  0  0  0
    3.4911   -1.0352    0.8147 C   0  0  2  0  0  0  0  0  0  0  0  0
    4.1192   -2.3666    0.6883 C   0  0  0  0  0  0  0  0  0  0  0  0
    3.2487   -3.5758    0.6501 C   0  0  0  0  0  0  0  0  0  0  0  0
    2.2827   -3.6374   -0.4903 C   0  0  0  0  0  0  0  0  0  0  0  0
    4.1716   -4.8114    0.5245 C   0  0  0  0  0  0  0  0  0  0  0  0
    2.4498   -0.7030   -0.1246 N   0  0  0  0  0  0  0  0  0  0  0  0
    1.1355   -0.3916    0.2614 C   0  0  0  0  0  0  0  0  0  0  0  0
    0.9438   -0.4267    1.5417 O   0  0  0  0  0  0  0  0  0  0  0  0
   -0.0222   -0.0465   -0.5380 C   0  0  1  0  0  0  0  0  0  0  0  0
   -1.2255    0.1230    0.2731 N   0  0  0  0  0  0  0  0  0  0  0  0
   -2.4183   -0.4666   -0.1186 C   0  0  0  0  0  0  0  0  0  0  0  0
   -2.4689   -1.1429   -1.1813 O   0  0  0  0  0  0  0  0  0  0  0  0
   -3.6983   -0.3644    0.6337 C   0  0  1  0  0  0  0  0  0  0  0  0
   -4.8544   -0.5295   -0.2267 N   0  0  0  0  0  0  0  0  0  0  0  0
   -5.8176    0.4887   -0.4111 C   0  0  0  0  0  0  0  0  0  0  0  0
   -5.5894    1.5735    0.2378 O   0  0  0  0  0  0  0  0  0  0  0  0
   -7.0149    0.4342   -1.2457 C   0  0  0  0  0  0  0  0  0  0  0  0
   -7.7638    1.7549   -1.2623 C   0  0  0  0  0  0  0  0  0  0  0  0
   -6.8280    2.8065   -1.8218 C   0  0  0  0  0  0  0  0  0  0  0  0
   -8.9604    1.6942   -2.1682 C   0  0  0  0  0  0  0  0  0  0  0  0
   -3.7415   -1.3829    1.7646 C   0  0  0  0  0  0  0  0  0  0  0  0
   -2.6539   -1.2215    2.7716 C   0  0  0  0  0  0  0  0  0  0  0  0
   -3.6940   -2.8088    1.2527 C   0  0  0  0  0  0  0  0  0  0  0  0
    0.1563    1.2562   -1.2641 C   0  0  0  0  0  0  0  0  0  0  0  0
    1.2924    1.2639   -2.2228 C   0  0  0  0  0  0  0  0  0  0  0  0
    0.1843    2.4348   -0.3148 C   0  0  0  0  0  0  0  0  0  0  0  0
    7.2046    5.1681    1.2973 H   0  0  0  0  0  0  0  0  0  0  0  0
    5.9083    4.3226    0.3525 H   0  0  0  0  0  0  0  0  0  0  0  0
    7.5461    4.4099   -0.2975 H   0  0  0  0  0  0  0  0  0  0  0  0
    7.4318    3.0939    2.4197 H   0  0  0  0  0  0  0  0  0  0  0  0
    8.3353    2.6152    0.9756 H   0  0  0  0  0  0  0  0  0  0  0  0
    5.7343   -0.4600   -0.8757 H   0  0  0  0  0  0  0  0  0  0  0  0
    4.4183    0.7543   -1.1630 H   0  0  0  0  0  0  0  0  0  0  0  0
    4.0278    0.9695    1.2626 H   0  0  0  0  0  0  0  0  0  0  0  0
    5.2933    0.0802    2.7027 H   0  0  0  0  0  0  0  0  0  0  0  0
    3.0163   -0.9903    1.8398 H   0  0  0  0  0  0  0  0  0  0  0  0
    4.8614   -2.5513    1.5351 H   0  0  0  0  0  0  0  0  0  0  0  0
    4.7926   -2.4443   -0.2153 H   0  0  0  0  0  0  0  0  0  0  0  0
    2.7180   -3.7347    1.6337 H   0  0  0  0  0  0  0  0  0  0  0  0
    1.2217   -3.4311   -0.1579 H   0  0  0  0  0  0  0  0  0  0  0  0
    2.2544   -4.7213   -0.8176 H   0  0  0  0  0  0  0  0  0  0  0  0
    2.4835   -2.9809   -1.3370 H   0  0  0  0  0  0  0  0  0  0  0  0
    4.4356   -5.0016   -0.5088 H   0  0  0  0  0  0  0  0  0  0  0  0
    5.0959   -4.5540    1.0916 H   0  0  0  0  0  0  0  0  0  0  0  0
    3.7212   -5.6717    1.0793 H   0  0  0  0  0  0  0  0  0  0  0  0
    2.7109   -0.6936   -1.1233 H   0  0  0  0  0  0  0  0  0  0  0  0
   -0.1876   -0.8307   -1.3190 H   0  0  0  0  0  0  0  0  0  0  0  0
   -1.1633    0.6948    1.1368 H   0  0  0  0  0  0  0  0  0  0  0  0
   -3.7593    0.6460    1.0804 H   0  0  0  0  0  0  0  0  0  0  0  0
   -5.0020   -1.4212   -0.7375 H   0  0  0  0  0  0  0  0  0  0  0  0
   -7.6898   -0.3301   -0.8460 H   0  0  0  0  0  0  0  0  0  0  0  0
   -6.7455    0.2071   -2.3193 H   0  0  0  0  0  0  0  0  0  0  0  0
   -8.0916    2.0339   -0.2569 H   0  0  0  0  0  0  0  0  0  0  0  0
   -5.9728    2.2918   -2.2913 H   0  0  0  0  0  0  0  0  0  0  0  0
   -6.5495    3.4850   -0.9849 H   0  0  0  0  0  0  0  0  0  0  0  0
   -7.3278    3.3861   -2.6428 H   0  0  0  0  0  0  0  0  0  0  0  0
   -8.7209    1.9728   -3.2116 H   0  0  0  0  0  0  0  0  0  0  0  0
   -9.4071    0.6806   -2.1976 H   0  0  0  0  0  0  0  0  0  0  0  0
   -9.7825    2.3736   -1.8190 H   0  0  0  0  0  0  0  0  0  0  0  0
   -4.7211   -1.2836    2.2870 H   0  0  0  0  0  0  0  0  0  0  0  0
   -1.7697   -1.8766    2.5389 H   0  0  0  0  0  0  0  0  0  0  0  0
   -3.0415   -1.6173    3.7605 H   0  0  0  0  0  0  0  0  0  0  0  0
   -2.3698   -0.1724    2.9873 H   0  0  0  0  0  0  0  0  0  0  0  0
   -4.0156   -2.8819    0.2124 H   0  0  0  0  0  0  0  0  0  0  0  0
   -4.2509   -3.4972    1.9242 H   0  0  0  0  0  0  0  0  0  0  0  0
   -2.6144   -3.1320    1.3363 H   0  0  0  0  0  0  0  0  0  0  0  0
   -0.8019    1.3838   -1.8692 H   0  0  0  0  0  0  0  0  0  0  0  0
    1.3940    0.2906   -2.7635 H   0  0  0  0  0  0  0  0  0  0  0  0
    2.2642    1.5326   -1.8142 H   0  0  0  0  0  0  0  0  0  0  0  0
    1.0145    1.9983   -3.0543 H   0  0  0  0  0  0  0  0  0  0  0  0
    0.3426    2.0383    0.7110 H   0  0  0  0  0  0  0  0  0  0  0  0
    1.0154    3.1406   -0.5739 H   0  0  0  0  0  0  0  0  0  0  0  0
   -0.7937    2.9553   -0.3046 H   0  0  0  0  0  0  0  0  0  0  0  0
  1  2  1  0
  2  3  1  0
  3  4  1  0
  4  5  2  0
  4  6  1  0
  6  7  1  0
  7  8  1  0
  7  9  1  0
  9 10  1  0
 10 11  1  0
 11 12  1  0
 11 13  1  0
  9 14  1  0
 14 15  1  0
 15 16  2  0
 15 17  1  0
 17 18  1  0
 18 19  1  0
 19 20  2  0
 19 21  1  0
 21 22  1  0
 22 23  1  0
 23 24  2  0
 23 25  1  0
 25 26  1  0
 26 27  1  0
 26 28  1  0
 21 29  1  0
 29 30  1  0
 29 31  1  0
 17 32  1  0
 32 33  1  0
 32 34  1  0
  1 35  1  0
  1 36  1  0
  1 37  1  0
  2 38  1  0
  2 39  1  0
  6 40  1  0
  6 41  1  0
  7 42  1  1
  8 43  1  0
  9 44  1  1
 10 45  1  0
 10 46  1  0
 11 47  1  0
 12 48  1  0
 12 49  1  0
 12 50  1  0
 13 51  1  0
 13 52  1  0
 13 53  1  0
 14 54  1  0
 17 55  1  6
 18 56  1  0
 21 57  1  1
 22 58  1  0
 25 59  1  0
 25 60  1  0
 26 61  1  0
 27 62  1  0
 27 63  1  0
 27 64  1  0
 28 65  1  0
 28 66  1  0
 28 67  1  0
 29 68  1  0
 30 69  1  0
 30 70  1  0
 30 71  1  0
 31 72  1  0
 31 73  1  0
 31 74  1  0
 32 75  1  0
 33 76  1  0
 33 77  1  0
 33 78  1  0
 34 79  1  0
 34 80  1  0
 34 81  1  0
M  END
$$$$
[H]N=C(N([H])[H])N([H])C([H])([H])C([H])([H])C([H])([H])[C@@]([H])(C([H])=O)N([H])C(=O)[C@@]([H])(N([H])C(=O)[C@]([H])(N([H])S(=O)(=O)C([H])([H])c1c([H])c([H])c([H])c([H])c1[H])C([H])([H])O[H])C([H])([H])C([H])(C([H])([H])[H])C([H])([H])[H]
     RDKit          3D

 71 71  0  0  0  0  0  0  0  0999 V2000
   -0.8492   -3.0755    0.9500 C   0  0  0  0  0  0  0  0  0  0  0  0
    0.6234   -2.7862    1.1131 C   0  0  0  0  0  0  0  0  0  0  0  0
    1.4018   -3.0475   -0.1419 C   0  0  0  0  0  0  0  0  0  0  0  0
    0.9550   -1.5601    1.8602 C   0  0  0  0  0  0  0  0  0  0  0  0
    0.5321   -0.2368    1.4238 C   0  0  2  0  0  0  0  0  0  0  0  0
   -0.8683    0.0022    1.3063 N   0  0  0  0  0  0  0  0  0  0  0  0
   -1.5724    0.1714    0.1052 C   0  0  0  0  0  0  0  0  0  0  0  0
   -1.0883    0.1219   -1.0411 O   0  0  0  0  0  0  0  0  0  0  0  0
   -3.0830    0.4463    0.1565 C   0  0  1  0  0  0  0  0  0  0  0  0
   -3.3051    1.6693    0.9582 C   0  0  0  0  0  0  0  0  0  0  0  0
   -4.6388    1.9846    1.0361 O   0  0  0  0  0  0  0  0  0  0  0  0
   -3.5197    0.5804   -1.2005 N   0  0  0  0  0  0  0  0  0  0  0  0
   -4.4563   -0.7348   -1.7307 S   0  0  0  0  0  0  0  0  0  0  0  0
   -4.5394   -1.7296   -0.5753 O   0  0  0  0  0  0  0  0  0  0  0  0
   -3.7379   -1.4582   -2.8656 O   0  0  0  0  0  0  0  0  0  0  0  0
   -6.0742   -0.3785   -2.2564 C   0  0  0  0  0  0  0  0  0  0  0  0
   -6.9599    0.2467   -1.2957 C   0  0  0  0  0  0  0  0  0  0  0  0
   -7.1464    1.6357   -1.3555 C   0  0  0  0  0  0  0  0  0  0  0  0
   -7.9732    2.3051   -0.4876 C   0  0  0  0  0  0  0  0  0  0  0  0
   -8.6495    1.5985    0.4811 C   0  0  0  0  0  0  0  0  0  0  0  0
   -8.4867    0.2436    0.5626 C   0  0  0  0  0  0  0  0  0  0  0  0
   -7.6515   -0.4247   -0.3156 C   0  0  0  0  0  0  0  0  0  0  0  0
    1.4101    0.5214    0.5109 C   0  0  0  0  0  0  0  0  0  0  0  0
    0.9643    1.4953   -0.1326 O   0  0  0  0  0  0  0  0  0  0  0  0
    2.7665    0.2044    0.3130 N   0  0  0  0  0  0  0  0  0  0  0  0
    3.6188    0.9663   -0.5781 C   0  0  1  0  0  0  0  0  0  0  0  0
    4.8117    1.5683    0.0629 C   0  0  0  0  0  0  0  0  0  0  0  0
    5.7886    0.6671    0.7054 C   0  0  0  0  0  0  0  0  0  0  0  0
    6.4810   -0.3300   -0.1530 C   0  0  0  0  0  0  0  0  0  0  0  0
    7.2435    0.2995   -1.1887 N   0  0  0  0  0  0  0  0  0  0  0  0
    8.3943    1.0500   -0.8217 C   0  0  0  0  0  0  0  0  0  0  0  0
    9.5926    0.3655   -0.4153 N   0  0  0  0  0  0  0  0  0  0  0  0
    8.4245    2.3295   -0.8365 N   0  0  0  0  0  0  0  0  0  0  0  0
    3.9260    0.2522   -1.8449 C   0  0  0  0  0  0  0  0  0  0  0  0
    3.4837   -0.8484   -2.1268 O   0  0  0  0  0  0  0  0  0  0  0  0
   -1.3904   -2.5004    1.7235 H   0  0  0  0  0  0  0  0  0  0  0  0
   -1.0416   -4.1556    1.2150 H   0  0  0  0  0  0  0  0  0  0  0  0
   -1.2089   -2.9177   -0.0831 H   0  0  0  0  0  0  0  0  0  0  0  0
    0.9843   -3.6246    1.7981 H   0  0  0  0  0  0  0  0  0  0  0  0
    2.4830   -3.0771    0.0681 H   0  0  0  0  0  0  0  0  0  0  0  0
    1.2123   -2.3809   -0.9675 H   0  0  0  0  0  0  0  0  0  0  0  0
    1.1269   -4.0838   -0.4743 H   0  0  0  0  0  0  0  0  0  0  0  0
    2.0361   -1.5531    2.1061 H   0  0  0  0  0  0  0  0  0  0  0  0
    0.4843   -1.7245    2.9002 H   0  0  0  0  0  0  0  0  0  0  0  0
    0.7668    0.4136    2.4091 H   0  0  0  0  0  0  0  0  0  0  0  0
   -1.4842    0.0607    2.1845 H   0  0  0  0  0  0  0  0  0  0  0  0
   -3.5068   -0.4557    0.6459 H   0  0  0  0  0  0  0  0  0  0  0  0
   -2.8850    1.5185    1.9907 H   0  0  0  0  0  0  0  0  0  0  0  0
   -2.7434    2.5264    0.5064 H   0  0  0  0  0  0  0  0  0  0  0  0
   -4.8393    2.8795    1.3858 H   0  0  0  0  0  0  0  0  0  0  0  0
   -2.7939    0.8917   -1.8587 H   0  0  0  0  0  0  0  0  0  0  0  0
   -6.0276    0.2747   -3.1854 H   0  0  0  0  0  0  0  0  0  0  0  0
   -6.5487   -1.3541   -2.5664 H   0  0  0  0  0  0  0  0  0  0  0  0
   -6.6073    2.1863   -2.1243 H   0  0  0  0  0  0  0  0  0  0  0  0
   -8.0731    3.3952   -0.5893 H   0  0  0  0  0  0  0  0  0  0  0  0
   -9.3111    2.0944    1.1835 H   0  0  0  0  0  0  0  0  0  0  0  0
   -9.0110   -0.3366    1.3202 H   0  0  0  0  0  0  0  0  0  0  0  0
   -7.5276   -1.5040   -0.2427 H   0  0  0  0  0  0  0  0  0  0  0  0
    3.1713   -0.6034    0.8218 H   0  0  0  0  0  0  0  0  0  0  0  0
    2.9491    1.8293   -0.9214 H   0  0  0  0  0  0  0  0  0  0  0  0
    5.3228    2.2769   -0.6259 H   0  0  0  0  0  0  0  0  0  0  0  0
    4.4174    2.2465    0.8848 H   0  0  0  0  0  0  0  0  0  0  0  0
    5.3548    0.1934    1.6201 H   0  0  0  0  0  0  0  0  0  0  0  0
    6.6048    1.3296    1.1277 H   0  0  0  0  0  0  0  0  0  0  0  0
    7.2008   -0.8768    0.5456 H   0  0  0  0  0  0  0  0  0  0  0  0
    5.8694   -1.1190   -0.5839 H   0  0  0  0  0  0  0  0  0  0  0  0
    7.0218    0.2492   -2.2036 H   0  0  0  0  0  0  0  0  0  0  0  0
   10.1426   -0.1534   -1.1514 H   0  0  0  0  0  0  0  0  0  0  0  0
    9.8707    0.4057    0.5768 H   0  0  0  0  0  0  0  0  0  0  0  0
    7.5851    2.8483   -1.1253 H   0  0  0  0  0  0  0  0  0  0  0  0
    4.5773    0.6859   -2.6038 H   0  0  0  0  0  0  0  0  0  0  0  0
  1  2  1  0
  2  3  1  0
  2  4  1  0
  4  5  1  0
  5  6  1  0
  6  7  1  0
  7  8  2  0
  7  9  1  0
  9 10  1  0
 10 11  1  0
  9 12  1  0
 12 13  1  0
 13 14  2  0
 13 15  2  0
 13 16  1  0
 16 17  1  0
 17 18  2  0
 18 19  1  0
 19 20  2  0
 20 21  1  0
 21 22  2  0
  5 23  1  0
 23 24  2  0
 23 25  1  0
 25 26  1  0
 26 27  1  0
 27 28  1  0
 28 29  1  0
 29 30  1  0
 30 31  1  0
 31 32  1  0
 31 33  2  3
 26 34  1  0
 34 35  2  0
 22 17  1  0
  1 36  1  0
  1 37  1  0
  1 38  1  0
  2 39  1  0
  3 40  1  0
  3 41  1  0
  3 42  1  0
  4 43  1  0
  4 44  1  0
  5 45  1  1
  6 46  1  0
  9 47  1  1
 10 48  1  0
 10 49  1  0
 11 50  1  0
 12 51  1  0
 16 52  1  0
 16 53  1  0
 18 54  1  0
 19 55  1  0
 20 56  1  0
 21 57  1  0
 22 58  1  0
 25 59  1  0
 26 60  1  6
 27 61  1  0
 27 62  1  0
 28 63  1  0
 28 64  1  0
 29 65  1  0
 29 66  1  0
 30 67  1  0
 32 68  1  0
 32 69  1  0
 33 70  1  0
 34 71  1  0
M  END
$$$$
[H]OC(=O)c1c(O[H])c([H])c2c(O[H])c([H])c(O[H])c([H])c2c1[H]
     RDKit          3D

 24 25  0  0  0  0  0  0  0  0999 V2000
    4.3189    0.2222    0.7197 O   0  0  0  0  0  0  0  0  0  0  0  0
    3.2704    0.6415   -0.0453 C   0  0  0  0  0  0  0  0  0  0  0  0
    3.5565    1.4578   -0.9964 O   0  0  0  0  0  0  0  0  0  0  0  0
    1.8970    0.2266    0.1540 C   0  0  0  0  0  0  0  0  0  0  0  0
    0.9331    0.7555   -0.7279 C   0  0  0  0  0  0  0  0  0  0  0  0
   -0.3893    0.4347   -0.6340 C   0  0  0  0  0  0  0  0  0  0  0  0
   -1.3401    0.9579   -1.5060 C   0  0  0  0  0  0  0  0  0  0  0  0
   -2.6765    0.6417   -1.4211 C   0  0  0  0  0  0  0  0  0  0  0  0
   -3.6172    1.1741   -2.3022 O   0  0  0  0  0  0  0  0  0  0  0  0
   -3.0413   -0.2283   -0.4213 C   0  0  0  0  0  0  0  0  0  0  0  0
   -2.0924   -0.7610    0.4621 C   0  0  0  0  0  0  0  0  0  0  0  0
   -2.5314   -1.6209    1.4322 O   0  0  0  0  0  0  0  0  0  0  0  0
   -0.7477   -0.4397    0.3727 C   0  0  0  0  0  0  0  0  0  0  0  0
    0.1750   -0.9647    1.2405 C   0  0  0  0  0  0  0  0  0  0  0  0
    1.5491   -0.6378    1.1509 C   0  0  0  0  0  0  0  0  0  0  0  0
    2.4108   -1.2013    2.0524 O   0  0  0  0  0  0  0  0  0  0  0  0
    5.0293   -0.4151    0.4118 H   0  0  0  0  0  0  0  0  0  0  0  0
    1.2335    1.4445   -1.5172 H   0  0  0  0  0  0  0  0  0  0  0  0
   -1.0076    1.6413   -2.2807 H   0  0  0  0  0  0  0  0  0  0  0  0
   -4.1169    2.0226   -2.1534 H   0  0  0  0  0  0  0  0  0  0  0  0
   -4.0892   -0.4872   -0.3410 H   0  0  0  0  0  0  0  0  0  0  0  0
   -1.9899   -2.0792    2.1285 H   0  0  0  0  0  0  0  0  0  0  0  0
   -0.0882   -1.6421    2.0238 H   0  0  0  0  0  0  0  0  0  0  0  0
    3.3541   -1.1430    2.1979 H   0  0  0  0  0  0  0  0  0  0  0  0
  1  2  1  0
  2  3  2  0
  2  4  1  0
  4  5  2  0
  5  6  1  0
  6  7  2  0
  7  8  1  0
  8  9  1  0
  8 10  2  0
 10 11  1  0
 11 12  1  0
 11 13  2  0
 13 14  1  0
 14 15  2  0
 15 16  1  0
 15  4  1  0
 13  6  1  0
  1 17  1  0
  5 18  1  0
  7 19  1  0
  9 20  1  0
 10 21  1  0
 12 22  1  0
 14 23  1  0
 16 24  1  0
M  END
$$$$
[H]OC(=O)C([H])([H])C([H])([H])C([H])([H])Sc1c([H])c([H])c2c(c1[H])c(C([H])([H])C(=O)N([H])[H])c(C([H])([H])C([H])([H])[H])n2C([H])([H])c1c([H])c([H])c([H])c([H])c1[H]
     RDKit          3D

 55 57  0  0  0  0  0  0  0  0999 V2000
   -3.4992    1.4419   -1.6140 C   0  0  0  0  0  0  0  0  0  0  0  0
   -2.2446    2.2071   -1.2800 C   0  0  0  0  0  0  0  0  0  0  0  0
   -1.2127    1.3482   -0.6176 C   0  0  0  0  0  0  0  0  0  0  0  0
   -0.2627    0.5916   -1.2077 C   0  0  0  0  0  0  0  0  0  0  0  0
    0.1521    0.4219   -2.6091 C   0  0  0  0  0  0  0  0  0  0  0  0
   -0.7028   -0.4264   -3.4521 C   0  0  0  0  0  0  0  0  0  0  0  0
   -0.4725   -1.8248   -3.5403 N   0  0  0  0  0  0  0  0  0  0  0  0
   -1.6420    0.0455   -4.1028 O   0  0  0  0  0  0  0  0  0  0  0  0
    0.4382   -0.0986   -0.1749 C   0  0  0  0  0  0  0  0  0  0  0  0
    1.4949   -0.9780   -0.2397 C   0  0  0  0  0  0  0  0  0  0  0  0
    2.0135   -1.5079    0.9317 C   0  0  0  0  0  0  0  0  0  0  0  0
    3.4029   -2.6275    0.9338 S   0  0  0  0  0  0  0  0  0  0  0  0
    4.1310   -2.8452   -0.6804 C   0  0  0  0  0  0  0  0  0  0  0  0
    4.8281   -1.5831   -1.1003 C   0  0  0  0  0  0  0  0  0  0  0  0
    5.9298   -1.2915   -0.0720 C   0  0  0  0  0  0  0  0  0  0  0  0
    6.5578   -0.0114   -0.5618 C   0  0  0  0  0  0  0  0  0  0  0  0
    6.2046    1.1472    0.1025 O   0  0  0  0  0  0  0  0  0  0  0  0
    7.3421   -0.0598   -1.5164 O   0  0  0  0  0  0  0  0  0  0  0  0
    1.4531   -1.1396    2.1111 C   0  0  0  0  0  0  0  0  0  0  0  0
    0.3762   -0.2412    2.1577 C   0  0  0  0  0  0  0  0  0  0  0  0
   -0.1514    0.2999    0.9929 C   0  0  0  0  0  0  0  0  0  0  0  0
   -1.1417    1.1660    0.7371 N   0  0  0  0  0  0  0  0  0  0  0  0
   -1.9731    1.8253    1.6787 C   0  0  0  0  0  0  0  0  0  0  0  0
   -3.2690    1.1843    1.9428 C   0  0  0  0  0  0  0  0  0  0  0  0
   -3.4768   -0.1560    1.9547 C   0  0  0  0  0  0  0  0  0  0  0  0
   -4.7015   -0.7025    2.2461 C   0  0  0  0  0  0  0  0  0  0  0  0
   -5.8145    0.1058    2.5490 C   0  0  0  0  0  0  0  0  0  0  0  0
   -5.5837    1.4618    2.5316 C   0  0  0  0  0  0  0  0  0  0  0  0
   -4.3560    1.9981    2.2401 C   0  0  0  0  0  0  0  0  0  0  0  0
   -4.3515    1.7866   -1.0047 H   0  0  0  0  0  0  0  0  0  0  0  0
   -3.3437    0.3794   -1.3640 H   0  0  0  0  0  0  0  0  0  0  0  0
   -3.7476    1.6281   -2.6803 H   0  0  0  0  0  0  0  0  0  0  0  0
   -1.8139    2.6829   -2.1969 H   0  0  0  0  0  0  0  0  0  0  0  0
   -2.4681    3.0488   -0.6108 H   0  0  0  0  0  0  0  0  0  0  0  0
    1.2305    0.0822   -2.6837 H   0  0  0  0  0  0  0  0  0  0  0  0
    0.1865    1.4238   -3.1341 H   0  0  0  0  0  0  0  0  0  0  0  0
   -0.0134   -2.2378   -4.3474 H   0  0  0  0  0  0  0  0  0  0  0  0
   -0.7937   -2.4120   -2.7431 H   0  0  0  0  0  0  0  0  0  0  0  0
    1.9256   -1.2809   -1.1743 H   0  0  0  0  0  0  0  0  0  0  0  0
    3.3332   -3.1478   -1.3846 H   0  0  0  0  0  0  0  0  0  0  0  0
    4.8636   -3.6910   -0.6182 H   0  0  0  0  0  0  0  0  0  0  0  0
    4.1701   -0.6966   -1.1675 H   0  0  0  0  0  0  0  0  0  0  0  0
    5.2688   -1.7383   -2.1060 H   0  0  0  0  0  0  0  0  0  0  0  0
    5.4492   -1.1527    0.9175 H   0  0  0  0  0  0  0  0  0  0  0  0
    6.6687   -2.1116   -0.0247 H   0  0  0  0  0  0  0  0  0  0  0  0
    6.4193    2.0792   -0.2128 H   0  0  0  0  0  0  0  0  0  0  0  0
    1.8097   -1.5207    3.0669 H   0  0  0  0  0  0  0  0  0  0  0  0
   -0.0163    0.0137    3.0994 H   0  0  0  0  0  0  0  0  0  0  0  0
   -2.1864    2.8872    1.3621 H   0  0  0  0  0  0  0  0  0  0  0  0
   -1.4146    1.9469    2.6347 H   0  0  0  0  0  0  0  0  0  0  0  0
   -2.6657   -0.8221    1.7288 H   0  0  0  0  0  0  0  0  0  0  0  0
   -4.8480   -1.7836    2.2470 H   0  0  0  0  0  0  0  0  0  0  0  0
   -6.7824   -0.2753    2.7779 H   0  0  0  0  0  0  0  0  0  0  0  0
   -6.4503    2.0903    2.7641 H   0  0  0  0  0  0  0  0  0  0  0  0
   -4.2495    3.0703    2.2463 H   0  0  0  0  0  0  0  0  0  0  0  0
  1  2  1  0
  2  3  1  0
  3  4  2  0
  4  5  1  0
  5  6  1  0
  6  7  1  0
  6  8  2  0
  4  9  1  0
  9 10  2  0
 10 11  1  0
 11 12  1  0
 12 13  1  0
 13 14  1  0
 14 15  1  0
 15 16  1  0
 16 17  1  0
 16 18  2  0
 11 19  2  0
 19 20  1  0
 20 21  2  0
 21 22  1  0
 22 23  1  0
 23 24  1  0
 24 25  2  0
 25 26  1  0
 26 27  2  0
 27 28  1  0
 28 29  2  0
 22  3  1  0
 29 24  1  0
 21  9  1  0
  1 30  1  0
  1 31  1  0
  1 32  1  0
  2 33  1  0
  2 34  1  0
  5 35  1  0
  5 36  1  0
  7 37  1  0
  7 38  1  0
 10 39  1  0
 13 40  1  0
 13 41  1  0
 14 42  1  0
 14 43  1  0
 15 44  1  0
 15 45  1  0
 17 46  1  0
 19 47  1  0
 20 48  1  0
 23 49  1  0
 23 50  1  0
 25 51  1  0
 26 52  1  0
 27 53  1  0
 28 54  1  0
 29 55  1  0
M  END
$$$$
[H]N=C(N([H])[H])N([H])C([H])([H])C([H])([H])C([H])([H])[C@@]([H])(C(=O)N([H])[C@]([H])(C(=O)O[H])C([H])([H])c1c([H])n([H])c2c([H])c([H])c([H])c([H])c12)N([H])C(=O)[C@@]([H])(N([H])C(=O)[C@@]([H])(N([H])C(=O)[C@@]([H])(N([H])[H])C([H])([H])C([H])([H])C(=O)O[H])C([H])([H])C([H])([H])C(=O)O[H])C([H])([H])C([H])([H])C(=O)O[H]
     RDKit          3D

 98 99  0  0  0  0  0  0  0  0999 V2000
   -3.1310    7.1141    3.0069 N   0  0  0  0  0  0  0  0  0  0  0  0
   -2.0062    6.3240    2.7172 C   0  0  0  0  0  0  0  0  0  0  0  0
   -0.7881    6.7637    2.8240 N   0  0  0  0  0  0  0  0  0  0  0  0
   -2.2256    4.9673    2.2870 N   0  0  0  0  0  0  0  0  0  0  0  0
   -3.4594    4.6594    1.5982 C   0  0  0  0  0  0  0  0  0  0  0  0
   -3.5056    3.1741    1.1923 C   0  0  0  0  0  0  0  0  0  0  0  0
   -2.3849    2.9058    0.2673 C   0  0  0  0  0  0  0  0  0  0  0  0
   -2.2139    1.5066   -0.2184 C   0  0  2  0  0  0  0  0  0  0  0  0
   -1.0351    1.4582   -1.1342 N   0  0  0  0  0  0  0  0  0  0  0  0
   -0.0013    0.5431   -0.9280 C   0  0  0  0  0  0  0  0  0  0  0  0
   -0.1916   -0.2168    0.1219 O   0  0  0  0  0  0  0  0  0  0  0  0
    1.2205    0.3297   -1.7039 C   0  0  2  0  0  0  0  0  0  0  0  0
    0.9954   -0.2134   -3.1048 C   0  0  0  0  0  0  0  0  0  0  0  0
    0.2179    0.6170   -4.0360 C   0  0  0  0  0  0  0  0  0  0  0  0
    0.7665    1.9234   -4.3831 C   0  0  0  0  0  0  0  0  0  0  0  0
    0.0381    2.7750   -5.1920 O   0  0  0  0  0  0  0  0  0  0  0  0
    1.8772    2.2910   -3.9660 O   0  0  0  0  0  0  0  0  0  0  0  0
    1.9798   -0.7616   -1.0496 N   0  0  0  0  0  0  0  0  0  0  0  0
    3.3753   -0.8460   -1.1073 C   0  0  0  0  0  0  0  0  0  0  0  0
    4.0219    0.0229   -1.7339 O   0  0  0  0  0  0  0  0  0  0  0  0
    3.9984   -2.0036   -0.4013 C   0  0  2  0  0  0  0  0  0  0  0  0
    3.7826   -1.8182    1.0950 C   0  0  0  0  0  0  0  0  0  0  0  0
    4.2719   -2.9841    1.8734 C   0  0  0  0  0  0  0  0  0  0  0  0
    4.0913   -2.7519    3.3466 C   0  0  0  0  0  0  0  0  0  0  0  0
    4.4876   -3.7161    4.2420 O   0  0  0  0  0  0  0  0  0  0  0  0
    3.5800   -1.6812    3.7408 O   0  0  0  0  0  0  0  0  0  0  0  0
    5.3890   -1.9821   -0.7854 N   0  0  0  0  0  0  0  0  0  0  0  0
    6.5334   -1.5948   -0.1127 C   0  0  0  0  0  0  0  0  0  0  0  0
    6.5906   -1.1194    1.0627 O   0  0  0  0  0  0  0  0  0  0  0  0
    7.8663   -1.7288   -0.7834 C   0  0  1  0  0  0  0  0  0  0  0  0
    7.6950   -2.4478   -2.0595 N   0  0  0  0  0  0  0  0  0  0  0  0
    8.5717   -0.4535   -0.9898 C   0  0  0  0  0  0  0  0  0  0  0  0
    8.8813    0.2926    0.2633 C   0  0  0  0  0  0  0  0  0  0  0  0
    9.7222   -0.3942    1.2438 C   0  0  0  0  0  0  0  0  0  0  0  0
   10.0726    0.2888    2.4223 O   0  0  0  0  0  0  0  0  0  0  0  0
   10.1694   -1.5486    1.1343 O   0  0  0  0  0  0  0  0  0  0  0  0
   -3.3716    1.0656   -0.9987 C   0  0  0  0  0  0  0  0  0  0  0  0
   -3.2581    0.9545   -2.2437 O   0  0  0  0  0  0  0  0  0  0  0  0
   -4.6563    0.7298   -0.4773 N   0  0  0  0  0  0  0  0  0  0  0  0
   -5.7353    0.2902   -1.3444 C   0  0  1  0  0  0  0  0  0  0  0  0
   -6.0177   -1.1659   -1.2473 C   0  0  0  0  0  0  0  0  0  0  0  0
   -6.3921   -1.6950    0.0626 C   0  0  0  0  0  0  0  0  0  0  0  0
   -6.9724   -1.0621    1.1250 C   0  0  0  0  0  0  0  0  0  0  0  0
   -7.1088   -1.9565    2.1190 N   0  0  0  0  0  0  0  0  0  0  0  0
   -6.6317   -3.1403    1.7162 C   0  0  0  0  0  0  0  0  0  0  0  0
   -6.5250   -4.3882    2.3095 C   0  0  0  0  0  0  0  0  0  0  0  0
   -5.9824   -5.4537    1.6414 C   0  0  0  0  0  0  0  0  0  0  0  0
   -5.5126   -5.3455    0.3415 C   0  0  0  0  0  0  0  0  0  0  0  0
   -5.6161   -4.1071   -0.2558 C   0  0  0  0  0  0  0  0  0  0  0  0
   -6.1714   -3.0247    0.4341 C   0  0  0  0  0  0  0  0  0  0  0  0
   -6.8717    1.1889   -1.2644 C   0  0  0  0  0  0  0  0  0  0  0  0
   -8.0424    0.9368   -2.0127 O   0  0  0  0  0  0  0  0  0  0  0  0
   -6.9155    2.2185   -0.5597 O   0  0  0  0  0  0  0  0  0  0  0  0
   -3.5910    7.7052    2.2873 H   0  0  0  0  0  0  0  0  0  0  0  0
   -3.5260    7.1171    3.9675 H   0  0  0  0  0  0  0  0  0  0  0  0
    0.0005    6.1207    2.5918 H   0  0  0  0  0  0  0  0  0  0  0  0
   -1.5098    4.2339    2.4780 H   0  0  0  0  0  0  0  0  0  0  0  0
   -3.4964    5.3070    0.7031 H   0  0  0  0  0  0  0  0  0  0  0  0
   -4.3639    4.9136    2.1986 H   0  0  0  0  0  0  0  0  0  0  0  0
   -3.4962    2.5276    2.0705 H   0  0  0  0  0  0  0  0  0  0  0  0
   -4.4588    3.0663    0.6066 H   0  0  0  0  0  0  0  0  0  0  0  0
   -2.3806    3.6430   -0.5992 H   0  0  0  0  0  0  0  0  0  0  0  0
   -1.4157    3.1685    0.7927 H   0  0  0  0  0  0  0  0  0  0  0  0
   -2.0473    0.7867    0.6126 H   0  0  0  0  0  0  0  0  0  0  0  0
   -1.0270    2.1311   -1.9048 H   0  0  0  0  0  0  0  0  0  0  0  0
    1.8823    1.2028   -1.8123 H   0  0  0  0  0  0  0  0  0  0  0  0
    0.4300   -1.1769   -2.9430 H   0  0  0  0  0  0  0  0  0  0  0  0
    1.9600   -0.4968   -3.5732 H   0  0  0  0  0  0  0  0  0  0  0  0
    0.1866    0.0370   -5.0219 H   0  0  0  0  0  0  0  0  0  0  0  0
   -0.8523    0.6583   -3.7449 H   0  0  0  0  0  0  0  0  0  0  0  0
   -0.1450    3.7435   -5.0238 H   0  0  0  0  0  0  0  0  0  0  0  0
    1.4151   -1.4682   -0.5441 H   0  0  0  0  0  0  0  0  0  0  0  0
    3.5761   -2.9936   -0.6070 H   0  0  0  0  0  0  0  0  0  0  0  0
    2.6800   -1.7284    1.2504 H   0  0  0  0  0  0  0  0  0  0  0  0
    4.1886   -0.8385    1.4468 H   0  0  0  0  0  0  0  0  0  0  0  0
    3.5396   -3.8516    1.6352 H   0  0  0  0  0  0  0  0  0  0  0  0
    5.2564   -3.3558    1.6079 H   0  0  0  0  0  0  0  0  0  0  0  0
    5.3745   -3.6201    4.7438 H   0  0  0  0  0  0  0  0  0  0  0  0
    5.5176   -2.3439   -1.7975 H   0  0  0  0  0  0  0  0  0  0  0  0
    8.4201   -2.4797   -0.1408 H   0  0  0  0  0  0  0  0  0  0  0  0
    7.2064   -1.8838   -2.7428 H   0  0  0  0  0  0  0  0  0  0  0  0
    7.2268   -3.3471   -1.8847 H   0  0  0  0  0  0  0  0  0  0  0  0
    9.5112   -0.6843   -1.5687 H   0  0  0  0  0  0  0  0  0  0  0  0
    7.9443    0.2106   -1.6550 H   0  0  0  0  0  0  0  0  0  0  0  0
    7.9829    0.7061    0.7493 H   0  0  0  0  0  0  0  0  0  0  0  0
    9.4670    1.2484   -0.0161 H   0  0  0  0  0  0  0  0  0  0  0  0
   10.1015   -0.1594    3.3058 H   0  0  0  0  0  0  0  0  0  0  0  0
   -4.8631    0.7756    0.5415 H   0  0  0  0  0  0  0  0  0  0  0  0
   -5.3326    0.4162   -2.4216 H   0  0  0  0  0  0  0  0  0  0  0  0
   -6.8117   -1.4086   -1.9777 H   0  0  0  0  0  0  0  0  0  0  0  0
   -5.0825   -1.6973   -1.5890 H   0  0  0  0  0  0  0  0  0  0  0  0
   -7.2859   -0.0001    1.1923 H   0  0  0  0  0  0  0  0  0  0  0  0
   -7.5235   -1.7584    3.0648 H   0  0  0  0  0  0  0  0  0  0  0  0
   -6.8909   -4.4947    3.3364 H   0  0  0  0  0  0  0  0  0  0  0  0
   -5.9142   -6.4193    2.1389 H   0  0  0  0  0  0  0  0  0  0  0  0
   -5.0993   -6.2099   -0.1336 H   0  0  0  0  0  0  0  0  0  0  0  0
   -5.2654   -3.9776   -1.2614 H   0  0  0  0  0  0  0  0  0  0  0  0
   -8.9603    0.9347   -1.6139 H   0  0  0  0  0  0  0  0  0  0  0  0
  1  2  1  0
  2  3  2  3
  2  4  1  0
  4  5  1  0
  5  6  1  0
  6  7  1  0
  7  8  1  0
  8  9  1  0
  9 10  1  0
 10 11  2  0
 10 12  1  0
 12 13  1  0
 13 14  1  0
 14 15  1  0
 15 16  1  0
 15 17  2  0
 12 18  1  0
 18 19  1  0
 19 20  2  0
 19 21  1  0
 21 22  1  0
 22 23  1  0
 23 24  1  0
 24 25  1  0
 24 26  2  0
 21 27  1  0
 27 28  1  0
 28 29  2  0
 28 30  1  0
 30 31  1  0
 30 32  1  0
 32 33  1  0
 33 34  1  0
 34 35  1  0
 34 36  2  0
  8 37  1  0
 37 38  2  0
 37 39  1  0
 39 40  1  0
 40 41  1  0
 41 42  1  0
 42 43  2  0
 43 44  1  0
 44 45  1  0
 45 46  2  0
 46 47  1  0
 47 48  2  0
 48 49  1  0
 49 50  2  0
 40 51  1  0
 51 52  1  0
 51 53  2  0
 50 42  1  0
 50 45  1  0
  1 54  1  0
  1 55  1  0
  3 56  1  0
  4 57  1  0
  5 58  1  0
  5 59  1  0
  6 60  1  0
  6 61  1  0
  7 62  1  0
  7 63  1  0
  8 64  1  1
  9 65  1  0
 12 66  1  6
 13 67  1  0
 13 68  1  0
 14 69  1  0
 14 70  1  0
 16 71  1  0
 18 72  1  0
 21 73  1  6
 22 74  1  0
 22 75  1  0
 23 76  1  0
 23 77  1  0
 25 78  1  0
 27 79  1  0
 30 80  1  1
 31 81  1  0
 31 82  1  0
 32 83  1  0
 32 84  1  0
 33 85  1  0
 33 86  1  0
 35 87  1  0
 39 88  1  0
 40 89  1  6
 41 90  1  0
 41 91  1  0
 43 92  1  0
 44 93  1  0
 46 94  1  0
 47 95  1  0
 48 96  1  0
 49 97  1  0
 52 98  1  0
M  END
$$$$
[H]c1c([H])c([H])c([C@]([H])(N([H])C(=O)c2[se]c(-c3c([H])c([H])c(OC([H])([H])C([H])(C([H])([H])[H])C([H])([H])[H])c(C#N)c3[H])nc2C([H])([H])[H])C([H])([H])[H])c([H])c1[H]
     RDKit          3D

 55 57  0  0  0  0  0  0  0  0999 V2000
   -7.8877    1.8719   -1.6172 C   0  0  0  0  0  0  0  0  0  0  0  0
   -8.0696    0.5043   -0.9725 C   0  0  0  0  0  0  0  0  0  0  0  0
   -7.6557   -0.5369   -1.9374 C   0  0  0  0  0  0  0  0  0  0  0  0
   -7.5160    0.4616    0.4029 C   0  0  0  0  0  0  0  0  0  0  0  0
   -6.2711    0.6896    0.7143 O   0  0  0  0  0  0  0  0  0  0  0  0
   -4.9883    0.4952    0.7066 C   0  0  0  0  0  0  0  0  0  0  0  0
   -4.3830   -0.5162    0.0100 C   0  0  0  0  0  0  0  0  0  0  0  0
   -3.0403   -0.7274   -0.0029 C   0  0  0  0  0  0  0  0  0  0  0  0
   -2.2246    0.0967    0.7076 C   0  0  0  0  0  0  0  0  0  0  0  0
   -2.7717    1.1342    1.4305 C   0  0  0  0  0  0  0  0  0  0  0  0
   -4.1330    1.3365    1.4346 C   0  0  0  0  0  0  0  0  0  0  0  0
   -4.6615    2.4145    2.1901 C   0  0  0  0  0  0  0  0  0  0  0  0
   -5.0742    3.2972    2.8141 N   0  0  0  0  0  0  0  0  0  0  0  0
   -0.7925   -0.0363    0.7634 C   0  0  0  0  0  0  0  0  0  0  0  0
    0.2509    0.4420    1.2378 N   0  0  0  0  0  0  0  0  0  0  0  0
    1.4862    0.1841    1.1781 C   0  0  0  0  0  0  0  0  0  0  0  0
    2.4997    1.0705    1.9572 C   0  0  0  0  0  0  0  0  0  0  0  0
    2.0313   -0.8286    0.4740 C   0  0  0  0  0  0  0  0  0  0  0  0
    0.1991   -1.5890   -0.2991 Se  0  0  0  0  0  2  0  0  0  0  0  0
    3.2742   -1.4335    0.1518 C   0  0  0  0  0  0  0  0  0  0  0  0
    3.2434   -2.4672   -0.6219 O   0  0  0  0  0  0  0  0  0  0  0  0
    4.5688   -1.0699    0.5566 N   0  0  0  0  0  0  0  0  0  0  0  0
    5.7569   -1.7886    0.1441 C   0  0  2  0  0  0  0  0  0  0  0  0
    6.4398   -2.3424    1.3765 C   0  0  0  0  0  0  0  0  0  0  0  0
    6.6203   -0.8624   -0.6042 C   0  0  0  0  0  0  0  0  0  0  0  0
    6.0360   -0.0474   -1.5569 C   0  0  0  0  0  0  0  0  0  0  0  0
    6.8341    0.8261   -2.2661 C   0  0  0  0  0  0  0  0  0  0  0  0
    8.1938    0.8781   -2.0209 C   0  0  0  0  0  0  0  0  0  0  0  0
    8.7519    0.0530   -1.0636 C   0  0  0  0  0  0  0  0  0  0  0  0
    7.9875   -0.8198   -0.3478 C   0  0  0  0  0  0  0  0  0  0  0  0
   -8.0002    1.7837   -2.7337 H   0  0  0  0  0  0  0  0  0  0  0  0
   -8.6963    2.5764   -1.2999 H   0  0  0  0  0  0  0  0  0  0  0  0
   -6.9395    2.3459   -1.3405 H   0  0  0  0  0  0  0  0  0  0  0  0
   -9.2040    0.4082   -0.9092 H   0  0  0  0  0  0  0  0  0  0  0  0
   -8.3883   -0.5355   -2.7818 H   0  0  0  0  0  0  0  0  0  0  0  0
   -6.6675   -0.3554   -2.4132 H   0  0  0  0  0  0  0  0  0  0  0  0
   -7.7186   -1.5759   -1.5164 H   0  0  0  0  0  0  0  0  0  0  0  0
   -7.8182   -0.5622    0.8184 H   0  0  0  0  0  0  0  0  0  0  0  0
   -8.2118    1.1272    1.0212 H   0  0  0  0  0  0  0  0  0  0  0  0
   -4.9847   -1.2144   -0.5735 H   0  0  0  0  0  0  0  0  0  0  0  0
   -2.6061   -1.5417   -0.5698 H   0  0  0  0  0  0  0  0  0  0  0  0
   -2.1074    1.8005    2.0057 H   0  0  0  0  0  0  0  0  0  0  0  0
    3.0654    0.4804    2.6670 H   0  0  0  0  0  0  0  0  0  0  0  0
    1.9632    1.8391    2.5463 H   0  0  0  0  0  0  0  0  0  0  0  0
    3.2041    1.5383    1.2458 H   0  0  0  0  0  0  0  0  0  0  0  0
    4.7103   -0.2550    1.1779 H   0  0  0  0  0  0  0  0  0  0  0  0
    5.5127   -2.6417   -0.5166 H   0  0  0  0  0  0  0  0  0  0  0  0
    6.9442   -1.5279    1.9077 H   0  0  0  0  0  0  0  0  0  0  0  0
    7.1676   -3.1408    1.1158 H   0  0  0  0  0  0  0  0  0  0  0  0
    5.6478   -2.8400    1.9994 H   0  0  0  0  0  0  0  0  0  0  0  0
    4.9586   -0.0924   -1.7475 H   0  0  0  0  0  0  0  0  0  0  0  0
    6.4376    1.4842   -3.0190 H   0  0  0  0  0  0  0  0  0  0  0  0
    8.8037    1.5836   -2.6012 H   0  0  0  0  0  0  0  0  0  0  0  0
    9.8166    0.1134   -0.8915 H   0  0  0  0  0  0  0  0  0  0  0  0
    8.4060   -1.4879    0.4200 H   0  0  0  0  0  0  0  0  0  0  0  0
  1  2  1  0
  2  3  1  0
  2  4  1  0
  4  5  1  0
  5  6  1  0
  6  7  2  0
  7  8  1  0
  8  9  2  0
  9 10  1  0
 10 11  2  0
 11 12  1  0
 12 13  3  0
  9 14  1  0
 14 15  2  0
 15 16  1  0
 16 17  1  0
 16 18  2  0
 18 19  1  0
 18 20  1  0
 20 21  2  0
 20 22  1  0
 22 23  1  0
 23 24  1  0
 23 25  1  0
 25 26  2  0
 26 27  1  0
 27 28  2  0
 28 29  1  0
 29 30  2  0
 11  6  1  0
 19 14  1  0
 30 25  1  0
  1 31  1  0
  1 32  1  0
  1 33  1  0
  2 34  1  0
  3 35  1  0
  3 36  1  0
  3 37  1  0
  4 38  1  0
  4 39  1  0
  7 40  1  0
  8 41  1  0
 10 42  1  0
 17 43  1  0
 17 44  1  0
 17 45  1  0
 22 46  1  0
 23 47  1  6
 24 48  1  0
 24 49  1  0
 24 50  1  0
 26 51  1  0
 27 52  1  0
 28 53  1  0
 29 54  1  0
 30 55  1  0
M  END
$$$$
[H]N=C(N([H])[H])N([H])C([H])([H])C([H])([H])C([H])([H])[C@@]([H])(C(=O)c1nc([H])c([H])s1)N([H])C(=O)[C@@]([H])(N([H])C(=O)C([H])([H])[H])C([H])([H])C([H])(C([H])([H])[H])C([H])([H])[H]
     RDKit          3D

 55 55  0  0  0  0  0  0  0  0999 V2000
   -3.7597    0.3415   -2.6788 C   0  0  0  0  0  0  0  0  0  0  0  0
   -4.1402    0.6127   -1.2674 C   0  0  0  0  0  0  0  0  0  0  0  0
   -4.5788    2.0864   -1.2149 C   0  0  0  0  0  0  0  0  0  0  0  0
   -3.0662    0.4629   -0.2477 C   0  0  0  0  0  0  0  0  0  0  0  0
   -2.4789   -0.9425   -0.2016 C   0  0  2  0  0  0  0  0  0  0  0  0
   -3.4844   -1.8400    0.0817 N   0  0  0  0  0  0  0  0  0  0  0  0
   -4.4789   -2.7276    0.3622 C   0  0  0  0  0  0  0  0  0  0  0  0
   -4.8892   -3.7086   -0.7628 C   0  0  0  0  0  0  0  0  0  0  0  0
   -5.1309   -2.8838    1.4060 O   0  0  0  0  0  0  0  0  0  0  0  0
   -1.2870   -0.9548    0.6829 C   0  0  0  0  0  0  0  0  0  0  0  0
   -1.2029   -1.8229    1.5560 O   0  0  0  0  0  0  0  0  0  0  0  0
   -0.2500   -0.0063    0.5640 N   0  0  0  0  0  0  0  0  0  0  0  0
    0.9349    0.0402    1.4013 C   0  0  1  0  0  0  0  0  0  0  0  0
    2.2285   -0.1163    0.6824 C   0  0  0  0  0  0  0  0  0  0  0  0
    2.5281    0.9303   -0.3521 C   0  0  0  0  0  0  0  0  0  0  0  0
    3.9118    0.5719   -0.9115 C   0  0  0  0  0  0  0  0  0  0  0  0
    3.9454   -0.7162   -1.5313 N   0  0  0  0  0  0  0  0  0  0  0  0
    5.1883   -1.2447   -2.0082 C   0  0  0  0  0  0  0  0  0  0  0  0
    6.3764   -0.7468   -1.4231 N   0  0  0  0  0  0  0  0  0  0  0  0
    5.2384   -2.1545   -2.9465 N   0  0  0  0  0  0  0  0  0  0  0  0
    0.8604    1.1253    2.3871 C   0  0  0  0  0  0  0  0  0  0  0  0
   -0.3207    1.5678    2.6864 O   0  0  0  0  0  0  0  0  0  0  0  0
    1.9464    1.7890    3.0826 C   0  0  0  0  0  0  0  0  0  0  0  0
    3.2531    1.6001    2.9796 N   0  0  0  0  0  0  0  0  0  0  0  0
    4.0906    2.2906    3.6740 C   0  0  0  0  0  0  0  0  0  0  0  0
    3.5529    3.2411    4.5341 C   0  0  0  0  0  0  0  0  0  0  0  0
    1.8895    3.0349    4.2485 S   0  0  0  0  0  0  0  0  0  0  0  0
   -4.7080    0.1414   -3.2375 H   0  0  0  0  0  0  0  0  0  0  0  0
   -3.3433    1.2860   -3.1298 H   0  0  0  0  0  0  0  0  0  0  0  0
   -3.0157   -0.4325   -2.8548 H   0  0  0  0  0  0  0  0  0  0  0  0
   -5.0653    0.0422   -0.9493 H   0  0  0  0  0  0  0  0  0  0  0  0
   -4.5205    2.4793   -0.2049 H   0  0  0  0  0  0  0  0  0  0  0  0
   -5.5615    2.2133   -1.7082 H   0  0  0  0  0  0  0  0  0  0  0  0
   -3.8018    2.6230   -1.8130 H   0  0  0  0  0  0  0  0  0  0  0  0
   -3.4644    0.7321    0.7342 H   0  0  0  0  0  0  0  0  0  0  0  0
   -2.2516    1.1626   -0.4839 H   0  0  0  0  0  0  0  0  0  0  0  0
   -2.0728   -1.1636   -1.2283 H   0  0  0  0  0  0  0  0  0  0  0  0
   -3.6005   -1.3346    1.3527 H   0  0  0  0  0  0  0  0  0  0  0  0
   -4.5104   -4.6961   -0.4874 H   0  0  0  0  0  0  0  0  0  0  0  0
   -5.9974   -3.7419   -0.7934 H   0  0  0  0  0  0  0  0  0  0  0  0
   -4.4380   -3.4012   -1.7048 H   0  0  0  0  0  0  0  0  0  0  0  0
   -0.3252    0.7230   -0.1780 H   0  0  0  0  0  0  0  0  0  0  0  0
    0.8346   -0.9157    2.0237 H   0  0  0  0  0  0  0  0  0  0  0  0
    3.0921   -0.2846    1.3593 H   0  0  0  0  0  0  0  0  0  0  0  0
    2.2188   -1.0958    0.0788 H   0  0  0  0  0  0  0  0  0  0  0  0
    1.8185    0.7755   -1.2188 H   0  0  0  0  0  0  0  0  0  0  0  0
    2.5233    1.9602    0.0303 H   0  0  0  0  0  0  0  0  0  0  0  0
    4.6465    0.6302   -0.0673 H   0  0  0  0  0  0  0  0  0  0  0  0
    4.2542    1.3354   -1.6402 H   0  0  0  0  0  0  0  0  0  0  0  0
    3.1023   -1.2977   -1.6692 H   0  0  0  0  0  0  0  0  0  0  0  0
    6.3756   -0.3654   -0.4612 H   0  0  0  0  0  0  0  0  0  0  0  0
    7.2552   -0.7647   -1.9648 H   0  0  0  0  0  0  0  0  0  0  0  0
    4.3626   -2.5158   -3.3699 H   0  0  0  0  0  0  0  0  0  0  0  0
    5.1899    2.1626    3.6063 H   0  0  0  0  0  0  0  0  0  0  0  0
    4.1256    3.9133    5.1964 H   0  0  0  0  0  0  0  0  0  0  0  0
  1  2  1  0
  2  3  1  0
  2  4  1  0
  4  5  1  0
  5  6  1  0
  6  7  1  0
  7  8  1  0
  7  9  2  0
  5 10  1  0
 10 11  2  0
 10 12  1  0
 12 13  1  0
 13 14  1  0
 14 15  1  0
 15 16  1  0
 16 17  1  0
 17 18  1  0
 18 19  1  0
 18 20  2  3
 13 21  1  0
 21 22  2  0
 21 23  1  0
 23 24  2  0
 24 25  1  0
 25 26  2  0
 26 27  1  0
 27 23  1  0
  1 28  1  0
  1 29  1  0
  1 30  1  0
  2 31  1  0
  3 32  1  0
  3 33  1  0
  3 34  1  0
  4 35  1  0
  4 36  1  0
  5 37  1  6
  6 38  1  0
  8 39  1  0
  8 40  1  0
  8 41  1  0
 12 42  1  0
 13 43  1  1
 14 44  1  0
 14 45  1  0
 15 46  1  0
 15 47  1  0
 16 48  1  0
 16 49  1  0
 17 50  1  0
 19 51  1  0
 19 52  1  0
 20 53  1  0
 25 54  1  0
 26 55  1  0
M  END
$$$$
[H]O[C@@]([H])(C([H])([H])[H])[C@]([H])(c1nnc(-c2c([H])c([H])c(Cl)c(Cl)c2[H])o1)N([H])c1c([H])c([H])c([N+]#[C-])c(Cl)c1C([H])([H])[H]
     RDKit          3D

 43 45  0  0  0  0  0  0  0  0999 V2000
    0.7723   -3.0438   -0.9438 C   0  0  0  0  0  0  0  0  0  0  0  0
   -0.6449   -2.4235   -0.7141 C   0  0  2  0  0  0  0  0  0  0  0  0
   -1.4538   -3.1992   -1.5525 O   0  0  0  0  0  0  0  0  0  0  0  0
   -0.5183   -1.0212   -1.1553 C   0  0  1  0  0  0  0  0  0  0  0  0
   -1.6842   -0.2194   -1.3024 N   0  0  0  0  0  0  0  0  0  0  0  0
   -2.7162    0.1160   -0.4104 C   0  0  0  0  0  0  0  0  0  0  0  0
   -2.8156   -0.3768    0.8641 C   0  0  0  0  0  0  0  0  0  0  0  0
   -3.8712   -0.0069    1.6806 C   0  0  0  0  0  0  0  0  0  0  0  0
   -4.8406    0.8538    1.2472 C   0  0  0  0  0  0  0  0  0  0  0  0
   -5.9085    1.2409    2.0431 N   0  0  0  0  0  0  0  0  0  0  0  0
   -6.8014    1.5441    2.7111 C   0  0  0  0  0  0  0  0  0  0  0  0
   -4.7313    1.3433   -0.0361 C   0  0  0  0  0  0  0  0  0  0  0  0
   -5.9791    2.4581   -0.6101 Cl  0  0  0  0  0  0  0  0  0  0  0  0
   -3.7026    0.9919   -0.8520 C   0  0  0  0  0  0  0  0  0  0  0  0
   -3.6904    1.5905   -2.2254 C   0  0  0  0  0  0  0  0  0  0  0  0
    0.5154   -0.3161   -0.3611 C   0  0  0  0  0  0  0  0  0  0  0  0
    0.3116    0.4380    0.7202 N   0  0  0  0  0  0  0  0  0  0  0  0
    1.4519    0.9245    1.1926 N   0  0  0  0  0  0  0  0  0  0  0  0
    2.3863    0.4353    0.3491 C   0  0  0  0  0  0  0  0  0  0  0  0
    1.8213   -0.3002   -0.5702 O   0  0  0  0  0  0  0  0  0  0  0  0
    3.8132    0.7275    0.5016 C   0  0  0  0  0  0  0  0  0  0  0  0
    4.7500    0.2129   -0.3775 C   0  0  0  0  0  0  0  0  0  0  0  0
    6.0974    0.4543   -0.2815 C   0  0  0  0  0  0  0  0  0  0  0  0
    6.5428    1.2598    0.7560 C   0  0  0  0  0  0  0  0  0  0  0  0
    8.2609    1.5846    0.9018 Cl  0  0  0  0  0  0  0  0  0  0  0  0
    5.6487    1.7968    1.6586 C   0  0  0  0  0  0  0  0  0  0  0  0
    6.2556    2.8076    2.9520 Cl  0  0  0  0  0  0  0  0  0  0  0  0
    4.2953    1.5224    1.5179 C   0  0  0  0  0  0  0  0  0  0  0  0
    0.6102   -4.1363   -0.8805 H   0  0  0  0  0  0  0  0  0  0  0  0
    1.4442   -2.7159   -0.1387 H   0  0  0  0  0  0  0  0  0  0  0  0
    1.1227   -2.7995   -1.9609 H   0  0  0  0  0  0  0  0  0  0  0  0
   -0.8461   -2.5441    0.3400 H   0  0  0  0  0  0  0  0  0  0  0  0
   -1.9934   -3.7861   -0.9572 H   0  0  0  0  0  0  0  0  0  0  0  0
   -0.0370   -1.1038   -2.2382 H   0  0  0  0  0  0  0  0  0  0  0  0
   -1.8282    0.2329   -2.2933 H   0  0  0  0  0  0  0  0  0  0  0  0
   -2.1107   -1.0621    1.2973 H   0  0  0  0  0  0  0  0  0  0  0  0
   -3.9494   -0.4011    2.6988 H   0  0  0  0  0  0  0  0  0  0  0  0
   -3.7352    0.8434   -3.0163 H   0  0  0  0  0  0  0  0  0  0  0  0
   -2.6780    2.0813   -2.3119 H   0  0  0  0  0  0  0  0  0  0  0  0
   -4.4397    2.3952   -2.3047 H   0  0  0  0  0  0  0  0  0  0  0  0
    4.4105   -0.4132   -1.1851 H   0  0  0  0  0  0  0  0  0  0  0  0
    6.8400    0.0571   -0.9635 H   0  0  0  0  0  0  0  0  0  0  0  0
    3.6255    1.9568    2.2384 H   0  0  0  0  0  0  0  0  0  0  0  0
  1  2  1  0
  2  3  1  0
  2  4  1  0
  4  5  1  0
  5  6  1  0
  6  7  2  0
  7  8  1  0
  8  9  2  0
  9 10  1  0
 10 11  3  0
  9 12  1  0
 12 13  1  0
 12 14  2  0
 14 15  1  0
  4 16  1  0
 16 17  2  0
 17 18  1  0
 18 19  2  0
 19 20  1  0
 19 21  1  0
 21 22  2  0
 22 23  1  0
 23 24  2  0
 24 25  1  0
 24 26  1  0
 26 27  1  0
 26 28  2  0
 14  6  1  0
 20 16  1  0
 28 21  1  0
  1 29  1  0
  1 30  1  0
  1 31  1  0
  2 32  1  1
  3 33  1  0
  4 34  1  6
  5 35  1  0
  7 36  1  0
  8 37  1  0
 15 38  1  0
 15 39  1  0
 15 40  1  0
 22 41  1  0
 23 42  1  0
 28 43  1  0
M  CHG  2  10   1  11  -1
M  END
$$$$
[H]O[C@@]1([H])[C@]([H])(O[H])[C@@]([H])(C([H])([H])OS(=O)(=O)N([H])C(=O)[C@@]([H])(N([H])[H])C([H])(C([H])([H])[H])C([H])([H])[H])O[C@@]1([H])n1c([H])nc2c(N([H])[H])nc([H])nc21
     RDKit          3D

 53 55  0  0  0  0  0  0  0  0999 V2000
   -6.8012   -1.1884   -0.4242 C   0  0  0  0  0  0  0  0  0  0  0  0
   -5.4378   -0.5460   -0.2197 C   0  0  0  0  0  0  0  0  0  0  0  0
   -4.5008   -1.4501    0.5082 C   0  0  0  0  0  0  0  0  0  0  0  0
   -5.6164    0.7860    0.4927 C   0  0  2  0  0  0  0  0  0  0  0  0
   -6.4856    1.5689   -0.4109 N   0  0  0  0  0  0  0  0  0  0  0  0
   -4.3158    1.4741    0.5770 C   0  0  0  0  0  0  0  0  0  0  0  0
   -4.0937    2.4418   -0.1961 O   0  0  0  0  0  0  0  0  0  0  0  0
   -3.2676    1.1442    1.4677 N   0  0  0  0  0  0  0  0  0  0  0  0
   -1.7747    1.9920    1.5152 S   0  0  0  0  0  0  0  0  0  0  0  0
   -1.5965    2.5357    2.8991 O   0  0  0  0  0  0  0  0  0  0  0  0
   -1.9340    3.1978    0.5994 O   0  0  0  0  0  0  0  0  0  0  0  0
   -0.4708    1.1281    0.9857 O   0  0  0  0  0  0  0  0  0  0  0  0
   -0.5914    0.6363   -0.2844 C   0  0  0  0  0  0  0  0  0  0  0  0
    0.6149   -0.1418   -0.7435 C   0  0  1  0  0  0  0  0  0  0  0  0
    1.7677    0.6481   -0.7493 O   0  0  0  0  0  0  0  0  0  0  0  0
    2.7529   -0.3643   -0.8300 C   0  0  2  0  0  0  0  0  0  0  0  0
    2.4083   -1.1378    0.4047 C   0  0  1  0  0  0  0  0  0  0  0  0
    2.4749   -0.3231    1.5543 O   0  0  0  0  0  0  0  0  0  0  0  0
    0.9020   -1.3284    0.1510 C   0  0  2  0  0  0  0  0  0  0  0  0
    0.7291   -2.5051   -0.6053 O   0  0  0  0  0  0  0  0  0  0  0  0
    4.0707    0.1227   -0.9298 N   0  0  0  0  0  0  0  0  0  0  0  0
    4.4552    1.1326   -1.7288 C   0  0  0  0  0  0  0  0  0  0  0  0
    5.7945    1.3383   -1.5744 N   0  0  0  0  0  0  0  0  0  0  0  0
    6.2257    0.4547   -0.6823 C   0  0  0  0  0  0  0  0  0  0  0  0
    7.4718    0.2088   -0.1508 C   0  0  0  0  0  0  0  0  0  0  0  0
    8.5876    0.9820   -0.5575 N   0  0  0  0  0  0  0  0  0  0  0  0
    7.6155   -0.7628    0.7472 N   0  0  0  0  0  0  0  0  0  0  0  0
    6.5865   -1.5131    1.1536 C   0  0  0  0  0  0  0  0  0  0  0  0
    5.3723   -1.2742    0.6359 N   0  0  0  0  0  0  0  0  0  0  0  0
    5.1504   -0.3225   -0.2635 C   0  0  0  0  0  0  0  0  0  0  0  0
   -6.6863   -2.1058   -1.0047 H   0  0  0  0  0  0  0  0  0  0  0  0
   -7.3359   -1.3062    0.5294 H   0  0  0  0  0  0  0  0  0  0  0  0
   -7.3825   -0.4667   -1.0570 H   0  0  0  0  0  0  0  0  0  0  0  0
   -5.0278   -0.3259   -1.2226 H   0  0  0  0  0  0  0  0  0  0  0  0
   -3.4436   -1.1875    0.3240 H   0  0  0  0  0  0  0  0  0  0  0  0
   -4.7195   -1.5419    1.5860 H   0  0  0  0  0  0  0  0  0  0  0  0
   -4.5845   -2.5128    0.1189 H   0  0  0  0  0  0  0  0  0  0  0  0
   -6.1075    0.6101    1.4555 H   0  0  0  0  0  0  0  0  0  0  0  0
   -7.4575    1.5890   -0.0722 H   0  0  0  0  0  0  0  0  0  0  0  0
   -6.1260    2.5295   -0.4314 H   0  0  0  0  0  0  0  0  0  0  0  0
   -3.4097    0.3595    2.1290 H   0  0  0  0  0  0  0  0  0  0  0  0
   -0.6579    1.5267   -0.9724 H   0  0  0  0  0  0  0  0  0  0  0  0
   -1.4774   -0.0130   -0.3421 H   0  0  0  0  0  0  0  0  0  0  0  0
    0.4503   -0.4767   -1.7867 H   0  0  0  0  0  0  0  0  0  0  0  0
    2.4320   -1.0002   -1.6977 H   0  0  0  0  0  0  0  0  0  0  0  0
    2.9147   -2.0938    0.5250 H   0  0  0  0  0  0  0  0  0  0  0  0
    2.7237   -0.8458    2.3534 H   0  0  0  0  0  0  0  0  0  0  0  0
    0.3172   -1.3553    1.0645 H   0  0  0  0  0  0  0  0  0  0  0  0
    0.7959   -2.3261   -1.5643 H   0  0  0  0  0  0  0  0  0  0  0  0
    3.8772    1.7395   -2.4127 H   0  0  0  0  0  0  0  0  0  0  0  0
    9.5244    0.8872   -0.1089 H   0  0  0  0  0  0  0  0  0  0  0  0
    8.5391    1.6876   -1.3266 H   0  0  0  0  0  0  0  0  0  0  0  0
    6.7480   -2.3059    1.8983 H   0  0  0  0  0  0  0  0  0  0  0  0
  1  2  1  0
  2  3  1  0
  2  4  1  0
  4  5  1  0
  4  6  1  0
  6  7  2  0
  6  8  1  0
  8  9  1  0
  9 10  2  0
  9 11  2  0
  9 12  1  0
 12 13  1  0
 13 14  1  0
 14 15  1  0
 15 16  1  0
 16 17  1  0
 17 18  1  0
 17 19  1  0
 19 20  1  0
 16 21  1  0
 21 22  1  0
 22 23  2  0
 23 24  1  0
 24 25  2  0
 25 26  1  0
 25 27  1  0
 27 28  2  0
 28 29  1  0
 29 30  2  0
 19 14  1  0
 30 21  1  0
 30 24  1  0
  1 31  1  0
  1 32  1  0
  1 33  1  0
  2 34  1  0
  3 35  1  0
  3 36  1  0
  3 37  1  0
  4 38  1  1
  5 39  1  0
  5 40  1  0
  8 41  1  0
 13 42  1  0
 13 43  1  0
 14 44  1  6
 16 45  1  6
 17 46  1  1
 18 47  1  0
 19 48  1  1
 20 49  1  0
 22 50  1  0
 26 51  1  0
 26 52  1  0
 28 53  1  0
M  END
$$$$
[H]O[C@]1([H])[C@@]([H])(C([H])([H])OS(=O)(=O)N([H])C(=O)[C@@]([H])(N([H])[H])C([H])(C([H])([H])[H])C([H])([H])C([H])([H])[H])O[C@@]([H])(n2c([H])nc3c(N([H])[H])nc([H])nc32)[C@]1([H])O[H]
     RDKit          3D

 56 58  0  0  0  0  0  0  0  0999 V2000
    7.4415   -0.0528    1.1288 C   0  0  0  0  0  0  0  0  0  0  0  0
    6.8989   -0.8772   -0.0076 C   0  0  0  0  0  0  0  0  0  0  0  0
    6.0176   -0.1155   -0.9316 C   0  0  0  0  0  0  0  0  0  0  0  0
    6.7168    1.0689   -1.5810 C   0  0  0  0  0  0  0  0  0  0  0  0
    4.6546    0.2190   -0.4435 C   0  0  2  0  0  0  0  0  0  0  0  0
    4.5690    0.9988    0.7466 N   0  0  0  0  0  0  0  0  0  0  0  0
    3.7295   -0.9051   -0.5222 C   0  0  0  0  0  0  0  0  0  0  0  0
    3.8637   -1.7592   -1.4297 O   0  0  0  0  0  0  0  0  0  0  0  0
    2.6813   -1.0458    0.4038 N   0  0  0  0  0  0  0  0  0  0  0  0
    1.5940   -2.3725    0.2740 S   0  0  0  0  0  0  0  0  0  0  0  0
    1.4437   -3.1438    1.5346 O   0  0  0  0  0  0  0  0  0  0  0  0
    2.0965   -3.3436   -0.7975 O   0  0  0  0  0  0  0  0  0  0  0  0
    0.0781   -1.7692   -0.2154 O   0  0  0  0  0  0  0  0  0  0  0  0
   -0.0822   -0.4882    0.3008 C   0  0  0  0  0  0  0  0  0  0  0  0
   -1.3876    0.0451   -0.1510 C   0  0  1  0  0  0  0  0  0  0  0  0
   -2.5148   -0.6991    0.2377 O   0  0  0  0  0  0  0  0  0  0  0  0
   -3.5019    0.1294   -0.3478 C   0  0  2  0  0  0  0  0  0  0  0  0
   -3.2288    1.4463    0.2863 C   0  0  2  0  0  0  0  0  0  0  0  0
   -3.5990    2.5236   -0.5364 O   0  0  0  0  0  0  0  0  0  0  0  0
   -1.6920    1.4550    0.3573 C   0  0  2  0  0  0  0  0  0  0  0  0
   -1.1832    2.3384   -0.6016 O   0  0  0  0  0  0  0  0  0  0  0  0
   -4.8223   -0.3672   -0.2296 N   0  0  0  0  0  0  0  0  0  0  0  0
   -5.1708   -1.6359   -0.5172 C   0  0  0  0  0  0  0  0  0  0  0  0
   -6.4810   -1.8175   -0.3249 N   0  0  0  0  0  0  0  0  0  0  0  0
   -6.9970   -0.6514    0.0943 C   0  0  0  0  0  0  0  0  0  0  0  0
   -8.2864   -0.2780    0.4332 C   0  0  0  0  0  0  0  0  0  0  0  0
   -9.3515   -1.1957    0.3663 N   0  0  0  0  0  0  0  0  0  0  0  0
   -8.4752    0.9961    0.8177 N   0  0  0  0  0  0  0  0  0  0  0  0
   -7.4285    1.8537    0.8623 C   0  0  0  0  0  0  0  0  0  0  0  0
   -6.1838    1.5015    0.5379 N   0  0  0  0  0  0  0  0  0  0  0  0
   -5.9616    0.2310    0.1477 C   0  0  0  0  0  0  0  0  0  0  0  0
    7.3400    1.0402    0.9690 H   0  0  0  0  0  0  0  0  0  0  0  0
    8.5457   -0.2248    1.1734 H   0  0  0  0  0  0  0  0  0  0  0  0
    7.0684   -0.3391    2.1266 H   0  0  0  0  0  0  0  0  0  0  0  0
    6.3626   -1.7299    0.4211 H   0  0  0  0  0  0  0  0  0  0  0  0
    7.7576   -1.2542   -0.6148 H   0  0  0  0  0  0  0  0  0  0  0  0
    5.8436   -0.8255   -1.8137 H   0  0  0  0  0  0  0  0  0  0  0  0
    7.6691    1.3189   -1.0734 H   0  0  0  0  0  0  0  0  0  0  0  0
    6.0384    1.9716   -1.5162 H   0  0  0  0  0  0  0  0  0  0  0  0
    6.9577    0.9149   -2.6434 H   0  0  0  0  0  0  0  0  0  0  0  0
    4.2573    0.9535   -1.2655 H   0  0  0  0  0  0  0  0  0  0  0  0
    4.5724    0.4547    1.6169 H   0  0  0  0  0  0  0  0  0  0  0  0
    5.1014    1.8727    0.7436 H   0  0  0  0  0  0  0  0  0  0  0  0
    2.5522   -0.3601    1.1613 H   0  0  0  0  0  0  0  0  0  0  0  0
    0.7370    0.1153   -0.1990 H   0  0  0  0  0  0  0  0  0  0  0  0
    0.0839   -0.4698    1.3785 H   0  0  0  0  0  0  0  0  0  0  0  0
   -1.4429    0.0596   -1.2751 H   0  0  0  0  0  0  0  0  0  0  0  0
   -3.1651    0.2149   -1.4140 H   0  0  0  0  0  0  0  0  0  0  0  0
   -3.5785    1.5530    1.3247 H   0  0  0  0  0  0  0  0  0  0  0  0
   -3.7594    3.2948    0.0782 H   0  0  0  0  0  0  0  0  0  0  0  0
   -1.3260    1.6407    1.3661 H   0  0  0  0  0  0  0  0  0  0  0  0
   -1.3953    1.9386   -1.4807 H   0  0  0  0  0  0  0  0  0  0  0  0
   -4.4871   -2.4201   -0.8566 H   0  0  0  0  0  0  0  0  0  0  0  0
   -9.3448   -2.0174    1.0047 H   0  0  0  0  0  0  0  0  0  0  0  0
  -10.1602   -1.1115   -0.2883 H   0  0  0  0  0  0  0  0  0  0  0  0
   -7.6659    2.8568    1.1840 H   0  0  0  0  0  0  0  0  0  0  0  0
  1  2  1  0
  2  3  1  0
  3  4  1  0
  3  5  1  0
  5  6  1  0
  5  7  1  0
  7  8  2  0
  7  9  1  0
  9 10  1  0
 10 11  2  0
 10 12  2  0
 10 13  1  0
 13 14  1  0
 14 15  1  0
 15 16  1  0
 16 17  1  0
 17 18  1  0
 18 19  1  0
 18 20  1  0
 20 21  1  0
 17 22  1  0
 22 23  1  0
 23 24  2  0
 24 25  1  0
 25 26  2  0
 26 27  1  0
 26 28  1  0
 28 29  2  0
 29 30  1  0
 30 31  2  0
 20 15  1  0
 31 22  1  0
 31 25  1  0
  1 32  1  0
  1 33  1  0
  1 34  1  0
  2 35  1  0
  2 36  1  0
  3 37  1  0
  4 38  1  0
  4 39  1  0
  4 40  1  0
  5 41  1  6
  6 42  1  0
  6 43  1  0
  9 44  1  0
 14 45  1  0
 14 46  1  0
 15 47  1  6
 17 48  1  6
 18 49  1  1
 19 50  1  0
 20 51  1  1
 21 52  1  0
 23 53  1  0
 27 54  1  0
 27 55  1  0
 29 56  1  0
M  END
$$$$
[H]OC([H])([H])[C@@]1(O[H])C([H])([H])[C@@]2([H])O[C@]1(C([H])([H])[H])n1c3c([H])c([H])c([H])c([H])c3c3c4c(c5c6c([H])c([H])c([H])c([H])c6n2c5c31)C(=O)N([H])C4([H])[H]
     RDKit          3D

 54 61  0  0  0  0  0  0  0  0999 V2000
    3.1800    0.8838    1.3878 C   0  0  0  0  0  0  0  0  0  0  0  0
    2.1176    0.2237    0.5774 C   0  0  2  0  0  0  0  0  0  0  0  0
    1.6968   -0.7870    1.4854 O   0  0  0  0  0  0  0  0  0  0  0  0
    1.2511   -1.8639    0.7986 C   0  0  2  0  0  0  0  0  0  0  0  0
    2.0328   -1.9517   -0.4419 C   0  0  0  0  0  0  0  0  0  0  0  0
    2.6347   -0.5714   -0.5849 C   0  0  1  0  0  0  0  0  0  0  0  0
    2.2138   -0.0799   -1.8115 O   0  0  0  0  0  0  0  0  0  0  0  0
    4.1191   -0.7109   -0.6110 C   0  0  0  0  0  0  0  0  0  0  0  0
    4.4589   -1.5975   -1.6334 O   0  0  0  0  0  0  0  0  0  0  0  0
   -0.2014   -1.7853    0.5955 N   0  0  0  0  0  0  0  0  0  0  0  0
   -1.1044   -2.7499    0.6347 C   0  0  0  0  0  0  0  0  0  0  0  0
   -0.9179   -4.0868    0.8734 C   0  0  0  0  0  0  0  0  0  0  0  0
   -2.0299   -4.9199    0.8648 C   0  0  0  0  0  0  0  0  0  0  0  0
   -3.2823   -4.4161    0.6235 C   0  0  0  0  0  0  0  0  0  0  0  0
   -3.4758   -3.0511    0.3794 C   0  0  0  0  0  0  0  0  0  0  0  0
   -2.3768   -2.2421    0.3902 C   0  0  0  0  0  0  0  0  0  0  0  0
   -2.2053   -0.8905    0.1945 C   0  0  0  0  0  0  0  0  0  0  0  0
   -3.0670    0.1511   -0.0975 C   0  0  0  0  0  0  0  0  0  0  0  0
   -4.5001    0.2660   -0.2996 C   0  0  0  0  0  0  0  0  0  0  0  0
   -5.3884   -0.5871   -0.2658 O   0  0  0  0  0  0  0  0  0  0  0  0
   -4.7851    1.6416   -0.5724 N   0  0  0  0  0  0  0  0  0  0  0  0
   -3.5735    2.4248   -0.5610 C   0  0  0  0  0  0  0  0  0  0  0  0
   -2.5314    1.4168   -0.2472 C   0  0  0  0  0  0  0  0  0  0  0  0
   -1.1701    1.6669   -0.1133 C   0  0  0  0  0  0  0  0  0  0  0  0
   -0.3770    2.7657   -0.2198 C   0  0  0  0  0  0  0  0  0  0  0  0
   -0.7006    4.0705   -0.5126 C   0  0  0  0  0  0  0  0  0  0  0  0
    0.3203    5.0230   -0.5829 C   0  0  0  0  0  0  0  0  0  0  0  0
    1.6233    4.6180   -0.3553 C   0  0  0  0  0  0  0  0  0  0  0  0
    1.9232    3.2989   -0.0625 C   0  0  0  0  0  0  0  0  0  0  0  0
    0.9354    2.3466    0.0129 C   0  0  0  0  0  0  0  0  0  0  0  0
    0.9590    1.0103    0.2643 N   0  0  0  0  0  0  0  0  0  0  0  0
   -0.3578    0.6223    0.1746 C   0  0  0  0  0  0  0  0  0  0  0  0
   -0.8544   -0.6533    0.3299 C   0  0  0  0  0  0  0  0  0  0  0  0
    4.0624    1.2462    0.8471 H   0  0  0  0  0  0  0  0  0  0  0  0
    3.5596    0.1949    2.1815 H   0  0  0  0  0  0  0  0  0  0  0  0
    2.7312    1.7230    1.9466 H   0  0  0  0  0  0  0  0  0  0  0  0
    1.4219   -2.7643    1.4120 H   0  0  0  0  0  0  0  0  0  0  0  0
    1.4720   -2.2700   -1.3403 H   0  0  0  0  0  0  0  0  0  0  0  0
    2.8377   -2.7359   -0.3258 H   0  0  0  0  0  0  0  0  0  0  0  0
    2.8799   -0.3390   -2.4928 H   0  0  0  0  0  0  0  0  0  0  0  0
    4.5238   -1.1579    0.3296 H   0  0  0  0  0  0  0  0  0  0  0  0
    4.6358    0.2581   -0.8438 H   0  0  0  0  0  0  0  0  0  0  0  0
    4.7979   -2.4633   -1.2908 H   0  0  0  0  0  0  0  0  0  0  0  0
    0.0592   -4.4684    1.0598 H   0  0  0  0  0  0  0  0  0  0  0  0
   -1.8569   -5.9719    1.0560 H   0  0  0  0  0  0  0  0  0  0  0  0
   -4.1224   -5.0759    0.6219 H   0  0  0  0  0  0  0  0  0  0  0  0
   -4.4721   -2.7398    0.2018 H   0  0  0  0  0  0  0  0  0  0  0  0
   -5.7336    2.0654   -0.7610 H   0  0  0  0  0  0  0  0  0  0  0  0
   -3.6366    3.2333    0.1993 H   0  0  0  0  0  0  0  0  0  0  0  0
   -3.3846    2.8954   -1.5673 H   0  0  0  0  0  0  0  0  0  0  0  0
   -1.7294    4.3700   -0.6881 H   0  0  0  0  0  0  0  0  0  0  0  0
    0.0587    6.0490   -0.8135 H   0  0  0  0  0  0  0  0  0  0  0  0
    2.3774    5.3965   -0.4223 H   0  0  0  0  0  0  0  0  0  0  0  0
    2.9510    3.0689    0.0761 H   0  0  0  0  0  0  0  0  0  0  0  0
  2  1  1  1
  2  3  1  0
  3  4  1  0
  4  5  1  0
  5  6  1  0
  6  7  1  6
  6  8  1  0
  8  9  1  0
  4 10  1  0
 10 11  1  0
 11 12  2  0
 12 13  1  0
 13 14  2  0
 14 15  1  0
 15 16  2  0
 16 17  1  0
 17 18  2  0
 18 19  1  0
 19 20  2  0
 19 21  1  0
 21 22  1  0
 22 23  1  0
 23 24  2  0
 24 25  1  0
 25 26  2  0
 26 27  1  0
 27 28  2  0
 28 29  1  0
 29 30  2  0
 30 31  1  0
 31 32  1  0
 32 33  2  0
  6  2  1  0
 33 10  1  0
 31  2  1  0
 16 11  1  0
 33 17  1  0
 23 18  1  0
 32 24  1  0
 30 25  1  0
  1 34  1  0
  1 35  1  0
  1 36  1  0
  4 37  1  1
  5 38  1  0
  5 39  1  0
  7 40  1  0
  8 41  1  0
  8 42  1  0
  9 43  1  0
 12 44  1  0
 13 45  1  0
 14 46  1  0
 15 47  1  0
 21 48  1  0
 22 49  1  0
 22 50  1  0
 26 51  1  0
 27 52  1  0
 28 53  1  0
 29 54  1  0
M  END
$$$$
