[H]c1nc(-c2nc3c([H])c([H])c([H])c([H])c3c(N3C([H])([H])C([H])([H])N(C([H])(C(=O)N([H])C([H])([H])C([H])([H])N(C([H])([H])[H])C([H])([H])[H])c4c([H])c([H])c(F)c([H])c4[H])C([H])([H])C([H])([H])C3([H])[H])c2[H])c([H])c([H])c1[H]
     RDKit          3D

 74 78  0  0  0  0  0  0  0  0999 V2000
    6.8523    3.4406    1.6505 C   0  0  0  0  0  0  0  0  0  0  0  0
    6.8833    2.8478    0.3259 N   0  0  0  0  0  0  0  0  0  0  0  0
    6.2106    3.7735   -0.5651 C   0  0  0  0  0  0  0  0  0  0  0  0
    6.3275    1.5252    0.2952 C   0  0  0  0  0  0  0  0  0  0  0  0
    4.8264    1.5551    0.5409 C   0  0  0  0  0  0  0  0  0  0  0  0
    4.2662    0.2224    0.5148 N   0  0  0  0  0  0  0  0  0  0  0  0
    2.8537    0.0916    0.7225 C   0  0  0  0  0  0  0  0  0  0  0  0
    2.1483    1.0958    0.9146 O   0  0  0  0  0  0  0  0  0  0  0  0
    2.2043   -1.2546    0.7114 C   0  0  0  0  0  0  0  0  0  0  0  0
    0.8465   -1.1659    1.0366 N   0  0  0  0  0  0  0  0  0  0  0  0
    0.5757   -0.7457    2.3944 C   0  0  0  0  0  0  0  0  0  0  0  0
   -0.5907    0.1839    2.4145 C   0  0  0  0  0  0  0  0  0  0  0  0
   -1.9156   -0.5865    2.3051 C   0  0  0  0  0  0  0  0  0  0  0  0
   -2.1811   -0.8797    0.9186 N   0  0  0  0  0  0  0  0  0  0  0  0
   -1.2642   -1.3816   -0.0823 C   0  0  0  0  0  0  0  0  0  0  0  0
   -0.0902   -2.1141    0.6113 C   0  0  0  0  0  0  0  0  0  0  0  0
   -3.4921   -0.6339    0.4865 C   0  0  0  0  0  0  0  0  0  0  0  0
   -3.7883    0.4894   -0.3115 C   0  0  0  0  0  0  0  0  0  0  0  0
   -5.0535    0.7956   -0.7348 C   0  0  0  0  0  0  0  0  0  0  0  0
   -6.0422   -0.0325   -0.3570 N   0  0  0  0  0  0  0  0  0  0  0  0
   -5.8216   -1.1232    0.4050 C   0  0  0  0  0  0  0  0  0  0  0  0
   -6.8655   -1.9573    0.7648 C   0  0  0  0  0  0  0  0  0  0  0  0
   -6.6891   -3.0864    1.5318 C   0  0  0  0  0  0  0  0  0  0  0  0
   -5.4218   -3.4177    1.9702 C   0  0  0  0  0  0  0  0  0  0  0  0
   -4.3818   -2.5814    1.6083 C   0  0  0  0  0  0  0  0  0  0  0  0
   -4.5517   -1.4427    0.8380 C   0  0  0  0  0  0  0  0  0  0  0  0
   -5.3654    1.9639   -1.5627 C   0  0  0  0  0  0  0  0  0  0  0  0
   -4.4234    2.8670   -1.9953 C   0  0  0  0  0  0  0  0  0  0  0  0
   -4.7128    3.9743   -2.7759 C   0  0  0  0  0  0  0  0  0  0  0  0
   -6.0303    4.1675   -3.1314 C   0  0  0  0  0  0  0  0  0  0  0  0
   -6.9881    3.2606   -2.6989 C   0  0  0  0  0  0  0  0  0  0  0  0
   -6.6540    2.2038   -1.9441 N   0  0  0  0  0  0  0  0  0  0  0  0
    2.6477   -2.0795   -0.4026 C   0  0  0  0  0  0  0  0  0  0  0  0
    2.6348   -3.4484   -0.3173 C   0  0  0  0  0  0  0  0  0  0  0  0
    3.0587   -4.2543   -1.3784 C   0  0  0  0  0  0  0  0  0  0  0  0
    3.4951   -3.6720   -2.5252 C   0  0  0  0  0  0  0  0  0  0  0  0
    3.9201   -4.4242   -3.5919 F   0  0  0  0  0  0  0  0  0  0  0  0
    3.5229   -2.2983   -2.6488 C   0  0  0  0  0  0  0  0  0  0  0  0
    3.0937   -1.5087   -1.5728 C   0  0  0  0  0  0  0  0  0  0  0  0
    7.9310    3.4878    1.9714 H   0  0  0  0  0  0  0  0  0  0  0  0
    6.4077    4.4577    1.6545 H   0  0  0  0  0  0  0  0  0  0  0  0
    6.3362    2.7383    2.3399 H   0  0  0  0  0  0  0  0  0  0  0  0
    6.2764    3.4498   -1.6371 H   0  0  0  0  0  0  0  0  0  0  0  0
    6.7752    4.7451   -0.4453 H   0  0  0  0  0  0  0  0  0  0  0  0
    5.1823    3.9978   -0.2841 H   0  0  0  0  0  0  0  0  0  0  0  0
    6.5660    1.0693   -0.6847 H   0  0  0  0  0  0  0  0  0  0  0  0
    6.8482    0.9318    1.0881 H   0  0  0  0  0  0  0  0  0  0  0  0
    4.3701    2.1308   -0.2852 H   0  0  0  0  0  0  0  0  0  0  0  0
    4.5982    2.0622    1.5048 H   0  0  0  0  0  0  0  0  0  0  0  0
    4.8441   -0.6376    0.3533 H   0  0  0  0  0  0  0  0  0  0  0  0
    2.6847   -1.7354    1.6767 H   0  0  0  0  0  0  0  0  0  0  0  0
    1.4676   -0.2132    2.8058 H   0  0  0  0  0  0  0  0  0  0  0  0
    0.3702   -1.6574    3.0459 H   0  0  0  0  0  0  0  0  0  0  0  0
   -0.6160    0.8251    3.2995 H   0  0  0  0  0  0  0  0  0  0  0  0
   -0.5836    0.8362    1.5203 H   0  0  0  0  0  0  0  0  0  0  0  0
   -1.7665   -1.5436    2.8399 H   0  0  0  0  0  0  0  0  0  0  0  0
   -2.6944   -0.0193    2.8204 H   0  0  0  0  0  0  0  0  0  0  0  0
   -1.7425   -2.0527   -0.7909 H   0  0  0  0  0  0  0  0  0  0  0  0
   -0.8066   -0.5427   -0.6626 H   0  0  0  0  0  0  0  0  0  0  0  0
    0.2078   -2.8784   -0.1006 H   0  0  0  0  0  0  0  0  0  0  0  0
   -0.4912   -2.6406    1.5124 H   0  0  0  0  0  0  0  0  0  0  0  0
   -2.9731    1.1280   -0.5947 H   0  0  0  0  0  0  0  0  0  0  0  0
   -7.8515   -1.6897    0.4164 H   0  0  0  0  0  0  0  0  0  0  0  0
   -7.5001   -3.7530    1.8239 H   0  0  0  0  0  0  0  0  0  0  0  0
   -5.2103   -4.2894    2.5741 H   0  0  0  0  0  0  0  0  0  0  0  0
   -3.4151   -2.8543    1.9416 H   0  0  0  0  0  0  0  0  0  0  0  0
   -3.3840    2.7358   -1.7289 H   0  0  0  0  0  0  0  0  0  0  0  0
   -3.9219    4.6681   -3.0962 H   0  0  0  0  0  0  0  0  0  0  0  0
   -6.2742    5.0301   -3.7423 H   0  0  0  0  0  0  0  0  0  0  0  0
   -8.0202    3.4557   -3.0056 H   0  0  0  0  0  0  0  0  0  0  0  0
    2.2892   -3.9609    0.5931 H   0  0  0  0  0  0  0  0  0  0  0  0
    3.0460   -5.3289   -1.3044 H   0  0  0  0  0  0  0  0  0  0  0  0
    3.8754   -1.8641   -3.5739 H   0  0  0  0  0  0  0  0  0  0  0  0
    3.1303   -0.4579   -1.7092 H   0  0  0  0  0  0  0  0  0  0  0  0
  1  2  1  0
  2  3  1  0
  2  4  1  0
  4  5  1  0
  5  6  1  0
  6  7  1  0
  7  8  2  0
  7  9  1  0
  9 10  1  0
 10 11  1  0
 11 12  1  0
 12 13  1  0
 13 14  1  0
 14 15  1  0
 15 16  1  0
 14 17  1  0
 17 18  2  0
 18 19  1  0
 19 20  2  0
 20 21  1  0
 21 22  2  0
 22 23  1  0
 23 24  2  0
 24 25  1  0
 25 26  2  0
 19 27  1  0
 27 28  2  0
 28 29  1  0
 29 30  2  0
 30 31  1  0
 31 32  2  0
  9 33  1  0
 33 34  2  0
 34 35  1  0
 35 36  2  0
 36 37  1  0
 36 38  1  0
 38 39  2  0
 16 10  1  0
 26 17  1  0
 32 27  1  0
 39 33  1  0
 26 21  1  0
  1 40  1  0
  1 41  1  0
  1 42  1  0
  3 43  1  0
  3 44  1  0
  3 45  1  0
  4 46  1  0
  4 47  1  0
  5 48  1  0
  5 49  1  0
  6 50  1  0
  9 51  1  0
 11 52  1  0
 11 53  1  0
 12 54  1  0
 12 55  1  0
 13 56  1  0
 13 57  1  0
 15 58  1  0
 15 59  1  0
 16 60  1  0
 16 61  1  0
 18 62  1  0
 22 63  1  0
 23 64  1  0
 24 65  1  0
 25 66  1  0
 28 67  1  0
 29 68  1  0
 30 69  1  0
 31 70  1  0
 34 71  1  0
 35 72  1  0
 38 73  1  0
 39 74  1  0
M  END
$$$$
[H]c1nc(-c2c([H])c([H])c([H])c(C(=O)N([H])[H])c2[H])c([H])c([H])c1N([H])S(=O)(=O)c1c([H])c([H])c([H])c([H])c1-c1c([H])c([H])c([H])c(C#N)c1[H]
     RDKit          3D

 51 54  0  0  0  0  0  0  0  0999 V2000
    6.5444   -1.9668   -2.3471 N   0  0  0  0  0  0  0  0  0  0  0  0
    6.9188   -1.9578   -0.9644 C   0  0  0  0  0  0  0  0  0  0  0  0
    8.0733   -2.3287   -0.6089 O   0  0  0  0  0  0  0  0  0  0  0  0
    5.9574   -1.5185    0.0190 C   0  0  0  0  0  0  0  0  0  0  0  0
    6.3108   -1.5055    1.3704 C   0  0  0  0  0  0  0  0  0  0  0  0
    5.3728   -1.0819    2.2814 C   0  0  0  0  0  0  0  0  0  0  0  0
    4.0991   -0.6737    1.8783 C   0  0  0  0  0  0  0  0  0  0  0  0
    3.7320   -0.6776    0.5690 C   0  0  0  0  0  0  0  0  0  0  0  0
    4.6964   -1.1109   -0.3453 C   0  0  0  0  0  0  0  0  0  0  0  0
    2.4223   -0.2684    0.0506 C   0  0  0  0  0  0  0  0  0  0  0  0
    1.4561    0.1583    0.8935 C   0  0  0  0  0  0  0  0  0  0  0  0
    0.2100    0.5491    0.4150 C   0  0  0  0  0  0  0  0  0  0  0  0
   -0.0535    0.5071   -0.9091 C   0  0  0  0  0  0  0  0  0  0  0  0
   -1.2737    0.8757   -1.5291 N   0  0  0  0  0  0  0  0  0  0  0  0
   -2.2016    2.2576   -1.1959 S   0  0  0  0  0  0  0  0  0  0  0  0
   -1.3962    3.5351   -1.4483 O   0  0  0  0  0  0  0  0  0  0  0  0
   -3.3283    2.3588   -2.1741 O   0  0  0  0  0  0  0  0  0  0  0  0
   -2.7999    2.3247    0.4523 C   0  0  0  0  0  0  0  0  0  0  0  0
   -2.4466    3.3994    1.2778 C   0  0  0  0  0  0  0  0  0  0  0  0
   -2.8522    3.5231    2.5823 C   0  0  0  0  0  0  0  0  0  0  0  0
   -3.6531    2.5358    3.1148 C   0  0  0  0  0  0  0  0  0  0  0  0
   -4.0212    1.4687    2.3410 C   0  0  0  0  0  0  0  0  0  0  0  0
   -3.5960    1.3578    1.0033 C   0  0  0  0  0  0  0  0  0  0  0  0
   -4.0270    0.2199    0.2102 C   0  0  0  0  0  0  0  0  0  0  0  0
   -5.0528    0.3331   -0.6928 C   0  0  0  0  0  0  0  0  0  0  0  0
   -5.4654   -0.7452   -1.4653 C   0  0  0  0  0  0  0  0  0  0  0  0
   -4.8518   -1.9687   -1.3454 C   0  0  0  0  0  0  0  0  0  0  0  0
   -3.8216   -2.0972   -0.4432 C   0  0  0  0  0  0  0  0  0  0  0  0
   -3.4119   -1.0074    0.3306 C   0  0  0  0  0  0  0  0  0  0  0  0
   -3.1764   -3.3691   -0.3113 C   0  0  0  0  0  0  0  0  0  0  0  0
   -2.6586   -4.3997   -0.2243 N   0  0  0  0  0  0  0  0  0  0  0  0
    0.9827    0.0589   -1.7206 C   0  0  0  0  0  0  0  0  0  0  0  0
    2.1628   -0.3114   -1.2700 N   0  0  0  0  0  0  0  0  0  0  0  0
    7.0871   -1.4548   -3.0740 H   0  0  0  0  0  0  0  0  0  0  0  0
    5.7022   -2.4999   -2.6499 H   0  0  0  0  0  0  0  0  0  0  0  0
    7.2939   -1.8198    1.6894 H   0  0  0  0  0  0  0  0  0  0  0  0
    5.6033   -1.0561    3.3326 H   0  0  0  0  0  0  0  0  0  0  0  0
    3.3915   -0.3485    2.6198 H   0  0  0  0  0  0  0  0  0  0  0  0
    4.4308   -1.1240   -1.3942 H   0  0  0  0  0  0  0  0  0  0  0  0
    1.6227    0.2095    1.9727 H   0  0  0  0  0  0  0  0  0  0  0  0
   -0.5094    0.8747    1.1123 H   0  0  0  0  0  0  0  0  0  0  0  0
   -1.6268    0.2110   -2.2712 H   0  0  0  0  0  0  0  0  0  0  0  0
   -1.8266    4.1629    0.8642 H   0  0  0  0  0  0  0  0  0  0  0  0
   -2.5601    4.3748    3.2037 H   0  0  0  0  0  0  0  0  0  0  0  0
   -3.9897    2.6134    4.1568 H   0  0  0  0  0  0  0  0  0  0  0  0
   -4.6501    0.6629    2.7084 H   0  0  0  0  0  0  0  0  0  0  0  0
   -5.5735    1.2985   -0.8025 H   0  0  0  0  0  0  0  0  0  0  0  0
   -6.2735   -0.6663   -2.1810 H   0  0  0  0  0  0  0  0  0  0  0  0
   -5.1830   -2.8223   -1.9612 H   0  0  0  0  0  0  0  0  0  0  0  0
   -2.6005   -1.1001    1.0443 H   0  0  0  0  0  0  0  0  0  0  0  0
    0.8106    0.0092   -2.8046 H   0  0  0  0  0  0  0  0  0  0  0  0
  1  2  1  0
  2  3  2  0
  2  4  1  0
  4  5  2  0
  5  6  1  0
  6  7  2  0
  7  8  1  0
  8  9  2  0
  8 10  1  0
 10 11  2  0
 11 12  1  0
 12 13  2  0
 13 14  1  0
 14 15  1  0
 15 16  2  0
 15 17  2  0
 15 18  1  0
 18 19  2  0
 19 20  1  0
 20 21  2  0
 21 22  1  0
 22 23  2  0
 23 24  1  0
 24 25  2  0
 25 26  1  0
 26 27  2  0
 27 28  1  0
 28 29  2  0
 28 30  1  0
 30 31  3  0
 13 32  1  0
 32 33  2  0
  9  4  1  0
 33 10  1  0
 23 18  1  0
 29 24  1  0
  1 34  1  0
  1 35  1  0
  5 36  1  0
  6 37  1  0
  7 38  1  0
  9 39  1  0
 11 40  1  0
 12 41  1  0
 14 42  1  0
 19 43  1  0
 20 44  1  0
 21 45  1  0
 22 46  1  0
 25 47  1  0
 26 48  1  0
 27 49  1  0
 29 50  1  0
 32 51  1  0
M  END
$$$$
[H]Oc1c([H])c([H])c2c(-c3c([H])c([H])c4c([H])c(O[H])c([H])c([H])c4c3[H])noc2c1[H]
     RDKit          3D

 32 35  0  0  0  0  0  0  0  0999 V2000
    6.3966   -0.7019   -1.0177 O   0  0  0  0  0  0  0  0  0  0  0  0
    5.0741   -0.5572   -0.5744 C   0  0  0  0  0  0  0  0  0  0  0  0
    4.0050   -0.7755   -1.4117 C   0  0  0  0  0  0  0  0  0  0  0  0
    2.6922   -0.6344   -0.9805 C   0  0  0  0  0  0  0  0  0  0  0  0
    2.4564   -0.2659    0.3211 C   0  0  0  0  0  0  0  0  0  0  0  0
    1.3076   -0.0427    1.0535 C   0  0  0  0  0  0  0  0  0  0  0  0
    1.7025    0.2995    2.2947 N   0  0  0  0  0  0  0  0  0  0  0  0
    2.9982    0.2850    2.3144 O   0  0  0  0  0  0  0  0  0  0  0  0
    3.5131   -0.0446    1.1680 C   0  0  0  0  0  0  0  0  0  0  0  0
    4.8036   -0.1908    0.7178 C   0  0  0  0  0  0  0  0  0  0  0  0
   -0.0800   -0.1468    0.5990 C   0  0  0  0  0  0  0  0  0  0  0  0
   -0.5126   -1.2214   -0.1461 C   0  0  0  0  0  0  0  0  0  0  0  0
   -1.8229   -1.3332   -0.5858 C   0  0  0  0  0  0  0  0  0  0  0  0
   -2.7589   -0.3473   -0.2836 C   0  0  0  0  0  0  0  0  0  0  0  0
   -4.0700   -0.4479   -0.7171 C   0  0  0  0  0  0  0  0  0  0  0  0
   -4.9833    0.5371   -0.4089 C   0  0  0  0  0  0  0  0  0  0  0  0
   -6.3212    0.4585   -0.8373 O   0  0  0  0  0  0  0  0  0  0  0  0
   -4.5344    1.6066    0.3380 C   0  0  0  0  0  0  0  0  0  0  0  0
   -3.2325    1.7106    0.7707 C   0  0  0  0  0  0  0  0  0  0  0  0
   -2.3189    0.7251    0.4624 C   0  0  0  0  0  0  0  0  0  0  0  0
   -1.0119    0.8256    0.8945 C   0  0  0  0  0  0  0  0  0  0  0  0
    6.8101    0.1458   -1.4016 H   0  0  0  0  0  0  0  0  0  0  0  0
    4.2015   -1.0649   -2.4331 H   0  0  0  0  0  0  0  0  0  0  0  0
    1.8622   -0.8028   -1.6316 H   0  0  0  0  0  0  0  0  0  0  0  0
    5.5993   -0.0032    1.4304 H   0  0  0  0  0  0  0  0  0  0  0  0
    0.2116   -2.0035   -0.3888 H   0  0  0  0  0  0  0  0  0  0  0  0
   -2.1609   -2.1858   -1.1756 H   0  0  0  0  0  0  0  0  0  0  0  0
   -4.3601   -1.2997   -1.2927 H   0  0  0  0  0  0  0  0  0  0  0  0
   -6.5970    0.8616   -1.7409 H   0  0  0  0  0  0  0  0  0  0  0  0
   -5.2526    2.3848    0.5824 H   0  0  0  0  0  0  0  0  0  0  0  0
   -2.9392    2.5537    1.3422 H   0  0  0  0  0  0  0  0  0  0  0  0
   -0.6777    1.6757    1.4818 H   0  0  0  0  0  0  0  0  0  0  0  0
  1  2  1  0
  2  3  2  0
  3  4  1  0
  4  5  2  0
  5  6  1  0
  6  7  2  0
  7  8  1  0
  8  9  1  0
  9 10  2  0
  6 11  1  0
 11 12  2  0
 12 13  1  0
 13 14  2  0
 14 15  1  0
 15 16  2  0
 16 17  1  0
 16 18  1  0
 18 19  2  0
 19 20  1  0
 20 21  2  0
 10  2  1  0
 21 11  1  0
  9  5  1  0
 20 14  1  0
  1 22  1  0
  3 23  1  0
  4 24  1  0
 10 25  1  0
 12 26  1  0
 13 27  1  0
 15 28  1  0
 17 29  1  0
 18 30  1  0
 19 31  1  0
 21 32  1  0
M  END
$$$$
[H]c1c([H])c(I)c([H])c(C2(N([H])C(=O)c3c([H])c([H])c([H])c4c3c([H])c([H])n4[H])C([H])([H])C2([H])[H])c1[H]
     RDKit          3D

 37 40  0  0  0  0  0  0  0  0999 V2000
    4.7119    0.5581    3.3382 I   0  0  0  0  0  0  0  0  0  0  0  0
    4.0436    0.5217    1.3481 C   0  0  0  0  0  0  0  0  0  0  0  0
    4.6757    1.2997    0.4102 C   0  0  0  0  0  0  0  0  0  0  0  0
    4.2623    1.2793   -0.9193 C   0  0  0  0  0  0  0  0  0  0  0  0
    3.2254    0.4814   -1.2874 C   0  0  0  0  0  0  0  0  0  0  0  0
    2.5675   -0.3209   -0.3538 C   0  0  0  0  0  0  0  0  0  0  0  0
    2.9908   -0.2836    0.9546 C   0  0  0  0  0  0  0  0  0  0  0  0
    1.4632   -1.2170   -0.7865 C   0  0  0  0  0  0  0  0  0  0  0  0
    1.7590   -2.7211   -0.6026 C   0  0  0  0  0  0  0  0  0  0  0  0
    1.7351   -2.0999   -1.9630 C   0  0  0  0  0  0  0  0  0  0  0  0
    0.0821   -0.8568   -0.5368 N   0  0  0  0  0  0  0  0  0  0  0  0
   -0.4587    0.4257   -0.5361 C   0  0  0  0  0  0  0  0  0  0  0  0
    0.3951    1.4015   -0.7908 O   0  0  0  0  0  0  0  0  0  0  0  0
   -1.7972    0.8943   -0.3158 C   0  0  0  0  0  0  0  0  0  0  0  0
   -2.1547    2.1797   -0.7740 C   0  0  0  0  0  0  0  0  0  0  0  0
   -3.4318    2.6822   -0.6702 C   0  0  0  0  0  0  0  0  0  0  0  0
   -4.4262    1.9394   -0.1066 C   0  0  0  0  0  0  0  0  0  0  0  0
   -4.1073    0.6724    0.3559 C   0  0  0  0  0  0  0  0  0  0  0  0
   -4.9187   -0.2400    0.9599 N   0  0  0  0  0  0  0  0  0  0  0  0
   -4.1756   -1.3093    1.2406 C   0  0  0  0  0  0  0  0  0  0  0  0
   -2.8582   -1.0721    0.8017 C   0  0  0  0  0  0  0  0  0  0  0  0
   -2.8234    0.1604    0.2537 C   0  0  0  0  0  0  0  0  0  0  0  0
    5.5161    1.9689    0.6629 H   0  0  0  0  0  0  0  0  0  0  0  0
    4.7708    1.9004   -1.6620 H   0  0  0  0  0  0  0  0  0  0  0  0
    2.8507    0.4108   -2.3121 H   0  0  0  0  0  0  0  0  0  0  0  0
    2.4939   -0.8939    1.6938 H   0  0  0  0  0  0  0  0  0  0  0  0
    0.9005   -3.3537   -0.2904 H   0  0  0  0  0  0  0  0  0  0  0  0
    2.6779   -2.9899   -0.0708 H   0  0  0  0  0  0  0  0  0  0  0  0
    2.7060   -2.0363   -2.4788 H   0  0  0  0  0  0  0  0  0  0  0  0
    0.8526   -2.3737   -2.5812 H   0  0  0  0  0  0  0  0  0  0  0  0
   -0.5527   -1.6713   -0.3878 H   0  0  0  0  0  0  0  0  0  0  0  0
   -1.3525    2.7525   -1.2216 H   0  0  0  0  0  0  0  0  0  0  0  0
   -3.6339    3.6668   -1.0345 H   0  0  0  0  0  0  0  0  0  0  0  0
   -5.4426    2.3296   -0.0164 H   0  0  0  0  0  0  0  0  0  0  0  0
   -5.9486   -0.0951    1.1554 H   0  0  0  0  0  0  0  0  0  0  0  0
   -4.5308   -2.2108    1.7326 H   0  0  0  0  0  0  0  0  0  0  0  0
   -2.0672   -1.7794    0.9354 H   0  0  0  0  0  0  0  0  0  0  0  0
  1  2  1  0
  2  3  2  0
  3  4  1  0
  4  5  2  0
  5  6  1  0
  6  7  2  0
  6  8  1  0
  8  9  1  0
  9 10  1  0
  8 11  1  0
 11 12  1  0
 12 13  2  0
 12 14  1  0
 14 15  2  0
 15 16  1  0
 16 17  2  0
 17 18  1  0
 18 19  1  0
 19 20  1  0
 20 21  2  0
 21 22  1  0
  7  2  1  0
 10  8  1  0
 22 14  1  0
 22 18  2  0
  3 23  1  0
  4 24  1  0
  5 25  1  0
  7 26  1  0
  9 27  1  0
  9 28  1  0
 10 29  1  0
 10 30  1  0
 11 31  1  0
 15 32  1  0
 16 33  1  0
 17 34  1  0
 19 35  1  0
 20 36  1  0
 21 37  1  0
M  END
$$$$
[H]c1c(Cl)c(Cl)c([H])c2c1C(=O)N([C@]1([H])C([H])([H])C([H])([H])[C@@]([H])(OC([H])([H])C([H])([H])N3C([H])([H])C([H])([H])C([H])([H])C([H])([H])C([H])([H])C3([H])[H])C1([H])[H])C2([H])[H]
     RDKit          3D

 55 58  0  0  0  0  0  0  0  0999 V2000
   -9.9796    1.1734   -0.8497 Cl  0  0  0  0  0  0  0  0  0  0  0  0
   -8.3422    1.0337   -0.2324 C   0  0  0  0  0  0  0  0  0  0  0  0
   -7.3656    0.4019   -0.9668 C   0  0  0  0  0  0  0  0  0  0  0  0
   -6.0842    0.2912   -0.4868 C   0  0  0  0  0  0  0  0  0  0  0  0
   -4.8732   -0.3167   -1.0437 C   0  0  0  0  0  0  0  0  0  0  0  0
   -3.8223   -0.1137   -0.0638 N   0  0  0  0  0  0  0  0  0  0  0  0
   -2.4727   -0.5715   -0.2507 C   0  0  2  0  0  0  0  0  0  0  0  0
   -1.9319   -1.4697    0.7729 C   0  0  0  0  0  0  0  0  0  0  0  0
   -0.7850   -0.7398    1.3954 C   0  0  0  0  0  0  0  0  0  0  0  0
   -0.1917   -0.0114    0.2065 C   0  0  2  0  0  0  0  0  0  0  0  0
   -1.4754    0.5908   -0.3834 C   0  0  0  0  0  0  0  0  0  0  0  0
    0.3242   -0.9525   -0.6435 O   0  0  0  0  0  0  0  0  0  0  0  0
    1.6539   -0.7600   -0.9806 C   0  0  0  0  0  0  0  0  0  0  0  0
    2.5806   -0.7691    0.1862 C   0  0  0  0  0  0  0  0  0  0  0  0
    3.9063   -0.5681   -0.2601 N   0  0  0  0  0  0  0  0  0  0  0  0
    4.2792    0.6709   -0.7843 C   0  0  0  0  0  0  0  0  0  0  0  0
    5.1079    1.5469    0.1254 C   0  0  0  0  0  0  0  0  0  0  0  0
    6.3747    0.9153    0.5976 C   0  0  0  0  0  0  0  0  0  0  0  0
    6.9296   -0.0710   -0.3863 C   0  0  0  0  0  0  0  0  0  0  0  0
    6.1544   -1.3424   -0.4710 C   0  0  0  0  0  0  0  0  0  0  0  0
    4.9075   -1.3629    0.3515 C   0  0  0  0  0  0  0  0  0  0  0  0
   -4.4082    0.5804    1.0112 C   0  0  0  0  0  0  0  0  0  0  0  0
   -3.7887    0.9248    2.0422 O   0  0  0  0  0  0  0  0  0  0  0  0
   -5.8297    0.8406    0.7572 C   0  0  0  0  0  0  0  0  0  0  0  0
   -6.8089    1.4737    1.4929 C   0  0  0  0  0  0  0  0  0  0  0  0
   -8.0861    1.5862    1.0188 C   0  0  0  0  0  0  0  0  0  0  0  0
   -9.3570    2.3897    1.9361 Cl  0  0  0  0  0  0  0  0  0  0  0  0
   -7.6282   -0.0147   -1.9485 H   0  0  0  0  0  0  0  0  0  0  0  0
   -4.5921    0.0882   -2.0385 H   0  0  0  0  0  0  0  0  0  0  0  0
   -5.0117   -1.4205   -1.1240 H   0  0  0  0  0  0  0  0  0  0  0  0
   -2.4200   -1.0821   -1.2473 H   0  0  0  0  0  0  0  0  0  0  0  0
   -1.4810   -2.3876    0.2905 H   0  0  0  0  0  0  0  0  0  0  0  0
   -2.6547   -1.8730    1.5015 H   0  0  0  0  0  0  0  0  0  0  0  0
   -1.0549    0.0341    2.1291 H   0  0  0  0  0  0  0  0  0  0  0  0
   -0.0519   -1.4703    1.8199 H   0  0  0  0  0  0  0  0  0  0  0  0
    0.5125    0.7826    0.5133 H   0  0  0  0  0  0  0  0  0  0  0  0
   -1.7850    1.4132    0.2666 H   0  0  0  0  0  0  0  0  0  0  0  0
   -1.3072    0.8672   -1.4302 H   0  0  0  0  0  0  0  0  0  0  0  0
    1.9381   -1.6434   -1.6232 H   0  0  0  0  0  0  0  0  0  0  0  0
    1.8273    0.1338   -1.5850 H   0  0  0  0  0  0  0  0  0  0  0  0
    2.4588   -1.7623    0.6941 H   0  0  0  0  0  0  0  0  0  0  0  0
    2.3239   -0.0250    0.9674 H   0  0  0  0  0  0  0  0  0  0  0  0
    4.9118    0.5027   -1.7014 H   0  0  0  0  0  0  0  0  0  0  0  0
    3.4207    1.2606   -1.0969 H   0  0  0  0  0  0  0  0  0  0  0  0
    4.4936    1.9388    0.9661 H   0  0  0  0  0  0  0  0  0  0  0  0
    5.3834    2.4511   -0.4807 H   0  0  0  0  0  0  0  0  0  0  0  0
    7.1563    1.7246    0.7054 H   0  0  0  0  0  0  0  0  0  0  0  0
    6.2720    0.4997    1.6289 H   0  0  0  0  0  0  0  0  0  0  0  0
    6.9580    0.4021   -1.3696 H   0  0  0  0  0  0  0  0  0  0  0  0
    7.9897   -0.2735   -0.0829 H   0  0  0  0  0  0  0  0  0  0  0  0
    6.7942   -2.1947   -0.0983 H   0  0  0  0  0  0  0  0  0  0  0  0
    5.8809   -1.6376   -1.5045 H   0  0  0  0  0  0  0  0  0  0  0  0
    4.5379   -2.4322    0.3419 H   0  0  0  0  0  0  0  0  0  0  0  0
    5.0791   -1.1389    1.4233 H   0  0  0  0  0  0  0  0  0  0  0  0
   -6.5673    1.8865    2.4558 H   0  0  0  0  0  0  0  0  0  0  0  0
  1  2  1  0
  2  3  2  0
  3  4  1  0
  4  5  1  0
  5  6  1  0
  6  7  1  0
  7  8  1  0
  8  9  1  0
  9 10  1  0
 10 11  1  0
 10 12  1  0
 12 13  1  0
 13 14  1  0
 14 15  1  0
 15 16  1  0
 16 17  1  0
 17 18  1  0
 18 19  1  0
 19 20  1  0
 20 21  1  0
  6 22  1  0
 22 23  2  0
 22 24  1  0
 24 25  1  0
 25 26  2  0
 26 27  1  0
 26  2  1  0
 24  4  2  0
 11  7  1  0
 21 15  1  0
  3 28  1  0
  5 29  1  0
  5 30  1  0
  7 31  1  6
  8 32  1  0
  8 33  1  0
  9 34  1  0
  9 35  1  0
 10 36  1  1
 11 37  1  0
 11 38  1  0
 13 39  1  0
 13 40  1  0
 14 41  1  0
 14 42  1  0
 16 43  1  0
 16 44  1  0
 17 45  1  0
 17 46  1  0
 18 47  1  0
 18 48  1  0
 19 49  1  0
 19 50  1  0
 20 51  1  0
 20 52  1  0
 21 53  1  0
 21 54  1  0
 25 55  1  0
M  END
$$$$
[H]Oc1c(Cl)c([H])c(C([H])([H])OC([H])([H])[C@@]2([H])C(=O)N([H])[C@@]([H])(C([H])([H])C3([H])C([H])([H])C([H])([H])C([H])([H])C([H])([H])C3([H])[H])C(=O)N([H])[C@]([H])(C([H])(C([H])([H])[H])C([H])([H])[H])OC([H])([H])[C@@]([H])(C([H])([H])O[H])C(=O)N2[H])c([H])c1C([H])([H])c1c([H])c([H])c(-c2c([H])c([H])nn2[H])c([H])c1[H]
     RDKit          3D

 98102  0  0  0  0  0  0  0  0999 V2000
   -7.4562    3.2358    0.3921 C   0  0  0  0  0  0  0  0  0  0  0  0
   -6.9558    2.4359   -0.7945 C   0  0  0  0  0  0  0  0  0  0  0  0
   -7.2036    3.0882   -2.1120 C   0  0  0  0  0  0  0  0  0  0  0  0
   -5.4787    2.0613   -0.5801 C   0  0  1  0  0  0  0  0  0  0  0  0
   -5.0410    1.3051   -1.7188 N   0  0  0  0  0  0  0  0  0  0  0  0
   -4.6851   -0.0399   -1.8025 C   0  0  0  0  0  0  0  0  0  0  0  0
   -5.1939   -0.7154   -2.7672 O   0  0  0  0  0  0  0  0  0  0  0  0
   -3.7791   -0.7997   -0.9070 C   0  0  2  0  0  0  0  0  0  0  0  0
   -4.5910   -1.8913   -0.2992 C   0  0  0  0  0  0  0  0  0  0  0  0
   -3.9159   -2.8156    0.6357 C   0  0  0  0  0  0  0  0  0  0  0  0
   -2.7544   -3.5659    0.0469 C   0  0  0  0  0  0  0  0  0  0  0  0
   -2.2813   -4.5735    1.0676 C   0  0  0  0  0  0  0  0  0  0  0  0
   -3.2334   -4.6916    2.2429 C   0  0  0  0  0  0  0  0  0  0  0  0
   -3.4581   -3.4043    2.9659 C   0  0  0  0  0  0  0  0  0  0  0  0
   -3.4978   -2.2416    1.9601 C   0  0  0  0  0  0  0  0  0  0  0  0
   -3.0849   -0.0093    0.0405 N   0  0  0  0  0  0  0  0  0  0  0  0
   -1.7645    0.5333   -0.0952 C   0  0  0  0  0  0  0  0  0  0  0  0
   -1.0913    0.6156    0.9741 O   0  0  0  0  0  0  0  0  0  0  0  0
   -1.1387    0.9891   -1.3204 C   0  0  2  0  0  0  0  0  0  0  0  0
    0.2145    0.2478   -1.4237 C   0  0  0  0  0  0  0  0  0  0  0  0
    0.0837   -1.1037   -1.3010 O   0  0  0  0  0  0  0  0  0  0  0  0
    1.3206   -1.7116   -1.3931 C   0  0  0  0  0  0  0  0  0  0  0  0
    2.2953   -1.2900   -0.3776 C   0  0  0  0  0  0  0  0  0  0  0  0
    2.2301   -1.8175    0.8920 C   0  0  0  0  0  0  0  0  0  0  0  0
    3.0916   -1.4831    1.8994 C   0  0  0  0  0  0  0  0  0  0  0  0
    2.9887   -2.1727    3.5070 Cl  0  0  0  0  0  0  0  0  0  0  0  0
    4.0903   -0.5615    1.6375 C   0  0  0  0  0  0  0  0  0  0  0  0
    4.9618   -0.2298    2.6778 O   0  0  0  0  0  0  0  0  0  0  0  0
    4.2110    0.0036    0.3907 C   0  0  0  0  0  0  0  0  0  0  0  0
    5.2669    0.9858    0.1214 C   0  0  0  0  0  0  0  0  0  0  0  0
    6.6254    0.4210   -0.0234 C   0  0  0  0  0  0  0  0  0  0  0  0
    7.5475    0.5668    0.9933 C   0  0  0  0  0  0  0  0  0  0  0  0
    8.8367    0.0355    0.8928 C   0  0  0  0  0  0  0  0  0  0  0  0
    9.2340   -0.6491   -0.2167 C   0  0  0  0  0  0  0  0  0  0  0  0
    8.3249   -0.8033   -1.2414 C   0  0  0  0  0  0  0  0  0  0  0  0
    7.0431   -0.2702   -1.1322 C   0  0  0  0  0  0  0  0  0  0  0  0
   10.5872   -1.1960   -0.3121 C   0  0  0  0  0  0  0  0  0  0  0  0
   11.5678   -1.0298    0.6730 C   0  0  0  0  0  0  0  0  0  0  0  0
   12.6822   -1.6746    0.2109 C   0  0  0  0  0  0  0  0  0  0  0  0
   12.4078   -2.2020   -0.9785 N   0  0  0  0  0  0  0  0  0  0  0  0
   11.1564   -1.9113   -1.2817 N   0  0  0  0  0  0  0  0  0  0  0  0
    3.2975   -0.3768   -0.6095 C   0  0  0  0  0  0  0  0  0  0  0  0
   -0.9166    2.4113   -1.4523 N   0  0  0  0  0  0  0  0  0  0  0  0
   -1.2780    3.4889   -0.6714 C   0  0  0  0  0  0  0  0  0  0  0  0
   -0.3269    4.1706   -0.1172 O   0  0  0  0  0  0  0  0  0  0  0  0
   -2.6150    4.0401   -0.3327 C   0  0  2  0  0  0  0  0  0  0  0  0
   -2.8860    3.9632    1.1628 C   0  0  0  0  0  0  0  0  0  0  0  0
   -4.1179    4.4724    1.4986 O   0  0  0  0  0  0  0  0  0  0  0  0
   -3.7381    3.5097   -1.1644 C   0  0  0  0  0  0  0  0  0  0  0  0
   -4.8081    3.2318   -0.3776 O   0  0  0  0  0  0  0  0  0  0  0  0
   -7.5128    4.3134    0.1173 H   0  0  0  0  0  0  0  0  0  0  0  0
   -6.7433    3.0684    1.2294 H   0  0  0  0  0  0  0  0  0  0  0  0
   -8.4547    2.8676    0.7131 H   0  0  0  0  0  0  0  0  0  0  0  0
   -7.5066    1.4654   -0.7845 H   0  0  0  0  0  0  0  0  0  0  0  0
   -6.3821    3.7558   -2.3978 H   0  0  0  0  0  0  0  0  0  0  0  0
   -8.1556    3.6848   -1.9992 H   0  0  0  0  0  0  0  0  0  0  0  0
   -7.4320    2.3488   -2.9271 H   0  0  0  0  0  0  0  0  0  0  0  0
   -5.4980    1.5031    0.3728 H   0  0  0  0  0  0  0  0  0  0  0  0
   -4.9978    1.8883   -2.6131 H   0  0  0  0  0  0  0  0  0  0  0  0
   -3.0173   -1.2893   -1.5586 H   0  0  0  0  0  0  0  0  0  0  0  0
   -5.4739   -1.4644    0.2729 H   0  0  0  0  0  0  0  0  0  0  0  0
   -5.1071   -2.4630   -1.1264 H   0  0  0  0  0  0  0  0  0  0  0  0
   -4.6754   -3.6164    0.8887 H   0  0  0  0  0  0  0  0  0  0  0  0
   -3.1302   -4.1331   -0.8286 H   0  0  0  0  0  0  0  0  0  0  0  0
   -1.8966   -2.9211   -0.2077 H   0  0  0  0  0  0  0  0  0  0  0  0
   -1.2967   -4.2646    1.5239 H   0  0  0  0  0  0  0  0  0  0  0  0
   -2.2007   -5.6074    0.6393 H   0  0  0  0  0  0  0  0  0  0  0  0
   -2.6937   -5.3654    2.9757 H   0  0  0  0  0  0  0  0  0  0  0  0
   -4.1520   -5.2481    1.9933 H   0  0  0  0  0  0  0  0  0  0  0  0
   -2.6680   -3.1996    3.7249 H   0  0  0  0  0  0  0  0  0  0  0  0
   -4.4226   -3.4804    3.5219 H   0  0  0  0  0  0  0  0  0  0  0  0
   -4.3056   -1.5747    2.3336 H   0  0  0  0  0  0  0  0  0  0  0  0
   -2.5346   -1.7084    1.9475 H   0  0  0  0  0  0  0  0  0  0  0  0
   -3.5886    0.2146    0.9511 H   0  0  0  0  0  0  0  0  0  0  0  0
   -1.6923    0.6589   -2.2421 H   0  0  0  0  0  0  0  0  0  0  0  0
    0.8656    0.7195   -0.6735 H   0  0  0  0  0  0  0  0  0  0  0  0
    0.6080    0.4961   -2.4271 H   0  0  0  0  0  0  0  0  0  0  0  0
    1.7794   -1.5547   -2.4131 H   0  0  0  0  0  0  0  0  0  0  0  0
    1.1320   -2.8247   -1.3492 H   0  0  0  0  0  0  0  0  0  0  0  0
    1.4463   -2.5469    1.1144 H   0  0  0  0  0  0  0  0  0  0  0  0
    4.8836   -0.6353    3.5880 H   0  0  0  0  0  0  0  0  0  0  0  0
    5.3146    1.7272    0.9723 H   0  0  0  0  0  0  0  0  0  0  0  0
    5.0117    1.6435   -0.7591 H   0  0  0  0  0  0  0  0  0  0  0  0
    7.3582    1.0933    1.9183 H   0  0  0  0  0  0  0  0  0  0  0  0
    9.5537    0.1616    1.7056 H   0  0  0  0  0  0  0  0  0  0  0  0
    8.5857   -1.3349   -2.1390 H   0  0  0  0  0  0  0  0  0  0  0  0
    6.3351   -0.3965   -1.9442 H   0  0  0  0  0  0  0  0  0  0  0  0
   11.4708   -0.4952    1.6204 H   0  0  0  0  0  0  0  0  0  0  0  0
   13.6503   -1.7577    0.7158 H   0  0  0  0  0  0  0  0  0  0  0  0
   10.6592   -2.2010   -2.1669 H   0  0  0  0  0  0  0  0  0  0  0  0
    3.4041    0.0687   -1.5711 H   0  0  0  0  0  0  0  0  0  0  0  0
   -0.3495    2.6374   -2.3351 H   0  0  0  0  0  0  0  0  0  0  0  0
   -2.6302    5.1641   -0.5239 H   0  0  0  0  0  0  0  0  0  0  0  0
   -2.6682    2.9866    1.5991 H   0  0  0  0  0  0  0  0  0  0  0  0
   -2.1204    4.6624    1.6160 H   0  0  0  0  0  0  0  0  0  0  0  0
   -4.0966    5.4629    1.4405 H   0  0  0  0  0  0  0  0  0  0  0  0
   -4.0835    4.2445   -1.9539 H   0  0  0  0  0  0  0  0  0  0  0  0
   -3.3451    2.6639   -1.7586 H   0  0  0  0  0  0  0  0  0  0  0  0
  1  2  1  0
  2  3  1  0
  2  4  1  0
  4  5  1  0
  5  6  1  0
  6  7  2  0
  6  8  1  0
  8  9  1  0
  9 10  1  0
 10 11  1  0
 11 12  1  0
 12 13  1  0
 13 14  1  0
 14 15  1  0
  8 16  1  0
 16 17  1  0
 17 18  2  0
 17 19  1  0
 19 20  1  0
 20 21  1  0
 21 22  1  0
 22 23  1  0
 23 24  2  0
 24 25  1  0
 25 26  1  0
 25 27  2  0
 27 28  1  0
 27 29  1  0
 29 30  1  0
 30 31  1  0
 31 32  2  0
 32 33  1  0
 33 34  2  0
 34 35  1  0
 35 36  2  0
 34 37  1  0
 37 38  2  0
 38 39  1  0
 39 40  2  0
 40 41  1  0
 29 42  2  0
 19 43  1  0
 43 44  1  0
 44 45  2  0
 44 46  1  0
 46 47  1  0
 47 48  1  0
 46 49  1  0
 49 50  1  0
 50  4  1  0
 15 10  1  0
 42 23  1  0
 36 31  1  0
 41 37  1  0
  1 51  1  0
  1 52  1  0
  1 53  1  0
  2 54  1  0
  3 55  1  0
  3 56  1  0
  3 57  1  0
  4 58  1  1
  5 59  1  0
  8 60  1  6
  9 61  1  0
  9 62  1  0
 10 63  1  0
 11 64  1  0
 11 65  1  0
 12 66  1  0
 12 67  1  0
 13 68  1  0
 13 69  1  0
 14 70  1  0
 14 71  1  0
 15 72  1  0
 15 73  1  0
 16 74  1  0
 19 75  1  6
 20 76  1  0
 20 77  1  0
 22 78  1  0
 22 79  1  0
 24 80  1  0
 28 81  1  0
 30 82  1  0
 30 83  1  0
 32 84  1  0
 33 85  1  0
 35 86  1  0
 36 87  1  0
 38 88  1  0
 39 89  1  0
 41 90  1  0
 42 91  1  0
 43 92  1  0
 46 93  1  6
 47 94  1  0
 47 95  1  0
 48 96  1  0
 49 97  1  0
 49 98  1  0
M  END
$$$$
[H]OC(=O)c1c([H])c([H])c(-c2nsc(N3C([H])([H])C([H])([H])N([H])C([H])([H])C3([H])[H])c2C([H])([H])[H])c([H])c1[H]
     RDKit          3D

 38 40  0  0  0  0  0  0  0  0999 V2000
   -0.0988    0.8021    0.9462 C   0  0  0  0  0  0  0  0  0  0  0  0
   -0.1949   -0.4692    0.1076 C   0  0  0  0  0  0  0  0  0  0  0  0
   -1.4087   -0.9918   -0.1903 C   0  0  0  0  0  0  0  0  0  0  0  0
   -0.9670   -2.3467   -1.1772 S   0  0  0  0  0  0  0  0  0  0  0  0
    0.6927   -2.1743   -1.1511 N   0  0  0  0  0  0  0  0  0  0  0  0
    0.9004   -1.0935   -0.3968 C   0  0  0  0  0  0  0  0  0  0  0  0
    2.3165   -0.6422   -0.1573 C   0  0  0  0  0  0  0  0  0  0  0  0
    2.7825   -0.3479    1.0887 C   0  0  0  0  0  0  0  0  0  0  0  0
    4.0682    0.0659    1.2848 C   0  0  0  0  0  0  0  0  0  0  0  0
    4.9016    0.1839    0.1849 C   0  0  0  0  0  0  0  0  0  0  0  0
    4.4732   -0.1030   -1.0931 C   0  0  0  0  0  0  0  0  0  0  0  0
    3.1641   -0.5174   -1.2313 C   0  0  0  0  0  0  0  0  0  0  0  0
    6.2786    0.6286    0.3950 C   0  0  0  0  0  0  0  0  0  0  0  0
    6.7559    0.9330    1.6327 O   0  0  0  0  0  0  0  0  0  0  0  0
    7.0371    0.7326   -0.5986 O   0  0  0  0  0  0  0  0  0  0  0  0
   -2.7460   -0.6477    0.1743 N   0  0  0  0  0  0  0  0  0  0  0  0
   -3.8296   -1.3972   -0.5028 C   0  0  0  0  0  0  0  0  0  0  0  0
   -5.0040   -0.4413   -0.5754 C   0  0  0  0  0  0  0  0  0  0  0  0
   -4.5101    0.8945   -0.8107 N   0  0  0  0  0  0  0  0  0  0  0  0
   -4.0100    1.4238    0.4398 C   0  0  0  0  0  0  0  0  0  0  0  0
   -3.2148    0.2945    1.1092 C   0  0  0  0  0  0  0  0  0  0  0  0
   -0.1767    0.5998    2.0114 H   0  0  0  0  0  0  0  0  0  0  0  0
    0.8552    1.3333    0.7645 H   0  0  0  0  0  0  0  0  0  0  0  0
   -0.8677    1.5362    0.5523 H   0  0  0  0  0  0  0  0  0  0  0  0
    2.1200   -0.4413    1.9521 H   0  0  0  0  0  0  0  0  0  0  0  0
    4.4529    0.3065    2.2953 H   0  0  0  0  0  0  0  0  0  0  0  0
    5.1359   -0.0106   -1.9656 H   0  0  0  0  0  0  0  0  0  0  0  0
    2.7986   -0.7551   -2.2477 H   0  0  0  0  0  0  0  0  0  0  0  0
    7.1691    1.8445    1.8869 H   0  0  0  0  0  0  0  0  0  0  0  0
   -4.0527   -2.3433   -0.0073 H   0  0  0  0  0  0  0  0  0  0  0  0
   -3.5393   -1.6062   -1.5608 H   0  0  0  0  0  0  0  0  0  0  0  0
   -5.5337   -0.4942    0.3942 H   0  0  0  0  0  0  0  0  0  0  0  0
   -5.6821   -0.7174   -1.4160 H   0  0  0  0  0  0  0  0  0  0  0  0
   -5.2349    1.5196   -1.2373 H   0  0  0  0  0  0  0  0  0  0  0  0
   -3.3578    2.3033    0.2536 H   0  0  0  0  0  0  0  0  0  0  0  0
   -4.8863    1.7209    1.0493 H   0  0  0  0  0  0  0  0  0  0  0  0
   -2.5571    0.6655    1.8841 H   0  0  0  0  0  0  0  0  0  0  0  0
   -4.0305   -0.2484    1.7109 H   0  0  0  0  0  0  0  0  0  0  0  0
  1  2  1  0
  2  3  2  0
  3  4  1  0
  4  5  1  0
  5  6  2  0
  6  7  1  0
  7  8  2  0
  8  9  1  0
  9 10  2  0
 10 11  1  0
 11 12  2  0
 10 13  1  0
 13 14  1  0
 13 15  2  0
  3 16  1  0
 16 17  1  0
 17 18  1  0
 18 19  1  0
 19 20  1  0
 20 21  1  0
  6  2  1  0
 12  7  1  0
 21 16  1  0
  1 22  1  0
  1 23  1  0
  1 24  1  0
  8 25  1  0
  9 26  1  0
 11 27  1  0
 12 28  1  0
 14 29  1  0
 17 30  1  0
 17 31  1  0
 18 32  1  0
 18 33  1  0
 19 34  1  0
 20 35  1  0
 20 36  1  0
 21 37  1  0
 21 38  1  0
M  END
$$$$
[H]c1c(Cl)c(C(=O)N([H])[H])c([H])c(-n2nc([H])c3c(N([H])[H])nc(N([H])[H])nc32)c1Cl
     RDKit          3D

 31 33  0  0  0  0  0  0  0  0999 V2000
   -3.6835    1.9179    1.5865 N   0  0  0  0  0  0  0  0  0  0  0  0
   -3.1288    0.7960    0.8739 C   0  0  0  0  0  0  0  0  0  0  0  0
   -3.9657   -0.2279    0.6328 N   0  0  0  0  0  0  0  0  0  0  0  0
   -3.5058   -1.3031   -0.0283 C   0  0  0  0  0  0  0  0  0  0  0  0
   -4.3111   -2.4302   -0.3290 N   0  0  0  0  0  0  0  0  0  0  0  0
   -2.1930   -1.3391   -0.4457 C   0  0  0  0  0  0  0  0  0  0  0  0
   -1.4445   -2.2851   -1.1320 C   0  0  0  0  0  0  0  0  0  0  0  0
   -0.2195   -1.7729   -1.2570 N   0  0  0  0  0  0  0  0  0  0  0  0
   -0.1477   -0.5764   -0.6991 N   0  0  0  0  0  0  0  0  0  0  0  0
    0.9967    0.2592   -0.6429 C   0  0  0  0  0  0  0  0  0  0  0  0
    2.1394   -0.1258    0.0257 C   0  0  0  0  0  0  0  0  0  0  0  0
    3.2627    0.6899    0.0831 C   0  0  0  0  0  0  0  0  0  0  0  0
    4.4587    0.2679    0.7924 C   0  0  0  0  0  0  0  0  0  0  0  0
    4.4651   -0.9902    1.4269 N   0  0  0  0  0  0  0  0  0  0  0  0
    5.4817    0.9788    0.8608 O   0  0  0  0  0  0  0  0  0  0  0  0
    3.2411    1.9201   -0.5438 C   0  0  0  0  0  0  0  0  0  0  0  0
    4.6539    2.9433   -0.4702 Cl  0  0  0  0  0  0  0  0  0  0  0  0
    2.1083    2.2915   -1.2014 C   0  0  0  0  0  0  0  0  0  0  0  0
    0.9880    1.4781   -1.2588 C   0  0  0  0  0  0  0  0  0  0  0  0
   -0.3905    2.0981   -2.1435 Cl  0  0  0  0  0  0  0  0  0  0  0  0
   -1.3714   -0.2820   -0.1837 C   0  0  0  0  0  0  0  0  0  0  0  0
   -1.8450    0.7970    0.4833 N   0  0  0  0  0  0  0  0  0  0  0  0
   -4.2209    1.7090    2.4529 H   0  0  0  0  0  0  0  0  0  0  0  0
   -3.5770    2.8908    1.2883 H   0  0  0  0  0  0  0  0  0  0  0  0
   -4.2129   -3.2710    0.2783 H   0  0  0  0  0  0  0  0  0  0  0  0
   -4.9930   -2.4785   -1.1120 H   0  0  0  0  0  0  0  0  0  0  0  0
   -1.8386   -3.2412   -1.4752 H   0  0  0  0  0  0  0  0  0  0  0  0
    2.2122   -1.0775    0.5340 H   0  0  0  0  0  0  0  0  0  0  0  0
    4.7280   -1.0764    2.4086 H   0  0  0  0  0  0  0  0  0  0  0  0
    4.1993   -1.8277    0.8842 H   0  0  0  0  0  0  0  0  0  0  0  0
    2.1139    3.2673   -1.6892 H   0  0  0  0  0  0  0  0  0  0  0  0
  1  2  1  0
  2  3  2  0
  3  4  1  0
  4  5  1  0
  4  6  2  0
  6  7  1  0
  7  8  2  0
  8  9  1  0
  9 10  1  0
 10 11  2  0
 11 12  1  0
 12 13  1  0
 13 14  1  0
 13 15  2  0
 12 16  2  0
 16 17  1  0
 16 18  1  0
 18 19  2  0
 19 20  1  0
  9 21  1  0
 21 22  2  0
 22  2  1  0
 21  6  1  0
 19 10  1  0
  1 23  1  0
  1 24  1  0
  5 25  1  0
  5 26  1  0
  7 27  1  0
 11 28  1  0
 14 29  1  0
 14 30  1  0
 18 31  1  0
M  END
$$$$
[H]c1c(O[C@@]2([H])C([H])([H])[C@@]3([H])N(S(=O)(=O)c4c([H])c([H])c5c([H])c([H])c([H])c([H])c5c4[H])[C@]([H])(C([H])([H])C3([H])[H])C2([H])[H])c([H])c(C(F)(F)F)c([H])c1C(F)(F)F
     RDKit          3D

 57 61  0  0  0  0  0  0  0  0999 V2000
   -6.9132    0.1394    2.7736 F   0  0  0  0  0  0  0  0  0  0  0  0
   -7.2604    0.5144    1.4861 C   0  0  0  0  0  0  0  0  0  0  0  0
   -7.8488    1.7940    1.6281 F   0  0  0  0  0  0  0  0  0  0  0  0
   -8.1889   -0.2996    0.9751 F   0  0  0  0  0  0  0  0  0  0  0  0
   -6.0013    0.6188    0.7101 C   0  0  0  0  0  0  0  0  0  0  0  0
   -5.0528   -0.3651    0.7650 C   0  0  0  0  0  0  0  0  0  0  0  0
   -3.8606   -0.2805    0.0483 C   0  0  0  0  0  0  0  0  0  0  0  0
   -2.9368   -1.1488    0.0889 O   0  0  0  0  0  0  0  0  0  0  0  0
   -1.8095   -1.7912   -0.2291 C   0  0  1  0  0  0  0  0  0  0  0  0
   -0.8837   -0.8768   -1.0606 C   0  0  0  0  0  0  0  0  0  0  0  0
    0.5360   -1.4402   -1.1042 C   0  0  2  0  0  0  0  0  0  0  0  0
    0.5077   -2.8312   -1.7487 C   0  0  0  0  0  0  0  0  0  0  0  0
    0.3141   -3.7325   -0.5327 C   0  0  0  0  0  0  0  0  0  0  0  0
    0.2845   -2.7428    0.6668 C   0  0  2  0  0  0  0  0  0  0  0  0
   -1.1436   -2.3837    0.9560 C   0  0  0  0  0  0  0  0  0  0  0  0
    0.9643   -1.5877    0.1931 N   0  0  0  0  0  0  0  0  0  0  0  0
    1.7243   -0.5417    1.1568 S   0  0  0  0  0  0  0  0  0  0  0  0
    1.7863   -1.1364    2.5774 O   0  0  0  0  0  0  0  0  0  0  0  0
    0.7997    0.6848    1.3991 O   0  0  0  0  0  0  0  0  0  0  0  0
    3.3057    0.0403    0.7305 C   0  0  0  0  0  0  0  0  0  0  0  0
    4.4242   -0.6706    1.1395 C   0  0  0  0  0  0  0  0  0  0  0  0
    5.6822   -0.2431    0.8533 C   0  0  0  0  0  0  0  0  0  0  0  0
    5.8898    0.9294    0.1392 C   0  0  0  0  0  0  0  0  0  0  0  0
    7.1923    1.3914   -0.1473 C   0  0  0  0  0  0  0  0  0  0  0  0
    7.3656    2.5386   -0.8366 C   0  0  0  0  0  0  0  0  0  0  0  0
    6.3350    3.2795   -1.2883 C   0  0  0  0  0  0  0  0  0  0  0  0
    5.0158    2.8259   -1.0002 C   0  0  0  0  0  0  0  0  0  0  0  0
    4.8045    1.6523   -0.2828 C   0  0  0  0  0  0  0  0  0  0  0  0
    3.5251    1.1943    0.0247 C   0  0  0  0  0  0  0  0  0  0  0  0
   -3.7535    0.8831   -0.7123 C   0  0  0  0  0  0  0  0  0  0  0  0
   -4.6576    1.8712   -0.7876 C   0  0  0  0  0  0  0  0  0  0  0  0
   -5.8230    1.7581   -0.0673 C   0  0  0  0  0  0  0  0  0  0  0  0
   -4.3619    3.1014   -1.5574 C   0  0  0  0  0  0  0  0  0  0  0  0
   -3.5656    2.8012   -2.6600 F   0  0  0  0  0  0  0  0  0  0  0  0
   -5.4760    3.7916   -1.9228 F   0  0  0  0  0  0  0  0  0  0  0  0
   -3.6168    3.9270   -0.7246 F   0  0  0  0  0  0  0  0  0  0  0  0
   -5.2905   -1.2370    1.3796 H   0  0  0  0  0  0  0  0  0  0  0  0
   -2.0335   -2.6048   -0.9966 H   0  0  0  0  0  0  0  0  0  0  0  0
   -0.8131    0.1231   -0.5959 H   0  0  0  0  0  0  0  0  0  0  0  0
   -1.2967   -0.7730   -2.0420 H   0  0  0  0  0  0  0  0  0  0  0  0
    1.0952   -0.7821   -1.7710 H   0  0  0  0  0  0  0  0  0  0  0  0
    1.5250   -2.9879   -2.1922 H   0  0  0  0  0  0  0  0  0  0  0  0
   -0.2120   -2.9563   -2.5391 H   0  0  0  0  0  0  0  0  0  0  0  0
    1.2162   -4.3667   -0.4559 H   0  0  0  0  0  0  0  0  0  0  0  0
   -0.6066   -4.3092   -0.5828 H   0  0  0  0  0  0  0  0  0  0  0  0
    0.7741   -3.2832    1.4669 H   0  0  0  0  0  0  0  0  0  0  0  0
   -1.7434   -3.2382    1.3333 H   0  0  0  0  0  0  0  0  0  0  0  0
   -1.1067   -1.5403    1.7375 H   0  0  0  0  0  0  0  0  0  0  0  0
    4.3042   -1.6025    1.6671 H   0  0  0  0  0  0  0  0  0  0  0  0
    6.5933   -0.7767    1.1247 H   0  0  0  0  0  0  0  0  0  0  0  0
    8.0325    0.8089    0.1876 H   0  0  0  0  0  0  0  0  0  0  0  0
    8.4031    2.9084   -1.0495 H   0  0  0  0  0  0  0  0  0  0  0  0
    6.4503    4.1760   -1.8287 H   0  0  0  0  0  0  0  0  0  0  0  0
    4.1380    3.3687   -1.3093 H   0  0  0  0  0  0  0  0  0  0  0  0
    2.6637    1.8170   -0.3233 H   0  0  0  0  0  0  0  0  0  0  0  0
   -2.8515    1.0402   -1.3265 H   0  0  0  0  0  0  0  0  0  0  0  0
   -6.5450    2.5508   -0.1331 H   0  0  0  0  0  0  0  0  0  0  0  0
  1  2  1  0
  2  3  1  0
  2  4  1  0
  2  5  1  0
  5  6  2  0
  6  7  1  0
  7  8  1  0
  8  9  1  0
  9 10  1  0
 10 11  1  0
 11 12  1  0
 12 13  1  0
 13 14  1  0
 14 15  1  0
 14 16  1  0
 16 17  1  0
 17 18  2  0
 17 19  2  0
 17 20  1  0
 20 21  2  0
 21 22  1  0
 22 23  2  0
 23 24  1  0
 24 25  2  0
 25 26  1  0
 26 27  2  0
 27 28  1  0
 28 29  2  0
  7 30  2  0
 30 31  1  0
 31 32  2  0
 31 33  1  0
 33 34  1  0
 33 35  1  0
 33 36  1  0
 32  5  1  0
 15  9  1  0
 29 20  1  0
 16 11  1  0
 28 23  1  0
  6 37  1  0
  9 38  1  6
 10 39  1  0
 10 40  1  0
 11 41  1  6
 12 42  1  0
 12 43  1  0
 13 44  1  0
 13 45  1  0
 14 46  1  1
 15 47  1  0
 15 48  1  0
 21 49  1  0
 22 50  1  0
 24 51  1  0
 25 52  1  0
 26 53  1  0
 27 54  1  0
 29 55  1  0
 30 56  1  0
 32 57  1  0
M  END
$$$$
[H]O[C@]1([H])C([H])([H])N(C([H])([H])c2c3c([H])c(OC([H])(C([H])([H])[H])C([H])([H])[H])c([H])c(C([H])([H])[H])c3nc3c2c(C([H])([H])[H])nn3[H])C([H])([H])C1([H])[H]
     RDKit          3D

 52 55  0  0  0  0  0  0  0  0999 V2000
    5.1762    1.7086    1.4258 C   0  0  0  0  0  0  0  0  0  0  0  0
    4.5308    1.7909    0.0020 C   0  0  0  0  0  0  0  0  0  0  0  0
    4.8335    3.1730   -0.4651 C   0  0  0  0  0  0  0  0  0  0  0  0
    3.1446    1.5459    0.1410 O   0  0  0  0  0  0  0  0  0  0  0  0
    2.4698    0.4336   -0.2951 C   0  0  0  0  0  0  0  0  0  0  0  0
    3.0647   -0.5442   -1.0746 C   0  0  0  0  0  0  0  0  0  0  0  0
    2.3617   -1.6558   -1.4724 C   0  0  0  0  0  0  0  0  0  0  0  0
    3.0269   -2.7042   -2.3214 C   0  0  0  0  0  0  0  0  0  0  0  0
    1.0323   -1.7603   -1.0513 C   0  0  0  0  0  0  0  0  0  0  0  0
    0.4247   -2.9592   -1.2939 N   0  0  0  0  0  0  0  0  0  0  0  0
   -0.7774   -3.2171   -0.7620 C   0  0  0  0  0  0  0  0  0  0  0  0
   -1.5892   -4.2855   -0.8137 N   0  0  0  0  0  0  0  0  0  0  0  0
   -2.6806   -4.0697   -0.1084 N   0  0  0  0  0  0  0  0  0  0  0  0
   -2.6388   -2.8382    0.4493 C   0  0  0  0  0  0  0  0  0  0  0  0
   -3.6520   -2.2953    1.4164 C   0  0  0  0  0  0  0  0  0  0  0  0
   -1.4486   -2.2880    0.0399 C   0  0  0  0  0  0  0  0  0  0  0  0
   -0.8279   -1.0663    0.2588 C   0  0  0  0  0  0  0  0  0  0  0  0
   -1.5607   -0.1463    1.1612 C   0  0  0  0  0  0  0  0  0  0  0  0
   -2.5937    0.5693    0.5248 N   0  0  0  0  0  0  0  0  0  0  0  0
   -2.6547    1.0705   -0.7324 C   0  0  0  0  0  0  0  0  0  0  0  0
   -4.0876    1.6710   -0.7490 C   0  0  0  0  0  0  0  0  0  0  0  0
   -4.3650    2.0133    0.6926 C   0  0  2  0  0  0  0  0  0  0  0  0
   -4.6456    3.3864    0.7693 O   0  0  0  0  0  0  0  0  0  0  0  0
   -3.0657    1.6607    1.3912 C   0  0  0  0  0  0  0  0  0  0  0  0
    0.4109   -0.7996   -0.2765 C   0  0  0  0  0  0  0  0  0  0  0  0
    1.1259    0.3076    0.1022 C   0  0  0  0  0  0  0  0  0  0  0  0
    4.8962    0.7540    1.9098 H   0  0  0  0  0  0  0  0  0  0  0  0
    6.2474    1.8235    1.2838 H   0  0  0  0  0  0  0  0  0  0  0  0
    4.7529    2.5867    2.0109 H   0  0  0  0  0  0  0  0  0  0  0  0
    5.0962    1.0703   -0.5677 H   0  0  0  0  0  0  0  0  0  0  0  0
    4.1632    3.9092    0.0447 H   0  0  0  0  0  0  0  0  0  0  0  0
    5.8840    3.4501   -0.1748 H   0  0  0  0  0  0  0  0  0  0  0  0
    4.7228    3.2754   -1.5689 H   0  0  0  0  0  0  0  0  0  0  0  0
    4.1147   -0.4482   -1.3832 H   0  0  0  0  0  0  0  0  0  0  0  0
    2.4807   -2.8839   -3.2766 H   0  0  0  0  0  0  0  0  0  0  0  0
    3.1623   -3.6168   -1.7266 H   0  0  0  0  0  0  0  0  0  0  0  0
    4.0141   -2.3045   -2.6010 H   0  0  0  0  0  0  0  0  0  0  0  0
   -1.3802   -5.1642   -1.3730 H   0  0  0  0  0  0  0  0  0  0  0  0
   -3.1590   -1.9536    2.3570 H   0  0  0  0  0  0  0  0  0  0  0  0
   -4.1635   -3.2587    1.8235 H   0  0  0  0  0  0  0  0  0  0  0  0
   -4.4649   -1.7102    1.0332 H   0  0  0  0  0  0  0  0  0  0  0  0
   -1.6831   -0.4213    2.1910 H   0  0  0  0  0  0  0  0  0  0  0  0
   -0.7780    0.7412    1.2996 H   0  0  0  0  0  0  0  0  0  0  0  0
   -1.9131    1.7515   -1.1476 H   0  0  0  0  0  0  0  0  0  0  0  0
   -2.7811    0.2254   -1.5209 H   0  0  0  0  0  0  0  0  0  0  0  0
   -4.0290    2.5736   -1.4083 H   0  0  0  0  0  0  0  0  0  0  0  0
   -4.8460    0.9475   -1.0688 H   0  0  0  0  0  0  0  0  0  0  0  0
   -5.2133    1.4072    1.1330 H   0  0  0  0  0  0  0  0  0  0  0  0
   -5.3576    3.5453    1.4758 H   0  0  0  0  0  0  0  0  0  0  0  0
   -2.3666    2.5176    1.1925 H   0  0  0  0  0  0  0  0  0  0  0  0
   -3.1576    1.3821    2.4374 H   0  0  0  0  0  0  0  0  0  0  0  0
    0.7440    1.0996    0.6663 H   0  0  0  0  0  0  0  0  0  0  0  0
  1  2  1  0
  2  3  1  0
  2  4  1  0
  4  5  1  0
  5  6  2  0
  6  7  1  0
  7  8  1  0
  7  9  2  0
  9 10  1  0
 10 11  2  0
 11 12  1  0
 12 13  1  0
 13 14  2  0
 14 15  1  0
 14 16  1  0
 16 17  2  0
 17 18  1  0
 18 19  1  0
 19 20  1  0
 20 21  1  0
 21 22  1  0
 22 23  1  0
 22 24  1  0
 17 25  1  0
 25 26  2  0
 26  5  1  0
 25  9  1  0
 16 11  1  0
 24 19  1  0
  1 27  1  0
  1 28  1  0
  1 29  1  0
  2 30  1  0
  3 31  1  0
  3 32  1  0
  3 33  1  0
  6 34  1  0
  8 35  1  0
  8 36  1  0
  8 37  1  0
 12 38  1  0
 15 39  1  0
 15 40  1  0
 15 41  1  0
 18 42  1  0
 18 43  1  0
 20 44  1  0
 20 45  1  0
 21 46  1  0
 21 47  1  0
 22 48  1  1
 23 49  1  0
 24 50  1  0
 24 51  1  0
 26 52  1  0
M  END
$$$$
[H]c1c([H])c(F)c([H])c(-c2nc3c([H])c([H])c(OC([H])([H])C([H])([H])C([H])([H])N4C([H])([H])C([H])([H])OC([H])([H])C4([H])[H])c([H])c3c(=O)n2C([H])([H])C(=O)OC(C([H])([H])[H])(C([H])([H])[H])C([H])([H])[H])c1[H]
     RDKit          3D

 68 71  0  0  0  0  0  0  0  0999 V2000
   -4.7971   -3.2267    0.0849 C   0  0  0  0  0  0  0  0  0  0  0  0
   -5.7651   -2.0951   -0.1395 C   0  0  0  0  0  0  0  0  0  0  0  0
   -6.9282   -2.6226   -0.9505 C   0  0  0  0  0  0  0  0  0  0  0  0
   -6.3259   -1.6714    1.2021 C   0  0  0  0  0  0  0  0  0  0  0  0
   -5.1985   -1.0054   -0.8378 O   0  0  0  0  0  0  0  0  0  0  0  0
   -4.1204   -0.2748   -0.4043 C   0  0  0  0  0  0  0  0  0  0  0  0
   -3.5756   -0.5623    0.6755 O   0  0  0  0  0  0  0  0  0  0  0  0
   -3.5818    0.8779   -1.2190 C   0  0  0  0  0  0  0  0  0  0  0  0
   -2.4583    1.4800   -0.5567 N   0  0  0  0  0  0  0  0  0  0  0  0
   -2.5581    2.4571    0.3311 C   0  0  0  0  0  0  0  0  0  0  0  0
   -1.3646    2.8358    0.9357 N   0  0  0  0  0  0  0  0  0  0  0  0
   -0.1833    2.3029    0.6856 C   0  0  0  0  0  0  0  0  0  0  0  0
    0.9854    2.7116    1.3106 C   0  0  0  0  0  0  0  0  0  0  0  0
    2.2030    2.1373    1.0271 C   0  0  0  0  0  0  0  0  0  0  0  0
    2.3141    1.1217    0.1013 C   0  0  0  0  0  0  0  0  0  0  0  0
    3.4996    0.5193   -0.2155 O   0  0  0  0  0  0  0  0  0  0  0  0
    3.5228   -0.5150   -1.1752 C   0  0  0  0  0  0  0  0  0  0  0  0
    4.9954   -0.9431   -1.2721 C   0  0  0  0  0  0  0  0  0  0  0  0
    5.3814   -1.4045    0.1057 C   0  0  0  0  0  0  0  0  0  0  0  0
    6.7230   -1.8473    0.2404 N   0  0  0  0  0  0  0  0  0  0  0  0
    7.0707   -3.0509   -0.4284 C   0  0  0  0  0  0  0  0  0  0  0  0
    8.0878   -2.9234   -1.5168 C   0  0  0  0  0  0  0  0  0  0  0  0
    9.1703   -2.1637   -1.0846 O   0  0  0  0  0  0  0  0  0  0  0  0
    8.7950   -0.8815   -0.7025 C   0  0  0  0  0  0  0  0  0  0  0  0
    7.7173   -0.8407    0.3280 C   0  0  0  0  0  0  0  0  0  0  0  0
    1.1538    0.7181   -0.5171 C   0  0  0  0  0  0  0  0  0  0  0  0
   -0.0702    1.2819   -0.2448 C   0  0  0  0  0  0  0  0  0  0  0  0
   -1.2367    0.9038   -0.8408 C   0  0  0  0  0  0  0  0  0  0  0  0
   -1.1584   -0.0277   -1.6949 O   0  0  0  0  0  0  0  0  0  0  0  0
   -3.7520    3.1202    0.8026 C   0  0  0  0  0  0  0  0  0  0  0  0
   -3.7362    3.5138    2.1488 C   0  0  0  0  0  0  0  0  0  0  0  0
   -4.7752    4.2268    2.6967 C   0  0  0  0  0  0  0  0  0  0  0  0
   -5.8740    4.5756    1.9179 C   0  0  0  0  0  0  0  0  0  0  0  0
   -5.9058    4.2006    0.6003 C   0  0  0  0  0  0  0  0  0  0  0  0
   -6.9581    4.5162   -0.2074 F   0  0  0  0  0  0  0  0  0  0  0  0
   -4.8241    3.4772    0.0885 C   0  0  0  0  0  0  0  0  0  0  0  0
   -3.7435   -2.8959   -0.0970 H   0  0  0  0  0  0  0  0  0  0  0  0
   -4.9104   -3.6945    1.0846 H   0  0  0  0  0  0  0  0  0  0  0  0
   -4.9933   -4.0038   -0.6808 H   0  0  0  0  0  0  0  0  0  0  0  0
   -7.4252   -3.4682   -0.4140 H   0  0  0  0  0  0  0  0  0  0  0  0
   -7.6620   -1.7808   -1.0424 H   0  0  0  0  0  0  0  0  0  0  0  0
   -6.6272   -2.9091   -1.9784 H   0  0  0  0  0  0  0  0  0  0  0  0
   -7.1281   -2.3985    1.4596 H   0  0  0  0  0  0  0  0  0  0  0  0
   -6.8180   -0.6839    1.0800 H   0  0  0  0  0  0  0  0  0  0  0  0
   -5.5877   -1.7057    2.0057 H   0  0  0  0  0  0  0  0  0  0  0  0
   -4.4181    1.4605   -1.5369 H   0  0  0  0  0  0  0  0  0  0  0  0
   -3.1955    0.3853   -2.1970 H   0  0  0  0  0  0  0  0  0  0  0  0
    0.9013    3.5133    2.0421 H   0  0  0  0  0  0  0  0  0  0  0  0
    3.1195    2.4512    1.5105 H   0  0  0  0  0  0  0  0  0  0  0  0
    2.8828   -1.3644   -0.9346 H   0  0  0  0  0  0  0  0  0  0  0  0
    3.1766   -0.0854   -2.1397 H   0  0  0  0  0  0  0  0  0  0  0  0
    5.0207   -1.7390   -2.0342 H   0  0  0  0  0  0  0  0  0  0  0  0
    5.6183   -0.1028   -1.6200 H   0  0  0  0  0  0  0  0  0  0  0  0
    4.6887   -2.2223    0.3843 H   0  0  0  0  0  0  0  0  0  0  0  0
    5.1904   -0.5773    0.8013 H   0  0  0  0  0  0  0  0  0  0  0  0
    7.5203   -3.7397    0.3457 H   0  0  0  0  0  0  0  0  0  0  0  0
    6.1497   -3.5351   -0.8191 H   0  0  0  0  0  0  0  0  0  0  0  0
    7.6734   -2.5892   -2.4789 H   0  0  0  0  0  0  0  0  0  0  0  0
    8.5008   -3.9539   -1.7084 H   0  0  0  0  0  0  0  0  0  0  0  0
    8.5505   -0.2419   -1.6018 H   0  0  0  0  0  0  0  0  0  0  0  0
    9.7043   -0.4021   -0.2646 H   0  0  0  0  0  0  0  0  0  0  0  0
    7.2445    0.1629    0.3145 H   0  0  0  0  0  0  0  0  0  0  0  0
    8.2095   -0.9328    1.3361 H   0  0  0  0  0  0  0  0  0  0  0  0
    1.1953   -0.0858   -1.2589 H   0  0  0  0  0  0  0  0  0  0  0  0
   -2.8822    3.2554    2.7934 H   0  0  0  0  0  0  0  0  0  0  0  0
   -4.7991    4.5468    3.7280 H   0  0  0  0  0  0  0  0  0  0  0  0
   -6.7091    5.1346    2.3148 H   0  0  0  0  0  0  0  0  0  0  0  0
   -4.9191    3.2804   -0.9836 H   0  0  0  0  0  0  0  0  0  0  0  0
  1  2  1  0
  2  3  1  0
  2  4  1  0
  2  5  1  0
  5  6  1  0
  6  7  2  0
  6  8  1  0
  8  9  1  0
  9 10  1  0
 10 11  2  0
 11 12  1  0
 12 13  2  0
 13 14  1  0
 14 15  2  0
 15 16  1  0
 16 17  1  0
 17 18  1  0
 18 19  1  0
 19 20  1  0
 20 21  1  0
 21 22  1  0
 22 23  1  0
 23 24  1  0
 24 25  1  0
 15 26  1  0
 26 27  2  0
 27 28  1  0
 28 29  2  0
 10 30  1  0
 30 31  2  0
 31 32  1  0
 32 33  2  0
 33 34  1  0
 34 35  1  0
 34 36  2  0
 28  9  1  0
 36 30  1  0
 27 12  1  0
 25 20  1  0
  1 37  1  0
  1 38  1  0
  1 39  1  0
  3 40  1  0
  3 41  1  0
  3 42  1  0
  4 43  1  0
  4 44  1  0
  4 45  1  0
  8 46  1  0
  8 47  1  0
 13 48  1  0
 14 49  1  0
 17 50  1  0
 17 51  1  0
 18 52  1  0
 18 53  1  0
 19 54  1  0
 19 55  1  0
 21 56  1  0
 21 57  1  0
 22 58  1  0
 22 59  1  0
 24 60  1  0
 24 61  1  0
 25 62  1  0
 25 63  1  0
 26 64  1  0
 31 65  1  0
 32 66  1  0
 33 67  1  0
 36 68  1  0
M  END
$$$$
[H]Oc1c([H])c([H])c(-c2nn3c(Cl)c([H])nc3c([H])c2[C@@]([H])(N([H])c2nc([H])nc3c2c(C([H])([H])[H])c([H])n3[H])C([H])([H])[H])c([H])c1[H]
     RDKit          3D

 48 52  0  0  0  0  0  0  0  0999 V2000
    0.1633   -0.0053   -2.1146 C   0  0  0  0  0  0  0  0  0  0  0  0
   -0.2726    0.2222   -0.7271 C   0  0  2  0  0  0  0  0  0  0  0  0
    1.0425    0.6139   -0.0528 N   0  0  0  0  0  0  0  0  0  0  0  0
    2.2530    0.0306   -0.4588 C   0  0  0  0  0  0  0  0  0  0  0  0
    2.3717   -1.0052   -1.3181 N   0  0  0  0  0  0  0  0  0  0  0  0
    3.4993   -1.6111   -1.6794 C   0  0  0  0  0  0  0  0  0  0  0  0
    4.6826   -1.2115   -1.1855 N   0  0  0  0  0  0  0  0  0  0  0  0
    4.6680   -0.1744   -0.3123 C   0  0  0  0  0  0  0  0  0  0  0  0
    5.6981    0.4453    0.3127 N   0  0  0  0  0  0  0  0  0  0  0  0
    5.2410    1.4380    1.0625 C   0  0  0  0  0  0  0  0  0  0  0  0
    3.8563    1.4551    0.9128 C   0  0  0  0  0  0  0  0  0  0  0  0
    2.9987    2.4500    1.6038 C   0  0  0  0  0  0  0  0  0  0  0  0
    3.4932    0.4452    0.0544 C   0  0  0  0  0  0  0  0  0  0  0  0
   -0.8647   -0.7708    0.1102 C   0  0  0  0  0  0  0  0  0  0  0  0
   -0.2110   -1.8219    0.6518 C   0  0  0  0  0  0  0  0  0  0  0  0
   -0.8273   -2.6625    1.5949 C   0  0  0  0  0  0  0  0  0  0  0  0
   -0.3427   -3.7769    2.2322 N   0  0  0  0  0  0  0  0  0  0  0  0
   -1.3134   -4.2687    3.0435 C   0  0  0  0  0  0  0  0  0  0  0  0
   -2.3874   -3.4235    2.8748 C   0  0  0  0  0  0  0  0  0  0  0  0
   -3.9486   -3.5844    3.6726 Cl  0  0  0  0  0  0  0  0  0  0  0  0
   -2.0902   -2.4550    1.9996 N   0  0  0  0  0  0  0  0  0  0  0  0
   -2.7363   -1.4389    1.4818 N   0  0  0  0  0  0  0  0  0  0  0  0
   -2.2227   -0.6074    0.5842 C   0  0  0  0  0  0  0  0  0  0  0  0
   -2.9866    0.3848   -0.1710 C   0  0  0  0  0  0  0  0  0  0  0  0
   -3.3618    1.5790    0.2710 C   0  0  0  0  0  0  0  0  0  0  0  0
   -4.0911    2.3981   -0.6073 C   0  0  0  0  0  0  0  0  0  0  0  0
   -4.4246    2.0167   -1.8757 C   0  0  0  0  0  0  0  0  0  0  0  0
   -5.1355    2.7702   -2.7861 O   0  0  0  0  0  0  0  0  0  0  0  0
   -4.0106    0.7512   -2.2906 C   0  0  0  0  0  0  0  0  0  0  0  0
   -3.3076   -0.0341   -1.4443 C   0  0  0  0  0  0  0  0  0  0  0  0
    0.2803   -1.0173   -2.4739 H   0  0  0  0  0  0  0  0  0  0  0  0
   -0.6110    0.5231   -2.8406 H   0  0  0  0  0  0  0  0  0  0  0  0
    1.0388    0.6074   -2.3683 H   0  0  0  0  0  0  0  0  0  0  0  0
   -0.8890    1.1575   -0.7152 H   0  0  0  0  0  0  0  0  0  0  0  0
    0.9676    1.2797    0.7067 H   0  0  0  0  0  0  0  0  0  0  0  0
    3.5149   -2.4458   -2.3819 H   0  0  0  0  0  0  0  0  0  0  0  0
    6.6974    0.1402    0.1889 H   0  0  0  0  0  0  0  0  0  0  0  0
    5.8285    2.1208    1.6831 H   0  0  0  0  0  0  0  0  0  0  0  0
    3.6721    3.2472    2.0250 H   0  0  0  0  0  0  0  0  0  0  0  0
    2.3632    2.9568    0.8695 H   0  0  0  0  0  0  0  0  0  0  0  0
    2.4271    2.0227    2.4257 H   0  0  0  0  0  0  0  0  0  0  0  0
    0.8010   -2.1196    0.4531 H   0  0  0  0  0  0  0  0  0  0  0  0
   -1.2043   -5.1355    3.6494 H   0  0  0  0  0  0  0  0  0  0  0  0
   -3.1504    1.9819    1.2640 H   0  0  0  0  0  0  0  0  0  0  0  0
   -4.4120    3.3946   -0.2486 H   0  0  0  0  0  0  0  0  0  0  0  0
   -5.4660    3.6966   -2.5877 H   0  0  0  0  0  0  0  0  0  0  0  0
   -4.2839    0.4466   -3.3066 H   0  0  0  0  0  0  0  0  0  0  0  0
   -3.0072   -1.0059   -1.7820 H   0  0  0  0  0  0  0  0  0  0  0  0
  1  2  1  0
  2  3  1  0
  3  4  1  0
  4  5  2  0
  5  6  1  0
  6  7  2  0
  7  8  1  0
  8  9  1  0
  9 10  1  0
 10 11  2  0
 11 12  1  0
 11 13  1  0
  2 14  1  0
 14 15  2  0
 15 16  1  0
 16 17  2  0
 17 18  1  0
 18 19  2  0
 19 20  1  0
 19 21  1  0
 21 22  1  0
 22 23  2  0
 23 24  1  0
 24 25  2  0
 25 26  1  0
 26 27  2  0
 27 28  1  0
 27 29  1  0
 29 30  2  0
 13  4  1  0
 23 14  1  0
 30 24  1  0
 13  8  2  0
 21 16  1  0
  1 31  1  0
  1 32  1  0
  1 33  1  0
  2 34  1  6
  3 35  1  0
  6 36  1  0
  9 37  1  0
 10 38  1  0
 12 39  1  0
 12 40  1  0
 12 41  1  0
 15 42  1  0
 18 43  1  0
 25 44  1  0
 26 45  1  0
 28 46  1  0
 29 47  1  0
 30 48  1  0
M  END
$$$$
[H]N=C(c1c([H])c([H])c([H])c(C2([H])N=C(N3C([H])([H])C([H])([H])N(C([H])([H])[H])C([H])([H])C3([H])[H])c3sc([H])c([H])c3-c3c([H])c([H])c([H])c([H])c32)c1[H])N([H])[H]
     RDKit          3D

 55 59  0  0  0  0  0  0  0  0999 V2000
   -5.7683    1.5553    0.8228 C   0  0  0  0  0  0  0  0  0  0  0  0
   -4.4466    1.6979    1.4254 N   0  0  0  0  0  0  0  0  0  0  0  0
   -3.5672    2.3386    0.4766 C   0  0  0  0  0  0  0  0  0  0  0  0
   -2.9436    1.3537   -0.4830 C   0  0  0  0  0  0  0  0  0  0  0  0
   -2.1801    0.3731    0.2773 N   0  0  0  0  0  0  0  0  0  0  0  0
   -2.5098    0.1983    1.6647 C   0  0  0  0  0  0  0  0  0  0  0  0
   -4.0042    0.3875    1.8173 C   0  0  0  0  0  0  0  0  0  0  0  0
   -1.1710   -0.3324   -0.4113 C   0  0  0  0  0  0  0  0  0  0  0  0
   -0.0126    0.1908   -0.6305 N   0  0  0  0  0  0  0  0  0  0  0  0
    1.1692   -0.3529   -1.3185 C   0  0  0  0  0  0  0  0  0  0  0  0
    1.5101   -1.7300   -0.9170 C   0  0  0  0  0  0  0  0  0  0  0  0
    2.8400   -1.9407   -0.6493 C   0  0  0  0  0  0  0  0  0  0  0  0
    3.2747   -3.1908   -0.2715 C   0  0  0  0  0  0  0  0  0  0  0  0
    2.4366   -4.2732   -0.1412 C   0  0  0  0  0  0  0  0  0  0  0  0
    1.0969   -4.0511   -0.4129 C   0  0  0  0  0  0  0  0  0  0  0  0
    0.6408   -2.8065   -0.7932 C   0  0  0  0  0  0  0  0  0  0  0  0
   -0.8405   -2.8218   -1.0172 C   0  0  0  0  0  0  0  0  0  0  0  0
   -1.4949   -3.9415   -1.4072 C   0  0  0  0  0  0  0  0  0  0  0  0
   -2.8565   -3.8396   -1.5694 C   0  0  0  0  0  0  0  0  0  0  0  0
   -3.1774   -2.2118   -1.1806 S   0  0  0  0  0  0  0  0  0  0  0  0
   -1.5975   -1.6959   -0.8235 C   0  0  0  0  0  0  0  0  0  0  0  0
    2.2497    0.6206   -1.1816 C   0  0  0  0  0  0  0  0  0  0  0  0
    3.0274    0.9727   -2.2753 C   0  0  0  0  0  0  0  0  0  0  0  0
    4.0467    1.8885   -2.1791 C   0  0  0  0  0  0  0  0  0  0  0  0
    4.3361    2.4952   -0.9841 C   0  0  0  0  0  0  0  0  0  0  0  0
    3.5729    2.1627    0.1328 C   0  0  0  0  0  0  0  0  0  0  0  0
    2.5491    1.2355    0.0115 C   0  0  0  0  0  0  0  0  0  0  0  0
    3.8738    2.8028    1.4063 C   0  0  0  0  0  0  0  0  0  0  0  0
    4.9331    3.7426    1.4663 N   0  0  0  0  0  0  0  0  0  0  0  0
    3.2135    2.5414    2.4615 N   0  0  0  0  0  0  0  0  0  0  0  0
   -6.4510    0.9929    1.4717 H   0  0  0  0  0  0  0  0  0  0  0  0
   -6.2222    2.5276    0.5664 H   0  0  0  0  0  0  0  0  0  0  0  0
   -5.6380    1.0016   -0.1270 H   0  0  0  0  0  0  0  0  0  0  0  0
   -2.7845    2.8766    1.0060 H   0  0  0  0  0  0  0  0  0  0  0  0
   -4.1280    3.0808   -0.1412 H   0  0  0  0  0  0  0  0  0  0  0  0
   -2.2312    1.8861   -1.1222 H   0  0  0  0  0  0  0  0  0  0  0  0
   -3.7136    0.8359   -1.0528 H   0  0  0  0  0  0  0  0  0  0  0  0
   -2.0268    0.9680    2.3266 H   0  0  0  0  0  0  0  0  0  0  0  0
   -2.2713   -0.8072    2.0565 H   0  0  0  0  0  0  0  0  0  0  0  0
   -4.5491   -0.4181    1.2932 H   0  0  0  0  0  0  0  0  0  0  0  0
   -4.2373    0.2827    2.9088 H   0  0  0  0  0  0  0  0  0  0  0  0
    0.9363   -0.4349   -2.4283 H   0  0  0  0  0  0  0  0  0  0  0  0
    3.5382   -1.1131   -0.7391 H   0  0  0  0  0  0  0  0  0  0  0  0
    4.3387   -3.3095   -0.0698 H   0  0  0  0  0  0  0  0  0  0  0  0
    2.8066   -5.2547    0.1600 H   0  0  0  0  0  0  0  0  0  0  0  0
    0.4149   -4.8762   -0.3107 H   0  0  0  0  0  0  0  0  0  0  0  0
   -1.0145   -4.9369   -1.6171 H   0  0  0  0  0  0  0  0  0  0  0  0
   -3.5452   -4.6500   -1.8810 H   0  0  0  0  0  0  0  0  0  0  0  0
    2.7985    0.4902   -3.2290 H   0  0  0  0  0  0  0  0  0  0  0  0
    4.6162    2.1251   -3.0512 H   0  0  0  0  0  0  0  0  0  0  0  0
    5.1416    3.2287   -0.8751 H   0  0  0  0  0  0  0  0  0  0  0  0
    1.9955    1.0219    0.9146 H   0  0  0  0  0  0  0  0  0  0  0  0
    4.8031    4.6656    1.9380 H   0  0  0  0  0  0  0  0  0  0  0  0
    5.8373    3.4807    1.0265 H   0  0  0  0  0  0  0  0  0  0  0  0
    3.3855    2.9676    3.3925 H   0  0  0  0  0  0  0  0  0  0  0  0
  1  2  1  0
  2  3  1  0
  3  4  1  0
  4  5  1  0
  5  6  1  0
  6  7  1  0
  5  8  1  0
  8  9  2  0
  9 10  1  0
 10 11  1  0
 11 12  2  0
 12 13  1  0
 13 14  2  0
 14 15  1  0
 15 16  2  0
 16 17  1  0
 17 18  1  0
 18 19  2  0
 19 20  1  0
 20 21  1  0
 10 22  1  0
 22 23  2  0
 23 24  1  0
 24 25  2  0
 25 26  1  0
 26 27  2  0
 26 28  1  0
 28 29  1  0
 28 30  2  3
  7  2  1  0
 21  8  1  0
 27 22  1  0
 16 11  1  0
 21 17  2  0
  1 31  1  0
  1 32  1  0
  1 33  1  0
  3 34  1  0
  3 35  1  0
  4 36  1  0
  4 37  1  0
  6 38  1  0
  6 39  1  0
  7 40  1  0
  7 41  1  0
 10 42  1  0
 12 43  1  0
 13 44  1  0
 14 45  1  0
 15 46  1  0
 18 47  1  0
 19 48  1  0
 23 49  1  0
 24 50  1  0
 25 51  1  0
 27 52  1  0
 29 53  1  0
 29 54  1  0
 30 55  1  0
M  END
$$$$
[H]OC(=O)c1c([H])c([H])c(C(=O)N2C([H])([H])C([H])([H])C([H])(N([H])C(=O)N([H])C3([H])C([H])([H])C([H])([H])C([H])([H])C([H])([H])C3([H])[H])C([H])([H])C2([H])[H])c([H])c1[H]
     RDKit          3D

 54 56  0  0  0  0  0  0  0  0999 V2000
   -8.4066   -2.9535    0.1808 O   0  0  0  0  0  0  0  0  0  0  0  0
   -7.3740   -2.5339    1.0006 C   0  0  0  0  0  0  0  0  0  0  0  0
   -7.3166   -2.9868    2.1633 O   0  0  0  0  0  0  0  0  0  0  0  0
   -6.3554   -1.5918    0.5705 C   0  0  0  0  0  0  0  0  0  0  0  0
   -6.3960   -1.0831   -0.6937 C   0  0  0  0  0  0  0  0  0  0  0  0
   -5.4653   -0.1937   -1.1509 C   0  0  0  0  0  0  0  0  0  0  0  0
   -4.4048    0.2564   -0.3508 C   0  0  0  0  0  0  0  0  0  0  0  0
   -4.3734   -0.2586    0.9073 C   0  0  0  0  0  0  0  0  0  0  0  0
   -5.3341   -1.1760    1.3800 C   0  0  0  0  0  0  0  0  0  0  0  0
   -3.4491    1.1400   -0.9436 C   0  0  0  0  0  0  0  0  0  0  0  0
   -3.5099    1.2338   -2.2748 O   0  0  0  0  0  0  0  0  0  0  0  0
   -2.4802    1.9061   -0.3353 N   0  0  0  0  0  0  0  0  0  0  0  0
   -1.5774    2.6801   -1.2225 C   0  0  0  0  0  0  0  0  0  0  0  0
   -0.2977    3.0015   -0.5215 C   0  0  0  0  0  0  0  0  0  0  0  0
    0.1453    2.0571    0.5338 C   0  0  0  0  0  0  0  0  0  0  0  0
   -0.9191    1.3722    1.3173 C   0  0  0  0  0  0  0  0  0  0  0  0
   -2.2321    2.1203    1.0386 C   0  0  0  0  0  0  0  0  0  0  0  0
    0.9980    1.0133   -0.0333 N   0  0  0  0  0  0  0  0  0  0  0  0
    2.3422    0.9054    0.3942 C   0  0  0  0  0  0  0  0  0  0  0  0
    2.8296    1.6823    1.2509 O   0  0  0  0  0  0  0  0  0  0  0  0
    3.1901   -0.0951   -0.1378 N   0  0  0  0  0  0  0  0  0  0  0  0
    4.5729   -0.2473    0.2670 C   0  0  0  0  0  0  0  0  0  0  0  0
    5.5182   -0.0506   -0.8890 C   0  0  0  0  0  0  0  0  0  0  0  0
    5.7576   -1.3684   -1.5965 C   0  0  0  0  0  0  0  0  0  0  0  0
    6.5691   -2.2628   -0.6799 C   0  0  0  0  0  0  0  0  0  0  0  0
    6.1069   -2.1377    0.7563 C   0  0  0  0  0  0  0  0  0  0  0  0
    4.6894   -1.6531    0.8596 C   0  0  0  0  0  0  0  0  0  0  0  0
   -8.2222   -3.0547   -0.8108 H   0  0  0  0  0  0  0  0  0  0  0  0
   -7.1851   -1.3835   -1.3703 H   0  0  0  0  0  0  0  0  0  0  0  0
   -5.5592    0.1805   -2.1836 H   0  0  0  0  0  0  0  0  0  0  0  0
   -3.6160   -0.0523    1.6315 H   0  0  0  0  0  0  0  0  0  0  0  0
   -5.2975   -1.5759    2.3821 H   0  0  0  0  0  0  0  0  0  0  0  0
   -1.3649    2.0784   -2.1212 H   0  0  0  0  0  0  0  0  0  0  0  0
   -2.1560    3.5636   -1.5355 H   0  0  0  0  0  0  0  0  0  0  0  0
   -0.4139    4.0098   -0.0682 H   0  0  0  0  0  0  0  0  0  0  0  0
    0.5228    3.1272   -1.2876 H   0  0  0  0  0  0  0  0  0  0  0  0
    0.7607    2.6506    1.2785 H   0  0  0  0  0  0  0  0  0  0  0  0
   -0.6910    1.3436    2.3800 H   0  0  0  0  0  0  0  0  0  0  0  0
   -1.0906    0.3519    0.8899 H   0  0  0  0  0  0  0  0  0  0  0  0
   -1.8795    3.2273    1.1367 H   0  0  0  0  0  0  0  0  0  0  0  0
   -3.0110    1.9650    1.7634 H   0  0  0  0  0  0  0  0  0  0  0  0
    0.5676    0.3865   -0.7389 H   0  0  0  0  0  0  0  0  0  0  0  0
    2.8210   -0.7570   -0.8501 H   0  0  0  0  0  0  0  0  0  0  0  0
    4.8549    0.5185    1.0359 H   0  0  0  0  0  0  0  0  0  0  0  0
    5.0586    0.6938   -1.5764 H   0  0  0  0  0  0  0  0  0  0  0  0
    6.4934    0.2995   -0.4950 H   0  0  0  0  0  0  0  0  0  0  0  0
    4.8303   -1.8814   -1.8638 H   0  0  0  0  0  0  0  0  0  0  0  0
    6.3046   -1.1577   -2.5298 H   0  0  0  0  0  0  0  0  0  0  0  0
    6.5109   -3.3061   -1.0164 H   0  0  0  0  0  0  0  0  0  0  0  0
    7.6303   -1.9274   -0.6960 H   0  0  0  0  0  0  0  0  0  0  0  0
    6.7393   -1.4216    1.3381 H   0  0  0  0  0  0  0  0  0  0  0  0
    6.1617   -3.1408    1.2121 H   0  0  0  0  0  0  0  0  0  0  0  0
    4.4310   -1.5615    1.9207 H   0  0  0  0  0  0  0  0  0  0  0  0
    3.9721   -2.3487    0.3841 H   0  0  0  0  0  0  0  0  0  0  0  0
  1  2  1  0
  2  3  2  0
  2  4  1  0
  4  5  2  0
  5  6  1  0
  6  7  2  0
  7  8  1  0
  8  9  2  0
  7 10  1  0
 10 11  2  0
 10 12  1  0
 12 13  1  0
 13 14  1  0
 14 15  1  0
 15 16  1  0
 16 17  1  0
 15 18  1  0
 18 19  1  0
 19 20  2  0
 19 21  1  0
 21 22  1  0
 22 23  1  0
 23 24  1  0
 24 25  1  0
 25 26  1  0
 26 27  1  0
  9  4  1  0
 17 12  1  0
 27 22  1  0
  1 28  1  0
  5 29  1  0
  6 30  1  0
  8 31  1  0
  9 32  1  0
 13 33  1  0
 13 34  1  0
 14 35  1  0
 14 36  1  0
 15 37  1  0
 16 38  1  0
 16 39  1  0
 17 40  1  0
 17 41  1  0
 18 42  1  0
 21 43  1  0
 22 44  1  0
 23 45  1  0
 23 46  1  0
 24 47  1  0
 24 48  1  0
 25 49  1  0
 25 50  1  0
 26 51  1  0
 26 52  1  0
 27 53  1  0
 27 54  1  0
M  END
$$$$
[H]OC(=O)C([H])([H])S(=O)(=O)N(C([H])([H])[H])C([H])([H])C([H])(c1c([H])c([H])c(Cl)c(Cl)c1[H])C([H])([H])C([H])([H])N1C([H])([H])C([H])([H])C([H])(N2c3c([H])c([H])c([H])c([H])c3C([H])([H])C([H])([H])c3c([H])c([H])c([H])c([H])c3C2([H])[H])C([H])([H])C1([H])[H]
     RDKit          3D

 82 86  0  0  0  0  0  0  0  0999 V2000
    4.4865    1.2250    2.2376 C   0  0  0  0  0  0  0  0  0  0  0  0
    4.9444    0.6774    0.9966 N   0  0  0  0  0  0  0  0  0  0  0  0
    4.1416   -0.3218    0.4042 C   0  0  0  0  0  0  0  0  0  0  0  0
    3.2891    0.2249   -0.7037 C   0  0  0  0  0  0  0  0  0  0  0  0
    2.4161   -0.8296   -1.3345 C   0  0  0  0  0  0  0  0  0  0  0  0
    1.4596   -1.4429   -0.3354 C   0  0  0  0  0  0  0  0  0  0  0  0
    0.5520   -0.4917    0.2659 N   0  0  0  0  0  0  0  0  0  0  0  0
   -0.1283   -1.2376    1.3281 C   0  0  0  0  0  0  0  0  0  0  0  0
   -1.5336   -0.6261    1.4483 C   0  0  0  0  0  0  0  0  0  0  0  0
   -2.4290   -1.4108    0.4252 C   0  0  0  0  0  0  0  0  0  0  0  0
   -1.5841   -1.0982   -0.7820 C   0  0  0  0  0  0  0  0  0  0  0  0
   -0.4843   -0.1168   -0.6473 C   0  0  0  0  0  0  0  0  0  0  0  0
   -3.6681   -0.7710    0.5779 N   0  0  0  0  0  0  0  0  0  0  0  0
   -4.0022   -0.1935    1.8956 C   0  0  0  0  0  0  0  0  0  0  0  0
   -5.3388    0.3998    1.9503 C   0  0  0  0  0  0  0  0  0  0  0  0
   -5.9505   -0.1439    3.0425 C   0  0  0  0  0  0  0  0  0  0  0  0
   -7.2576    0.2099    3.3938 C   0  0  0  0  0  0  0  0  0  0  0  0
   -7.9350    1.1238    2.6200 C   0  0  0  0  0  0  0  0  0  0  0  0
   -7.3128    1.6645    1.5244 C   0  0  0  0  0  0  0  0  0  0  0  0
   -6.0300    1.3090    1.1907 C   0  0  0  0  0  0  0  0  0  0  0  0
   -5.6553    2.0761   -0.0554 C   0  0  0  0  0  0  0  0  0  0  0  0
   -5.8967    1.2791   -1.2856 C   0  0  0  0  0  0  0  0  0  0  0  0
   -5.3374   -0.0604   -1.3393 C   0  0  0  0  0  0  0  0  0  0  0  0
   -5.9118   -0.5980   -2.4957 C   0  0  0  0  0  0  0  0  0  0  0  0
   -5.6301   -1.8784   -2.9188 C   0  0  0  0  0  0  0  0  0  0  0  0
   -4.7618   -2.6513   -2.1876 C   0  0  0  0  0  0  0  0  0  0  0  0
   -4.2012   -2.1209   -1.0549 C   0  0  0  0  0  0  0  0  0  0  0  0
   -4.4664   -0.8163   -0.5923 C   0  0  0  0  0  0  0  0  0  0  0  0
    4.0773    0.8819   -1.7614 C   0  0  0  0  0  0  0  0  0  0  0  0
    4.5167    0.1768   -2.8875 C   0  0  0  0  0  0  0  0  0  0  0  0
    5.2418    0.8433   -3.8491 C   0  0  0  0  0  0  0  0  0  0  0  0
    5.5138    2.1825   -3.6748 C   0  0  0  0  0  0  0  0  0  0  0  0
    6.4363    3.0582   -4.8865 Cl  0  0  0  0  0  0  0  0  0  0  0  0
    5.0814    2.8714   -2.5672 C   0  0  0  0  0  0  0  0  0  0  0  0
    5.4519    4.5892   -2.3821 Cl  0  0  0  0  0  0  0  0  0  0  0  0
    4.3651    2.2274   -1.6116 C   0  0  0  0  0  0  0  0  0  0  0  0
    6.6217    0.5614    0.8571 S   0  0  0  0  0  0  0  0  0  0  0  0
    7.0687    0.0488   -0.4506 O   0  0  0  0  0  0  0  0  0  0  0  0
    7.1953    1.9505    1.1234 O   0  0  0  0  0  0  0  0  0  0  0  0
    7.2942   -0.5331    2.1242 C   0  0  0  0  0  0  0  0  0  0  0  0
    8.7472   -0.6013    1.9558 C   0  0  0  0  0  0  0  0  0  0  0  0
    9.2731   -1.5942    1.1194 O   0  0  0  0  0  0  0  0  0  0  0  0
    9.5738    0.1827    2.5191 O   0  0  0  0  0  0  0  0  0  0  0  0
    5.0474    2.1911    2.3883 H   0  0  0  0  0  0  0  0  0  0  0  0
    3.4064    1.4723    2.1787 H   0  0  0  0  0  0  0  0  0  0  0  0
    4.7333    0.5386    3.0898 H   0  0  0  0  0  0  0  0  0  0  0  0
    4.7839   -1.1353   -0.0391 H   0  0  0  0  0  0  0  0  0  0  0  0
    3.5179   -0.8679    1.1600 H   0  0  0  0  0  0  0  0  0  0  0  0
    2.6214    1.0089   -0.1913 H   0  0  0  0  0  0  0  0  0  0  0  0
    3.0929   -1.6301   -1.7114 H   0  0  0  0  0  0  0  0  0  0  0  0
    1.8722   -0.4309   -2.1732 H   0  0  0  0  0  0  0  0  0  0  0  0
    0.8940   -2.2452   -0.8920 H   0  0  0  0  0  0  0  0  0  0  0  0
    2.0647   -2.0059    0.4029 H   0  0  0  0  0  0  0  0  0  0  0  0
   -0.2218   -2.3132    1.0550 H   0  0  0  0  0  0  0  0  0  0  0  0
    0.4350   -1.1233    2.2526 H   0  0  0  0  0  0  0  0  0  0  0  0
   -1.4983    0.4159    1.2159 H   0  0  0  0  0  0  0  0  0  0  0  0
   -1.8253   -0.8228    2.4758 H   0  0  0  0  0  0  0  0  0  0  0  0
   -2.2214   -2.3819    0.9175 H   0  0  0  0  0  0  0  0  0  0  0  0
   -2.1333   -0.7966   -1.6935 H   0  0  0  0  0  0  0  0  0  0  0  0
   -1.1142   -2.0917   -1.0652 H   0  0  0  0  0  0  0  0  0  0  0  0
    0.0080   -0.1122   -1.6766 H   0  0  0  0  0  0  0  0  0  0  0  0
   -0.8195    0.9408   -0.5626 H   0  0  0  0  0  0  0  0  0  0  0  0
   -3.9315   -0.9125    2.7176 H   0  0  0  0  0  0  0  0  0  0  0  0
   -3.2876    0.6772    2.0586 H   0  0  0  0  0  0  0  0  0  0  0  0
   -5.4681   -0.8720    3.6986 H   0  0  0  0  0  0  0  0  0  0  0  0
   -7.7744   -0.1987    4.2497 H   0  0  0  0  0  0  0  0  0  0  0  0
   -8.9592    1.3979    2.9002 H   0  0  0  0  0  0  0  0  0  0  0  0
   -7.8335    2.3951    0.8928 H   0  0  0  0  0  0  0  0  0  0  0  0
   -4.6008    2.4014    0.0904 H   0  0  0  0  0  0  0  0  0  0  0  0
   -6.2731    3.0053   -0.0116 H   0  0  0  0  0  0  0  0  0  0  0  0
   -5.5614    1.9192   -2.1548 H   0  0  0  0  0  0  0  0  0  0  0  0
   -7.0222    1.2433   -1.4198 H   0  0  0  0  0  0  0  0  0  0  0  0
   -6.5889    0.0465   -3.0407 H   0  0  0  0  0  0  0  0  0  0  0  0
   -6.1076   -2.2324   -3.8200 H   0  0  0  0  0  0  0  0  0  0  0  0
   -4.5166   -3.6612   -2.4868 H   0  0  0  0  0  0  0  0  0  0  0  0
   -3.5348   -2.6997   -0.4885 H   0  0  0  0  0  0  0  0  0  0  0  0
    4.3220   -0.8552   -3.0463 H   0  0  0  0  0  0  0  0  0  0  0  0
    5.5908    0.3003   -4.7365 H   0  0  0  0  0  0  0  0  0  0  0  0
    4.0003    2.7279   -0.7205 H   0  0  0  0  0  0  0  0  0  0  0  0
    7.0347   -0.1224    3.1065 H   0  0  0  0  0  0  0  0  0  0  0  0
    6.8466   -1.5422    1.9228 H   0  0  0  0  0  0  0  0  0  0  0  0
    8.7894   -1.8543    0.2572 H   0  0  0  0  0  0  0  0  0  0  0  0
  1  2  1  0
  2  3  1  0
  3  4  1  0
  4  5  1  0
  5  6  1  0
  6  7  1  0
  7  8  1  0
  8  9  1  0
  9 10  1  0
 10 11  1  0
 11 12  1  0
 10 13  1  0
 13 14  1  0
 14 15  1  0
 15 16  2  0
 16 17  1  0
 17 18  2  0
 18 19  1  0
 19 20  2  0
 20 21  1  0
 21 22  1  0
 22 23  1  0
 23 24  2  0
 24 25  1  0
 25 26  2  0
 26 27  1  0
 27 28  2  0
  4 29  1  0
 29 30  2  0
 30 31  1  0
 31 32  2  0
 32 33  1  0
 32 34  1  0
 34 35  1  0
 34 36  2  0
  2 37  1  0
 37 38  2  0
 37 39  2  0
 37 40  1  0
 40 41  1  0
 41 42  1  0
 41 43  2  0
 12  7  1  0
 28 13  1  0
 36 29  1  0
 20 15  1  0
 28 23  1  0
  1 44  1  0
  1 45  1  0
  1 46  1  0
  3 47  1  0
  3 48  1  0
  4 49  1  0
  5 50  1  0
  5 51  1  0
  6 52  1  0
  6 53  1  0
  8 54  1  0
  8 55  1  0
  9 56  1  0
  9 57  1  0
 10 58  1  0
 11 59  1  0
 11 60  1  0
 12 61  1  0
 12 62  1  0
 14 63  1  0
 14 64  1  0
 16 65  1  0
 17 66  1  0
 18 67  1  0
 19 68  1  0
 21 69  1  0
 21 70  1  0
 22 71  1  0
 22 72  1  0
 24 73  1  0
 25 74  1  0
 26 75  1  0
 27 76  1  0
 30 77  1  0
 31 78  1  0
 36 79  1  0
 40 80  1  0
 40 81  1  0
 42 82  1  0
M  END
$$$$
[H]N=C(c1c([H])c([H])c([H])c(C([H])([H])[C@@]([H])(C(=O)N2[C@@]([H])(C([H])([H])[H])C([H])([H])C([H])([H])C([H])([H])[C@]2([H])C([H])([H])[H])N([H])S(=O)(=O)c2c([H])c([H])c([H])c([H])c2[H])c1[H])N([H])[H]
     RDKit          3D

 61 63  0  0  0  0  0  0  0  0999 V2000
   -3.0558    0.3277   -0.4140 C   0  0  0  0  0  0  0  0  0  0  0  0
   -2.6019   -1.0850   -0.4193 C   0  0  1  0  0  0  0  0  0  0  0  0
   -2.2440   -1.5692   -1.8059 C   0  0  0  0  0  0  0  0  0  0  0  0
   -2.0316   -3.0638   -1.7002 C   0  0  0  0  0  0  0  0  0  0  0  0
   -2.2226   -3.6227   -0.3325 C   0  0  0  0  0  0  0  0  0  0  0  0
   -1.5300   -2.9105    0.7774 C   0  0  2  0  0  0  0  0  0  0  0  0
   -2.3025   -3.1368    2.0597 C   0  0  0  0  0  0  0  0  0  0  0  0
   -1.5254   -1.4428    0.4575 N   0  0  0  0  0  0  0  0  0  0  0  0
   -0.5112   -0.6560    1.0044 C   0  0  0  0  0  0  0  0  0  0  0  0
    0.2724   -1.2842    1.8254 O   0  0  0  0  0  0  0  0  0  0  0  0
   -0.1929    0.7513    0.8031 C   0  0  2  0  0  0  0  0  0  0  0  0
    0.5123    0.9983   -0.5357 C   0  0  0  0  0  0  0  0  0  0  0  0
    1.7987    0.2552   -0.6206 C   0  0  0  0  0  0  0  0  0  0  0  0
    2.9555    0.8593   -0.1820 C   0  0  0  0  0  0  0  0  0  0  0  0
    4.1738    0.2305   -0.2316 C   0  0  0  0  0  0  0  0  0  0  0  0
    4.2288   -1.0661   -0.7468 C   0  0  0  0  0  0  0  0  0  0  0  0
    3.0920   -1.7000   -1.1942 C   0  0  0  0  0  0  0  0  0  0  0  0
    1.8664   -1.0165   -1.1235 C   0  0  0  0  0  0  0  0  0  0  0  0
    3.1799   -3.0362   -1.7200 C   0  0  0  0  0  0  0  0  0  0  0  0
    1.9415   -3.6392   -2.1736 N   0  0  0  0  0  0  0  0  0  0  0  0
    4.2663   -3.6661   -1.7914 N   0  0  0  0  0  0  0  0  0  0  0  0
    0.8217    1.1598    1.7894 N   0  0  0  0  0  0  0  0  0  0  0  0
    0.3358    2.5787    2.6420 S   0  0  0  0  0  0  0  0  0  0  0  0
   -0.9284    2.3458    3.4115 O   0  0  0  0  0  0  0  0  0  0  0  0
    1.4161    2.9061    3.6189 O   0  0  0  0  0  0  0  0  0  0  0  0
    0.1318    3.9359    1.5669 C   0  0  0  0  0  0  0  0  0  0  0  0
   -1.0609    4.2644    0.9603 C   0  0  0  0  0  0  0  0  0  0  0  0
   -1.1763    5.3543    0.1094 C   0  0  0  0  0  0  0  0  0  0  0  0
   -0.0864    6.1552   -0.1605 C   0  0  0  0  0  0  0  0  0  0  0  0
    1.1094    5.8381    0.4385 C   0  0  0  0  0  0  0  0  0  0  0  0
    1.2174    4.7531    1.2835 C   0  0  0  0  0  0  0  0  0  0  0  0
   -2.5239    1.0220   -1.0701 H   0  0  0  0  0  0  0  0  0  0  0  0
   -4.1126    0.3011   -0.8513 H   0  0  0  0  0  0  0  0  0  0  0  0
   -3.2481    0.7200    0.6207 H   0  0  0  0  0  0  0  0  0  0  0  0
   -3.4919   -1.7185   -0.0496 H   0  0  0  0  0  0  0  0  0  0  0  0
   -1.2845   -1.1310   -2.1082 H   0  0  0  0  0  0  0  0  0  0  0  0
   -3.0862   -1.2951   -2.4720 H   0  0  0  0  0  0  0  0  0  0  0  0
   -1.0859   -3.3752   -2.1543 H   0  0  0  0  0  0  0  0  0  0  0  0
   -2.8407   -3.5251   -2.3425 H   0  0  0  0  0  0  0  0  0  0  0  0
   -3.2943   -3.7458   -0.0599 H   0  0  0  0  0  0  0  0  0  0  0  0
   -1.7921   -4.6679   -0.3589 H   0  0  0  0  0  0  0  0  0  0  0  0
   -0.4783   -3.2302    0.9025 H   0  0  0  0  0  0  0  0  0  0  0  0
   -3.2336   -3.7331    1.8724 H   0  0  0  0  0  0  0  0  0  0  0  0
   -2.6323   -2.1918    2.5306 H   0  0  0  0  0  0  0  0  0  0  0  0
   -1.6866   -3.7563    2.7555 H   0  0  0  0  0  0  0  0  0  0  0  0
   -1.0268    1.4547    0.8556 H   0  0  0  0  0  0  0  0  0  0  0  0
   -0.1298    0.8047   -1.3905 H   0  0  0  0  0  0  0  0  0  0  0  0
    0.7674    2.0856   -0.5707 H   0  0  0  0  0  0  0  0  0  0  0  0
    2.9373    1.8848    0.2297 H   0  0  0  0  0  0  0  0  0  0  0  0
    5.0839    0.7218    0.1201 H   0  0  0  0  0  0  0  0  0  0  0  0
    5.2222   -1.5303   -0.7677 H   0  0  0  0  0  0  0  0  0  0  0  0
    0.9818   -1.5496   -1.4873 H   0  0  0  0  0  0  0  0  0  0  0  0
    1.6826   -4.6157   -1.9090 H   0  0  0  0  0  0  0  0  0  0  0  0
    1.2728   -3.1197   -2.7759 H   0  0  0  0  0  0  0  0  0  0  0  0
    5.1921   -3.3505   -1.5073 H   0  0  0  0  0  0  0  0  0  0  0  0
    1.0432    0.4369    2.4750 H   0  0  0  0  0  0  0  0  0  0  0  0
   -1.9265    3.6493    1.1608 H   0  0  0  0  0  0  0  0  0  0  0  0
   -2.1048    5.6249   -0.3740 H   0  0  0  0  0  0  0  0  0  0  0  0
   -0.1976    7.0092   -0.8335 H   0  0  0  0  0  0  0  0  0  0  0  0
    1.9639    6.4835    0.2139 H   0  0  0  0  0  0  0  0  0  0  0  0
    2.1795    4.5185    1.7500 H   0  0  0  0  0  0  0  0  0  0  0  0
  1  2  1  0
  2  3  1  0
  3  4  1  0
  4  5  1  0
  5  6  1  0
  6  7  1  0
  6  8  1  0
  8  9  1  0
  9 10  2  0
  9 11  1  0
 11 12  1  0
 12 13  1  0
 13 14  2  0
 14 15  1  0
 15 16  2  0
 16 17  1  0
 17 18  2  0
 17 19  1  0
 19 20  1  0
 19 21  2  3
 11 22  1  0
 22 23  1  0
 23 24  2  0
 23 25  2  0
 23 26  1  0
 26 27  2  0
 27 28  1  0
 28 29  2  0
 29 30  1  0
 30 31  2  0
  8  2  1  0
 18 13  1  0
 31 26  1  0
  1 32  1  0
  1 33  1  0
  1 34  1  0
  2 35  1  1
  3 36  1  0
  3 37  1  0
  4 38  1  0
  4 39  1  0
  5 40  1  0
  5 41  1  0
  6 42  1  1
  7 43  1  0
  7 44  1  0
  7 45  1  0
 11 46  1  6
 12 47  1  0
 12 48  1  0
 14 49  1  0
 15 50  1  0
 16 51  1  0
 18 52  1  0
 20 53  1  0
 20 54  1  0
 21 55  1  0
 22 56  1  0
 27 57  1  0
 28 58  1  0
 29 59  1  0
 30 60  1  0
 31 61  1  0
M  END
$$$$
[H]OC([H])([H])[C@@]1(O[H])C([H])([H])[C@@]2([H])O[C@]1(C([H])([H])[H])n1c3c([H])c([H])c([H])c([H])c3c3c4c(c5c6c([H])c([H])c([H])c([H])c6n2c5c31)C(=O)N([H])C4([H])[H]
     RDKit          3D

 54 61  0  0  0  0  0  0  0  0999 V2000
    3.1800    0.8838    1.3878 C   0  0  0  0  0  0  0  0  0  0  0  0
    2.1176    0.2237    0.5774 C   0  0  2  0  0  0  0  0  0  0  0  0
    1.6968   -0.7870    1.4854 O   0  0  0  0  0  0  0  0  0  0  0  0
    1.2511   -1.8639    0.7986 C   0  0  2  0  0  0  0  0  0  0  0  0
    2.0328   -1.9517   -0.4419 C   0  0  0  0  0  0  0  0  0  0  0  0
    2.6347   -0.5714   -0.5849 C   0  0  1  0  0  0  0  0  0  0  0  0
    2.2138   -0.0799   -1.8115 O   0  0  0  0  0  0  0  0  0  0  0  0
    4.1191   -0.7109   -0.6110 C   0  0  0  0  0  0  0  0  0  0  0  0
    4.4589   -1.5975   -1.6334 O   0  0  0  0  0  0  0  0  0  0  0  0
   -0.2014   -1.7853    0.5955 N   0  0  0  0  0  0  0  0  0  0  0  0
   -1.1044   -2.7499    0.6347 C   0  0  0  0  0  0  0  0  0  0  0  0
   -0.9179   -4.0868    0.8734 C   0  0  0  0  0  0  0  0  0  0  0  0
   -2.0299   -4.9199    0.8648 C   0  0  0  0  0  0  0  0  0  0  0  0
   -3.2823   -4.4161    0.6235 C   0  0  0  0  0  0  0  0  0  0  0  0
   -3.4758   -3.0511    0.3794 C   0  0  0  0  0  0  0  0  0  0  0  0
   -2.3768   -2.2421    0.3902 C   0  0  0  0  0  0  0  0  0  0  0  0
   -2.2053   -0.8905    0.1945 C   0  0  0  0  0  0  0  0  0  0  0  0
   -3.0670    0.1511   -0.0975 C   0  0  0  0  0  0  0  0  0  0  0  0
   -4.5001    0.2660   -0.2996 C   0  0  0  0  0  0  0  0  0  0  0  0
   -5.3884   -0.5871   -0.2658 O   0  0  0  0  0  0  0  0  0  0  0  0
   -4.7851    1.6416   -0.5724 N   0  0  0  0  0  0  0  0  0  0  0  0
   -3.5735    2.4248   -0.5610 C   0  0  0  0  0  0  0  0  0  0  0  0
   -2.5314    1.4168   -0.2472 C   0  0  0  0  0  0  0  0  0  0  0  0
   -1.1701    1.6669   -0.1133 C   0  0  0  0  0  0  0  0  0  0  0  0
   -0.3770    2.7657   -0.2198 C   0  0  0  0  0  0  0  0  0  0  0  0
   -0.7006    4.0705   -0.5126 C   0  0  0  0  0  0  0  0  0  0  0  0
    0.3203    5.0230   -0.5829 C   0  0  0  0  0  0  0  0  0  0  0  0
    1.6233    4.6180   -0.3553 C   0  0  0  0  0  0  0  0  0  0  0  0
    1.9232    3.2989   -0.0625 C   0  0  0  0  0  0  0  0  0  0  0  0
    0.9354    2.3466    0.0129 C   0  0  0  0  0  0  0  0  0  0  0  0
    0.9590    1.0103    0.2643 N   0  0  0  0  0  0  0  0  0  0  0  0
   -0.3578    0.6223    0.1746 C   0  0  0  0  0  0  0  0  0  0  0  0
   -0.8544   -0.6533    0.3299 C   0  0  0  0  0  0  0  0  0  0  0  0
    4.0624    1.2462    0.8471 H   0  0  0  0  0  0  0  0  0  0  0  0
    3.5596    0.1949    2.1815 H   0  0  0  0  0  0  0  0  0  0  0  0
    2.7312    1.7230    1.9466 H   0  0  0  0  0  0  0  0  0  0  0  0
    1.4219   -2.7643    1.4120 H   0  0  0  0  0  0  0  0  0  0  0  0
    1.4720   -2.2700   -1.3403 H   0  0  0  0  0  0  0  0  0  0  0  0
    2.8377   -2.7359   -0.3258 H   0  0  0  0  0  0  0  0  0  0  0  0
    2.8799   -0.3390   -2.4928 H   0  0  0  0  0  0  0  0  0  0  0  0
    4.5238   -1.1579    0.3296 H   0  0  0  0  0  0  0  0  0  0  0  0
    4.6358    0.2581   -0.8438 H   0  0  0  0  0  0  0  0  0  0  0  0
    4.7979   -2.4633   -1.2908 H   0  0  0  0  0  0  0  0  0  0  0  0
    0.0592   -4.4684    1.0598 H   0  0  0  0  0  0  0  0  0  0  0  0
   -1.8569   -5.9719    1.0560 H   0  0  0  0  0  0  0  0  0  0  0  0
   -4.1224   -5.0759    0.6219 H   0  0  0  0  0  0  0  0  0  0  0  0
   -4.4721   -2.7398    0.2018 H   0  0  0  0  0  0  0  0  0  0  0  0
   -5.7336    2.0654   -0.7610 H   0  0  0  0  0  0  0  0  0  0  0  0
   -3.6366    3.2333    0.1993 H   0  0  0  0  0  0  0  0  0  0  0  0
   -3.3846    2.8954   -1.5673 H   0  0  0  0  0  0  0  0  0  0  0  0
   -1.7294    4.3700   -0.6881 H   0  0  0  0  0  0  0  0  0  0  0  0
    0.0587    6.0490   -0.8135 H   0  0  0  0  0  0  0  0  0  0  0  0
    2.3774    5.3965   -0.4223 H   0  0  0  0  0  0  0  0  0  0  0  0
    2.9510    3.0689    0.0761 H   0  0  0  0  0  0  0  0  0  0  0  0
  2  1  1  1
  2  3  1  0
  3  4  1  0
  4  5  1  0
  5  6  1  0
  6  7  1  6
  6  8  1  0
  8  9  1  0
  4 10  1  0
 10 11  1  0
 11 12  2  0
 12 13  1  0
 13 14  2  0
 14 15  1  0
 15 16  2  0
 16 17  1  0
 17 18  2  0
 18 19  1  0
 19 20  2  0
 19 21  1  0
 21 22  1  0
 22 23  1  0
 23 24  2  0
 24 25  1  0
 25 26  2  0
 26 27  1  0
 27 28  2  0
 28 29  1  0
 29 30  2  0
 30 31  1  0
 31 32  1  0
 32 33  2  0
  6  2  1  0
 33 10  1  0
 31  2  1  0
 16 11  1  0
 33 17  1  0
 23 18  1  0
 32 24  1  0
 30 25  1  0
  1 34  1  0
  1 35  1  0
  1 36  1  0
  4 37  1  1
  5 38  1  0
  5 39  1  0
  7 40  1  0
  8 41  1  0
  8 42  1  0
  9 43  1  0
 12 44  1  0
 13 45  1  0
 14 46  1  0
 15 47  1  0
 21 48  1  0
 22 49  1  0
 22 50  1  0
 26 51  1  0
 27 52  1  0
 28 53  1  0
 29 54  1  0
M  END
$$$$
[H]c1nc(N2C([H])([H])C([H])([H])N([H])C([H])([H])C2([H])[H])c([H])c([H])c1N([H])c1nc([H])c2c([H])c([H])c(-c3nc(OC([H])(C([H])([H])[H])C([H])([H])[H])c(C([H])([H])[H])c(C([H])([H])[H])c3[H])c([H])c2n1
     RDKit          3D

 66 70  0  0  0  0  0  0  0  0999 V2000
   -7.7791   -2.1887   -2.2861 C   0  0  0  0  0  0  0  0  0  0  0  0
   -7.2960   -1.5919   -0.9591 C   0  0  0  0  0  0  0  0  0  0  0  0
   -8.5026   -1.4837   -0.0286 C   0  0  0  0  0  0  0  0  0  0  0  0
   -6.7756   -0.3320   -1.2682 O   0  0  0  0  0  0  0  0  0  0  0  0
   -5.4492    0.0045   -1.0887 C   0  0  0  0  0  0  0  0  0  0  0  0
   -4.5116   -0.8266   -0.6057 N   0  0  0  0  0  0  0  0  0  0  0  0
   -3.2216   -0.5183   -0.4256 C   0  0  0  0  0  0  0  0  0  0  0  0
   -2.8272    0.7443   -0.7586 C   0  0  0  0  0  0  0  0  0  0  0  0
   -3.7605    1.6502   -1.2648 C   0  0  0  0  0  0  0  0  0  0  0  0
   -3.3089    3.0269   -1.6267 C   0  0  0  0  0  0  0  0  0  0  0  0
   -5.0710    1.3109   -1.4403 C   0  0  0  0  0  0  0  0  0  0  0  0
   -6.0941    2.2391   -1.9791 C   0  0  0  0  0  0  0  0  0  0  0  0
   -2.2883   -1.5513    0.0938 C   0  0  0  0  0  0  0  0  0  0  0  0
   -2.8082   -2.8063    0.3671 C   0  0  0  0  0  0  0  0  0  0  0  0
   -1.9616   -3.7863    0.8218 C   0  0  0  0  0  0  0  0  0  0  0  0
   -0.6260   -3.5367    1.0050 C   0  0  0  0  0  0  0  0  0  0  0  0
    0.2650   -4.4865    1.4428 C   0  0  0  0  0  0  0  0  0  0  0  0
    1.5651   -4.2207    1.6010 N   0  0  0  0  0  0  0  0  0  0  0  0
    2.0698   -2.9808    1.3305 C   0  0  0  0  0  0  0  0  0  0  0  0
    3.4646   -2.7464    1.4730 N   0  0  0  0  0  0  0  0  0  0  0  0
    4.1286   -1.5259    1.2648 C   0  0  0  0  0  0  0  0  0  0  0  0
    3.5825   -0.2825    1.4520 C   0  0  0  0  0  0  0  0  0  0  0  0
    4.3286    0.8766    1.1881 C   0  0  0  0  0  0  0  0  0  0  0  0
    5.6184    0.7779    0.7385 C   0  0  0  0  0  0  0  0  0  0  0  0
    6.1061   -0.4569    0.5723 N   0  0  0  0  0  0  0  0  0  0  0  0
    5.4441   -1.5842    0.8068 C   0  0  0  0  0  0  0  0  0  0  0  0
    6.4397    1.8942    0.4707 N   0  0  0  0  0  0  0  0  0  0  0  0
    6.0593    3.1860    0.9798 C   0  0  0  0  0  0  0  0  0  0  0  0
    7.2814    4.0381    1.3017 C   0  0  0  0  0  0  0  0  0  0  0  0
    8.2674    3.9661    0.2651 N   0  0  0  0  0  0  0  0  0  0  0  0
    8.7473    2.5763    0.2596 C   0  0  0  0  0  0  0  0  0  0  0  0
    7.6646    1.7272   -0.3301 C   0  0  0  0  0  0  0  0  0  0  0  0
    1.2184   -2.0388    0.9025 N   0  0  0  0  0  0  0  0  0  0  0  0
   -0.0842   -2.2813    0.7371 C   0  0  0  0  0  0  0  0  0  0  0  0
   -0.9668   -1.3137    0.2788 C   0  0  0  0  0  0  0  0  0  0  0  0
   -6.9885   -2.7744   -2.7863 H   0  0  0  0  0  0  0  0  0  0  0  0
   -8.1315   -1.3302   -2.8877 H   0  0  0  0  0  0  0  0  0  0  0  0
   -8.6575   -2.8080   -2.0496 H   0  0  0  0  0  0  0  0  0  0  0  0
   -6.5857   -2.3017   -0.5196 H   0  0  0  0  0  0  0  0  0  0  0  0
   -9.3525   -2.0490   -0.4492 H   0  0  0  0  0  0  0  0  0  0  0  0
   -8.7446   -0.4045    0.1108 H   0  0  0  0  0  0  0  0  0  0  0  0
   -8.2154   -1.8768    0.9444 H   0  0  0  0  0  0  0  0  0  0  0  0
   -1.8170    1.0545   -0.6382 H   0  0  0  0  0  0  0  0  0  0  0  0
   -2.2932    3.2426   -1.2723 H   0  0  0  0  0  0  0  0  0  0  0  0
   -3.9832    3.8199   -1.2635 H   0  0  0  0  0  0  0  0  0  0  0  0
   -3.2727    3.1029   -2.7416 H   0  0  0  0  0  0  0  0  0  0  0  0
   -6.8211    2.4901   -1.1899 H   0  0  0  0  0  0  0  0  0  0  0  0
   -5.6464    3.1580   -2.3583 H   0  0  0  0  0  0  0  0  0  0  0  0
   -6.6756    1.7516   -2.7930 H   0  0  0  0  0  0  0  0  0  0  0  0
   -3.8827   -3.0028    0.2194 H   0  0  0  0  0  0  0  0  0  0  0  0
   -2.3765   -4.7682    1.0349 H   0  0  0  0  0  0  0  0  0  0  0  0
   -0.1636   -5.4703    1.6474 H   0  0  0  0  0  0  0  0  0  0  0  0
    4.0626   -3.5779    1.7661 H   0  0  0  0  0  0  0  0  0  0  0  0
    2.5736   -0.1613    1.8159 H   0  0  0  0  0  0  0  0  0  0  0  0
    3.9110    1.8504    1.3330 H   0  0  0  0  0  0  0  0  0  0  0  0
    5.9392   -2.5351    0.6387 H   0  0  0  0  0  0  0  0  0  0  0  0
    5.4438    3.7622    0.2636 H   0  0  0  0  0  0  0  0  0  0  0  0
    5.4533    3.0200    1.9020 H   0  0  0  0  0  0  0  0  0  0  0  0
    7.0453    5.0639    1.5659 H   0  0  0  0  0  0  0  0  0  0  0  0
    7.7212    3.5641    2.2218 H   0  0  0  0  0  0  0  0  0  0  0  0
    9.0464    4.6008    0.5071 H   0  0  0  0  0  0  0  0  0  0  0  0
    8.9300    2.2613    1.2969 H   0  0  0  0  0  0  0  0  0  0  0  0
    9.7011    2.5024   -0.2959 H   0  0  0  0  0  0  0  0  0  0  0  0
    7.9825    0.6650   -0.3412 H   0  0  0  0  0  0  0  0  0  0  0  0
    7.4208    1.9998   -1.3791 H   0  0  0  0  0  0  0  0  0  0  0  0
   -0.5415   -0.3281    0.0678 H   0  0  0  0  0  0  0  0  0  0  0  0
  1  2  1  0
  2  3  1  0
  2  4  1  0
  4  5  1  0
  5  6  2  0
  6  7  1  0
  7  8  2  0
  8  9  1  0
  9 10  1  0
  9 11  2  0
 11 12  1  0
  7 13  1  0
 13 14  2  0
 14 15  1  0
 15 16  2  0
 16 17  1  0
 17 18  2  0
 18 19  1  0
 19 20  1  0
 20 21  1  0
 21 22  2  0
 22 23  1  0
 23 24  2  0
 24 25  1  0
 25 26  2  0
 24 27  1  0
 27 28  1  0
 28 29  1  0
 29 30  1  0
 30 31  1  0
 31 32  1  0
 19 33  2  0
 33 34  1  0
 34 35  2  0
 11  5  1  0
 35 13  1  0
 34 16  1  0
 26 21  1  0
 32 27  1  0
  1 36  1  0
  1 37  1  0
  1 38  1  0
  2 39  1  0
  3 40  1  0
  3 41  1  0
  3 42  1  0
  8 43  1  0
 10 44  1  0
 10 45  1  0
 10 46  1  0
 12 47  1  0
 12 48  1  0
 12 49  1  0
 14 50  1  0
 15 51  1  0
 17 52  1  0
 20 53  1  0
 22 54  1  0
 23 55  1  0
 26 56  1  0
 28 57  1  0
 28 58  1  0
 29 59  1  0
 29 60  1  0
 30 61  1  0
 31 62  1  0
 31 63  1  0
 32 64  1  0
 32 65  1  0
 35 66  1  0
M  END
$$$$
[H]c1nc(N([H])c2c([H])c(C([H])([H])[H])c([H])c([H])c2C([H])([H])[H])nc([H])c1N([H])C(=O)N([H])c1c([H])c(N(C([H])([H])[H])C([H])([H])[H])c(C([H])([H])[H])c([H])c1OC([H])([H])[H]
     RDKit          3D

 59 61  0  0  0  0  0  0  0  0999 V2000
    5.4142    3.9432    2.3830 C   0  0  0  0  0  0  0  0  0  0  0  0
    4.3477    3.1481    1.8999 O   0  0  0  0  0  0  0  0  0  0  0  0
    4.6201    1.8447    1.4575 C   0  0  0  0  0  0  0  0  0  0  0  0
    5.8995    1.3582    1.4964 C   0  0  0  0  0  0  0  0  0  0  0  0
    6.1613    0.0544    1.0521 C   0  0  0  0  0  0  0  0  0  0  0  0
    7.5380   -0.4276    1.1568 C   0  0  0  0  0  0  0  0  0  0  0  0
    5.1275   -0.6946    0.5900 C   0  0  0  0  0  0  0  0  0  0  0  0
    3.8118   -0.1719    0.5593 C   0  0  0  0  0  0  0  0  0  0  0  0
    3.5273    1.0946    0.9865 C   0  0  0  0  0  0  0  0  0  0  0  0
    2.2636    1.6856    0.9892 N   0  0  0  0  0  0  0  0  0  0  0  0
    1.0191    1.1537    0.5717 C   0  0  0  0  0  0  0  0  0  0  0  0
    0.9663   -0.0083    0.1247 O   0  0  0  0  0  0  0  0  0  0  0  0
   -0.1300    1.9626    0.6758 N   0  0  0  0  0  0  0  0  0  0  0  0
   -1.4502    1.6840    0.3428 C   0  0  0  0  0  0  0  0  0  0  0  0
   -2.4252    2.6956    0.3936 C   0  0  0  0  0  0  0  0  0  0  0  0
   -3.7019    2.4800    0.0910 N   0  0  0  0  0  0  0  0  0  0  0  0
   -4.1585    1.2433   -0.2951 C   0  0  0  0  0  0  0  0  0  0  0  0
   -5.5302    1.0948   -0.6012 N   0  0  0  0  0  0  0  0  0  0  0  0
   -6.1842   -0.0798   -1.0109 C   0  0  0  0  0  0  0  0  0  0  0  0
   -5.6151   -1.3122   -1.1890 C   0  0  0  0  0  0  0  0  0  0  0  0
   -6.3321   -2.4329   -1.5980 C   0  0  0  0  0  0  0  0  0  0  0  0
   -5.6578   -3.7341   -1.7715 C   0  0  0  0  0  0  0  0  0  0  0  0
   -7.6822   -2.3318   -1.8442 C   0  0  0  0  0  0  0  0  0  0  0  0
   -8.2724   -1.1185   -1.6749 C   0  0  0  0  0  0  0  0  0  0  0  0
   -7.5681   -0.0173   -1.2731 C   0  0  0  0  0  0  0  0  0  0  0  0
   -8.2796    1.2912   -1.1063 C   0  0  0  0  0  0  0  0  0  0  0  0
   -3.2338    0.2971   -0.3399 N   0  0  0  0  0  0  0  0  0  0  0  0
   -1.9331    0.4613   -0.0449 C   0  0  0  0  0  0  0  0  0  0  0  0
    5.2971   -1.9998    0.0790 N   0  0  0  0  0  0  0  0  0  0  0  0
    4.1457   -2.9438    0.0959 C   0  0  0  0  0  0  0  0  0  0  0  0
    6.4774   -2.5190   -0.5293 C   0  0  0  0  0  0  0  0  0  0  0  0
    6.2216    3.9732    1.5953 H   0  0  0  0  0  0  0  0  0  0  0  0
    5.0971    4.9934    2.5043 H   0  0  0  0  0  0  0  0  0  0  0  0
    5.8914    3.5353    3.2866 H   0  0  0  0  0  0  0  0  0  0  0  0
    6.7185    1.9589    1.8632 H   0  0  0  0  0  0  0  0  0  0  0  0
    8.1504    0.3267    1.7604 H   0  0  0  0  0  0  0  0  0  0  0  0
    8.1008   -0.5584    0.2441 H   0  0  0  0  0  0  0  0  0  0  0  0
    7.5666   -1.3242    1.8469 H   0  0  0  0  0  0  0  0  0  0  0  0
    3.0504   -0.8192    0.1847 H   0  0  0  0  0  0  0  0  0  0  0  0
    2.2113    2.6928    1.3600 H   0  0  0  0  0  0  0  0  0  0  0  0
    0.0534    2.9351    1.0748 H   0  0  0  0  0  0  0  0  0  0  0  0
   -2.0742    3.6887    0.7000 H   0  0  0  0  0  0  0  0  0  0  0  0
   -6.1253    1.9770   -0.5076 H   0  0  0  0  0  0  0  0  0  0  0  0
   -4.5723   -1.4913   -1.0225 H   0  0  0  0  0  0  0  0  0  0  0  0
   -4.5693   -3.6326   -1.8872 H   0  0  0  0  0  0  0  0  0  0  0  0
   -5.9400   -4.3907   -0.9273 H   0  0  0  0  0  0  0  0  0  0  0  0
   -6.0277   -4.2508   -2.6931 H   0  0  0  0  0  0  0  0  0  0  0  0
   -8.2807   -3.1799   -2.1649 H   0  0  0  0  0  0  0  0  0  0  0  0
   -9.3464   -1.0066   -1.8632 H   0  0  0  0  0  0  0  0  0  0  0  0
   -8.1756    1.6847   -0.0787 H   0  0  0  0  0  0  0  0  0  0  0  0
   -9.3581    1.1474   -1.3102 H   0  0  0  0  0  0  0  0  0  0  0  0
   -7.7947    1.9743   -1.8620 H   0  0  0  0  0  0  0  0  0  0  0  0
   -1.2675   -0.3917   -0.1130 H   0  0  0  0  0  0  0  0  0  0  0  0
    3.6238   -2.8611   -0.8807 H   0  0  0  0  0  0  0  0  0  0  0  0
    3.4640   -2.6752    0.9239 H   0  0  0  0  0  0  0  0  0  0  0  0
    4.5135   -3.9820    0.2288 H   0  0  0  0  0  0  0  0  0  0  0  0
    6.8661   -1.7622   -1.2770 H   0  0  0  0  0  0  0  0  0  0  0  0
    7.2871   -2.8299    0.1204 H   0  0  0  0  0  0  0  0  0  0  0  0
    6.2536   -3.4324   -1.1608 H   0  0  0  0  0  0  0  0  0  0  0  0
  1  2  1  0
  2  3  1  0
  3  4  2  0
  4  5  1  0
  5  6  1  0
  5  7  2  0
  7  8  1  0
  8  9  2  0
  9 10  1  0
 10 11  1  0
 11 12  2  0
 11 13  1  0
 13 14  1  0
 14 15  2  0
 15 16  1  0
 16 17  2  0
 17 18  1  0
 18 19  1  0
 19 20  2  0
 20 21  1  0
 21 22  1  0
 21 23  2  0
 23 24  1  0
 24 25  2  0
 25 26  1  0
 17 27  1  0
 27 28  2  0
  7 29  1  0
 29 30  1  0
 29 31  1  0
  9  3  1  0
 28 14  1  0
 25 19  1  0
  1 32  1  0
  1 33  1  0
  1 34  1  0
  4 35  1  0
  6 36  1  0
  6 37  1  0
  6 38  1  0
  8 39  1  0
 10 40  1  0
 13 41  1  0
 15 42  1  0
 18 43  1  0
 20 44  1  0
 22 45  1  0
 22 46  1  0
 22 47  1  0
 23 48  1  0
 24 49  1  0
 26 50  1  0
 26 51  1  0
 26 52  1  0
 28 53  1  0
 30 54  1  0
 30 55  1  0
 30 56  1  0
 31 57  1  0
 31 58  1  0
 31 59  1  0
M  END
$$$$
[H]Oc1c([H])c(C([H])([H])[H])c(C([H])([H])[C@@]([H])(C(=O)N2C([H])([H])C([H])([H])C([H])([H])C([H])([H])C2([H])C([H])([H])ON([H])c2c([H])c([H])c([H])c3c([H])c([H])c([H])c([H])c23)N([H])[H])c(C([H])([H])[H])c1[H]
     RDKit          3D

 66 69  0  0  0  0  0  0  0  0999 V2000
   -5.3078   -1.9474   -0.2763 C   0  0  0  0  0  0  0  0  0  0  0  0
   -5.7335   -0.5604    0.1389 C   0  0  0  0  0  0  0  0  0  0  0  0
   -7.1103   -0.2879    0.2095 C   0  0  0  0  0  0  0  0  0  0  0  0
   -7.6278    0.9113    0.6117 C   0  0  0  0  0  0  0  0  0  0  0  0
   -8.9862    1.1812    0.6816 O   0  0  0  0  0  0  0  0  0  0  0  0
   -6.7405    1.8955    0.9633 C   0  0  0  0  0  0  0  0  0  0  0  0
   -5.3828    1.6572    0.9034 C   0  0  0  0  0  0  0  0  0  0  0  0
   -4.4402    2.7312    1.2895 C   0  0  0  0  0  0  0  0  0  0  0  0
   -4.8540    0.4244    0.4890 C   0  0  0  0  0  0  0  0  0  0  0  0
   -3.4131    0.2351    0.3981 C   0  0  0  0  0  0  0  0  0  0  0  0
   -2.7552    0.4950   -0.9128 C   0  0  2  0  0  0  0  0  0  0  0  0
   -3.2039   -0.2710   -2.0263 N   0  0  0  0  0  0  0  0  0  0  0  0
   -1.2763    0.3715   -0.6413 C   0  0  0  0  0  0  0  0  0  0  0  0
   -0.8292    1.3686    0.0261 O   0  0  0  0  0  0  0  0  0  0  0  0
   -0.4178   -0.6292   -1.0053 N   0  0  0  0  0  0  0  0  0  0  0  0
   -0.8900   -1.8088   -1.7483 C   0  0  0  0  0  0  0  0  0  0  0  0
    0.1481   -2.9501   -1.6328 C   0  0  0  0  0  0  0  0  0  0  0  0
    0.6420   -3.0870   -0.2320 C   0  0  0  0  0  0  0  0  0  0  0  0
    1.2223   -1.8021    0.2836 C   0  0  0  0  0  0  0  0  0  0  0  0
    0.9852   -0.6439   -0.7176 C   0  0  0  0  0  0  0  0  0  0  0  0
    1.5961    0.5636   -0.1191 C   0  0  0  0  0  0  0  0  0  0  0  0
    2.9896    0.2651    0.0106 O   0  0  0  0  0  0  0  0  0  0  0  0
    3.6415    1.2878    0.5376 N   0  0  0  0  0  0  0  0  0  0  0  0
    5.0350    1.4738    0.6161 C   0  0  0  0  0  0  0  0  0  0  0  0
    5.4901    2.6880    1.1503 C   0  0  0  0  0  0  0  0  0  0  0  0
    6.8102    2.9601    1.2696 C   0  0  0  0  0  0  0  0  0  0  0  0
    7.7759    2.0725    0.8787 C   0  0  0  0  0  0  0  0  0  0  0  0
    7.3353    0.8782    0.3539 C   0  0  0  0  0  0  0  0  0  0  0  0
    8.3033   -0.0372   -0.0446 C   0  0  0  0  0  0  0  0  0  0  0  0
    7.9241   -1.2369   -0.5673 C   0  0  0  0  0  0  0  0  0  0  0  0
    6.5982   -1.5401   -0.7001 C   0  0  0  0  0  0  0  0  0  0  0  0
    5.6221   -0.6340   -0.3057 C   0  0  0  0  0  0  0  0  0  0  0  0
    5.9962    0.5723    0.2197 C   0  0  0  0  0  0  0  0  0  0  0  0
   -5.9891   -2.6302    0.3156 H   0  0  0  0  0  0  0  0  0  0  0  0
   -4.2922   -2.1417    0.1027 H   0  0  0  0  0  0  0  0  0  0  0  0
   -5.4757   -2.1466   -1.3356 H   0  0  0  0  0  0  0  0  0  0  0  0
   -7.7891   -1.0866   -0.0748 H   0  0  0  0  0  0  0  0  0  0  0  0
   -9.4439    0.9748    1.5627 H   0  0  0  0  0  0  0  0  0  0  0  0
   -7.0848    2.8704    1.2919 H   0  0  0  0  0  0  0  0  0  0  0  0
   -3.8762    2.4397    2.2027 H   0  0  0  0  0  0  0  0  0  0  0  0
   -5.0061    3.6457    1.5811 H   0  0  0  0  0  0  0  0  0  0  0  0
   -3.7905    3.0421    0.4541 H   0  0  0  0  0  0  0  0  0  0  0  0
   -3.0478   -0.7381    0.7999 H   0  0  0  0  0  0  0  0  0  0  0  0
   -2.9470    0.9848    1.1203 H   0  0  0  0  0  0  0  0  0  0  0  0
   -2.8984    1.5793   -1.2134 H   0  0  0  0  0  0  0  0  0  0  0  0
   -2.5895   -0.0421   -2.8921 H   0  0  0  0  0  0  0  0  0  0  0  0
   -4.1934    0.0027   -2.3151 H   0  0  0  0  0  0  0  0  0  0  0  0
   -0.9587   -1.6289   -2.8218 H   0  0  0  0  0  0  0  0  0  0  0  0
   -1.8069   -2.2382   -1.3412 H   0  0  0  0  0  0  0  0  0  0  0  0
   -0.3784   -3.8733   -1.9292 H   0  0  0  0  0  0  0  0  0  0  0  0
    1.0078   -2.7342   -2.3147 H   0  0  0  0  0  0  0  0  0  0  0  0
    1.4212   -3.8589   -0.2201 H   0  0  0  0  0  0  0  0  0  0  0  0
   -0.1886   -3.4652    0.4057 H   0  0  0  0  0  0  0  0  0  0  0  0
    0.7894   -1.5046    1.2529 H   0  0  0  0  0  0  0  0  0  0  0  0
    2.3364   -1.8386    0.3933 H   0  0  0  0  0  0  0  0  0  0  0  0
    1.5928   -0.9081   -1.6291 H   0  0  0  0  0  0  0  0  0  0  0  0
    1.4681    1.4505   -0.7555 H   0  0  0  0  0  0  0  0  0  0  0  0
    1.1921    0.7058    0.9193 H   0  0  0  0  0  0  0  0  0  0  0  0
    3.0491    2.0814    0.9669 H   0  0  0  0  0  0  0  0  0  0  0  0
    4.7958    3.4621    1.4900 H   0  0  0  0  0  0  0  0  0  0  0  0
    7.1552    3.9130    1.6890 H   0  0  0  0  0  0  0  0  0  0  0  0
    8.8392    2.2700    0.9644 H   0  0  0  0  0  0  0  0  0  0  0  0
    9.3551    0.1811    0.0519 H   0  0  0  0  0  0  0  0  0  0  0  0
    8.6863   -1.9612   -0.8833 H   0  0  0  0  0  0  0  0  0  0  0  0
    6.3239   -2.5022   -1.1200 H   0  0  0  0  0  0  0  0  0  0  0  0
    4.5971   -0.9010   -0.4172 H   0  0  0  0  0  0  0  0  0  0  0  0
  1  2  1  0
  2  3  2  0
  3  4  1  0
  4  5  1  0
  4  6  2  0
  6  7  1  0
  7  8  1  0
  7  9  2  0
  9 10  1  0
 10 11  1  0
 11 12  1  0
 11 13  1  0
 13 14  2  0
 13 15  1  0
 15 16  1  0
 16 17  1  0
 17 18  1  0
 18 19  1  0
 19 20  1  0
 20 21  1  0
 21 22  1  0
 22 23  1  0
 23 24  1  0
 24 25  2  0
 25 26  1  0
 26 27  2  0
 27 28  1  0
 28 29  2  0
 29 30  1  0
 30 31  2  0
 31 32  1  0
 32 33  2  0
  9  2  1  0
 20 15  1  0
 33 24  1  0
 33 28  1  0
  1 34  1  0
  1 35  1  0
  1 36  1  0
  3 37  1  0
  5 38  1  0
  6 39  1  0
  8 40  1  0
  8 41  1  0
  8 42  1  0
 10 43  1  0
 10 44  1  0
 11 45  1  6
 12 46  1  0
 12 47  1  0
 16 48  1  0
 16 49  1  0
 17 50  1  0
 17 51  1  0
 18 52  1  0
 18 53  1  0
 19 54  1  0
 19 55  1  0
 20 56  1  0
 21 57  1  0
 21 58  1  0
 23 59  1  0
 25 60  1  0
 26 61  1  0
 27 62  1  0
 29 63  1  0
 30 64  1  0
 31 65  1  0
 32 66  1  0
M  END
$$$$
[H]c1c(F)c(C([H])(C([H])([H])[H])C([H])([H])[H])c2c(nc(SC([H])(C([H])([H])[H])C([H])([H])[H])n2[H])c1[H]
     RDKit          3D

 34 35  0  0  0  0  0  0  0  0999 V2000
    4.6216    0.3172    0.3979 C   0  0  0  0  0  0  0  0  0  0  0  0
    4.1609    0.4602   -1.0397 C   0  0  0  0  0  0  0  0  0  0  0  0
    4.1010   -0.8649   -1.7503 C   0  0  0  0  0  0  0  0  0  0  0  0
    2.6021    1.3655   -1.1417 S   0  0  0  0  0  0  0  0  0  0  0  0
    1.2758    0.4233   -0.3961 C   0  0  0  0  0  0  0  0  0  0  0  0
    1.3410   -0.7720    0.1588 N   0  0  0  0  0  0  0  0  0  0  0  0
    0.1147   -1.1050    0.5868 C   0  0  0  0  0  0  0  0  0  0  0  0
   -0.3217   -2.2502    1.2440 C   0  0  0  0  0  0  0  0  0  0  0  0
   -1.6458   -2.3227    1.5844 C   0  0  0  0  0  0  0  0  0  0  0  0
   -2.5329   -1.3160    1.2987 C   0  0  0  0  0  0  0  0  0  0  0  0
   -3.8154   -1.4056    1.6479 F   0  0  0  0  0  0  0  0  0  0  0  0
   -2.1114   -0.1619    0.6396 C   0  0  0  0  0  0  0  0  0  0  0  0
   -3.0708    0.8762    0.3700 C   0  0  0  0  0  0  0  0  0  0  0  0
   -2.7829    1.9630   -0.5935 C   0  0  0  0  0  0  0  0  0  0  0  0
   -4.4922    0.4032    0.0985 C   0  0  0  0  0  0  0  0  0  0  0  0
   -0.7749   -0.0664    0.2870 C   0  0  0  0  0  0  0  0  0  0  0  0
   -0.0140    0.8687   -0.3246 N   0  0  0  0  0  0  0  0  0  0  0  0
    4.7115    1.3709    0.7925 H   0  0  0  0  0  0  0  0  0  0  0  0
    3.9152   -0.2371    1.0203 H   0  0  0  0  0  0  0  0  0  0  0  0
    5.6589   -0.0816    0.4128 H   0  0  0  0  0  0  0  0  0  0  0  0
    4.9227    1.0892   -1.5622 H   0  0  0  0  0  0  0  0  0  0  0  0
    5.0803   -1.0986   -2.2172 H   0  0  0  0  0  0  0  0  0  0  0  0
    3.8787   -1.7006   -1.0460 H   0  0  0  0  0  0  0  0  0  0  0  0
    3.3661   -0.7705   -2.5737 H   0  0  0  0  0  0  0  0  0  0  0  0
    0.3678   -3.0421    1.4713 H   0  0  0  0  0  0  0  0  0  0  0  0
   -2.0544   -3.1941    2.1019 H   0  0  0  0  0  0  0  0  0  0  0  0
   -3.1938    1.4245    1.3848 H   0  0  0  0  0  0  0  0  0  0  0  0
   -2.3609    1.6128   -1.5479 H   0  0  0  0  0  0  0  0  0  0  0  0
   -2.2308    2.8379   -0.1934 H   0  0  0  0  0  0  0  0  0  0  0  0
   -3.7744    2.4548   -0.9112 H   0  0  0  0  0  0  0  0  0  0  0  0
   -4.9465    1.1970   -0.5837 H   0  0  0  0  0  0  0  0  0  0  0  0
   -5.1345    0.4491    0.9826 H   0  0  0  0  0  0  0  0  0  0  0  0
   -4.5508   -0.5096   -0.5152 H   0  0  0  0  0  0  0  0  0  0  0  0
   -0.3100    1.7855   -0.6826 H   0  0  0  0  0  0  0  0  0  0  0  0
  1  2  1  0
  2  3  1  0
  2  4  1  0
  4  5  1  0
  5  6  2  0
  6  7  1  0
  7  8  2  0
  8  9  1  0
  9 10  2  0
 10 11  1  0
 10 12  1  0
 12 13  1  0
 13 14  1  0
 13 15  1  0
 12 16  2  0
 16 17  1  0
 17  5  1  0
 16  7  1  0
  1 18  1  0
  1 19  1  0
  1 20  1  0
  2 21  1  0
  3 22  1  0
  3 23  1  0
  3 24  1  0
  8 25  1  0
  9 26  1  0
 13 27  1  0
 14 28  1  0
 14 29  1  0
 14 30  1  0
 15 31  1  0
 15 32  1  0
 15 33  1  0
 17 34  1  0
M  END
$$$$
[H]c1nc2c(C([H])([H])[H])c(C([H])([H])[H])c(-c3c(C([H])(C([H])([H])[H])C([H])([H])[H])c4c([H])c(C5([H])C([H])([H])C([H])([H])N(C6([H])C([H])([H])OC6([H])[H])C([H])([H])C5([H])[H])c([H])c([H])c4n3[H])c([H])n2n1
     RDKit          3D

 66 71  0  0  0  0  0  0  0  0999 V2000
   -1.5136   -0.1862   -3.1740 C   0  0  0  0  0  0  0  0  0  0  0  0
   -2.4375   -0.1628   -1.9933 C   0  0  0  0  0  0  0  0  0  0  0  0
   -3.0067   -1.6164   -1.8955 C   0  0  0  0  0  0  0  0  0  0  0  0
   -1.8919    0.2016   -0.7026 C   0  0  0  0  0  0  0  0  0  0  0  0
   -2.6537    0.5209    0.4064 C   0  0  0  0  0  0  0  0  0  0  0  0
   -1.8046    0.7260    1.4270 N   0  0  0  0  0  0  0  0  0  0  0  0
   -0.5288    0.5602    1.0501 C   0  0  0  0  0  0  0  0  0  0  0  0
    0.6473    0.6646    1.7540 C   0  0  0  0  0  0  0  0  0  0  0  0
    1.8319    0.4273    1.0873 C   0  0  0  0  0  0  0  0  0  0  0  0
    1.8493    0.0938   -0.2475 C   0  0  0  0  0  0  0  0  0  0  0  0
    0.6258    0.0049   -0.9021 C   0  0  0  0  0  0  0  0  0  0  0  0
   -0.5756    0.2325   -0.2817 C   0  0  0  0  0  0  0  0  0  0  0  0
    3.1420   -0.1617   -0.9498 C   0  0  0  0  0  0  0  0  0  0  0  0
    3.8982    1.1301   -0.9701 C   0  0  0  0  0  0  0  0  0  0  0  0
    5.2291    1.0280   -0.2257 C   0  0  0  0  0  0  0  0  0  0  0  0
    5.9366   -0.0711   -0.7861 N   0  0  0  0  0  0  0  0  0  0  0  0
    5.3100   -1.3001   -0.3625 C   0  0  0  0  0  0  0  0  0  0  0  0
    3.8418   -1.2848   -0.2682 C   0  0  0  0  0  0  0  0  0  0  0  0
    7.3197   -0.1490   -0.5187 C   0  0  0  0  0  0  0  0  0  0  0  0
    7.7577   -0.3110    0.9154 C   0  0  0  0  0  0  0  0  0  0  0  0
    8.9412    0.3704    0.5449 O   0  0  0  0  0  0  0  0  0  0  0  0
    8.1116    1.1035   -0.3402 C   0  0  0  0  0  0  0  0  0  0  0  0
   -4.0977    0.5584    0.5703 C   0  0  0  0  0  0  0  0  0  0  0  0
   -4.9657    1.1492   -0.3370 C   0  0  0  0  0  0  0  0  0  0  0  0
   -6.3185    1.0996   -0.2254 N   0  0  0  0  0  0  0  0  0  0  0  0
   -7.2657    1.6067   -0.9960 N   0  0  0  0  0  0  0  0  0  0  0  0
   -8.4542    1.2841   -0.4538 C   0  0  0  0  0  0  0  0  0  0  0  0
   -8.2334    0.5716    0.6606 N   0  0  0  0  0  0  0  0  0  0  0  0
   -6.8886    0.4556    0.8049 C   0  0  0  0  0  0  0  0  0  0  0  0
   -6.1132   -0.1579    1.7525 C   0  0  0  0  0  0  0  0  0  0  0  0
   -6.7923   -0.8517    2.8691 C   0  0  0  0  0  0  0  0  0  0  0  0
   -4.7353   -0.0979    1.6209 C   0  0  0  0  0  0  0  0  0  0  0  0
   -3.9810   -0.8179    2.6515 C   0  0  0  0  0  0  0  0  0  0  0  0
   -0.9514   -1.1312   -3.3037 H   0  0  0  0  0  0  0  0  0  0  0  0
   -2.1638   -0.1721   -4.1212 H   0  0  0  0  0  0  0  0  0  0  0  0
   -0.9333    0.7343   -3.2525 H   0  0  0  0  0  0  0  0  0  0  0  0
   -3.3311    0.4070   -2.3355 H   0  0  0  0  0  0  0  0  0  0  0  0
   -3.0829   -2.0154   -2.9267 H   0  0  0  0  0  0  0  0  0  0  0  0
   -2.3765   -2.2231   -1.2365 H   0  0  0  0  0  0  0  0  0  0  0  0
   -4.0387   -1.5962   -1.5020 H   0  0  0  0  0  0  0  0  0  0  0  0
   -2.0728    1.0017    2.4174 H   0  0  0  0  0  0  0  0  0  0  0  0
    0.6299    0.9297    2.8145 H   0  0  0  0  0  0  0  0  0  0  0  0
    2.7789    0.5065    1.6316 H   0  0  0  0  0  0  0  0  0  0  0  0
    0.6838   -0.2641   -1.9314 H   0  0  0  0  0  0  0  0  0  0  0  0
    2.8872   -0.4275   -1.9954 H   0  0  0  0  0  0  0  0  0  0  0  0
    4.1637    1.4270   -2.0058 H   0  0  0  0  0  0  0  0  0  0  0  0
    3.3407    1.9839   -0.5277 H   0  0  0  0  0  0  0  0  0  0  0  0
    5.0348    0.8523    0.8614 H   0  0  0  0  0  0  0  0  0  0  0  0
    5.7199    2.0179   -0.3882 H   0  0  0  0  0  0  0  0  0  0  0  0
    5.6850   -2.0992   -1.0678 H   0  0  0  0  0  0  0  0  0  0  0  0
    5.7913   -1.5697    0.6241 H   0  0  0  0  0  0  0  0  0  0  0  0
    3.5696   -1.2633    0.8297 H   0  0  0  0  0  0  0  0  0  0  0  0
    3.4449   -2.2509   -0.6418 H   0  0  0  0  0  0  0  0  0  0  0  0
    7.8407   -0.8563   -1.1751 H   0  0  0  0  0  0  0  0  0  0  0  0
    7.1187    0.2466    1.6026 H   0  0  0  0  0  0  0  0  0  0  0  0
    7.9575   -1.3317    1.2308 H   0  0  0  0  0  0  0  0  0  0  0  0
    7.6578    1.9243    0.2277 H   0  0  0  0  0  0  0  0  0  0  0  0
    8.6633    1.3633   -1.2642 H   0  0  0  0  0  0  0  0  0  0  0  0
   -4.5306    1.7217   -1.1598 H   0  0  0  0  0  0  0  0  0  0  0  0
   -9.4629    1.5304   -0.8131 H   0  0  0  0  0  0  0  0  0  0  0  0
   -6.5433   -1.9067    2.9862 H   0  0  0  0  0  0  0  0  0  0  0  0
   -6.4568   -0.3268    3.8126 H   0  0  0  0  0  0  0  0  0  0  0  0
   -7.8934   -0.6764    2.8459 H   0  0  0  0  0  0  0  0  0  0  0  0
   -3.0628   -1.2383    2.2122 H   0  0  0  0  0  0  0  0  0  0  0  0
   -4.5418   -1.7349    3.0072 H   0  0  0  0  0  0  0  0  0  0  0  0
   -3.7103   -0.1832    3.5066 H   0  0  0  0  0  0  0  0  0  0  0  0
  1  2  1  0
  2  3  1  0
  2  4  1  0
  4  5  2  0
  5  6  1  0
  6  7  1  0
  7  8  2  0
  8  9  1  0
  9 10  2  0
 10 11  1  0
 11 12  2  0
 10 13  1  0
 13 14  1  0
 14 15  1  0
 15 16  1  0
 16 17  1  0
 17 18  1  0
 16 19  1  0
 19 20  1  0
 20 21  1  0
 21 22  1  0
  5 23  1  0
 23 24  2  0
 24 25  1  0
 25 26  1  0
 26 27  2  0
 27 28  1  0
 28 29  2  0
 29 30  1  0
 30 31  1  0
 30 32  2  0
 32 33  1  0
 12  4  1  0
 18 13  1  0
 22 19  1  0
 32 23  1  0
 12  7  1  0
 29 25  1  0
  1 34  1  0
  1 35  1  0
  1 36  1  0
  2 37  1  0
  3 38  1  0
  3 39  1  0
  3 40  1  0
  6 41  1  0
  8 42  1  0
  9 43  1  0
 11 44  1  0
 13 45  1  0
 14 46  1  0
 14 47  1  0
 15 48  1  0
 15 49  1  0
 17 50  1  0
 17 51  1  0
 18 52  1  0
 18 53  1  0
 19 54  1  0
 20 55  1  0
 20 56  1  0
 22 57  1  0
 22 58  1  0
 24 59  1  0
 27 60  1  0
 31 61  1  0
 31 62  1  0
 31 63  1  0
 33 64  1  0
 33 65  1  0
 33 66  1  0
M  END
$$$$
[H]Oc1c([H])c([H])c(C(=O)c2c([H])c(C([H])([H])[H])c([H])c(-c3c([H])c(O[H])c(O[H])c(C([H])=O)c3[H])c2O[H])c([H])c1O[H]
     RDKit          3D

 44 46  0  0  0  0  0  0  0  0999 V2000
    0.8051    3.4246    0.9431 C   0  0  0  0  0  0  0  0  0  0  0  0
    0.3557    2.0331    0.6560 C   0  0  0  0  0  0  0  0  0  0  0  0
   -0.9608    1.7686    0.4695 C   0  0  0  0  0  0  0  0  0  0  0  0
   -1.3742    0.4953    0.2064 C   0  0  0  0  0  0  0  0  0  0  0  0
   -2.8075    0.2172    0.0165 C   0  0  0  0  0  0  0  0  0  0  0  0
   -3.6068    0.9566   -0.8154 C   0  0  0  0  0  0  0  0  0  0  0  0
   -4.9598    0.6892   -0.9791 C   0  0  0  0  0  0  0  0  0  0  0  0
   -5.7416    1.4770   -1.8460 O   0  0  0  0  0  0  0  0  0  0  0  0
   -5.5401   -0.3515   -0.2905 C   0  0  0  0  0  0  0  0  0  0  0  0
   -6.8841   -0.6063   -0.4621 O   0  0  0  0  0  0  0  0  0  0  0  0
   -4.7563   -1.1099    0.5528 C   0  0  0  0  0  0  0  0  0  0  0  0
   -5.3739   -2.2075    1.2794 C   0  0  0  0  0  0  0  0  0  0  0  0
   -4.6800   -2.9075    2.0495 O   0  0  0  0  0  0  0  0  0  0  0  0
   -3.3986   -0.8183    0.6979 C   0  0  0  0  0  0  0  0  0  0  0  0
   -0.4628   -0.5777    0.1188 C   0  0  0  0  0  0  0  0  0  0  0  0
   -0.9569   -1.8026   -0.1477 O   0  0  0  0  0  0  0  0  0  0  0  0
    0.8979   -0.3132    0.3102 C   0  0  0  0  0  0  0  0  0  0  0  0
    1.8829   -1.3689    0.2980 C   0  0  0  0  0  0  0  0  0  0  0  0
    1.5001   -2.5729    0.4062 O   0  0  0  0  0  0  0  0  0  0  0  0
    3.2960   -1.1859    0.1703 C   0  0  0  0  0  0  0  0  0  0  0  0
    4.1592   -2.0270    0.8368 C   0  0  0  0  0  0  0  0  0  0  0  0
    5.5296   -1.9420    0.7157 C   0  0  0  0  0  0  0  0  0  0  0  0
    6.0305   -0.9509   -0.1255 C   0  0  0  0  0  0  0  0  0  0  0  0
    7.4281   -0.8466   -0.2631 O   0  0  0  0  0  0  0  0  0  0  0  0
    5.1984   -0.1118   -0.7921 C   0  0  0  0  0  0  0  0  0  0  0  0
    5.7308    0.8591   -1.6178 O   0  0  0  0  0  0  0  0  0  0  0  0
    3.8309   -0.2315   -0.6429 C   0  0  0  0  0  0  0  0  0  0  0  0
    1.2704    1.0109    0.5787 C   0  0  0  0  0  0  0  0  0  0  0  0
    1.5741    3.7693    0.1982 H   0  0  0  0  0  0  0  0  0  0  0  0
   -0.0629    4.1058    0.9535 H   0  0  0  0  0  0  0  0  0  0  0  0
    1.2872    3.5096    1.9346 H   0  0  0  0  0  0  0  0  0  0  0  0
   -1.7417    2.5470    0.5201 H   0  0  0  0  0  0  0  0  0  0  0  0
   -3.1961    1.7787   -1.3731 H   0  0  0  0  0  0  0  0  0  0  0  0
   -5.3674    2.2355   -2.3622 H   0  0  0  0  0  0  0  0  0  0  0  0
   -7.4490   -0.0471   -1.0799 H   0  0  0  0  0  0  0  0  0  0  0  0
   -6.4160   -2.4352    1.1725 H   0  0  0  0  0  0  0  0  0  0  0  0
   -2.8393   -1.4448    1.3726 H   0  0  0  0  0  0  0  0  0  0  0  0
   -0.6542   -2.7063   -0.2792 H   0  0  0  0  0  0  0  0  0  0  0  0
    3.7486   -2.7984    1.4916 H   0  0  0  0  0  0  0  0  0  0  0  0
    6.1705   -2.6225    1.2567 H   0  0  0  0  0  0  0  0  0  0  0  0
    7.7895   -0.1282   -0.8733 H   0  0  0  0  0  0  0  0  0  0  0  0
    5.2158    1.5225   -2.1500 H   0  0  0  0  0  0  0  0  0  0  0  0
    3.2192    0.4751   -1.2280 H   0  0  0  0  0  0  0  0  0  0  0  0
    2.3098    1.2392    0.7594 H   0  0  0  0  0  0  0  0  0  0  0  0
  1  2  1  0
  2  3  2  0
  3  4  1  0
  4  5  1  0
  5  6  2  0
  6  7  1  0
  7  8  1  0
  7  9  2  0
  9 10  1  0
  9 11  1  0
 11 12  1  0
 12 13  2  0
 11 14  2  0
  4 15  2  0
 15 16  1  0
 15 17  1  0
 17 18  1  0
 18 19  2  0
 18 20  1  0
 20 21  2  0
 21 22  1  0
 22 23  2  0
 23 24  1  0
 23 25  1  0
 25 26  1  0
 25 27  2  0
 17 28  2  0
 28  2  1  0
 14  5  1  0
 27 20  1  0
  1 29  1  0
  1 30  1  0
  1 31  1  0
  3 32  1  0
  6 33  1  0
  8 34  1  0
 10 35  1  0
 12 36  1  0
 14 37  1  0
 16 38  1  0
 21 39  1  0
 22 40  1  0
 24 41  1  0
 26 42  1  0
 27 43  1  0
 28 44  1  0
M  END
$$$$
[H]c1c([H])c2c(c(OS(=O)(=O)C(F)(F)F)c1C#N)C([H])([H])C([H])([H])C(C([H])([H])C([H])([H])[H])(C([H])([H])C([H])([H])[H])C2([H])[H]
     RDKit          3D

 42 43  0  0  0  0  0  0  0  0999 V2000
   -4.5132   -0.4550   -0.3965 C   0  0  0  0  0  0  0  0  0  0  0  0
   -3.2700   -1.0715   -0.8840 C   0  0  0  0  0  0  0  0  0  0  0  0
   -1.9622   -0.5139   -0.4888 C   0  0  0  0  0  0  0  0  0  0  0  0
   -1.7578    0.8906   -0.9194 C   0  0  0  0  0  0  0  0  0  0  0  0
   -2.7028    1.9141   -0.4073 C   0  0  0  0  0  0  0  0  0  0  0  0
   -0.9117   -1.3546   -1.2416 C   0  0  0  0  0  0  0  0  0  0  0  0
    0.4614   -0.7880   -1.0707 C   0  0  0  0  0  0  0  0  0  0  0  0
    0.8249   -0.6132    0.3532 C   0  0  0  0  0  0  0  0  0  0  0  0
   -0.2004   -0.5989    1.2574 C   0  0  0  0  0  0  0  0  0  0  0  0
   -1.6374   -0.7323    0.9725 C   0  0  0  0  0  0  0  0  0  0  0  0
    0.1547   -0.4465    2.5909 C   0  0  0  0  0  0  0  0  0  0  0  0
    1.4662   -0.3179    2.9828 C   0  0  0  0  0  0  0  0  0  0  0  0
    2.5053   -0.3344    2.0542 C   0  0  0  0  0  0  0  0  0  0  0  0
    3.8785   -0.2331    2.5284 C   0  0  0  0  0  0  0  0  0  0  0  0
    4.9576   -0.1757    2.9042 N   0  0  0  0  0  0  0  0  0  0  0  0
    2.1708   -0.4822    0.7349 C   0  0  0  0  0  0  0  0  0  0  0  0
    3.1362   -0.5065   -0.2192 O   0  0  0  0  0  0  0  0  0  0  0  0
    3.8374    0.6350   -1.1663 S   0  0  0  0  0  0  0  0  0  0  0  0
    4.2208   -0.0404   -2.4884 O   0  0  0  0  0  0  0  0  0  0  0  0
    2.9098    1.7555   -1.5840 O   0  0  0  0  0  0  0  0  0  0  0  0
    5.3098    1.4014   -0.5866 C   0  0  0  0  0  0  0  0  0  0  0  0
    6.2911    0.4776   -0.3514 F   0  0  0  0  0  0  0  0  0  0  0  0
    5.1513    2.3279    0.3856 F   0  0  0  0  0  0  0  0  0  0  0  0
    5.8270    2.1485   -1.6925 F   0  0  0  0  0  0  0  0  0  0  0  0
   -5.3728   -1.1890   -0.5510 H   0  0  0  0  0  0  0  0  0  0  0  0
   -4.8762    0.4471   -0.9226 H   0  0  0  0  0  0  0  0  0  0  0  0
   -4.5633   -0.2492    0.6887 H   0  0  0  0  0  0  0  0  0  0  0  0
   -3.3403   -1.0737   -2.0171 H   0  0  0  0  0  0  0  0  0  0  0  0
   -3.3527   -2.1802   -0.6529 H   0  0  0  0  0  0  0  0  0  0  0  0
   -0.7264    1.2660   -0.7436 H   0  0  0  0  0  0  0  0  0  0  0  0
   -1.8581    0.8872   -2.0502 H   0  0  0  0  0  0  0  0  0  0  0  0
   -3.4107    2.2695   -1.2114 H   0  0  0  0  0  0  0  0  0  0  0  0
   -3.2125    1.6797    0.5254 H   0  0  0  0  0  0  0  0  0  0  0  0
   -2.1333    2.8736   -0.1693 H   0  0  0  0  0  0  0  0  0  0  0  0
   -0.9234   -2.3811   -0.8306 H   0  0  0  0  0  0  0  0  0  0  0  0
   -1.1636   -1.3131   -2.3221 H   0  0  0  0  0  0  0  0  0  0  0  0
    0.5997    0.0808   -1.7062 H   0  0  0  0  0  0  0  0  0  0  0  0
    1.1694   -1.5760   -1.4639 H   0  0  0  0  0  0  0  0  0  0  0  0
   -1.9154   -1.7931    1.1966 H   0  0  0  0  0  0  0  0  0  0  0  0
   -2.2103   -0.0101    1.5794 H   0  0  0  0  0  0  0  0  0  0  0  0
   -0.6122   -0.4259    3.3628 H   0  0  0  0  0  0  0  0  0  0  0  0
    1.7549   -0.1986    4.0206 H   0  0  0  0  0  0  0  0  0  0  0  0
  1  2  1  0
  2  3  1  0
  3  4  1  0
  4  5  1  0
  3  6  1  0
  6  7  1  0
  7  8  1  0
  8  9  2  0
  9 10  1  0
  9 11  1  0
 11 12  2  0
 12 13  1  0
 13 14  1  0
 14 15  3  0
 13 16  2  0
 16 17  1  0
 17 18  1  0
 18 19  2  0
 18 20  2  0
 18 21  1  0
 21 22  1  0
 21 23  1  0
 21 24  1  0
 10  3  1  0
 16  8  1  0
  1 25  1  0
  1 26  1  0
  1 27  1  0
  2 28  1  0
  2 29  1  0
  4 30  1  0
  4 31  1  0
  5 32  1  0
  5 33  1  0
  5 34  1  0
  6 35  1  0
  6 36  1  0
  7 37  1  0
  7 38  1  0
 10 39  1  0
 10 40  1  0
 11 41  1  0
 12 42  1  0
M  END
$$$$
[H]c1c([H])c([C@]2([H])c3c([H])c([H])c(C(=O)N([H])[H])c([H])c3C([H])([H])C([H])([H])N2C(=O)C([H])([H])C#N)c(C([H])([H])[H])c([H])c1F
     RDKit          3D

 44 46  0  0  0  0  0  0  0  0999 V2000
   -0.8225    1.0643   -1.7623 C   0  0  0  0  0  0  0  0  0  0  0  0
   -1.2262    1.7535   -0.5516 C   0  0  0  0  0  0  0  0  0  0  0  0
   -1.8177    3.0180   -0.7004 C   0  0  0  0  0  0  0  0  0  0  0  0
   -2.2316    3.7731    0.3706 C   0  0  0  0  0  0  0  0  0  0  0  0
   -2.8032    4.9947    0.2325 F   0  0  0  0  0  0  0  0  0  0  0  0
   -2.0670    3.2844    1.6482 C   0  0  0  0  0  0  0  0  0  0  0  0
   -1.4958    2.0635    1.7849 C   0  0  0  0  0  0  0  0  0  0  0  0
   -1.0589    1.2585    0.7255 C   0  0  0  0  0  0  0  0  0  0  0  0
   -0.4630   -0.0470    0.9401 C   0  0  1  0  0  0  0  0  0  0  0  0
   -1.2791   -1.1938    0.6735 N   0  0  0  0  0  0  0  0  0  0  0  0
   -0.5894   -2.4727    0.6082 C   0  0  0  0  0  0  0  0  0  0  0  0
    0.3876   -2.4137   -0.5391 C   0  0  0  0  0  0  0  0  0  0  0  0
    1.3189   -1.2915   -0.2461 C   0  0  0  0  0  0  0  0  0  0  0  0
    2.6292   -1.4092   -0.7057 C   0  0  0  0  0  0  0  0  0  0  0  0
    3.5773   -0.4263   -0.4856 C   0  0  0  0  0  0  0  0  0  0  0  0
    3.1694    0.6894    0.2159 C   0  0  0  0  0  0  0  0  0  0  0  0
    1.8590    0.7976    0.6706 C   0  0  0  0  0  0  0  0  0  0  0  0
    0.9300   -0.1721    0.4514 C   0  0  0  0  0  0  0  0  0  0  0  0
    4.9499   -0.5639   -0.9743 C   0  0  0  0  0  0  0  0  0  0  0  0
    5.8720    0.4752   -0.7172 N   0  0  0  0  0  0  0  0  0  0  0  0
    5.3051   -1.5803   -1.6080 O   0  0  0  0  0  0  0  0  0  0  0  0
   -2.6765   -1.1731    0.4927 C   0  0  0  0  0  0  0  0  0  0  0  0
   -3.3807   -0.1309    0.5440 O   0  0  0  0  0  0  0  0  0  0  0  0
   -3.3669   -2.4578    0.2244 C   0  0  0  0  0  0  0  0  0  0  0  0
   -4.8039   -2.2633    0.0154 C   0  0  0  0  0  0  0  0  0  0  0  0
   -5.9200   -2.1151   -0.1311 N   0  0  0  0  0  0  0  0  0  0  0  0
   -1.3261    1.5669   -2.6421 H   0  0  0  0  0  0  0  0  0  0  0  0
   -1.0444    0.0156   -1.8755 H   0  0  0  0  0  0  0  0  0  0  0  0
    0.2709    1.1995   -2.0081 H   0  0  0  0  0  0  0  0  0  0  0  0
   -1.9655    3.4391   -1.6854 H   0  0  0  0  0  0  0  0  0  0  0  0
   -2.3696    3.8253    2.5342 H   0  0  0  0  0  0  0  0  0  0  0  0
   -1.3567    1.6597    2.7734 H   0  0  0  0  0  0  0  0  0  0  0  0
   -0.3103   -0.1175    2.0836 H   0  0  0  0  0  0  0  0  0  0  0  0
   -0.0477   -2.6028    1.5927 H   0  0  0  0  0  0  0  0  0  0  0  0
   -1.2601   -3.3308    0.5440 H   0  0  0  0  0  0  0  0  0  0  0  0
    0.9292   -3.3749   -0.5592 H   0  0  0  0  0  0  0  0  0  0  0  0
   -0.2037   -2.2367   -1.4574 H   0  0  0  0  0  0  0  0  0  0  0  0
    2.9440   -2.2886   -1.2565 H   0  0  0  0  0  0  0  0  0  0  0  0
    3.9118    1.4592    0.3883 H   0  0  0  0  0  0  0  0  0  0  0  0
    1.5727    1.6780    1.2132 H   0  0  0  0  0  0  0  0  0  0  0  0
    6.7898    0.2805   -0.2900 H   0  0  0  0  0  0  0  0  0  0  0  0
    5.6196    1.4469   -0.9625 H   0  0  0  0  0  0  0  0  0  0  0  0
   -3.1752   -3.1113    1.1055 H   0  0  0  0  0  0  0  0  0  0  0  0
   -2.9745   -2.9695   -0.6747 H   0  0  0  0  0  0  0  0  0  0  0  0
  1  2  1  0
  2  3  2  0
  3  4  1  0
  4  5  1  0
  4  6  2  0
  6  7  1  0
  7  8  2  0
  8  9  1  0
  9 10  1  0
 10 11  1  0
 11 12  1  0
 12 13  1  0
 13 14  2  0
 14 15  1  0
 15 16  2  0
 16 17  1  0
 17 18  2  0
 15 19  1  0
 19 20  1  0
 19 21  2  0
 10 22  1  0
 22 23  2  0
 22 24  1  0
 24 25  1  0
 25 26  3  0
  8  2  1  0
 18  9  1  0
 18 13  1  0
  1 27  1  0
  1 28  1  0
  1 29  1  0
  3 30  1  0
  6 31  1  0
  7 32  1  0
  9 33  1  1
 11 34  1  0
 11 35  1  0
 12 36  1  0
 12 37  1  0
 14 38  1  0
 16 39  1  0
 17 40  1  0
 20 41  1  0
 20 42  1  0
 24 43  1  0
 24 44  1  0
M  END
$$$$
[H]c1nc(N([H])c2c([H])c([H])c(N3C([H])([H])C([H])([H])N(C([H])([H])[H])C([H])([H])C3([H])[H])c([H])c2[H])nc([H])c1N([H])C(=O)c1c([H])c(N([H])C(=O)c2c([H])c([H])c([H])c(C(F)(F)F)c2[H])c([H])c([H])c1C([H])([H])[H]
     RDKit          3D

 73 77  0  0  0  0  0  0  0  0999 V2000
   11.1626   -1.4295   -0.2901 C   0  0  0  0  0  0  0  0  0  0  0  0
   10.8066   -1.1520   -1.6725 N   0  0  0  0  0  0  0  0  0  0  0  0
   10.4159    0.1876   -1.8989 C   0  0  0  0  0  0  0  0  0  0  0  0
    9.0068    0.3313   -2.4400 C   0  0  0  0  0  0  0  0  0  0  0  0
    8.1717   -0.5294   -1.6086 N   0  0  0  0  0  0  0  0  0  0  0  0
    8.5007   -1.9673   -1.7161 C   0  0  0  0  0  0  0  0  0  0  0  0
    9.9119   -2.1440   -2.1967 C   0  0  0  0  0  0  0  0  0  0  0  0
    7.1297   -0.0633   -0.7731 C   0  0  0  0  0  0  0  0  0  0  0  0
    6.2840    0.9745   -1.1097 C   0  0  0  0  0  0  0  0  0  0  0  0
    5.2833    1.4252   -0.2729 C   0  0  0  0  0  0  0  0  0  0  0  0
    5.0750    0.8551    0.9607 C   0  0  0  0  0  0  0  0  0  0  0  0
    4.0727    1.2666    1.8554 N   0  0  0  0  0  0  0  0  0  0  0  0
    2.7010    1.4154    1.6495 C   0  0  0  0  0  0  0  0  0  0  0  0
    2.0640    1.1508    0.5212 N   0  0  0  0  0  0  0  0  0  0  0  0
    0.7045    1.2644    0.3632 C   0  0  0  0  0  0  0  0  0  0  0  0
   -0.0701    1.6664    1.3890 C   0  0  0  0  0  0  0  0  0  0  0  0
   -1.4860    1.7401    1.4642 N   0  0  0  0  0  0  0  0  0  0  0  0
   -2.4284    1.0827    0.7153 C   0  0  0  0  0  0  0  0  0  0  0  0
   -2.0837    0.3640   -0.2539 O   0  0  0  0  0  0  0  0  0  0  0  0
   -3.8748    1.1632    1.0101 C   0  0  0  0  0  0  0  0  0  0  0  0
   -4.8233    1.0463   -0.0402 C   0  0  0  0  0  0  0  0  0  0  0  0
   -6.1401    1.1096    0.1741 C   0  0  0  0  0  0  0  0  0  0  0  0
   -7.1975    0.8936   -0.7958 N   0  0  0  0  0  0  0  0  0  0  0  0
   -8.1468   -0.1045   -0.4596 C   0  0  0  0  0  0  0  0  0  0  0  0
   -7.8757   -0.7207    0.6821 O   0  0  0  0  0  0  0  0  0  0  0  0
   -9.3264   -0.5507   -1.1186 C   0  0  0  0  0  0  0  0  0  0  0  0
   -9.9814    0.1544   -2.0771 C   0  0  0  0  0  0  0  0  0  0  0  0
  -11.1622   -0.3133   -2.6274 C   0  0  0  0  0  0  0  0  0  0  0  0
  -11.7323   -1.5005   -2.2409 C   0  0  0  0  0  0  0  0  0  0  0  0
  -11.0947   -2.2428   -1.2745 C   0  0  0  0  0  0  0  0  0  0  0  0
   -9.9266   -1.7682   -0.7404 C   0  0  0  0  0  0  0  0  0  0  0  0
  -11.6644   -3.5222   -0.8140 C   0  0  0  0  0  0  0  0  0  0  0  0
  -12.7917   -3.2654   -0.0486 F   0  0  0  0  0  0  0  0  0  0  0  0
  -11.9253   -4.4025   -1.8601 F   0  0  0  0  0  0  0  0  0  0  0  0
  -10.7612   -4.1640    0.0259 F   0  0  0  0  0  0  0  0  0  0  0  0
   -6.6025    1.3075    1.4993 C   0  0  0  0  0  0  0  0  0  0  0  0
   -5.6979    1.4181    2.5023 C   0  0  0  0  0  0  0  0  0  0  0  0
   -4.3071    1.3475    2.3005 C   0  0  0  0  0  0  0  0  0  0  0  0
   -3.4568    1.3682    3.5224 C   0  0  0  0  0  0  0  0  0  0  0  0
    0.6065    1.9579    2.6074 C   0  0  0  0  0  0  0  0  0  0  0  0
    1.9026    1.8263    2.6842 N   0  0  0  0  0  0  0  0  0  0  0  0
    5.9322   -0.2082    1.3194 C   0  0  0  0  0  0  0  0  0  0  0  0
    6.9250   -0.6545    0.4876 C   0  0  0  0  0  0  0  0  0  0  0  0
   11.0028   -2.4892   -0.1086 H   0  0  0  0  0  0  0  0  0  0  0  0
   12.2320   -1.2035   -0.1608 H   0  0  0  0  0  0  0  0  0  0  0  0
   10.5559   -0.8453    0.4460 H   0  0  0  0  0  0  0  0  0  0  0  0
   10.4807    0.7587   -0.9317 H   0  0  0  0  0  0  0  0  0  0  0  0
   11.1376    0.6785   -2.5712 H   0  0  0  0  0  0  0  0  0  0  0  0
    8.6993    1.3874   -2.3241 H   0  0  0  0  0  0  0  0  0  0  0  0
    8.9493   -0.0226   -3.4739 H   0  0  0  0  0  0  0  0  0  0  0  0
    8.2939   -2.4781   -0.7843 H   0  0  0  0  0  0  0  0  0  0  0  0
    7.8182   -2.3492   -2.5036 H   0  0  0  0  0  0  0  0  0  0  0  0
   10.0159   -2.2026   -3.2872 H   0  0  0  0  0  0  0  0  0  0  0  0
   10.2623   -3.1415   -1.7933 H   0  0  0  0  0  0  0  0  0  0  0  0
    6.3766    1.4861   -2.0566 H   0  0  0  0  0  0  0  0  0  0  0  0
    4.6281    2.2472   -0.5569 H   0  0  0  0  0  0  0  0  0  0  0  0
    4.4192    1.4847    2.8598 H   0  0  0  0  0  0  0  0  0  0  0  0
    0.2446    1.0282   -0.6036 H   0  0  0  0  0  0  0  0  0  0  0  0
   -1.8616    2.4790    2.1563 H   0  0  0  0  0  0  0  0  0  0  0  0
   -4.4587    0.9050   -1.0588 H   0  0  0  0  0  0  0  0  0  0  0  0
   -7.2179    1.4473   -1.6332 H   0  0  0  0  0  0  0  0  0  0  0  0
   -9.5830    1.0984   -2.4225 H   0  0  0  0  0  0  0  0  0  0  0  0
  -11.7002    0.2519   -3.3961 H   0  0  0  0  0  0  0  0  0  0  0  0
  -12.6727   -1.8372   -2.6929 H   0  0  0  0  0  0  0  0  0  0  0  0
   -9.3932   -2.3435    0.0247 H   0  0  0  0  0  0  0  0  0  0  0  0
   -7.6706    1.3801    1.6361 H   0  0  0  0  0  0  0  0  0  0  0  0
   -6.0166    1.5663    3.5297 H   0  0  0  0  0  0  0  0  0  0  0  0
   -3.2707    2.3812    3.8991 H   0  0  0  0  0  0  0  0  0  0  0  0
   -2.6120    0.7004    3.4318 H   0  0  0  0  0  0  0  0  0  0  0  0
   -4.0929    0.8304    4.3335 H   0  0  0  0  0  0  0  0  0  0  0  0
   -0.0160    2.2938    3.4484 H   0  0  0  0  0  0  0  0  0  0  0  0
    5.7611   -0.6407    2.2843 H   0  0  0  0  0  0  0  0  0  0  0  0
    7.5890   -1.4651    0.7519 H   0  0  0  0  0  0  0  0  0  0  0  0
  1  2  1  0
  2  3  1  0
  3  4  1  0
  4  5  1  0
  5  6  1  0
  6  7  1  0
  5  8  1  0
  8  9  2  0
  9 10  1  0
 10 11  2  0
 11 12  1  0
 12 13  1  0
 13 14  2  0
 14 15  1  0
 15 16  2  0
 16 17  1  0
 17 18  1  0
 18 19  2  0
 18 20  1  0
 20 21  2  0
 21 22  1  0
 22 23  1  0
 23 24  1  0
 24 25  2  0
 24 26  1  0
 26 27  2  0
 27 28  1  0
 28 29  2  0
 29 30  1  0
 30 31  2  0
 30 32  1  0
 32 33  1  0
 32 34  1  0
 32 35  1  0
 22 36  2  0
 36 37  1  0
 37 38  2  0
 38 39  1  0
 16 40  1  0
 40 41  2  0
 11 42  1  0
 42 43  2  0
  7  2  1  0
 43  8  1  0
 41 13  1  0
 38 20  1  0
 31 26  1  0
  1 44  1  0
  1 45  1  0
  1 46  1  0
  3 47  1  0
  3 48  1  0
  4 49  1  0
  4 50  1  0
  6 51  1  0
  6 52  1  0
  7 53  1  0
  7 54  1  0
  9 55  1  0
 10 56  1  0
 12 57  1  0
 15 58  1  0
 17 59  1  0
 21 60  1  0
 23 61  1  0
 27 62  1  0
 28 63  1  0
 29 64  1  0
 31 65  1  0
 36 66  1  0
 37 67  1  0
 39 68  1  0
 39 69  1  0
 39 70  1  0
 40 71  1  0
 42 72  1  0
 43 73  1  0
M  END
$$$$
[H]N([H])C(=O)C([H])(N([H])C(=O)[C@@]([H])(N([H])[H])C([H])([H])C([H])(C([H])([H])[H])C([H])([H])[H])C([H])([H])C([H])([H])C([H])([H])N([H])[H]
     RDKit          3D

 41 40  0  0  0  0  0  0  0  0999 V2000
   -5.0660   -0.0508    0.4476 C   0  0  0  0  0  0  0  0  0  0  0  0
   -3.6132    0.2677    0.9363 C   0  0  0  0  0  0  0  0  0  0  0  0
   -2.9207   -1.0931    0.9301 C   0  0  0  0  0  0  0  0  0  0  0  0
   -3.0414    1.1917   -0.0862 C   0  0  0  0  0  0  0  0  0  0  0  0
   -1.6938    1.7444    0.1183 C   0  0  2  0  0  0  0  0  0  0  0  0
   -1.3445    2.6183   -1.0372 N   0  0  0  0  0  0  0  0  0  0  0  0
   -0.5546    0.8744    0.3321 C   0  0  0  0  0  0  0  0  0  0  0  0
   -0.3029    0.3984    1.4589 O   0  0  0  0  0  0  0  0  0  0  0  0
    0.3051    0.5402   -0.7341 N   0  0  0  0  0  0  0  0  0  0  0  0
    1.4805   -0.3432   -0.5665 C   0  0  0  0  0  0  0  0  0  0  0  0
    2.7212    0.4039   -0.8841 C   0  0  0  0  0  0  0  0  0  0  0  0
    4.0132   -0.3287   -0.7330 C   0  0  0  0  0  0  0  0  0  0  0  0
    4.2255   -0.8155    0.6932 C   0  0  0  0  0  0  0  0  0  0  0  0
    4.2356    0.3704    1.5423 N   0  0  0  0  0  0  0  0  0  0  0  0
    1.2995   -1.5363   -1.4067 C   0  0  0  0  0  0  0  0  0  0  0  0
    0.2641   -1.6186   -2.1787 O   0  0  0  0  0  0  0  0  0  0  0  0
    2.1402   -2.6662   -1.4914 N   0  0  0  0  0  0  0  0  0  0  0  0
   -5.3297   -1.0453    0.8593 H   0  0  0  0  0  0  0  0  0  0  0  0
   -5.7289    0.7380    0.8228 H   0  0  0  0  0  0  0  0  0  0  0  0
   -5.0314   -0.0773   -0.6445 H   0  0  0  0  0  0  0  0  0  0  0  0
   -3.7136    0.6601    1.9444 H   0  0  0  0  0  0  0  0  0  0  0  0
   -2.2063   -1.1795    0.0979 H   0  0  0  0  0  0  0  0  0  0  0  0
   -3.6835   -1.9191    0.7580 H   0  0  0  0  0  0  0  0  0  0  0  0
   -2.4778   -1.2937    1.9143 H   0  0  0  0  0  0  0  0  0  0  0  0
   -3.7488    2.0833   -0.2136 H   0  0  0  0  0  0  0  0  0  0  0  0
   -3.0915    0.7100   -1.1042 H   0  0  0  0  0  0  0  0  0  0  0  0
   -1.7326    2.4940    0.9737 H   0  0  0  0  0  0  0  0  0  0  0  0
   -1.5734    2.0818   -1.8986 H   0  0  0  0  0  0  0  0  0  0  0  0
   -1.9269    3.4762   -0.9533 H   0  0  0  0  0  0  0  0  0  0  0  0
    0.1063    0.9270   -1.6713 H   0  0  0  0  0  0  0  0  0  0  0  0
    1.4907   -0.6364    0.4951 H   0  0  0  0  0  0  0  0  0  0  0  0
    2.7966    1.3802   -0.3470 H   0  0  0  0  0  0  0  0  0  0  0  0
    2.6809    0.7187   -1.9747 H   0  0  0  0  0  0  0  0  0  0  0  0
    4.8709    0.3515   -1.0223 H   0  0  0  0  0  0  0  0  0  0  0  0
    4.0795   -1.1815   -1.4160 H   0  0  0  0  0  0  0  0  0  0  0  0
    3.4186   -1.5055    0.9646 H   0  0  0  0  0  0  0  0  0  0  0  0
    5.2091   -1.3218    0.7693 H   0  0  0  0  0  0  0  0  0  0  0  0
    3.4056    0.3759    2.1890 H   0  0  0  0  0  0  0  0  0  0  0  0
    5.1388    0.4182    2.0662 H   0  0  0  0  0  0  0  0  0  0  0  0
    2.6908   -2.9297   -2.3230 H   0  0  0  0  0  0  0  0  0  0  0  0
    2.2088   -3.2819   -0.6451 H   0  0  0  0  0  0  0  0  0  0  0  0
  1  2  1  0
  2  3  1  0
  2  4  1  0
  4  5  1  0
  5  6  1  0
  5  7  1  0
  7  8  2  0
  7  9  1  0
  9 10  1  0
 10 11  1  0
 11 12  1  0
 12 13  1  0
 13 14  1  0
 10 15  1  0
 15 16  2  0
 15 17  1  0
  1 18  1  0
  1 19  1  0
  1 20  1  0
  2 21  1  0
  3 22  1  0
  3 23  1  0
  3 24  1  0
  4 25  1  0
  4 26  1  0
  5 27  1  1
  6 28  1  0
  6 29  1  0
  9 30  1  0
 10 31  1  0
 11 32  1  0
 11 33  1  0
 12 34  1  0
 12 35  1  0
 13 36  1  0
 13 37  1  0
 14 38  1  0
 14 39  1  0
 17 40  1  0
 17 41  1  0
M  END
$$$$
[H]OC(=O)C([H])([H])N(O[H])C([H])([H])[C@]([H])(C(=O)N1C([H])([H])C([H])([H])C([H])([H])C1([H])[H])[C@@]1([H])C([H])([H])N([H])C([H])([H])C1([H])[H]
     RDKit          3D

 43 44  0  0  0  0  0  0  0  0999 V2000
    1.0389   -1.4334   -1.4391 O   0  0  0  0  0  0  0  0  0  0  0  0
    1.7250   -1.2196   -0.2684 N   0  0  0  0  0  0  0  0  0  0  0  0
    1.7054    0.1914   -0.0186 C   0  0  0  0  0  0  0  0  0  0  0  0
    0.3788    0.7537    0.4019 C   0  0  1  0  0  0  0  0  0  0  0  0
    0.4762    2.2316    0.6033 C   0  0  2  0  0  0  0  0  0  0  0  0
   -0.8317    2.8600    1.0248 C   0  0  0  0  0  0  0  0  0  0  0  0
   -0.5494    4.3216    0.7199 C   0  0  0  0  0  0  0  0  0  0  0  0
    0.0072    4.2186   -0.6199 N   0  0  0  0  0  0  0  0  0  0  0  0
    0.8436    3.0259   -0.6018 C   0  0  0  0  0  0  0  0  0  0  0  0
   -0.7857    0.2743   -0.3331 C   0  0  0  0  0  0  0  0  0  0  0  0
   -1.1287    0.9257   -1.3548 O   0  0  0  0  0  0  0  0  0  0  0  0
   -1.5514   -0.8638    0.0149 N   0  0  0  0  0  0  0  0  0  0  0  0
   -1.3845   -1.7549    1.1469 C   0  0  0  0  0  0  0  0  0  0  0  0
   -2.8426   -2.0753    1.4888 C   0  0  0  0  0  0  0  0  0  0  0  0
   -3.3734   -2.3867    0.0950 C   0  0  0  0  0  0  0  0  0  0  0  0
   -2.6842   -1.3568   -0.7375 C   0  0  0  0  0  0  0  0  0  0  0  0
    3.1246   -1.5848   -0.5539 C   0  0  0  0  0  0  0  0  0  0  0  0
    3.1971   -3.0338   -0.8258 C   0  0  0  0  0  0  0  0  0  0  0  0
    4.4177   -3.6122   -1.1247 O   0  0  0  0  0  0  0  0  0  0  0  0
    2.1495   -3.7177   -0.7815 O   0  0  0  0  0  0  0  0  0  0  0  0
    1.6605   -1.6681   -2.1462 H   0  0  0  0  0  0  0  0  0  0  0  0
    2.0684    0.7230   -0.9485 H   0  0  0  0  0  0  0  0  0  0  0  0
    2.4806    0.4189    0.7432 H   0  0  0  0  0  0  0  0  0  0  0  0
    0.2334    0.3461    1.4768 H   0  0  0  0  0  0  0  0  0  0  0  0
    1.2018    2.4745    1.4193 H   0  0  0  0  0  0  0  0  0  0  0  0
   -1.0511    2.6962    2.0990 H   0  0  0  0  0  0  0  0  0  0  0  0
   -1.6867    2.5706    0.3851 H   0  0  0  0  0  0  0  0  0  0  0  0
   -1.4514    4.9428    0.7445 H   0  0  0  0  0  0  0  0  0  0  0  0
    0.2514    4.6556    1.4038 H   0  0  0  0  0  0  0  0  0  0  0  0
   -0.7957    4.0858   -1.2822 H   0  0  0  0  0  0  0  0  0  0  0  0
    1.8941    3.4199   -0.5199 H   0  0  0  0  0  0  0  0  0  0  0  0
    0.7690    2.4679   -1.5519 H   0  0  0  0  0  0  0  0  0  0  0  0
   -0.9183   -2.6926    0.8287 H   0  0  0  0  0  0  0  0  0  0  0  0
   -0.8752   -1.2767    2.0061 H   0  0  0  0  0  0  0  0  0  0  0  0
   -2.9287   -2.9162    2.1807 H   0  0  0  0  0  0  0  0  0  0  0  0
   -3.3483   -1.1526    1.8337 H   0  0  0  0  0  0  0  0  0  0  0  0
   -2.9640   -3.3779   -0.1747 H   0  0  0  0  0  0  0  0  0  0  0  0
   -4.4738   -2.3369    0.0491 H   0  0  0  0  0  0  0  0  0  0  0  0
   -3.4005   -0.5417   -0.9859 H   0  0  0  0  0  0  0  0  0  0  0  0
   -2.3482   -1.7987   -1.6989 H   0  0  0  0  0  0  0  0  0  0  0  0
    3.5232   -0.9976   -1.4045 H   0  0  0  0  0  0  0  0  0  0  0  0
    3.7123   -1.3270    0.3434 H   0  0  0  0  0  0  0  0  0  0  0  0
    4.5146   -4.4793   -1.6371 H   0  0  0  0  0  0  0  0  0  0  0  0
  1  2  1  0
  2  3  1  0
  3  4  1  0
  4  5  1  0
  5  6  1  0
  6  7  1  0
  7  8  1  0
  8  9  1  0
  4 10  1  0
 10 11  2  0
 10 12  1  0
 12 13  1  0
 13 14  1  0
 14 15  1  0
 15 16  1  0
  2 17  1  0
 17 18  1  0
 18 19  1  0
 18 20  2  0
  9  5  1  0
 16 12  1  0
  1 21  1  0
  3 22  1  0
  3 23  1  0
  4 24  1  1
  5 25  1  1
  6 26  1  0
  6 27  1  0
  7 28  1  0
  7 29  1  0
  8 30  1  0
  9 31  1  0
  9 32  1  0
 13 33  1  0
 13 34  1  0
 14 35  1  0
 14 36  1  0
 15 37  1  0
 15 38  1  0
 16 39  1  0
 16 40  1  0
 17 41  1  0
 17 42  1  0
 19 43  1  0
M  END
$$$$
[H]C1=C([H])C([H])(F)C([H])([H])C([H])=C1N([H])C(=O)C1(C(=O)N([H])c2c([H])c([H])c(Oc3c([H])c([H])nc4c([H])c(OC([H])([H])C([H])([H])C([H])([H])N5C([H])([H])C([H])([H])OC([H])([H])C5([H])[H])c(OC([H])([H])[H])c([H])c34)c(F)c2[H])C([H])([H])C1([H])[H]
     RDKit          3D

 82 87  0  0  0  0  0  0  0  0999 V2000
    3.9666    3.0495   -1.7322 C   0  0  0  0  0  0  0  0  0  0  0  0
    4.8184    1.9472   -1.5191 O   0  0  0  0  0  0  0  0  0  0  0  0
    4.2779    0.7150   -1.2054 C   0  0  0  0  0  0  0  0  0  0  0  0
    2.9355    0.4830   -1.0834 C   0  0  0  0  0  0  0  0  0  0  0  0
    2.5057   -0.7878   -0.7673 C   0  0  0  0  0  0  0  0  0  0  0  0
    1.1302   -1.0757   -0.6337 C   0  0  0  0  0  0  0  0  0  0  0  0
    0.2693   -0.0306   -0.8259 O   0  0  0  0  0  0  0  0  0  0  0  0
   -1.0898   -0.1642   -0.6451 C   0  0  0  0  0  0  0  0  0  0  0  0
   -1.9847   -0.0120   -1.6950 C   0  0  0  0  0  0  0  0  0  0  0  0
   -3.3381   -0.1282   -1.5809 C   0  0  0  0  0  0  0  0  0  0  0  0
   -3.8905   -0.4214   -0.3289 C   0  0  0  0  0  0  0  0  0  0  0  0
   -5.3238   -0.4986   -0.2135 N   0  0  0  0  0  0  0  0  0  0  0  0
   -5.9613   -1.3830    0.6262 C   0  0  0  0  0  0  0  0  0  0  0  0
   -5.1921   -2.1849    1.2964 O   0  0  0  0  0  0  0  0  0  0  0  0
   -7.4011   -1.5958    0.9101 C   0  0  0  0  0  0  0  0  0  0  0  0
   -7.6820   -2.4618    2.1265 C   0  0  0  0  0  0  0  0  0  0  0  0
   -7.8126   -3.1190    0.8294 C   0  0  0  0  0  0  0  0  0  0  0  0
   -8.4706   -0.6963    0.4763 C   0  0  0  0  0  0  0  0  0  0  0  0
   -9.6747   -1.1656    0.7176 O   0  0  0  0  0  0  0  0  0  0  0  0
   -8.4814    0.5528   -0.1324 N   0  0  0  0  0  0  0  0  0  0  0  0
   -9.7446    1.2195   -0.4499 C   0  0  0  0  0  0  0  0  0  0  0  0
   -9.9496    2.4040    0.0799 C   0  0  0  0  0  0  0  0  0  0  0  0
  -11.1350    3.2347   -0.1097 C   0  0  0  0  0  0  0  0  0  0  0  0
  -12.2008    2.6387   -0.9439 C   0  0  0  0  0  0  0  0  0  0  0  0
  -12.4721    3.4850   -2.0494 F   0  0  0  0  0  0  0  0  0  0  0  0
  -11.8730    1.3187   -1.4859 C   0  0  0  0  0  0  0  0  0  0  0  0
  -10.7586    0.6480   -1.2759 C   0  0  0  0  0  0  0  0  0  0  0  0
   -3.0432   -0.5784    0.7341 C   0  0  0  0  0  0  0  0  0  0  0  0
   -1.6522   -0.4525    0.5863 C   0  0  0  0  0  0  0  0  0  0  0  0
   -0.8827   -0.5957    1.6903 F   0  0  0  0  0  0  0  0  0  0  0  0
    0.7223   -2.3515   -0.3227 C   0  0  0  0  0  0  0  0  0  0  0  0
    1.6378   -3.3635   -0.1352 C   0  0  0  0  0  0  0  0  0  0  0  0
    2.9451   -3.0865   -0.2619 N   0  0  0  0  0  0  0  0  0  0  0  0
    3.3732   -1.8309   -0.5703 C   0  0  0  0  0  0  0  0  0  0  0  0
    4.7330   -1.5901   -0.6954 C   0  0  0  0  0  0  0  0  0  0  0  0
    5.1920   -0.3333   -1.0085 C   0  0  0  0  0  0  0  0  0  0  0  0
    6.5206   -0.0853   -1.1253 O   0  0  0  0  0  0  0  0  0  0  0  0
    7.5310   -0.9938   -0.8772 C   0  0  0  0  0  0  0  0  0  0  0  0
    7.6262   -1.3701    0.5948 C   0  0  0  0  0  0  0  0  0  0  0  0
    7.9359   -0.0985    1.3961 C   0  0  0  0  0  0  0  0  0  0  0  0
    9.1945    0.4265    0.9288 N   0  0  0  0  0  0  0  0  0  0  0  0
    9.4053    1.7864    1.4776 C   0  0  0  0  0  0  0  0  0  0  0  0
   10.8161    2.1639    1.0165 C   0  0  0  0  0  0  0  0  0  0  0  0
   11.2632    1.3549   -0.0281 O   0  0  0  0  0  0  0  0  0  0  0  0
   11.4615    0.0232    0.3872 C   0  0  0  0  0  0  0  0  0  0  0  0
   10.3466   -0.3576    1.3702 C   0  0  0  0  0  0  0  0  0  0  0  0
    4.5770    3.9509   -1.9692 H   0  0  0  0  0  0  0  0  0  0  0  0
    3.3066    3.2216   -0.8582 H   0  0  0  0  0  0  0  0  0  0  0  0
    3.3086    2.7911   -2.5987 H   0  0  0  0  0  0  0  0  0  0  0  0
    2.2243    1.2761   -1.2311 H   0  0  0  0  0  0  0  0  0  0  0  0
   -1.5528    0.2161   -2.6750 H   0  0  0  0  0  0  0  0  0  0  0  0
   -4.0246   -0.0039   -2.4200 H   0  0  0  0  0  0  0  0  0  0  0  0
   -5.8260    0.1518   -0.8369 H   0  0  0  0  0  0  0  0  0  0  0  0
   -6.8106   -2.7138    2.7607 H   0  0  0  0  0  0  0  0  0  0  0  0
   -8.5985   -2.2800    2.7131 H   0  0  0  0  0  0  0  0  0  0  0  0
   -7.0275   -3.7752    0.4011 H   0  0  0  0  0  0  0  0  0  0  0  0
   -8.7992   -3.3162    0.3639 H   0  0  0  0  0  0  0  0  0  0  0  0
   -7.6334    1.0911   -0.3743 H   0  0  0  0  0  0  0  0  0  0  0  0
   -9.1652    2.8388    0.7401 H   0  0  0  0  0  0  0  0  0  0  0  0
  -11.5358    3.5321    0.9159 H   0  0  0  0  0  0  0  0  0  0  0  0
  -10.8538    4.2484   -0.5572 H   0  0  0  0  0  0  0  0  0  0  0  0
  -13.1586    2.5647   -0.3407 H   0  0  0  0  0  0  0  0  0  0  0  0
  -12.6648    0.8691   -2.1323 H   0  0  0  0  0  0  0  0  0  0  0  0
  -10.6018   -0.3227   -1.7168 H   0  0  0  0  0  0  0  0  0  0  0  0
   -3.4037   -0.7893    1.7394 H   0  0  0  0  0  0  0  0  0  0  0  0
   -0.3200   -2.5956   -0.2356 H   0  0  0  0  0  0  0  0  0  0  0  0
    1.2680   -4.3480    0.1079 H   0  0  0  0  0  0  0  0  0  0  0  0
    5.3620   -2.4538   -0.5623 H   0  0  0  0  0  0  0  0  0  0  0  0
    7.4424   -1.9223   -1.5038 H   0  0  0  0  0  0  0  0  0  0  0  0
    8.4920   -0.5348   -1.2249 H   0  0  0  0  0  0  0  0  0  0  0  0
    6.7751   -1.8921    1.0071 H   0  0  0  0  0  0  0  0  0  0  0  0
    8.4922   -2.0400    0.6815 H   0  0  0  0  0  0  0  0  0  0  0  0
    7.1233    0.6400    1.3255 H   0  0  0  0  0  0  0  0  0  0  0  0
    8.0487   -0.4301    2.4644 H   0  0  0  0  0  0  0  0  0  0  0  0
    9.4079    1.7624    2.5778 H   0  0  0  0  0  0  0  0  0  0  0  0
    8.6320    2.4413    1.0296 H   0  0  0  0  0  0  0  0  0  0  0  0
   11.5508    2.0414    1.8480 H   0  0  0  0  0  0  0  0  0  0  0  0
   10.8264    3.2054    0.6080 H   0  0  0  0  0  0  0  0  0  0  0  0
   11.3001   -0.6008   -0.5146 H   0  0  0  0  0  0  0  0  0  0  0  0
   12.4569   -0.1361    0.8078 H   0  0  0  0  0  0  0  0  0  0  0  0
   10.1090   -1.3943    1.4038 H   0  0  0  0  0  0  0  0  0  0  0  0
   10.6797    0.0679    2.3647 H   0  0  0  0  0  0  0  0  0  0  0  0
  1  2  1  0
  2  3  1  0
  3  4  2  0
  4  5  1  0
  5  6  2  0
  6  7  1  0
  7  8  1  0
  8  9  2  0
  9 10  1  0
 10 11  2  0
 11 12  1  0
 12 13  1  0
 13 14  2  0
 13 15  1  0
 15 16  1  0
 16 17  1  0
 15 18  1  0
 18 19  2  0
 18 20  1  0
 20 21  1  0
 21 22  2  0
 22 23  1  0
 23 24  1  0
 24 25  1  0
 24 26  1  0
 26 27  2  0
 11 28  1  0
 28 29  2  0
 29 30  1  0
  6 31  1  0
 31 32  2  0
 32 33  1  0
 33 34  2  0
 34 35  1  0
 35 36  2  0
 36 37  1  0
 37 38  1  0
 38 39  1  0
 39 40  1  0
 40 41  1  0
 41 42  1  0
 42 43  1  0
 43 44  1  0
 44 45  1  0
 45 46  1  0
 36  3  1  0
 46 41  1  0
 34  5  1  0
 29  8  1  0
 17 15  1  0
 27 21  1  0
  1 47  1  0
  1 48  1  0
  1 49  1  0
  4 50  1  0
  9 51  1  0
 10 52  1  0
 12 53  1  0
 16 54  1  0
 16 55  1  0
 17 56  1  0
 17 57  1  0
 20 58  1  0
 22 59  1  0
 23 60  1  0
 23 61  1  0
 24 62  1  0
 26 63  1  0
 27 64  1  0
 28 65  1  0
 31 66  1  0
 32 67  1  0
 35 68  1  0
 38 69  1  0
 38 70  1  0
 39 71  1  0
 39 72  1  0
 40 73  1  0
 40 74  1  0
 42 75  1  0
 42 76  1  0
 43 77  1  0
 43 78  1  0
 45 79  1  0
 45 80  1  0
 46 81  1  0
 46 82  1  0
M  END
$$$$
[H]c1nn(C([H])([H])c2c([H])c([H])c(C([H])([H])C([H])([H])C([H])([H])C([H])([H])[H])c([H])c2[H])c(=O)c(C([H])([H])[H])c1C([H])([H])Oc1c([H])c([H])c([H])c([H])c1[H]
     RDKit          3D

 53 55  0  0  0  0  0  0  0  0999 V2000
    7.7089    1.4854   -0.2758 C   0  0  0  0  0  0  0  0  0  0  0  0
    6.3863    1.9513    0.3154 C   0  0  0  0  0  0  0  0  0  0  0  0
    5.3190    0.9679    0.1829 C   0  0  0  0  0  0  0  0  0  0  0  0
    5.4806   -0.3842    0.8769 C   0  0  0  0  0  0  0  0  0  0  0  0
    4.2040   -1.0520    0.3676 C   0  0  0  0  0  0  0  0  0  0  0  0
    3.0068   -0.8446    0.9590 C   0  0  0  0  0  0  0  0  0  0  0  0
    1.8304   -1.2688    0.3275 C   0  0  0  0  0  0  0  0  0  0  0  0
    1.9514   -1.8799   -0.8830 C   0  0  0  0  0  0  0  0  0  0  0  0
    0.7396   -2.1646   -1.7259 C   0  0  0  0  0  0  0  0  0  0  0  0
   -0.3457   -1.4132   -1.0967 N   0  0  0  0  0  0  0  0  0  0  0  0
   -1.2372   -2.0283   -0.3991 N   0  0  0  0  0  0  0  0  0  0  0  0
   -2.2801   -1.4449    0.1675 C   0  0  0  0  0  0  0  0  0  0  0  0
   -2.3997   -0.0528   -0.0130 C   0  0  0  0  0  0  0  0  0  0  0  0
   -3.4847    0.5710    0.8104 C   0  0  0  0  0  0  0  0  0  0  0  0
   -4.6590    0.3690    0.1751 O   0  0  0  0  0  0  0  0  0  0  0  0
   -5.9521    0.2420    0.2248 C   0  0  0  0  0  0  0  0  0  0  0  0
   -6.7277    0.1084    1.3638 C   0  0  0  0  0  0  0  0  0  0  0  0
   -8.0780    0.0012    1.2997 C   0  0  0  0  0  0  0  0  0  0  0  0
   -8.7179    0.0246    0.0607 C   0  0  0  0  0  0  0  0  0  0  0  0
   -7.9888    0.1563   -1.0794 C   0  0  0  0  0  0  0  0  0  0  0  0
   -6.6398    0.2614   -1.0224 C   0  0  0  0  0  0  0  0  0  0  0  0
   -1.5020    0.6547   -0.7212 C   0  0  0  0  0  0  0  0  0  0  0  0
   -1.6547    2.1067   -0.9998 C   0  0  0  0  0  0  0  0  0  0  0  0
   -0.4339   -0.0523   -1.2851 C   0  0  0  0  0  0  0  0  0  0  0  0
    0.4277    0.5629   -1.9547 O   0  0  0  0  0  0  0  0  0  0  0  0
    3.1851   -2.1130   -1.5067 C   0  0  0  0  0  0  0  0  0  0  0  0
    4.3324   -1.6810   -0.8422 C   0  0  0  0  0  0  0  0  0  0  0  0
    8.4393    1.4462    0.5441 H   0  0  0  0  0  0  0  0  0  0  0  0
    7.5860    0.5021   -0.7824 H   0  0  0  0  0  0  0  0  0  0  0  0
    8.0820    2.1731   -1.0599 H   0  0  0  0  0  0  0  0  0  0  0  0
    6.0832    2.8388   -0.3391 H   0  0  0  0  0  0  0  0  0  0  0  0
    6.4622    2.3640    1.3224 H   0  0  0  0  0  0  0  0  0  0  0  0
    5.0069    0.7495   -0.8671 H   0  0  0  0  0  0  0  0  0  0  0  0
    4.3845    1.4042    0.6521 H   0  0  0  0  0  0  0  0  0  0  0  0
    6.3499   -0.9449    0.5800 H   0  0  0  0  0  0  0  0  0  0  0  0
    5.3712   -0.3334    1.9629 H   0  0  0  0  0  0  0  0  0  0  0  0
    2.9496   -0.3575    1.9024 H   0  0  0  0  0  0  0  0  0  0  0  0
    0.8778   -1.1218    0.7825 H   0  0  0  0  0  0  0  0  0  0  0  0
    0.9864   -1.7288   -2.7290 H   0  0  0  0  0  0  0  0  0  0  0  0
    0.5017   -3.2165   -1.8383 H   0  0  0  0  0  0  0  0  0  0  0  0
   -3.0320   -1.9441    0.7453 H   0  0  0  0  0  0  0  0  0  0  0  0
   -3.4378    0.0788    1.8472 H   0  0  0  0  0  0  0  0  0  0  0  0
   -3.2618    1.6393    1.0022 H   0  0  0  0  0  0  0  0  0  0  0  0
   -6.1532    0.0526    2.2881 H   0  0  0  0  0  0  0  0  0  0  0  0
   -8.6494   -0.1206    2.2244 H   0  0  0  0  0  0  0  0  0  0  0  0
   -9.8017   -0.0534    0.0613 H   0  0  0  0  0  0  0  0  0  0  0  0
   -8.5267    0.1706   -2.0395 H   0  0  0  0  0  0  0  0  0  0  0  0
   -6.0953    0.3838   -1.9450 H   0  0  0  0  0  0  0  0  0  0  0  0
   -0.6933    2.5401   -1.3123 H   0  0  0  0  0  0  0  0  0  0  0  0
   -2.1140    2.6940   -0.2179 H   0  0  0  0  0  0  0  0  0  0  0  0
   -2.3615    2.1589   -1.9010 H   0  0  0  0  0  0  0  0  0  0  0  0
    3.2575   -2.6047   -2.4599 H   0  0  0  0  0  0  0  0  0  0  0  0
    5.3175   -1.8535   -1.2794 H   0  0  0  0  0  0  0  0  0  0  0  0
  1  2  1  0
  2  3  1  0
  3  4  1  0
  4  5  1  0
  5  6  2  0
  6  7  1  0
  7  8  2  0
  8  9  1  0
  9 10  1  0
 10 11  1  0
 11 12  2  0
 12 13  1  0
 13 14  1  0
 14 15  1  0
 15 16  1  0
 16 17  2  0
 17 18  1  0
 18 19  2  0
 19 20  1  0
 20 21  2  0
 13 22  2  0
 22 23  1  0
 22 24  1  0
 24 25  2  0
  8 26  1  0
 26 27  2  0
 27  5  1  0
 24 10  1  0
 21 16  1  0
  1 28  1  0
  1 29  1  0
  1 30  1  0
  2 31  1  0
  2 32  1  0
  3 33  1  0
  3 34  1  0
  4 35  1  0
  4 36  1  0
  6 37  1  0
  7 38  1  0
  9 39  1  0
  9 40  1  0
 12 41  1  0
 14 42  1  0
 14 43  1  0
 17 44  1  0
 18 45  1  0
 19 46  1  0
 20 47  1  0
 21 48  1  0
 23 49  1  0
 23 50  1  0
 23 51  1  0
 26 52  1  0
 27 53  1  0
M  END
$$$$
[H]c1c([H])c([H])c2c(c(-c3c([H])c4c(n3[H])C([H])([H])C([H])([H])N([H])C4=O)nn2[H])c1[H]
     RDKit          3D

 31 34  0  0  0  0  0  0  0  0999 V2000
    2.8717   -2.9336    0.6122 O   0  0  0  0  0  0  0  0  0  0  0  0
    3.1461   -1.7282    0.4181 C   0  0  0  0  0  0  0  0  0  0  0  0
    4.5053   -1.2412    0.3832 N   0  0  0  0  0  0  0  0  0  0  0  0
    4.6673    0.1331    0.7402 C   0  0  0  0  0  0  0  0  0  0  0  0
    3.7665    1.0150   -0.0503 C   0  0  0  0  0  0  0  0  0  0  0  0
    2.3438    0.5626    0.0013 C   0  0  0  0  0  0  0  0  0  0  0  0
    1.1780    1.2167   -0.1368 N   0  0  0  0  0  0  0  0  0  0  0  0
    0.1140    0.3782   -0.0220 C   0  0  0  0  0  0  0  0  0  0  0  0
    0.6709   -0.8484    0.1975 C   0  0  0  0  0  0  0  0  0  0  0  0
    2.0743   -0.7586    0.2169 C   0  0  0  0  0  0  0  0  0  0  0  0
   -1.2845    0.7800   -0.1231 C   0  0  0  0  0  0  0  0  0  0  0  0
   -1.6583    2.0824   -0.3506 N   0  0  0  0  0  0  0  0  0  0  0  0
   -2.9392    2.2213   -0.4044 N   0  0  0  0  0  0  0  0  0  0  0  0
   -3.4983    1.0088   -0.2142 C   0  0  0  0  0  0  0  0  0  0  0  0
   -4.7999    0.5689   -0.1714 C   0  0  0  0  0  0  0  0  0  0  0  0
   -5.0836   -0.7524    0.0436 C   0  0  0  0  0  0  0  0  0  0  0  0
   -4.0560   -1.6543    0.2194 C   0  0  0  0  0  0  0  0  0  0  0  0
   -2.7450   -1.2062    0.1754 C   0  0  0  0  0  0  0  0  0  0  0  0
   -2.4596    0.1129   -0.0392 C   0  0  0  0  0  0  0  0  0  0  0  0
    5.2578   -1.8888    0.1127 H   0  0  0  0  0  0  0  0  0  0  0  0
    4.4023    0.2333    1.8201 H   0  0  0  0  0  0  0  0  0  0  0  0
    5.7107    0.4833    0.6302 H   0  0  0  0  0  0  0  0  0  0  0  0
    4.1169    0.9673   -1.1229 H   0  0  0  0  0  0  0  0  0  0  0  0
    3.8497    2.0797    0.2696 H   0  0  0  0  0  0  0  0  0  0  0  0
    1.0973    2.2474   -0.3117 H   0  0  0  0  0  0  0  0  0  0  0  0
    0.1778   -1.8047    0.3458 H   0  0  0  0  0  0  0  0  0  0  0  0
   -3.4558    3.1064   -0.5652 H   0  0  0  0  0  0  0  0  0  0  0  0
   -5.5893    1.3148   -0.3153 H   0  0  0  0  0  0  0  0  0  0  0  0
   -6.1215   -1.0722    0.0725 H   0  0  0  0  0  0  0  0  0  0  0  0
   -4.2920   -2.7086    0.3906 H   0  0  0  0  0  0  0  0  0  0  0  0
   -1.9675   -1.9150    0.3128 H   0  0  0  0  0  0  0  0  0  0  0  0
  1  2  2  0
  2  3  1  0
  3  4  1  0
  4  5  1  0
  5  6  1  0
  6  7  1  0
  7  8  1  0
  8  9  2  0
  9 10  1  0
  8 11  1  0
 11 12  2  0
 12 13  1  0
 13 14  1  0
 14 15  2  0
 15 16  1  0
 16 17  2  0
 17 18  1  0
 18 19  2  0
 10  2  1  0
 19 11  1  0
 10  6  2  0
 19 14  1  0
  3 20  1  0
  4 21  1  0
  4 22  1  0
  5 23  1  0
  5 24  1  0
  7 25  1  0
  9 26  1  0
 13 27  1  0
 15 28  1  0
 16 29  1  0
 17 30  1  0
 18 31  1  0
M  END
$$$$
[H]N=C(N([H])[H])N(C([H])([H])C([H])([H])N([H])S(=O)(=O)c1c([H])c([H])c(-c2c([H])c([H])c([H])c3c(OC([H])([H])[H])c([H])c([H])c([H])c23)c([H])c1[H])C([H])([H])C([H])(C([H])([H])[H])C([H])([H])[H]
     RDKit          3D

 62 64  0  0  0  0  0  0  0  0999 V2000
    9.3408    1.2231   -0.5892 C   0  0  0  0  0  0  0  0  0  0  0  0
    8.0164    1.5529   -0.3039 O   0  0  0  0  0  0  0  0  0  0  0  0
    7.0181    0.5956   -0.2827 C   0  0  0  0  0  0  0  0  0  0  0  0
    7.2329   -0.7327   -0.5334 C   0  0  0  0  0  0  0  0  0  0  0  0
    6.2115   -1.6485   -0.5007 C   0  0  0  0  0  0  0  0  0  0  0  0
    4.9270   -1.2444   -0.2104 C   0  0  0  0  0  0  0  0  0  0  0  0
    4.6873    0.0888    0.0446 C   0  0  0  0  0  0  0  0  0  0  0  0
    3.4101    0.5069    0.3450 C   0  0  0  0  0  0  0  0  0  0  0  0
    3.2152    1.8725    0.6103 C   0  0  0  0  0  0  0  0  0  0  0  0
    4.2378    2.7836    0.5783 C   0  0  0  0  0  0  0  0  0  0  0  0
    5.5065    2.3661    0.2779 C   0  0  0  0  0  0  0  0  0  0  0  0
    5.7342    1.0189    0.0104 C   0  0  0  0  0  0  0  0  0  0  0  0
    2.2508   -0.3783    0.3643 C   0  0  0  0  0  0  0  0  0  0  0  0
    1.5200   -0.4006    1.5374 C   0  0  0  0  0  0  0  0  0  0  0  0
    0.3810   -1.1557    1.6933 C   0  0  0  0  0  0  0  0  0  0  0  0
   -0.0399   -1.9185    0.6277 C   0  0  0  0  0  0  0  0  0  0  0  0
    0.6855   -1.9005   -0.5468 C   0  0  0  0  0  0  0  0  0  0  0  0
    1.8185   -1.1426   -0.6858 C   0  0  0  0  0  0  0  0  0  0  0  0
   -1.4820   -2.8829    0.8119 S   0  0  0  0  0  0  0  0  0  0  0  0
   -1.3618   -4.1521   -0.0063 O   0  0  0  0  0  0  0  0  0  0  0  0
   -1.6148   -3.3078    2.2424 O   0  0  0  0  0  0  0  0  0  0  0  0
   -2.8580   -1.9638    0.3354 N   0  0  0  0  0  0  0  0  0  0  0  0
   -2.7883   -1.5712   -1.0547 C   0  0  0  0  0  0  0  0  0  0  0  0
   -3.9969   -0.7755   -1.4451 C   0  0  0  0  0  0  0  0  0  0  0  0
   -4.1493    0.4184   -0.6814 N   0  0  0  0  0  0  0  0  0  0  0  0
   -5.3159    1.2688   -1.0044 C   0  0  0  0  0  0  0  0  0  0  0  0
   -6.6188    0.6300   -0.6831 C   0  0  0  0  0  0  0  0  0  0  0  0
   -7.7967    1.5248   -1.0273 C   0  0  0  0  0  0  0  0  0  0  0  0
   -6.7054    0.1116    0.7144 C   0  0  0  0  0  0  0  0  0  0  0  0
   -3.2412    0.8320    0.3245 C   0  0  0  0  0  0  0  0  0  0  0  0
   -3.5321    0.8689    1.7070 N   0  0  0  0  0  0  0  0  0  0  0  0
   -2.0556    1.2165   -0.0923 N   0  0  0  0  0  0  0  0  0  0  0  0
    9.9959    2.0508   -0.2016 H   0  0  0  0  0  0  0  0  0  0  0  0
    9.6609    0.2820   -0.0942 H   0  0  0  0  0  0  0  0  0  0  0  0
    9.5255    1.1435   -1.6759 H   0  0  0  0  0  0  0  0  0  0  0  0
    8.2588   -1.0408   -0.7635 H   0  0  0  0  0  0  0  0  0  0  0  0
    6.3907   -2.6949   -0.6994 H   0  0  0  0  0  0  0  0  0  0  0  0
    4.1182   -1.9959   -0.1741 H   0  0  0  0  0  0  0  0  0  0  0  0
    2.2047    2.1641    0.8427 H   0  0  0  0  0  0  0  0  0  0  0  0
    4.0116    3.8184    0.7936 H   0  0  0  0  0  0  0  0  0  0  0  0
    6.3342    3.0584    0.2434 H   0  0  0  0  0  0  0  0  0  0  0  0
    1.8324    0.2005    2.4093 H   0  0  0  0  0  0  0  0  0  0  0  0
   -0.1840   -1.1559    2.6405 H   0  0  0  0  0  0  0  0  0  0  0  0
    0.3024   -2.5289   -1.3637 H   0  0  0  0  0  0  0  0  0  0  0  0
    2.3689   -1.1420   -1.6063 H   0  0  0  0  0  0  0  0  0  0  0  0
   -3.7539   -2.4012    0.5828 H   0  0  0  0  0  0  0  0  0  0  0  0
   -2.7245   -2.5060   -1.6716 H   0  0  0  0  0  0  0  0  0  0  0  0
   -1.8808   -0.9947   -1.3097 H   0  0  0  0  0  0  0  0  0  0  0  0
   -3.8982   -0.4984   -2.5356 H   0  0  0  0  0  0  0  0  0  0  0  0
   -4.9268   -1.3996   -1.4076 H   0  0  0  0  0  0  0  0  0  0  0  0
   -5.2318    1.5754   -2.0669 H   0  0  0  0  0  0  0  0  0  0  0  0
   -5.2187    2.2272   -0.4238 H   0  0  0  0  0  0  0  0  0  0  0  0
   -6.7164   -0.2602   -1.3653 H   0  0  0  0  0  0  0  0  0  0  0  0
   -7.7220    2.5272   -0.6036 H   0  0  0  0  0  0  0  0  0  0  0  0
   -8.6970    1.0097   -0.6414 H   0  0  0  0  0  0  0  0  0  0  0  0
   -7.8599    1.5195   -2.1397 H   0  0  0  0  0  0  0  0  0  0  0  0
   -6.5350    0.9032    1.4699 H   0  0  0  0  0  0  0  0  0  0  0  0
   -5.9760   -0.6941    0.8940 H   0  0  0  0  0  0  0  0  0  0  0  0
   -7.7412   -0.2676    0.9542 H   0  0  0  0  0  0  0  0  0  0  0  0
   -3.2869    1.7749    2.1970 H   0  0  0  0  0  0  0  0  0  0  0  0
   -3.9577    0.0876    2.2429 H   0  0  0  0  0  0  0  0  0  0  0  0
   -1.3303    1.5336    0.5639 H   0  0  0  0  0  0  0  0  0  0  0  0
  1  2  1  0
  2  3  1  0
  3  4  2  0
  4  5  1  0
  5  6  2  0
  6  7  1  0
  7  8  2  0
  8  9  1  0
  9 10  2  0
 10 11  1  0
 11 12  2  0
  8 13  1  0
 13 14  2  0
 14 15  1  0
 15 16  2  0
 16 17  1  0
 17 18  2  0
 16 19  1  0
 19 20  2  0
 19 21  2  0
 19 22  1  0
 22 23  1  0
 23 24  1  0
 24 25  1  0
 25 26  1  0
 26 27  1  0
 27 28  1  0
 27 29  1  0
 25 30  1  0
 30 31  1  0
 30 32  2  3
 12  3  1  0
 18 13  1  0
 12  7  1  0
  1 33  1  0
  1 34  1  0
  1 35  1  0
  4 36  1  0
  5 37  1  0
  6 38  1  0
  9 39  1  0
 10 40  1  0
 11 41  1  0
 14 42  1  0
 15 43  1  0
 17 44  1  0
 18 45  1  0
 22 46  1  0
 23 47  1  0
 23 48  1  0
 24 49  1  0
 24 50  1  0
 26 51  1  0
 26 52  1  0
 27 53  1  0
 28 54  1  0
 28 55  1  0
 28 56  1  0
 29 57  1  0
 29 58  1  0
 29 59  1  0
 31 60  1  0
 31 61  1  0
 32 62  1  0
M  END
$$$$
[H]c1c([H])c([H])c(-c2c([H])c([H])c(C(=O)N([H])[H])c3[se]c(C([H])([H])[H])c(-c4nn(C([H])([H])[H])c5c([H])c([H])c([H])c([H])c45)c23)c([H])c1[H]
     RDKit          3D

 48 52  0  0  0  0  0  0  0  0999 V2000
    1.5687   -1.8706   -2.9323 C   0  0  0  0  0  0  0  0  0  0  0  0
    0.3809   -1.2276   -2.4417 C   0  0  0  0  0  0  0  0  0  0  0  0
   -1.4602   -1.2875   -3.6038 Se  0  0  0  0  0  2  0  0  0  0  0  0
   -2.3181   -0.1698   -2.1015 C   0  0  0  0  0  0  0  0  0  0  0  0
   -3.6026    0.2705   -2.0963 C   0  0  0  0  0  0  0  0  0  0  0  0
   -3.9916    1.0189   -1.0349 C   0  0  0  0  0  0  0  0  0  0  0  0
   -3.0693    1.2588   -0.0765 C   0  0  0  0  0  0  0  0  0  0  0  0
   -1.7416    0.7797   -0.1200 C   0  0  0  0  0  0  0  0  0  0  0  0
   -1.0353    1.1279    1.0779 C   0  0  0  0  0  0  0  0  0  0  0  0
   -0.6982    2.4838    1.2859 C   0  0  0  0  0  0  0  0  0  0  0  0
   -0.1506    2.9325    2.4593 C   0  0  0  0  0  0  0  0  0  0  0  0
    0.0987    2.0710    3.5010 C   0  0  0  0  0  0  0  0  0  0  0  0
   -0.2201    0.7432    3.3262 C   0  0  0  0  0  0  0  0  0  0  0  0
   -0.7700    0.2992    2.1451 C   0  0  0  0  0  0  0  0  0  0  0  0
   -1.2892   -0.0043   -1.2134 C   0  0  0  0  0  0  0  0  0  0  0  0
   -0.0655   -0.4966   -1.3926 C   0  0  0  0  0  0  0  0  0  0  0  0
    1.1507   -0.2957   -0.4720 C   0  0  0  0  0  0  0  0  0  0  0  0
    1.8552    0.8172   -0.4537 N   0  0  0  0  0  0  0  0  0  0  0  0
    2.9285    0.6513    0.3390 N   0  0  0  0  0  0  0  0  0  0  0  0
    3.9711    1.5991    0.6531 C   0  0  0  0  0  0  0  0  0  0  0  0
    2.9037   -0.6121    0.8414 C   0  0  0  0  0  0  0  0  0  0  0  0
    3.6983   -1.3569    1.6788 C   0  0  0  0  0  0  0  0  0  0  0  0
    3.3771   -2.6639    1.9934 C   0  0  0  0  0  0  0  0  0  0  0  0
    2.2409   -3.2394    1.4625 C   0  0  0  0  0  0  0  0  0  0  0  0
    1.4429   -2.4917    0.6220 C   0  0  0  0  0  0  0  0  0  0  0  0
    1.7662   -1.2026    0.3160 C   0  0  0  0  0  0  0  0  0  0  0  0
   -4.4590   -0.0861   -3.2089 C   0  0  0  0  0  0  0  0  0  0  0  0
   -5.7909    0.3972   -3.1721 N   0  0  0  0  0  0  0  0  0  0  0  0
   -4.0906   -0.7756   -4.1656 O   0  0  0  0  0  0  0  0  0  0  0  0
    2.4900   -1.2397   -2.7487 H   0  0  0  0  0  0  0  0  0  0  0  0
    1.6711   -2.8873   -2.5033 H   0  0  0  0  0  0  0  0  0  0  0  0
    1.5761   -1.9989   -4.0417 H   0  0  0  0  0  0  0  0  0  0  0  0
   -5.0052    1.3848   -1.0023 H   0  0  0  0  0  0  0  0  0  0  0  0
   -3.3857    1.8581    0.7674 H   0  0  0  0  0  0  0  0  0  0  0  0
   -0.8882    3.1710    0.4778 H   0  0  0  0  0  0  0  0  0  0  0  0
    0.1092    3.9835    2.6169 H   0  0  0  0  0  0  0  0  0  0  0  0
    0.5298    2.4111    4.4316 H   0  0  0  0  0  0  0  0  0  0  0  0
   -0.0193    0.0589    4.1603 H   0  0  0  0  0  0  0  0  0  0  0  0
   -1.0103   -0.7744    2.0495 H   0  0  0  0  0  0  0  0  0  0  0  0
    4.9391    1.1037    0.8478 H   0  0  0  0  0  0  0  0  0  0  0  0
    3.6273    2.1921    1.5263 H   0  0  0  0  0  0  0  0  0  0  0  0
    4.1113    2.2791   -0.2182 H   0  0  0  0  0  0  0  0  0  0  0  0
    4.5925   -0.8734    2.0842 H   0  0  0  0  0  0  0  0  0  0  0  0
    4.0293   -3.2331    2.6624 H   0  0  0  0  0  0  0  0  0  0  0  0
    2.0243   -4.2648    1.7325 H   0  0  0  0  0  0  0  0  0  0  0  0
    0.5639   -2.9884    0.2324 H   0  0  0  0  0  0  0  0  0  0  0  0
   -6.3809    0.2625   -2.3052 H   0  0  0  0  0  0  0  0  0  0  0  0
   -6.2046    0.8855   -3.9858 H   0  0  0  0  0  0  0  0  0  0  0  0
  1  2  1  0
  2  3  1  0
  3  4  1  0
  4  5  2  0
  5  6  1  0
  6  7  2  0
  7  8  1  0
  8  9  1  0
  9 10  2  0
 10 11  1  0
 11 12  2  0
 12 13  1  0
 13 14  2  0
  8 15  2  0
 15 16  1  0
 16 17  1  0
 17 18  2  0
 18 19  1  0
 19 20  1  0
 19 21  1  0
 21 22  2  0
 22 23  1  0
 23 24  2  0
 24 25  1  0
 25 26  2  0
  5 27  1  0
 27 28  1  0
 27 29  2  0
 16  2  2  0
 26 17  1  0
 15  4  1  0
 26 21  1  0
 14  9  1  0
  1 30  1  0
  1 31  1  0
  1 32  1  0
  6 33  1  0
  7 34  1  0
 10 35  1  0
 11 36  1  0
 12 37  1  0
 13 38  1  0
 14 39  1  0
 20 40  1  0
 20 41  1  0
 20 42  1  0
 22 43  1  0
 23 44  1  0
 24 45  1  0
 25 46  1  0
 28 47  1  0
 28 48  1  0
M  END
$$$$
[H]Oc1c([H])c([H])c(-c2oc(-c3c([H])c([H])c(O[H])c(F)c3[H])c(-c3c([H])c([H])c([H])c([H])c3[H])c2[C@@]([H])(O[H])C([H])([H])[H])c([H])c1[H]
     RDKit          3D

 48 51  0  0  0  0  0  0  0  0999 V2000
    1.0576   -3.1399    0.5231 C   0  0  0  0  0  0  0  0  0  0  0  0
    1.8317   -1.9375    0.0587 C   0  0  2  0  0  0  0  0  0  0  0  0
    2.7801   -1.7179    1.1092 O   0  0  0  0  0  0  0  0  0  0  0  0
    1.0382   -0.7026   -0.1051 C   0  0  0  0  0  0  0  0  0  0  0  0
    1.5993    0.5435   -0.3317 C   0  0  0  0  0  0  0  0  0  0  0  0
    0.5640    1.4240   -0.3627 O   0  0  0  0  0  0  0  0  0  0  0  0
   -0.5519    0.8192   -0.1799 C   0  0  0  0  0  0  0  0  0  0  0  0
   -0.3164   -0.5576   -0.0084 C   0  0  0  0  0  0  0  0  0  0  0  0
   -1.4020   -1.4786    0.2020 C   0  0  0  0  0  0  0  0  0  0  0  0
   -1.8285   -2.3390   -0.8124 C   0  0  0  0  0  0  0  0  0  0  0  0
   -2.8899   -3.1944   -0.6742 C   0  0  0  0  0  0  0  0  0  0  0  0
   -3.5850   -3.2287    0.5057 C   0  0  0  0  0  0  0  0  0  0  0  0
   -3.1734   -2.3864    1.5090 C   0  0  0  0  0  0  0  0  0  0  0  0
   -2.1152   -1.5238    1.3914 C   0  0  0  0  0  0  0  0  0  0  0  0
   -1.8821    1.4062   -0.1451 C   0  0  0  0  0  0  0  0  0  0  0  0
   -2.8347    1.1535   -1.1087 C   0  0  0  0  0  0  0  0  0  0  0  0
   -4.0635    1.7428   -1.0011 C   0  0  0  0  0  0  0  0  0  0  0  0
   -4.4258    2.5899    0.0244 C   0  0  0  0  0  0  0  0  0  0  0  0
   -5.6845    3.1723    0.1045 O   0  0  0  0  0  0  0  0  0  0  0  0
   -3.4651    2.8347    0.9816 C   0  0  0  0  0  0  0  0  0  0  0  0
   -3.7908    3.6726    2.0164 F   0  0  0  0  0  0  0  0  0  0  0  0
   -2.2202    2.2556    0.8988 C   0  0  0  0  0  0  0  0  0  0  0  0
    2.9669    1.0033   -0.5140 C   0  0  0  0  0  0  0  0  0  0  0  0
    4.0264    0.2446   -0.8798 C   0  0  0  0  0  0  0  0  0  0  0  0
    5.3350    0.7236   -0.9755 C   0  0  0  0  0  0  0  0  0  0  0  0
    5.5855    2.0396   -0.6884 C   0  0  0  0  0  0  0  0  0  0  0  0
    6.8838    2.5458   -0.7757 O   0  0  0  0  0  0  0  0  0  0  0  0
    4.5105    2.8274   -0.3151 C   0  0  0  0  0  0  0  0  0  0  0  0
    3.2464    2.3546   -0.2240 C   0  0  0  0  0  0  0  0  0  0  0  0
    0.4374   -2.9991    1.3868 H   0  0  0  0  0  0  0  0  0  0  0  0
    0.6865   -3.7926   -0.2930 H   0  0  0  0  0  0  0  0  0  0  0  0
    1.9041   -3.8365    0.9442 H   0  0  0  0  0  0  0  0  0  0  0  0
    2.3601   -2.2150   -0.9018 H   0  0  0  0  0  0  0  0  0  0  0  0
    2.4300   -1.0683    1.7462 H   0  0  0  0  0  0  0  0  0  0  0  0
   -1.2652   -2.3015   -1.7477 H   0  0  0  0  0  0  0  0  0  0  0  0
   -3.1359   -3.8216   -1.5294 H   0  0  0  0  0  0  0  0  0  0  0  0
   -4.4155   -3.9121    0.5851 H   0  0  0  0  0  0  0  0  0  0  0  0
   -3.7663   -2.4553    2.4352 H   0  0  0  0  0  0  0  0  0  0  0  0
   -1.8297   -0.8859    2.1985 H   0  0  0  0  0  0  0  0  0  0  0  0
   -2.5605    0.4933   -1.9179 H   0  0  0  0  0  0  0  0  0  0  0  0
   -4.8193    1.5384   -1.7716 H   0  0  0  0  0  0  0  0  0  0  0  0
   -6.3994    3.0185   -0.5656 H   0  0  0  0  0  0  0  0  0  0  0  0
   -1.4875    2.4638    1.6603 H   0  0  0  0  0  0  0  0  0  0  0  0
    3.8984   -0.7851   -1.1664 H   0  0  0  0  0  0  0  0  0  0  0  0
    6.1031    0.0223   -1.2765 H   0  0  0  0  0  0  0  0  0  0  0  0
    7.5030    2.5302    0.0123 H   0  0  0  0  0  0  0  0  0  0  0  0
    4.7452    3.8755   -0.0931 H   0  0  0  0  0  0  0  0  0  0  0  0
    2.4149    2.9842    0.0719 H   0  0  0  0  0  0  0  0  0  0  0  0
  1  2  1  0
  2  3  1  0
  2  4  1  0
  4  5  2  0
  5  6  1  0
  6  7  1  0
  7  8  2  0
  8  9  1  0
  9 10  2  0
 10 11  1  0
 11 12  2  0
 12 13  1  0
 13 14  2  0
  7 15  1  0
 15 16  2  0
 16 17  1  0
 17 18  2  0
 18 19  1  0
 18 20  1  0
 20 21  1  0
 20 22  2  0
  5 23  1  0
 23 24  2  0
 24 25  1  0
 25 26  2  0
 26 27  1  0
 26 28  1  0
 28 29  2  0
  8  4  1  0
 14  9  1  0
 22 15  1  0
 29 23  1  0
  1 30  1  0
  1 31  1  0
  1 32  1  0
  2 33  1  6
  3 34  1  0
 10 35  1  0
 11 36  1  0
 12 37  1  0
 13 38  1  0
 14 39  1  0
 16 40  1  0
 17 41  1  0
 19 42  1  0
 22 43  1  0
 24 44  1  0
 25 45  1  0
 27 46  1  0
 28 47  1  0
 29 48  1  0
M  END
$$$$
[H]c1c(-c2c([H])c([H])c([H])c([H])c2[H])nc(N2C([H])([H])C([H])([H])[C@]3([H])C([H])([H])C([H])([H])[C@]3([H])C2([H])[H])c([H])c1[H]
     RDKit          3D

 40 43  0  0  0  0  0  0  0  0999 V2000
   -4.9913    1.1546    0.4494 C   0  0  0  0  0  0  0  0  0  0  0  0
   -4.6927   -0.0740   -0.3830 C   0  0  0  0  0  0  0  0  0  0  0  0
   -3.5754    0.7435   -1.0478 C   0  0  2  0  0  0  0  0  0  0  0  0
   -2.4093   -0.1148   -1.3276 C   0  0  0  0  0  0  0  0  0  0  0  0
   -1.2173    0.1578   -0.6117 N   0  0  0  0  0  0  0  0  0  0  0  0
   -1.1920    1.0759    0.4897 C   0  0  0  0  0  0  0  0  0  0  0  0
   -2.5638    1.0894    1.1803 C   0  0  0  0  0  0  0  0  0  0  0  0
   -3.5427    1.5822    0.1717 C   0  0  2  0  0  0  0  0  0  0  0  0
   -0.0083   -0.4962   -0.9903 C   0  0  0  0  0  0  0  0  0  0  0  0
    1.1528   -0.2597   -0.3717 N   0  0  0  0  0  0  0  0  0  0  0  0
    2.3319   -0.8367   -0.6703 C   0  0  0  0  0  0  0  0  0  0  0  0
    2.3237   -1.7434   -1.7013 C   0  0  0  0  0  0  0  0  0  0  0  0
    1.1556   -2.0519   -2.4037 C   0  0  0  0  0  0  0  0  0  0  0  0
    0.0095   -1.4178   -2.0303 C   0  0  0  0  0  0  0  0  0  0  0  0
    3.5477   -0.5148    0.0615 C   0  0  0  0  0  0  0  0  0  0  0  0
    4.7743   -1.0655   -0.1933 C   0  0  0  0  0  0  0  0  0  0  0  0
    5.9051   -0.7108    0.5500 C   0  0  0  0  0  0  0  0  0  0  0  0
    5.8251    0.2069    1.5669 C   0  0  0  0  0  0  0  0  0  0  0  0
    4.5946    0.7700    1.8346 C   0  0  0  0  0  0  0  0  0  0  0  0
    3.4827    0.4174    1.0994 C   0  0  0  0  0  0  0  0  0  0  0  0
   -5.7448    1.7733   -0.0460 H   0  0  0  0  0  0  0  0  0  0  0  0
   -5.2027    0.9465    1.5087 H   0  0  0  0  0  0  0  0  0  0  0  0
   -5.4925   -0.3778   -1.0707 H   0  0  0  0  0  0  0  0  0  0  0  0
   -4.3025   -0.8816    0.2666 H   0  0  0  0  0  0  0  0  0  0  0  0
   -4.0386    1.2465   -1.9483 H   0  0  0  0  0  0  0  0  0  0  0  0
   -2.6415   -1.2096   -1.1899 H   0  0  0  0  0  0  0  0  0  0  0  0
   -2.1952   -0.0340   -2.4353 H   0  0  0  0  0  0  0  0  0  0  0  0
   -0.9794    2.0856    0.1113 H   0  0  0  0  0  0  0  0  0  0  0  0
   -0.4670    0.8045    1.2742 H   0  0  0  0  0  0  0  0  0  0  0  0
   -2.4573    1.7454    2.0476 H   0  0  0  0  0  0  0  0  0  0  0  0
   -2.8150    0.0510    1.4444 H   0  0  0  0  0  0  0  0  0  0  0  0
   -3.5512    2.6875   -0.0010 H   0  0  0  0  0  0  0  0  0  0  0  0
    3.2343   -2.2435   -1.9939 H   0  0  0  0  0  0  0  0  0  0  0  0
    1.1699   -2.7770   -3.2218 H   0  0  0  0  0  0  0  0  0  0  0  0
   -0.9357   -1.6231   -2.5471 H   0  0  0  0  0  0  0  0  0  0  0  0
    4.8853   -1.7981   -0.9909 H   0  0  0  0  0  0  0  0  0  0  0  0
    6.8597   -1.1559    0.3330 H   0  0  0  0  0  0  0  0  0  0  0  0
    6.6953    0.4918    2.1525 H   0  0  0  0  0  0  0  0  0  0  0  0
    4.5472    1.4966    2.6446 H   0  0  0  0  0  0  0  0  0  0  0  0
    2.5216    0.8598    1.3114 H   0  0  0  0  0  0  0  0  0  0  0  0
  1  2  1  0
  2  3  1  0
  3  4  1  0
  4  5  1  0
  5  6  1  0
  6  7  1  0
  7  8  1  0
  5  9  1  0
  9 10  2  0
 10 11  1  0
 11 12  2  0
 12 13  1  0
 13 14  2  0
 11 15  1  0
 15 16  2  0
 16 17  1  0
 17 18  2  0
 18 19  1  0
 19 20  2  0
  8  1  1  0
 14  9  1  0
 20 15  1  0
  8  3  1  0
  1 21  1  0
  1 22  1  0
  2 23  1  0
  2 24  1  0
  3 25  1  6
  4 26  1  0
  4 27  1  0
  6 28  1  0
  6 29  1  0
  7 30  1  0
  7 31  1  0
  8 32  1  6
 12 33  1  0
 13 34  1  0
 14 35  1  0
 16 36  1  0
 17 37  1  0
 18 38  1  0
 19 39  1  0
 20 40  1  0
M  END
$$$$
[H]c1nc2c([H])c([H])c(-c3c([H])nn4c([H])c(-c5c([H])c([H])c6nc(OC([H])([H])[H])sc6c5[H])c([H])nc34)c([H])c2c(C([H])([H])[H])c1[H]
     RDKit          3D

 48 53  0  0  0  0  0  0  0  0999 V2000
    9.9615    1.8019   -1.0932 C   0  0  0  0  0  0  0  0  0  0  0  0
    9.4566    1.0362   -0.0050 O   0  0  0  0  0  0  0  0  0  0  0  0
    8.0756    0.7475    0.0121 C   0  0  0  0  0  0  0  0  0  0  0  0
    7.4401   -0.3176   -0.4129 N   0  0  0  0  0  0  0  0  0  0  0  0
    6.1472   -0.4081   -0.3131 C   0  0  0  0  0  0  0  0  0  0  0  0
    5.3563   -1.4931   -0.7298 C   0  0  0  0  0  0  0  0  0  0  0  0
    4.0132   -1.4626   -0.5677 C   0  0  0  0  0  0  0  0  0  0  0  0
    3.3154   -0.4167   -0.0052 C   0  0  0  0  0  0  0  0  0  0  0  0
    4.0913    0.6571    0.4080 C   0  0  0  0  0  0  0  0  0  0  0  0
    5.4821    0.6469    0.2501 C   0  0  0  0  0  0  0  0  0  0  0  0
    6.7780    1.7140    0.6036 S   0  0  0  0  0  0  0  0  0  0  0  0
    1.8753   -0.4212    0.1547 C   0  0  0  0  0  0  0  0  0  0  0  0
    1.0787    0.6818    0.1175 C   0  0  0  0  0  0  0  0  0  0  0  0
   -0.2467    0.5301    0.2825 N   0  0  0  0  0  0  0  0  0  0  0  0
   -0.8180   -0.6802    0.4844 C   0  0  0  0  0  0  0  0  0  0  0  0
   -2.1335   -1.0491    0.6736 C   0  0  0  0  0  0  0  0  0  0  0  0
   -2.1222   -2.4162    0.8287 C   0  0  0  0  0  0  0  0  0  0  0  0
   -0.8507   -2.8083    0.7314 N   0  0  0  0  0  0  0  0  0  0  0  0
   -0.0550   -1.7770    0.5246 N   0  0  0  0  0  0  0  0  0  0  0  0
    1.2829   -1.6480    0.3608 C   0  0  0  0  0  0  0  0  0  0  0  0
   -3.3196   -0.1754    0.7058 C   0  0  0  0  0  0  0  0  0  0  0  0
   -3.2987    1.0042    1.4163 C   0  0  0  0  0  0  0  0  0  0  0  0
   -4.4343    1.8229    1.4405 C   0  0  0  0  0  0  0  0  0  0  0  0
   -5.5813    1.4646    0.7596 C   0  0  0  0  0  0  0  0  0  0  0  0
   -6.6705    2.2539    0.7859 N   0  0  0  0  0  0  0  0  0  0  0  0
   -7.8187    1.9625    0.1452 C   0  0  0  0  0  0  0  0  0  0  0  0
   -7.8471    0.7779   -0.5712 C   0  0  0  0  0  0  0  0  0  0  0  0
   -6.7543   -0.0581   -0.6241 C   0  0  0  0  0  0  0  0  0  0  0  0
   -6.7800   -1.3271   -1.3899 C   0  0  0  0  0  0  0  0  0  0  0  0
   -5.5991    0.2782    0.0463 C   0  0  0  0  0  0  0  0  0  0  0  0
   -4.4717   -0.5274    0.0265 C   0  0  0  0  0  0  0  0  0  0  0  0
   10.6887    1.1870   -1.6926 H   0  0  0  0  0  0  0  0  0  0  0  0
    9.1540    2.0640   -1.8138 H   0  0  0  0  0  0  0  0  0  0  0  0
   10.4055    2.7552   -0.7555 H   0  0  0  0  0  0  0  0  0  0  0  0
    5.8118   -2.3831   -1.1930 H   0  0  0  0  0  0  0  0  0  0  0  0
    3.4302   -2.3308   -0.9069 H   0  0  0  0  0  0  0  0  0  0  0  0
    3.6704    1.5240    0.8565 H   0  0  0  0  0  0  0  0  0  0  0  0
    1.5532    1.6447   -0.0452 H   0  0  0  0  0  0  0  0  0  0  0  0
   -3.0287   -2.9842    0.9953 H   0  0  0  0  0  0  0  0  0  0  0  0
    1.8565   -2.5771    0.4032 H   0  0  0  0  0  0  0  0  0  0  0  0
   -2.3956    1.2749    1.9456 H   0  0  0  0  0  0  0  0  0  0  0  0
   -4.3832    2.7433    2.0089 H   0  0  0  0  0  0  0  0  0  0  0  0
   -8.6857    2.6262    0.1870 H   0  0  0  0  0  0  0  0  0  0  0  0
   -8.7685    0.5431   -1.0861 H   0  0  0  0  0  0  0  0  0  0  0  0
   -6.3951   -2.1367   -0.7078 H   0  0  0  0  0  0  0  0  0  0  0  0
   -6.1590   -1.2414   -2.3054 H   0  0  0  0  0  0  0  0  0  0  0  0
   -7.8322   -1.6318   -1.6368 H   0  0  0  0  0  0  0  0  0  0  0  0
   -4.4752   -1.4710   -0.5364 H   0  0  0  0  0  0  0  0  0  0  0  0
  1  2  1  0
  2  3  1  0
  3  4  2  0
  4  5  1  0
  5  6  2  0
  6  7  1  0
  7  8  2  0
  8  9  1  0
  9 10  2  0
 10 11  1  0
  8 12  1  0
 12 13  1  0
 13 14  2  0
 14 15  1  0
 15 16  2  0
 16 17  1  0
 17 18  2  0
 18 19  1  0
 19 20  1  0
 16 21  1  0
 21 22  2  0
 22 23  1  0
 23 24  2  0
 24 25  1  0
 25 26  2  0
 26 27  1  0
 27 28  2  0
 28 29  1  0
 28 30  1  0
 30 31  2  0
 11  3  1  0
 20 12  2  0
 31 21  1  0
 10  5  1  0
 19 15  1  0
 30 24  1  0
  1 32  1  0
  1 33  1  0
  1 34  1  0
  6 35  1  0
  7 36  1  0
  9 37  1  0
 13 38  1  0
 17 39  1  0
 20 40  1  0
 22 41  1  0
 23 42  1  0
 26 43  1  0
 27 44  1  0
 29 45  1  0
 29 46  1  0
 29 47  1  0
 31 48  1  0
M  END
$$$$
[H]c1c([H])c([H])c(C(=O)n2nc(-c3c([H])c([H])c(OC([H])([H])[H])c([H])c3[H])c3c([H])c([H])c(-c4c([H])c(C#N)c([H])c(C([H])([H])[H])c4[H])c([H])c32)c(Cl)c1[H]
     RDKit          3D

 55 59  0  0  0  0  0  0  0  0999 V2000
   -6.5761   -4.3722   -0.2367 C   0  0  0  0  0  0  0  0  0  0  0  0
   -6.3542   -3.1703    0.4712 O   0  0  0  0  0  0  0  0  0  0  0  0
   -5.1999   -2.4125    0.3440 C   0  0  0  0  0  0  0  0  0  0  0  0
   -4.1540   -2.7668   -0.4928 C   0  0  0  0  0  0  0  0  0  0  0  0
   -3.0061   -1.9664   -0.5872 C   0  0  0  0  0  0  0  0  0  0  0  0
   -2.9133   -0.8216    0.1539 C   0  0  0  0  0  0  0  0  0  0  0  0
   -3.9464   -0.4640    0.9857 C   0  0  0  0  0  0  0  0  0  0  0  0
   -5.0966   -1.2574    1.0861 C   0  0  0  0  0  0  0  0  0  0  0  0
   -1.7320    0.0097    0.0692 C   0  0  0  0  0  0  0  0  0  0  0  0
   -1.6377    1.3353   -0.0881 N   0  0  0  0  0  0  0  0  0  0  0  0
   -0.3948    1.7664   -0.1160 N   0  0  0  0  0  0  0  0  0  0  0  0
    0.0615    3.1070   -0.2691 C   0  0  0  0  0  0  0  0  0  0  0  0
    1.2967    3.3789   -0.2700 O   0  0  0  0  0  0  0  0  0  0  0  0
   -0.8176    4.2591   -0.4333 C   0  0  0  0  0  0  0  0  0  0  0  0
   -2.0454    4.2099   -1.0451 C   0  0  0  0  0  0  0  0  0  0  0  0
   -2.8553    5.3348   -1.1725 C   0  0  0  0  0  0  0  0  0  0  0  0
   -2.4393    6.5530   -0.6787 C   0  0  0  0  0  0  0  0  0  0  0  0
   -1.2154    6.6276   -0.0631 C   0  0  0  0  0  0  0  0  0  0  0  0
   -0.4288    5.5127    0.0554 C   0  0  0  0  0  0  0  0  0  0  0  0
    1.1488    5.5957    0.8450 Cl  0  0  0  0  0  0  0  0  0  0  0  0
    0.4206    0.7054    0.0273 C   0  0  0  0  0  0  0  0  0  0  0  0
    1.7762    0.4755    0.0835 C   0  0  0  0  0  0  0  0  0  0  0  0
    2.3089   -0.8019    0.2503 C   0  0  0  0  0  0  0  0  0  0  0  0
    1.4528   -1.8670    0.3626 C   0  0  0  0  0  0  0  0  0  0  0  0
    0.0864   -1.6770    0.3109 C   0  0  0  0  0  0  0  0  0  0  0  0
   -0.4079   -0.4173    0.1465 C   0  0  0  0  0  0  0  0  0  0  0  0
    3.7447   -1.0211    0.3073 C   0  0  0  0  0  0  0  0  0  0  0  0
    4.2565   -2.2138   -0.1678 C   0  0  0  0  0  0  0  0  0  0  0  0
    5.6166   -2.4890   -0.1432 C   0  0  0  0  0  0  0  0  0  0  0  0
    6.0913   -3.8110   -0.6809 C   0  0  0  0  0  0  0  0  0  0  0  0
    6.4834   -1.5507    0.3680 C   0  0  0  0  0  0  0  0  0  0  0  0
    5.9996   -0.3398    0.8543 C   0  0  0  0  0  0  0  0  0  0  0  0
    4.6397   -0.0982    0.8146 C   0  0  0  0  0  0  0  0  0  0  0  0
    6.9453    0.5979    1.3741 C   0  0  0  0  0  0  0  0  0  0  0  0
    7.7129    1.3406    1.8060 N   0  0  0  0  0  0  0  0  0  0  0  0
   -7.5410   -4.7872    0.0915 H   0  0  0  0  0  0  0  0  0  0  0  0
   -6.5130   -4.1748   -1.3223 H   0  0  0  0  0  0  0  0  0  0  0  0
   -5.7754   -5.0806    0.1045 H   0  0  0  0  0  0  0  0  0  0  0  0
   -4.2375   -3.6755   -1.0751 H   0  0  0  0  0  0  0  0  0  0  0  0
   -2.2563   -2.3316   -1.2724 H   0  0  0  0  0  0  0  0  0  0  0  0
   -3.8952    0.4375    1.5814 H   0  0  0  0  0  0  0  0  0  0  0  0
   -5.9085   -0.9805    1.7366 H   0  0  0  0  0  0  0  0  0  0  0  0
   -2.4309    3.3126   -1.4545 H   0  0  0  0  0  0  0  0  0  0  0  0
   -3.8292    5.2774   -1.6619 H   0  0  0  0  0  0  0  0  0  0  0  0
   -3.0879    7.4389   -0.7840 H   0  0  0  0  0  0  0  0  0  0  0  0
   -0.8782    7.5693    0.3261 H   0  0  0  0  0  0  0  0  0  0  0  0
    2.4517    1.3166   -0.0047 H   0  0  0  0  0  0  0  0  0  0  0  0
    1.8249   -2.8743    0.4930 H   0  0  0  0  0  0  0  0  0  0  0  0
   -0.6031   -2.5247    0.4063 H   0  0  0  0  0  0  0  0  0  0  0  0
    3.5878   -2.9554   -0.5701 H   0  0  0  0  0  0  0  0  0  0  0  0
    7.1788   -3.7879   -0.7558 H   0  0  0  0  0  0  0  0  0  0  0  0
    5.5764   -3.9297   -1.6605 H   0  0  0  0  0  0  0  0  0  0  0  0
    5.6873   -4.6132   -0.0294 H   0  0  0  0  0  0  0  0  0  0  0  0
    7.5457   -1.7590    0.3908 H   0  0  0  0  0  0  0  0  0  0  0  0
    4.2827    0.8305    1.1892 H   0  0  0  0  0  0  0  0  0  0  0  0
  1  2  1  0
  2  3  1  0
  3  4  2  0
  4  5  1  0
  5  6  2  0
  6  7  1  0
  7  8  2  0
  6  9  1  0
  9 10  2  0
 10 11  1  0
 11 12  1  0
 12 13  2  0
 12 14  1  0
 14 15  2  0
 15 16  1  0
 16 17  2  0
 17 18  1  0
 18 19  2  0
 19 20  1  0
 11 21  1  0
 21 22  2  0
 22 23  1  0
 23 24  2  0
 24 25  1  0
 25 26  2  0
 23 27  1  0
 27 28  2  0
 28 29  1  0
 29 30  1  0
 29 31  2  0
 31 32  1  0
 32 33  2  0
 32 34  1  0
 34 35  3  0
  8  3  1  0
 26  9  1  0
 33 27  1  0
 19 14  1  0
 26 21  1  0
  1 36  1  0
  1 37  1  0
  1 38  1  0
  4 39  1  0
  5 40  1  0
  7 41  1  0
  8 42  1  0
 15 43  1  0
 16 44  1  0
 17 45  1  0
 18 46  1  0
 22 47  1  0
 24 48  1  0
 25 49  1  0
 28 50  1  0
 30 51  1  0
 30 52  1  0
 30 53  1  0
 31 54  1  0
 33 55  1  0
M  END
$$$$
[H]c1c([H])c([H])c(C([H])([H])[C@@]([H])(C(=O)N([H])C([H])([H])[H])N([H])C(=O)[C@@]([H])(N([H])C(=O)[C@@]2([H])C(C(=O)OC([H])([H])[H])=C(C([H])([H])[H])SC2([H])[H])C([H])([H])C([H])(C([H])([H])[H])C([H])([H])[H])c([H])c1[H]
     RDKit          3D

 66 67  0  0  0  0  0  0  0  0999 V2000
   -5.4896   -0.8485    1.7897 C   0  0  0  0  0  0  0  0  0  0  0  0
   -4.3532   -0.0641    1.3846 N   0  0  0  0  0  0  0  0  0  0  0  0
   -3.4351   -0.5488    0.4338 C   0  0  0  0  0  0  0  0  0  0  0  0
   -3.6621   -1.7034   -0.0314 O   0  0  0  0  0  0  0  0  0  0  0  0
   -2.2886    0.2673    0.0340 C   0  0  2  0  0  0  0  0  0  0  0  0
   -2.6707    1.3483   -0.9546 C   0  0  0  0  0  0  0  0  0  0  0  0
   -3.6554    2.3136   -0.5423 C   0  0  0  0  0  0  0  0  0  0  0  0
   -5.0022    2.1169   -0.8692 C   0  0  0  0  0  0  0  0  0  0  0  0
   -5.9841    3.0110   -0.4991 C   0  0  0  0  0  0  0  0  0  0  0  0
   -5.6112    4.1334    0.2176 C   0  0  0  0  0  0  0  0  0  0  0  0
   -4.2946    4.3699    0.5629 C   0  0  0  0  0  0  0  0  0  0  0  0
   -3.3359    3.4437    0.1705 C   0  0  0  0  0  0  0  0  0  0  0  0
   -1.3895   -0.6152   -0.7583 N   0  0  0  0  0  0  0  0  0  0  0  0
    0.0005   -0.6860   -0.4763 C   0  0  0  0  0  0  0  0  0  0  0  0
    0.4012    0.0490    0.4878 O   0  0  0  0  0  0  0  0  0  0  0  0
    0.9998   -1.4829   -1.1568 C   0  0  2  0  0  0  0  0  0  0  0  0
    0.7533   -2.9461   -1.1618 C   0  0  0  0  0  0  0  0  0  0  0  0
    0.7037   -3.7034    0.1006 C   0  0  0  0  0  0  0  0  0  0  0  0
    0.4975   -5.2237   -0.2237 C   0  0  0  0  0  0  0  0  0  0  0  0
   -0.5121   -3.3883    0.9327 C   0  0  0  0  0  0  0  0  0  0  0  0
    2.3401   -1.2097   -0.6052 N   0  0  0  0  0  0  0  0  0  0  0  0
    3.4223   -0.7366   -1.3760 C   0  0  0  0  0  0  0  0  0  0  0  0
    3.2230   -0.5414   -2.6001 O   0  0  0  0  0  0  0  0  0  0  0  0
    4.7222   -0.4982   -0.7032 C   0  0  2  0  0  0  0  0  0  0  0  0
    5.1668   -1.7498   -0.0594 C   0  0  0  0  0  0  0  0  0  0  0  0
    6.1338   -1.0882    1.3582 S   0  0  0  0  0  0  0  0  0  0  0  0
    5.4213    0.5460    1.2726 C   0  0  0  0  0  0  0  0  0  0  0  0
    5.5988    1.5702    2.3142 C   0  0  0  0  0  0  0  0  0  0  0  0
    4.7505    0.6503    0.1676 C   0  0  0  0  0  0  0  0  0  0  0  0
    4.0362    1.8970   -0.1983 C   0  0  0  0  0  0  0  0  0  0  0  0
    3.3796    2.0248   -1.2614 O   0  0  0  0  0  0  0  0  0  0  0  0
    4.0508    3.0176    0.6276 O   0  0  0  0  0  0  0  0  0  0  0  0
    3.3665    4.2155    0.2794 C   0  0  0  0  0  0  0  0  0  0  0  0
   -6.2013   -1.0414    0.9502 H   0  0  0  0  0  0  0  0  0  0  0  0
   -6.0493   -0.3939    2.6259 H   0  0  0  0  0  0  0  0  0  0  0  0
   -5.1773   -1.8675    2.1308 H   0  0  0  0  0  0  0  0  0  0  0  0
   -4.2127    0.8603    1.8161 H   0  0  0  0  0  0  0  0  0  0  0  0
   -1.6687    0.6528    0.8544 H   0  0  0  0  0  0  0  0  0  0  0  0
   -3.0690    0.7908   -1.8537 H   0  0  0  0  0  0  0  0  0  0  0  0
   -1.7517    1.8632   -1.3325 H   0  0  0  0  0  0  0  0  0  0  0  0
   -5.2874    1.2421   -1.4264 H   0  0  0  0  0  0  0  0  0  0  0  0
   -7.0318    2.8261   -0.7710 H   0  0  0  0  0  0  0  0  0  0  0  0
   -6.3773    4.8572    0.5218 H   0  0  0  0  0  0  0  0  0  0  0  0
   -4.0217    5.2473    1.1210 H   0  0  0  0  0  0  0  0  0  0  0  0
   -2.2983    3.5940    0.4214 H   0  0  0  0  0  0  0  0  0  0  0  0
   -1.7542   -1.2024   -1.5382 H   0  0  0  0  0  0  0  0  0  0  0  0
    1.0238   -1.1842   -2.2594 H   0  0  0  0  0  0  0  0  0  0  0  0
    1.5808   -3.4458   -1.7849 H   0  0  0  0  0  0  0  0  0  0  0  0
   -0.1490   -3.1497   -1.8124 H   0  0  0  0  0  0  0  0  0  0  0  0
    1.6391   -3.6798    0.6609 H   0  0  0  0  0  0  0  0  0  0  0  0
    0.4626   -5.7673    0.7402 H   0  0  0  0  0  0  0  0  0  0  0  0
    1.3298   -5.6089   -0.8126 H   0  0  0  0  0  0  0  0  0  0  0  0
   -0.4750   -5.3689   -0.7241 H   0  0  0  0  0  0  0  0  0  0  0  0
   -0.3996   -2.4479    1.4371 H   0  0  0  0  0  0  0  0  0  0  0  0
   -0.7008   -4.2314    1.6742 H   0  0  0  0  0  0  0  0  0  0  0  0
   -1.3768   -3.3893    0.2518 H   0  0  0  0  0  0  0  0  0  0  0  0
    2.4631   -1.3832    0.4032 H   0  0  0  0  0  0  0  0  0  0  0  0
    5.4541   -0.2928   -1.5438 H   0  0  0  0  0  0  0  0  0  0  0  0
    4.3050   -2.2791    0.4086 H   0  0  0  0  0  0  0  0  0  0  0  0
    5.7876   -2.4155   -0.6754 H   0  0  0  0  0  0  0  0  0  0  0  0
    6.1249    2.4780    1.9387 H   0  0  0  0  0  0  0  0  0  0  0  0
    4.6276    1.9169    2.7513 H   0  0  0  0  0  0  0  0  0  0  0  0
    6.1940    1.2127    3.1770 H   0  0  0  0  0  0  0  0  0  0  0  0
    2.7363    4.5413    1.1299 H   0  0  0  0  0  0  0  0  0  0  0  0
    4.1645    4.9923    0.1681 H   0  0  0  0  0  0  0  0  0  0  0  0
    2.8254    4.1339   -0.6779 H   0  0  0  0  0  0  0  0  0  0  0  0
  1  2  1  0
  2  3  1  0
  3  4  2  0
  3  5  1  0
  5  6  1  0
  6  7  1  0
  7  8  2  0
  8  9  1  0
  9 10  2  0
 10 11  1  0
 11 12  2  0
  5 13  1  0
 13 14  1  0
 14 15  2  0
 14 16  1  0
 16 17  1  0
 17 18  1  0
 18 19  1  0
 18 20  1  0
 16 21  1  0
 21 22  1  0
 22 23  2  0
 22 24  1  0
 24 25  1  0
 25 26  1  0
 26 27  1  0
 27 28  1  0
 27 29  2  0
 29 30  1  0
 30 31  2  0
 30 32  1  0
 32 33  1  0
 12  7  1  0
 29 24  1  0
  1 34  1  0
  1 35  1  0
  1 36  1  0
  2 37  1  0
  5 38  1  1
  6 39  1  0
  6 40  1  0
  8 41  1  0
  9 42  1  0
 10 43  1  0
 11 44  1  0
 12 45  1  0
 13 46  1  0
 16 47  1  6
 17 48  1  0
 17 49  1  0
 18 50  1  0
 19 51  1  0
 19 52  1  0
 19 53  1  0
 20 54  1  0
 20 55  1  0
 20 56  1  0
 21 57  1  0
 24 58  1  6
 25 59  1  0
 25 60  1  0
 28 61  1  0
 28 62  1  0
 28 63  1  0
 33 64  1  0
 33 65  1  0
 33 66  1  0
M  END
$$$$
[H]c1nc2c(nc(N([H])C([H])([H])[H])n2-c2c([H])c([H])c([H])c(-c3c(C([H])([H])[H])nc4sc(C([H])([H])C([H])([H])[H])nn34)c2[H])c([H])c1[H]
     RDKit          3D

 47 51  0  0  0  0  0  0  0  0999 V2000
   -7.6439    0.4644   -0.5340 C   0  0  0  0  0  0  0  0  0  0  0  0
   -6.2712    0.9064   -0.9969 C   0  0  0  0  0  0  0  0  0  0  0  0
   -5.2664   -0.0219   -0.3592 C   0  0  0  0  0  0  0  0  0  0  0  0
   -3.9682   -0.0006   -0.4876 N   0  0  0  0  0  0  0  0  0  0  0  0
   -3.2173   -0.8529    0.1126 N   0  0  0  0  0  0  0  0  0  0  0  0
   -1.8536   -1.1014    0.1972 C   0  0  0  0  0  0  0  0  0  0  0  0
   -1.6802   -2.1779    1.0246 C   0  0  0  0  0  0  0  0  0  0  0  0
   -0.4664   -2.9320    1.4642 C   0  0  0  0  0  0  0  0  0  0  0  0
   -2.9083   -2.5856    1.4445 N   0  0  0  0  0  0  0  0  0  0  0  0
   -3.8161   -1.7677    0.8781 C   0  0  0  0  0  0  0  0  0  0  0  0
   -5.4715   -1.3471    0.6922 S   0  0  0  0  0  0  0  0  0  0  0  0
   -0.7805   -0.3111   -0.4109 C   0  0  0  0  0  0  0  0  0  0  0  0
   -1.1432    0.5364   -1.4637 C   0  0  0  0  0  0  0  0  0  0  0  0
   -0.2197    1.3728   -2.0728 C   0  0  0  0  0  0  0  0  0  0  0  0
    1.0651    1.3583   -1.6270 C   0  0  0  0  0  0  0  0  0  0  0  0
    1.4835    0.5480   -0.5967 C   0  0  0  0  0  0  0  0  0  0  0  0
    0.5179   -0.2830   -0.0062 C   0  0  0  0  0  0  0  0  0  0  0  0
    2.8272    0.5404   -0.1385 N   0  0  0  0  0  0  0  0  0  0  0  0
    3.5170    1.6061    0.3031 C   0  0  0  0  0  0  0  0  0  0  0  0
    3.0340    2.9549    0.3980 N   0  0  0  0  0  0  0  0  0  0  0  0
    3.9066    3.9987    0.8980 C   0  0  0  0  0  0  0  0  0  0  0  0
    4.7509    1.1958    0.6461 N   0  0  0  0  0  0  0  0  0  0  0  0
    4.8801   -0.1385    0.4328 C   0  0  0  0  0  0  0  0  0  0  0  0
    5.9073   -1.0323    0.6118 C   0  0  0  0  0  0  0  0  0  0  0  0
    5.6993   -2.3480    0.2868 C   0  0  0  0  0  0  0  0  0  0  0  0
    4.4571   -2.7430   -0.2144 C   0  0  0  0  0  0  0  0  0  0  0  0
    3.4832   -1.8317   -0.3717 N   0  0  0  0  0  0  0  0  0  0  0  0
    3.6441   -0.5319   -0.0659 C   0  0  0  0  0  0  0  0  0  0  0  0
   -8.2838    0.4536   -1.4637 H   0  0  0  0  0  0  0  0  0  0  0  0
   -8.0702    1.2424    0.1316 H   0  0  0  0  0  0  0  0  0  0  0  0
   -7.6044   -0.5345   -0.0758 H   0  0  0  0  0  0  0  0  0  0  0  0
   -6.1557    0.8866   -2.0862 H   0  0  0  0  0  0  0  0  0  0  0  0
   -6.0344    1.9179   -0.5814 H   0  0  0  0  0  0  0  0  0  0  0  0
    0.0441   -2.4432    2.2905 H   0  0  0  0  0  0  0  0  0  0  0  0
   -0.7825   -3.9470    1.8459 H   0  0  0  0  0  0  0  0  0  0  0  0
    0.1845   -3.0584    0.5765 H   0  0  0  0  0  0  0  0  0  0  0  0
   -2.1334    0.5890   -1.8783 H   0  0  0  0  0  0  0  0  0  0  0  0
   -0.4887    2.0310   -2.8852 H   0  0  0  0  0  0  0  0  0  0  0  0
    1.8049    2.0003   -2.0850 H   0  0  0  0  0  0  0  0  0  0  0  0
    0.8496   -0.8828    0.8060 H   0  0  0  0  0  0  0  0  0  0  0  0
    2.0607    3.1816    0.1089 H   0  0  0  0  0  0  0  0  0  0  0  0
    4.9035    3.9071    0.3922 H   0  0  0  0  0  0  0  0  0  0  0  0
    3.5185    4.9916    0.6717 H   0  0  0  0  0  0  0  0  0  0  0  0
    4.0790    3.8189    1.9801 H   0  0  0  0  0  0  0  0  0  0  0  0
    6.8661   -0.7448    0.9953 H   0  0  0  0  0  0  0  0  0  0  0  0
    6.4693   -3.1066    0.4039 H   0  0  0  0  0  0  0  0  0  0  0  0
    4.3061   -3.7785   -0.4658 H   0  0  0  0  0  0  0  0  0  0  0  0
  1  2  1  0
  2  3  1  0
  3  4  2  0
  4  5  1  0
  5  6  1  0
  6  7  2  0
  7  8  1  0
  7  9  1  0
  9 10  2  0
 10 11  1  0
  6 12  1  0
 12 13  2  0
 13 14  1  0
 14 15  2  0
 15 16  1  0
 16 17  2  0
 16 18  1  0
 18 19  1  0
 19 20  1  0
 20 21  1  0
 19 22  2  0
 22 23  1  0
 23 24  2  0
 24 25  1  0
 25 26  2  0
 26 27  1  0
 27 28  2  0
 11  3  1  0
 17 12  1  0
 28 18  1  0
 10  5  1  0
 28 23  1  0
  1 29  1  0
  1 30  1  0
  1 31  1  0
  2 32  1  0
  2 33  1  0
  8 34  1  0
  8 35  1  0
  8 36  1  0
 13 37  1  0
 14 38  1  0
 15 39  1  0
 17 40  1  0
 20 41  1  0
 21 42  1  0
 21 43  1  0
 21 44  1  0
 24 45  1  0
 25 46  1  0
 26 47  1  0
M  END
$$$$
[H]c1nc([H])c2c(c1[H])n(C([H])([H])C([H])([H])C(=O)c1c([H])c([H])c([H])c([H])c1[H])c(=O)n2C([H])([H])[H]
     RDKit          3D

 36 38  0  0  0  0  0  0  0  0999 V2000
    4.5098   -2.0764    0.8261 C   0  0  0  0  0  0  0  0  0  0  0  0
    3.5101   -1.1165    0.4046 N   0  0  0  0  0  0  0  0  0  0  0  0
    2.3441   -1.4187   -0.1928 C   0  0  0  0  0  0  0  0  0  0  0  0
    1.9844   -2.5994   -0.4582 O   0  0  0  0  0  0  0  0  0  0  0  0
    1.6782   -0.2764   -0.4361 N   0  0  0  0  0  0  0  0  0  0  0  0
    0.4165   -0.1715   -1.0505 C   0  0  0  0  0  0  0  0  0  0  0  0
   -0.7827   -0.2050   -0.2126 C   0  0  0  0  0  0  0  0  0  0  0  0
   -1.9942   -0.0793   -1.0686 C   0  0  0  0  0  0  0  0  0  0  0  0
   -1.8324    0.0324   -2.3254 O   0  0  0  0  0  0  0  0  0  0  0  0
   -3.3310   -0.0793   -0.5344 C   0  0  0  0  0  0  0  0  0  0  0  0
   -4.4178    0.0384   -1.3555 C   0  0  0  0  0  0  0  0  0  0  0  0
   -5.7238    0.0389   -0.8381 C   0  0  0  0  0  0  0  0  0  0  0  0
   -5.8919   -0.0817    0.5151 C   0  0  0  0  0  0  0  0  0  0  0  0
   -4.8264   -0.2005    1.3561 C   0  0  0  0  0  0  0  0  0  0  0  0
   -3.5311   -0.1983    0.8151 C   0  0  0  0  0  0  0  0  0  0  0  0
    2.4417    0.7315    0.0155 C   0  0  0  0  0  0  0  0  0  0  0  0
    2.2250    2.0795    0.0090 C   0  0  0  0  0  0  0  0  0  0  0  0
    3.1867    2.9256    0.5463 C   0  0  0  0  0  0  0  0  0  0  0  0
    4.3110    2.4047    1.0619 N   0  0  0  0  0  0  0  0  0  0  0  0
    4.5528    1.0763    1.0822 C   0  0  0  0  0  0  0  0  0  0  0  0
    3.6197    0.2083    0.5574 C   0  0  0  0  0  0  0  0  0  0  0  0
    4.1117   -2.7820    1.6007 H   0  0  0  0  0  0  0  0  0  0  0  0
    4.8872   -2.6623   -0.0460 H   0  0  0  0  0  0  0  0  0  0  0  0
    5.3925   -1.5955    1.2756 H   0  0  0  0  0  0  0  0  0  0  0  0
    0.3283   -1.0227   -1.7954 H   0  0  0  0  0  0  0  0  0  0  0  0
    0.3262    0.7363   -1.7243 H   0  0  0  0  0  0  0  0  0  0  0  0
   -0.9246   -1.1173    0.3947 H   0  0  0  0  0  0  0  0  0  0  0  0
   -0.7878    0.7218    0.4348 H   0  0  0  0  0  0  0  0  0  0  0  0
   -4.3342    0.1362   -2.4318 H   0  0  0  0  0  0  0  0  0  0  0  0
   -6.5864    0.1301   -1.4666 H   0  0  0  0  0  0  0  0  0  0  0  0
   -6.9185   -0.0795    0.9018 H   0  0  0  0  0  0  0  0  0  0  0  0
   -4.9784   -0.2940    2.4148 H   0  0  0  0  0  0  0  0  0  0  0  0
   -2.7142   -0.2947    1.5176 H   0  0  0  0  0  0  0  0  0  0  0  0
    1.3123    2.4536   -0.4132 H   0  0  0  0  0  0  0  0  0  0  0  0
    2.9821    3.9844    0.5243 H   0  0  0  0  0  0  0  0  0  0  0  0
    5.4552    0.6531    1.4956 H   0  0  0  0  0  0  0  0  0  0  0  0
  1  2  1  0
  2  3  1  0
  3  4  2  0
  3  5  1  0
  5  6  1  0
  6  7  1  0
  7  8  1  0
  8  9  2  0
  8 10  1  0
 10 11  2  0
 11 12  1  0
 12 13  2  0
 13 14  1  0
 14 15  2  0
  5 16  1  0
 16 17  2  0
 17 18  1  0
 18 19  2  0
 19 20  1  0
 20 21  2  0
 21  2  1  0
 15 10  1  0
 21 16  1  0
  1 22  1  0
  1 23  1  0
  1 24  1  0
  6 25  1  0
  6 26  1  0
  7 27  1  0
  7 28  1  0
 11 29  1  0
 12 30  1  0
 13 31  1  0
 14 32  1  0
 15 33  1  0
 17 34  1  0
 18 35  1  0
 20 36  1  0
M  END
$$$$
[H]c1nc(N([H])c2c([H])c([H])c(Cl)c([H])c2[H])nc(-c2c([H])c([H])c(S(=O)(=O)N3C([H])([H])C([H])([H])N(C4([H])C([H])([H])C([H])([H])C4([H])[H])C([H])([H])C3([H])[H])c([H])c2[H])c1[H]
     RDKit          3D

 59 63  0  0  0  0  0  0  0  0999 V2000
   10.9203   -4.2717    0.5072 Cl  0  0  0  0  0  0  0  0  0  0  0  0
    9.3982   -3.4141    0.5187 C   0  0  0  0  0  0  0  0  0  0  0  0
    8.6494   -3.3567    1.6681 C   0  0  0  0  0  0  0  0  0  0  0  0
    7.4560   -2.6974    1.7198 C   0  0  0  0  0  0  0  0  0  0  0  0
    6.9305   -2.0431    0.6010 C   0  0  0  0  0  0  0  0  0  0  0  0
    5.6957   -1.4081    0.7173 N   0  0  0  0  0  0  0  0  0  0  0  0
    5.1228   -0.4321   -0.1183 C   0  0  0  0  0  0  0  0  0  0  0  0
    5.7152    0.0651   -1.1950 N   0  0  0  0  0  0  0  0  0  0  0  0
    5.1990    0.9853   -2.0100 C   0  0  0  0  0  0  0  0  0  0  0  0
    3.9153    1.4550   -1.6810 C   0  0  0  0  0  0  0  0  0  0  0  0
    3.2584    0.9743   -0.5786 C   0  0  0  0  0  0  0  0  0  0  0  0
    3.8759    0.0537    0.1634 N   0  0  0  0  0  0  0  0  0  0  0  0
    1.9363    1.4625   -0.2479 C   0  0  0  0  0  0  0  0  0  0  0  0
    1.2298    2.3917   -0.9625 C   0  0  0  0  0  0  0  0  0  0  0  0
   -0.0347    2.7873   -0.5535 C   0  0  0  0  0  0  0  0  0  0  0  0
   -0.6121    2.2608    0.5751 C   0  0  0  0  0  0  0  0  0  0  0  0
    0.0794    1.3256    1.3089 C   0  0  0  0  0  0  0  0  0  0  0  0
    1.3459    0.9290    0.8996 C   0  0  0  0  0  0  0  0  0  0  0  0
   -2.2043    2.7981    1.0330 S   0  0  0  0  0  0  0  0  0  0  0  0
   -2.3053    2.7694    2.5389 O   0  0  0  0  0  0  0  0  0  0  0  0
   -2.3792    4.2581    0.6436 O   0  0  0  0  0  0  0  0  0  0  0  0
   -3.4115    1.8220    0.2991 N   0  0  0  0  0  0  0  0  0  0  0  0
   -3.3036    0.4793    0.7166 C   0  0  0  0  0  0  0  0  0  0  0  0
   -4.6739   -0.0383    1.1315 C   0  0  0  0  0  0  0  0  0  0  0  0
   -5.5493    0.1666    0.0136 N   0  0  0  0  0  0  0  0  0  0  0  0
   -5.7962    1.5748   -0.2318 C   0  0  0  0  0  0  0  0  0  0  0  0
   -4.6783    2.4407    0.2882 C   0  0  0  0  0  0  0  0  0  0  0  0
   -6.7148   -0.6490   -0.0328 C   0  0  0  0  0  0  0  0  0  0  0  0
   -6.3882   -2.1168   -0.1686 C   0  0  0  0  0  0  0  0  0  0  0  0
   -6.4074   -1.9095   -1.6904 C   0  0  0  0  0  0  0  0  0  0  0  0
   -7.2853   -0.7016   -1.4446 C   0  0  0  0  0  0  0  0  0  0  0  0
    7.6962   -2.1155   -0.5337 C   0  0  0  0  0  0  0  0  0  0  0  0
    8.9125   -2.7831   -0.5986 C   0  0  0  0  0  0  0  0  0  0  0  0
    9.0558   -3.8685    2.5489 H   0  0  0  0  0  0  0  0  0  0  0  0
    6.9003   -2.6714    2.6307 H   0  0  0  0  0  0  0  0  0  0  0  0
    5.0971   -1.7125    1.5613 H   0  0  0  0  0  0  0  0  0  0  0  0
    5.7006    1.3786   -2.8861 H   0  0  0  0  0  0  0  0  0  0  0  0
    3.4947    2.1980   -2.3361 H   0  0  0  0  0  0  0  0  0  0  0  0
    1.6762    2.8251   -1.8701 H   0  0  0  0  0  0  0  0  0  0  0  0
   -0.5312    3.5360   -1.1839 H   0  0  0  0  0  0  0  0  0  0  0  0
   -0.3709    0.9048    2.2057 H   0  0  0  0  0  0  0  0  0  0  0  0
    1.8759    0.1914    1.4897 H   0  0  0  0  0  0  0  0  0  0  0  0
   -2.8923   -0.2079   -0.0713 H   0  0  0  0  0  0  0  0  0  0  0  0
   -2.6391    0.4469    1.6301 H   0  0  0  0  0  0  0  0  0  0  0  0
   -4.6623   -1.1058    1.3957 H   0  0  0  0  0  0  0  0  0  0  0  0
   -4.9895    0.6086    1.9786 H   0  0  0  0  0  0  0  0  0  0  0  0
   -6.0029    1.7415   -1.3046 H   0  0  0  0  0  0  0  0  0  0  0  0
   -6.7134    1.8446    0.3255 H   0  0  0  0  0  0  0  0  0  0  0  0
   -4.9358    2.8415    1.2990 H   0  0  0  0  0  0  0  0  0  0  0  0
   -4.6346    3.3391   -0.3760 H   0  0  0  0  0  0  0  0  0  0  0  0
   -7.4907   -0.4286    0.7417 H   0  0  0  0  0  0  0  0  0  0  0  0
   -5.4194   -2.4682    0.1699 H   0  0  0  0  0  0  0  0  0  0  0  0
   -7.2566   -2.7936    0.0668 H   0  0  0  0  0  0  0  0  0  0  0  0
   -5.3912   -1.6367   -2.0185 H   0  0  0  0  0  0  0  0  0  0  0  0
   -6.8884   -2.7399   -2.2466 H   0  0  0  0  0  0  0  0  0  0  0  0
   -7.0424    0.1753   -2.0550 H   0  0  0  0  0  0  0  0  0  0  0  0
   -8.3496   -1.0183   -1.4688 H   0  0  0  0  0  0  0  0  0  0  0  0
    7.3652   -1.6517   -1.4489 H   0  0  0  0  0  0  0  0  0  0  0  0
    9.4516   -2.7908   -1.5318 H   0  0  0  0  0  0  0  0  0  0  0  0
  1  2  1  0
  2  3  2  0
  3  4  1  0
  4  5  2  0
  5  6  1  0
  6  7  1  0
  7  8  2  0
  8  9  1  0
  9 10  2  0
 10 11  1  0
 11 12  2  0
 11 13  1  0
 13 14  2  0
 14 15  1  0
 15 16  2  0
 16 17  1  0
 17 18  2  0
 16 19  1  0
 19 20  2  0
 19 21  2  0
 19 22  1  0
 22 23  1  0
 23 24  1  0
 24 25  1  0
 25 26  1  0
 26 27  1  0
 25 28  1  0
 28 29  1  0
 29 30  1  0
 30 31  1  0
  5 32  1  0
 32 33  2  0
 33  2  1  0
 12  7  1  0
 18 13  1  0
 27 22  1  0
 31 28  1  0
  3 34  1  0
  4 35  1  0
  6 36  1  0
  9 37  1  0
 10 38  1  0
 14 39  1  0
 15 40  1  0
 17 41  1  0
 18 42  1  0
 23 43  1  0
 23 44  1  0
 24 45  1  0
 24 46  1  0
 26 47  1  0
 26 48  1  0
 27 49  1  0
 27 50  1  0
 28 51  1  0
 29 52  1  0
 29 53  1  0
 30 54  1  0
 30 55  1  0
 31 56  1  0
 31 57  1  0
 32 58  1  0
 33 59  1  0
M  END
$$$$
[H]/C(C(=O)N([H])C([H])([H])c1c([H])c([H])c2c(c1[H])OC([H])([H])O2)=C(/[H])c1c([H])c([H])c([H])c([N+](=O)[O-])c1[H]
     RDKit          3D

 38 40  0  0  0  0  0  0  0  0999 V2000
    6.0314    2.5991    2.1713 O   0  0  0  0  0  0  0  0  0  0  0  0
    6.4842    1.2901    2.0828 N   0  0  0  0  0  0  0  0  0  0  0  0
    7.5980    0.9525    2.5055 O   0  0  0  0  0  0  0  0  0  0  0  0
    5.6536    0.2983    1.4903 C   0  0  0  0  0  0  0  0  0  0  0  0
    6.1089   -1.0000    1.4047 C   0  0  0  0  0  0  0  0  0  0  0  0
    5.2752   -1.9298    0.8228 C   0  0  0  0  0  0  0  0  0  0  0  0
    4.0232   -1.5682    0.3421 C   0  0  0  0  0  0  0  0  0  0  0  0
    3.5522   -0.2810    0.4184 C   0  0  0  0  0  0  0  0  0  0  0  0
    2.2489    0.1478   -0.0736 C   0  0  0  0  0  0  0  0  0  0  0  0
    1.3607   -0.6262   -0.6529 C   0  0  0  0  0  0  0  0  0  0  0  0
    0.0584   -0.0921   -1.1207 C   0  0  0  0  0  0  0  0  0  0  0  0
   -0.2053    1.1387   -0.9576 O   0  0  0  0  0  0  0  0  0  0  0  0
   -0.8992   -0.9108   -1.7430 N   0  0  0  0  0  0  0  0  0  0  0  0
   -2.1462   -0.3584   -2.1819 C   0  0  0  0  0  0  0  0  0  0  0  0
   -3.1016   -0.1180   -1.0684 C   0  0  0  0  0  0  0  0  0  0  0  0
   -2.8296   -0.4761    0.2355 C   0  0  0  0  0  0  0  0  0  0  0  0
   -3.7440   -0.2338    1.2382 C   0  0  0  0  0  0  0  0  0  0  0  0
   -4.9337    0.3669    0.9455 C   0  0  0  0  0  0  0  0  0  0  0  0
   -5.9956    0.7095    1.7693 O   0  0  0  0  0  0  0  0  0  0  0  0
   -6.8298    1.5596    1.0220 C   0  0  0  0  0  0  0  0  0  0  0  0
   -6.4808    1.3068   -0.3245 O   0  0  0  0  0  0  0  0  0  0  0  0
   -5.2131    0.7315   -0.3754 C   0  0  0  0  0  0  0  0  0  0  0  0
   -4.2940    0.4830   -1.3560 C   0  0  0  0  0  0  0  0  0  0  0  0
    4.4050    0.6499    1.0089 C   0  0  0  0  0  0  0  0  0  0  0  0
    7.0895   -1.2910    1.7801 H   0  0  0  0  0  0  0  0  0  0  0  0
    5.6092   -2.9557    0.7430 H   0  0  0  0  0  0  0  0  0  0  0  0
    3.3798   -2.3236   -0.1150 H   0  0  0  0  0  0  0  0  0  0  0  0
    1.9691    1.1861    0.0372 H   0  0  0  0  0  0  0  0  0  0  0  0
    1.6002   -1.6684   -0.7824 H   0  0  0  0  0  0  0  0  0  0  0  0
   -0.6960   -1.9120   -1.8789 H   0  0  0  0  0  0  0  0  0  0  0  0
   -2.6514   -1.1382   -2.8243 H   0  0  0  0  0  0  0  0  0  0  0  0
   -2.0180    0.5849   -2.7636 H   0  0  0  0  0  0  0  0  0  0  0  0
   -1.8985   -0.9513    0.4930 H   0  0  0  0  0  0  0  0  0  0  0  0
   -3.5149   -0.5239    2.2640 H   0  0  0  0  0  0  0  0  0  0  0  0
   -7.9039    1.2927    1.2077 H   0  0  0  0  0  0  0  0  0  0  0  0
   -6.6008    2.6038    1.3385 H   0  0  0  0  0  0  0  0  0  0  0  0
   -4.5386    0.7793   -2.3815 H   0  0  0  0  0  0  0  0  0  0  0  0
    4.0474    1.6780    1.0775 H   0  0  0  0  0  0  0  0  0  0  0  0
  1  2  1  0
  2  3  2  0
  2  4  1  0
  4  5  2  0
  5  6  1  0
  6  7  2  0
  7  8  1  0
  8  9  1  0
  9 10  2  0
 10 11  1  0
 11 12  2  0
 11 13  1  0
 13 14  1  0
 14 15  1  0
 15 16  2  0
 16 17  1  0
 17 18  2  0
 18 19  1  0
 19 20  1  0
 20 21  1  0
 21 22  1  0
 22 23  2  0
  8 24  2  0
 24  4  1  0
 23 15  1  0
 22 18  1  0
  5 25  1  0
  6 26  1  0
  7 27  1  0
  9 28  1  0
 10 29  1  0
 13 30  1  0
 14 31  1  0
 14 32  1  0
 16 33  1  0
 17 34  1  0
 20 35  1  0
 20 36  1  0
 23 37  1  0
 24 38  1  0
M  CHG  2   1  -1   2   1
M  END
$$$$
[H]OC(=O)[C@@]([H])(N([H])[H])C([H])([H])n1c([H])c(F)c(=O)n([H])c1=O
     RDKit          3D

 23 23  0  0  0  0  0  0  0  0999 V2000
   -1.3429    1.4785   -1.3287 N   0  0  0  0  0  0  0  0  0  0  0  0
   -1.7660    0.2093   -0.7595 C   0  0  1  0  0  0  0  0  0  0  0  0
   -0.6980   -0.8186   -0.8117 C   0  0  0  0  0  0  0  0  0  0  0  0
    0.5260   -0.5382   -0.1613 N   0  0  0  0  0  0  0  0  0  0  0  0
    1.4567    0.1540   -0.8884 C   0  0  0  0  0  0  0  0  0  0  0  0
    2.6772    0.5131   -0.3994 C   0  0  0  0  0  0  0  0  0  0  0  0
    3.6038    1.2004   -1.1186 F   0  0  0  0  0  0  0  0  0  0  0  0
    2.9675    0.1486    0.8997 C   0  0  0  0  0  0  0  0  0  0  0  0
    4.0844    0.4571    1.4010 O   0  0  0  0  0  0  0  0  0  0  0  0
    2.0423   -0.5313    1.6003 N   0  0  0  0  0  0  0  0  0  0  0  0
    0.8269   -0.8790    1.0866 C   0  0  0  0  0  0  0  0  0  0  0  0
    0.0650   -1.5141    1.8542 O   0  0  0  0  0  0  0  0  0  0  0  0
   -2.3420    0.3163    0.5865 C   0  0  0  0  0  0  0  0  0  0  0  0
   -3.0539   -0.7258    1.1655 O   0  0  0  0  0  0  0  0  0  0  0  0
   -2.2277    1.3594    1.2919 O   0  0  0  0  0  0  0  0  0  0  0  0
   -2.1787    2.1234   -1.2354 H   0  0  0  0  0  0  0  0  0  0  0  0
   -0.6117    1.8653   -0.7098 H   0  0  0  0  0  0  0  0  0  0  0  0
   -2.6360   -0.0981   -1.4230 H   0  0  0  0  0  0  0  0  0  0  0  0
   -0.5140   -1.0396   -1.9002 H   0  0  0  0  0  0  0  0  0  0  0  0
   -1.0606   -1.8117   -0.4136 H   0  0  0  0  0  0  0  0  0  0  0  0
    1.2401    0.4509   -1.9234 H   0  0  0  0  0  0  0  0  0  0  0  0
    2.2615   -0.8062    2.5803 H   0  0  0  0  0  0  0  0  0  0  0  0
   -3.3199   -1.5138    0.6068 H   0  0  0  0  0  0  0  0  0  0  0  0
  1  2  1  0
  2  3  1  0
  3  4  1  0
  4  5  1  0
  5  6  2  0
  6  7  1  0
  6  8  1  0
  8  9  2  0
  8 10  1  0
 10 11  1  0
 11 12  2  0
  2 13  1  0
 13 14  1  0
 13 15  2  0
 11  4  1  0
  1 16  1  0
  1 17  1  0
  2 18  1  6
  3 19  1  0
  3 20  1  0
  5 21  1  0
 10 22  1  0
 14 23  1  0
M  END
$$$$
[H]c1c([H])c(-n2c(=O)c3c([H])nc4c([H])c([H])c([H])c([H])c4c3n2[H])c([H])c([H])c1OC([H])([H])[H]
     RDKit          3D

 35 38  0  0  0  0  0  0  0  0999 V2000
    6.3296    1.1027    1.2900 C   0  0  0  0  0  0  0  0  0  0  0  0
    5.8005    0.2671    0.2859 O   0  0  0  0  0  0  0  0  0  0  0  0
    4.4243    0.0468    0.1591 C   0  0  0  0  0  0  0  0  0  0  0  0
    3.5147    0.6395    1.0144 C   0  0  0  0  0  0  0  0  0  0  0  0
    2.1629    0.4176    0.8830 C   0  0  0  0  0  0  0  0  0  0  0  0
    1.6509   -0.4015   -0.1018 C   0  0  0  0  0  0  0  0  0  0  0  0
    2.5705   -0.9935   -0.9574 C   0  0  0  0  0  0  0  0  0  0  0  0
    3.9267   -0.7740   -0.8294 C   0  0  0  0  0  0  0  0  0  0  0  0
    0.2505   -0.6284   -0.2342 N   0  0  0  0  0  0  0  0  0  0  0  0
   -0.6928    0.2801   -0.0886 N   0  0  0  0  0  0  0  0  0  0  0  0
   -1.9126   -0.2812   -0.2843 C   0  0  0  0  0  0  0  0  0  0  0  0
   -1.6730   -1.6082   -0.5639 C   0  0  0  0  0  0  0  0  0  0  0  0
   -2.7510   -2.4550   -0.8145 C   0  0  0  0  0  0  0  0  0  0  0  0
   -3.9875   -1.9324   -0.7714 N   0  0  0  0  0  0  0  0  0  0  0  0
   -4.2534   -0.6446   -0.5021 C   0  0  0  0  0  0  0  0  0  0  0  0
   -5.5745   -0.1786   -0.4765 C   0  0  0  0  0  0  0  0  0  0  0  0
   -5.8128    1.1463   -0.1974 C   0  0  0  0  0  0  0  0  0  0  0  0
   -4.7356    1.9909    0.0527 C   0  0  0  0  0  0  0  0  0  0  0  0
   -3.4360    1.5379    0.0288 C   0  0  0  0  0  0  0  0  0  0  0  0
   -3.2005    0.2088   -0.2515 C   0  0  0  0  0  0  0  0  0  0  0  0
   -0.3188   -1.8127   -0.5297 C   0  0  0  0  0  0  0  0  0  0  0  0
    0.2966   -2.8911   -0.7321 O   0  0  0  0  0  0  0  0  0  0  0  0
    6.0427    2.1677    1.0771 H   0  0  0  0  0  0  0  0  0  0  0  0
    5.8236    0.8332    2.2596 H   0  0  0  0  0  0  0  0  0  0  0  0
    7.4064    0.9678    1.4075 H   0  0  0  0  0  0  0  0  0  0  0  0
    3.8911    1.2847    1.7929 H   0  0  0  0  0  0  0  0  0  0  0  0
    1.4472    0.8923    1.5666 H   0  0  0  0  0  0  0  0  0  0  0  0
    2.1698   -1.6413   -1.7366 H   0  0  0  0  0  0  0  0  0  0  0  0
    4.6334   -1.2366   -1.4966 H   0  0  0  0  0  0  0  0  0  0  0  0
   -0.5921    1.2985    0.1427 H   0  0  0  0  0  0  0  0  0  0  0  0
   -2.5278   -3.4901   -1.0304 H   0  0  0  0  0  0  0  0  0  0  0  0
   -6.4017   -0.8477   -0.6731 H   0  0  0  0  0  0  0  0  0  0  0  0
   -6.8295    1.4873   -0.1816 H   0  0  0  0  0  0  0  0  0  0  0  0
   -4.9994    3.0250    0.2661 H   0  0  0  0  0  0  0  0  0  0  0  0
   -2.6426    2.2226    0.2268 H   0  0  0  0  0  0  0  0  0  0  0  0
  1  2  1  0
  2  3  1  0
  3  4  2  0
  4  5  1  0
  5  6  2  0
  6  7  1  0
  7  8  2  0
  6  9  1  0
  9 10  1  0
 10 11  1  0
 11 12  2  0
 12 13  1  0
 13 14  2  0
 14 15  1  0
 15 16  2  0
 16 17  1  0
 17 18  2  0
 18 19  1  0
 19 20  2  0
 12 21  1  0
 21 22  2  0
  8  3  1  0
 21  9  1  0
 20 11  1  0
 20 15  1  0
  1 23  1  0
  1 24  1  0
  1 25  1  0
  4 26  1  0
  5 27  1  0
  7 28  1  0
  8 29  1  0
 10 30  1  0
 13 31  1  0
 16 32  1  0
 17 33  1  0
 18 34  1  0
 19 35  1  0
M  END
$$$$
[H]OC(=O)C([H])([H])[C@@]([H])(C(=O)O[H])N([H])C(=O)[C@@]([H])(N([H])C(=O)Oc1c([H])c([H])c([H])c(C([H])([H])[H])c1[H])C([H])([H])C([H])([H])C([H])([H])C([H])([H])N([H])[H]
     RDKit          3D

 53 53  0  0  0  0  0  0  0  0999 V2000
   -6.2949   -3.0233    1.0640 C   0  0  0  0  0  0  0  0  0  0  0  0
   -5.8249   -1.6477    0.7322 C   0  0  0  0  0  0  0  0  0  0  0  0
   -6.6867   -0.7321    0.1856 C   0  0  0  0  0  0  0  0  0  0  0  0
   -6.2998    0.5469   -0.1362 C   0  0  0  0  0  0  0  0  0  0  0  0
   -4.9752    0.9035    0.1118 C   0  0  0  0  0  0  0  0  0  0  0  0
   -4.0613    0.0317    0.6581 C   0  0  0  0  0  0  0  0  0  0  0  0
   -2.7354    0.3410    0.9225 O   0  0  0  0  0  0  0  0  0  0  0  0
   -1.6909    0.1867    0.0500 C   0  0  0  0  0  0  0  0  0  0  0  0
   -1.9467   -0.2707   -1.0870 O   0  0  0  0  0  0  0  0  0  0  0  0
   -0.3552    0.5421    0.4433 N   0  0  0  0  0  0  0  0  0  0  0  0
    0.7245    0.3697   -0.4874 C   0  0  1  0  0  0  0  0  0  0  0  0
    1.2595    1.5806   -1.1291 C   0  0  0  0  0  0  0  0  0  0  0  0
    1.8611    2.6633   -0.3444 C   0  0  0  0  0  0  0  0  0  0  0  0
    1.0552    3.4060    0.6441 C   0  0  0  0  0  0  0  0  0  0  0  0
   -0.1580    4.1018    0.0677 C   0  0  0  0  0  0  0  0  0  0  0  0
    0.2137    5.0752   -0.9425 N   0  0  0  0  0  0  0  0  0  0  0  0
    1.7964   -0.4982    0.0862 C   0  0  0  0  0  0  0  0  0  0  0  0
    1.6773   -0.9525    1.2464 O   0  0  0  0  0  0  0  0  0  0  0  0
    2.9369   -0.8085   -0.6662 N   0  0  0  0  0  0  0  0  0  0  0  0
    3.9913   -1.6677   -0.0825 C   0  0  1  0  0  0  0  0  0  0  0  0
    4.1158   -2.9361   -0.8573 C   0  0  0  0  0  0  0  0  0  0  0  0
    5.1598   -3.7952   -0.2757 C   0  0  0  0  0  0  0  0  0  0  0  0
    4.8935   -4.5631    0.8756 O   0  0  0  0  0  0  0  0  0  0  0  0
    6.3315   -3.9212   -0.7269 O   0  0  0  0  0  0  0  0  0  0  0  0
    5.2586   -0.9251   -0.0223 C   0  0  0  0  0  0  0  0  0  0  0  0
    6.4171   -1.4216    0.5262 O   0  0  0  0  0  0  0  0  0  0  0  0
    5.3192    0.2470   -0.4933 O   0  0  0  0  0  0  0  0  0  0  0  0
   -4.5135   -1.2476    0.9620 C   0  0  0  0  0  0  0  0  0  0  0  0
   -5.3661   -3.6354    1.2291 H   0  0  0  0  0  0  0  0  0  0  0  0
   -6.8561   -3.4961    0.2534 H   0  0  0  0  0  0  0  0  0  0  0  0
   -6.8136   -3.0062    2.0433 H   0  0  0  0  0  0  0  0  0  0  0  0
   -7.7045   -1.0216    0.0006 H   0  0  0  0  0  0  0  0  0  0  0  0
   -7.0039    1.2505   -0.5681 H   0  0  0  0  0  0  0  0  0  0  0  0
   -4.6554    1.9036   -0.1344 H   0  0  0  0  0  0  0  0  0  0  0  0
   -0.2346    0.8944    1.4138 H   0  0  0  0  0  0  0  0  0  0  0  0
    0.2866   -0.2542   -1.3433 H   0  0  0  0  0  0  0  0  0  0  0  0
    0.4287    1.9626   -1.8221 H   0  0  0  0  0  0  0  0  0  0  0  0
    2.0513    1.2378   -1.8784 H   0  0  0  0  0  0  0  0  0  0  0  0
    2.4123    3.4033   -0.9896 H   0  0  0  0  0  0  0  0  0  0  0  0
    2.7194    2.1978    0.2506 H   0  0  0  0  0  0  0  0  0  0  0  0
    0.7946    2.8763    1.5562 H   0  0  0  0  0  0  0  0  0  0  0  0
    1.7443    4.2464    1.0232 H   0  0  0  0  0  0  0  0  0  0  0  0
   -0.8541    3.3987   -0.4158 H   0  0  0  0  0  0  0  0  0  0  0  0
   -0.6750    4.6494    0.8796 H   0  0  0  0  0  0  0  0  0  0  0  0
    0.8986    4.6756   -1.6427 H   0  0  0  0  0  0  0  0  0  0  0  0
   -0.6518    5.2870   -1.4858 H   0  0  0  0  0  0  0  0  0  0  0  0
    3.1137   -0.4754   -1.6373 H   0  0  0  0  0  0  0  0  0  0  0  0
    3.7069   -1.9494    0.9611 H   0  0  0  0  0  0  0  0  0  0  0  0
    3.1516   -3.5113   -0.8234 H   0  0  0  0  0  0  0  0  0  0  0  0
    4.3942   -2.7743   -1.9212 H   0  0  0  0  0  0  0  0  0  0  0  0
    5.1186   -5.5525    0.9224 H   0  0  0  0  0  0  0  0  0  0  0  0
    6.3580   -1.9257    1.4121 H   0  0  0  0  0  0  0  0  0  0  0  0
   -3.8329   -1.9660    1.3919 H   0  0  0  0  0  0  0  0  0  0  0  0
  1  2  1  0
  2  3  2  0
  3  4  1  0
  4  5  2  0
  5  6  1  0
  6  7  1  0
  7  8  1  0
  8  9  2  0
  8 10  1  0
 10 11  1  0
 11 12  1  0
 12 13  1  0
 13 14  1  0
 14 15  1  0
 15 16  1  0
 11 17  1  0
 17 18  2  0
 17 19  1  0
 19 20  1  0
 20 21  1  0
 21 22  1  0
 22 23  1  0
 22 24  2  0
 20 25  1  0
 25 26  1  0
 25 27  2  0
  6 28  2  0
 28  2  1  0
  1 29  1  0
  1 30  1  0
  1 31  1  0
  3 32  1  0
  4 33  1  0
  5 34  1  0
 10 35  1  0
 11 36  1  6
 12 37  1  0
 12 38  1  0
 13 39  1  0
 13 40  1  0
 14 41  1  0
 14 42  1  0
 15 43  1  0
 15 44  1  0
 16 45  1  0
 16 46  1  0
 19 47  1  0
 20 48  1  1
 21 49  1  0
 21 50  1  0
 23 51  1  0
 26 52  1  0
 28 53  1  0
M  END
$$$$
[H]OP(=O)(C(=O)N1c2c([H])c([H])c(I)c([H])c2C([H])([H])C1([H])C([H])([H])[H])C([H])([H])C(=O)[O-].[Na+]
     RDKit          3D

 33 33  0  0  0  0  0  0  0  0999 V2000
    0.0000    0.0000    0.0000 Na  0  0  0  0  0 15  0  0  0  0  0  0
   -0.7061   -2.5115    2.0075 C   0  0  0  0  0  0  0  0  0  0  0  0
   -1.0442   -1.1362    1.5574 C   0  0  0  0  0  0  0  0  0  0  0  0
   -2.3080   -1.1306    0.6698 C   0  0  0  0  0  0  0  0  0  0  0  0
   -2.1684    0.2089    0.0273 C   0  0  0  0  0  0  0  0  0  0  0  0
   -3.0930    1.1043   -0.4464 C   0  0  0  0  0  0  0  0  0  0  0  0
   -2.6579    2.3029   -0.9764 C   0  0  0  0  0  0  0  0  0  0  0  0
   -4.1319    3.6509   -1.6955 I   0  0  0  0  0  0  0  0  0  0  0  0
   -1.3159    2.6164   -1.0383 C   0  0  0  0  0  0  0  0  0  0  0  0
   -0.4163    1.6942   -0.5538 C   0  0  0  0  0  0  0  0  0  0  0  0
   -0.8076    0.4816   -0.0159 C   0  0  0  0  0  0  0  0  0  0  0  0
   -0.0965   -0.6173    0.5361 N   0  0  0  0  0  0  0  0  0  0  0  0
    1.1468   -1.1470    0.2062 C   0  0  0  0  0  0  0  0  0  0  0  0
    1.6607   -2.0535    0.9907 O   0  0  0  0  0  0  0  0  0  0  0  0
    2.0798   -0.6731   -1.2246 P   0  0  0  0  0  0  0  0  0  0  0  0
    1.0741   -0.1413   -2.4667 O   0  0  0  0  0  0  0  0  0  0  0  0
    2.8034   -1.9474   -1.7201 O   0  0  0  0  0  0  0  0  0  0  0  0
    3.3465    0.5749   -0.8592 C   0  0  0  0  0  0  0  0  0  0  0  0
    3.6045    0.6953    0.5760 C   0  0  0  0  0  0  0  0  0  0  0  0
    4.5730   -0.0877    1.1746 O   0  0  0  0  0  0  0  0  0  0  0  0
    2.9633    1.4980    1.2823 O   0  0  0  0  0  0  0  0  0  0  0  0
    0.0559   -2.4778    2.8005 H   0  0  0  0  0  0  0  0  0  0  0  0
   -0.4841   -3.2151    1.2030 H   0  0  0  0  0  0  0  0  0  0  0  0
   -1.6237   -2.9274    2.5239 H   0  0  0  0  0  0  0  0  0  0  0  0
   -1.2219   -0.4036    2.3464 H   0  0  0  0  0  0  0  0  0  0  0  0
   -2.2826   -1.9541   -0.0517 H   0  0  0  0  0  0  0  0  0  0  0  0
   -3.2091   -1.2007    1.2957 H   0  0  0  0  0  0  0  0  0  0  0  0
   -4.1751    0.8955   -0.4167 H   0  0  0  0  0  0  0  0  0  0  0  0
   -0.9970    3.5654   -1.4595 H   0  0  0  0  0  0  0  0  0  0  0  0
    0.6415    1.9090   -0.5711 H   0  0  0  0  0  0  0  0  0  0  0  0
    1.5482    0.5729   -2.9593 H   0  0  0  0  0  0  0  0  0  0  0  0
    2.9920    1.5394   -1.2916 H   0  0  0  0  0  0  0  0  0  0  0  0
    4.2496    0.3147   -1.4505 H   0  0  0  0  0  0  0  0  0  0  0  0
  2  3  1  0
  3  4  1  0
  4  5  1  0
  5  6  2  0
  6  7  1  0
  7  8  1  0
  7  9  2  0
  9 10  1  0
 10 11  2  0
 11 12  1  0
 12 13  1  0
 13 14  2  0
 13 15  1  0
 15 16  1  0
 15 17  2  0
 15 18  1  0
 18 19  1  0
 19 20  1  0
 19 21  2  0
 12  3  1  0
 11  5  1  0
  2 22  1  0
  2 23  1  0
  2 24  1  0
  3 25  1  0
  4 26  1  0
  4 27  1  0
  6 28  1  0
  9 29  1  0
 10 30  1  0
 16 31  1  0
 18 32  1  0
 18 33  1  0
M  CHG  2   1   1  20  -1
M  END
$$$$
[H]c1nc(N([H])c2c([H])c([H])c(N3C([H])([H])C([H])([H])C([H])(N4C([H])([H])C([H])([H])N(C([H])([H])[H])C([H])([H])C4([H])[H])C([H])([H])C3([H])[H])c([H])c2OC([H])([H])[H])nc(N([H])c2c([H])c([H])c([H])c([H])c2S(=O)(=O)C([H])(C([H])([H])[H])C([H])([H])[H])c1Cl
     RDKit          3D

 82 86  0  0  0  0  0  0  0  0999 V2000
   -0.1870    3.7228   -1.2569 C   0  0  0  0  0  0  0  0  0  0  0  0
    0.4390    2.5297   -0.8437 O   0  0  0  0  0  0  0  0  0  0  0  0
   -0.3483    1.4775   -0.4024 C   0  0  0  0  0  0  0  0  0  0  0  0
   -1.7220    1.6350   -0.3827 C   0  0  0  0  0  0  0  0  0  0  0  0
   -2.5624    0.6308    0.0436 C   0  0  0  0  0  0  0  0  0  0  0  0
   -1.9599   -0.5357    0.4478 C   0  0  0  0  0  0  0  0  0  0  0  0
   -0.5748   -0.7280    0.4408 C   0  0  0  0  0  0  0  0  0  0  0  0
    0.2576    0.2764    0.0150 C   0  0  0  0  0  0  0  0  0  0  0  0
    1.6540    0.2011   -0.0367 N   0  0  0  0  0  0  0  0  0  0  0  0
    2.4984   -0.8842    0.3177 C   0  0  0  0  0  0  0  0  0  0  0  0
    2.1033   -2.0726    0.7812 N   0  0  0  0  0  0  0  0  0  0  0  0
    2.9559   -3.0558    1.0957 C   0  0  0  0  0  0  0  0  0  0  0  0
    4.3092   -2.8632    0.9451 C   0  0  0  0  0  0  0  0  0  0  0  0
    5.4455   -4.1449    1.3534 Cl  0  0  0  0  0  0  0  0  0  0  0  0
    4.7527   -1.6166    0.4572 C   0  0  0  0  0  0  0  0  0  0  0  0
    6.1380   -1.4466    0.3110 N   0  0  0  0  0  0  0  0  0  0  0  0
    6.9009   -0.3576   -0.1368 C   0  0  0  0  0  0  0  0  0  0  0  0
    6.2766    0.8084   -0.5266 C   0  0  0  0  0  0  0  0  0  0  0  0
    7.0240    1.9039   -0.9778 C   0  0  0  0  0  0  0  0  0  0  0  0
    8.3820    1.8034   -1.0274 C   0  0  0  0  0  0  0  0  0  0  0  0
    9.0024    0.6381   -0.6374 C   0  0  0  0  0  0  0  0  0  0  0  0
    8.2961   -0.4485   -0.1920 C   0  0  0  0  0  0  0  0  0  0  0  0
    9.0842   -1.8926    0.2913 S   0  0  0  0  0  0  0  0  0  0  0  0
    8.6633   -3.0312   -0.6035 O   0  0  0  0  0  0  0  0  0  0  0  0
    8.8235   -2.3045    1.7132 O   0  0  0  0  0  0  0  0  0  0  0  0
   10.8572   -1.7881    0.1370 C   0  0  0  0  0  0  0  0  0  0  0  0
   11.2609   -1.6791   -1.2975 C   0  0  0  0  0  0  0  0  0  0  0  0
   11.4760   -0.7869    1.0544 C   0  0  0  0  0  0  0  0  0  0  0  0
    3.8248   -0.7008    0.1721 N   0  0  0  0  0  0  0  0  0  0  0  0
   -3.9818    0.8060    0.0512 N   0  0  0  0  0  0  0  0  0  0  0  0
   -4.5241    1.9609   -0.5784 C   0  0  0  0  0  0  0  0  0  0  0  0
   -6.0011    1.9283   -0.8544 C   0  0  0  0  0  0  0  0  0  0  0  0
   -6.8245    1.3726    0.2584 C   0  0  0  0  0  0  0  0  0  0  0  0
   -6.0036    0.6088    1.2781 C   0  0  0  0  0  0  0  0  0  0  0  0
   -4.8657   -0.1463    0.6796 C   0  0  0  0  0  0  0  0  0  0  0  0
   -7.9560    0.6086   -0.0875 N   0  0  0  0  0  0  0  0  0  0  0  0
   -7.7905   -0.5856   -0.8057 C   0  0  0  0  0  0  0  0  0  0  0  0
   -9.1362   -1.0235   -1.3907 C   0  0  0  0  0  0  0  0  0  0  0  0
  -10.1390   -0.8718   -0.3544 N   0  0  0  0  0  0  0  0  0  0  0  0
  -10.0361   -1.8235    0.7053 C   0  0  0  0  0  0  0  0  0  0  0  0
  -10.3349    0.4834    0.0484 C   0  0  0  0  0  0  0  0  0  0  0  0
   -9.1475    1.3193   -0.4248 C   0  0  0  0  0  0  0  0  0  0  0  0
    0.5375    4.4499   -1.6799 H   0  0  0  0  0  0  0  0  0  0  0  0
   -0.9481    3.5330   -2.0530 H   0  0  0  0  0  0  0  0  0  0  0  0
   -0.6880    4.2523   -0.4156 H   0  0  0  0  0  0  0  0  0  0  0  0
   -2.1476    2.5764   -0.7105 H   0  0  0  0  0  0  0  0  0  0  0  0
   -2.6020   -1.3517    0.7883 H   0  0  0  0  0  0  0  0  0  0  0  0
   -0.2121   -1.6859    0.7807 H   0  0  0  0  0  0  0  0  0  0  0  0
    2.1500    1.0935   -0.3956 H   0  0  0  0  0  0  0  0  0  0  0  0
    2.6174   -4.0222    1.4737 H   0  0  0  0  0  0  0  0  0  0  0  0
    6.7215   -2.3022    0.5911 H   0  0  0  0  0  0  0  0  0  0  0  0
    5.2202    0.9989   -0.5296 H   0  0  0  0  0  0  0  0  0  0  0  0
    6.5603    2.8305   -1.2896 H   0  0  0  0  0  0  0  0  0  0  0  0
    9.0220    2.6252   -1.3712 H   0  0  0  0  0  0  0  0  0  0  0  0
   10.0936    0.6299   -0.7052 H   0  0  0  0  0  0  0  0  0  0  0  0
   11.2252   -2.8031    0.4806 H   0  0  0  0  0  0  0  0  0  0  0  0
   11.9033   -0.7785   -1.4926 H   0  0  0  0  0  0  0  0  0  0  0  0
   10.3307   -1.5514   -1.9199 H   0  0  0  0  0  0  0  0  0  0  0  0
   11.7765   -2.5763   -1.6995 H   0  0  0  0  0  0  0  0  0  0  0  0
   12.0225   -1.2557    1.8769 H   0  0  0  0  0  0  0  0  0  0  0  0
   12.1781   -0.1622    0.4319 H   0  0  0  0  0  0  0  0  0  0  0  0
   10.7434   -0.0899    1.5079 H   0  0  0  0  0  0  0  0  0  0  0  0
   -4.2803    2.8410    0.0525 H   0  0  0  0  0  0  0  0  0  0  0  0
   -3.9354    2.1199   -1.5269 H   0  0  0  0  0  0  0  0  0  0  0  0
   -6.3084    2.9635   -1.1164 H   0  0  0  0  0  0  0  0  0  0  0  0
   -6.1470    1.3325   -1.7818 H   0  0  0  0  0  0  0  0  0  0  0  0
   -7.2139    2.2642    0.8421 H   0  0  0  0  0  0  0  0  0  0  0  0
   -6.6586   -0.1075    1.8153 H   0  0  0  0  0  0  0  0  0  0  0  0
   -5.5929    1.2907    2.0626 H   0  0  0  0  0  0  0  0  0  0  0  0
   -5.1731   -0.8869   -0.0780 H   0  0  0  0  0  0  0  0  0  0  0  0
   -4.3121   -0.6097    1.5260 H   0  0  0  0  0  0  0  0  0  0  0  0
   -7.5080   -1.4012   -0.0997 H   0  0  0  0  0  0  0  0  0  0  0  0
   -7.0082   -0.5774   -1.5870 H   0  0  0  0  0  0  0  0  0  0  0  0
   -9.4445   -0.3742   -2.2343 H   0  0  0  0  0  0  0  0  0  0  0  0
   -9.0261   -2.0597   -1.7202 H   0  0  0  0  0  0  0  0  0  0  0  0
   -9.1822   -2.5377    0.5321 H   0  0  0  0  0  0  0  0  0  0  0  0
   -9.9814   -1.3564    1.7041 H   0  0  0  0  0  0  0  0  0  0  0  0
  -10.9456   -2.4645    0.6802 H   0  0  0  0  0  0  0  0  0  0  0  0
  -11.2261    0.8855   -0.4545 H   0  0  0  0  0  0  0  0  0  0  0  0
  -10.4517    0.5517    1.1515 H   0  0  0  0  0  0  0  0  0  0  0  0
   -9.2778    1.5186   -1.4917 H   0  0  0  0  0  0  0  0  0  0  0  0
   -9.1611    2.2698    0.1783 H   0  0  0  0  0  0  0  0  0  0  0  0
  1  2  1  0
  2  3  1  0
  3  4  2  0
  4  5  1  0
  5  6  2  0
  6  7  1  0
  7  8  2  0
  8  9  1  0
  9 10  1  0
 10 11  2  0
 11 12  1  0
 12 13  2  0
 13 14  1  0
 13 15  1  0
 15 16  1  0
 16 17  1  0
 17 18  2  0
 18 19  1  0
 19 20  2  0
 20 21  1  0
 21 22  2  0
 22 23  1  0
 23 24  2  0
 23 25  2  0
 23 26  1  0
 26 27  1  0
 26 28  1  0
 15 29  2  0
  5 30  1  0
 30 31  1  0
 31 32  1  0
 32 33  1  0
 33 34  1  0
 34 35  1  0
 33 36  1  0
 36 37  1  0
 37 38  1  0
 38 39  1  0
 39 40  1  0
 39 41  1  0
 41 42  1  0
  8  3  1  0
 29 10  1  0
 35 30  1  0
 42 36  1  0
 22 17  1  0
  1 43  1  0
  1 44  1  0
  1 45  1  0
  4 46  1  0
  6 47  1  0
  7 48  1  0
  9 49  1  0
 12 50  1  0
 16 51  1  0
 18 52  1  0
 19 53  1  0
 20 54  1  0
 21 55  1  0
 26 56  1  0
 27 57  1  0
 27 58  1  0
 27 59  1  0
 28 60  1  0
 28 61  1  0
 28 62  1  0
 31 63  1  0
 31 64  1  0
 32 65  1  0
 32 66  1  0
 33 67  1  0
 34 68  1  0
 34 69  1  0
 35 70  1  0
 35 71  1  0
 37 72  1  0
 37 73  1  0
 38 74  1  0
 38 75  1  0
 40 76  1  0
 40 77  1  0
 40 78  1  0
 41 79  1  0
 41 80  1  0
 42 81  1  0
 42 82  1  0
M  END
$$$$
[H]OC([H])([H])C1([H])C([H])([H])C([H])([H])N(c2nc([H])nn3c([H])c([H])c(C([H])([H])c4c([H])nc([H])c5c([H])c(OC([H])([H])[H])c(OC([H])([H])[H])c([H])c45)c23)C([H])([H])C1([H])[H]
     RDKit          3D

 59 63  0  0  0  0  0  0  0  0999 V2000
   -6.9027    0.0073   -1.6801 C   0  0  0  0  0  0  0  0  0  0  0  0
   -5.7479    0.6168   -1.1737 O   0  0  0  0  0  0  0  0  0  0  0  0
   -4.5218   -0.0187   -1.0280 C   0  0  0  0  0  0  0  0  0  0  0  0
   -4.3487   -1.3354   -1.3820 C   0  0  0  0  0  0  0  0  0  0  0  0
   -3.1376   -1.9533   -1.2350 C   0  0  0  0  0  0  0  0  0  0  0  0
   -2.9752   -3.2677   -1.5885 C   0  0  0  0  0  0  0  0  0  0  0  0
   -1.7764   -3.8854   -1.4424 N   0  0  0  0  0  0  0  0  0  0  0  0
   -0.6920   -3.2354   -0.9439 C   0  0  0  0  0  0  0  0  0  0  0  0
   -0.8228   -1.9233   -0.5822 C   0  0  0  0  0  0  0  0  0  0  0  0
    0.3676   -1.1779   -0.0164 C   0  0  0  0  0  0  0  0  0  0  0  0
    0.1709   -1.0671    1.4536 C   0  0  0  0  0  0  0  0  0  0  0  0
   -0.8646   -1.7194    2.1517 C   0  0  0  0  0  0  0  0  0  0  0  0
   -0.7321   -1.3658    3.4604 C   0  0  0  0  0  0  0  0  0  0  0  0
    0.3033   -0.5454    3.6331 N   0  0  0  0  0  0  0  0  0  0  0  0
    0.8211    0.0725    4.6833 N   0  0  0  0  0  0  0  0  0  0  0  0
    1.8797    0.8882    4.6327 C   0  0  0  0  0  0  0  0  0  0  0  0
    2.4442    1.0870    3.4498 N   0  0  0  0  0  0  0  0  0  0  0  0
    1.9523    0.4705    2.3138 C   0  0  0  0  0  0  0  0  0  0  0  0
    2.6527    0.6865    1.1094 N   0  0  0  0  0  0  0  0  0  0  0  0
    3.6993   -0.2192    0.7317 C   0  0  0  0  0  0  0  0  0  0  0  0
    4.6307    0.5737   -0.1788 C   0  0  0  0  0  0  0  0  0  0  0  0
    3.8571    0.8293   -1.4460 C   0  0  0  0  0  0  0  0  0  0  0  0
    4.7601    1.3586   -2.5439 C   0  0  0  0  0  0  0  0  0  0  0  0
    5.7361    0.3756   -2.7628 O   0  0  0  0  0  0  0  0  0  0  0  0
    2.7029    1.7164   -1.1539 C   0  0  0  0  0  0  0  0  0  0  0  0
    2.3704    1.8369    0.3035 C   0  0  0  0  0  0  0  0  0  0  0  0
    0.8698   -0.3542    2.4008 C   0  0  0  0  0  0  0  0  0  0  0  0
   -2.0228   -1.2854   -0.7226 C   0  0  0  0  0  0  0  0  0  0  0  0
   -2.2305    0.0394   -0.3767 C   0  0  0  0  0  0  0  0  0  0  0  0
   -3.4368    0.6656   -0.5196 C   0  0  0  0  0  0  0  0  0  0  0  0
   -3.6203    1.9843   -0.1690 O   0  0  0  0  0  0  0  0  0  0  0  0
   -2.6313    2.8452    0.3567 C   0  0  0  0  0  0  0  0  0  0  0  0
   -7.6693    0.7776   -1.9495 H   0  0  0  0  0  0  0  0  0  0  0  0
   -7.2819   -0.7116   -0.9177 H   0  0  0  0  0  0  0  0  0  0  0  0
   -6.6567   -0.5077   -2.6329 H   0  0  0  0  0  0  0  0  0  0  0  0
   -5.2393   -1.8388   -1.7812 H   0  0  0  0  0  0  0  0  0  0  0  0
   -3.8225   -3.8224   -1.9913 H   0  0  0  0  0  0  0  0  0  0  0  0
    0.2583   -3.7731   -0.8443 H   0  0  0  0  0  0  0  0  0  0  0  0
    1.2719   -1.7791   -0.2211 H   0  0  0  0  0  0  0  0  0  0  0  0
    0.3772   -0.2427   -0.5574 H   0  0  0  0  0  0  0  0  0  0  0  0
   -1.5875   -2.3613    1.6880 H   0  0  0  0  0  0  0  0  0  0  0  0
   -1.3808   -1.7031    4.2657 H   0  0  0  0  0  0  0  0  0  0  0  0
    2.2568    1.3701    5.5557 H   0  0  0  0  0  0  0  0  0  0  0  0
    3.4351   -1.1768    0.3294 H   0  0  0  0  0  0  0  0  0  0  0  0
    4.3551   -0.4427    1.6367 H   0  0  0  0  0  0  0  0  0  0  0  0
    5.5919    0.0743   -0.3184 H   0  0  0  0  0  0  0  0  0  0  0  0
    4.8049    1.5360    0.3332 H   0  0  0  0  0  0  0  0  0  0  0  0
    3.4707   -0.1536   -1.7894 H   0  0  0  0  0  0  0  0  0  0  0  0
    5.2556    2.3087   -2.2395 H   0  0  0  0  0  0  0  0  0  0  0  0
    4.1557    1.5155   -3.4643 H   0  0  0  0  0  0  0  0  0  0  0  0
    5.4589   -0.4955   -2.3955 H   0  0  0  0  0  0  0  0  0  0  0  0
    1.8176    1.3901   -1.7608 H   0  0  0  0  0  0  0  0  0  0  0  0
    2.8735    2.7783   -1.5094 H   0  0  0  0  0  0  0  0  0  0  0  0
    1.2407    1.9587    0.3479 H   0  0  0  0  0  0  0  0  0  0  0  0
    2.7775    2.7767    0.7538 H   0  0  0  0  0  0  0  0  0  0  0  0
   -1.4058    0.6073    0.0246 H   0  0  0  0  0  0  0  0  0  0  0  0
   -2.4825    2.6768    1.4229 H   0  0  0  0  0  0  0  0  0  0  0  0
   -1.6915    2.6487   -0.2016 H   0  0  0  0  0  0  0  0  0  0  0  0
   -2.9381    3.8896    0.0935 H   0  0  0  0  0  0  0  0  0  0  0  0
  1  2  1  0
  2  3  1  0
  3  4  2  0
  4  5  1  0
  5  6  2  0
  6  7  1  0
  7  8  2  0
  8  9  1  0
  9 10  1  0
 10 11  1  0
 11 12  1  0
 12 13  2  0
 13 14  1  0
 14 15  1  0
 15 16  2  0
 16 17  1  0
 17 18  2  0
 18 19  1  0
 19 20  1  0
 20 21  1  0
 21 22  1  0
 22 23  1  0
 23 24  1  0
 22 25  1  0
 25 26  1  0
 18 27  1  0
  9 28  2  0
 28 29  1  0
 29 30  2  0
 30 31  1  0
 31 32  1  0
 30  3  1  0
 28  5  1  0
 27 11  2  0
 27 14  1  0
 26 19  1  0
  1 33  1  0
  1 34  1  0
  1 35  1  0
  4 36  1  0
  6 37  1  0
  8 38  1  0
 10 39  1  0
 10 40  1  0
 12 41  1  0
 13 42  1  0
 16 43  1  0
 20 44  1  0
 20 45  1  0
 21 46  1  0
 21 47  1  0
 22 48  1  0
 23 49  1  0
 23 50  1  0
 24 51  1  0
 25 52  1  0
 25 53  1  0
 26 54  1  0
 26 55  1  0
 29 56  1  0
 32 57  1  0
 32 58  1  0
 32 59  1  0
M  END
$$$$
[H]/C(=C(/[H])c1c([H])c([H])c2c(c1[H])C([H])([H])C(=O)N2[H])c1nc([H])c(OC([H])([H])C2([H])C([H])([H])C([H])([H])N(C([H])([H])C([H])([H])[H])C([H])([H])C2([H])[H])nc1[H]
     RDKit          3D

 54 57  0  0  0  0  0  0  0  0999 V2000
    8.7952    1.0298    0.5753 C   0  0  0  0  0  0  0  0  0  0  0  0
    7.9829    0.7563   -0.6559 C   0  0  0  0  0  0  0  0  0  0  0  0
    6.6314    0.3960   -0.2953 N   0  0  0  0  0  0  0  0  0  0  0  0
    5.8976    0.1441   -1.5318 C   0  0  0  0  0  0  0  0  0  0  0  0
    4.5684   -0.4948   -1.1920 C   0  0  0  0  0  0  0  0  0  0  0  0
    4.3072   -0.3433    0.2714 C   0  0  0  0  0  0  0  0  0  0  0  0
    2.9137   -0.7296    0.6716 C   0  0  0  0  0  0  0  0  0  0  0  0
    2.0067    0.0848   -0.0115 O   0  0  0  0  0  0  0  0  0  0  0  0
    0.6323   -0.0251    0.1432 C   0  0  0  0  0  0  0  0  0  0  0  0
   -0.2036    0.8122   -0.5630 C   0  0  0  0  0  0  0  0  0  0  0  0
   -1.5443    0.7457   -0.4482 N   0  0  0  0  0  0  0  0  0  0  0  0
   -2.1259   -0.1490    0.3680 C   0  0  0  0  0  0  0  0  0  0  0  0
   -3.5793   -0.2322    0.5022 C   0  0  0  0  0  0  0  0  0  0  0  0
   -4.3164    0.5957   -0.1998 C   0  0  0  0  0  0  0  0  0  0  0  0
   -5.7710    0.6395   -0.1779 C   0  0  0  0  0  0  0  0  0  0  0  0
   -6.4437    1.5542   -0.9594 C   0  0  0  0  0  0  0  0  0  0  0  0
   -7.8197    1.6122   -0.9533 C   0  0  0  0  0  0  0  0  0  0  0  0
   -8.6015    0.7615   -0.1678 C   0  0  0  0  0  0  0  0  0  0  0  0
  -10.0027    0.6279    0.0088 N   0  0  0  0  0  0  0  0  0  0  0  0
  -10.2412   -0.4104    0.9377 C   0  0  0  0  0  0  0  0  0  0  0  0
  -11.3931   -0.8101    1.3394 O   0  0  0  0  0  0  0  0  0  0  0  0
   -8.9394   -0.9466    1.3580 C   0  0  0  0  0  0  0  0  0  0  0  0
   -7.9452   -0.1490    0.6107 C   0  0  0  0  0  0  0  0  0  0  0  0
   -6.5369   -0.1958    0.5934 C   0  0  0  0  0  0  0  0  0  0  0  0
   -1.2831   -0.9949    1.0815 C   0  0  0  0  0  0  0  0  0  0  0  0
    0.0606   -0.9248    0.9634 N   0  0  0  0  0  0  0  0  0  0  0  0
    5.3223   -1.2297    1.0014 C   0  0  0  0  0  0  0  0  0  0  0  0
    6.6859   -0.7864    0.5260 C   0  0  0  0  0  0  0  0  0  0  0  0
    8.1550    1.2941    1.4442 H   0  0  0  0  0  0  0  0  0  0  0  0
    9.4751    1.8937    0.3207 H   0  0  0  0  0  0  0  0  0  0  0  0
    9.4552    0.1578    0.7763 H   0  0  0  0  0  0  0  0  0  0  0  0
    8.4062   -0.0895   -1.2400 H   0  0  0  0  0  0  0  0  0  0  0  0
    7.9662    1.6242   -1.3529 H   0  0  0  0  0  0  0  0  0  0  0  0
    6.5012   -0.5213   -2.2106 H   0  0  0  0  0  0  0  0  0  0  0  0
    5.7284    1.1103   -2.0498 H   0  0  0  0  0  0  0  0  0  0  0  0
    4.6478   -1.5774   -1.4770 H   0  0  0  0  0  0  0  0  0  0  0  0
    3.7559   -0.0869   -1.8273 H   0  0  0  0  0  0  0  0  0  0  0  0
    4.4849    0.6908    0.5938 H   0  0  0  0  0  0  0  0  0  0  0  0
    2.8169   -0.5926    1.7596 H   0  0  0  0  0  0  0  0  0  0  0  0
    2.6816   -1.7916    0.4622 H   0  0  0  0  0  0  0  0  0  0  0  0
    0.2466    1.5474   -1.2326 H   0  0  0  0  0  0  0  0  0  0  0  0
   -4.0507   -0.9460    1.1537 H   0  0  0  0  0  0  0  0  0  0  0  0
   -3.7875    1.3053   -0.8499 H   0  0  0  0  0  0  0  0  0  0  0  0
   -5.8423    2.2210   -1.5745 H   0  0  0  0  0  0  0  0  0  0  0  0
   -8.3606    2.3267   -1.5631 H   0  0  0  0  0  0  0  0  0  0  0  0
  -10.7456    1.2046   -0.4706 H   0  0  0  0  0  0  0  0  0  0  0  0
   -8.9261   -2.0195    1.0391 H   0  0  0  0  0  0  0  0  0  0  0  0
   -8.7747   -0.8604    2.4572 H   0  0  0  0  0  0  0  0  0  0  0  0
   -6.0553   -0.9235    1.2173 H   0  0  0  0  0  0  0  0  0  0  0  0
   -1.7737   -1.7105    1.7354 H   0  0  0  0  0  0  0  0  0  0  0  0
    5.2345   -1.1517    2.0848 H   0  0  0  0  0  0  0  0  0  0  0  0
    5.1886   -2.2971    0.6602 H   0  0  0  0  0  0  0  0  0  0  0  0
    7.3029   -0.5593    1.4109 H   0  0  0  0  0  0  0  0  0  0  0  0
    7.2124   -1.5867   -0.0481 H   0  0  0  0  0  0  0  0  0  0  0  0
  1  2  1  0
  2  3  1  0
  3  4  1  0
  4  5  1  0
  5  6  1  0
  6  7  1  0
  7  8  1  0
  8  9  1  0
  9 10  2  0
 10 11  1  0
 11 12  2  0
 12 13  1  0
 13 14  2  0
 14 15  1  0
 15 16  2  0
 16 17  1  0
 17 18  2  0
 18 19  1  0
 19 20  1  0
 20 21  2  0
 20 22  1  0
 22 23  1  0
 23 24  2  0
 12 25  1  0
 25 26  2  0
  6 27  1  0
 27 28  1  0
 28  3  1  0
 26  9  1  0
 24 15  1  0
 23 18  1  0
  1 29  1  0
  1 30  1  0
  1 31  1  0
  2 32  1  0
  2 33  1  0
  4 34  1  0
  4 35  1  0
  5 36  1  0
  5 37  1  0
  6 38  1  0
  7 39  1  0
  7 40  1  0
 10 41  1  0
 13 42  1  0
 14 43  1  0
 16 44  1  0
 17 45  1  0
 19 46  1  0
 22 47  1  0
 22 48  1  0
 24 49  1  0
 25 50  1  0
 27 51  1  0
 27 52  1  0
 28 53  1  0
 28 54  1  0
M  END
$$$$
[H]c1c([H])c([H])c2c(c1[H])c1c3c(c4c5c([H])c([H])c([H])c([H])c5n5c4c1n2[C@@]1(C([H])([H])[H])O[C@]5([H])C([H])([H])[C@@]([H])(N([H])C([H])([H])[H])[C@@]1([H])OC([H])([H])[H])C(=O)N([H])C3([H])[H]
     RDKit          3D

 61 68  0  0  0  0  0  0  0  0999 V2000
   -3.3415   -2.0929    0.8927 C   0  0  0  0  0  0  0  0  0  0  0  0
   -2.7520   -0.8244    0.5060 N   0  0  0  0  0  0  0  0  0  0  0  0
   -2.5947   -0.7699   -0.9652 C   0  0  2  0  0  0  0  0  0  0  0  0
   -1.6635   -1.8336   -1.3456 C   0  0  0  0  0  0  0  0  0  0  0  0
   -0.4098   -1.3263   -1.9401 C   0  0  1  0  0  0  0  0  0  0  0  0
   -0.2904   -0.0961   -2.3609 O   0  0  0  0  0  0  0  0  0  0  0  0
   -0.9141    0.9817   -1.7381 C   0  0  1  0  0  0  0  0  0  0  0  0
   -0.8729    2.0231   -2.8643 C   0  0  0  0  0  0  0  0  0  0  0  0
   -2.2914    0.6326   -1.4119 C   0  0  2  0  0  0  0  0  0  0  0  0
   -2.9229    1.4324   -0.4622 O   0  0  0  0  0  0  0  0  0  0  0  0
   -4.0664    2.0564   -0.9455 C   0  0  0  0  0  0  0  0  0  0  0  0
   -0.0747    1.3904   -0.5981 N   0  0  0  0  0  0  0  0  0  0  0  0
    0.0066    2.5943   -0.0347 C   0  0  0  0  0  0  0  0  0  0  0  0
   -0.6403    3.7755   -0.2701 C   0  0  0  0  0  0  0  0  0  0  0  0
   -0.3753    4.9057    0.4704 C   0  0  0  0  0  0  0  0  0  0  0  0
    0.5715    4.8915    1.4994 C   0  0  0  0  0  0  0  0  0  0  0  0
    1.2169    3.7192    1.7374 C   0  0  0  0  0  0  0  0  0  0  0  0
    0.9447    2.6014    0.9941 C   0  0  0  0  0  0  0  0  0  0  0  0
    1.4533    1.3308    1.0530 C   0  0  0  0  0  0  0  0  0  0  0  0
    2.4134    0.7192    1.8621 C   0  0  0  0  0  0  0  0  0  0  0  0
    3.2252    1.2814    2.9656 C   0  0  0  0  0  0  0  0  0  0  0  0
    4.0513    0.2282    3.4563 N   0  0  0  0  0  0  0  0  0  0  0  0
    3.7725   -0.9500    2.6928 C   0  0  0  0  0  0  0  0  0  0  0  0
    4.3602   -2.0093    2.9202 O   0  0  0  0  0  0  0  0  0  0  0  0
    2.7553   -0.6238    1.7110 C   0  0  0  0  0  0  0  0  0  0  0  0
    2.1006   -1.3257    0.7242 C   0  0  0  0  0  0  0  0  0  0  0  0
    2.1422   -2.6347    0.2794 C   0  0  0  0  0  0  0  0  0  0  0  0
    2.8759   -3.7217    0.6638 C   0  0  0  0  0  0  0  0  0  0  0  0
    2.6892   -4.9254    0.0128 C   0  0  0  0  0  0  0  0  0  0  0  0
    1.7808   -5.0386   -1.0084 C   0  0  0  0  0  0  0  0  0  0  0  0
    1.0343   -3.9515   -1.4066 C   0  0  0  0  0  0  0  0  0  0  0  0
    1.2263   -2.7646   -0.7562 C   0  0  0  0  0  0  0  0  0  0  0  0
    0.6469   -1.5975   -0.9447 N   0  0  0  0  0  0  0  0  0  0  0  0
    1.1358   -0.7009   -0.0851 C   0  0  0  0  0  0  0  0  0  0  0  0
    0.8119    0.6350    0.0794 C   0  0  0  0  0  0  0  0  0  0  0  0
   -3.9345   -1.8764    1.8249 H   0  0  0  0  0  0  0  0  0  0  0  0
   -2.5804   -2.8202    1.1896 H   0  0  0  0  0  0  0  0  0  0  0  0
   -4.0376   -2.4413    0.1071 H   0  0  0  0  0  0  0  0  0  0  0  0
   -1.8252   -0.7857    0.9817 H   0  0  0  0  0  0  0  0  0  0  0  0
   -3.6418   -1.0758   -1.3069 H   0  0  0  0  0  0  0  0  0  0  0  0
   -1.4743   -2.5407   -0.4944 H   0  0  0  0  0  0  0  0  0  0  0  0
   -2.1827   -2.5069   -2.1019 H   0  0  0  0  0  0  0  0  0  0  0  0
   -0.1764   -2.0147   -2.8352 H   0  0  0  0  0  0  0  0  0  0  0  0
   -1.8561    2.5173   -2.9808 H   0  0  0  0  0  0  0  0  0  0  0  0
   -0.0367    2.7359   -2.7018 H   0  0  0  0  0  0  0  0  0  0  0  0
   -0.6761    1.5932   -3.8662 H   0  0  0  0  0  0  0  0  0  0  0  0
   -2.9127    0.7625   -2.3525 H   0  0  0  0  0  0  0  0  0  0  0  0
   -4.5472    2.6842   -0.1440 H   0  0  0  0  0  0  0  0  0  0  0  0
   -3.8494    2.7776   -1.7563 H   0  0  0  0  0  0  0  0  0  0  0  0
   -4.7942    1.3294   -1.3803 H   0  0  0  0  0  0  0  0  0  0  0  0
   -1.3647    3.8112   -1.0348 H   0  0  0  0  0  0  0  0  0  0  0  0
   -0.8845    5.8355    0.2847 H   0  0  0  0  0  0  0  0  0  0  0  0
    0.7949    5.7654    2.0918 H   0  0  0  0  0  0  0  0  0  0  0  0
    1.9682    3.6487    2.5304 H   0  0  0  0  0  0  0  0  0  0  0  0
    3.8868    2.0907    2.5395 H   0  0  0  0  0  0  0  0  0  0  0  0
    2.5967    1.6993    3.7873 H   0  0  0  0  0  0  0  0  0  0  0  0
    4.7363    0.3270    4.2421 H   0  0  0  0  0  0  0  0  0  0  0  0
    3.5871   -3.7061    1.4353 H   0  0  0  0  0  0  0  0  0  0  0  0
    3.2659   -5.8106    0.3031 H   0  0  0  0  0  0  0  0  0  0  0  0
    1.6292   -5.9934   -1.5280 H   0  0  0  0  0  0  0  0  0  0  0  0
    0.3048   -4.0175   -2.2172 H   0  0  0  0  0  0  0  0  0  0  0  0
  1  2  1  0
  2  3  1  0
  3  4  1  0
  4  5  1  0
  5  6  1  0
  6  7  1  0
  7  8  1  6
  7  9  1  0
  9 10  1  0
 10 11  1  0
  7 12  1  0
 12 13  1  0
 13 14  2  0
 14 15  1  0
 15 16  2  0
 16 17  1  0
 17 18  2  0
 18 19  1  0
 19 20  2  0
 20 21  1  0
 21 22  1  0
 22 23  1  0
 23 24  2  0
 23 25  1  0
 25 26  2  0
 26 27  1  0
 27 28  2  0
 28 29  1  0
 29 30  2  0
 30 31  1  0
 31 32  2  0
 32 33  1  0
 33 34  1  0
 34 35  2  0
  9  3  1  0
 35 12  1  0
 33  5  1  0
 18 13  1  0
 35 19  1  0
 25 20  1  0
 34 26  1  0
 32 27  1  0
  1 36  1  0
  1 37  1  0
  1 38  1  0
  2 39  1  0
  3 40  1  6
  4 41  1  0
  4 42  1  0
  5 43  1  6
  8 44  1  0
  8 45  1  0
  8 46  1  0
  9 47  1  6
 11 48  1  0
 11 49  1  0
 11 50  1  0
 14 51  1  0
 15 52  1  0
 16 53  1  0
 17 54  1  0
 21 55  1  0
 21 56  1  0
 22 57  1  0
 28 58  1  0
 29 59  1  0
 30 60  1  0
 31 61  1  0
M  END
$$$$
[H]c1c([H])c([H])c2c(c1[H])c1c3c(c4c5c([H])c([H])c([H])c([H])c5n5c4c1n2[C@@]1([H])O[C@]5(C([H])([H])[H])[C@@]([H])(OC([H])([H])[H])[C@@]([H])(N([H])C([H])([H])[H])C1([H])[H])C([H])([H])N([H])C3=O
     RDKit          3D

 61 68  0  0  0  0  0  0  0  0999 V2000
   -2.5900    1.1246    2.6909 C   0  0  0  0  0  0  0  0  0  0  0  0
   -2.2701    0.1494    1.6691 N   0  0  0  0  0  0  0  0  0  0  0  0
   -2.7037    0.7256    0.3894 C   0  0  1  0  0  0  0  0  0  0  0  0
   -1.9693    1.9591    0.0600 C   0  0  0  0  0  0  0  0  0  0  0  0
   -1.0374    1.8542   -1.1025 C   0  0  2  0  0  0  0  0  0  0  0  0
   -1.1108    0.8211   -1.8978 O   0  0  0  0  0  0  0  0  0  0  0  0
   -1.4719   -0.4453   -1.4993 C   0  0  2  0  0  0  0  0  0  0  0  0
   -1.8587   -1.0747   -2.8537 C   0  0  0  0  0  0  0  0  0  0  0  0
   -2.6627   -0.3659   -0.6565 C   0  0  1  0  0  0  0  0  0  0  0  0
   -3.0555   -1.5061    0.0270 O   0  0  0  0  0  0  0  0  0  0  0  0
   -4.3079   -1.9695   -0.2639 C   0  0  0  0  0  0  0  0  0  0  0  0
   -0.3020   -1.1026   -0.9411 N   0  0  0  0  0  0  0  0  0  0  0  0
   -0.0368   -2.4107   -0.8661 C   0  0  0  0  0  0  0  0  0  0  0  0
   -0.7505   -3.5118   -1.2342 C   0  0  0  0  0  0  0  0  0  0  0  0
   -0.2313   -4.7829   -1.0386 C   0  0  0  0  0  0  0  0  0  0  0  0
    1.0025   -5.0019   -0.4761 C   0  0  0  0  0  0  0  0  0  0  0  0
    1.7444   -3.8826   -0.0939 C   0  0  0  0  0  0  0  0  0  0  0  0
    1.2038   -2.6348   -0.3003 C   0  0  0  0  0  0  0  0  0  0  0  0
    1.7282   -1.3877   -0.0109 C   0  0  0  0  0  0  0  0  0  0  0  0
    2.9250   -0.9637    0.5498 C   0  0  0  0  0  0  0  0  0  0  0  0
    4.0703   -1.7821    1.0519 C   0  0  0  0  0  0  0  0  0  0  0  0
    5.0490   -0.8360    1.5052 N   0  0  0  0  0  0  0  0  0  0  0  0
    4.5511    0.4878    1.3292 C   0  0  0  0  0  0  0  0  0  0  0  0
    5.2116    1.4752    1.6612 O   0  0  0  0  0  0  0  0  0  0  0  0
    3.2325    0.3685    0.7340 C   0  0  0  0  0  0  0  0  0  0  0  0
    2.2736    1.2731    0.3281 C   0  0  0  0  0  0  0  0  0  0  0  0
    2.1943    2.6494    0.3519 C   0  0  0  0  0  0  0  0  0  0  0  0
    3.0346    3.6410    0.7719 C   0  0  0  0  0  0  0  0  0  0  0  0
    2.6237    4.9672    0.6424 C   0  0  0  0  0  0  0  0  0  0  0  0
    1.4040    5.3207    0.1079 C   0  0  0  0  0  0  0  0  0  0  0  0
    0.5569    4.3176   -0.3154 C   0  0  0  0  0  0  0  0  0  0  0  0
    0.9564    3.0255   -0.1896 C   0  0  0  0  0  0  0  0  0  0  0  0
    0.3179    1.9031   -0.5262 N   0  0  0  0  0  0  0  0  0  0  0  0
    1.0813    0.8475   -0.2300 C   0  0  0  0  0  0  0  0  0  0  0  0
    0.8029   -0.4946   -0.4048 C   0  0  0  0  0  0  0  0  0  0  0  0
   -1.7275    1.7656    2.9459 H   0  0  0  0  0  0  0  0  0  0  0  0
   -3.4000    1.7830    2.2910 H   0  0  0  0  0  0  0  0  0  0  0  0
   -3.0290    0.6437    3.5924 H   0  0  0  0  0  0  0  0  0  0  0  0
   -2.7602   -0.7186    1.9035 H   0  0  0  0  0  0  0  0  0  0  0  0
   -3.7998    0.9480    0.5957 H   0  0  0  0  0  0  0  0  0  0  0  0
   -1.4594    2.3204    1.0029 H   0  0  0  0  0  0  0  0  0  0  0  0
   -2.7065    2.7776   -0.1658 H   0  0  0  0  0  0  0  0  0  0  0  0
   -1.0912    2.7965   -1.7221 H   0  0  0  0  0  0  0  0  0  0  0  0
   -2.0056   -0.3257   -3.6573 H   0  0  0  0  0  0  0  0  0  0  0  0
   -1.0068   -1.6950   -3.1940 H   0  0  0  0  0  0  0  0  0  0  0  0
   -2.8277   -1.6039   -2.8044 H   0  0  0  0  0  0  0  0  0  0  0  0
   -3.5358   -0.1252   -1.3381 H   0  0  0  0  0  0  0  0  0  0  0  0
   -4.4650   -2.8889    0.3782 H   0  0  0  0  0  0  0  0  0  0  0  0
   -4.4865   -2.3125   -1.2897 H   0  0  0  0  0  0  0  0  0  0  0  0
   -5.1216   -1.2643    0.0633 H   0  0  0  0  0  0  0  0  0  0  0  0
   -1.7208   -3.3825   -1.6725 H   0  0  0  0  0  0  0  0  0  0  0  0
   -0.8491   -5.6109   -1.3524 H   0  0  0  0  0  0  0  0  0  0  0  0
    1.4213   -5.9802   -0.3168 H   0  0  0  0  0  0  0  0  0  0  0  0
    2.7206   -4.0420    0.3513 H   0  0  0  0  0  0  0  0  0  0  0  0
    3.7648   -2.4865    1.8473 H   0  0  0  0  0  0  0  0  0  0  0  0
    4.5351   -2.3717    0.2322 H   0  0  0  0  0  0  0  0  0  0  0  0
    5.9960   -1.0989    1.9084 H   0  0  0  0  0  0  0  0  0  0  0  0
    3.9823    3.4684    1.1903 H   0  0  0  0  0  0  0  0  0  0  0  0
    3.2909    5.7541    0.9750 H   0  0  0  0  0  0  0  0  0  0  0  0
    1.0902    6.3566    0.0099 H   0  0  0  0  0  0  0  0  0  0  0  0
   -0.4140    4.5350   -0.7434 H   0  0  0  0  0  0  0  0  0  0  0  0
  1  2  1  0
  2  3  1  0
  3  4  1  0
  4  5  1  0
  5  6  1  0
  6  7  1  0
  7  8  1  6
  7  9  1  0
  9 10  1  0
 10 11  1  0
  7 12  1  0
 12 13  1  0
 13 14  2  0
 14 15  1  0
 15 16  2  0
 16 17  1  0
 17 18  2  0
 18 19  1  0
 19 20  2  0
 20 21  1  0
 21 22  1  0
 22 23  1  0
 23 24  2  0
 23 25  1  0
 25 26  2  0
 26 27  1  0
 27 28  2  0
 28 29  1  0
 29 30  2  0
 30 31  1  0
 31 32  2  0
 32 33  1  0
 33 34  1  0
 34 35  2  0
  9  3  1  0
 35 12  1  0
 33  5  1  0
 18 13  1  0
 35 19  1  0
 25 20  1  0
 34 26  1  0
 32 27  1  0
  1 36  1  0
  1 37  1  0
  1 38  1  0
  2 39  1  0
  3 40  1  1
  4 41  1  0
  4 42  1  0
  5 43  1  6
  8 44  1  0
  8 45  1  0
  8 46  1  0
  9 47  1  6
 11 48  1  0
 11 49  1  0
 11 50  1  0
 14 51  1  0
 15 52  1  0
 16 53  1  0
 17 54  1  0
 21 55  1  0
 21 56  1  0
 22 57  1  0
 28 58  1  0
 29 59  1  0
 30 60  1  0
 31 61  1  0
M  END
$$$$
[H]OC([H])([H])[C@@]1(O[H])C([H])([H])[C@@]2([H])O[C@]1(C([H])([H])[H])n1c3c([H])c([H])c([H])c([H])c3c3c4c(c5c6c([H])c([H])c([H])c([H])c6n2c5c31)C(=O)N([H])C4([H])[H]
     RDKit          3D

 54 61  0  0  0  0  0  0  0  0999 V2000
    3.1800    0.8838    1.3878 C   0  0  0  0  0  0  0  0  0  0  0  0
    2.1176    0.2237    0.5774 C   0  0  2  0  0  0  0  0  0  0  0  0
    1.6968   -0.7870    1.4854 O   0  0  0  0  0  0  0  0  0  0  0  0
    1.2511   -1.8639    0.7986 C   0  0  2  0  0  0  0  0  0  0  0  0
    2.0328   -1.9517   -0.4419 C   0  0  0  0  0  0  0  0  0  0  0  0
    2.6347   -0.5714   -0.5849 C   0  0  1  0  0  0  0  0  0  0  0  0
    2.2138   -0.0799   -1.8115 O   0  0  0  0  0  0  0  0  0  0  0  0
    4.1191   -0.7109   -0.6110 C   0  0  0  0  0  0  0  0  0  0  0  0
    4.4589   -1.5975   -1.6334 O   0  0  0  0  0  0  0  0  0  0  0  0
   -0.2014   -1.7853    0.5955 N   0  0  0  0  0  0  0  0  0  0  0  0
   -1.1044   -2.7499    0.6347 C   0  0  0  0  0  0  0  0  0  0  0  0
   -0.9179   -4.0868    0.8734 C   0  0  0  0  0  0  0  0  0  0  0  0
   -2.0299   -4.9199    0.8648 C   0  0  0  0  0  0  0  0  0  0  0  0
   -3.2823   -4.4161    0.6235 C   0  0  0  0  0  0  0  0  0  0  0  0
   -3.4758   -3.0511    0.3794 C   0  0  0  0  0  0  0  0  0  0  0  0
   -2.3768   -2.2421    0.3902 C   0  0  0  0  0  0  0  0  0  0  0  0
   -2.2053   -0.8905    0.1945 C   0  0  0  0  0  0  0  0  0  0  0  0
   -3.0670    0.1511   -0.0975 C   0  0  0  0  0  0  0  0  0  0  0  0
   -4.5001    0.2660   -0.2996 C   0  0  0  0  0  0  0  0  0  0  0  0
   -5.3884   -0.5871   -0.2658 O   0  0  0  0  0  0  0  0  0  0  0  0
   -4.7851    1.6416   -0.5724 N   0  0  0  0  0  0  0  0  0  0  0  0
   -3.5735    2.4248   -0.5610 C   0  0  0  0  0  0  0  0  0  0  0  0
   -2.5314    1.4168   -0.2472 C   0  0  0  0  0  0  0  0  0  0  0  0
   -1.1701    1.6669   -0.1133 C   0  0  0  0  0  0  0  0  0  0  0  0
   -0.3770    2.7657   -0.2198 C   0  0  0  0  0  0  0  0  0  0  0  0
   -0.7006    4.0705   -0.5126 C   0  0  0  0  0  0  0  0  0  0  0  0
    0.3203    5.0230   -0.5829 C   0  0  0  0  0  0  0  0  0  0  0  0
    1.6233    4.6180   -0.3553 C   0  0  0  0  0  0  0  0  0  0  0  0
    1.9232    3.2989   -0.0625 C   0  0  0  0  0  0  0  0  0  0  0  0
    0.9354    2.3466    0.0129 C   0  0  0  0  0  0  0  0  0  0  0  0
    0.9590    1.0103    0.2643 N   0  0  0  0  0  0  0  0  0  0  0  0
   -0.3578    0.6223    0.1746 C   0  0  0  0  0  0  0  0  0  0  0  0
   -0.8544   -0.6533    0.3299 C   0  0  0  0  0  0  0  0  0  0  0  0
    4.0624    1.2462    0.8471 H   0  0  0  0  0  0  0  0  0  0  0  0
    3.5596    0.1949    2.1815 H   0  0  0  0  0  0  0  0  0  0  0  0
    2.7312    1.7230    1.9466 H   0  0  0  0  0  0  0  0  0  0  0  0
    1.4219   -2.7643    1.4120 H   0  0  0  0  0  0  0  0  0  0  0  0
    1.4720   -2.2700   -1.3403 H   0  0  0  0  0  0  0  0  0  0  0  0
    2.8377   -2.7359   -0.3258 H   0  0  0  0  0  0  0  0  0  0  0  0
    2.8799   -0.3390   -2.4928 H   0  0  0  0  0  0  0  0  0  0  0  0
    4.5238   -1.1579    0.3296 H   0  0  0  0  0  0  0  0  0  0  0  0
    4.6358    0.2581   -0.8438 H   0  0  0  0  0  0  0  0  0  0  0  0
    4.7979   -2.4633   -1.2908 H   0  0  0  0  0  0  0  0  0  0  0  0
    0.0592   -4.4684    1.0598 H   0  0  0  0  0  0  0  0  0  0  0  0
   -1.8569   -5.9719    1.0560 H   0  0  0  0  0  0  0  0  0  0  0  0
   -4.1224   -5.0759    0.6219 H   0  0  0  0  0  0  0  0  0  0  0  0
   -4.4721   -2.7398    0.2018 H   0  0  0  0  0  0  0  0  0  0  0  0
   -5.7336    2.0654   -0.7610 H   0  0  0  0  0  0  0  0  0  0  0  0
   -3.6366    3.2333    0.1993 H   0  0  0  0  0  0  0  0  0  0  0  0
   -3.3846    2.8954   -1.5673 H   0  0  0  0  0  0  0  0  0  0  0  0
   -1.7294    4.3700   -0.6881 H   0  0  0  0  0  0  0  0  0  0  0  0
    0.0587    6.0490   -0.8135 H   0  0  0  0  0  0  0  0  0  0  0  0
    2.3774    5.3965   -0.4223 H   0  0  0  0  0  0  0  0  0  0  0  0
    2.9510    3.0689    0.0761 H   0  0  0  0  0  0  0  0  0  0  0  0
  2  1  1  1
  2  3  1  0
  3  4  1  0
  4  5  1  0
  5  6  1  0
  6  7  1  6
  6  8  1  0
  8  9  1  0
  4 10  1  0
 10 11  1  0
 11 12  2  0
 12 13  1  0
 13 14  2  0
 14 15  1  0
 15 16  2  0
 16 17  1  0
 17 18  2  0
 18 19  1  0
 19 20  2  0
 19 21  1  0
 21 22  1  0
 22 23  1  0
 23 24  2  0
 24 25  1  0
 25 26  2  0
 26 27  1  0
 27 28  2  0
 28 29  1  0
 29 30  2  0
 30 31  1  0
 31 32  1  0
 32 33  2  0
  6  2  1  0
 33 10  1  0
 31  2  1  0
 16 11  1  0
 33 17  1  0
 23 18  1  0
 32 24  1  0
 30 25  1  0
  1 34  1  0
  1 35  1  0
  1 36  1  0
  4 37  1  1
  5 38  1  0
  5 39  1  0
  7 40  1  0
  8 41  1  0
  8 42  1  0
  9 43  1  0
 12 44  1  0
 13 45  1  0
 14 46  1  0
 15 47  1  0
 21 48  1  0
 22 49  1  0
 22 50  1  0
 26 51  1  0
 27 52  1  0
 28 53  1  0
 29 54  1  0
M  END
$$$$
[H]c1c([H])c(C([H])([H])c2nc(N3C([H])([H])C([H])([H])OC([H])([H])C3([H])[H])c([H])c(C(=O)N([H])C3(C(F)(F)F)C([H])([H])C([H])([H])OC([H])([H])C3([H])[H])c2[H])c([H])c([H])c1F
     RDKit          3D

 58 61  0  0  0  0  0  0  0  0999 V2000
   -4.8327    4.4636    3.6416 F   0  0  0  0  0  0  0  0  0  0  0  0
   -4.3449    3.9665    2.4680 C   0  0  0  0  0  0  0  0  0  0  0  0
   -5.0405    3.0678    1.6947 C   0  0  0  0  0  0  0  0  0  0  0  0
   -4.5072    2.5875    0.5071 C   0  0  0  0  0  0  0  0  0  0  0  0
   -3.2677    2.9859    0.0533 C   0  0  0  0  0  0  0  0  0  0  0  0
   -2.7176    2.4618   -1.2159 C   0  0  0  0  0  0  0  0  0  0  0  0
   -1.9154    1.2275   -1.0356 C   0  0  0  0  0  0  0  0  0  0  0  0
   -0.5703    1.3575   -0.8003 C   0  0  0  0  0  0  0  0  0  0  0  0
    0.2935    0.2735   -0.6136 C   0  0  0  0  0  0  0  0  0  0  0  0
   -0.3083   -0.9637   -0.6829 C   0  0  0  0  0  0  0  0  0  0  0  0
   -1.6788   -1.1183   -0.9220 C   0  0  0  0  0  0  0  0  0  0  0  0
   -2.4175   -0.0147   -1.0870 N   0  0  0  0  0  0  0  0  0  0  0  0
   -2.2277   -2.4286   -0.9811 N   0  0  0  0  0  0  0  0  0  0  0  0
   -3.6532   -2.5452   -1.1582 C   0  0  0  0  0  0  0  0  0  0  0  0
   -4.0629   -3.9273   -0.6592 C   0  0  0  0  0  0  0  0  0  0  0  0
   -3.4279   -4.8307   -1.4820 O   0  0  0  0  0  0  0  0  0  0  0  0
   -2.0684   -4.8545   -1.3355 C   0  0  0  0  0  0  0  0  0  0  0  0
   -1.4162   -3.6029   -0.8700 C   0  0  0  0  0  0  0  0  0  0  0  0
    1.7074    0.4833   -0.3686 C   0  0  0  0  0  0  0  0  0  0  0  0
    2.1168    1.6689   -0.3379 O   0  0  0  0  0  0  0  0  0  0  0  0
    2.6077   -0.5791   -0.1696 N   0  0  0  0  0  0  0  0  0  0  0  0
    4.0479   -0.3683    0.0738 C   0  0  0  0  0  0  0  0  0  0  0  0
    4.6307    0.2883   -1.1225 C   0  0  0  0  0  0  0  0  0  0  0  0
    5.7568    1.2462   -0.8622 C   0  0  0  0  0  0  0  0  0  0  0  0
    6.2247    1.1644    0.4489 O   0  0  0  0  0  0  0  0  0  0  0  0
    5.1568    1.5148    1.2621 C   0  0  0  0  0  0  0  0  0  0  0  0
    4.2286    0.3426    1.3740 C   0  0  0  0  0  0  0  0  0  0  0  0
    4.6706   -1.7638    0.2508 C   0  0  0  0  0  0  0  0  0  0  0  0
    4.1134   -2.4273    1.2995 F   0  0  0  0  0  0  0  0  0  0  0  0
    6.0215   -1.7298    0.3825 F   0  0  0  0  0  0  0  0  0  0  0  0
    4.3932   -2.4464   -0.9399 F   0  0  0  0  0  0  0  0  0  0  0  0
   -2.5759    3.8897    0.8380 C   0  0  0  0  0  0  0  0  0  0  0  0
   -3.1062    4.3737    2.0285 C   0  0  0  0  0  0  0  0  0  0  0  0
   -6.0181    2.7221    2.0046 H   0  0  0  0  0  0  0  0  0  0  0  0
   -5.0598    1.8802   -0.0972 H   0  0  0  0  0  0  0  0  0  0  0  0
   -2.1215    3.2599   -1.7430 H   0  0  0  0  0  0  0  0  0  0  0  0
   -3.5850    2.2790   -1.9156 H   0  0  0  0  0  0  0  0  0  0  0  0
   -0.1348    2.3454   -0.7529 H   0  0  0  0  0  0  0  0  0  0  0  0
    0.3256   -1.8320   -0.5415 H   0  0  0  0  0  0  0  0  0  0  0  0
   -4.1966   -1.8081   -0.5053 H   0  0  0  0  0  0  0  0  0  0  0  0
   -3.9905   -2.4727   -2.1980 H   0  0  0  0  0  0  0  0  0  0  0  0
   -3.7941   -4.0666    0.4119 H   0  0  0  0  0  0  0  0  0  0  0  0
   -5.1478   -4.0145   -0.7627 H   0  0  0  0  0  0  0  0  0  0  0  0
   -1.8520   -5.6660   -0.5766 H   0  0  0  0  0  0  0  0  0  0  0  0
   -1.6420   -5.1960   -2.3206 H   0  0  0  0  0  0  0  0  0  0  0  0
   -1.1418   -3.6960    0.2181 H   0  0  0  0  0  0  0  0  0  0  0  0
   -0.4654   -3.4495   -1.4421 H   0  0  0  0  0  0  0  0  0  0  0  0
    2.2547   -1.5801   -0.1919 H   0  0  0  0  0  0  0  0  0  0  0  0
    3.8220    0.7357   -1.7348 H   0  0  0  0  0  0  0  0  0  0  0  0
    5.0545   -0.5483   -1.7761 H   0  0  0  0  0  0  0  0  0  0  0  0
    5.3181    2.2795   -0.9570 H   0  0  0  0  0  0  0  0  0  0  0  0
    6.5662    1.1868   -1.6165 H   0  0  0  0  0  0  0  0  0  0  0  0
    4.6775    2.4035    0.7594 H   0  0  0  0  0  0  0  0  0  0  0  0
    5.5644    1.8258    2.2550 H   0  0  0  0  0  0  0  0  0  0  0  0
    4.6694   -0.3167    2.1746 H   0  0  0  0  0  0  0  0  0  0  0  0
    3.2355    0.6531    1.8191 H   0  0  0  0  0  0  0  0  0  0  0  0
   -1.6000    4.2240    0.5121 H   0  0  0  0  0  0  0  0  0  0  0  0
   -2.5688    5.0887    2.6570 H   0  0  0  0  0  0  0  0  0  0  0  0
  1  2  1  0
  2  3  2  0
  3  4  1  0
  4  5  2  0
  5  6  1  0
  6  7  1  0
  7  8  2  0
  8  9  1  0
  9 10  2  0
 10 11  1  0
 11 12  2  0
 11 13  1  0
 13 14  1  0
 14 15  1  0
 15 16  1  0
 16 17  1  0
 17 18  1  0
  9 19  1  0
 19 20  2  0
 19 21  1  0
 21 22  1  0
 22 23  1  0
 23 24  1  0
 24 25  1  0
 25 26  1  0
 26 27  1  0
 22 28  1  0
 28 29  1  0
 28 30  1  0
 28 31  1  0
  5 32  1  0
 32 33  2  0
 33  2  1  0
 12  7  1  0
 18 13  1  0
 27 22  1  0
  3 34  1  0
  4 35  1  0
  6 36  1  0
  6 37  1  0
  8 38  1  0
 10 39  1  0
 14 40  1  0
 14 41  1  0
 15 42  1  0
 15 43  1  0
 17 44  1  0
 17 45  1  0
 18 46  1  0
 18 47  1  0
 21 48  1  0
 23 49  1  0
 23 50  1  0
 24 51  1  0
 24 52  1  0
 26 53  1  0
 26 54  1  0
 27 55  1  0
 27 56  1  0
 32 57  1  0
 33 58  1  0
M  END
$$$$
[H]N=C(N=C(N=S([H])C([H])([H])C([H])([H])c1c([H])c(C([H])([H])[H])c2c([H])c(C([H])([H])[H])sc2c1[H])N([H])[H])N([H])[H]
     RDKit          3D

 40 41  0  0  0  0  0  0  0  0999 V2000
   -3.9193    2.5237    0.3621 C   0  0  0  0  0  0  0  0  0  0  0  0
   -3.0260    1.3890    0.0123 C   0  0  0  0  0  0  0  0  0  0  0  0
   -1.7360    1.6613   -0.3530 C   0  0  0  0  0  0  0  0  0  0  0  0
   -0.7961    0.7162   -0.7028 C   0  0  0  0  0  0  0  0  0  0  0  0
    0.5830    1.0980   -1.0867 C   0  0  0  0  0  0  0  0  0  0  0  0
    1.4695    1.1286    0.1596 C   0  0  0  0  0  0  0  0  0  0  0  0
    3.1427    1.6039   -0.3904 S   0  0  0  0  0  0  0  0  0  0  0  0
    4.3055    0.4888   -0.4497 N   0  0  0  0  0  0  0  0  0  0  0  0
    4.0592   -0.8572   -0.0837 C   0  0  0  0  0  0  0  0  0  0  0  0
    2.9106   -1.5762   -0.5491 N   0  0  0  0  0  0  0  0  0  0  0  0
    4.8796   -1.4716    0.6895 N   0  0  0  0  0  0  0  0  0  0  0  0
    6.0209   -0.7910    1.1650 C   0  0  0  0  0  0  0  0  0  0  0  0
    7.2752   -1.4360    1.1660 N   0  0  0  0  0  0  0  0  0  0  0  0
    5.9094    0.4114    1.5938 N   0  0  0  0  0  0  0  0  0  0  0  0
   -1.2350   -0.5909   -0.6675 C   0  0  0  0  0  0  0  0  0  0  0  0
   -2.5515   -0.9054   -0.2975 C   0  0  0  0  0  0  0  0  0  0  0  0
   -3.4191   -2.3621   -0.1451 S   0  0  0  0  0  0  0  0  0  0  0  0
   -4.9249   -1.7372    0.3503 C   0  0  0  0  0  0  0  0  0  0  0  0
   -6.2075   -2.4672    0.6798 C   0  0  0  0  0  0  0  0  0  0  0  0
   -4.7056   -0.3887    0.3836 C   0  0  0  0  0  0  0  0  0  0  0  0
   -3.4676    0.0477    0.0459 C   0  0  0  0  0  0  0  0  0  0  0  0
   -4.3499    2.8940   -0.5835 H   0  0  0  0  0  0  0  0  0  0  0  0
   -3.3006    3.3281    0.7961 H   0  0  0  0  0  0  0  0  0  0  0  0
   -4.7110    2.2074    1.0961 H   0  0  0  0  0  0  0  0  0  0  0  0
   -1.4084    2.6972   -0.3749 H   0  0  0  0  0  0  0  0  0  0  0  0
    0.9843    0.4194   -1.8504 H   0  0  0  0  0  0  0  0  0  0  0  0
    0.5658    2.1641   -1.4589 H   0  0  0  0  0  0  0  0  0  0  0  0
    1.4447    0.1669    0.6894 H   0  0  0  0  0  0  0  0  0  0  0  0
    1.0558    1.9620    0.7893 H   0  0  0  0  0  0  0  0  0  0  0  0
    3.4977    2.9732   -0.5220 H   0  0  0  0  0  0  0  0  0  0  0  0
    2.4818   -1.4305   -1.4795 H   0  0  0  0  0  0  0  0  0  0  0  0
    2.4871   -2.2788    0.0792 H   0  0  0  0  0  0  0  0  0  0  0  0
    8.1929   -0.9070    1.1031 H   0  0  0  0  0  0  0  0  0  0  0  0
    7.3834   -2.4894    1.2295 H   0  0  0  0  0  0  0  0  0  0  0  0
    6.7514    0.9150    1.9452 H   0  0  0  0  0  0  0  0  0  0  0  0
   -0.5675   -1.3931   -0.9255 H   0  0  0  0  0  0  0  0  0  0  0  0
   -6.2995   -2.6399    1.7597 H   0  0  0  0  0  0  0  0  0  0  0  0
   -6.1423   -3.4302    0.1061 H   0  0  0  0  0  0  0  0  0  0  0  0
   -7.0761   -1.9115    0.2553 H   0  0  0  0  0  0  0  0  0  0  0  0
   -5.5567    0.2679    0.6858 H   0  0  0  0  0  0  0  0  0  0  0  0
  1  2  1  0
  2  3  2  0
  3  4  1  0
  4  5  1  0
  5  6  1  0
  6  7  1  0
  7  8  2  3
  8  9  1  0
  9 10  1  0
  9 11  2  3
 11 12  1  0
 12 13  1  0
 12 14  2  3
  4 15  2  0
 15 16  1  0
 16 17  1  0
 17 18  1  0
 18 19  1  0
 18 20  2  0
 20 21  1  0
 21  2  1  0
 21 16  2  0
  1 22  1  0
  1 23  1  0
  1 24  1  0
  3 25  1  0
  5 26  1  0
  5 27  1  0
  6 28  1  0
  6 29  1  0
  7 30  1  0
 10 31  1  0
 10 32  1  0
 13 33  1  0
 13 34  1  0
 14 35  1  0
 15 36  1  0
 19 37  1  0
 19 38  1  0
 19 39  1  0
 20 40  1  0
M  END
$$$$
[H]c1c([H])c([C@]([H])(N([H])[C@]([H])(C(=O)N([H])C([H])([H])C#N)C([H])([H])C([H])(C([H])([H])[H])C([H])([H])[H])C(F)(F)F)c([H])c([H])c1-c1c([H])c([H])c(S(=O)(=O)C([H])([H])[H])c([H])c1[H]
     RDKit          3D

 59 60  0  0  0  0  0  0  0  0999 V2000
   -4.3666   -2.8466    1.0270 C   0  0  0  0  0  0  0  0  0  0  0  0
   -3.9577   -1.5421    1.6613 C   0  0  0  0  0  0  0  0  0  0  0  0
   -5.1403   -0.7838    2.2020 C   0  0  0  0  0  0  0  0  0  0  0  0
   -2.9786   -0.7521    0.9502 C   0  0  0  0  0  0  0  0  0  0  0  0
   -3.2410   -0.2521   -0.4636 C   0  0  2  0  0  0  0  0  0  0  0  0
   -2.0854    0.4375   -0.8327 N   0  0  0  0  0  0  0  0  0  0  0  0
   -1.4821    1.5629   -0.3577 C   0  0  1  0  0  0  0  0  0  0  0  0
   -0.0007    1.2965   -0.2248 C   0  0  0  0  0  0  0  0  0  0  0  0
    0.7419    1.7515    0.8391 C   0  0  0  0  0  0  0  0  0  0  0  0
    2.0760    1.4346    0.9412 C   0  0  0  0  0  0  0  0  0  0  0  0
    2.6963    0.6507   -0.0252 C   0  0  0  0  0  0  0  0  0  0  0  0
    1.9308    0.2126   -1.0754 C   0  0  0  0  0  0  0  0  0  0  0  0
    0.5805    0.5261   -1.1925 C   0  0  0  0  0  0  0  0  0  0  0  0
    4.1062    0.2990    0.0888 C   0  0  0  0  0  0  0  0  0  0  0  0
    4.5346   -0.9216   -0.4208 C   0  0  0  0  0  0  0  0  0  0  0  0
    5.8502   -1.2756   -0.3176 C   0  0  0  0  0  0  0  0  0  0  0  0
    6.7606   -0.4411    0.2832 C   0  0  0  0  0  0  0  0  0  0  0  0
    6.3206    0.7671    0.7824 C   0  0  0  0  0  0  0  0  0  0  0  0
    5.0137    1.1492    0.6958 C   0  0  0  0  0  0  0  0  0  0  0  0
    8.4371   -0.8867    0.4370 S   0  0  0  0  0  0  0  0  0  0  0  0
    9.3700   -0.5147   -1.0148 C   0  0  0  0  0  0  0  0  0  0  0  0
    8.5088   -2.3418    0.7887 O   0  0  0  0  0  0  0  0  0  0  0  0
    9.0581   -0.1494    1.6155 O   0  0  0  0  0  0  0  0  0  0  0  0
   -1.6669    2.9175   -0.9468 C   0  0  0  0  0  0  0  0  0  0  0  0
   -1.2733    2.9173   -2.3094 F   0  0  0  0  0  0  0  0  0  0  0  0
   -0.6391    3.7829   -0.3974 F   0  0  0  0  0  0  0  0  0  0  0  0
   -2.7916    3.6118   -0.7438 F   0  0  0  0  0  0  0  0  0  0  0  0
   -4.5185    0.3401   -0.7071 C   0  0  0  0  0  0  0  0  0  0  0  0
   -4.9543    1.4883   -0.4997 O   0  0  0  0  0  0  0  0  0  0  0  0
   -5.5465   -0.5074   -1.3175 N   0  0  0  0  0  0  0  0  0  0  0  0
   -6.8636   -0.0571   -1.6207 C   0  0  0  0  0  0  0  0  0  0  0  0
   -7.6416    0.3988   -0.4785 C   0  0  0  0  0  0  0  0  0  0  0  0
   -8.2554    0.7501    0.4593 N   0  0  0  0  0  0  0  0  0  0  0  0
   -5.4621   -2.7195    0.7735 H   0  0  0  0  0  0  0  0  0  0  0  0
   -4.3303   -3.6902    1.7397 H   0  0  0  0  0  0  0  0  0  0  0  0
   -3.7835   -3.1254    0.1477 H   0  0  0  0  0  0  0  0  0  0  0  0
   -3.4143   -1.8955    2.6282 H   0  0  0  0  0  0  0  0  0  0  0  0
   -5.3152   -0.9671    3.2926 H   0  0  0  0  0  0  0  0  0  0  0  0
   -6.0837   -1.1820    1.7251 H   0  0  0  0  0  0  0  0  0  0  0  0
   -5.0446    0.3141    2.1151 H   0  0  0  0  0  0  0  0  0  0  0  0
   -2.7034    0.1478    1.5740 H   0  0  0  0  0  0  0  0  0  0  0  0
   -1.9841   -1.2879    0.8467 H   0  0  0  0  0  0  0  0  0  0  0  0
   -3.2065   -1.2135   -1.1213 H   0  0  0  0  0  0  0  0  0  0  0  0
   -1.8947    0.3069   -1.8964 H   0  0  0  0  0  0  0  0  0  0  0  0
   -1.7640    1.7367    0.7714 H   0  0  0  0  0  0  0  0  0  0  0  0
    0.2645    2.3561    1.5873 H   0  0  0  0  0  0  0  0  0  0  0  0
    2.7034    1.7752    1.7765 H   0  0  0  0  0  0  0  0  0  0  0  0
    2.4085   -0.4012   -1.8419 H   0  0  0  0  0  0  0  0  0  0  0  0
    0.0798    0.1304   -2.0607 H   0  0  0  0  0  0  0  0  0  0  0  0
    3.8521   -1.6214   -0.9075 H   0  0  0  0  0  0  0  0  0  0  0  0
    6.1598   -2.2306   -0.7212 H   0  0  0  0  0  0  0  0  0  0  0  0
    7.0554    1.4303    1.2602 H   0  0  0  0  0  0  0  0  0  0  0  0
    4.6266    2.0810    1.0717 H   0  0  0  0  0  0  0  0  0  0  0  0
   10.3216   -1.1150   -0.9924 H   0  0  0  0  0  0  0  0  0  0  0  0
    8.7949   -0.8208   -1.9358 H   0  0  0  0  0  0  0  0  0  0  0  0
    9.6464    0.5579   -1.0386 H   0  0  0  0  0  0  0  0  0  0  0  0
   -5.3173   -1.5088   -1.5663 H   0  0  0  0  0  0  0  0  0  0  0  0
   -6.7376    0.7705   -2.3789 H   0  0  0  0  0  0  0  0  0  0  0  0
   -7.4535   -0.8504   -2.1323 H   0  0  0  0  0  0  0  0  0  0  0  0
  1  2  1  0
  2  3  1  0
  2  4  1  0
  4  5  1  0
  5  6  1  0
  6  7  1  0
  7  8  1  0
  8  9  2  0
  9 10  1  0
 10 11  2  0
 11 12  1  0
 12 13  2  0
 11 14  1  0
 14 15  2  0
 15 16  1  0
 16 17  2  0
 17 18  1  0
 18 19  2  0
 17 20  1  0
 20 21  1  0
 20 22  2  0
 20 23  2  0
  7 24  1  0
 24 25  1  0
 24 26  1  0
 24 27  1  0
  5 28  1  0
 28 29  2  0
 28 30  1  0
 30 31  1  0
 31 32  1  0
 32 33  3  0
 13  8  1  0
 19 14  1  0
  1 34  1  0
  1 35  1  0
  1 36  1  0
  2 37  1  0
  3 38  1  0
  3 39  1  0
  3 40  1  0
  4 41  1  0
  4 42  1  0
  5 43  1  6
  6 44  1  0
  7 45  1  1
  9 46  1  0
 10 47  1  0
 12 48  1  0
 13 49  1  0
 15 50  1  0
 16 51  1  0
 18 52  1  0
 19 53  1  0
 21 54  1  0
 21 55  1  0
 21 56  1  0
 30 57  1  0
 31 58  1  0
 31 59  1  0
M  END
$$$$
[H]c1nc2c(c([H])c([H])n2[H])c(-c2c([H])c([H])c(N([H])[H])c(C(=O)N3C([H])([H])C([H])([H])OC([H])([H])C3([H])[H])c2[H])c1[H]
     RDKit          3D

 42 45  0  0  0  0  0  0  0  0999 V2000
   -1.1756   -3.3468   -1.6162 N   0  0  0  0  0  0  0  0  0  0  0  0
   -0.2417   -2.3397   -1.2540 C   0  0  0  0  0  0  0  0  0  0  0  0
    1.1098   -2.5592   -1.4319 C   0  0  0  0  0  0  0  0  0  0  0  0
    2.0314   -1.6062   -1.0920 C   0  0  0  0  0  0  0  0  0  0  0  0
    1.5887   -0.4281   -0.5709 C   0  0  0  0  0  0  0  0  0  0  0  0
    0.2130   -0.2236   -0.3978 C   0  0  0  0  0  0  0  0  0  0  0  0
   -0.7529   -1.1426   -0.7209 C   0  0  0  0  0  0  0  0  0  0  0  0
   -2.1783   -0.9805   -0.5593 C   0  0  0  0  0  0  0  0  0  0  0  0
   -2.8505   -2.0466   -0.9524 O   0  0  0  0  0  0  0  0  0  0  0  0
   -2.9514    0.0591   -0.0806 N   0  0  0  0  0  0  0  0  0  0  0  0
   -2.5703    1.3335    0.4132 C   0  0  0  0  0  0  0  0  0  0  0  0
   -3.7675    2.1989    0.7733 C   0  0  0  0  0  0  0  0  0  0  0  0
   -4.7927    1.5634    1.3889 O   0  0  0  0  0  0  0  0  0  0  0  0
   -4.8481    0.2020    1.3159 C   0  0  0  0  0  0  0  0  0  0  0  0
   -4.4324   -0.2116   -0.0836 C   0  0  0  0  0  0  0  0  0  0  0  0
    2.5081    0.6297   -0.1803 C   0  0  0  0  0  0  0  0  0  0  0  0
    2.3258    1.9419   -0.5645 C   0  0  0  0  0  0  0  0  0  0  0  0
    3.1856    2.9621   -0.2162 C   0  0  0  0  0  0  0  0  0  0  0  0
    4.2495    2.6427    0.5361 N   0  0  0  0  0  0  0  0  0  0  0  0
    4.4562    1.3495    0.9325 C   0  0  0  0  0  0  0  0  0  0  0  0
    5.4435    0.8166    1.6822 N   0  0  0  0  0  0  0  0  0  0  0  0
    5.2578   -0.4981    1.8319 C   0  0  0  0  0  0  0  0  0  0  0  0
    4.1135   -0.8276    1.1575 C   0  0  0  0  0  0  0  0  0  0  0  0
    3.6162    0.3178    0.5993 C   0  0  0  0  0  0  0  0  0  0  0  0
   -1.4430   -4.0509   -0.9085 H   0  0  0  0  0  0  0  0  0  0  0  0
   -1.5894   -3.3957   -2.5608 H   0  0  0  0  0  0  0  0  0  0  0  0
    1.4327   -3.5083   -1.8494 H   0  0  0  0  0  0  0  0  0  0  0  0
    3.0944   -1.8156   -1.2522 H   0  0  0  0  0  0  0  0  0  0  0  0
   -0.1150    0.7172    0.0185 H   0  0  0  0  0  0  0  0  0  0  0  0
   -1.9310    1.2459    1.3061 H   0  0  0  0  0  0  0  0  0  0  0  0
   -2.0222    1.8997   -0.3635 H   0  0  0  0  0  0  0  0  0  0  0  0
   -3.3767    2.9891    1.4683 H   0  0  0  0  0  0  0  0  0  0  0  0
   -4.1420    2.7395   -0.1200 H   0  0  0  0  0  0  0  0  0  0  0  0
   -5.9167   -0.1052    1.4544 H   0  0  0  0  0  0  0  0  0  0  0  0
   -4.2503   -0.3193    2.0909 H   0  0  0  0  0  0  0  0  0  0  0  0
   -4.6476   -1.2503   -0.3058 H   0  0  0  0  0  0  0  0  0  0  0  0
   -4.9031    0.5061   -0.7847 H   0  0  0  0  0  0  0  0  0  0  0  0
    1.4733    2.2280   -1.1734 H   0  0  0  0  0  0  0  0  0  0  0  0
    3.0048    3.9965   -0.5431 H   0  0  0  0  0  0  0  0  0  0  0  0
    6.2621    1.3407    2.1053 H   0  0  0  0  0  0  0  0  0  0  0  0
    5.8896   -1.2046    2.3867 H   0  0  0  0  0  0  0  0  0  0  0  0
    3.6424   -1.8192    1.0592 H   0  0  0  0  0  0  0  0  0  0  0  0
  1  2  1  0
  2  3  2  0
  3  4  1  0
  4  5  2  0
  5  6  1  0
  6  7  2  0
  7  8  1  0
  8  9  2  0
  8 10  1  0
 10 11  1  0
 11 12  1  0
 12 13  1  0
 13 14  1  0
 14 15  1  0
  5 16  1  0
 16 17  2  0
 17 18  1  0
 18 19  2  0
 19 20  1  0
 20 21  1  0
 21 22  1  0
 22 23  2  0
 23 24  1  0
  7  2  1  0
 15 10  1  0
 24 16  1  0
 24 20  2  0
  1 25  1  0
  1 26  1  0
  3 27  1  0
  4 28  1  0
  6 29  1  0
 11 30  1  0
 11 31  1  0
 12 32  1  0
 12 33  1  0
 14 34  1  0
 14 35  1  0
 15 36  1  0
 15 37  1  0
 17 38  1  0
 18 39  1  0
 21 40  1  0
 22 41  1  0
 23 42  1  0
M  END
$$$$
[H]Oc1c([H])c([H])c(C(=O)c2c(C([H])([H])C([H])([H])[H])n(-c3c([H])c([H])c([H])c([H])c3[H])c(=O)c3c([H])c([H])c([H])c([H])c23)c([H])c1[H]
     RDKit          3D

 47 50  0  0  0  0  0  0  0  0999 V2000
    0.6700   -0.9196    2.6427 C   0  0  0  0  0  0  0  0  0  0  0  0
    0.7664   -1.1423    1.1849 C   0  0  0  0  0  0  0  0  0  0  0  0
    0.7766   -0.0134    0.2747 C   0  0  0  0  0  0  0  0  0  0  0  0
   -0.3681    0.6916   -0.0119 C   0  0  0  0  0  0  0  0  0  0  0  0
   -1.5936    0.4859    0.7132 C   0  0  0  0  0  0  0  0  0  0  0  0
   -1.5562    1.0715    1.8849 O   0  0  0  0  0  0  0  0  0  0  0  0
   -2.7915   -0.2206    0.3727 C   0  0  0  0  0  0  0  0  0  0  0  0
   -2.9314   -1.2047   -0.5625 C   0  0  0  0  0  0  0  0  0  0  0  0
   -4.1446   -1.8607   -0.8320 C   0  0  0  0  0  0  0  0  0  0  0  0
   -5.2814   -1.4934   -0.1052 C   0  0  0  0  0  0  0  0  0  0  0  0
   -6.4992   -2.1530   -0.3736 O   0  0  0  0  0  0  0  0  0  0  0  0
   -5.1776   -0.5201    0.8280 C   0  0  0  0  0  0  0  0  0  0  0  0
   -3.9714    0.1064    1.0701 C   0  0  0  0  0  0  0  0  0  0  0  0
   -0.2982    1.7065   -0.9682 C   0  0  0  0  0  0  0  0  0  0  0  0
   -1.4526    2.4049   -1.2517 C   0  0  0  0  0  0  0  0  0  0  0  0
   -1.3817    3.4165   -2.2046 C   0  0  0  0  0  0  0  0  0  0  0  0
   -0.1998    3.7073   -2.8388 C   0  0  0  0  0  0  0  0  0  0  0  0
    0.9378    2.9964   -2.5415 C   0  0  0  0  0  0  0  0  0  0  0  0
    0.9231    1.9683   -1.5912 C   0  0  0  0  0  0  0  0  0  0  0  0
    2.0471    1.2573   -1.2879 C   0  0  0  0  0  0  0  0  0  0  0  0
    3.1447    1.4732   -1.8250 O   0  0  0  0  0  0  0  0  0  0  0  0
    1.9549    0.2785   -0.3600 N   0  0  0  0  0  0  0  0  0  0  0  0
    3.1237   -0.4687    0.0013 C   0  0  0  0  0  0  0  0  0  0  0  0
    3.6569   -0.1066    1.2432 C   0  0  0  0  0  0  0  0  0  0  0  0
    4.8005   -0.7489    1.6807 C   0  0  0  0  0  0  0  0  0  0  0  0
    5.3852   -1.7177    0.8968 C   0  0  0  0  0  0  0  0  0  0  0  0
    4.8344   -2.0592   -0.3370 C   0  0  0  0  0  0  0  0  0  0  0  0
    3.6923   -1.4297   -0.7901 C   0  0  0  0  0  0  0  0  0  0  0  0
    0.9911    0.0748    2.9801 H   0  0  0  0  0  0  0  0  0  0  0  0
   -0.3460   -1.1951    3.0648 H   0  0  0  0  0  0  0  0  0  0  0  0
    1.3328   -1.6614    3.2057 H   0  0  0  0  0  0  0  0  0  0  0  0
   -0.0823   -1.8270    0.8347 H   0  0  0  0  0  0  0  0  0  0  0  0
    1.6613   -1.8310    1.0071 H   0  0  0  0  0  0  0  0  0  0  0  0
   -2.0503   -1.4956   -1.1277 H   0  0  0  0  0  0  0  0  0  0  0  0
   -4.2353   -2.6281   -1.5681 H   0  0  0  0  0  0  0  0  0  0  0  0
   -6.6953   -2.9889    0.1652 H   0  0  0  0  0  0  0  0  0  0  0  0
   -6.0582   -0.2100    1.4254 H   0  0  0  0  0  0  0  0  0  0  0  0
   -3.8774    0.8917    1.8213 H   0  0  0  0  0  0  0  0  0  0  0  0
   -2.3970    2.1860   -0.7661 H   0  0  0  0  0  0  0  0  0  0  0  0
   -2.2887    3.9742   -2.4277 H   0  0  0  0  0  0  0  0  0  0  0  0
   -0.1149    4.4890   -3.5741 H   0  0  0  0  0  0  0  0  0  0  0  0
    1.8741    3.1948   -3.0197 H   0  0  0  0  0  0  0  0  0  0  0  0
    3.2066    0.6632    1.8629 H   0  0  0  0  0  0  0  0  0  0  0  0
    5.2281   -0.4904    2.6359 H   0  0  0  0  0  0  0  0  0  0  0  0
    6.2858   -2.1983    1.2629 H   0  0  0  0  0  0  0  0  0  0  0  0
    5.2855   -2.8040   -0.9572 H   0  0  0  0  0  0  0  0  0  0  0  0
    3.2137   -1.6496   -1.7374 H   0  0  0  0  0  0  0  0  0  0  0  0
  1  2  1  0
  2  3  1  0
  3  4  2  0
  4  5  1  0
  5  6  2  0
  5  7  1  0
  7  8  2  0
  8  9  1  0
  9 10  2  0
 10 11  1  0
 10 12  1  0
 12 13  2  0
  4 14  1  0
 14 15  2  0
 15 16  1  0
 16 17  2  0
 17 18  1  0
 18 19  2  0
 19 20  1  0
 20 21  2  0
 20 22  1  0
 22 23  1  0
 23 24  2  0
 24 25  1  0
 25 26  2  0
 26 27  1  0
 27 28  2  0
 22  3  1  0
 28 23  1  0
 13  7  1  0
 19 14  1  0
  1 29  1  0
  1 30  1  0
  1 31  1  0
  2 32  1  0
  2 33  1  0
  8 34  1  0
  9 35  1  0
 11 36  1  0
 12 37  1  0
 13 38  1  0
 15 39  1  0
 16 40  1  0
 17 41  1  0
 18 42  1  0
 24 43  1  0
 25 44  1  0
 26 45  1  0
 27 46  1  0
 28 47  1  0
M  END
$$$$
[H]c1c([H])c([H])c2sc(S(=O)(=O)N([H])C(=O)[C@@]([H])(N([H])[H])C([H])([H])SC([H])(C([H])([H])[H])C([H])([H])C([H])([H])C([H])([H])[H])nc2c1[H]
     RDKit          3D

 45 46  0  0  0  0  0  0  0  0999 V2000
    7.5379    0.2204    0.6618 C   0  0  0  0  0  0  0  0  0  0  0  0
    6.4478    1.2344    0.5547 C   0  0  0  0  0  0  0  0  0  0  0  0
    5.2073    0.8536   -0.1475 C   0  0  0  0  0  0  0  0  0  0  0  0
    4.4221   -0.2584    0.4410 C   0  0  0  0  0  0  0  0  0  0  0  0
    5.1342   -1.5623    0.5119 C   0  0  0  0  0  0  0  0  0  0  0  0
    2.8610   -0.4644   -0.4807 S   0  0  0  0  0  0  0  0  0  0  0  0
    1.8315    0.9848   -0.2371 C   0  0  0  0  0  0  0  0  0  0  0  0
    0.5232    0.8444   -0.9908 C   0  0  2  0  0  0  0  0  0  0  0  0
   -0.2970    2.0204   -0.7860 N   0  0  0  0  0  0  0  0  0  0  0  0
   -0.2328   -0.3503   -0.5597 C   0  0  0  0  0  0  0  0  0  0  0  0
    0.3095   -1.4749   -0.6595 O   0  0  0  0  0  0  0  0  0  0  0  0
   -1.5480   -0.2370   -0.0412 N   0  0  0  0  0  0  0  0  0  0  0  0
   -2.4704   -1.5948    0.4744 S   0  0  0  0  0  0  0  0  0  0  0  0
   -2.0596   -2.8676   -0.2071 O   0  0  0  0  0  0  0  0  0  0  0  0
   -2.2801   -1.7710    1.9348 O   0  0  0  0  0  0  0  0  0  0  0  0
   -4.1653   -1.2313    0.1161 C   0  0  0  0  0  0  0  0  0  0  0  0
   -5.0699   -0.6456    0.8547 N   0  0  0  0  0  0  0  0  0  0  0  0
   -6.2806   -0.4661    0.4114 C   0  0  0  0  0  0  0  0  0  0  0  0
   -7.3370    0.1465    1.1053 C   0  0  0  0  0  0  0  0  0  0  0  0
   -8.5682    0.2824    0.5451 C   0  0  0  0  0  0  0  0  0  0  0  0
   -8.8514   -0.1657   -0.7186 C   0  0  0  0  0  0  0  0  0  0  0  0
   -7.8385   -0.7687   -1.4213 C   0  0  0  0  0  0  0  0  0  0  0  0
   -6.5598   -0.9153   -0.8525 C   0  0  0  0  0  0  0  0  0  0  0  0
   -5.0507   -1.5715   -1.3247 S   0  0  0  0  0  0  0  0  0  0  0  0
    7.3763   -0.5192    1.4604 H   0  0  0  0  0  0  0  0  0  0  0  0
    7.7296   -0.2401   -0.3321 H   0  0  0  0  0  0  0  0  0  0  0  0
    8.5230    0.7218    0.9114 H   0  0  0  0  0  0  0  0  0  0  0  0
    6.9050    2.1076   -0.0165 H   0  0  0  0  0  0  0  0  0  0  0  0
    6.1939    1.6451    1.5863 H   0  0  0  0  0  0  0  0  0  0  0  0
    5.4188    0.5833   -1.2200 H   0  0  0  0  0  0  0  0  0  0  0  0
    4.5075    1.7489   -0.1847 H   0  0  0  0  0  0  0  0  0  0  0  0
    4.1306   -0.0027    1.5147 H   0  0  0  0  0  0  0  0  0  0  0  0
    5.9426   -1.7222   -0.2072 H   0  0  0  0  0  0  0  0  0  0  0  0
    4.3948   -2.3961    0.2689 H   0  0  0  0  0  0  0  0  0  0  0  0
    5.4457   -1.8360    1.5631 H   0  0  0  0  0  0  0  0  0  0  0  0
    1.5905    1.1455    0.8312 H   0  0  0  0  0  0  0  0  0  0  0  0
    2.3803    1.8836   -0.5832 H   0  0  0  0  0  0  0  0  0  0  0  0
    0.7182    0.7431   -2.0707 H   0  0  0  0  0  0  0  0  0  0  0  0
   -0.8244    2.2615   -1.6509 H   0  0  0  0  0  0  0  0  0  0  0  0
    0.2368    2.8195   -0.3896 H   0  0  0  0  0  0  0  0  0  0  0  0
   -1.9777    0.7035    0.0332 H   0  0  0  0  0  0  0  0  0  0  0  0
   -7.1905    0.5344    2.1272 H   0  0  0  0  0  0  0  0  0  0  0  0
   -9.3808    0.7739    1.1281 H   0  0  0  0  0  0  0  0  0  0  0  0
   -9.8258   -0.0433   -1.1264 H   0  0  0  0  0  0  0  0  0  0  0  0
   -7.9593   -1.1542   -2.4203 H   0  0  0  0  0  0  0  0  0  0  0  0
  1  2  1  0
  2  3  1  0
  3  4  1  0
  4  5  1  0
  4  6  1  0
  6  7  1  0
  7  8  1  0
  8  9  1  0
  8 10  1  0
 10 11  2  0
 10 12  1  0
 12 13  1  0
 13 14  2  0
 13 15  2  0
 13 16  1  0
 16 17  2  0
 17 18  1  0
 18 19  2  0
 19 20  1  0
 20 21  2  0
 21 22  1  0
 22 23  2  0
 23 24  1  0
 24 16  1  0
 23 18  1  0
  1 25  1  0
  1 26  1  0
  1 27  1  0
  2 28  1  0
  2 29  1  0
  3 30  1  0
  3 31  1  0
  4 32  1  0
  5 33  1  0
  5 34  1  0
  5 35  1  0
  7 36  1  0
  7 37  1  0
  8 38  1  6
  9 39  1  0
  9 40  1  0
 12 41  1  0
 19 42  1  0
 20 43  1  0
 21 44  1  0
 22 45  1  0
M  END
$$$$
[H]Oc1c([H])c([H])c2nc(C(=O)N([H])C([H])([H])c3nc([H])n(C([H])([H])C([H])([H])[H])c3C([H])([H])[H])sc2c1[H]
     RDKit          3D

 38 40  0  0  0  0  0  0  0  0999 V2000
   -6.1174   -0.6287    0.2536 C   0  0  0  0  0  0  0  0  0  0  0  0
   -5.4391    0.7042    0.0961 C   0  0  0  0  0  0  0  0  0  0  0  0
   -4.0081    0.5259    0.1808 N   0  0  0  0  0  0  0  0  0  0  0  0
   -3.1809    0.2799   -0.8366 C   0  0  0  0  0  0  0  0  0  0  0  0
   -1.9104    0.1763   -0.3529 N   0  0  0  0  0  0  0  0  0  0  0  0
   -1.9453    0.3569    0.9602 C   0  0  0  0  0  0  0  0  0  0  0  0
   -0.8092    0.3231    1.8912 C   0  0  0  0  0  0  0  0  0  0  0  0
    0.4550    0.0806    1.2561 N   0  0  0  0  0  0  0  0  0  0  0  0
    0.9660    0.9869    0.3029 C   0  0  0  0  0  0  0  0  0  0  0  0
    0.3939    2.0452   -0.0635 O   0  0  0  0  0  0  0  0  0  0  0  0
    2.2718    0.7333   -0.3560 C   0  0  0  0  0  0  0  0  0  0  0  0
    3.0948   -0.2845   -0.1778 N   0  0  0  0  0  0  0  0  0  0  0  0
    4.2113   -0.3461   -0.8484 C   0  0  0  0  0  0  0  0  0  0  0  0
    5.1750   -1.3691   -0.7565 C   0  0  0  0  0  0  0  0  0  0  0  0
    6.2967   -1.3113   -1.5130 C   0  0  0  0  0  0  0  0  0  0  0  0
    6.5871   -0.3012   -2.3971 C   0  0  0  0  0  0  0  0  0  0  0  0
    7.7592   -0.3480   -3.1135 O   0  0  0  0  0  0  0  0  0  0  0  0
    5.6489    0.7043   -2.4933 C   0  0  0  0  0  0  0  0  0  0  0  0
    4.4789    0.6727   -1.7239 C   0  0  0  0  0  0  0  0  0  0  0  0
    3.0971    1.6638   -1.5267 S   0  0  0  0  0  0  0  0  0  0  0  0
   -3.2588    0.5765    1.3000 C   0  0  0  0  0  0  0  0  0  0  0  0
   -3.7811    0.8289    2.6670 C   0  0  0  0  0  0  0  0  0  0  0  0
   -5.6274   -1.2383    1.0657 H   0  0  0  0  0  0  0  0  0  0  0  0
   -7.1959   -0.5198    0.4969 H   0  0  0  0  0  0  0  0  0  0  0  0
   -6.0728   -1.1485   -0.7280 H   0  0  0  0  0  0  0  0  0  0  0  0
   -5.7377    1.4268    0.8946 H   0  0  0  0  0  0  0  0  0  0  0  0
   -5.7660    1.1423   -0.8598 H   0  0  0  0  0  0  0  0  0  0  0  0
   -3.4265    0.1724   -1.8816 H   0  0  0  0  0  0  0  0  0  0  0  0
   -0.7720    1.2625    2.5259 H   0  0  0  0  0  0  0  0  0  0  0  0
   -1.0053   -0.4929    2.6502 H   0  0  0  0  0  0  0  0  0  0  0  0
    1.0015   -0.7642    1.4947 H   0  0  0  0  0  0  0  0  0  0  0  0
    5.0469   -2.2166   -0.0885 H   0  0  0  0  0  0  0  0  0  0  0  0
    7.0322   -2.1190   -1.4242 H   0  0  0  0  0  0  0  0  0  0  0  0
    8.6341    0.0539   -2.8014 H   0  0  0  0  0  0  0  0  0  0  0  0
    5.7798    1.5333   -3.1503 H   0  0  0  0  0  0  0  0  0  0  0  0
   -4.2869    1.8326    2.7409 H   0  0  0  0  0  0  0  0  0  0  0  0
   -3.0162    0.7222    3.4344 H   0  0  0  0  0  0  0  0  0  0  0  0
   -4.5732    0.0821    2.8819 H   0  0  0  0  0  0  0  0  0  0  0  0
  1  2  1  0
  2  3  1  0
  3  4  1  0
  4  5  2  0
  5  6  1  0
  6  7  1  0
  7  8  1  0
  8  9  1  0
  9 10  2  0
  9 11  1  0
 11 12  2  0
 12 13  1  0
 13 14  2  0
 14 15  1  0
 15 16  2  0
 16 17  1  0
 16 18  1  0
 18 19  2  0
 19 20  1  0
  6 21  2  0
 21 22  1  0
 21  3  1  0
 20 11  1  0
 19 13  1  0
  1 23  1  0
  1 24  1  0
  1 25  1  0
  2 26  1  0
  2 27  1  0
  4 28  1  0
  7 29  1  0
  7 30  1  0
  8 31  1  0
 14 32  1  0
 15 33  1  0
 17 34  1  0
 18 35  1  0
 22 36  1  0
 22 37  1  0
 22 38  1  0
M  END
$$$$
[H]c1nc([H])c(C(=O)N2C([H])([H])C([H])([H])N(C(=O)C([H])([H])[H])C([H])([H])C2([H])[H])c([H])c1Oc1c([H])c([H])c(N([H])C(=O)c2c([H])c([H])c([H])c([H])c2[H])c([H])c1[H]
     RDKit          3D

 57 60  0  0  0  0  0  0  0  0999 V2000
    5.7925   -0.8542    3.5909 C   0  0  0  0  0  0  0  0  0  0  0  0
    5.6909    0.5059    2.9747 C   0  0  0  0  0  0  0  0  0  0  0  0
    5.8888    1.5082    3.6979 O   0  0  0  0  0  0  0  0  0  0  0  0
    5.3809    0.6732    1.6139 N   0  0  0  0  0  0  0  0  0  0  0  0
    5.1475   -0.4461    0.7559 C   0  0  0  0  0  0  0  0  0  0  0  0
    4.0761   -0.1133   -0.3122 C   0  0  0  0  0  0  0  0  0  0  0  0
    4.3576    1.1066   -0.9849 N   0  0  0  0  0  0  0  0  0  0  0  0
    5.5545    1.8290   -0.4488 C   0  0  0  0  0  0  0  0  0  0  0  0
    5.2923    2.0034    1.0520 C   0  0  0  0  0  0  0  0  0  0  0  0
    3.7062    1.7265   -2.0453 C   0  0  0  0  0  0  0  0  0  0  0  0
    4.2498    2.8634   -2.4237 O   0  0  0  0  0  0  0  0  0  0  0  0
    2.5436    1.2887   -2.7588 C   0  0  0  0  0  0  0  0  0  0  0  0
    2.0894    2.1050   -3.8186 C   0  0  0  0  0  0  0  0  0  0  0  0
    1.0097    1.7767   -4.5386 N   0  0  0  0  0  0  0  0  0  0  0  0
    0.2734    0.6759   -4.3343 C   0  0  0  0  0  0  0  0  0  0  0  0
    0.6712   -0.1527   -3.3160 C   0  0  0  0  0  0  0  0  0  0  0  0
   -0.0544   -1.3207   -3.0489 O   0  0  0  0  0  0  0  0  0  0  0  0
   -1.1136   -1.1916   -2.1270 C   0  0  0  0  0  0  0  0  0  0  0  0
   -2.3819   -0.8772   -2.5410 C   0  0  0  0  0  0  0  0  0  0  0  0
   -3.4486   -0.7406   -1.6760 C   0  0  0  0  0  0  0  0  0  0  0  0
   -3.2656   -0.9226   -0.3228 C   0  0  0  0  0  0  0  0  0  0  0  0
   -4.2450   -0.8393    0.6694 N   0  0  0  0  0  0  0  0  0  0  0  0
   -5.6426   -0.8006    0.5305 C   0  0  0  0  0  0  0  0  0  0  0  0
   -6.1656   -0.8468   -0.6037 O   0  0  0  0  0  0  0  0  0  0  0  0
   -6.5493   -0.7068    1.6681 C   0  0  0  0  0  0  0  0  0  0  0  0
   -7.9350   -0.7319    1.4808 C   0  0  0  0  0  0  0  0  0  0  0  0
   -8.8430   -0.6480    2.4921 C   0  0  0  0  0  0  0  0  0  0  0  0
   -8.4042   -0.5304    3.7903 C   0  0  0  0  0  0  0  0  0  0  0  0
   -7.0493   -0.5014    4.0244 C   0  0  0  0  0  0  0  0  0  0  0  0
   -6.1339   -0.5888    2.9727 C   0  0  0  0  0  0  0  0  0  0  0  0
   -1.9617   -1.2441    0.0897 C   0  0  0  0  0  0  0  0  0  0  0  0
   -0.9091   -1.3768   -0.7820 C   0  0  0  0  0  0  0  0  0  0  0  0
    1.7961    0.1642   -2.5459 C   0  0  0  0  0  0  0  0  0  0  0  0
    6.4956   -0.7942    4.4468 H   0  0  0  0  0  0  0  0  0  0  0  0
    4.8208   -1.2498    3.9014 H   0  0  0  0  0  0  0  0  0  0  0  0
    6.2426   -1.5548    2.8345 H   0  0  0  0  0  0  0  0  0  0  0  0
    6.0625   -0.7303    0.2180 H   0  0  0  0  0  0  0  0  0  0  0  0
    4.7855   -1.3489    1.2891 H   0  0  0  0  0  0  0  0  0  0  0  0
    3.1196   -0.1530    0.2405 H   0  0  0  0  0  0  0  0  0  0  0  0
    4.1915   -0.9613   -1.0378 H   0  0  0  0  0  0  0  0  0  0  0  0
    6.4130    1.1324   -0.5324 H   0  0  0  0  0  0  0  0  0  0  0  0
    5.6828    2.7816   -0.9630 H   0  0  0  0  0  0  0  0  0  0  0  0
    4.2713    2.4150    1.1911 H   0  0  0  0  0  0  0  0  0  0  0  0
    6.0537    2.6898    1.4524 H   0  0  0  0  0  0  0  0  0  0  0  0
    2.6532    3.0164   -4.0296 H   0  0  0  0  0  0  0  0  0  0  0  0
   -0.5947    0.4348   -4.9315 H   0  0  0  0  0  0  0  0  0  0  0  0
   -2.5627   -0.7275   -3.5965 H   0  0  0  0  0  0  0  0  0  0  0  0
   -4.4439   -0.4774   -2.0655 H   0  0  0  0  0  0  0  0  0  0  0  0
   -3.9021   -0.7927    1.6737 H   0  0  0  0  0  0  0  0  0  0  0  0
   -8.3028   -0.8243    0.4617 H   0  0  0  0  0  0  0  0  0  0  0  0
   -9.9002   -0.6757    2.2514 H   0  0  0  0  0  0  0  0  0  0  0  0
   -9.1402   -0.4647    4.5843 H   0  0  0  0  0  0  0  0  0  0  0  0
   -6.6810   -0.4079    5.0565 H   0  0  0  0  0  0  0  0  0  0  0  0
   -5.0844   -0.5586    3.2336 H   0  0  0  0  0  0  0  0  0  0  0  0
   -1.7511   -1.4002    1.1380 H   0  0  0  0  0  0  0  0  0  0  0  0
    0.0988   -1.6264   -0.4519 H   0  0  0  0  0  0  0  0  0  0  0  0
    2.0547   -0.5150   -1.7692 H   0  0  0  0  0  0  0  0  0  0  0  0
  1  2  1  0
  2  3  2  0
  2  4  1  0
  4  5  1  0
  5  6  1  0
  6  7  1  0
  7  8  1  0
  8  9  1  0
  7 10  1  0
 10 11  2  0
 10 12  1  0
 12 13  2  0
 13 14  1  0
 14 15  2  0
 15 16  1  0
 16 17  1  0
 17 18  1  0
 18 19  2  0
 19 20  1  0
 20 21  2  0
 21 22  1  0
 22 23  1  0
 23 24  2  0
 23 25  1  0
 25 26  2  0
 26 27  1  0
 27 28  2  0
 28 29  1  0
 29 30  2  0
 21 31  1  0
 31 32  2  0
 16 33  2  0
  9  4  1  0
 33 12  1  0
 32 18  1  0
 30 25  1  0
  1 34  1  0
  1 35  1  0
  1 36  1  0
  5 37  1  0
  5 38  1  0
  6 39  1  0
  6 40  1  0
  8 41  1  0
  8 42  1  0
  9 43  1  0
  9 44  1  0
 13 45  1  0
 15 46  1  0
 19 47  1  0
 20 48  1  0
 22 49  1  0
 26 50  1  0
 27 51  1  0
 28 52  1  0
 29 53  1  0
 30 54  1  0
 31 55  1  0
 32 56  1  0
 33 57  1  0
M  END
$$$$
[H]c1c([H])c([H])c(N(C([H])([H])[C@@]([H])(C(=O)N([H])[H])N([H])S(=O)(=O)c2c([H])c([H])c(OC([H])([H])[H])c([H])c2[H])S(=O)(=O)c2c([H])c([H])c([H])c([H])c2[H])c([H])c1[H]
     RDKit          3D

 56 58  0  0  0  0  0  0  0  0999 V2000
    8.5659    0.5360   -1.2800 C   0  0  0  0  0  0  0  0  0  0  0  0
    7.5938   -0.4176   -1.6468 O   0  0  0  0  0  0  0  0  0  0  0  0
    6.3619   -0.4539   -0.9950 C   0  0  0  0  0  0  0  0  0  0  0  0
    6.0373    0.4249    0.0228 C   0  0  0  0  0  0  0  0  0  0  0  0
    4.8129    0.3708    0.6535 C   0  0  0  0  0  0  0  0  0  0  0  0
    3.8486   -0.5698    0.2951 C   0  0  0  0  0  0  0  0  0  0  0  0
    4.1733   -1.4434   -0.7174 C   0  0  0  0  0  0  0  0  0  0  0  0
    5.4071   -1.3862   -1.3505 C   0  0  0  0  0  0  0  0  0  0  0  0
    2.2936   -0.6035    1.1241 S   0  0  0  0  0  0  0  0  0  0  0  0
    1.8078   -2.0189    1.2357 O   0  0  0  0  0  0  0  0  0  0  0  0
    2.5195   -0.0433    2.5068 O   0  0  0  0  0  0  0  0  0  0  0  0
    1.2177    0.4114    0.2961 N   0  0  0  0  0  0  0  0  0  0  0  0
    0.1014   -0.3405   -0.3517 C   0  0  1  0  0  0  0  0  0  0  0  0
   -1.1133    0.2042    0.3053 C   0  0  0  0  0  0  0  0  0  0  0  0
   -2.4029   -0.2497   -0.0229 N   0  0  0  0  0  0  0  0  0  0  0  0
   -2.7852   -1.5574    0.4716 C   0  0  0  0  0  0  0  0  0  0  0  0
   -3.3550   -1.6490    1.7490 C   0  0  0  0  0  0  0  0  0  0  0  0
   -3.7337   -2.8620    2.2743 C   0  0  0  0  0  0  0  0  0  0  0  0
   -3.5660   -4.0279    1.5627 C   0  0  0  0  0  0  0  0  0  0  0  0
   -2.9999   -3.9094    0.3011 C   0  0  0  0  0  0  0  0  0  0  0  0
   -2.6136   -2.7092   -0.2452 C   0  0  0  0  0  0  0  0  0  0  0  0
   -3.5982    0.5944   -0.8945 S   0  0  0  0  0  0  0  0  0  0  0  0
   -4.8867   -0.2144   -1.0161 O   0  0  0  0  0  0  0  0  0  0  0  0
   -3.2294    0.9479   -2.2961 O   0  0  0  0  0  0  0  0  0  0  0  0
   -4.0798    2.0687   -0.0626 C   0  0  0  0  0  0  0  0  0  0  0  0
   -3.3922    3.2284   -0.3004 C   0  0  0  0  0  0  0  0  0  0  0  0
   -3.7415    4.4248    0.3362 C   0  0  0  0  0  0  0  0  0  0  0  0
   -4.8087    4.4306    1.2261 C   0  0  0  0  0  0  0  0  0  0  0  0
   -5.5080    3.2584    1.4696 C   0  0  0  0  0  0  0  0  0  0  0  0
   -5.1236    2.0901    0.8125 C   0  0  0  0  0  0  0  0  0  0  0  0
    0.2956   -0.1204   -1.7778 C   0  0  0  0  0  0  0  0  0  0  0  0
   -0.4249   -0.8338   -2.7600 N   0  0  0  0  0  0  0  0  0  0  0  0
    1.1247    0.7164   -2.2066 O   0  0  0  0  0  0  0  0  0  0  0  0
    9.5541    0.2937   -1.7226 H   0  0  0  0  0  0  0  0  0  0  0  0
    8.1885    1.5334   -1.5994 H   0  0  0  0  0  0  0  0  0  0  0  0
    8.6979    0.5833   -0.1782 H   0  0  0  0  0  0  0  0  0  0  0  0
    6.8012    1.1522    0.2898 H   0  0  0  0  0  0  0  0  0  0  0  0
    4.5636    1.0667    1.4535 H   0  0  0  0  0  0  0  0  0  0  0  0
    3.4290   -2.1811   -1.0045 H   0  0  0  0  0  0  0  0  0  0  0  0
    5.6206   -2.1013   -2.1517 H   0  0  0  0  0  0  0  0  0  0  0  0
    0.8973    1.2472    0.7820 H   0  0  0  0  0  0  0  0  0  0  0  0
    0.2921   -1.4230   -0.0767 H   0  0  0  0  0  0  0  0  0  0  0  0
   -1.0314    1.3374    0.2042 H   0  0  0  0  0  0  0  0  0  0  0  0
   -0.9133    0.0812    1.4318 H   0  0  0  0  0  0  0  0  0  0  0  0
   -3.4843   -0.7172    2.3049 H   0  0  0  0  0  0  0  0  0  0  0  0
   -4.1660   -2.8951    3.2543 H   0  0  0  0  0  0  0  0  0  0  0  0
   -3.8586   -5.0003    1.9588 H   0  0  0  0  0  0  0  0  0  0  0  0
   -2.8716   -4.8416   -0.2531 H   0  0  0  0  0  0  0  0  0  0  0  0
   -2.1877   -2.7187   -1.2295 H   0  0  0  0  0  0  0  0  0  0  0  0
   -2.5568    3.2893   -0.9765 H   0  0  0  0  0  0  0  0  0  0  0  0
   -3.2295    5.3565    0.1797 H   0  0  0  0  0  0  0  0  0  0  0  0
   -5.0895    5.3550    1.7258 H   0  0  0  0  0  0  0  0  0  0  0  0
   -6.3230    3.3121    2.1638 H   0  0  0  0  0  0  0  0  0  0  0  0
   -5.7016    1.2050    1.0386 H   0  0  0  0  0  0  0  0  0  0  0  0
   -0.8903   -0.3556   -3.5650 H   0  0  0  0  0  0  0  0  0  0  0  0
   -0.5394   -1.8761   -2.7487 H   0  0  0  0  0  0  0  0  0  0  0  0
  1  2  1  0
  2  3  1  0
  3  4  2  0
  4  5  1  0
  5  6  2  0
  6  7  1  0
  7  8  2  0
  6  9  1  0
  9 10  2  0
  9 11  2  0
  9 12  1  0
 12 13  1  0
 13 14  1  0
 14 15  1  0
 15 16  1  0
 16 17  2  0
 17 18  1  0
 18 19  2  0
 19 20  1  0
 20 21  2  0
 15 22  1  0
 22 23  2  0
 22 24  2  0
 22 25  1  0
 25 26  2  0
 26 27  1  0
 27 28  2  0
 28 29  1  0
 29 30  2  0
 13 31  1  0
 31 32  1  0
 31 33  2  0
  8  3  1  0
 21 16  1  0
 30 25  1  0
  1 34  1  0
  1 35  1  0
  1 36  1  0
  4 37  1  0
  5 38  1  0
  7 39  1  0
  8 40  1  0
 12 41  1  0
 13 42  1  6
 14 43  1  0
 14 44  1  0
 17 45  1  0
 18 46  1  0
 19 47  1  0
 20 48  1  0
 21 49  1  0
 26 50  1  0
 27 51  1  0
 28 52  1  0
 29 53  1  0
 30 54  1  0
 32 55  1  0
 32 56  1  0
M  END
$$$$
[H]c1nc([H])c([H])c(-c2c(OC([H])([H])C3([H])C([H])([H])C3([H])[H])nc3c([H])c(-c4c([H])nc([H])c(OC([H])([H])[H])c4[H])c(N([H])C(=O)N([H])C([H])([H])C([H])([H])[H])nc3c2[H])c1[H]
     RDKit          3D

 61 65  0  0  0  0  0  0  0  0999 V2000
   -4.7628   -4.5994   -0.6296 C   0  0  0  0  0  0  0  0  0  0  0  0
   -5.1669   -3.6037   -1.6939 C   0  0  0  0  0  0  0  0  0  0  0  0
   -4.8719   -2.2604   -1.2941 N   0  0  0  0  0  0  0  0  0  0  0  0
   -3.5465   -1.8559   -1.0000 C   0  0  0  0  0  0  0  0  0  0  0  0
   -2.6250   -2.6915   -1.0935 O   0  0  0  0  0  0  0  0  0  0  0  0
   -3.2423   -0.5299   -0.6036 N   0  0  0  0  0  0  0  0  0  0  0  0
   -1.8907   -0.1598   -0.3148 C   0  0  0  0  0  0  0  0  0  0  0  0
   -0.9216   -1.1058   -0.3780 N   0  0  0  0  0  0  0  0  0  0  0  0
    0.3713   -0.8922   -0.1006 C   0  0  0  0  0  0  0  0  0  0  0  0
    1.2814   -1.9325   -0.1969 C   0  0  0  0  0  0  0  0  0  0  0  0
    2.6180   -1.6932    0.0947 C   0  0  0  0  0  0  0  0  0  0  0  0
    3.6226   -2.7373    0.0115 C   0  0  0  0  0  0  0  0  0  0  0  0
    3.3378   -3.9621    0.5708 C   0  0  0  0  0  0  0  0  0  0  0  0
    4.2848   -4.9918    0.5058 C   0  0  0  0  0  0  0  0  0  0  0  0
    5.4640   -4.8056   -0.0918 N   0  0  0  0  0  0  0  0  0  0  0  0
    5.7740   -3.6171   -0.6498 C   0  0  0  0  0  0  0  0  0  0  0  0
    4.8434   -2.5791   -0.5951 C   0  0  0  0  0  0  0  0  0  0  0  0
    2.9669   -0.3989    0.4728 C   0  0  0  0  0  0  0  0  0  0  0  0
    4.3084   -0.1785    0.7610 O   0  0  0  0  0  0  0  0  0  0  0  0
    4.8162    1.0735    1.1566 C   0  0  0  0  0  0  0  0  0  0  0  0
    4.5266    2.0621    0.0359 C   0  0  0  0  0  0  0  0  0  0  0  0
    5.0915    1.8027   -1.3000 C   0  0  0  0  0  0  0  0  0  0  0  0
    5.7499    2.8833   -0.4434 C   0  0  0  0  0  0  0  0  0  0  0  0
    2.0424    0.5780    0.5510 N   0  0  0  0  0  0  0  0  0  0  0  0
    0.7368    0.3817    0.2753 C   0  0  0  0  0  0  0  0  0  0  0  0
   -0.1939    1.3843    0.3584 C   0  0  0  0  0  0  0  0  0  0  0  0
   -1.5428    1.1122    0.0562 C   0  0  0  0  0  0  0  0  0  0  0  0
   -2.5066    2.2035    0.1181 C   0  0  0  0  0  0  0  0  0  0  0  0
   -3.2882    2.5057   -0.9664 C   0  0  0  0  0  0  0  0  0  0  0  0
   -4.1927    3.5151   -0.9371 N   0  0  0  0  0  0  0  0  0  0  0  0
   -4.3642    4.2762    0.1777 C   0  0  0  0  0  0  0  0  0  0  0  0
   -3.5948    4.0000    1.2868 C   0  0  0  0  0  0  0  0  0  0  0  0
   -3.7575    4.7753    2.4482 O   0  0  0  0  0  0  0  0  0  0  0  0
   -4.6964    5.8267    2.4868 C   0  0  0  0  0  0  0  0  0  0  0  0
   -2.6764    2.9718    1.2505 C   0  0  0  0  0  0  0  0  0  0  0  0
   -3.6899   -4.8873   -0.7332 H   0  0  0  0  0  0  0  0  0  0  0  0
   -5.4379   -5.4754   -0.6924 H   0  0  0  0  0  0  0  0  0  0  0  0
   -4.8765   -4.1163    0.3536 H   0  0  0  0  0  0  0  0  0  0  0  0
   -4.6121   -3.8933   -2.6256 H   0  0  0  0  0  0  0  0  0  0  0  0
   -6.2272   -3.7468   -1.9117 H   0  0  0  0  0  0  0  0  0  0  0  0
   -5.6739   -1.5723   -1.2232 H   0  0  0  0  0  0  0  0  0  0  0  0
   -4.0470    0.1192   -0.5322 H   0  0  0  0  0  0  0  0  0  0  0  0
    0.9949   -2.9325   -0.4920 H   0  0  0  0  0  0  0  0  0  0  0  0
    2.4186   -4.1958    1.0678 H   0  0  0  0  0  0  0  0  0  0  0  0
    4.0760   -5.9582    0.9399 H   0  0  0  0  0  0  0  0  0  0  0  0
    6.7409   -3.5144   -1.1222 H   0  0  0  0  0  0  0  0  0  0  0  0
    5.1042   -1.6358   -1.0464 H   0  0  0  0  0  0  0  0  0  0  0  0
    4.4461    1.4176    2.1232 H   0  0  0  0  0  0  0  0  0  0  0  0
    5.9204    0.9527    1.2556 H   0  0  0  0  0  0  0  0  0  0  0  0
    3.5857    2.6421    0.1341 H   0  0  0  0  0  0  0  0  0  0  0  0
    5.6214    0.8314   -1.4167 H   0  0  0  0  0  0  0  0  0  0  0  0
    4.5759    2.1335   -2.2235 H   0  0  0  0  0  0  0  0  0  0  0  0
    6.7151    2.6155    0.0402 H   0  0  0  0  0  0  0  0  0  0  0  0
    5.5593    3.9265   -0.7585 H   0  0  0  0  0  0  0  0  0  0  0  0
    0.0919    2.3884    0.6543 H   0  0  0  0  0  0  0  0  0  0  0  0
   -3.1893    1.9297   -1.8762 H   0  0  0  0  0  0  0  0  0  0  0  0
   -5.1048    5.0722    0.1417 H   0  0  0  0  0  0  0  0  0  0  0  0
   -4.2866    6.7065    1.9289 H   0  0  0  0  0  0  0  0  0  0  0  0
   -4.9289    6.1563    3.5048 H   0  0  0  0  0  0  0  0  0  0  0  0
   -5.6853    5.5031    2.0467 H   0  0  0  0  0  0  0  0  0  0  0  0
   -2.0856    2.7758    2.1334 H   0  0  0  0  0  0  0  0  0  0  0  0
  1  2  1  0
  2  3  1  0
  3  4  1  0
  4  5  2  0
  4  6  1  0
  6  7  1  0
  7  8  2  0
  8  9  1  0
  9 10  2  0
 10 11  1  0
 11 12  1  0
 12 13  2  0
 13 14  1  0
 14 15  2  0
 15 16  1  0
 16 17  2  0
 11 18  2  0
 18 19  1  0
 19 20  1  0
 20 21  1  0
 21 22  1  0
 22 23  1  0
 18 24  1  0
 24 25  2  0
 25 26  1  0
 26 27  2  0
 27 28  1  0
 28 29  2  0
 29 30  1  0
 30 31  2  0
 31 32  1  0
 32 33  1  0
 33 34  1  0
 32 35  2  0
 27  7  1  0
 35 28  1  0
 25  9  1  0
 17 12  1  0
 23 21  1  0
  1 36  1  0
  1 37  1  0
  1 38  1  0
  2 39  1  0
  2 40  1  0
  3 41  1  0
  6 42  1  0
 10 43  1  0
 13 44  1  0
 14 45  1  0
 16 46  1  0
 17 47  1  0
 20 48  1  0
 20 49  1  0
 21 50  1  0
 22 51  1  0
 22 52  1  0
 23 53  1  0
 23 54  1  0
 26 55  1  0
 29 56  1  0
 31 57  1  0
 34 58  1  0
 34 59  1  0
 34 60  1  0
 35 61  1  0
M  END
$$$$
[H]OC(=O)c1c([H])c([H])c2nc(SC([H])([H])c3c([H])c([H])c([H])c([N+](=O)[O-])c3[H])n([H])c2c1[H]
     RDKit          3D

 34 36  0  0  0  0  0  0  0  0999 V2000
    6.5773    2.0168   -0.8971 O   0  0  0  0  0  0  0  0  0  0  0  0
    6.5075    0.6723   -0.5906 C   0  0  0  0  0  0  0  0  0  0  0  0
    7.5545   -0.0179   -0.6620 O   0  0  0  0  0  0  0  0  0  0  0  0
    5.2706    0.0162   -0.1870 C   0  0  0  0  0  0  0  0  0  0  0  0
    5.2353   -1.3261    0.1117 C   0  0  0  0  0  0  0  0  0  0  0  0
    4.0758   -1.9426    0.4903 C   0  0  0  0  0  0  0  0  0  0  0  0
    2.9019   -1.2258    0.5827 C   0  0  0  0  0  0  0  0  0  0  0  0
    1.6238   -1.5274    0.9180 N   0  0  0  0  0  0  0  0  0  0  0  0
    0.8609   -0.4273    0.8405 C   0  0  0  0  0  0  0  0  0  0  0  0
   -0.8788   -0.2167    1.1621 S   0  0  0  0  0  0  0  0  0  0  0  0
   -1.7673   -0.5080   -0.3819 C   0  0  0  0  0  0  0  0  0  0  0  0
   -3.2427   -0.3534   -0.2129 C   0  0  0  0  0  0  0  0  0  0  0  0
   -3.9651   -1.4771    0.1372 C   0  0  0  0  0  0  0  0  0  0  0  0
   -5.3301   -1.3609    0.2996 C   0  0  0  0  0  0  0  0  0  0  0  0
   -5.9733   -0.1549    0.1194 C   0  0  0  0  0  0  0  0  0  0  0  0
   -5.2393    0.9569   -0.2297 C   0  0  0  0  0  0  0  0  0  0  0  0
   -3.8753    0.8433   -0.3925 C   0  0  0  0  0  0  0  0  0  0  0  0
   -5.8863    2.2251   -0.4232 N   0  0  0  0  0  0  0  0  0  0  0  0
   -7.2414    2.3688   -0.2683 O   0  0  0  0  0  0  0  0  0  0  0  0
   -5.2050    3.2154   -0.7379 O   0  0  0  0  0  0  0  0  0  0  0  0
    1.6670    0.5721    0.4533 N   0  0  0  0  0  0  0  0  0  0  0  0
    2.9346    0.1201    0.2838 C   0  0  0  0  0  0  0  0  0  0  0  0
    4.1166    0.7434   -0.1011 C   0  0  0  0  0  0  0  0  0  0  0  0
    6.2778    2.6975   -0.2078 H   0  0  0  0  0  0  0  0  0  0  0  0
    6.1394   -1.9188    0.0494 H   0  0  0  0  0  0  0  0  0  0  0  0
    4.0070   -3.0038    0.7351 H   0  0  0  0  0  0  0  0  0  0  0  0
   -1.5374   -1.5516   -0.7053 H   0  0  0  0  0  0  0  0  0  0  0  0
   -1.3725    0.1554   -1.1792 H   0  0  0  0  0  0  0  0  0  0  0  0
   -3.4695   -2.4325    0.2819 H   0  0  0  0  0  0  0  0  0  0  0  0
   -5.9395   -2.2318    0.5778 H   0  0  0  0  0  0  0  0  0  0  0  0
   -7.0398   -0.0276    0.2381 H   0  0  0  0  0  0  0  0  0  0  0  0
   -3.2665    1.7173   -0.6713 H   0  0  0  0  0  0  0  0  0  0  0  0
    1.4131    1.5889    0.2864 H   0  0  0  0  0  0  0  0  0  0  0  0
    4.0668    1.7949   -0.3187 H   0  0  0  0  0  0  0  0  0  0  0  0
  1  2  1  0
  2  3  2  0
  2  4  1  0
  4  5  2  0
  5  6  1  0
  6  7  2  0
  7  8  1  0
  8  9  2  0
  9 10  1  0
 10 11  1  0
 11 12  1  0
 12 13  2  0
 13 14  1  0
 14 15  2  0
 15 16  1  0
 16 17  2  0
 16 18  1  0
 18 19  1  0
 18 20  2  0
  9 21  1  0
 21 22  1  0
 22 23  2  0
 23  4  1  0
 22  7  1  0
 17 12  1  0
  1 24  1  0
  5 25  1  0
  6 26  1  0
 11 27  1  0
 11 28  1  0
 13 29  1  0
 14 30  1  0
 15 31  1  0
 17 32  1  0
 21 33  1  0
 23 34  1  0
M  CHG  2  18   1  19  -1
M  END
$$$$
[H]C1=C([H])C([H])(F)C([H])([H])C([H])=C1N([H])C(=O)C1(C(=O)N([H])c2c([H])c([H])c(Oc3c([H])c([H])nc4c([H])c(OC([H])([H])C([H])([H])C([H])([H])N5C([H])([H])C([H])([H])OC([H])([H])C5([H])[H])c(OC([H])([H])[H])c([H])c34)c(F)c2[H])C([H])([H])C1([H])[H]
     RDKit          3D

 82 87  0  0  0  0  0  0  0  0999 V2000
    3.9666    3.0495   -1.7322 C   0  0  0  0  0  0  0  0  0  0  0  0
    4.8184    1.9472   -1.5191 O   0  0  0  0  0  0  0  0  0  0  0  0
    4.2779    0.7150   -1.2054 C   0  0  0  0  0  0  0  0  0  0  0  0
    2.9355    0.4830   -1.0834 C   0  0  0  0  0  0  0  0  0  0  0  0
    2.5057   -0.7878   -0.7673 C   0  0  0  0  0  0  0  0  0  0  0  0
    1.1302   -1.0757   -0.6337 C   0  0  0  0  0  0  0  0  0  0  0  0
    0.2693   -0.0306   -0.8259 O   0  0  0  0  0  0  0  0  0  0  0  0
   -1.0898   -0.1642   -0.6451 C   0  0  0  0  0  0  0  0  0  0  0  0
   -1.9847   -0.0120   -1.6950 C   0  0  0  0  0  0  0  0  0  0  0  0
   -3.3381   -0.1282   -1.5809 C   0  0  0  0  0  0  0  0  0  0  0  0
   -3.8905   -0.4214   -0.3289 C   0  0  0  0  0  0  0  0  0  0  0  0
   -5.3238   -0.4986   -0.2135 N   0  0  0  0  0  0  0  0  0  0  0  0
   -5.9613   -1.3830    0.6262 C   0  0  0  0  0  0  0  0  0  0  0  0
   -5.1921   -2.1849    1.2964 O   0  0  0  0  0  0  0  0  0  0  0  0
   -7.4011   -1.5958    0.9101 C   0  0  0  0  0  0  0  0  0  0  0  0
   -7.6820   -2.4618    2.1265 C   0  0  0  0  0  0  0  0  0  0  0  0
   -7.8126   -3.1190    0.8294 C   0  0  0  0  0  0  0  0  0  0  0  0
   -8.4706   -0.6963    0.4763 C   0  0  0  0  0  0  0  0  0  0  0  0
   -9.6747   -1.1656    0.7176 O   0  0  0  0  0  0  0  0  0  0  0  0
   -8.4814    0.5528   -0.1324 N   0  0  0  0  0  0  0  0  0  0  0  0
   -9.7446    1.2195   -0.4499 C   0  0  0  0  0  0  0  0  0  0  0  0
   -9.9496    2.4040    0.0799 C   0  0  0  0  0  0  0  0  0  0  0  0
  -11.1350    3.2347   -0.1097 C   0  0  0  0  0  0  0  0  0  0  0  0
  -12.2008    2.6387   -0.9439 C   0  0  0  0  0  0  0  0  0  0  0  0
  -12.4721    3.4850   -2.0494 F   0  0  0  0  0  0  0  0  0  0  0  0
  -11.8730    1.3187   -1.4859 C   0  0  0  0  0  0  0  0  0  0  0  0
  -10.7586    0.6480   -1.2759 C   0  0  0  0  0  0  0  0  0  0  0  0
   -3.0432   -0.5784    0.7341 C   0  0  0  0  0  0  0  0  0  0  0  0
   -1.6522   -0.4525    0.5863 C   0  0  0  0  0  0  0  0  0  0  0  0
   -0.8827   -0.5957    1.6903 F   0  0  0  0  0  0  0  0  0  0  0  0
    0.7223   -2.3515   -0.3227 C   0  0  0  0  0  0  0  0  0  0  0  0
    1.6378   -3.3635   -0.1352 C   0  0  0  0  0  0  0  0  0  0  0  0
    2.9451   -3.0865   -0.2619 N   0  0  0  0  0  0  0  0  0  0  0  0
    3.3732   -1.8309   -0.5703 C   0  0  0  0  0  0  0  0  0  0  0  0
    4.7330   -1.5901   -0.6954 C   0  0  0  0  0  0  0  0  0  0  0  0
    5.1920   -0.3333   -1.0085 C   0  0  0  0  0  0  0  0  0  0  0  0
    6.5206   -0.0853   -1.1253 O   0  0  0  0  0  0  0  0  0  0  0  0
    7.5310   -0.9938   -0.8772 C   0  0  0  0  0  0  0  0  0  0  0  0
    7.6262   -1.3701    0.5948 C   0  0  0  0  0  0  0  0  0  0  0  0
    7.9359   -0.0985    1.3961 C   0  0  0  0  0  0  0  0  0  0  0  0
    9.1945    0.4265    0.9288 N   0  0  0  0  0  0  0  0  0  0  0  0
    9.4053    1.7864    1.4776 C   0  0  0  0  0  0  0  0  0  0  0  0
   10.8161    2.1639    1.0165 C   0  0  0  0  0  0  0  0  0  0  0  0
   11.2632    1.3549   -0.0281 O   0  0  0  0  0  0  0  0  0  0  0  0
   11.4615    0.0232    0.3872 C   0  0  0  0  0  0  0  0  0  0  0  0
   10.3466   -0.3576    1.3702 C   0  0  0  0  0  0  0  0  0  0  0  0
    4.5770    3.9509   -1.9692 H   0  0  0  0  0  0  0  0  0  0  0  0
    3.3066    3.2216   -0.8582 H   0  0  0  0  0  0  0  0  0  0  0  0
    3.3086    2.7911   -2.5987 H   0  0  0  0  0  0  0  0  0  0  0  0
    2.2243    1.2761   -1.2311 H   0  0  0  0  0  0  0  0  0  0  0  0
   -1.5528    0.2161   -2.6750 H   0  0  0  0  0  0  0  0  0  0  0  0
   -4.0246   -0.0039   -2.4200 H   0  0  0  0  0  0  0  0  0  0  0  0
   -5.8260    0.1518   -0.8369 H   0  0  0  0  0  0  0  0  0  0  0  0
   -6.8106   -2.7138    2.7607 H   0  0  0  0  0  0  0  0  0  0  0  0
   -8.5985   -2.2800    2.7131 H   0  0  0  0  0  0  0  0  0  0  0  0
   -7.0275   -3.7752    0.4011 H   0  0  0  0  0  0  0  0  0  0  0  0
   -8.7992   -3.3162    0.3639 H   0  0  0  0  0  0  0  0  0  0  0  0
   -7.6334    1.0911   -0.3743 H   0  0  0  0  0  0  0  0  0  0  0  0
   -9.1652    2.8388    0.7401 H   0  0  0  0  0  0  0  0  0  0  0  0
  -11.5358    3.5321    0.9159 H   0  0  0  0  0  0  0  0  0  0  0  0
  -10.8538    4.2484   -0.5572 H   0  0  0  0  0  0  0  0  0  0  0  0
  -13.1586    2.5647   -0.3407 H   0  0  0  0  0  0  0  0  0  0  0  0
  -12.6648    0.8691   -2.1323 H   0  0  0  0  0  0  0  0  0  0  0  0
  -10.6018   -0.3227   -1.7168 H   0  0  0  0  0  0  0  0  0  0  0  0
   -3.4037   -0.7893    1.7394 H   0  0  0  0  0  0  0  0  0  0  0  0
   -0.3200   -2.5956   -0.2356 H   0  0  0  0  0  0  0  0  0  0  0  0
    1.2680   -4.3480    0.1079 H   0  0  0  0  0  0  0  0  0  0  0  0
    5.3620   -2.4538   -0.5623 H   0  0  0  0  0  0  0  0  0  0  0  0
    7.4424   -1.9223   -1.5038 H   0  0  0  0  0  0  0  0  0  0  0  0
    8.4920   -0.5348   -1.2249 H   0  0  0  0  0  0  0  0  0  0  0  0
    6.7751   -1.8921    1.0071 H   0  0  0  0  0  0  0  0  0  0  0  0
    8.4922   -2.0400    0.6815 H   0  0  0  0  0  0  0  0  0  0  0  0
    7.1233    0.6400    1.3255 H   0  0  0  0  0  0  0  0  0  0  0  0
    8.0487   -0.4301    2.4644 H   0  0  0  0  0  0  0  0  0  0  0  0
    9.4079    1.7624    2.5778 H   0  0  0  0  0  0  0  0  0  0  0  0
    8.6320    2.4413    1.0296 H   0  0  0  0  0  0  0  0  0  0  0  0
   11.5508    2.0414    1.8480 H   0  0  0  0  0  0  0  0  0  0  0  0
   10.8264    3.2054    0.6080 H   0  0  0  0  0  0  0  0  0  0  0  0
   11.3001   -0.6008   -0.5146 H   0  0  0  0  0  0  0  0  0  0  0  0
   12.4569   -0.1361    0.8078 H   0  0  0  0  0  0  0  0  0  0  0  0
   10.1090   -1.3943    1.4038 H   0  0  0  0  0  0  0  0  0  0  0  0
   10.6797    0.0679    2.3647 H   0  0  0  0  0  0  0  0  0  0  0  0
  1  2  1  0
  2  3  1  0
  3  4  2  0
  4  5  1  0
  5  6  2  0
  6  7  1  0
  7  8  1  0
  8  9  2  0
  9 10  1  0
 10 11  2  0
 11 12  1  0
 12 13  1  0
 13 14  2  0
 13 15  1  0
 15 16  1  0
 16 17  1  0
 15 18  1  0
 18 19  2  0
 18 20  1  0
 20 21  1  0
 21 22  2  0
 22 23  1  0
 23 24  1  0
 24 25  1  0
 24 26  1  0
 26 27  2  0
 11 28  1  0
 28 29  2  0
 29 30  1  0
  6 31  1  0
 31 32  2  0
 32 33  1  0
 33 34  2  0
 34 35  1  0
 35 36  2  0
 36 37  1  0
 37 38  1  0
 38 39  1  0
 39 40  1  0
 40 41  1  0
 41 42  1  0
 42 43  1  0
 43 44  1  0
 44 45  1  0
 45 46  1  0
 36  3  1  0
 46 41  1  0
 34  5  1  0
 29  8  1  0
 17 15  1  0
 27 21  1  0
  1 47  1  0
  1 48  1  0
  1 49  1  0
  4 50  1  0
  9 51  1  0
 10 52  1  0
 12 53  1  0
 16 54  1  0
 16 55  1  0
 17 56  1  0
 17 57  1  0
 20 58  1  0
 22 59  1  0
 23 60  1  0
 23 61  1  0
 24 62  1  0
 26 63  1  0
 27 64  1  0
 28 65  1  0
 31 66  1  0
 32 67  1  0
 35 68  1  0
 38 69  1  0
 38 70  1  0
 39 71  1  0
 39 72  1  0
 40 73  1  0
 40 74  1  0
 42 75  1  0
 42 76  1  0
 43 77  1  0
 43 78  1  0
 45 79  1  0
 45 80  1  0
 46 81  1  0
 46 82  1  0
M  END
$$$$
[H]c1c(Cl)c([H])c(C(=O)N([H])c2c([H])c([H])c(-c3c([H])c([H])c(N4C([H])([H])C([H])([H])C([H])([H])C([H])([H])C4([H])[H])c(C#N)c3[H])c([H])c2[H])c([H])c1Cl
     RDKit          3D

 52 55  0  0  0  0  0  0  0  0999 V2000
   10.2876   -2.9706    0.4067 Cl  0  0  0  0  0  0  0  0  0  0  0  0
    9.2045   -1.8408   -0.3690 C   0  0  0  0  0  0  0  0  0  0  0  0
    9.7376   -0.8911   -1.1982 C   0  0  0  0  0  0  0  0  0  0  0  0
    8.8960    0.0024   -1.8136 C   0  0  0  0  0  0  0  0  0  0  0  0
    9.5700    1.2116   -2.8683 Cl  0  0  0  0  0  0  0  0  0  0  0  0
    7.5147   -0.0565   -1.5966 C   0  0  0  0  0  0  0  0  0  0  0  0
    6.9679   -0.9986   -0.7716 C   0  0  0  0  0  0  0  0  0  0  0  0
    7.8487   -1.8948   -0.1590 C   0  0  0  0  0  0  0  0  0  0  0  0
    5.5352   -1.0434   -0.5509 C   0  0  0  0  0  0  0  0  0  0  0  0
    5.0917   -2.1055   -0.0729 O   0  0  0  0  0  0  0  0  0  0  0  0
    4.7169    0.0375   -0.8564 N   0  0  0  0  0  0  0  0  0  0  0  0
    3.3103    0.0473   -0.6722 C   0  0  0  0  0  0  0  0  0  0  0  0
    2.6619    1.2981   -0.6320 C   0  0  0  0  0  0  0  0  0  0  0  0
    1.3024    1.4232   -0.4807 C   0  0  0  0  0  0  0  0  0  0  0  0
    0.4879    0.3207   -0.3583 C   0  0  0  0  0  0  0  0  0  0  0  0
    1.1070   -0.9035   -0.3962 C   0  0  0  0  0  0  0  0  0  0  0  0
    2.5001   -1.0454   -0.5513 C   0  0  0  0  0  0  0  0  0  0  0  0
   -0.9552    0.4364   -0.1962 C   0  0  0  0  0  0  0  0  0  0  0  0
   -1.4756    1.5312    0.4774 C   0  0  0  0  0  0  0  0  0  0  0  0
   -2.8238    1.6907    0.6596 C   0  0  0  0  0  0  0  0  0  0  0  0
   -3.7052    0.7565    0.1723 C   0  0  0  0  0  0  0  0  0  0  0  0
   -5.0804    0.9319    0.3622 N   0  0  0  0  0  0  0  0  0  0  0  0
   -6.0508    1.0737   -0.7323 C   0  0  0  0  0  0  0  0  0  0  0  0
   -7.3993    0.5403   -0.4065 C   0  0  0  0  0  0  0  0  0  0  0  0
   -7.4841   -0.4397    0.6984 C   0  0  0  0  0  0  0  0  0  0  0  0
   -6.5558   -0.2121    1.8396 C   0  0  0  0  0  0  0  0  0  0  0  0
   -5.6887    0.9933    1.7021 C   0  0  0  0  0  0  0  0  0  0  0  0
   -3.2172   -0.3318   -0.4953 C   0  0  0  0  0  0  0  0  0  0  0  0
   -1.8422   -0.4906   -0.6789 C   0  0  0  0  0  0  0  0  0  0  0  0
   -4.1054   -1.3280   -1.0146 C   0  0  0  0  0  0  0  0  0  0  0  0
   -4.8227   -2.1630   -1.4346 N   0  0  0  0  0  0  0  0  0  0  0  0
   10.8044   -0.8322   -1.3765 H   0  0  0  0  0  0  0  0  0  0  0  0
    6.9226    0.6837   -2.1263 H   0  0  0  0  0  0  0  0  0  0  0  0
    7.3940   -2.6289    0.4875 H   0  0  0  0  0  0  0  0  0  0  0  0
    5.1807    0.9267   -1.2581 H   0  0  0  0  0  0  0  0  0  0  0  0
    3.2851    2.1722   -0.7259 H   0  0  0  0  0  0  0  0  0  0  0  0
    0.8065    2.3940   -0.4503 H   0  0  0  0  0  0  0  0  0  0  0  0
    0.5087   -1.7862   -0.3043 H   0  0  0  0  0  0  0  0  0  0  0  0
    2.8978   -2.0317   -0.5853 H   0  0  0  0  0  0  0  0  0  0  0  0
   -0.7663    2.2713    0.8627 H   0  0  0  0  0  0  0  0  0  0  0  0
   -3.1560    2.5814    1.2017 H   0  0  0  0  0  0  0  0  0  0  0  0
   -5.6378    0.7540   -1.7032 H   0  0  0  0  0  0  0  0  0  0  0  0
   -6.1630    2.1962   -0.8314 H   0  0  0  0  0  0  0  0  0  0  0  0
   -7.7817    0.0294   -1.3402 H   0  0  0  0  0  0  0  0  0  0  0  0
   -8.1627    1.3558   -0.2358 H   0  0  0  0  0  0  0  0  0  0  0  0
   -7.3973   -1.4841    0.2831 H   0  0  0  0  0  0  0  0  0  0  0  0
   -8.5354   -0.4109    1.1112 H   0  0  0  0  0  0  0  0  0  0  0  0
   -5.8744   -1.1054    1.9020 H   0  0  0  0  0  0  0  0  0  0  0  0
   -7.0900   -0.2104    2.8328 H   0  0  0  0  0  0  0  0  0  0  0  0
   -4.9427    1.0084    2.4962 H   0  0  0  0  0  0  0  0  0  0  0  0
   -6.3625    1.8937    1.7613 H   0  0  0  0  0  0  0  0  0  0  0  0
   -1.4638   -1.3564   -1.2095 H   0  0  0  0  0  0  0  0  0  0  0  0
  1  2  1  0
  2  3  2  0
  3  4  1  0
  4  5  1  0
  4  6  2  0
  6  7  1  0
  7  8  2  0
  7  9  1  0
  9 10  2  0
  9 11  1  0
 11 12  1  0
 12 13  2  0
 13 14  1  0
 14 15  2  0
 15 16  1  0
 16 17  2  0
 15 18  1  0
 18 19  2  0
 19 20  1  0
 20 21  2  0
 21 22  1  0
 22 23  1  0
 23 24  1  0
 24 25  1  0
 25 26  1  0
 26 27  1  0
 21 28  1  0
 28 29  2  0
 28 30  1  0
 30 31  3  0
  8  2  1  0
 17 12  1  0
 29 18  1  0
 27 22  1  0
  3 32  1  0
  6 33  1  0
  8 34  1  0
 11 35  1  0
 13 36  1  0
 14 37  1  0
 16 38  1  0
 17 39  1  0
 19 40  1  0
 20 41  1  0
 23 42  1  0
 23 43  1  0
 24 44  1  0
 24 45  1  0
 25 46  1  0
 25 47  1  0
 26 48  1  0
 26 49  1  0
 27 50  1  0
 27 51  1  0
 29 52  1  0
M  END
$$$$
[H]O[C@@]1([H])C([H])([H])C([H])([H])C([H])([H])[C@@]1([H])N([H])C(=O)c1c([H])nc(OC([H])([H])c2c(-c3c([H])c([H])c([H])c([H])c3[H])noc2C([H])([H])[H])c([H])c1[H]
     RDKit          3D

 52 55  0  0  0  0  0  0  0  0999 V2000
    3.9670   -3.3195   -2.2438 C   0  0  0  0  0  0  0  0  0  0  0  0
    4.8544   -2.4508   -1.4739 C   0  0  0  0  0  0  0  0  0  0  0  0
    6.1681   -2.6402   -1.3408 O   0  0  0  0  0  0  0  0  0  0  0  0
    6.6611   -1.6945   -0.6015 N   0  0  0  0  0  0  0  0  0  0  0  0
    5.6716   -0.8278   -0.2096 C   0  0  0  0  0  0  0  0  0  0  0  0
    4.5054   -1.3191   -0.7733 C   0  0  0  0  0  0  0  0  0  0  0  0
    3.1718   -0.7437   -0.7032 C   0  0  0  0  0  0  0  0  0  0  0  0
    2.1293   -1.6559   -0.3793 O   0  0  0  0  0  0  0  0  0  0  0  0
    0.8632   -1.0528   -0.2824 C   0  0  0  0  0  0  0  0  0  0  0  0
   -0.2754   -1.7957    0.0114 C   0  0  0  0  0  0  0  0  0  0  0  0
   -1.5307   -1.2188    0.1244 C   0  0  0  0  0  0  0  0  0  0  0  0
   -1.6703    0.1413   -0.0607 C   0  0  0  0  0  0  0  0  0  0  0  0
   -0.5088    0.8499   -0.3539 C   0  0  0  0  0  0  0  0  0  0  0  0
    0.6851    0.2716   -0.4561 N   0  0  0  0  0  0  0  0  0  0  0  0
   -2.9336    0.8465    0.0603 C   0  0  0  0  0  0  0  0  0  0  0  0
   -2.9404    2.1084    0.2001 O   0  0  0  0  0  0  0  0  0  0  0  0
   -4.1862    0.1792    0.0330 N   0  0  0  0  0  0  0  0  0  0  0  0
   -5.4035    0.9059    0.1741 C   0  0  2  0  0  0  0  0  0  0  0  0
   -6.2573    0.3871    1.3470 C   0  0  0  0  0  0  0  0  0  0  0  0
   -7.5808    1.0498    0.9712 C   0  0  0  0  0  0  0  0  0  0  0  0
   -7.7188    0.6833   -0.4796 C   0  0  0  0  0  0  0  0  0  0  0  0
   -6.3030    0.6921   -1.0000 C   0  0  2  0  0  0  0  0  0  0  0  0
   -6.0803   -0.4943   -1.6656 O   0  0  0  0  0  0  0  0  0  0  0  0
    5.8340    0.3614    0.6048 C   0  0  0  0  0  0  0  0  0  0  0  0
    6.5830    0.3294    1.7593 C   0  0  0  0  0  0  0  0  0  0  0  0
    6.7332    1.4804    2.5362 C   0  0  0  0  0  0  0  0  0  0  0  0
    6.1296    2.6557    2.1485 C   0  0  0  0  0  0  0  0  0  0  0  0
    5.3768    2.7072    1.0004 C   0  0  0  0  0  0  0  0  0  0  0  0
    5.2482    1.5694    0.2621 C   0  0  0  0  0  0  0  0  0  0  0  0
    4.5590   -4.0041   -2.8791 H   0  0  0  0  0  0  0  0  0  0  0  0
    3.2544   -2.7957   -2.8826 H   0  0  0  0  0  0  0  0  0  0  0  0
    3.4208   -4.0094   -1.5312 H   0  0  0  0  0  0  0  0  0  0  0  0
    3.1145    0.0623    0.0900 H   0  0  0  0  0  0  0  0  0  0  0  0
    2.8932   -0.2517   -1.6537 H   0  0  0  0  0  0  0  0  0  0  0  0
   -0.1359   -2.8509    0.1558 H   0  0  0  0  0  0  0  0  0  0  0  0
   -2.4202   -1.8188    0.3513 H   0  0  0  0  0  0  0  0  0  0  0  0
   -0.6025    1.9193   -0.5069 H   0  0  0  0  0  0  0  0  0  0  0  0
   -4.2297   -0.8608   -0.0851 H   0  0  0  0  0  0  0  0  0  0  0  0
   -5.2417    1.9898    0.3761 H   0  0  0  0  0  0  0  0  0  0  0  0
   -6.3565   -0.7179    1.2613 H   0  0  0  0  0  0  0  0  0  0  0  0
   -5.8923    0.7519    2.3073 H   0  0  0  0  0  0  0  0  0  0  0  0
   -8.4294    0.6919    1.5927 H   0  0  0  0  0  0  0  0  0  0  0  0
   -7.4358    2.1549    1.1100 H   0  0  0  0  0  0  0  0  0  0  0  0
   -8.1483   -0.3532   -0.5053 H   0  0  0  0  0  0  0  0  0  0  0  0
   -8.3685    1.3959   -1.0338 H   0  0  0  0  0  0  0  0  0  0  0  0
   -6.1954    1.5925   -1.6569 H   0  0  0  0  0  0  0  0  0  0  0  0
   -5.1614   -0.5594   -1.9840 H   0  0  0  0  0  0  0  0  0  0  0  0
    7.0910   -0.5777    2.1102 H   0  0  0  0  0  0  0  0  0  0  0  0
    7.3264    1.4458    3.4343 H   0  0  0  0  0  0  0  0  0  0  0  0
    6.2239    3.5692    2.7261 H   0  0  0  0  0  0  0  0  0  0  0  0
    4.8794    3.6091    0.6526 H   0  0  0  0  0  0  0  0  0  0  0  0
    4.6623    1.6116   -0.6584 H   0  0  0  0  0  0  0  0  0  0  0  0
  1  2  1  0
  2  3  1  0
  3  4  1  0
  4  5  2  0
  5  6  1  0
  6  7  1  0
  7  8  1  0
  8  9  1  0
  9 10  2  0
 10 11  1  0
 11 12  2  0
 12 13  1  0
 13 14  2  0
 12 15  1  0
 15 16  2  0
 15 17  1  0
 17 18  1  0
 18 19  1  0
 19 20  1  0
 20 21  1  0
 21 22  1  0
 22 23  1  0
  5 24  1  0
 24 25  2  0
 25 26  1  0
 26 27  2  0
 27 28  1  0
 28 29  2  0
  6  2  2  0
 14  9  1  0
 22 18  1  0
 29 24  1  0
  1 30  1  0
  1 31  1  0
  1 32  1  0
  7 33  1  0
  7 34  1  0
 10 35  1  0
 11 36  1  0
 13 37  1  0
 17 38  1  0
 18 39  1  1
 19 40  1  0
 19 41  1  0
 20 42  1  0
 20 43  1  0
 21 44  1  0
 21 45  1  0
 22 46  1  6
 23 47  1  0
 25 48  1  0
 26 49  1  0
 27 50  1  0
 28 51  1  0
 29 52  1  0
M  END
$$$$
[H]OC(=O)c1c(N([H])[H])nc([H])c(-c2c([H])c([H])c(O[H])c(OC([H])([H])[H])c2[H])c1N=Nc1c([H])c([H])c2nc([H])c([H])c([H])c2c1[H]
     RDKit          3D

 48 51  0  0  0  0  0  0  0  0999 V2000
   -1.2693    2.6229   -1.8183 C   0  0  0  0  0  0  0  0  0  0  0  0
   -2.5400    2.3838   -1.2426 O   0  0  0  0  0  0  0  0  0  0  0  0
   -2.9121    1.1563   -0.7570 C   0  0  0  0  0  0  0  0  0  0  0  0
   -2.0735    0.0493   -0.7919 C   0  0  0  0  0  0  0  0  0  0  0  0
   -2.4685   -1.1671   -0.3014 C   0  0  0  0  0  0  0  0  0  0  0  0
   -3.7592   -1.2354    0.2357 C   0  0  0  0  0  0  0  0  0  0  0  0
   -4.5864   -0.1484    0.2716 C   0  0  0  0  0  0  0  0  0  0  0  0
   -4.2003    1.0799   -0.2185 C   0  0  0  0  0  0  0  0  0  0  0  0
   -5.0239    2.1946   -0.1914 O   0  0  0  0  0  0  0  0  0  0  0  0
   -1.6469   -2.3768   -0.2989 C   0  0  0  0  0  0  0  0  0  0  0  0
   -2.1347   -3.5418   -0.8347 C   0  0  0  0  0  0  0  0  0  0  0  0
   -1.4242   -4.6820   -0.8709 N   0  0  0  0  0  0  0  0  0  0  0  0
   -0.1793   -4.7616   -0.3820 C   0  0  0  0  0  0  0  0  0  0  0  0
    0.5700   -5.9803   -0.4254 N   0  0  0  0  0  0  0  0  0  0  0  0
    0.3691   -3.6245    0.1711 C   0  0  0  0  0  0  0  0  0  0  0  0
    1.7225   -3.7039    0.7118 C   0  0  0  0  0  0  0  0  0  0  0  0
    2.4026   -4.9316    0.6419 O   0  0  0  0  0  0  0  0  0  0  0  0
    2.3012   -2.7288    1.2332 O   0  0  0  0  0  0  0  0  0  0  0  0
   -0.3476   -2.4035    0.2279 C   0  0  0  0  0  0  0  0  0  0  0  0
    0.1485   -1.2842    0.7669 N   0  0  0  0  0  0  0  0  0  0  0  0
    0.5520   -0.3390    1.2601 N   0  0  0  0  0  0  0  0  0  0  0  0
    1.4085    0.7247    0.8278 C   0  0  0  0  0  0  0  0  0  0  0  0
    2.1065    0.5747   -0.3499 C   0  0  0  0  0  0  0  0  0  0  0  0
    2.9477    1.5846   -0.7891 C   0  0  0  0  0  0  0  0  0  0  0  0
    3.0888    2.7465   -0.0455 C   0  0  0  0  0  0  0  0  0  0  0  0
    3.9142    3.7368   -0.4720 N   0  0  0  0  0  0  0  0  0  0  0  0
    4.0762    4.8637    0.2151 C   0  0  0  0  0  0  0  0  0  0  0  0
    3.3887    5.0532    1.4083 C   0  0  0  0  0  0  0  0  0  0  0  0
    2.5457    4.0642    1.8626 C   0  0  0  0  0  0  0  0  0  0  0  0
    2.3884    2.8890    1.1292 C   0  0  0  0  0  0  0  0  0  0  0  0
    1.5518    1.8676    1.5518 C   0  0  0  0  0  0  0  0  0  0  0  0
   -1.1137    3.6936   -2.0476 H   0  0  0  0  0  0  0  0  0  0  0  0
   -0.4466    2.1897   -1.2248 H   0  0  0  0  0  0  0  0  0  0  0  0
   -1.2370    2.0926   -2.8145 H   0  0  0  0  0  0  0  0  0  0  0  0
   -1.0827    0.1330   -1.2201 H   0  0  0  0  0  0  0  0  0  0  0  0
   -4.0802   -2.1806    0.6221 H   0  0  0  0  0  0  0  0  0  0  0  0
   -5.6024   -0.2069    0.6947 H   0  0  0  0  0  0  0  0  0  0  0  0
   -5.9485    2.1055    0.2049 H   0  0  0  0  0  0  0  0  0  0  0  0
   -3.1540   -3.5194   -1.2475 H   0  0  0  0  0  0  0  0  0  0  0  0
    1.1446   -6.2294   -1.2574 H   0  0  0  0  0  0  0  0  0  0  0  0
    0.5684   -6.6571    0.3667 H   0  0  0  0  0  0  0  0  0  0  0  0
    3.2814   -5.0395    0.1525 H   0  0  0  0  0  0  0  0  0  0  0  0
    1.9729   -0.3451   -0.9056 H   0  0  0  0  0  0  0  0  0  0  0  0
    3.4921    1.4761   -1.7023 H   0  0  0  0  0  0  0  0  0  0  0  0
    4.7396    5.6539   -0.1329 H   0  0  0  0  0  0  0  0  0  0  0  0
    3.5544    5.9850    1.9269 H   0  0  0  0  0  0  0  0  0  0  0  0
    2.0043    4.1986    2.7906 H   0  0  0  0  0  0  0  0  0  0  0  0
    0.9908    1.9668    2.4809 H   0  0  0  0  0  0  0  0  0  0  0  0
  1  2  1  0
  2  3  1  0
  3  4  2  0
  4  5  1  0
  5  6  2  0
  6  7  1  0
  7  8  2  0
  8  9  1  0
  5 10  1  0
 10 11  2  0
 11 12  1  0
 12 13  2  0
 13 14  1  0
 13 15  1  0
 15 16  1  0
 16 17  1  0
 16 18  2  0
 15 19  2  0
 19 20  1  0
 20 21  2  3
 21 22  1  0
 22 23  2  0
 23 24  1  0
 24 25  2  0
 25 26  1  0
 26 27  2  0
 27 28  1  0
 28 29  2  0
 29 30  1  0
 30 31  2  0
  8  3  1  0
 19 10  1  0
 31 22  1  0
 30 25  1  0
  1 32  1  0
  1 33  1  0
  1 34  1  0
  4 35  1  0
  6 36  1  0
  7 37  1  0
  9 38  1  0
 11 39  1  0
 14 40  1  0
 14 41  1  0
 17 42  1  0
 23 43  1  0
 24 44  1  0
 27 45  1  0
 28 46  1  0
 29 47  1  0
 31 48  1  0
M  END
$$$$
[H]OC([H])([H])[C@@]1(O[H])C([H])([H])[C@@]2([H])O[C@]1(C([H])([H])[H])n1c3c([H])c([H])c([H])c([H])c3c3c4c(c5c6c([H])c([H])c([H])c([H])c6n2c5c31)C(=O)N([H])C4([H])[H]
     RDKit          3D

 54 61  0  0  0  0  0  0  0  0999 V2000
    3.1800    0.8838    1.3878 C   0  0  0  0  0  0  0  0  0  0  0  0
    2.1176    0.2237    0.5774 C   0  0  2  0  0  0  0  0  0  0  0  0
    1.6968   -0.7870    1.4854 O   0  0  0  0  0  0  0  0  0  0  0  0
    1.2511   -1.8639    0.7986 C   0  0  2  0  0  0  0  0  0  0  0  0
    2.0328   -1.9517   -0.4419 C   0  0  0  0  0  0  0  0  0  0  0  0
    2.6347   -0.5714   -0.5849 C   0  0  1  0  0  0  0  0  0  0  0  0
    2.2138   -0.0799   -1.8115 O   0  0  0  0  0  0  0  0  0  0  0  0
    4.1191   -0.7109   -0.6110 C   0  0  0  0  0  0  0  0  0  0  0  0
    4.4589   -1.5975   -1.6334 O   0  0  0  0  0  0  0  0  0  0  0  0
   -0.2014   -1.7853    0.5955 N   0  0  0  0  0  0  0  0  0  0  0  0
   -1.1044   -2.7499    0.6347 C   0  0  0  0  0  0  0  0  0  0  0  0
   -0.9179   -4.0868    0.8734 C   0  0  0  0  0  0  0  0  0  0  0  0
   -2.0299   -4.9199    0.8648 C   0  0  0  0  0  0  0  0  0  0  0  0
   -3.2823   -4.4161    0.6235 C   0  0  0  0  0  0  0  0  0  0  0  0
   -3.4758   -3.0511    0.3794 C   0  0  0  0  0  0  0  0  0  0  0  0
   -2.3768   -2.2421    0.3902 C   0  0  0  0  0  0  0  0  0  0  0  0
   -2.2053   -0.8905    0.1945 C   0  0  0  0  0  0  0  0  0  0  0  0
   -3.0670    0.1511   -0.0975 C   0  0  0  0  0  0  0  0  0  0  0  0
   -4.5001    0.2660   -0.2996 C   0  0  0  0  0  0  0  0  0  0  0  0
   -5.3884   -0.5871   -0.2658 O   0  0  0  0  0  0  0  0  0  0  0  0
   -4.7851    1.6416   -0.5724 N   0  0  0  0  0  0  0  0  0  0  0  0
   -3.5735    2.4248   -0.5610 C   0  0  0  0  0  0  0  0  0  0  0  0
   -2.5314    1.4168   -0.2472 C   0  0  0  0  0  0  0  0  0  0  0  0
   -1.1701    1.6669   -0.1133 C   0  0  0  0  0  0  0  0  0  0  0  0
   -0.3770    2.7657   -0.2198 C   0  0  0  0  0  0  0  0  0  0  0  0
   -0.7006    4.0705   -0.5126 C   0  0  0  0  0  0  0  0  0  0  0  0
    0.3203    5.0230   -0.5829 C   0  0  0  0  0  0  0  0  0  0  0  0
    1.6233    4.6180   -0.3553 C   0  0  0  0  0  0  0  0  0  0  0  0
    1.9232    3.2989   -0.0625 C   0  0  0  0  0  0  0  0  0  0  0  0
    0.9354    2.3466    0.0129 C   0  0  0  0  0  0  0  0  0  0  0  0
    0.9590    1.0103    0.2643 N   0  0  0  0  0  0  0  0  0  0  0  0
   -0.3578    0.6223    0.1746 C   0  0  0  0  0  0  0  0  0  0  0  0
   -0.8544   -0.6533    0.3299 C   0  0  0  0  0  0  0  0  0  0  0  0
    4.0624    1.2462    0.8471 H   0  0  0  0  0  0  0  0  0  0  0  0
    3.5596    0.1949    2.1815 H   0  0  0  0  0  0  0  0  0  0  0  0
    2.7312    1.7230    1.9466 H   0  0  0  0  0  0  0  0  0  0  0  0
    1.4219   -2.7643    1.4120 H   0  0  0  0  0  0  0  0  0  0  0  0
    1.4720   -2.2700   -1.3403 H   0  0  0  0  0  0  0  0  0  0  0  0
    2.8377   -2.7359   -0.3258 H   0  0  0  0  0  0  0  0  0  0  0  0
    2.8799   -0.3390   -2.4928 H   0  0  0  0  0  0  0  0  0  0  0  0
    4.5238   -1.1579    0.3296 H   0  0  0  0  0  0  0  0  0  0  0  0
    4.6358    0.2581   -0.8438 H   0  0  0  0  0  0  0  0  0  0  0  0
    4.7979   -2.4633   -1.2908 H   0  0  0  0  0  0  0  0  0  0  0  0
    0.0592   -4.4684    1.0598 H   0  0  0  0  0  0  0  0  0  0  0  0
   -1.8569   -5.9719    1.0560 H   0  0  0  0  0  0  0  0  0  0  0  0
   -4.1224   -5.0759    0.6219 H   0  0  0  0  0  0  0  0  0  0  0  0
   -4.4721   -2.7398    0.2018 H   0  0  0  0  0  0  0  0  0  0  0  0
   -5.7336    2.0654   -0.7610 H   0  0  0  0  0  0  0  0  0  0  0  0
   -3.6366    3.2333    0.1993 H   0  0  0  0  0  0  0  0  0  0  0  0
   -3.3846    2.8954   -1.5673 H   0  0  0  0  0  0  0  0  0  0  0  0
   -1.7294    4.3700   -0.6881 H   0  0  0  0  0  0  0  0  0  0  0  0
    0.0587    6.0490   -0.8135 H   0  0  0  0  0  0  0  0  0  0  0  0
    2.3774    5.3965   -0.4223 H   0  0  0  0  0  0  0  0  0  0  0  0
    2.9510    3.0689    0.0761 H   0  0  0  0  0  0  0  0  0  0  0  0
  2  1  1  1
  2  3  1  0
  3  4  1  0
  4  5  1  0
  5  6  1  0
  6  7  1  6
  6  8  1  0
  8  9  1  0
  4 10  1  0
 10 11  1  0
 11 12  2  0
 12 13  1  0
 13 14  2  0
 14 15  1  0
 15 16  2  0
 16 17  1  0
 17 18  2  0
 18 19  1  0
 19 20  2  0
 19 21  1  0
 21 22  1  0
 22 23  1  0
 23 24  2  0
 24 25  1  0
 25 26  2  0
 26 27  1  0
 27 28  2  0
 28 29  1  0
 29 30  2  0
 30 31  1  0
 31 32  1  0
 32 33  2  0
  6  2  1  0
 33 10  1  0
 31  2  1  0
 16 11  1  0
 33 17  1  0
 23 18  1  0
 32 24  1  0
 30 25  1  0
  1 34  1  0
  1 35  1  0
  1 36  1  0
  4 37  1  1
  5 38  1  0
  5 39  1  0
  7 40  1  0
  8 41  1  0
  8 42  1  0
  9 43  1  0
 12 44  1  0
 13 45  1  0
 14 46  1  0
 15 47  1  0
 21 48  1  0
 22 49  1  0
 22 50  1  0
 26 51  1  0
 27 52  1  0
 28 53  1  0
 29 54  1  0
M  END
$$$$
[H]OC([H])([H])C([H])(N([H])C(=O)C([H])(N([H])C(=O)C([H])(S[H])c1c([H])c([H])c([H])c([H])c1[H])C([H])([H])C([H])(C([H])([H])[H])C([H])([H])[H])C([H])([H])[H]
     RDKit          3D

 49 49  0  0  0  0  0  0  0  0999 V2000
   -4.8855    0.8378    0.3641 C   0  0  0  0  0  0  0  0  0  0  0  0
   -3.6224    1.4987   -0.0574 C   0  0  0  0  0  0  0  0  0  0  0  0
   -3.8829    2.5297   -1.1456 C   0  0  0  0  0  0  0  0  0  0  0  0
   -2.6884    3.1730   -1.3993 O   0  0  0  0  0  0  0  0  0  0  0  0
   -2.6420    0.5399   -0.4620 N   0  0  0  0  0  0  0  0  0  0  0  0
   -1.3526    0.5109    0.1229 C   0  0  0  0  0  0  0  0  0  0  0  0
   -1.1059    1.3663    1.0270 O   0  0  0  0  0  0  0  0  0  0  0  0
   -0.2661   -0.4140   -0.2242 C   0  0  0  0  0  0  0  0  0  0  0  0
   -0.2065   -1.5669    0.7065 C   0  0  0  0  0  0  0  0  0  0  0  0
   -1.3796   -2.4597    0.8174 C   0  0  0  0  0  0  0  0  0  0  0  0
   -1.7649   -3.0977   -0.5069 C   0  0  0  0  0  0  0  0  0  0  0  0
   -2.5544   -1.9638    1.5692 C   0  0  0  0  0  0  0  0  0  0  0  0
    0.9937    0.3518   -0.1616 N   0  0  0  0  0  0  0  0  0  0  0  0
    1.8074    0.5853   -1.3015 C   0  0  0  0  0  0  0  0  0  0  0  0
    1.5044    0.1517   -2.4444 O   0  0  0  0  0  0  0  0  0  0  0  0
    3.0781    1.3657   -1.2015 C   0  0  0  0  0  0  0  0  0  0  0  0
    3.7508    1.6055   -2.8563 S   0  0  0  0  0  0  0  0  0  0  0  0
    4.0368    0.7426   -0.2864 C   0  0  0  0  0  0  0  0  0  0  0  0
    4.4083    1.4008    0.8625 C   0  0  0  0  0  0  0  0  0  0  0  0
    5.3039    0.8558    1.7510 C   0  0  0  0  0  0  0  0  0  0  0  0
    5.8555   -0.3786    1.5049 C   0  0  0  0  0  0  0  0  0  0  0  0
    5.5019   -1.0634    0.3599 C   0  0  0  0  0  0  0  0  0  0  0  0
    4.5929   -0.4974   -0.5306 C   0  0  0  0  0  0  0  0  0  0  0  0
   -5.1816    0.1174   -0.4456 H   0  0  0  0  0  0  0  0  0  0  0  0
   -4.7254    0.3047    1.2987 H   0  0  0  0  0  0  0  0  0  0  0  0
   -5.7040    1.5868    0.4315 H   0  0  0  0  0  0  0  0  0  0  0  0
   -3.2172    2.0906    0.8069 H   0  0  0  0  0  0  0  0  0  0  0  0
   -4.6401    3.2370   -0.7251 H   0  0  0  0  0  0  0  0  0  0  0  0
   -4.2740    2.0622   -2.0517 H   0  0  0  0  0  0  0  0  0  0  0  0
   -2.6486    4.0927   -1.0484 H   0  0  0  0  0  0  0  0  0  0  0  0
   -2.8978   -0.1573   -1.2160 H   0  0  0  0  0  0  0  0  0  0  0  0
   -0.4483   -0.7533   -1.2692 H   0  0  0  0  0  0  0  0  0  0  0  0
    0.6899   -2.2132    0.5296 H   0  0  0  0  0  0  0  0  0  0  0  0
   -0.0129   -1.1746    1.7577 H   0  0  0  0  0  0  0  0  0  0  0  0
   -0.9961   -3.3637    1.4246 H   0  0  0  0  0  0  0  0  0  0  0  0
   -2.6532   -3.7121   -0.3157 H   0  0  0  0  0  0  0  0  0  0  0  0
   -0.9002   -3.7694   -0.7848 H   0  0  0  0  0  0  0  0  0  0  0  0
   -1.9384   -2.3493   -1.3069 H   0  0  0  0  0  0  0  0  0  0  0  0
   -2.7815   -2.6923    2.4050 H   0  0  0  0  0  0  0  0  0  0  0  0
   -2.3811   -1.0072    2.1137 H   0  0  0  0  0  0  0  0  0  0  0  0
   -3.5087   -1.9534    0.9804 H   0  0  0  0  0  0  0  0  0  0  0  0
    1.3017    0.7357    0.7430 H   0  0  0  0  0  0  0  0  0  0  0  0
    2.7859    2.3664   -0.7670 H   0  0  0  0  0  0  0  0  0  0  0  0
    3.3124    0.5659   -3.6904 H   0  0  0  0  0  0  0  0  0  0  0  0
    3.9947    2.3725    1.0877 H   0  0  0  0  0  0  0  0  0  0  0  0
    5.5855    1.3829    2.6470 H   0  0  0  0  0  0  0  0  0  0  0  0
    6.5564   -0.8149    2.1917 H   0  0  0  0  0  0  0  0  0  0  0  0
    5.9172   -2.0377    0.1351 H   0  0  0  0  0  0  0  0  0  0  0  0
    4.2829   -0.9904   -1.4397 H   0  0  0  0  0  0  0  0  0  0  0  0
  1  2  1  0
  2  3  1  0
  3  4  1  0
  2  5  1  0
  5  6  1  0
  6  7  2  0
  6  8  1  0
  8  9  1  0
  9 10  1  0
 10 11  1  0
 10 12  1  0
  8 13  1  0
 13 14  1  0
 14 15  2  0
 14 16  1  0
 16 17  1  0
 16 18  1  0
 18 19  2  0
 19 20  1  0
 20 21  2  0
 21 22  1  0
 22 23  2  0
 23 18  1  0
  1 24  1  0
  1 25  1  0
  1 26  1  0
  2 27  1  0
  3 28  1  0
  3 29  1  0
  4 30  1  0
  5 31  1  0
  8 32  1  0
  9 33  1  0
  9 34  1  0
 10 35  1  0
 11 36  1  0
 11 37  1  0
 11 38  1  0
 12 39  1  0
 12 40  1  0
 12 41  1  0
 13 42  1  0
 16 43  1  0
 17 44  1  0
 19 45  1  0
 20 46  1  0
 21 47  1  0
 22 48  1  0
 23 49  1  0
M  END
$$$$
[H]O[C@@]1([H])C([H])=C(C(=O)N([H])C([H])([H])C([H])([H])C([H])([H])C([H])([H])C([H])([H])C([H])([H])N([H])C(=O)OC([H])([H])[H])O[C@]([H])(O[C@@]([H])([C@@]2([H])O[C@@]([H])(n3c([H])c([H])c(=O)n([H])c3=O)[C@]([H])(O[H])[C@]2([H])O[H])[C@@]2([H])O[C@@]([H])(n3c([H])c([H])c(=O)n([H])c3=O)[C@]([H])(O[H])[C@]2([H])OC([H])([H])[H])[C@@]1([H])O[H]
     RDKit          3D

 99103  0  0  0  0  0  0  0  0999 V2000
   -0.5681   -2.7564   -0.3987 C   0  0  0  0  0  0  0  0  0  0  0  0
   -0.6634   -1.9983    0.7516 O   0  0  0  0  0  0  0  0  0  0  0  0
   -1.9994   -1.5428    0.8712 C   0  0  1  0  0  0  0  0  0  0  0  0
   -2.5446   -2.2128    2.1336 C   0  0  1  0  0  0  0  0  0  0  0  0
   -1.5418   -2.9355    2.7778 O   0  0  0  0  0  0  0  0  0  0  0  0
   -2.9634   -1.0790    2.9906 C   0  0  1  0  0  0  0  0  0  0  0  0
   -2.8920    0.1074    2.2831 O   0  0  0  0  0  0  0  0  0  0  0  0
   -2.0682   -0.1172    1.1920 C   0  0  2  0  0  0  0  0  0  0  0  0
   -2.3104    0.8839    0.1407 C   0  0  1  0  0  0  0  0  0  0  0  0
   -1.5357    0.6055   -0.9524 O   0  0  0  0  0  0  0  0  0  0  0  0
   -0.5462    1.4358   -1.2875 C   0  0  1  0  0  0  0  0  0  0  0  0
    0.6743    0.7346   -1.2121 O   0  0  0  0  0  0  0  0  0  0  0  0
    1.3372    0.2134   -2.2945 C   0  0  0  0  0  0  0  0  0  0  0  0
    0.8548    0.3640   -3.5051 C   0  0  0  0  0  0  0  0  0  0  0  0
   -0.4059    1.0933   -3.7319 C   0  0  2  0  0  0  0  0  0  0  0  0
   -0.3139    1.8609   -4.9197 O   0  0  0  0  0  0  0  0  0  0  0  0
   -0.5769    2.1045   -2.6185 C   0  0  2  0  0  0  0  0  0  0  0  0
    0.5180    2.9730   -2.7124 O   0  0  0  0  0  0  0  0  0  0  0  0
    2.6019   -0.5275   -2.1478 C   0  0  0  0  0  0  0  0  0  0  0  0
    3.2032   -0.9881   -3.1321 O   0  0  0  0  0  0  0  0  0  0  0  0
    3.1367   -0.7146   -0.8538 N   0  0  0  0  0  0  0  0  0  0  0  0
    4.3833   -1.4365   -0.6566 C   0  0  0  0  0  0  0  0  0  0  0  0
    4.7752   -1.5449    0.7768 C   0  0  0  0  0  0  0  0  0  0  0  0
    6.0782   -2.3021    0.9575 C   0  0  0  0  0  0  0  0  0  0  0  0
    7.2129   -1.6069    0.2653 C   0  0  0  0  0  0  0  0  0  0  0  0
    8.4933   -2.3622    0.4287 C   0  0  0  0  0  0  0  0  0  0  0  0
    8.8704   -2.5468    1.8514 C   0  0  0  0  0  0  0  0  0  0  0  0
    9.0222   -1.3030    2.5372 N   0  0  0  0  0  0  0  0  0  0  0  0
    9.9570   -0.3185    2.1814 C   0  0  0  0  0  0  0  0  0  0  0  0
   10.7540   -0.4351    1.2213 O   0  0  0  0  0  0  0  0  0  0  0  0
   10.0521    0.8823    2.9029 O   0  0  0  0  0  0  0  0  0  0  0  0
   10.9992    1.8532    2.5308 C   0  0  0  0  0  0  0  0  0  0  0  0
   -3.7221    1.1229   -0.2980 C   0  0  1  0  0  0  0  0  0  0  0  0
   -3.8023    2.1829   -1.2038 O   0  0  0  0  0  0  0  0  0  0  0  0
   -5.1456    2.1200   -1.5613 C   0  0  2  0  0  0  0  0  0  0  0  0
   -5.2178    0.7196   -2.1026 C   0  0  2  0  0  0  0  0  0  0  0  0
   -6.5411    0.2791   -1.9754 O   0  0  0  0  0  0  0  0  0  0  0  0
   -4.3428   -0.0058   -1.0675 C   0  0  2  0  0  0  0  0  0  0  0  0
   -5.1445   -0.8195   -0.2676 O   0  0  0  0  0  0  0  0  0  0  0  0
   -5.5191    3.1281   -2.5055 N   0  0  0  0  0  0  0  0  0  0  0  0
   -6.0993    2.7581   -3.6547 C   0  0  0  0  0  0  0  0  0  0  0  0
   -6.4817    3.6910   -4.6213 C   0  0  0  0  0  0  0  0  0  0  0  0
   -6.2579    5.0385   -4.3911 C   0  0  0  0  0  0  0  0  0  0  0  0
   -6.5968    5.9133   -5.2545 O   0  0  0  0  0  0  0  0  0  0  0  0
   -5.6734    5.3734   -3.2271 N   0  0  0  0  0  0  0  0  0  0  0  0
   -5.3176    4.4368   -2.3162 C   0  0  0  0  0  0  0  0  0  0  0  0
   -4.7788    4.8400   -1.2586 O   0  0  0  0  0  0  0  0  0  0  0  0
   -4.3045   -1.2059    3.5475 N   0  0  0  0  0  0  0  0  0  0  0  0
   -4.7297   -2.4302    3.8864 C   0  0  0  0  0  0  0  0  0  0  0  0
   -5.9857   -2.6227    4.4215 C   0  0  0  0  0  0  0  0  0  0  0  0
   -6.7695   -1.5024    4.5872 C   0  0  0  0  0  0  0  0  0  0  0  0
   -7.9389   -1.6063    5.0754 O   0  0  0  0  0  0  0  0  0  0  0  0
   -6.3241   -0.2818    4.2411 N   0  0  0  0  0  0  0  0  0  0  0  0
   -5.1003   -0.1476    3.7267 C   0  0  0  0  0  0  0  0  0  0  0  0
   -4.6858    1.0018    3.4029 O   0  0  0  0  0  0  0  0  0  0  0  0
    0.4719   -3.1138   -0.5196 H   0  0  0  0  0  0  0  0  0  0  0  0
   -1.2029   -3.6681   -0.4027 H   0  0  0  0  0  0  0  0  0  0  0  0
   -0.8641   -2.1900   -1.3073 H   0  0  0  0  0  0  0  0  0  0  0  0
   -2.5391   -1.9301    0.0108 H   0  0  0  0  0  0  0  0  0  0  0  0
   -3.4063   -2.8708    1.8779 H   0  0  0  0  0  0  0  0  0  0  0  0
   -1.6479   -2.7671    3.7532 H   0  0  0  0  0  0  0  0  0  0  0  0
   -2.2897   -0.9543    3.8783 H   0  0  0  0  0  0  0  0  0  0  0  0
   -1.0209    0.1162    1.6148 H   0  0  0  0  0  0  0  0  0  0  0  0
   -1.9701    1.8846    0.5802 H   0  0  0  0  0  0  0  0  0  0  0  0
   -0.4883    2.2516   -0.5310 H   0  0  0  0  0  0  0  0  0  0  0  0
    1.3876   -0.0578   -4.3700 H   0  0  0  0  0  0  0  0  0  0  0  0
   -1.2820    0.4127   -3.8070 H   0  0  0  0  0  0  0  0  0  0  0  0
    0.4246    2.5046   -4.7654 H   0  0  0  0  0  0  0  0  0  0  0  0
   -1.4599    2.6928   -2.8414 H   0  0  0  0  0  0  0  0  0  0  0  0
    0.8740    3.2104   -1.8200 H   0  0  0  0  0  0  0  0  0  0  0  0
    2.6387   -0.3368   -0.0294 H   0  0  0  0  0  0  0  0  0  0  0  0
    4.3523   -2.4547   -1.0799 H   0  0  0  0  0  0  0  0  0  0  0  0
    5.1534   -0.8540   -1.2031 H   0  0  0  0  0  0  0  0  0  0  0  0
    4.9711   -0.5139    1.1484 H   0  0  0  0  0  0  0  0  0  0  0  0
    3.9871   -2.0153    1.3926 H   0  0  0  0  0  0  0  0  0  0  0  0
    6.3101   -2.3534    2.0391 H   0  0  0  0  0  0  0  0  0  0  0  0
    5.9997   -3.3316    0.5422 H   0  0  0  0  0  0  0  0  0  0  0  0
    7.3227   -0.5462    0.6076 H   0  0  0  0  0  0  0  0  0  0  0  0
    6.9885   -1.5840   -0.8425 H   0  0  0  0  0  0  0  0  0  0  0  0
    9.3200   -1.8589   -0.1224 H   0  0  0  0  0  0  0  0  0  0  0  0
    8.3798   -3.3502   -0.0863 H   0  0  0  0  0  0  0  0  0  0  0  0
    9.8616   -3.0832    1.8567 H   0  0  0  0  0  0  0  0  0  0  0  0
    8.1207   -3.2011    2.3613 H   0  0  0  0  0  0  0  0  0  0  0  0
    8.3928   -1.0970    3.3741 H   0  0  0  0  0  0  0  0  0  0  0  0
   10.8184    2.8317    2.9988 H   0  0  0  0  0  0  0  0  0  0  0  0
   11.1007    1.9209    1.4430 H   0  0  0  0  0  0  0  0  0  0  0  0
   11.9982    1.5219    2.9430 H   0  0  0  0  0  0  0  0  0  0  0  0
   -4.3779    1.4655    0.5423 H   0  0  0  0  0  0  0  0  0  0  0  0
   -5.7304    2.1536   -0.6200 H   0  0  0  0  0  0  0  0  0  0  0  0
   -4.8397    0.5862   -3.1149 H   0  0  0  0  0  0  0  0  0  0  0  0
   -6.6194   -0.7043   -2.0625 H   0  0  0  0  0  0  0  0  0  0  0  0
   -3.5675   -0.5240   -1.6259 H   0  0  0  0  0  0  0  0  0  0  0  0
   -4.9015   -1.7721   -0.3469 H   0  0  0  0  0  0  0  0  0  0  0  0
   -6.3110    1.7347   -3.9208 H   0  0  0  0  0  0  0  0  0  0  0  0
   -6.9526    3.4207   -5.5539 H   0  0  0  0  0  0  0  0  0  0  0  0
   -5.5096    6.4110   -3.0741 H   0  0  0  0  0  0  0  0  0  0  0  0
   -4.0989   -3.3078    3.7522 H   0  0  0  0  0  0  0  0  0  0  0  0
   -6.3472   -3.6141    4.7031 H   0  0  0  0  0  0  0  0  0  0  0  0
   -6.9616    0.5682    4.3856 H   0  0  0  0  0  0  0  0  0  0  0  0
  1  2  1  0
  2  3  1  0
  3  4  1  0
  4  5  1  0
  4  6  1  0
  6  7  1  0
  7  8  1  0
  8  9  1  0
  9 10  1  0
 10 11  1  0
 11 12  1  0
 12 13  1  0
 13 14  2  0
 14 15  1  0
 15 16  1  0
 15 17  1  0
 17 18  1  0
 13 19  1  0
 19 20  2  0
 19 21  1  0
 21 22  1  0
 22 23  1  0
 23 24  1  0
 24 25  1  0
 25 26  1  0
 26 27  1  0
 27 28  1  0
 28 29  1  0
 29 30  2  0
 29 31  1  0
 31 32  1  0
  9 33  1  0
 33 34  1  0
 34 35  1  0
 35 36  1  0
 36 37  1  0
 36 38  1  0
 38 39  1  0
 35 40  1  0
 40 41  1  0
 41 42  2  0
 42 43  1  0
 43 44  2  0
 43 45  1  0
 45 46  1  0
 46 47  2  0
  6 48  1  0
 48 49  1  0
 49 50  2  0
 50 51  1  0
 51 52  2  0
 51 53  1  0
 53 54  1  0
 54 55  2  0
  8  3  1  0
 17 11  1  0
 38 33  1  0
 46 40  1  0
 54 48  1  0
  1 56  1  0
  1 57  1  0
  1 58  1  0
  3 59  1  6
  4 60  1  6
  5 61  1  0
  6 62  1  1
  8 63  1  1
  9 64  1  1
 11 65  1  1
 14 66  1  0
 15 67  1  6
 16 68  1  0
 17 69  1  6
 18 70  1  0
 21 71  1  0
 22 72  1  0
 22 73  1  0
 23 74  1  0
 23 75  1  0
 24 76  1  0
 24 77  1  0
 25 78  1  0
 25 79  1  0
 26 80  1  0
 26 81  1  0
 27 82  1  0
 27 83  1  0
 28 84  1  0
 32 85  1  0
 32 86  1  0
 32 87  1  0
 33 88  1  1
 35 89  1  1
 36 90  1  6
 37 91  1  0
 38 92  1  6
 39 93  1  0
 41 94  1  0
 42 95  1  0
 45 96  1  0
 49 97  1  0
 50 98  1  0
 53 99  1  0
M  END
$$$$
[H]c1c([H])c([H])c(C([H])([H])n2c(C([H])([H])C([H])(C([H])([H])[H])C([H])([H])[H])c(C(=O)C(=O)N([H])[H])c3c(OC([H])([H])C(=O)N([H])S(=O)(=O)c4c([H])c([H])c([H])c([H])c4[H])c([H])c([H])c([H])c32)c([H])c1[H]
     RDKit          3D

 68 71  0  0  0  0  0  0  0  0999 V2000
   -4.3996   -2.8343   -0.4518 C   0  0  0  0  0  0  0  0  0  0  0  0
   -3.7610   -2.0701   -1.6157 C   0  0  0  0  0  0  0  0  0  0  0  0
   -2.7656   -2.9156   -2.2949 C   0  0  0  0  0  0  0  0  0  0  0  0
   -3.4673   -0.6679   -1.2942 C   0  0  0  0  0  0  0  0  0  0  0  0
   -2.6005   -0.3025   -0.1771 C   0  0  0  0  0  0  0  0  0  0  0  0
   -1.2176   -0.2964   -0.1823 C   0  0  0  0  0  0  0  0  0  0  0  0
   -0.2668   -0.6246   -1.2432 C   0  0  0  0  0  0  0  0  0  0  0  0
    0.2122   -1.7452   -1.3444 O   0  0  0  0  0  0  0  0  0  0  0  0
    0.0992    0.4421   -2.1989 C   0  0  0  0  0  0  0  0  0  0  0  0
    0.9810    0.1630   -3.2572 N   0  0  0  0  0  0  0  0  0  0  0  0
   -0.3790    1.5929   -2.0639 O   0  0  0  0  0  0  0  0  0  0  0  0
   -0.7445    0.1060    1.0672 C   0  0  0  0  0  0  0  0  0  0  0  0
    0.5262    0.2544    1.5667 C   0  0  0  0  0  0  0  0  0  0  0  0
    1.6413    0.0066    0.7850 O   0  0  0  0  0  0  0  0  0  0  0  0
    2.9075    0.1880    1.3827 C   0  0  0  0  0  0  0  0  0  0  0  0
    4.0512   -0.1028    0.5200 C   0  0  0  0  0  0  0  0  0  0  0  0
    5.2407    0.0546    0.9190 O   0  0  0  0  0  0  0  0  0  0  0  0
    3.8990   -0.5762   -0.8065 N   0  0  0  0  0  0  0  0  0  0  0  0
    5.1921   -0.9337   -1.8679 S   0  0  0  0  0  0  0  0  0  0  0  0
    5.0990   -0.0426   -3.0864 O   0  0  0  0  0  0  0  0  0  0  0  0
    5.0288   -2.3799   -2.3045 O   0  0  0  0  0  0  0  0  0  0  0  0
    6.7417   -0.6943   -1.1244 C   0  0  0  0  0  0  0  0  0  0  0  0
    7.3492   -1.7449   -0.4275 C   0  0  0  0  0  0  0  0  0  0  0  0
    8.5708   -1.5787    0.1576 C   0  0  0  0  0  0  0  0  0  0  0  0
    9.2308   -0.3724    0.0738 C   0  0  0  0  0  0  0  0  0  0  0  0
    8.6198    0.6454   -0.6134 C   0  0  0  0  0  0  0  0  0  0  0  0
    7.4039    0.5275   -1.2128 C   0  0  0  0  0  0  0  0  0  0  0  0
    0.6592    0.6613    2.8893 C   0  0  0  0  0  0  0  0  0  0  0  0
   -0.4228    0.9110    3.6871 C   0  0  0  0  0  0  0  0  0  0  0  0
   -1.6643    0.7437    3.1270 C   0  0  0  0  0  0  0  0  0  0  0  0
   -1.8637    0.3404    1.8116 C   0  0  0  0  0  0  0  0  0  0  0  0
   -2.9853    0.1018    1.0777 N   0  0  0  0  0  0  0  0  0  0  0  0
   -4.2908    0.2831    1.5958 C   0  0  0  0  0  0  0  0  0  0  0  0
   -4.9263    1.6191    1.4335 C   0  0  0  0  0  0  0  0  0  0  0  0
   -5.8886    1.7854    0.4405 C   0  0  0  0  0  0  0  0  0  0  0  0
   -6.5307    2.9747    0.2178 C   0  0  0  0  0  0  0  0  0  0  0  0
   -6.2368    4.0691    0.9888 C   0  0  0  0  0  0  0  0  0  0  0  0
   -5.2743    3.9144    1.9879 C   0  0  0  0  0  0  0  0  0  0  0  0
   -4.6438    2.7128    2.1929 C   0  0  0  0  0  0  0  0  0  0  0  0
   -4.6156   -3.8531   -0.8548 H   0  0  0  0  0  0  0  0  0  0  0  0
   -5.3787   -2.3795   -0.2087 H   0  0  0  0  0  0  0  0  0  0  0  0
   -3.7272   -2.9021    0.4116 H   0  0  0  0  0  0  0  0  0  0  0  0
   -4.6836   -2.0600   -2.3620 H   0  0  0  0  0  0  0  0  0  0  0  0
   -2.1052   -3.4579   -1.5854 H   0  0  0  0  0  0  0  0  0  0  0  0
   -3.2912   -3.7252   -2.8637 H   0  0  0  0  0  0  0  0  0  0  0  0
   -2.1885   -2.3501   -3.0459 H   0  0  0  0  0  0  0  0  0  0  0  0
   -4.4147   -0.0951   -1.3766 H   0  0  0  0  0  0  0  0  0  0  0  0
   -2.9081   -0.2677   -2.2375 H   0  0  0  0  0  0  0  0  0  0  0  0
    1.9411    0.6136   -3.2774 H   0  0  0  0  0  0  0  0  0  0  0  0
    0.7726   -0.4662   -4.0504 H   0  0  0  0  0  0  0  0  0  0  0  0
    3.0165   -0.4446    2.3066 H   0  0  0  0  0  0  0  0  0  0  0  0
    3.0253    1.2411    1.7579 H   0  0  0  0  0  0  0  0  0  0  0  0
    2.8899   -0.7053   -1.1137 H   0  0  0  0  0  0  0  0  0  0  0  0
    6.7892   -2.6800   -0.3879 H   0  0  0  0  0  0  0  0  0  0  0  0
    8.9886   -2.4300    0.6832 H   0  0  0  0  0  0  0  0  0  0  0  0
   10.2125   -0.2466    0.5468 H   0  0  0  0  0  0  0  0  0  0  0  0
    9.1374    1.6040   -0.6837 H   0  0  0  0  0  0  0  0  0  0  0  0
    6.9354    1.3474   -1.7538 H   0  0  0  0  0  0  0  0  0  0  0  0
    1.6833    0.7710    3.2572 H   0  0  0  0  0  0  0  0  0  0  0  0
   -0.2659    1.2256    4.7121 H   0  0  0  0  0  0  0  0  0  0  0  0
   -2.5175    0.9420    3.7781 H   0  0  0  0  0  0  0  0  0  0  0  0
   -5.0182   -0.4705    1.2911 H   0  0  0  0  0  0  0  0  0  0  0  0
   -4.2405    0.1562    2.7305 H   0  0  0  0  0  0  0  0  0  0  0  0
   -6.1393    0.9020   -0.1772 H   0  0  0  0  0  0  0  0  0  0  0  0
   -7.2833    3.0362   -0.5876 H   0  0  0  0  0  0  0  0  0  0  0  0
   -6.7383    5.0094    0.8191 H   0  0  0  0  0  0  0  0  0  0  0  0
   -5.0681    4.7995    2.5771 H   0  0  0  0  0  0  0  0  0  0  0  0
   -3.9323    2.6709    2.9797 H   0  0  0  0  0  0  0  0  0  0  0  0
  1  2  1  0
  2  3  1  0
  2  4  1  0
  4  5  1  0
  5  6  2  0
  6  7  1  0
  7  8  2  0
  7  9  1  0
  9 10  1  0
  9 11  2  0
  6 12  1  0
 12 13  2  0
 13 14  1  0
 14 15  1  0
 15 16  1  0
 16 17  2  0
 16 18  1  0
 18 19  1  0
 19 20  2  0
 19 21  2  0
 19 22  1  0
 22 23  2  0
 23 24  1  0
 24 25  2  0
 25 26  1  0
 26 27  2  0
 13 28  1  0
 28 29  2  0
 29 30  1  0
 30 31  2  0
 31 32  1  0
 32 33  1  0
 33 34  1  0
 34 35  2  0
 35 36  1  0
 36 37  2  0
 37 38  1  0
 38 39  2  0
 32  5  1  0
 39 34  1  0
 31 12  1  0
 27 22  1  0
  1 40  1  0
  1 41  1  0
  1 42  1  0
  2 43  1  0
  3 44  1  0
  3 45  1  0
  3 46  1  0
  4 47  1  0
  4 48  1  0
 10 49  1  0
 10 50  1  0
 15 51  1  0
 15 52  1  0
 18 53  1  0
 23 54  1  0
 24 55  1  0
 25 56  1  0
 26 57  1  0
 27 58  1  0
 28 59  1  0
 29 60  1  0
 30 61  1  0
 33 62  1  0
 33 63  1  0
 35 64  1  0
 36 65  1  0
 37 66  1  0
 38 67  1  0
 39 68  1  0
M  END
$$$$
[H]c1c([H])c([H])c2c(c1[H])c1c3c(c4c5c([H])c([H])c([H])c([H])c5n5c4c1n2[C@@]1(C([H])([H])[H])O[C@]5([H])C([H])([H])[C@@]([H])(N([H])C([H])([H])[H])[C@@]1([H])OC([H])([H])[H])C(=O)N([H])C3([H])[H]
     RDKit          3D

 61 68  0  0  0  0  0  0  0  0999 V2000
   -3.3415   -2.0929    0.8927 C   0  0  0  0  0  0  0  0  0  0  0  0
   -2.7520   -0.8244    0.5060 N   0  0  0  0  0  0  0  0  0  0  0  0
   -2.5947   -0.7699   -0.9652 C   0  0  2  0  0  0  0  0  0  0  0  0
   -1.6635   -1.8336   -1.3456 C   0  0  0  0  0  0  0  0  0  0  0  0
   -0.4098   -1.3263   -1.9401 C   0  0  1  0  0  0  0  0  0  0  0  0
   -0.2904   -0.0961   -2.3609 O   0  0  0  0  0  0  0  0  0  0  0  0
   -0.9141    0.9817   -1.7381 C   0  0  1  0  0  0  0  0  0  0  0  0
   -0.8729    2.0231   -2.8643 C   0  0  0  0  0  0  0  0  0  0  0  0
   -2.2914    0.6326   -1.4119 C   0  0  2  0  0  0  0  0  0  0  0  0
   -2.9229    1.4324   -0.4622 O   0  0  0  0  0  0  0  0  0  0  0  0
   -4.0664    2.0564   -0.9455 C   0  0  0  0  0  0  0  0  0  0  0  0
   -0.0747    1.3904   -0.5981 N   0  0  0  0  0  0  0  0  0  0  0  0
    0.0066    2.5943   -0.0347 C   0  0  0  0  0  0  0  0  0  0  0  0
   -0.6403    3.7755   -0.2701 C   0  0  0  0  0  0  0  0  0  0  0  0
   -0.3753    4.9057    0.4704 C   0  0  0  0  0  0  0  0  0  0  0  0
    0.5715    4.8915    1.4994 C   0  0  0  0  0  0  0  0  0  0  0  0
    1.2169    3.7192    1.7374 C   0  0  0  0  0  0  0  0  0  0  0  0
    0.9447    2.6014    0.9941 C   0  0  0  0  0  0  0  0  0  0  0  0
    1.4533    1.3308    1.0530 C   0  0  0  0  0  0  0  0  0  0  0  0
    2.4134    0.7192    1.8621 C   0  0  0  0  0  0  0  0  0  0  0  0
    3.2252    1.2814    2.9656 C   0  0  0  0  0  0  0  0  0  0  0  0
    4.0513    0.2282    3.4563 N   0  0  0  0  0  0  0  0  0  0  0  0
    3.7725   -0.9500    2.6928 C   0  0  0  0  0  0  0  0  0  0  0  0
    4.3602   -2.0093    2.9202 O   0  0  0  0  0  0  0  0  0  0  0  0
    2.7553   -0.6238    1.7110 C   0  0  0  0  0  0  0  0  0  0  0  0
    2.1006   -1.3257    0.7242 C   0  0  0  0  0  0  0  0  0  0  0  0
    2.1422   -2.6347    0.2794 C   0  0  0  0  0  0  0  0  0  0  0  0
    2.8759   -3.7217    0.6638 C   0  0  0  0  0  0  0  0  0  0  0  0
    2.6892   -4.9254    0.0128 C   0  0  0  0  0  0  0  0  0  0  0  0
    1.7808   -5.0386   -1.0084 C   0  0  0  0  0  0  0  0  0  0  0  0
    1.0343   -3.9515   -1.4066 C   0  0  0  0  0  0  0  0  0  0  0  0
    1.2263   -2.7646   -0.7562 C   0  0  0  0  0  0  0  0  0  0  0  0
    0.6469   -1.5975   -0.9447 N   0  0  0  0  0  0  0  0  0  0  0  0
    1.1358   -0.7009   -0.0851 C   0  0  0  0  0  0  0  0  0  0  0  0
    0.8119    0.6350    0.0794 C   0  0  0  0  0  0  0  0  0  0  0  0
   -3.9345   -1.8764    1.8249 H   0  0  0  0  0  0  0  0  0  0  0  0
   -2.5804   -2.8202    1.1896 H   0  0  0  0  0  0  0  0  0  0  0  0
   -4.0376   -2.4413    0.1071 H   0  0  0  0  0  0  0  0  0  0  0  0
   -1.8252   -0.7857    0.9817 H   0  0  0  0  0  0  0  0  0  0  0  0
   -3.6418   -1.0758   -1.3069 H   0  0  0  0  0  0  0  0  0  0  0  0
   -1.4743   -2.5407   -0.4944 H   0  0  0  0  0  0  0  0  0  0  0  0
   -2.1827   -2.5069   -2.1019 H   0  0  0  0  0  0  0  0  0  0  0  0
   -0.1764   -2.0147   -2.8352 H   0  0  0  0  0  0  0  0  0  0  0  0
   -1.8561    2.5173   -2.9808 H   0  0  0  0  0  0  0  0  0  0  0  0
   -0.0367    2.7359   -2.7018 H   0  0  0  0  0  0  0  0  0  0  0  0
   -0.6761    1.5932   -3.8662 H   0  0  0  0  0  0  0  0  0  0  0  0
   -2.9127    0.7625   -2.3525 H   0  0  0  0  0  0  0  0  0  0  0  0
   -4.5472    2.6842   -0.1440 H   0  0  0  0  0  0  0  0  0  0  0  0
   -3.8494    2.7776   -1.7563 H   0  0  0  0  0  0  0  0  0  0  0  0
   -4.7942    1.3294   -1.3803 H   0  0  0  0  0  0  0  0  0  0  0  0
   -1.3647    3.8112   -1.0348 H   0  0  0  0  0  0  0  0  0  0  0  0
   -0.8845    5.8355    0.2847 H   0  0  0  0  0  0  0  0  0  0  0  0
    0.7949    5.7654    2.0918 H   0  0  0  0  0  0  0  0  0  0  0  0
    1.9682    3.6487    2.5304 H   0  0  0  0  0  0  0  0  0  0  0  0
    3.8868    2.0907    2.5395 H   0  0  0  0  0  0  0  0  0  0  0  0
    2.5967    1.6993    3.7873 H   0  0  0  0  0  0  0  0  0  0  0  0
    4.7363    0.3270    4.2421 H   0  0  0  0  0  0  0  0  0  0  0  0
    3.5871   -3.7061    1.4353 H   0  0  0  0  0  0  0  0  0  0  0  0
    3.2659   -5.8106    0.3031 H   0  0  0  0  0  0  0  0  0  0  0  0
    1.6292   -5.9934   -1.5280 H   0  0  0  0  0  0  0  0  0  0  0  0
    0.3048   -4.0175   -2.2172 H   0  0  0  0  0  0  0  0  0  0  0  0
  1  2  1  0
  2  3  1  0
  3  4  1  0
  4  5  1  0
  5  6  1  0
  6  7  1  0
  7  8  1  6
  7  9  1  0
  9 10  1  0
 10 11  1  0
  7 12  1  0
 12 13  1  0
 13 14  2  0
 14 15  1  0
 15 16  2  0
 16 17  1  0
 17 18  2  0
 18 19  1  0
 19 20  2  0
 20 21  1  0
 21 22  1  0
 22 23  1  0
 23 24  2  0
 23 25  1  0
 25 26  2  0
 26 27  1  0
 27 28  2  0
 28 29  1  0
 29 30  2  0
 30 31  1  0
 31 32  2  0
 32 33  1  0
 33 34  1  0
 34 35  2  0
  9  3  1  0
 35 12  1  0
 33  5  1  0
 18 13  1  0
 35 19  1  0
 25 20  1  0
 34 26  1  0
 32 27  1  0
  1 36  1  0
  1 37  1  0
  1 38  1  0
  2 39  1  0
  3 40  1  6
  4 41  1  0
  4 42  1  0
  5 43  1  6
  8 44  1  0
  8 45  1  0
  8 46  1  0
  9 47  1  6
 11 48  1  0
 11 49  1  0
 11 50  1  0
 14 51  1  0
 15 52  1  0
 16 53  1  0
 17 54  1  0
 21 55  1  0
 21 56  1  0
 22 57  1  0
 28 58  1  0
 29 59  1  0
 30 60  1  0
 31 61  1  0
M  END
$$$$
[H]OC(=O)c1c([H])c([H])c(-c2c([H])c([H])c(C(=O)N([H])c3c([H])c([H])c(C([H])([H])[H])c(N4C([H])([H])C([H])([H])C([H])(N5C([H])([H])C([H])([H])C([H])([H])C([H])([H])C5([H])[H])C([H])([H])C4([H])[H])c3[H])c([H])c2[H])c([H])c1[H]
     RDKit          3D

 72 76  0  0  0  0  0  0  0  0999 V2000
    1.5911   -3.9943    0.6202 C   0  0  0  0  0  0  0  0  0  0  0  0
    0.9571   -2.6747    0.3386 C   0  0  0  0  0  0  0  0  0  0  0  0
   -0.4262   -2.6738    0.4448 C   0  0  0  0  0  0  0  0  0  0  0  0
   -1.1375   -1.5642    0.1758 C   0  0  0  0  0  0  0  0  0  0  0  0
   -0.4548   -0.3654   -0.2257 C   0  0  0  0  0  0  0  0  0  0  0  0
   -1.3304    0.6506   -0.4881 N   0  0  0  0  0  0  0  0  0  0  0  0
   -2.1942    1.6542   -0.7474 C   0  0  0  0  0  0  0  0  0  0  0  0
   -1.8903    2.7919   -1.2579 O   0  0  0  0  0  0  0  0  0  0  0  0
   -3.6684    1.4975   -0.4393 C   0  0  0  0  0  0  0  0  0  0  0  0
   -4.0960    0.7855    0.6394 C   0  0  0  0  0  0  0  0  0  0  0  0
   -5.4407    0.5846    0.9048 C   0  0  0  0  0  0  0  0  0  0  0  0
   -6.4221    1.1134    0.0605 C   0  0  0  0  0  0  0  0  0  0  0  0
   -5.9666    1.8315   -1.0239 C   0  0  0  0  0  0  0  0  0  0  0  0
   -4.6218    2.0292   -1.2828 C   0  0  0  0  0  0  0  0  0  0  0  0
   -7.8271    0.8668    0.3090 C   0  0  0  0  0  0  0  0  0  0  0  0
   -8.7072    0.8082   -0.7432 C   0  0  0  0  0  0  0  0  0  0  0  0
  -10.0534    0.5418   -0.5802 C   0  0  0  0  0  0  0  0  0  0  0  0
  -10.5407    0.3243    0.7030 C   0  0  0  0  0  0  0  0  0  0  0  0
   -9.6827    0.3785    1.7643 C   0  0  0  0  0  0  0  0  0  0  0  0
   -8.3271    0.6498    1.5686 C   0  0  0  0  0  0  0  0  0  0  0  0
  -11.9348    0.0426    0.8963 C   0  0  0  0  0  0  0  0  0  0  0  0
  -12.8496   -0.0368   -0.1268 O   0  0  0  0  0  0  0  0  0  0  0  0
  -12.3301   -0.1414    2.1061 O   0  0  0  0  0  0  0  0  0  0  0  0
    0.8889   -0.4293   -0.3066 C   0  0  0  0  0  0  0  0  0  0  0  0
    1.6606   -1.5745   -0.0326 C   0  0  0  0  0  0  0  0  0  0  0  0
    3.0614   -1.5706   -0.1524 N   0  0  0  0  0  0  0  0  0  0  0  0
    3.8907   -1.6033    1.0190 C   0  0  0  0  0  0  0  0  0  0  0  0
    5.2919   -1.0765    0.7227 C   0  0  0  0  0  0  0  0  0  0  0  0
    5.1979   -0.0339   -0.3667 C   0  0  0  0  0  0  0  0  0  0  0  0
    4.8876   -0.8030   -1.6460 C   0  0  0  0  0  0  0  0  0  0  0  0
    3.6071   -1.5454   -1.4894 C   0  0  0  0  0  0  0  0  0  0  0  0
    6.3885    0.7370   -0.5084 N   0  0  0  0  0  0  0  0  0  0  0  0
    7.5548    0.0046   -0.8989 C   0  0  0  0  0  0  0  0  0  0  0  0
    8.7691    0.6192   -0.2280 C   0  0  0  0  0  0  0  0  0  0  0  0
    8.7769    2.1172   -0.4953 C   0  0  0  0  0  0  0  0  0  0  0  0
    7.5728    2.7432    0.1514 C   0  0  0  0  0  0  0  0  0  0  0  0
    6.6079    1.6645    0.5599 C   0  0  0  0  0  0  0  0  0  0  0  0
    2.6383   -4.0065    0.3446 H   0  0  0  0  0  0  0  0  0  0  0  0
    1.0587   -4.7617   -0.0489 H   0  0  0  0  0  0  0  0  0  0  0  0
    1.3445   -4.3109    1.6484 H   0  0  0  0  0  0  0  0  0  0  0  0
   -0.9740   -3.5820    0.7549 H   0  0  0  0  0  0  0  0  0  0  0  0
   -2.2256   -1.5563    0.2466 H   0  0  0  0  0  0  0  0  0  0  0  0
   -0.3222    1.3408   -1.1110 H   0  0  0  0  0  0  0  0  0  0  0  0
   -3.3644    0.3559    1.3191 H   0  0  0  0  0  0  0  0  0  0  0  0
   -5.7812    0.0157    1.7629 H   0  0  0  0  0  0  0  0  0  0  0  0
   -6.7444    2.2370   -1.6757 H   0  0  0  0  0  0  0  0  0  0  0  0
   -4.3235    2.6009   -2.1487 H   0  0  0  0  0  0  0  0  0  0  0  0
   -8.3954    0.9642   -1.7704 H   0  0  0  0  0  0  0  0  0  0  0  0
  -10.7208    0.4986   -1.4149 H   0  0  0  0  0  0  0  0  0  0  0  0
  -10.0656    0.2041    2.7728 H   0  0  0  0  0  0  0  0  0  0  0  0
   -7.6952    0.6779    2.4379 H   0  0  0  0  0  0  0  0  0  0  0  0
  -13.2539    0.7629   -0.5852 H   0  0  0  0  0  0  0  0  0  0  0  0
    1.4887    0.4381   -0.5872 H   0  0  0  0  0  0  0  0  0  0  0  0
    4.0376   -2.5848    1.4693 H   0  0  0  0  0  0  0  0  0  0  0  0
    3.4740   -0.9564    1.8311 H   0  0  0  0  0  0  0  0  0  0  0  0
    5.9595   -1.8996    0.3985 H   0  0  0  0  0  0  0  0  0  0  0  0
    5.6870   -0.6694    1.6601 H   0  0  0  0  0  0  0  0  0  0  0  0
    4.3558    0.6318   -0.0871 H   0  0  0  0  0  0  0  0  0  0  0  0
    5.7421   -1.4867   -1.8291 H   0  0  0  0  0  0  0  0  0  0  0  0
    4.7961   -0.1100   -2.5048 H   0  0  0  0  0  0  0  0  0  0  0  0
    3.7761   -2.6194   -1.7877 H   0  0  0  0  0  0  0  0  0  0  0  0
    2.8437   -1.0792   -2.1532 H   0  0  0  0  0  0  0  0  0  0  0  0
    7.5110   -1.0675   -0.5961 H   0  0  0  0  0  0  0  0  0  0  0  0
    7.7588    0.1101   -2.0101 H   0  0  0  0  0  0  0  0  0  0  0  0
    8.8416    0.3933    0.8367 H   0  0  0  0  0  0  0  0  0  0  0  0
    9.6654    0.2326   -0.7918 H   0  0  0  0  0  0  0  0  0  0  0  0
    9.6941    2.5748   -0.0632 H   0  0  0  0  0  0  0  0  0  0  0  0
    8.7135    2.2958   -1.6034 H   0  0  0  0  0  0  0  0  0  0  0  0
    7.9196    3.2979    1.0643 H   0  0  0  0  0  0  0  0  0  0  0  0
    7.0852    3.4690   -0.5320 H   0  0  0  0  0  0  0  0  0  0  0  0
    7.0306    1.1128    1.4239 H   0  0  0  0  0  0  0  0  0  0  0  0
    5.6417    2.1272    0.8621 H   0  0  0  0  0  0  0  0  0  0  0  0
  1  2  1  0
  2  3  2  0
  3  4  1  0
  4  5  2  0
  5  6  1  0
  6  7  1  0
  7  8  2  0
  7  9  1  0
  9 10  2  0
 10 11  1  0
 11 12  2  0
 12 13  1  0
 13 14  2  0
 12 15  1  0
 15 16  2  0
 16 17  1  0
 17 18  2  0
 18 19  1  0
 19 20  2  0
 18 21  1  0
 21 22  1  0
 21 23  2  0
  5 24  1  0
 24 25  2  0
 25 26  1  0
 26 27  1  0
 27 28  1  0
 28 29  1  0
 29 30  1  0
 30 31  1  0
 29 32  1  0
 32 33  1  0
 33 34  1  0
 34 35  1  0
 35 36  1  0
 36 37  1  0
 25  2  1  0
 31 26  1  0
 37 32  1  0
 14  9  1  0
 20 15  1  0
  1 38  1  0
  1 39  1  0
  1 40  1  0
  3 41  1  0
  4 42  1  0
  6 43  1  0
 10 44  1  0
 11 45  1  0
 13 46  1  0
 14 47  1  0
 16 48  1  0
 17 49  1  0
 19 50  1  0
 20 51  1  0
 22 52  1  0
 24 53  1  0
 27 54  1  0
 27 55  1  0
 28 56  1  0
 28 57  1  0
 29 58  1  0
 30 59  1  0
 30 60  1  0
 31 61  1  0
 31 62  1  0
 33 63  1  0
 33 64  1  0
 34 65  1  0
 34 66  1  0
 35 67  1  0
 35 68  1  0
 36 69  1  0
 36 70  1  0
 37 71  1  0
 37 72  1  0
M  END
$$$$
[H]c1sc2nc(-c3c([H])c([H])c(F)c([H])c3[H])n(C([H])([H])C([H])(C([H])([H])[H])C([H])([H])[H])c(=O)c2c1-c1c([H])c([H])c(C#N)c([H])c1[H]
     RDKit          3D

 47 50  0  0  0  0  0  0  0  0999 V2000
   -2.0872   -3.3194    0.0036 C   0  0  0  0  0  0  0  0  0  0  0  0
   -1.4025   -2.0358    0.4984 C   0  0  0  0  0  0  0  0  0  0  0  0
   -1.9768   -1.6192    1.7837 C   0  0  0  0  0  0  0  0  0  0  0  0
   -1.3469   -1.0971   -0.6533 C   0  0  0  0  0  0  0  0  0  0  0  0
   -0.7762    0.2133   -0.3579 N   0  0  0  0  0  0  0  0  0  0  0  0
   -1.5292    1.2857   -0.2195 C   0  0  0  0  0  0  0  0  0  0  0  0
   -0.8252    2.4292    0.1332 N   0  0  0  0  0  0  0  0  0  0  0  0
    0.4938    2.4734    0.3202 C   0  0  0  0  0  0  0  0  0  0  0  0
    1.6231    3.6804    0.7623 S   0  0  0  0  0  0  0  0  0  0  0  0
    3.0391    2.7516    0.7469 C   0  0  0  0  0  0  0  0  0  0  0  0
    2.6027    1.4974    0.3917 C   0  0  0  0  0  0  0  0  0  0  0  0
    3.6551    0.4437    0.2403 C   0  0  0  0  0  0  0  0  0  0  0  0
    4.4261    0.0447    1.3108 C   0  0  0  0  0  0  0  0  0  0  0  0
    5.4423   -0.9011    1.1591 C   0  0  0  0  0  0  0  0  0  0  0  0
    5.6976   -1.4579   -0.0665 C   0  0  0  0  0  0  0  0  0  0  0  0
    4.9344   -1.0666   -1.1404 C   0  0  0  0  0  0  0  0  0  0  0  0
    3.9230   -0.1227   -0.9806 C   0  0  0  0  0  0  0  0  0  0  0  0
    6.7563   -2.4347   -0.1920 C   0  0  0  0  0  0  0  0  0  0  0  0
    7.5826   -3.2239   -0.2952 N   0  0  0  0  0  0  0  0  0  0  0  0
    1.2637    1.3598    0.1708 C   0  0  0  0  0  0  0  0  0  0  0  0
    0.5788    0.1968   -0.1816 C   0  0  0  0  0  0  0  0  0  0  0  0
    1.1564   -0.8903   -0.3482 O   0  0  0  0  0  0  0  0  0  0  0  0
   -2.9238    1.4797   -0.5338 C   0  0  0  0  0  0  0  0  0  0  0  0
   -3.2932    2.7958   -0.9355 C   0  0  0  0  0  0  0  0  0  0  0  0
   -4.5800    3.1533   -1.2274 C   0  0  0  0  0  0  0  0  0  0  0  0
   -5.5934    2.2288   -1.1407 C   0  0  0  0  0  0  0  0  0  0  0  0
   -6.8757    2.5561   -1.4248 F   0  0  0  0  0  0  0  0  0  0  0  0
   -5.2787    0.9531   -0.7566 C   0  0  0  0  0  0  0  0  0  0  0  0
   -3.9494    0.6247   -0.4653 C   0  0  0  0  0  0  0  0  0  0  0  0
   -2.4378   -3.9192    0.8627 H   0  0  0  0  0  0  0  0  0  0  0  0
   -2.9587   -3.0685   -0.6371 H   0  0  0  0  0  0  0  0  0  0  0  0
   -1.3588   -3.9552   -0.5459 H   0  0  0  0  0  0  0  0  0  0  0  0
   -0.3323   -2.3866    0.7606 H   0  0  0  0  0  0  0  0  0  0  0  0
   -1.4043   -1.9352    2.6846 H   0  0  0  0  0  0  0  0  0  0  0  0
   -3.0326   -2.0076    1.8790 H   0  0  0  0  0  0  0  0  0  0  0  0
   -2.0717   -0.5159    1.8740 H   0  0  0  0  0  0  0  0  0  0  0  0
   -2.2054   -1.1090   -1.2782 H   0  0  0  0  0  0  0  0  0  0  0  0
   -0.5421   -1.6124   -1.3541 H   0  0  0  0  0  0  0  0  0  0  0  0
    4.0877    3.0478    0.9656 H   0  0  0  0  0  0  0  0  0  0  0  0
    4.2156    0.4873    2.2597 H   0  0  0  0  0  0  0  0  0  0  0  0
    6.0426   -1.2086    2.0044 H   0  0  0  0  0  0  0  0  0  0  0  0
    5.1351   -1.5046   -2.1053 H   0  0  0  0  0  0  0  0  0  0  0  0
    3.3667    0.1408   -1.8687 H   0  0  0  0  0  0  0  0  0  0  0  0
   -2.5079    3.5383   -1.0134 H   0  0  0  0  0  0  0  0  0  0  0  0
   -4.8501    4.1627   -1.5369 H   0  0  0  0  0  0  0  0  0  0  0  0
   -6.0649    0.2173   -0.6843 H   0  0  0  0  0  0  0  0  0  0  0  0
   -3.8179   -0.3700   -0.1425 H   0  0  0  0  0  0  0  0  0  0  0  0
  1  2  1  0
  2  3  1  0
  2  4  1  0
  4  5  1  0
  5  6  1  0
  6  7  2  0
  7  8  1  0
  8  9  1  0
  9 10  1  0
 10 11  2  0
 11 12  1  0
 12 13  2  0
 13 14  1  0
 14 15  2  0
 15 16  1  0
 16 17  2  0
 15 18  1  0
 18 19  3  0
 11 20  1  0
 20 21  1  0
 21 22  2  0
  6 23  1  0
 23 24  2  0
 24 25  1  0
 25 26  2  0
 26 27  1  0
 26 28  1  0
 28 29  2  0
 21  5  1  0
 29 23  1  0
 20  8  2  0
 17 12  1  0
  1 30  1  0
  1 31  1  0
  1 32  1  0
  2 33  1  0
  3 34  1  0
  3 35  1  0
  3 36  1  0
  4 37  1  0
  4 38  1  0
 10 39  1  0
 13 40  1  0
 14 41  1  0
 16 42  1  0
 17 43  1  0
 24 44  1  0
 25 45  1  0
 28 46  1  0
 29 47  1  0
M  END
$$$$
[H]c1nc(-c2nc([H])c(F)c(N([H])[C@]([H])(C(=O)N([H])[C@]3([H])C([H])([H])C([H])([H])[C@@]([H])(C([H])([H])[H])C([H])([H])C3([H])[H])C([H])([H])C([H])(C([H])([H])[H])C([H])([H])[H])n2)c([H])c([H])c1[H]
     RDKit          3D

 59 61  0  0  0  0  0  0  0  0999 V2000
   -6.6881   -1.3016   -1.1390 C   0  0  0  0  0  0  0  0  0  0  0  0
   -6.1106   -0.7471    0.1479 C   0  0  1  0  0  0  0  0  0  0  0  0
   -5.0897   -1.7422    0.6446 C   0  0  0  0  0  0  0  0  0  0  0  0
   -3.8950   -1.7117   -0.2947 C   0  0  0  0  0  0  0  0  0  0  0  0
   -3.3136   -0.3378   -0.4378 C   0  0  1  0  0  0  0  0  0  0  0  0
   -4.0675    0.6618    0.4132 C   0  0  0  0  0  0  0  0  0  0  0  0
   -5.5277    0.6186   -0.0358 C   0  0  0  0  0  0  0  0  0  0  0  0
   -1.9113   -0.3869   -0.0917 N   0  0  0  0  0  0  0  0  0  0  0  0
   -0.8719   -0.0609   -0.9902 C   0  0  0  0  0  0  0  0  0  0  0  0
   -1.1991    0.2891   -2.1458 O   0  0  0  0  0  0  0  0  0  0  0  0
    0.5336   -0.1369   -0.5713 C   0  0  2  0  0  0  0  0  0  0  0  0
    0.9011    0.6210    0.6493 C   0  0  0  0  0  0  0  0  0  0  0  0
    0.7345    2.0831    0.6694 C   0  0  0  0  0  0  0  0  0  0  0  0
    1.2319    2.5422    2.0677 C   0  0  0  0  0  0  0  0  0  0  0  0
   -0.6879    2.5948    0.6243 C   0  0  0  0  0  0  0  0  0  0  0  0
    1.3425    0.2443   -1.7298 N   0  0  0  0  0  0  0  0  0  0  0  0
    2.7380    0.1817   -1.8164 C   0  0  0  0  0  0  0  0  0  0  0  0
    3.5364   -0.2677   -0.8410 N   0  0  0  0  0  0  0  0  0  0  0  0
    4.8576   -0.3398   -0.9231 C   0  0  0  0  0  0  0  0  0  0  0  0
    5.4612    0.0610   -2.0564 N   0  0  0  0  0  0  0  0  0  0  0  0
    4.7445    0.5304   -3.0985 C   0  0  0  0  0  0  0  0  0  0  0  0
    3.3636    0.5910   -2.9753 C   0  0  0  0  0  0  0  0  0  0  0  0
    2.6556    1.0653   -4.0320 F   0  0  0  0  0  0  0  0  0  0  0  0
    5.7025   -0.8407    0.1730 C   0  0  0  0  0  0  0  0  0  0  0  0
    5.1124   -1.2622    1.3552 C   0  0  0  0  0  0  0  0  0  0  0  0
    5.8937   -1.7322    2.3859 C   0  0  0  0  0  0  0  0  0  0  0  0
    7.2561   -1.7786    2.2305 C   0  0  0  0  0  0  0  0  0  0  0  0
    7.8371   -1.3579    1.0521 C   0  0  0  0  0  0  0  0  0  0  0  0
    7.0261   -0.9098    0.0827 N   0  0  0  0  0  0  0  0  0  0  0  0
   -7.7711   -1.5250   -1.0485 H   0  0  0  0  0  0  0  0  0  0  0  0
   -6.4935   -0.5587   -1.9657 H   0  0  0  0  0  0  0  0  0  0  0  0
   -6.1891   -2.2361   -1.4552 H   0  0  0  0  0  0  0  0  0  0  0  0
   -6.9375   -0.6934    0.8763 H   0  0  0  0  0  0  0  0  0  0  0  0
   -5.5267   -2.7398    0.5859 H   0  0  0  0  0  0  0  0  0  0  0  0
   -4.7532   -1.5516    1.6744 H   0  0  0  0  0  0  0  0  0  0  0  0
   -4.1550   -2.1344   -1.2890 H   0  0  0  0  0  0  0  0  0  0  0  0
   -3.1474   -2.4041    0.1421 H   0  0  0  0  0  0  0  0  0  0  0  0
   -3.4388   -0.0055   -1.4944 H   0  0  0  0  0  0  0  0  0  0  0  0
   -3.9673    0.4596    1.4870 H   0  0  0  0  0  0  0  0  0  0  0  0
   -3.6583    1.6670    0.1713 H   0  0  0  0  0  0  0  0  0  0  0  0
   -5.5404    0.8705   -1.1147 H   0  0  0  0  0  0  0  0  0  0  0  0
   -6.0780    1.3963    0.5401 H   0  0  0  0  0  0  0  0  0  0  0  0
   -1.6702   -0.6809    0.8782 H   0  0  0  0  0  0  0  0  0  0  0  0
    0.8503   -1.2062   -0.3702 H   0  0  0  0  0  0  0  0  0  0  0  0
    0.2519    0.2251    1.5130 H   0  0  0  0  0  0  0  0  0  0  0  0
    1.9244    0.3399    0.9687 H   0  0  0  0  0  0  0  0  0  0  0  0
    1.3409    2.6513   -0.0396 H   0  0  0  0  0  0  0  0  0  0  0  0
    0.9699    1.7911    2.8279 H   0  0  0  0  0  0  0  0  0  0  0  0
    0.8303    3.5577    2.2908 H   0  0  0  0  0  0  0  0  0  0  0  0
    2.3272    2.6071    1.9955 H   0  0  0  0  0  0  0  0  0  0  0  0
   -1.3316    2.1477    1.4109 H   0  0  0  0  0  0  0  0  0  0  0  0
   -1.1064    2.5323   -0.3937 H   0  0  0  0  0  0  0  0  0  0  0  0
   -0.6664    3.7154    0.8300 H   0  0  0  0  0  0  0  0  0  0  0  0
    0.8310    0.6058   -2.5936 H   0  0  0  0  0  0  0  0  0  0  0  0
    5.2057    0.8584   -4.0194 H   0  0  0  0  0  0  0  0  0  0  0  0
    4.0350   -1.2312    1.4925 H   0  0  0  0  0  0  0  0  0  0  0  0
    5.4955   -2.0760    3.3338 H   0  0  0  0  0  0  0  0  0  0  0  0
    7.8884   -2.1425    3.0229 H   0  0  0  0  0  0  0  0  0  0  0  0
    8.9143   -1.4098    0.9676 H   0  0  0  0  0  0  0  0  0  0  0  0
  1  2  1  0
  2  3  1  0
  3  4  1  0
  4  5  1  0
  5  6  1  0
  6  7  1  0
  5  8  1  0
  8  9  1  0
  9 10  2  0
  9 11  1  0
 11 12  1  0
 12 13  1  0
 13 14  1  0
 13 15  1  0
 11 16  1  0
 16 17  1  0
 17 18  2  0
 18 19  1  0
 19 20  2  0
 20 21  1  0
 21 22  2  0
 22 23  1  0
 19 24  1  0
 24 25  2  0
 25 26  1  0
 26 27  2  0
 27 28  1  0
 28 29  2  0
  7  2  1  0
 22 17  1  0
 29 24  1  0
  1 30  1  0
  1 31  1  0
  1 32  1  0
  2 33  1  1
  3 34  1  0
  3 35  1  0
  4 36  1  0
  4 37  1  0
  5 38  1  6
  6 39  1  0
  6 40  1  0
  7 41  1  0
  7 42  1  0
  8 43  1  0
 11 44  1  1
 12 45  1  0
 12 46  1  0
 13 47  1  0
 14 48  1  0
 14 49  1  0
 14 50  1  0
 15 51  1  0
 15 52  1  0
 15 53  1  0
 16 54  1  0
 21 55  1  0
 25 56  1  0
 26 57  1  0
 27 58  1  0
 28 59  1  0
M  END
$$$$
[H]Oc1c([H])c([H])c2c([H])c(C#N)c(C(O[H])(C([H])([H])[H])C([H])([H])C([H])([H])C([H])([H])C([H])([H])[H])c([H])c2c1[H]
     RDKit          3D

 39 40  0  0  0  0  0  0  0  0999 V2000
   -4.7168    1.1512   -0.1468 C   0  0  0  0  0  0  0  0  0  0  0  0
   -4.3103    0.3571    1.0495 C   0  0  0  0  0  0  0  0  0  0  0  0
   -3.2321   -0.6565    0.7327 C   0  0  0  0  0  0  0  0  0  0  0  0
   -2.0039    0.1110    0.2044 C   0  0  0  0  0  0  0  0  0  0  0  0
   -0.9213   -0.9026   -0.1144 C   0  0  0  0  0  0  0  0  0  0  0  0
   -1.3847   -1.8726   -1.1611 C   0  0  0  0  0  0  0  0  0  0  0  0
   -0.8446   -1.6601    1.1035 O   0  0  0  0  0  0  0  0  0  0  0  0
    0.4140   -0.3570   -0.2983 C   0  0  0  0  0  0  0  0  0  0  0  0
    1.4495   -0.5528    0.6250 C   0  0  0  0  0  0  0  0  0  0  0  0
    2.7065   -0.0225    0.4772 C   0  0  0  0  0  0  0  0  0  0  0  0
    3.6852   -0.2677    1.4495 C   0  0  0  0  0  0  0  0  0  0  0  0
    4.9528    0.2564    1.3186 C   0  0  0  0  0  0  0  0  0  0  0  0
    5.9242    0.0059    2.2955 O   0  0  0  0  0  0  0  0  0  0  0  0
    5.2123    1.0246    0.2001 C   0  0  0  0  0  0  0  0  0  0  0  0
    4.2726    1.2757   -0.7595 C   0  0  0  0  0  0  0  0  0  0  0  0
    2.9986    0.7472   -0.6250 C   0  0  0  0  0  0  0  0  0  0  0  0
    2.0098    0.9601   -1.5505 C   0  0  0  0  0  0  0  0  0  0  0  0
    0.7409    0.4108   -1.3792 C   0  0  0  0  0  0  0  0  0  0  0  0
   -0.1923    0.6735   -2.4164 C   0  0  0  0  0  0  0  0  0  0  0  0
   -0.9339    0.8800   -3.2814 N   0  0  0  0  0  0  0  0  0  0  0  0
   -5.7876    1.4489   -0.0778 H   0  0  0  0  0  0  0  0  0  0  0  0
   -4.5752    0.6390   -1.1024 H   0  0  0  0  0  0  0  0  0  0  0  0
   -4.1536    2.1268   -0.2265 H   0  0  0  0  0  0  0  0  0  0  0  0
   -5.1757   -0.1436    1.5091 H   0  0  0  0  0  0  0  0  0  0  0  0
   -3.9017    1.0644    1.8028 H   0  0  0  0  0  0  0  0  0  0  0  0
   -3.5947   -1.2526   -0.1300 H   0  0  0  0  0  0  0  0  0  0  0  0
   -2.9839   -1.2974    1.5754 H   0  0  0  0  0  0  0  0  0  0  0  0
   -2.3820    0.5464   -0.7328 H   0  0  0  0  0  0  0  0  0  0  0  0
   -1.7169    0.8124    0.9823 H   0  0  0  0  0  0  0  0  0  0  0  0
   -1.7424   -2.8091   -0.7275 H   0  0  0  0  0  0  0  0  0  0  0  0
   -0.5994   -2.1027   -1.9047 H   0  0  0  0  0  0  0  0  0  0  0  0
   -2.2318   -1.4058   -1.7407 H   0  0  0  0  0  0  0  0  0  0  0  0
   -1.3911   -2.4593    1.0512 H   0  0  0  0  0  0  0  0  0  0  0  0
    1.2370   -1.1537    1.4944 H   0  0  0  0  0  0  0  0  0  0  0  0
    3.4291   -0.8786    2.3103 H   0  0  0  0  0  0  0  0  0  0  0  0
    6.8363    0.4174    2.1444 H   0  0  0  0  0  0  0  0  0  0  0  0
    6.1944    1.4439    0.0768 H   0  0  0  0  0  0  0  0  0  0  0  0
    4.4592    1.8699   -1.6329 H   0  0  0  0  0  0  0  0  0  0  0  0
    2.2533    1.5720   -2.4201 H   0  0  0  0  0  0  0  0  0  0  0  0
  1  2  1  0
  2  3  1  0
  3  4  1  0
  4  5  1  0
  5  6  1  0
  5  7  1  0
  5  8  1  0
  8  9  2  0
  9 10  1  0
 10 11  2  0
 11 12  1  0
 12 13  1  0
 12 14  2  0
 14 15  1  0
 15 16  2  0
 16 17  1  0
 17 18  2  0
 18 19  1  0
 19 20  3  0
 18  8  1  0
 16 10  1  0
  1 21  1  0
  1 22  1  0
  1 23  1  0
  2 24  1  0
  2 25  1  0
  3 26  1  0
  3 27  1  0
  4 28  1  0
  4 29  1  0
  6 30  1  0
  6 31  1  0
  6 32  1  0
  7 33  1  0
  9 34  1  0
 11 35  1  0
 13 36  1  0
 14 37  1  0
 15 38  1  0
 17 39  1  0
M  END
$$$$
[H]c1c([H])c(C2([H])N([H])C(=O)C([H])(C([H])([H])N([H])[H])N2[H])c([H])c(Cl)c1Cl
     RDKit          3D

 27 28  0  0  0  0  0  0  0  0999 V2000
   -3.6413   -0.2889   -1.2769 N   0  0  0  0  0  0  0  0  0  0  0  0
   -3.4066    0.2327    0.0579 C   0  0  0  0  0  0  0  0  0  0  0  0
   -2.1528   -0.4333    0.5782 C   0  0  0  0  0  0  0  0  0  0  0  0
   -0.9966   -0.1598   -0.2555 N   0  0  0  0  0  0  0  0  0  0  0  0
    0.0795   -0.5209    0.6573 C   0  0  0  0  0  0  0  0  0  0  0  0
   -0.2979    0.2260    1.8438 N   0  0  0  0  0  0  0  0  0  0  0  0
   -1.7224    0.1616    1.8833 C   0  0  0  0  0  0  0  0  0  0  0  0
   -2.4603    0.5368    2.8389 O   0  0  0  0  0  0  0  0  0  0  0  0
    1.4035   -0.1498    0.1471 C   0  0  0  0  0  0  0  0  0  0  0  0
    1.6844    1.0731   -0.4314 C   0  0  0  0  0  0  0  0  0  0  0  0
    2.9365    1.3801   -0.8950 C   0  0  0  0  0  0  0  0  0  0  0  0
    3.9567    0.4856   -0.8021 C   0  0  0  0  0  0  0  0  0  0  0  0
    5.5485    0.9030   -1.4027 Cl  0  0  0  0  0  0  0  0  0  0  0  0
    3.7013   -0.7492   -0.2256 C   0  0  0  0  0  0  0  0  0  0  0  0
    5.0475   -1.8724   -0.1265 Cl  0  0  0  0  0  0  0  0  0  0  0  0
    2.4401   -1.0551    0.2400 C   0  0  0  0  0  0  0  0  0  0  0  0
   -4.6399   -0.1910   -1.5532 H   0  0  0  0  0  0  0  0  0  0  0  0
   -3.4118   -1.3048   -1.3018 H   0  0  0  0  0  0  0  0  0  0  0  0
   -3.3540    1.3224    0.0900 H   0  0  0  0  0  0  0  0  0  0  0  0
   -4.2447   -0.1508    0.6904 H   0  0  0  0  0  0  0  0  0  0  0  0
   -2.2642   -1.5107    0.6850 H   0  0  0  0  0  0  0  0  0  0  0  0
   -0.9542    0.8691   -0.4301 H   0  0  0  0  0  0  0  0  0  0  0  0
    0.0382   -1.6126    0.8084 H   0  0  0  0  0  0  0  0  0  0  0  0
    0.3257    0.7103    2.5287 H   0  0  0  0  0  0  0  0  0  0  0  0
    0.9078    1.7947   -0.5188 H   0  0  0  0  0  0  0  0  0  0  0  0
    3.1573    2.3493   -1.3530 H   0  0  0  0  0  0  0  0  0  0  0  0
    2.3197   -2.0452    0.6795 H   0  0  0  0  0  0  0  0  0  0  0  0
  1  2  1  0
  2  3  1  0
  3  4  1  0
  4  5  1  0
  5  6  1  0
  6  7  1  0
  7  8  2  0
  5  9  1  0
  9 10  2  0
 10 11  1  0
 11 12  2  0
 12 13  1  0
 12 14  1  0
 14 15  1  0
 14 16  2  0
  7  3  1  0
 16  9  1  0
  1 17  1  0
  1 18  1  0
  2 19  1  0
  2 20  1  0
  3 21  1  0
  4 22  1  0
  5 23  1  0
  6 24  1  0
 10 25  1  0
 11 26  1  0
 16 27  1  0
M  END
$$$$
[H]c1nc2c(OC([H])([H])[H])nc(N([H])[H])nc2n1[H]
     RDKit          3D

 19 20  0  0  0  0  0  0  0  0999 V2000
    3.2244    0.0491    0.0759 C   0  0  0  0  0  0  0  0  0  0  0  0
    2.0231    0.8049    0.1574 O   0  0  0  0  0  0  0  0  0  0  0  0
    0.7732    0.2130    0.0486 C   0  0  0  0  0  0  0  0  0  0  0  0
    0.5784   -1.0953   -0.1392 N   0  0  0  0  0  0  0  0  0  0  0  0
   -0.6455   -1.6520   -0.2425 C   0  0  0  0  0  0  0  0  0  0  0  0
   -0.7962   -3.0679   -0.4445 N   0  0  0  0  0  0  0  0  0  0  0  0
   -1.7069   -0.8318   -0.1491 N   0  0  0  0  0  0  0  0  0  0  0  0
   -1.6020    0.4973    0.0397 C   0  0  0  0  0  0  0  0  0  0  0  0
   -2.4573    1.5281    0.1669 N   0  0  0  0  0  0  0  0  0  0  0  0
   -1.7948    2.6849    0.3429 C   0  0  0  0  0  0  0  0  0  0  0  0
   -0.4889    2.3633    0.3246 N   0  0  0  0  0  0  0  0  0  0  0  0
   -0.3276    1.0434    0.1426 C   0  0  0  0  0  0  0  0  0  0  0  0
    4.0388    0.5459    0.6525 H   0  0  0  0  0  0  0  0  0  0  0  0
    3.1028   -0.9788    0.4438 H   0  0  0  0  0  0  0  0  0  0  0  0
    3.4839   -0.0014   -1.0111 H   0  0  0  0  0  0  0  0  0  0  0  0
   -0.3915   -3.7384    0.2607 H   0  0  0  0  0  0  0  0  0  0  0  0
   -1.2974   -3.4628   -1.2734 H   0  0  0  0  0  0  0  0  0  0  0  0
   -3.5046    1.4088    0.1286 H   0  0  0  0  0  0  0  0  0  0  0  0
   -2.2119    3.6898    0.4755 H   0  0  0  0  0  0  0  0  0  0  0  0
  1  2  1  0
  2  3  1  0
  3  4  2  0
  4  5  1  0
  5  6  1  0
  5  7  2  0
  7  8  1  0
  8  9  1  0
  9 10  1  0
 10 11  2  0
 11 12  1  0
 12  3  1  0
 12  8  2  0
  1 13  1  0
  1 14  1  0
  1 15  1  0
  6 16  1  0
  6 17  1  0
  9 18  1  0
 10 19  1  0
M  END
$$$$
[H]c1c([H])c(Cl)c([H])c(C(=O)C([H])([H])n2c([H])c(C(=O)OC([H])([H])C([H])([H])[H])c3c([H])c(OC([H])([H])[H])c([H])c([H])c32)c1[H]
     RDKit          3D

 44 46  0  0  0  0  0  0  0  0999 V2000
   -4.5105   -3.6432   -0.5257 C   0  0  0  0  0  0  0  0  0  0  0  0
   -3.8629   -3.5768    0.8456 C   0  0  0  0  0  0  0  0  0  0  0  0
   -2.7498   -2.7044    0.8255 O   0  0  0  0  0  0  0  0  0  0  0  0
   -2.8481   -1.3551    0.4956 C   0  0  0  0  0  0  0  0  0  0  0  0
   -3.9708   -0.9225    0.2107 O   0  0  0  0  0  0  0  0  0  0  0  0
   -1.6360   -0.5367    0.5044 C   0  0  0  0  0  0  0  0  0  0  0  0
   -0.3733   -0.9482    0.8072 C   0  0  0  0  0  0  0  0  0  0  0  0
    0.4687    0.0938    0.7033 N   0  0  0  0  0  0  0  0  0  0  0  0
    1.8931    0.0416    0.9493 C   0  0  0  0  0  0  0  0  0  0  0  0
    2.6759   -0.2778   -0.2379 C   0  0  0  0  0  0  0  0  0  0  0  0
    2.0926   -0.4743   -1.3298 O   0  0  0  0  0  0  0  0  0  0  0  0
    4.1214   -0.3806   -0.2149 C   0  0  0  0  0  0  0  0  0  0  0  0
    4.7780   -0.1677    0.9767 C   0  0  0  0  0  0  0  0  0  0  0  0
    6.1724   -0.2528    1.0626 C   0  0  0  0  0  0  0  0  0  0  0  0
    6.8555   -0.5554   -0.0830 C   0  0  0  0  0  0  0  0  0  0  0  0
    6.2389   -0.7766   -1.2993 C   0  0  0  0  0  0  0  0  0  0  0  0
    7.1271   -1.1606   -2.7465 Cl  0  0  0  0  0  0  0  0  0  0  0  0
    4.8463   -0.6831   -1.3463 C   0  0  0  0  0  0  0  0  0  0  0  0
   -0.2559    1.1548    0.3379 C   0  0  0  0  0  0  0  0  0  0  0  0
    0.0807    2.4691    0.0878 C   0  0  0  0  0  0  0  0  0  0  0  0
   -0.8615    3.4100   -0.2854 C   0  0  0  0  0  0  0  0  0  0  0  0
   -2.1869    3.0640   -0.4226 C   0  0  0  0  0  0  0  0  0  0  0  0
   -3.1137    4.0405   -0.8015 O   0  0  0  0  0  0  0  0  0  0  0  0
   -4.4728    3.7903   -0.9665 C   0  0  0  0  0  0  0  0  0  0  0  0
   -2.5430    1.7553   -0.1770 C   0  0  0  0  0  0  0  0  0  0  0  0
   -1.5994    0.8163    0.1960 C   0  0  0  0  0  0  0  0  0  0  0  0
   -3.7373   -3.4873   -1.2840 H   0  0  0  0  0  0  0  0  0  0  0  0
   -4.9847   -4.6370   -0.6721 H   0  0  0  0  0  0  0  0  0  0  0  0
   -5.3280   -2.8989   -0.5740 H   0  0  0  0  0  0  0  0  0  0  0  0
   -4.5887   -3.3177    1.6328 H   0  0  0  0  0  0  0  0  0  0  0  0
   -3.4708   -4.5890    1.0757 H   0  0  0  0  0  0  0  0  0  0  0  0
   -0.1469   -1.9845    1.0851 H   0  0  0  0  0  0  0  0  0  0  0  0
    2.0904   -0.7697    1.7087 H   0  0  0  0  0  0  0  0  0  0  0  0
    2.2398    0.9822    1.4700 H   0  0  0  0  0  0  0  0  0  0  0  0
    4.2220    0.0714    1.8769 H   0  0  0  0  0  0  0  0  0  0  0  0
    6.6725   -0.0826    2.0071 H   0  0  0  0  0  0  0  0  0  0  0  0
    7.9345   -0.6244   -0.0311 H   0  0  0  0  0  0  0  0  0  0  0  0
    4.3265   -0.8474   -2.2706 H   0  0  0  0  0  0  0  0  0  0  0  0
    1.1349    2.7181    0.2029 H   0  0  0  0  0  0  0  0  0  0  0  0
   -0.5211    4.4075   -0.4613 H   0  0  0  0  0  0  0  0  0  0  0  0
   -5.0232    4.7422   -0.7097 H   0  0  0  0  0  0  0  0  0  0  0  0
   -4.7335    3.6170   -2.0474 H   0  0  0  0  0  0  0  0  0  0  0  0
   -4.8775    3.0248   -0.2987 H   0  0  0  0  0  0  0  0  0  0  0  0
   -3.5747    1.4553   -0.2766 H   0  0  0  0  0  0  0  0  0  0  0  0
  1  2  1  0
  2  3  1  0
  3  4  1  0
  4  5  2  0
  4  6  1  0
  6  7  2  0
  7  8  1  0
  8  9  1  0
  9 10  1  0
 10 11  2  0
 10 12  1  0
 12 13  2  0
 13 14  1  0
 14 15  2  0
 15 16  1  0
 16 17  1  0
 16 18  2  0
  8 19  1  0
 19 20  2  0
 20 21  1  0
 21 22  2  0
 22 23  1  0
 23 24  1  0
 22 25  1  0
 25 26  2  0
 26  6  1  0
 18 12  1  0
 26 19  1  0
  1 27  1  0
  1 28  1  0
  1 29  1  0
  2 30  1  0
  2 31  1  0
  7 32  1  0
  9 33  1  0
  9 34  1  0
 13 35  1  0
 14 36  1  0
 15 37  1  0
 18 38  1  0
 20 39  1  0
 21 40  1  0
 24 41  1  0
 24 42  1  0
 24 43  1  0
 25 44  1  0
M  END
$$$$
[H]c1nc2c(c([H])c1-c1c([H])c([H])c([H])c(C#N)c1[H])c(-c1c([H])c([H])c([H])c(N3C([H])([H])C([H])([H])N([H])C([H])([H])C3([H])[H])c1[H])c([H])n2[H]
     RDKit          3D

 50 54  0  0  0  0  0  0  0  0999 V2000
    5.5650    4.2807    0.2908 N   0  0  0  0  0  0  0  0  0  0  0  0
    5.5794    3.1714   -0.0308 C   0  0  0  0  0  0  0  0  0  0  0  0
    5.6217    1.7780   -0.4460 C   0  0  0  0  0  0  0  0  0  0  0  0
    6.6073    1.3020   -1.2890 C   0  0  0  0  0  0  0  0  0  0  0  0
    6.6305   -0.0250   -1.6707 C   0  0  0  0  0  0  0  0  0  0  0  0
    5.6380   -0.8646   -1.1846 C   0  0  0  0  0  0  0  0  0  0  0  0
    4.6449   -0.4459   -0.3519 C   0  0  0  0  0  0  0  0  0  0  0  0
    4.6453    0.8915    0.0157 C   0  0  0  0  0  0  0  0  0  0  0  0
    3.6266   -1.3759    0.1306 C   0  0  0  0  0  0  0  0  0  0  0  0
    3.8830   -2.7095    0.3562 C   0  0  0  0  0  0  0  0  0  0  0  0
    2.9697   -3.5907    0.8000 N   0  0  0  0  0  0  0  0  0  0  0  0
    1.7151   -3.1823    1.0513 C   0  0  0  0  0  0  0  0  0  0  0  0
    0.5889   -3.7958    1.4913 N   0  0  0  0  0  0  0  0  0  0  0  0
   -0.4125   -2.9033    1.5652 C   0  0  0  0  0  0  0  0  0  0  0  0
    0.0532   -1.6693    1.1670 C   0  0  0  0  0  0  0  0  0  0  0  0
   -0.6483   -0.3970    1.0842 C   0  0  0  0  0  0  0  0  0  0  0  0
   -0.1459    0.7783    1.6016 C   0  0  0  0  0  0  0  0  0  0  0  0
   -0.8586    1.9798    1.4890 C   0  0  0  0  0  0  0  0  0  0  0  0
   -2.0811    1.9873    0.8516 C   0  0  0  0  0  0  0  0  0  0  0  0
   -2.6115    0.8364    0.3252 C   0  0  0  0  0  0  0  0  0  0  0  0
   -1.8948   -0.3150    0.4505 C   0  0  0  0  0  0  0  0  0  0  0  0
   -3.8890    0.8409   -0.3454 N   0  0  0  0  0  0  0  0  0  0  0  0
   -4.4635   -0.3879   -0.8108 C   0  0  0  0  0  0  0  0  0  0  0  0
   -5.9695   -0.2624   -0.9109 C   0  0  0  0  0  0  0  0  0  0  0  0
   -6.4160    0.8399   -1.6996 N   0  0  0  0  0  0  0  0  0  0  0  0
   -5.4265    1.8885   -1.8392 C   0  0  0  0  0  0  0  0  0  0  0  0
   -4.6168    2.0622   -0.5686 C   0  0  0  0  0  0  0  0  0  0  0  0
    1.3781   -1.8395    0.8459 C   0  0  0  0  0  0  0  0  0  0  0  0
    2.3233   -0.9502    0.3912 C   0  0  0  0  0  0  0  0  0  0  0  0
    7.3584    2.0146   -1.6364 H   0  0  0  0  0  0  0  0  0  0  0  0
    7.4116   -0.3751   -2.3332 H   0  0  0  0  0  0  0  0  0  0  0  0
    5.6267   -1.9228   -1.4666 H   0  0  0  0  0  0  0  0  0  0  0  0
    3.8540    1.2298    0.6809 H   0  0  0  0  0  0  0  0  0  0  0  0
    4.8905   -3.0623    0.1596 H   0  0  0  0  0  0  0  0  0  0  0  0
    0.4984   -4.8001    1.7370 H   0  0  0  0  0  0  0  0  0  0  0  0
   -1.4141   -3.1378    1.8878 H   0  0  0  0  0  0  0  0  0  0  0  0
    0.8159    0.7526    2.1041 H   0  0  0  0  0  0  0  0  0  0  0  0
   -0.4148    2.8761    1.9155 H   0  0  0  0  0  0  0  0  0  0  0  0
   -2.6149    2.9201    0.7754 H   0  0  0  0  0  0  0  0  0  0  0  0
   -2.2691   -1.2388    0.0530 H   0  0  0  0  0  0  0  0  0  0  0  0
   -4.0893   -0.7242   -1.7913 H   0  0  0  0  0  0  0  0  0  0  0  0
   -4.2915   -1.2192   -0.0674 H   0  0  0  0  0  0  0  0  0  0  0  0
   -6.3983   -0.2110    0.1211 H   0  0  0  0  0  0  0  0  0  0  0  0
   -6.3319   -1.2262   -1.3514 H   0  0  0  0  0  0  0  0  0  0  0  0
   -6.7694    0.5187   -2.6283 H   0  0  0  0  0  0  0  0  0  0  0  0
   -5.9457    2.8328   -2.1093 H   0  0  0  0  0  0  0  0  0  0  0  0
   -4.7687    1.5854   -2.6877 H   0  0  0  0  0  0  0  0  0  0  0  0
   -5.3168    2.2117    0.2710 H   0  0  0  0  0  0  0  0  0  0  0  0
   -3.9617    2.9429   -0.7437 H   0  0  0  0  0  0  0  0  0  0  0  0
    2.0948    0.1102    0.2137 H   0  0  0  0  0  0  0  0  0  0  0  0
  1  2  3  0
  2  3  1  0
  3  4  2  0
  4  5  1  0
  5  6  2  0
  6  7  1  0
  7  8  2  0
  7  9  1  0
  9 10  2  0
 10 11  1  0
 11 12  2  0
 12 13  1  0
 13 14  1  0
 14 15  2  0
 15 16  1  0
 16 17  2  0
 17 18  1  0
 18 19  2  0
 19 20  1  0
 20 21  2  0
 20 22  1  0
 22 23  1  0
 23 24  1  0
 24 25  1  0
 25 26  1  0
 26 27  1  0
 15 28  1  0
 28 29  2  0
  8  3  1  0
 29  9  1  0
 28 12  1  0
 21 16  1  0
 27 22  1  0
  4 30  1  0
  5 31  1  0
  6 32  1  0
  8 33  1  0
 10 34  1  0
 13 35  1  0
 14 36  1  0
 17 37  1  0
 18 38  1  0
 19 39  1  0
 21 40  1  0
 23 41  1  0
 23 42  1  0
 24 43  1  0
 24 44  1  0
 25 45  1  0
 26 46  1  0
 26 47  1  0
 27 48  1  0
 27 49  1  0
 29 50  1  0
M  END
$$$$
[H]c1c([H])c([H])c(C([H])([H])OC(=O)N2C([H])([H])C(C([H])([H])[H])(C([H])([H])[H])[C@]([H])(OC(=O)N([H])[C@]([H])(C(=O)C(=O)N([H])[C@@]([H])(c3c([H])c([H])c([H])c([H])c3[H])C([H])([H])[H])C([H])([H])C([H])([H])C([H])([H])C([H])([H])[H])C2([H])[H])c([H])c1[H]
     RDKit          3D

 78 80  0  0  0  0  0  0  0  0999 V2000
    1.3231   -3.8430    4.8033 C   0  0  0  0  0  0  0  0  0  0  0  0
    0.1237   -3.2824    4.0837 C   0  0  0  0  0  0  0  0  0  0  0  0
    0.1399   -3.5722    2.5946 C   0  0  0  0  0  0  0  0  0  0  0  0
    1.3889   -2.9901    1.9197 C   0  0  0  0  0  0  0  0  0  0  0  0
    1.4844   -1.5277    1.9619 C   0  0  2  0  0  0  0  0  0  0  0  0
    0.4058   -0.7816    1.3097 N   0  0  0  0  0  0  0  0  0  0  0  0
   -0.2555   -1.3406    0.1722 C   0  0  0  0  0  0  0  0  0  0  0  0
   -0.0221   -2.4080   -0.3687 O   0  0  0  0  0  0  0  0  0  0  0  0
   -1.2824   -0.6251   -0.4061 O   0  0  0  0  0  0  0  0  0  0  0  0
   -1.9886   -1.0863   -1.5322 C   0  0  2  0  0  0  0  0  0  0  0  0
   -2.1208   -0.1539   -2.6517 C   0  0  0  0  0  0  0  0  0  0  0  0
   -3.5064    0.2621   -2.5570 N   0  0  0  0  0  0  0  0  0  0  0  0
   -4.2545   -0.9559   -2.1509 C   0  0  0  0  0  0  0  0  0  0  0  0
   -3.3628   -1.4397   -1.0532 C   0  0  0  0  0  0  0  0  0  0  0  0
   -3.7031   -0.8252    0.2693 C   0  0  0  0  0  0  0  0  0  0  0  0
   -3.4925   -2.9613   -0.8845 C   0  0  0  0  0  0  0  0  0  0  0  0
   -4.0817    1.5053   -2.7629 C   0  0  0  0  0  0  0  0  0  0  0  0
   -5.3347    1.5950   -2.5174 O   0  0  0  0  0  0  0  0  0  0  0  0
   -3.4745    2.6689   -3.2091 O   0  0  0  0  0  0  0  0  0  0  0  0
   -4.2750    3.8631   -3.3243 C   0  0  0  0  0  0  0  0  0  0  0  0
   -4.8129    4.2115   -1.9798 C   0  0  0  0  0  0  0  0  0  0  0  0
   -4.0237    3.8450   -0.9117 C   0  0  0  0  0  0  0  0  0  0  0  0
   -4.4919    4.1304    0.3680 C   0  0  0  0  0  0  0  0  0  0  0  0
   -5.6815    4.7476    0.5672 C   0  0  0  0  0  0  0  0  0  0  0  0
   -6.4554    5.1065   -0.5166 C   0  0  0  0  0  0  0  0  0  0  0  0
   -5.9899    4.8222   -1.7997 C   0  0  0  0  0  0  0  0  0  0  0  0
    2.7635   -0.8794    1.7744 C   0  0  0  0  0  0  0  0  0  0  0  0
    2.9397    0.3575    2.0208 O   0  0  0  0  0  0  0  0  0  0  0  0
    4.0105   -1.5699    1.2624 C   0  0  0  0  0  0  0  0  0  0  0  0
    3.8173   -2.7848    1.0633 O   0  0  0  0  0  0  0  0  0  0  0  0
    5.0990   -0.8383    1.0870 N   0  0  0  0  0  0  0  0  0  0  0  0
    6.2781   -0.0479    0.8966 C   0  0  2  0  0  0  0  0  0  0  0  0
    6.3175    1.1072    1.8781 C   0  0  0  0  0  0  0  0  0  0  0  0
    6.2262    0.5387   -0.4926 C   0  0  0  0  0  0  0  0  0  0  0  0
    5.0439    1.0520   -0.9714 C   0  0  0  0  0  0  0  0  0  0  0  0
    5.0121    1.5827   -2.2618 C   0  0  0  0  0  0  0  0  0  0  0  0
    6.1682    1.5733   -3.0112 C   0  0  0  0  0  0  0  0  0  0  0  0
    7.3329    1.0657   -2.5229 C   0  0  0  0  0  0  0  0  0  0  0  0
    7.3633    0.5479   -1.2645 C   0  0  0  0  0  0  0  0  0  0  0  0
    1.6510   -4.7969    4.3867 H   0  0  0  0  0  0  0  0  0  0  0  0
    2.1399   -3.0670    4.7682 H   0  0  0  0  0  0  0  0  0  0  0  0
    1.1078   -4.0010    5.8938 H   0  0  0  0  0  0  0  0  0  0  0  0
   -0.7640   -3.8275    4.4918 H   0  0  0  0  0  0  0  0  0  0  0  0
   -0.0483   -2.2296    4.2640 H   0  0  0  0  0  0  0  0  0  0  0  0
    0.2043   -4.6545    2.4735 H   0  0  0  0  0  0  0  0  0  0  0  0
   -0.7537   -3.1019    2.1942 H   0  0  0  0  0  0  0  0  0  0  0  0
    1.5434   -3.5403    1.0170 H   0  0  0  0  0  0  0  0  0  0  0  0
    2.2383   -3.3526    2.6273 H   0  0  0  0  0  0  0  0  0  0  0  0
    1.2269   -1.2991    3.0970 H   0  0  0  0  0  0  0  0  0  0  0  0
    0.1246    0.1399    1.6593 H   0  0  0  0  0  0  0  0  0  0  0  0
   -1.5303   -2.0421   -1.8769 H   0  0  0  0  0  0  0  0  0  0  0  0
   -1.9610   -0.5732   -3.6638 H   0  0  0  0  0  0  0  0  0  0  0  0
   -1.5276    0.7821   -2.5293 H   0  0  0  0  0  0  0  0  0  0  0  0
   -5.2536   -0.7056   -1.8121 H   0  0  0  0  0  0  0  0  0  0  0  0
   -4.2001   -1.7297   -2.9555 H   0  0  0  0  0  0  0  0  0  0  0  0
   -3.9876   -1.5904    0.9885 H   0  0  0  0  0  0  0  0  0  0  0  0
   -2.9071   -0.2190    0.7175 H   0  0  0  0  0  0  0  0  0  0  0  0
   -4.5527   -0.1103    0.0879 H   0  0  0  0  0  0  0  0  0  0  0  0
   -4.5194   -3.2168   -1.1442 H   0  0  0  0  0  0  0  0  0  0  0  0
   -3.2107   -3.1838    0.1585 H   0  0  0  0  0  0  0  0  0  0  0  0
   -2.7564   -3.3816   -1.6081 H   0  0  0  0  0  0  0  0  0  0  0  0
   -3.5880    4.6174   -3.7411 H   0  0  0  0  0  0  0  0  0  0  0  0
   -5.0870    3.6901   -4.0484 H   0  0  0  0  0  0  0  0  0  0  0  0
   -3.0611    3.3487   -0.9994 H   0  0  0  0  0  0  0  0  0  0  0  0
   -3.8968    3.8567    1.2238 H   0  0  0  0  0  0  0  0  0  0  0  0
   -6.0471    4.9627    1.5838 H   0  0  0  0  0  0  0  0  0  0  0  0
   -7.3966    5.5991   -0.3486 H   0  0  0  0  0  0  0  0  0  0  0  0
   -6.6363    5.1282   -2.6008 H   0  0  0  0  0  0  0  0  0  0  0  0
    5.7668   -1.9231    0.5992 H   0  0  0  0  0  0  0  0  0  0  0  0
    7.2151   -0.6087    0.9758 H   0  0  0  0  0  0  0  0  0  0  0  0
    7.3479    1.4784    1.9294 H   0  0  0  0  0  0  0  0  0  0  0  0
    5.7041    1.9194    1.4187 H   0  0  0  0  0  0  0  0  0  0  0  0
    5.9042    0.7309    2.8379 H   0  0  0  0  0  0  0  0  0  0  0  0
    4.1661    1.0615   -0.3925 H   0  0  0  0  0  0  0  0  0  0  0  0
    4.0821    1.9735   -2.6005 H   0  0  0  0  0  0  0  0  0  0  0  0
    6.1097    1.9846   -4.0129 H   0  0  0  0  0  0  0  0  0  0  0  0
    8.2436    1.0778   -3.1230 H   0  0  0  0  0  0  0  0  0  0  0  0
    8.2812    0.1343   -0.8193 H   0  0  0  0  0  0  0  0  0  0  0  0
  1  2  1  0
  2  3  1  0
  3  4  1  0
  4  5  1  0
  5  6  1  0
  6  7  1  0
  7  8  2  0
  7  9  1  0
  9 10  1  0
 10 11  1  0
 11 12  1  0
 12 13  1  0
 13 14  1  0
 14 15  1  0
 14 16  1  0
 12 17  1  0
 17 18  2  0
 17 19  1  0
 19 20  1  0
 20 21  1  0
 21 22  2  0
 22 23  1  0
 23 24  2  0
 24 25  1  0
 25 26  2  0
  5 27  1  0
 27 28  2  0
 27 29  1  0
 29 30  2  0
 29 31  1  0
 31 32  1  0
 32 33  1  0
 32 34  1  0
 34 35  2  0
 35 36  1  0
 36 37  2  0
 37 38  1  0
 38 39  2  0
 14 10  1  0
 26 21  1  0
 39 34  1  0
  1 40  1  0
  1 41  1  0
  1 42  1  0
  2 43  1  0
  2 44  1  0
  3 45  1  0
  3 46  1  0
  4 47  1  0
  4 48  1  0
  5 49  1  1
  6 50  1  0
 10 51  1  6
 11 52  1  0
 11 53  1  0
 13 54  1  0
 13 55  1  0
 15 56  1  0
 15 57  1  0
 15 58  1  0
 16 59  1  0
 16 60  1  0
 16 61  1  0
 20 62  1  0
 20 63  1  0
 22 64  1  0
 23 65  1  0
 24 66  1  0
 25 67  1  0
 26 68  1  0
 31 69  1  0
 32 70  1  6
 33 71  1  0
 33 72  1  0
 33 73  1  0
 35 74  1  0
 36 75  1  0
 37 76  1  0
 38 77  1  0
 39 78  1  0
M  END
$$$$
[H]c1nc([H])c(-c2c([H])c3c(F)c(Oc4c([H])c([H])nc5c([H])c(OC([H])([H])C([H])([H])C([H])([H])N6C([H])([H])C([H])([H])N(C([H])([H])[H])C([H])([H])C6([H])[H])c(OC([H])([H])[H])c([H])c45)c([H])c([H])c3n2[H])c([H])c1[H]
     RDKit          3D

 72 77  0  0  0  0  0  0  0  0999 V2000
   -0.3201    0.6926   -2.6071 C   0  0  0  0  0  0  0  0  0  0  0  0
    0.8332    0.2121   -1.9024 O   0  0  0  0  0  0  0  0  0  0  0  0
    0.6727   -0.4192   -0.6705 C   0  0  0  0  0  0  0  0  0  0  0  0
   -0.6010   -0.5733   -0.1453 C   0  0  0  0  0  0  0  0  0  0  0  0
   -0.7655   -1.2009    1.0805 C   0  0  0  0  0  0  0  0  0  0  0  0
   -2.0503   -1.3749    1.6472 C   0  0  0  0  0  0  0  0  0  0  0  0
   -3.0706   -0.9057    0.9392 O   0  0  0  0  0  0  0  0  0  0  0  0
   -4.3824   -0.7526    0.8962 C   0  0  0  0  0  0  0  0  0  0  0  0
   -5.3009   -1.1442    1.8388 C   0  0  0  0  0  0  0  0  0  0  0  0
   -6.6844   -0.9429    1.7154 C   0  0  0  0  0  0  0  0  0  0  0  0
   -7.1439   -0.3174    0.5849 C   0  0  0  0  0  0  0  0  0  0  0  0
   -8.3766    0.0243    0.1587 N   0  0  0  0  0  0  0  0  0  0  0  0
   -8.3491    0.6312   -1.0301 C   0  0  0  0  0  0  0  0  0  0  0  0
   -7.0324    0.6849   -1.3913 C   0  0  0  0  0  0  0  0  0  0  0  0
   -6.2623    0.0917   -0.3845 C   0  0  0  0  0  0  0  0  0  0  0  0
   -4.9143   -0.1151   -0.2435 C   0  0  0  0  0  0  0  0  0  0  0  0
   -4.1015    0.3096   -1.2311 F   0  0  0  0  0  0  0  0  0  0  0  0
   -9.4737    1.1397   -1.8020 C   0  0  0  0  0  0  0  0  0  0  0  0
  -10.7545    1.0200   -1.3155 C   0  0  0  0  0  0  0  0  0  0  0  0
  -11.8375    1.4862   -2.0133 C   0  0  0  0  0  0  0  0  0  0  0  0
  -11.6592    2.0910   -3.2306 C   0  0  0  0  0  0  0  0  0  0  0  0
  -10.4084    2.2087   -3.7072 N   0  0  0  0  0  0  0  0  0  0  0  0
   -9.3206    1.7504   -3.0260 C   0  0  0  0  0  0  0  0  0  0  0  0
   -2.0912   -2.0096    2.8654 C   0  0  0  0  0  0  0  0  0  0  0  0
   -0.9447   -2.4470    3.4900 C   0  0  0  0  0  0  0  0  0  0  0  0
    0.2415   -2.2564    2.9097 N   0  0  0  0  0  0  0  0  0  0  0  0
    0.3563   -1.6420    1.7167 C   0  0  0  0  0  0  0  0  0  0  0  0
    1.6450   -1.4834    1.1801 C   0  0  0  0  0  0  0  0  0  0  0  0
    1.8088   -0.8617   -0.0341 C   0  0  0  0  0  0  0  0  0  0  0  0
    3.0393   -0.6780   -0.6077 O   0  0  0  0  0  0  0  0  0  0  0  0
    4.2575   -1.0819   -0.0593 C   0  0  0  0  0  0  0  0  0  0  0  0
    5.3549   -0.6747   -1.0323 C   0  0  0  0  0  0  0  0  0  0  0  0
    6.7209   -1.0560   -0.5523 C   0  0  0  0  0  0  0  0  0  0  0  0
    7.0657   -0.4582    0.6986 N   0  0  0  0  0  0  0  0  0  0  0  0
    8.3978   -0.8896    1.0741 C   0  0  0  0  0  0  0  0  0  0  0  0
    9.4243    0.1754    0.9564 C   0  0  0  0  0  0  0  0  0  0  0  0
    9.2413    1.0912   -0.1312 N   0  0  0  0  0  0  0  0  0  0  0  0
   10.0973    2.2548    0.1522 C   0  0  0  0  0  0  0  0  0  0  0  0
    7.8927    1.6015   -0.2360 C   0  0  0  0  0  0  0  0  0  0  0  0
    6.9564    0.9646    0.7545 C   0  0  0  0  0  0  0  0  0  0  0  0
   -0.9708    1.2954   -1.9236 H   0  0  0  0  0  0  0  0  0  0  0  0
   -0.0284    1.3326   -3.4453 H   0  0  0  0  0  0  0  0  0  0  0  0
   -0.9375   -0.1404   -2.9710 H   0  0  0  0  0  0  0  0  0  0  0  0
   -1.4632   -0.2237   -0.6544 H   0  0  0  0  0  0  0  0  0  0  0  0
   -4.9597   -1.6323    2.7262 H   0  0  0  0  0  0  0  0  0  0  0  0
   -7.3613   -1.2665    2.4783 H   0  0  0  0  0  0  0  0  0  0  0  0
   -9.2509   -0.1724    0.7125 H   0  0  0  0  0  0  0  0  0  0  0  0
   -6.5950    1.1033   -2.2924 H   0  0  0  0  0  0  0  0  0  0  0  0
  -10.8733    0.5373   -0.3488 H   0  0  0  0  0  0  0  0  0  0  0  0
  -12.8282    1.3812   -1.6127 H   0  0  0  0  0  0  0  0  0  0  0  0
  -12.4894    2.4743   -3.8161 H   0  0  0  0  0  0  0  0  0  0  0  0
   -8.3265    1.8562   -3.4291 H   0  0  0  0  0  0  0  0  0  0  0  0
   -3.0487   -2.1849    3.3728 H   0  0  0  0  0  0  0  0  0  0  0  0
   -1.0117   -2.9510    4.4637 H   0  0  0  0  0  0  0  0  0  0  0  0
    2.4999   -1.8513    1.7254 H   0  0  0  0  0  0  0  0  0  0  0  0
    4.3202   -2.1469    0.1703 H   0  0  0  0  0  0  0  0  0  0  0  0
    4.3894   -0.5382    0.9114 H   0  0  0  0  0  0  0  0  0  0  0  0
    5.3072    0.4087   -1.2521 H   0  0  0  0  0  0  0  0  0  0  0  0
    5.1313   -1.2049   -1.9814 H   0  0  0  0  0  0  0  0  0  0  0  0
    7.4350   -0.8415   -1.3614 H   0  0  0  0  0  0  0  0  0  0  0  0
    6.7351   -2.1657   -0.4020 H   0  0  0  0  0  0  0  0  0  0  0  0
    8.3258   -1.1667    2.1664 H   0  0  0  0  0  0  0  0  0  0  0  0
    8.6248   -1.8237    0.5455 H   0  0  0  0  0  0  0  0  0  0  0  0
   10.4174   -0.3243    0.7947 H   0  0  0  0  0  0  0  0  0  0  0  0
    9.5555    0.7814    1.8845 H   0  0  0  0  0  0  0  0  0  0  0  0
    9.6144    2.7374    1.0492 H   0  0  0  0  0  0  0  0  0  0  0  0
   11.1307    1.9664    0.3648 H   0  0  0  0  0  0  0  0  0  0  0  0
    9.9854    2.9938   -0.6647 H   0  0  0  0  0  0  0  0  0  0  0  0
    7.5265    1.3862   -1.2546 H   0  0  0  0  0  0  0  0  0  0  0  0
    7.8262    2.6997   -0.0944 H   0  0  0  0  0  0  0  0  0  0  0  0
    5.9248    1.2554    0.4879 H   0  0  0  0  0  0  0  0  0  0  0  0
    7.2345    1.2797    1.7838 H   0  0  0  0  0  0  0  0  0  0  0  0
  1  2  1  0
  2  3  1  0
  3  4  2  0
  4  5  1  0
  5  6  2  0
  6  7  1  0
  7  8  1  0
  8  9  2  0
  9 10  1  0
 10 11  2  0
 11 12  1  0
 12 13  1  0
 13 14  2  0
 14 15  1  0
 15 16  2  0
 16 17  1  0
 13 18  1  0
 18 19  2  0
 19 20  1  0
 20 21  2  0
 21 22  1  0
 22 23  2  0
  6 24  1  0
 24 25  2  0
 25 26  1  0
 26 27  2  0
 27 28  1  0
 28 29  2  0
 29 30  1  0
 30 31  1  0
 31 32  1  0
 32 33  1  0
 33 34  1  0
 34 35  1  0
 35 36  1  0
 36 37  1  0
 37 38  1  0
 37 39  1  0
 39 40  1  0
 29  3  1  0
 40 34  1  0
 27  5  1  0
 16  8  1  0
 23 18  1  0
 15 11  1  0
  1 41  1  0
  1 42  1  0
  1 43  1  0
  4 44  1  0
  9 45  1  0
 10 46  1  0
 12 47  1  0
 14 48  1  0
 19 49  1  0
 20 50  1  0
 21 51  1  0
 23 52  1  0
 24 53  1  0
 25 54  1  0
 28 55  1  0
 31 56  1  0
 31 57  1  0
 32 58  1  0
 32 59  1  0
 33 60  1  0
 33 61  1  0
 35 62  1  0
 35 63  1  0
 36 64  1  0
 36 65  1  0
 38 66  1  0
 38 67  1  0
 38 68  1  0
 39 69  1  0
 39 70  1  0
 40 71  1  0
 40 72  1  0
M  END
$$$$
[H]c1nc2c(c([H])c1N([H])C(=O)c1c(C([H])([H])[H])c(C(=O)C(=O)N([H])C3(c4nnnn4[H])C([H])([H])C3([H])[H])c3n1[C@]1([H])C([H])([H])[C@]1([H])C3([H])[H])c([H])c([H])n2[H]
     RDKit          3D

 56 62  0  0  0  0  0  0  0  0999 V2000
    1.4421    2.0912   -0.5204 C   0  0  0  0  0  0  0  0  0  0  0  0
    0.5711    1.0208   -0.0326 C   0  0  0  0  0  0  0  0  0  0  0  0
   -0.8031    0.9253   -0.3770 C   0  0  0  0  0  0  0  0  0  0  0  0
   -1.4175    1.7820   -1.3389 C   0  0  0  0  0  0  0  0  0  0  0  0
   -0.6994    2.6345   -2.0068 O   0  0  0  0  0  0  0  0  0  0  0  0
   -2.8113    1.8632   -1.7290 C   0  0  0  0  0  0  0  0  0  0  0  0
   -3.6754    1.3578   -0.9999 O   0  0  0  0  0  0  0  0  0  0  0  0
   -3.2049    2.4986   -2.9301 N   0  0  0  0  0  0  0  0  0  0  0  0
   -4.4722    2.6913   -3.5222 C   0  0  0  0  0  0  0  0  0  0  0  0
   -5.4856    3.5136   -2.8232 C   0  0  0  0  0  0  0  0  0  0  0  0
   -5.6928    2.0367   -2.8976 C   0  0  0  0  0  0  0  0  0  0  0  0
   -4.4844    2.6654   -5.0436 C   0  0  0  0  0  0  0  0  0  0  0  0
   -5.4942    2.1049   -5.7743 N   0  0  0  0  0  0  0  0  0  0  0  0
   -5.1786    2.2424   -7.0685 N   0  0  0  0  0  0  0  0  0  0  0  0
   -4.0396    2.8521   -7.1307 N   0  0  0  0  0  0  0  0  0  0  0  0
   -3.5863    3.1259   -5.8951 N   0  0  0  0  0  0  0  0  0  0  0  0
   -1.2805   -0.1889    0.2969 C   0  0  0  0  0  0  0  0  0  0  0  0
   -2.5611   -0.9815    0.4680 C   0  0  0  0  0  0  0  0  0  0  0  0
   -2.1226   -2.2498    1.1221 C   0  0  1  0  0  0  0  0  0  0  0  0
   -0.9801   -3.0724    0.7402 C   0  0  0  0  0  0  0  0  0  0  0  0
   -0.7645   -1.9587    1.7006 C   0  0  1  0  0  0  0  0  0  0  0  0
   -0.2953   -0.7489    1.0017 N   0  0  0  0  0  0  0  0  0  0  0  0
    0.8364   -0.0104    0.8002 C   0  0  0  0  0  0  0  0  0  0  0  0
    2.1217   -0.3472    1.3922 C   0  0  0  0  0  0  0  0  0  0  0  0
    3.1654    0.3330    1.0833 O   0  0  0  0  0  0  0  0  0  0  0  0
    2.3614   -1.3845    2.3073 N   0  0  0  0  0  0  0  0  0  0  0  0
    3.6088   -1.7195    2.8751 C   0  0  0  0  0  0  0  0  0  0  0  0
    3.6161   -1.9764    4.2209 C   0  0  0  0  0  0  0  0  0  0  0  0
    4.7255   -2.3935    4.8430 N   0  0  0  0  0  0  0  0  0  0  0  0
    5.8792   -2.5715    4.1255 C   0  0  0  0  0  0  0  0  0  0  0  0
    7.0807   -2.9846    4.4874 N   0  0  0  0  0  0  0  0  0  0  0  0
    7.9249   -3.0242    3.4320 C   0  0  0  0  0  0  0  0  0  0  0  0
    7.2153   -2.6053    2.3166 C   0  0  0  0  0  0  0  0  0  0  0  0
    5.9444   -2.3267    2.7510 C   0  0  0  0  0  0  0  0  0  0  0  0
    4.7502   -1.8904    2.1632 C   0  0  0  0  0  0  0  0  0  0  0  0
    0.9903    3.1054   -0.4184 H   0  0  0  0  0  0  0  0  0  0  0  0
    2.4738    2.0932   -0.1604 H   0  0  0  0  0  0  0  0  0  0  0  0
    1.5379    1.9214   -1.6344 H   0  0  0  0  0  0  0  0  0  0  0  0
   -2.3762    2.9015   -3.4919 H   0  0  0  0  0  0  0  0  0  0  0  0
   -6.1679    4.1080   -3.4903 H   0  0  0  0  0  0  0  0  0  0  0  0
   -5.2383    4.0247   -1.8670 H   0  0  0  0  0  0  0  0  0  0  0  0
   -5.6610    1.4397   -1.9962 H   0  0  0  0  0  0  0  0  0  0  0  0
   -6.4924    1.6644   -3.6315 H   0  0  0  0  0  0  0  0  0  0  0  0
   -2.6789    3.6124   -5.6760 H   0  0  0  0  0  0  0  0  0  0  0  0
   -3.2862   -0.4560    1.0800 H   0  0  0  0  0  0  0  0  0  0  0  0
   -3.0041   -1.2713   -0.5059 H   0  0  0  0  0  0  0  0  0  0  0  0
   -2.9034   -2.6972    1.8199 H   0  0  0  0  0  0  0  0  0  0  0  0
   -0.5070   -3.0198   -0.2503 H   0  0  0  0  0  0  0  0  0  0  0  0
   -0.9664   -4.1044    1.1764 H   0  0  0  0  0  0  0  0  0  0  0  0
   -0.7402   -2.0291    2.7781 H   0  0  0  0  0  0  0  0  0  0  0  0
    1.5291   -1.9894    2.5975 H   0  0  0  0  0  0  0  0  0  0  0  0
    2.6910   -1.8221    4.8158 H   0  0  0  0  0  0  0  0  0  0  0  0
    7.3198   -3.2453    5.4731 H   0  0  0  0  0  0  0  0  0  0  0  0
    8.9510   -3.3329    3.4712 H   0  0  0  0  0  0  0  0  0  0  0  0
    7.5690   -2.5114    1.3126 H   0  0  0  0  0  0  0  0  0  0  0  0
    4.7664   -1.6958    1.1073 H   0  0  0  0  0  0  0  0  0  0  0  0
  1  2  1  0
  2  3  1  0
  3  4  1  0
  4  5  2  0
  4  6  1  0
  6  7  2  0
  6  8  1  0
  8  9  1  0
  9 10  1  0
 10 11  1  0
  9 12  1  0
 12 13  2  0
 13 14  1  0
 14 15  2  0
 15 16  1  0
  3 17  2  0
 17 18  1  0
 18 19  1  0
 19 20  1  0
 20 21  1  0
 21 22  1  0
 22 23  1  0
 23 24  1  0
 24 25  2  0
 24 26  1  0
 26 27  1  0
 27 28  2  0
 28 29  1  0
 29 30  2  0
 30 31  1  0
 31 32  1  0
 32 33  2  0
 33 34  1  0
 34 35  2  0
 23  2  2  0
 35 27  1  0
 11  9  1  0
 16 12  1  0
 22 17  1  0
 34 30  1  0
 21 19  1  0
  1 36  1  0
  1 37  1  0
  1 38  1  0
  8 39  1  0
 10 40  1  0
 10 41  1  0
 11 42  1  0
 11 43  1  0
 16 44  1  0
 18 45  1  0
 18 46  1  0
 19 47  1  1
 20 48  1  0
 20 49  1  0
 21 50  1  1
 26 51  1  0
 28 52  1  0
 31 53  1  0
 32 54  1  0
 33 55  1  0
 35 56  1  0
M  END
$$$$
[H]c1c(OC([H])([H])[H])c(OC([H])([H])[H])c([H])c2c([O-])[n+](C([H])([H])C([H])([H])C([H])([H])C([H])([H])C([H])([H])[H])c(I)c(Br)c12
     RDKit          3D

 41 42  0  0  0  0  0  0  0  0999 V2000
    6.6377    0.7970    0.7443 C   0  0  0  0  0  0  0  0  0  0  0  0
    5.1740    0.5365    1.0119 C   0  0  0  0  0  0  0  0  0  0  0  0
    4.4371    0.1244   -0.2375 C   0  0  0  0  0  0  0  0  0  0  0  0
    2.9914   -0.1137    0.1212 C   0  0  0  0  0  0  0  0  0  0  0  0
    2.1927   -0.5329   -1.0979 C   0  0  0  0  0  0  0  0  0  0  0  0
    0.8038   -0.7651   -0.7704 N   0  0  0  0  0  0  0  0  0  0  0  0
    0.3622   -1.9823   -0.3862 C   0  0  0  0  0  0  0  0  0  0  0  0
    1.7843   -3.5295   -0.2843 I   0  0  0  0  0  0  0  0  0  0  0  0
   -0.9808   -2.1931   -0.0728 C   0  0  0  0  0  0  0  0  0  0  0  0
   -1.5437   -3.9482    0.4668 Br  0  0  0  0  0  0  0  0  0  0  0  0
   -1.8887   -1.1629   -0.1483 C   0  0  0  0  0  0  0  0  0  0  0  0
   -3.2211   -1.3253    0.1512 C   0  0  0  0  0  0  0  0  0  0  0  0
   -4.1328   -0.2871    0.0745 C   0  0  0  0  0  0  0  0  0  0  0  0
   -5.4809   -0.4340    0.3732 O   0  0  0  0  0  0  0  0  0  0  0  0
   -5.9207   -1.7206    0.7740 C   0  0  0  0  0  0  0  0  0  0  0  0
   -3.6510    0.9437   -0.3208 C   0  0  0  0  0  0  0  0  0  0  0  0
   -4.5542    1.9898   -0.4011 O   0  0  0  0  0  0  0  0  0  0  0  0
   -4.2133    3.2988   -0.7881 C   0  0  0  0  0  0  0  0  0  0  0  0
   -2.3160    1.1641   -0.6350 C   0  0  0  0  0  0  0  0  0  0  0  0
   -1.4345    0.0759   -0.5402 C   0  0  0  0  0  0  0  0  0  0  0  0
   -0.0927    0.2339   -0.8404 C   0  0  0  0  0  0  0  0  0  0  0  0
    0.2984    1.5273   -1.2334 O   0  0  0  0  0  0  0  0  0  0  0  0
    7.0737    1.3805    1.5780 H   0  0  0  0  0  0  0  0  0  0  0  0
    7.1710   -0.1719    0.6607 H   0  0  0  0  0  0  0  0  0  0  0  0
    6.7873    1.4112   -0.1767 H   0  0  0  0  0  0  0  0  0  0  0  0
    5.1099   -0.2717    1.7747 H   0  0  0  0  0  0  0  0  0  0  0  0
    4.7354    1.4798    1.3732 H   0  0  0  0  0  0  0  0  0  0  0  0
    4.8265   -0.8419   -0.6410 H   0  0  0  0  0  0  0  0  0  0  0  0
    4.5385    0.9301   -0.9920 H   0  0  0  0  0  0  0  0  0  0  0  0
    2.9652   -0.9723    0.8286 H   0  0  0  0  0  0  0  0  0  0  0  0
    2.5232    0.7466    0.6359 H   0  0  0  0  0  0  0  0  0  0  0  0
    2.6680   -1.4100   -1.5801 H   0  0  0  0  0  0  0  0  0  0  0  0
    2.2884    0.3084   -1.8301 H   0  0  0  0  0  0  0  0  0  0  0  0
   -3.5650   -2.2811    0.4523 H   0  0  0  0  0  0  0  0  0  0  0  0
   -5.2433   -2.0515    1.5911 H   0  0  0  0  0  0  0  0  0  0  0  0
   -5.6974   -2.4123   -0.0841 H   0  0  0  0  0  0  0  0  0  0  0  0
   -6.9851   -1.7413    1.0504 H   0  0  0  0  0  0  0  0  0  0  0  0
   -5.1278    3.9287   -0.6498 H   0  0  0  0  0  0  0  0  0  0  0  0
   -3.9505    3.3810   -1.8618 H   0  0  0  0  0  0  0  0  0  0  0  0
   -3.4249    3.7555   -0.1630 H   0  0  0  0  0  0  0  0  0  0  0  0
   -1.9443    2.1353   -0.9453 H   0  0  0  0  0  0  0  0  0  0  0  0
  1  2  1  0
  2  3  1  0
  3  4  1  0
  4  5  1  0
  5  6  1  0
  6  7  2  0
  7  8  1  0
  7  9  1  0
  9 10  1  0
  9 11  2  0
 11 12  1  0
 12 13  2  0
 13 14  1  0
 14 15  1  0
 13 16  1  0
 16 17  1  0
 17 18  1  0
 16 19  2  0
 19 20  1  0
 20 21  2  0
 21 22  1  0
 21  6  1  0
 20 11  1  0
  1 23  1  0
  1 24  1  0
  1 25  1  0
  2 26  1  0
  2 27  1  0
  3 28  1  0
  3 29  1  0
  4 30  1  0
  4 31  1  0
  5 32  1  0
  5 33  1  0
 12 34  1  0
 15 35  1  0
 15 36  1  0
 15 37  1  0
 18 38  1  0
 18 39  1  0
 18 40  1  0
 19 41  1  0
M  CHG  2   6   1  22  -1
M  END
$$$$
[H]OC(=O)C([H])([H])c1c([H])c2c(C([H])([H])C([H])([H])N([H])C(=O)c3c([H])c(F)c([H])c([H])c3N(C(=O)C([H])([H])C([H])([H])C(=O)N([H])C([H])([H])C(=O)OC([H])([H])[H])C([H])([H])[H])c([H])c([H])c([H])c2n1C([H])([H])C([H])([H])C1([H])C([H])([H])C([H])([H])C([H])([H])C([H])([H])C1([H])[H]
     RDKit          3D

 90 93  0  0  0  0  0  0  0  0999 V2000
   11.7546   -0.7129   -2.3197 C   0  0  0  0  0  0  0  0  0  0  0  0
   11.3793   -1.7904   -1.4769 O   0  0  0  0  0  0  0  0  0  0  0  0
   10.5459   -1.5893   -0.4102 C   0  0  0  0  0  0  0  0  0  0  0  0
   10.1321   -0.3942   -0.2399 O   0  0  0  0  0  0  0  0  0  0  0  0
   10.1787   -2.7193    0.4630 C   0  0  0  0  0  0  0  0  0  0  0  0
    9.2957   -2.3050    1.5148 N   0  0  0  0  0  0  0  0  0  0  0  0
    7.9830   -1.7726    1.2406 C   0  0  0  0  0  0  0  0  0  0  0  0
    7.5879   -1.6823    0.0482 O   0  0  0  0  0  0  0  0  0  0  0  0
    7.1749   -1.3632    2.3789 C   0  0  0  0  0  0  0  0  0  0  0  0
    5.8015   -0.8825    2.1456 C   0  0  0  0  0  0  0  0  0  0  0  0
    5.6043    0.3085    1.3306 C   0  0  0  0  0  0  0  0  0  0  0  0
    6.4317    0.7664    0.5071 O   0  0  0  0  0  0  0  0  0  0  0  0
    4.3561    1.0381    1.4616 N   0  0  0  0  0  0  0  0  0  0  0  0
    3.5106    0.6861    2.5496 C   0  0  0  0  0  0  0  0  0  0  0  0
    4.0330    2.0954    0.5776 C   0  0  0  0  0  0  0  0  0  0  0  0
    4.6285    3.3549    0.7873 C   0  0  0  0  0  0  0  0  0  0  0  0
    4.4247    4.4058   -0.0558 C   0  0  0  0  0  0  0  0  0  0  0  0
    3.6021    4.1939   -1.1419 C   0  0  0  0  0  0  0  0  0  0  0  0
    3.3969    5.2471   -1.9954 F   0  0  0  0  0  0  0  0  0  0  0  0
    2.9977    2.9987   -1.3950 C   0  0  0  0  0  0  0  0  0  0  0  0
    3.2173    1.9358   -0.5192 C   0  0  0  0  0  0  0  0  0  0  0  0
    2.5009    0.6708   -0.7731 C   0  0  0  0  0  0  0  0  0  0  0  0
    2.8449   -0.0279   -1.7478 O   0  0  0  0  0  0  0  0  0  0  0  0
    1.4539    0.2583    0.0584 N   0  0  0  0  0  0  0  0  0  0  0  0
    0.6872   -0.9400   -0.0309 C   0  0  0  0  0  0  0  0  0  0  0  0
   -0.1297   -1.1695   -1.2335 C   0  0  0  0  0  0  0  0  0  0  0  0
   -1.1940   -0.1708   -1.5038 C   0  0  0  0  0  0  0  0  0  0  0  0
   -1.1313    0.7469   -2.5023 C   0  0  0  0  0  0  0  0  0  0  0  0
   -2.1681    1.6261   -2.7135 C   0  0  0  0  0  0  0  0  0  0  0  0
   -3.3039    1.6000   -1.9147 C   0  0  0  0  0  0  0  0  0  0  0  0
   -3.3720    0.6719   -0.9002 C   0  0  0  0  0  0  0  0  0  0  0  0
   -4.3705    0.4693    0.0020 N   0  0  0  0  0  0  0  0  0  0  0  0
   -5.5422    1.2116    0.0936 C   0  0  0  0  0  0  0  0  0  0  0  0
   -6.7645    1.0165   -0.6070 C   0  0  0  0  0  0  0  0  0  0  0  0
   -7.6230   -0.2065   -0.4512 C   0  0  0  0  0  0  0  0  0  0  0  0
   -8.1920   -0.4517    0.8853 C   0  0  0  0  0  0  0  0  0  0  0  0
   -9.6971   -0.3618    0.9667 C   0  0  0  0  0  0  0  0  0  0  0  0
  -10.2905    0.5896   -0.0248 C   0  0  0  0  0  0  0  0  0  0  0  0
   -9.9122    0.2794   -1.4308 C   0  0  0  0  0  0  0  0  0  0  0  0
   -8.5921   -0.3709   -1.6008 C   0  0  0  0  0  0  0  0  0  0  0  0
   -3.9568   -0.5347    0.7742 C   0  0  0  0  0  0  0  0  0  0  0  0
   -4.6014   -1.2060    1.9480 C   0  0  0  0  0  0  0  0  0  0  0  0
   -5.0583   -2.5517    1.5384 C   0  0  0  0  0  0  0  0  0  0  0  0
   -5.7186   -3.3686    2.5003 O   0  0  0  0  0  0  0  0  0  0  0  0
   -4.9228   -3.0537    0.4149 O   0  0  0  0  0  0  0  0  0  0  0  0
   -2.7060   -0.9681    0.3656 C   0  0  0  0  0  0  0  0  0  0  0  0
   -2.3306   -0.2017   -0.6986 C   0  0  0  0  0  0  0  0  0  0  0  0
   11.0927   -0.7237   -3.2017 H   0  0  0  0  0  0  0  0  0  0  0  0
   11.6427    0.2673   -1.7832 H   0  0  0  0  0  0  0  0  0  0  0  0
   12.8366   -0.8435   -2.6120 H   0  0  0  0  0  0  0  0  0  0  0  0
    9.6316   -3.4633   -0.1848 H   0  0  0  0  0  0  0  0  0  0  0  0
   11.0710   -3.2551    0.8447 H   0  0  0  0  0  0  0  0  0  0  0  0
    9.5761   -2.3792    2.5151 H   0  0  0  0  0  0  0  0  0  0  0  0
    7.7630   -0.5837    2.9490 H   0  0  0  0  0  0  0  0  0  0  0  0
    7.1286   -2.2264    3.1052 H   0  0  0  0  0  0  0  0  0  0  0  0
    5.3233   -0.7619    3.1673 H   0  0  0  0  0  0  0  0  0  0  0  0
    5.1733   -1.6990    1.6747 H   0  0  0  0  0  0  0  0  0  0  0  0
    3.1862   -0.3613    2.4626 H   0  0  0  0  0  0  0  0  0  0  0  0
    2.6076    1.3553    2.6176 H   0  0  0  0  0  0  0  0  0  0  0  0
    4.0618    0.7423    3.5358 H   0  0  0  0  0  0  0  0  0  0  0  0
    5.2573    3.4463    1.6555 H   0  0  0  0  0  0  0  0  0  0  0  0
    4.8824    5.3920    0.0938 H   0  0  0  0  0  0  0  0  0  0  0  0
    2.3643    2.8626   -2.2445 H   0  0  0  0  0  0  0  0  0  0  0  0
    1.1626    0.9319    0.8127 H   0  0  0  0  0  0  0  0  0  0  0  0
    1.4061   -1.8287    0.0716 H   0  0  0  0  0  0  0  0  0  0  0  0
    0.0736   -1.0338    0.8980 H   0  0  0  0  0  0  0  0  0  0  0  0
   -0.5527   -2.1866   -1.2401 H   0  0  0  0  0  0  0  0  0  0  0  0
    0.5464   -1.1271   -2.1338 H   0  0  0  0  0  0  0  0  0  0  0  0
   -0.2674    0.7876   -3.1363 H   0  0  0  0  0  0  0  0  0  0  0  0
   -2.1580    2.3771   -3.5097 H   0  0  0  0  0  0  0  0  0  0  0  0
   -4.1109    2.2679   -2.0645 H   0  0  0  0  0  0  0  0  0  0  0  0
   -5.2485    2.3052   -0.0769 H   0  0  0  0  0  0  0  0  0  0  0  0
   -5.8021    1.2707    1.2069 H   0  0  0  0  0  0  0  0  0  0  0  0
   -7.4661    1.8370   -0.1984 H   0  0  0  0  0  0  0  0  0  0  0  0
   -6.7791    1.3714   -1.6950 H   0  0  0  0  0  0  0  0  0  0  0  0
   -6.8828   -1.0640   -0.6479 H   0  0  0  0  0  0  0  0  0  0  0  0
   -7.9732   -1.5250    1.1713 H   0  0  0  0  0  0  0  0  0  0  0  0
   -7.6896    0.1542    1.6380 H   0  0  0  0  0  0  0  0  0  0  0  0
  -10.1773   -1.3487    0.7847 H   0  0  0  0  0  0  0  0  0  0  0  0
  -10.0315   -0.0461    1.9742 H   0  0  0  0  0  0  0  0  0  0  0  0
  -10.0629    1.6508    0.2865 H   0  0  0  0  0  0  0  0  0  0  0  0
  -11.3994    0.5018    0.0661 H   0  0  0  0  0  0  0  0  0  0  0  0
  -10.6905   -0.4403   -1.8328 H   0  0  0  0  0  0  0  0  0  0  0  0
  -10.0707    1.1934   -2.0435 H   0  0  0  0  0  0  0  0  0  0  0  0
   -8.0899    0.1047   -2.4832 H   0  0  0  0  0  0  0  0  0  0  0  0
   -8.6904   -1.4539   -1.8930 H   0  0  0  0  0  0  0  0  0  0  0  0
   -5.4157   -0.5985    2.3889 H   0  0  0  0  0  0  0  0  0  0  0  0
   -3.8240   -1.3460    2.7485 H   0  0  0  0  0  0  0  0  0  0  0  0
   -5.2246   -4.1341    2.9486 H   0  0  0  0  0  0  0  0  0  0  0  0
   -2.1260   -1.7653    0.7908 H   0  0  0  0  0  0  0  0  0  0  0  0
  1  2  1  0
  2  3  1  0
  3  4  2  0
  3  5  1  0
  5  6  1  0
  6  7  1  0
  7  8  2  0
  7  9  1  0
  9 10  1  0
 10 11  1  0
 11 12  2  0
 11 13  1  0
 13 14  1  0
 13 15  1  0
 15 16  2  0
 16 17  1  0
 17 18  2  0
 18 19  1  0
 18 20  1  0
 20 21  2  0
 21 22  1  0
 22 23  2  0
 22 24  1  0
 24 25  1  0
 25 26  1  0
 26 27  1  0
 27 28  2  0
 28 29  1  0
 29 30  2  0
 30 31  1  0
 31 32  1  0
 32 33  1  0
 33 34  1  0
 34 35  1  0
 35 36  1  0
 36 37  1  0
 37 38  1  0
 38 39  1  0
 39 40  1  0
 32 41  1  0
 41 42  1  0
 42 43  1  0
 43 44  1  0
 43 45  2  0
 41 46  2  0
 46 47  1  0
 21 15  1  0
 47 27  1  0
 47 31  2  0
 40 35  1  0
  1 48  1  0
  1 49  1  0
  1 50  1  0
  5 51  1  0
  5 52  1  0
  6 53  1  0
  9 54  1  0
  9 55  1  0
 10 56  1  0
 10 57  1  0
 14 58  1  0
 14 59  1  0
 14 60  1  0
 16 61  1  0
 17 62  1  0
 20 63  1  0
 24 64  1  0
 25 65  1  0
 25 66  1  0
 26 67  1  0
 26 68  1  0
 28 69  1  0
 29 70  1  0
 30 71  1  0
 33 72  1  0
 33 73  1  0
 34 74  1  0
 34 75  1  0
 35 76  1  0
 36 77  1  0
 36 78  1  0
 37 79  1  0
 37 80  1  0
 38 81  1  0
 38 82  1  0
 39 83  1  0
 39 84  1  0
 40 85  1  0
 40 86  1  0
 42 87  1  0
 42 88  1  0
 44 89  1  0
 46 90  1  0
M  END
$$$$
[H]Oc1c([H])c([H])c([H])c([H])c1C(=O)C([H])([H])N([H])C([H])([H])N=C(C(=O)OC([H])([H])c1c([H])c([H])c([H])c([H])c1[H])N([H])S(=O)(=O)c1c([H])c([H])c(Cl)c(Cl)c1[H]
     RDKit          3D

 57 59  0  0  0  0  0  0  0  0999 V2000
    7.3434   -1.0660   -1.2810 O   0  0  0  0  0  0  0  0  0  0  0  0
    7.0288    0.1735   -0.8438 C   0  0  0  0  0  0  0  0  0  0  0  0
    8.0977    1.0610   -0.6244 C   0  0  0  0  0  0  0  0  0  0  0  0
    7.8892    2.3354   -0.1831 C   0  0  0  0  0  0  0  0  0  0  0  0
    6.5941    2.7508    0.0497 C   0  0  0  0  0  0  0  0  0  0  0  0
    5.5644    1.8866   -0.1648 C   0  0  0  0  0  0  0  0  0  0  0  0
    5.7323    0.5658   -0.6187 C   0  0  0  0  0  0  0  0  0  0  0  0
    4.5660   -0.2606   -0.8096 C   0  0  0  0  0  0  0  0  0  0  0  0
    4.6503   -1.4378   -1.2087 O   0  0  0  0  0  0  0  0  0  0  0  0
    3.1886    0.2449   -0.5403 C   0  0  0  0  0  0  0  0  0  0  0  0
    2.1803   -0.7363   -0.7944 N   0  0  0  0  0  0  0  0  0  0  0  0
    0.8937   -0.1267   -0.4982 C   0  0  0  0  0  0  0  0  0  0  0  0
   -0.2098   -1.0281   -0.7196 N   0  0  0  0  0  0  0  0  0  0  0  0
   -1.2872   -0.5849   -1.2478 C   0  0  0  0  0  0  0  0  0  0  0  0
   -1.3882    0.7770   -1.6092 N   0  0  0  0  0  0  0  0  0  0  0  0
   -2.3551    1.9155   -0.7561 S   0  0  0  0  0  0  0  0  0  0  0  0
   -2.3094    3.2639   -1.4139 O   0  0  0  0  0  0  0  0  0  0  0  0
   -3.8005    1.5208   -0.6889 O   0  0  0  0  0  0  0  0  0  0  0  0
   -1.7600    2.0240    0.8755 C   0  0  0  0  0  0  0  0  0  0  0  0
   -0.7963    2.9496    1.1898 C   0  0  0  0  0  0  0  0  0  0  0  0
   -0.3284    3.0192    2.5092 C   0  0  0  0  0  0  0  0  0  0  0  0
   -0.8370    2.1635    3.4712 C   0  0  0  0  0  0  0  0  0  0  0  0
   -0.2454    2.2589    5.1153 Cl  0  0  0  0  0  0  0  0  0  0  0  0
   -1.7932    1.2590    3.1171 C   0  0  0  0  0  0  0  0  0  0  0  0
   -2.4295    0.1812    4.3411 Cl  0  0  0  0  0  0  0  0  0  0  0  0
   -2.2692    1.1721    1.8242 C   0  0  0  0  0  0  0  0  0  0  0  0
   -2.4259   -1.4617   -1.4887 C   0  0  0  0  0  0  0  0  0  0  0  0
   -3.4833   -1.0204   -2.0096 O   0  0  0  0  0  0  0  0  0  0  0  0
   -2.3941   -2.8077   -1.1574 O   0  0  0  0  0  0  0  0  0  0  0  0
   -3.5375   -3.5969   -1.4176 C   0  0  0  0  0  0  0  0  0  0  0  0
   -4.6646   -3.0512   -0.6555 C   0  0  0  0  0  0  0  0  0  0  0  0
   -5.9428   -3.1612   -1.1365 C   0  0  0  0  0  0  0  0  0  0  0  0
   -7.0216   -2.6584   -0.4256 C   0  0  0  0  0  0  0  0  0  0  0  0
   -6.7648   -2.0373    0.7948 C   0  0  0  0  0  0  0  0  0  0  0  0
   -5.4996   -1.9142    1.2977 C   0  0  0  0  0  0  0  0  0  0  0  0
   -4.4575   -2.4320    0.5505 C   0  0  0  0  0  0  0  0  0  0  0  0
    6.8795   -1.8628   -1.5132 H   0  0  0  0  0  0  0  0  0  0  0  0
    9.0928    0.7106   -0.8136 H   0  0  0  0  0  0  0  0  0  0  0  0
    8.7313    3.0345   -0.0101 H   0  0  0  0  0  0  0  0  0  0  0  0
    6.4624    3.7699    0.4005 H   0  0  0  0  0  0  0  0  0  0  0  0
    4.5572    2.2242    0.0208 H   0  0  0  0  0  0  0  0  0  0  0  0
    3.1400    0.7015    0.4680 H   0  0  0  0  0  0  0  0  0  0  0  0
    3.0112    1.0920   -1.2666 H   0  0  0  0  0  0  0  0  0  0  0  0
    2.3002   -1.5264   -0.1088 H   0  0  0  0  0  0  0  0  0  0  0  0
    0.7202    0.7905   -1.0719 H   0  0  0  0  0  0  0  0  0  0  0  0
    0.8997    0.1409    0.5958 H   0  0  0  0  0  0  0  0  0  0  0  0
   -0.8516    1.1182   -2.4349 H   0  0  0  0  0  0  0  0  0  0  0  0
   -0.3997    3.6197    0.4293 H   0  0  0  0  0  0  0  0  0  0  0  0
    0.4206    3.7238    2.7998 H   0  0  0  0  0  0  0  0  0  0  0  0
   -3.0364    0.4240    1.6101 H   0  0  0  0  0  0  0  0  0  0  0  0
   -3.3173   -4.6686   -1.1252 H   0  0  0  0  0  0  0  0  0  0  0  0
   -3.7653   -3.6495   -2.5032 H   0  0  0  0  0  0  0  0  0  0  0  0
   -6.1861   -3.6376   -2.0808 H   0  0  0  0  0  0  0  0  0  0  0  0
   -8.0202   -2.7349   -0.7843 H   0  0  0  0  0  0  0  0  0  0  0  0
   -7.5867   -1.6413    1.3623 H   0  0  0  0  0  0  0  0  0  0  0  0
   -5.3344   -1.4322    2.2365 H   0  0  0  0  0  0  0  0  0  0  0  0
   -3.4452   -2.3374    0.9465 H   0  0  0  0  0  0  0  0  0  0  0  0
  1  2  1  0
  2  3  2  0
  3  4  1  0
  4  5  2  0
  5  6  1  0
  6  7  2  0
  7  8  1  0
  8  9  2  0
  8 10  1  0
 10 11  1  0
 11 12  1  0
 12 13  1  0
 13 14  2  3
 14 15  1  0
 15 16  1  0
 16 17  2  0
 16 18  2  0
 16 19  1  0
 19 20  2  0
 20 21  1  0
 21 22  2  0
 22 23  1  0
 22 24  1  0
 24 25  1  0
 24 26  2  0
 14 27  1  0
 27 28  2  0
 27 29  1  0
 29 30  1  0
 30 31  1  0
 31 32  2  0
 32 33  1  0
 33 34  2  0
 34 35  1  0
 35 36  2  0
  7  2  1  0
 26 19  1  0
 36 31  1  0
  1 37  1  0
  3 38  1  0
  4 39  1  0
  5 40  1  0
  6 41  1  0
 10 42  1  0
 10 43  1  0
 11 44  1  0
 12 45  1  0
 12 46  1  0
 15 47  1  0
 20 48  1  0
 21 49  1  0
 26 50  1  0
 30 51  1  0
 30 52  1  0
 32 53  1  0
 33 54  1  0
 34 55  1  0
 35 56  1  0
 36 57  1  0
M  END
$$$$
