[H]c1c(C(C([H])([H])[H])(C([H])([H])[H])C([H])([H])[H])nc(C([H])([H])C([H])([H])C([H])([H])[H])c(C([H])([H])N([H])C(=O)C([H])(c2c([H])c([H])c(N([H])S(=O)(=O)C([H])([H])[H])c(F)c2[H])C([H])([H])[H])c1[H]
     RDKit          3D

 63 64  0  0  0  0  0  0  0  0999 V2000
   -2.7416    4.2498    1.1464 C   0  0  0  0  0  0  0  0  0  0  0  0
   -3.0101    2.9228    0.4673 C   0  0  0  0  0  0  0  0  0  0  0  0
   -3.1486    1.8191    1.4741 C   0  0  0  0  0  0  0  0  0  0  0  0
   -3.3930    0.4919    0.8702 C   0  0  0  0  0  0  0  0  0  0  0  0
   -4.6288    0.0236    0.6508 N   0  0  0  0  0  0  0  0  0  0  0  0
   -4.8923   -1.1665    0.0647 C   0  0  0  0  0  0  0  0  0  0  0  0
   -3.8343   -1.9395   -0.3289 C   0  0  0  0  0  0  0  0  0  0  0  0
   -2.5198   -1.4962   -0.1230 C   0  0  0  0  0  0  0  0  0  0  0  0
   -2.2898   -0.2882    0.4738 C   0  0  0  0  0  0  0  0  0  0  0  0
   -0.9232    0.2138    0.7273 C   0  0  0  0  0  0  0  0  0  0  0  0
    0.0815   -0.7110    0.3044 N   0  0  0  0  0  0  0  0  0  0  0  0
    1.4498   -0.2806    0.4223 C   0  0  0  0  0  0  0  0  0  0  0  0
    1.6988    0.8418    0.8619 O   0  0  0  0  0  0  0  0  0  0  0  0
    2.5652   -1.1844    0.0196 C   0  0  0  0  0  0  0  0  0  0  0  0
    2.3849   -1.7507   -1.3491 C   0  0  0  0  0  0  0  0  0  0  0  0
    3.8366   -0.4467    0.2063 C   0  0  0  0  0  0  0  0  0  0  0  0
    4.5709   -0.0554   -0.8916 C   0  0  0  0  0  0  0  0  0  0  0  0
    5.7704    0.6371   -0.7468 C   0  0  0  0  0  0  0  0  0  0  0  0
    6.2652    0.9549    0.5025 C   0  0  0  0  0  0  0  0  0  0  0  0
    7.4780    1.6751    0.7063 N   0  0  0  0  0  0  0  0  0  0  0  0
    8.9641    0.8409    0.4809 S   0  0  0  0  0  0  0  0  0  0  0  0
    9.0745    0.2784   -1.1902 C   0  0  0  0  0  0  0  0  0  0  0  0
    9.0011   -0.3625    1.3849 O   0  0  0  0  0  0  0  0  0  0  0  0
   10.1070    1.7610    0.8165 O   0  0  0  0  0  0  0  0  0  0  0  0
    5.5300    0.5643    1.6098 C   0  0  0  0  0  0  0  0  0  0  0  0
    6.0198    0.8803    2.8287 F   0  0  0  0  0  0  0  0  0  0  0  0
    4.3379   -0.1242    1.4462 C   0  0  0  0  0  0  0  0  0  0  0  0
   -6.2911   -1.6027   -0.1462 C   0  0  0  0  0  0  0  0  0  0  0  0
   -6.3493   -2.3697   -1.4677 C   0  0  0  0  0  0  0  0  0  0  0  0
   -6.7803   -2.4204    1.0008 C   0  0  0  0  0  0  0  0  0  0  0  0
   -7.1037   -0.3510   -0.3835 C   0  0  0  0  0  0  0  0  0  0  0  0
   -2.3359    4.0479    2.1677 H   0  0  0  0  0  0  0  0  0  0  0  0
   -2.0912    4.9022    0.5468 H   0  0  0  0  0  0  0  0  0  0  0  0
   -3.7037    4.7753    1.2595 H   0  0  0  0  0  0  0  0  0  0  0  0
   -2.2737    2.7599   -0.3288 H   0  0  0  0  0  0  0  0  0  0  0  0
   -3.9953    3.0495   -0.0902 H   0  0  0  0  0  0  0  0  0  0  0  0
   -4.0172    2.0510    2.1433 H   0  0  0  0  0  0  0  0  0  0  0  0
   -2.1977    1.8169    2.0955 H   0  0  0  0  0  0  0  0  0  0  0  0
   -4.0090   -2.8990   -0.7995 H   0  0  0  0  0  0  0  0  0  0  0  0
   -1.7158   -2.1553   -0.4610 H   0  0  0  0  0  0  0  0  0  0  0  0
   -0.7289    1.2122    0.2802 H   0  0  0  0  0  0  0  0  0  0  0  0
   -0.7916    0.3940    1.8536 H   0  0  0  0  0  0  0  0  0  0  0  0
   -0.0565   -1.6615   -0.0671 H   0  0  0  0  0  0  0  0  0  0  0  0
    2.5246   -2.0052    0.8011 H   0  0  0  0  0  0  0  0  0  0  0  0
    3.2954   -2.0804   -1.8467 H   0  0  0  0  0  0  0  0  0  0  0  0
    1.8792   -0.9586   -1.9783 H   0  0  0  0  0  0  0  0  0  0  0  0
    1.6856   -2.6277   -1.3301 H   0  0  0  0  0  0  0  0  0  0  0  0
    4.2210   -0.2846   -1.8952 H   0  0  0  0  0  0  0  0  0  0  0  0
    6.3230    0.9307   -1.6277 H   0  0  0  0  0  0  0  0  0  0  0  0
    7.4006    2.6744    0.9803 H   0  0  0  0  0  0  0  0  0  0  0  0
    8.2521   -0.4250   -1.4027 H   0  0  0  0  0  0  0  0  0  0  0  0
    8.9713    1.1591   -1.8594 H   0  0  0  0  0  0  0  0  0  0  0  0
   10.0703   -0.2181   -1.3021 H   0  0  0  0  0  0  0  0  0  0  0  0
    3.7916   -0.4141    2.3313 H   0  0  0  0  0  0  0  0  0  0  0  0
   -5.5861   -1.9114   -2.1294 H   0  0  0  0  0  0  0  0  0  0  0  0
   -6.2099   -3.4308   -1.2603 H   0  0  0  0  0  0  0  0  0  0  0  0
   -7.3727   -2.2348   -1.8818 H   0  0  0  0  0  0  0  0  0  0  0  0
   -6.1508   -2.3590    1.9117 H   0  0  0  0  0  0  0  0  0  0  0  0
   -6.7959   -3.4900    0.7127 H   0  0  0  0  0  0  0  0  0  0  0  0
   -7.8044   -2.1422    1.3333 H   0  0  0  0  0  0  0  0  0  0  0  0
   -6.8104    0.0132   -1.3932 H   0  0  0  0  0  0  0  0  0  0  0  0
   -6.8041    0.4344    0.3364 H   0  0  0  0  0  0  0  0  0  0  0  0
   -8.1938   -0.5280   -0.3836 H   0  0  0  0  0  0  0  0  0  0  0  0
  1  2  1  0
  2  3  1  0
  3  4  1  0
  4  5  2  0
  5  6  1  0
  6  7  2  0
  7  8  1  0
  8  9  2  0
  9 10  1  0
 10 11  1  0
 11 12  1  0
 12 13  2  0
 12 14  1  0
 14 15  1  0
 14 16  1  0
 16 17  2  0
 17 18  1  0
 18 19  2  0
 19 20  1  0
 20 21  1  0
 21 22  1  0
 21 23  2  0
 21 24  2  0
 19 25  1  0
 25 26  1  0
 25 27  2  0
  6 28  1  0
 28 29  1  0
 28 30  1  0
 28 31  1  0
  9  4  1  0
 27 16  1  0
  1 32  1  0
  1 33  1  0
  1 34  1  0
  2 35  1  0
  2 36  1  0
  3 37  1  0
  3 38  1  0
  7 39  1  0
  8 40  1  0
 10 41  1  0
 10 42  1  0
 11 43  1  0
 14 44  1  0
 15 45  1  0
 15 46  1  0
 15 47  1  0
 17 48  1  0
 18 49  1  0
 20 50  1  0
 22 51  1  0
 22 52  1  0
 22 53  1  0
 27 54  1  0
 29 55  1  0
 29 56  1  0
 29 57  1  0
 30 58  1  0
 30 59  1  0
 30 60  1  0
 31 61  1  0
 31 62  1  0
 31 63  1  0
M  END
$$$$
[H]c1nc(N2C([H])([H])C([H])([H])c3nc(N4C([H])([H])C([H])([H])C([H])([H])C([H])([H])C4([H])[H])nc(N([H])c4c([H])c([H])c(C(F)(F)F)c([H])c4[H])c3C([H])([H])C2([H])[H])c(C(F)(F)F)c([H])c1[H]
     RDKit          3D

 64 68  0  0  0  0  0  0  0  0999 V2000
   -2.7750    7.8304   -0.8253 F   0  0  0  0  0  0  0  0  0  0  0  0
   -1.7112    7.4574   -0.0650 C   0  0  0  0  0  0  0  0  0  0  0  0
   -0.6282    8.2358   -0.4215 F   0  0  0  0  0  0  0  0  0  0  0  0
   -1.9655    7.7581    1.2630 F   0  0  0  0  0  0  0  0  0  0  0  0
   -1.3582    6.0032   -0.2170 C   0  0  0  0  0  0  0  0  0  0  0  0
   -0.0192    5.6894   -0.4062 C   0  0  0  0  0  0  0  0  0  0  0  0
    0.3328    4.3840   -0.5140 C   0  0  0  0  0  0  0  0  0  0  0  0
   -0.5453    3.3074   -0.4585 C   0  0  0  0  0  0  0  0  0  0  0  0
   -0.0583    2.0284   -0.5589 N   0  0  0  0  0  0  0  0  0  0  0  0
   -0.5808    0.7295   -0.5215 C   0  0  0  0  0  0  0  0  0  0  0  0
   -1.8067    0.3509   -0.0922 N   0  0  0  0  0  0  0  0  0  0  0  0
   -2.1720   -0.9445    0.1063 C   0  0  0  0  0  0  0  0  0  0  0  0
   -1.2872   -1.9281   -0.1253 N   0  0  0  0  0  0  0  0  0  0  0  0
   -0.0599   -1.6468   -0.5518 C   0  0  0  0  0  0  0  0  0  0  0  0
    0.8704   -2.7930   -0.7199 C   0  0  0  0  0  0  0  0  0  0  0  0
    2.0973   -2.4973    0.1775 C   0  0  0  0  0  0  0  0  0  0  0  0
    2.9779   -1.4967   -0.2801 N   0  0  0  0  0  0  0  0  0  0  0  0
    2.7910   -0.1061   -0.6861 C   0  0  0  0  0  0  0  0  0  0  0  0
    1.5157    0.1143   -1.4036 C   0  0  0  0  0  0  0  0  0  0  0  0
    0.2837   -0.3241   -0.7517 C   0  0  0  0  0  0  0  0  0  0  0  0
    4.3323   -1.8363   -0.4143 C   0  0  0  0  0  0  0  0  0  0  0  0
    4.7566   -1.9841   -1.7376 N   0  0  0  0  0  0  0  0  0  0  0  0
    6.0585   -2.3039   -1.9762 C   0  0  0  0  0  0  0  0  0  0  0  0
    6.9714   -2.4854   -0.9691 C   0  0  0  0  0  0  0  0  0  0  0  0
    6.5150   -2.3317    0.3243 C   0  0  0  0  0  0  0  0  0  0  0  0
    5.1858   -2.0014    0.6101 C   0  0  0  0  0  0  0  0  0  0  0  0
    4.8038   -1.8212    1.9974 C   0  0  0  0  0  0  0  0  0  0  0  0
    4.3192   -0.5697    2.3272 F   0  0  0  0  0  0  0  0  0  0  0  0
    6.0120   -1.8550    2.7788 F   0  0  0  0  0  0  0  0  0  0  0  0
    4.0831   -2.8370    2.5703 F   0  0  0  0  0  0  0  0  0  0  0  0
   -3.4994   -1.2911    0.4771 N   0  0  0  0  0  0  0  0  0  0  0  0
   -3.7565   -2.0006    1.6917 C   0  0  0  0  0  0  0  0  0  0  0  0
   -4.8955   -2.9532    1.6323 C   0  0  0  0  0  0  0  0  0  0  0  0
   -6.0545   -2.4402    0.8400 C   0  0  0  0  0  0  0  0  0  0  0  0
   -5.5705   -2.0552   -0.5408 C   0  0  0  0  0  0  0  0  0  0  0  0
   -4.5578   -0.9296   -0.4603 C   0  0  0  0  0  0  0  0  0  0  0  0
   -1.8570    3.6605   -0.2704 C   0  0  0  0  0  0  0  0  0  0  0  0
   -2.2830    4.9941   -0.1482 C   0  0  0  0  0  0  0  0  0  0  0  0
    0.7165    6.4917   -0.4590 H   0  0  0  0  0  0  0  0  0  0  0  0
    1.4092    4.1695   -0.6432 H   0  0  0  0  0  0  0  0  0  0  0  0
    1.0530    2.0161   -0.6236 H   0  0  0  0  0  0  0  0  0  0  0  0
    1.1607   -2.9230   -1.7515 H   0  0  0  0  0  0  0  0  0  0  0  0
    0.4223   -3.6921   -0.2248 H   0  0  0  0  0  0  0  0  0  0  0  0
    2.5983   -3.4929    0.2396 H   0  0  0  0  0  0  0  0  0  0  0  0
    1.6319   -2.2921    1.1667 H   0  0  0  0  0  0  0  0  0  0  0  0
    2.9535    0.6280    0.1087 H   0  0  0  0  0  0  0  0  0  0  0  0
    3.6149    0.1426   -1.4339 H   0  0  0  0  0  0  0  0  0  0  0  0
    1.5961   -0.6178   -2.3325 H   0  0  0  0  0  0  0  0  0  0  0  0
    1.4731    1.0599   -1.9468 H   0  0  0  0  0  0  0  0  0  0  0  0
    6.3734   -2.4084   -3.0150 H   0  0  0  0  0  0  0  0  0  0  0  0
    8.0143   -2.7299   -1.1876 H   0  0  0  0  0  0  0  0  0  0  0  0
    7.2336   -2.4495    1.1251 H   0  0  0  0  0  0  0  0  0  0  0  0
   -2.8629   -2.5206    2.0543 H   0  0  0  0  0  0  0  0  0  0  0  0
   -3.9773   -1.2117    2.4771 H   0  0  0  0  0  0  0  0  0  0  0  0
   -4.6002   -3.9314    1.1388 H   0  0  0  0  0  0  0  0  0  0  0  0
   -5.2164   -3.2025    2.6890 H   0  0  0  0  0  0  0  0  0  0  0  0
   -6.4796   -1.5431    1.3531 H   0  0  0  0  0  0  0  0  0  0  0  0
   -6.8351   -3.2053    0.7108 H   0  0  0  0  0  0  0  0  0  0  0  0
   -6.4216   -1.7851   -1.1593 H   0  0  0  0  0  0  0  0  0  0  0  0
   -5.0772   -2.9826   -0.9620 H   0  0  0  0  0  0  0  0  0  0  0  0
   -4.1579   -0.7623   -1.4648 H   0  0  0  0  0  0  0  0  0  0  0  0
   -5.1200   -0.0047   -0.1560 H   0  0  0  0  0  0  0  0  0  0  0  0
   -2.6339    2.9151   -0.2015 H   0  0  0  0  0  0  0  0  0  0  0  0
   -3.3333    5.2209   -0.0182 H   0  0  0  0  0  0  0  0  0  0  0  0
  1  2  1  0
  2  3  1  0
  2  4  1  0
  2  5  1  0
  5  6  2  0
  6  7  1  0
  7  8  2  0
  8  9  1  0
  9 10  1  0
 10 11  2  0
 11 12  1  0
 12 13  2  0
 13 14  1  0
 14 15  1  0
 15 16  1  0
 16 17  1  0
 17 18  1  0
 18 19  1  0
 19 20  1  0
 17 21  1  0
 21 22  2  0
 22 23  1  0
 23 24  2  0
 24 25  1  0
 25 26  2  0
 26 27  1  0
 27 28  1  0
 27 29  1  0
 27 30  1  0
 12 31  1  0
 31 32  1  0
 32 33  1  0
 33 34  1  0
 34 35  1  0
 35 36  1  0
  8 37  1  0
 37 38  2  0
 38  5  1  0
 20 10  1  0
 26 21  1  0
 36 31  1  0
 20 14  2  0
  6 39  1  0
  7 40  1  0
  9 41  1  0
 15 42  1  0
 15 43  1  0
 16 44  1  0
 16 45  1  0
 18 46  1  0
 18 47  1  0
 19 48  1  0
 19 49  1  0
 23 50  1  0
 24 51  1  0
 25 52  1  0
 32 53  1  0
 32 54  1  0
 33 55  1  0
 33 56  1  0
 34 57  1  0
 34 58  1  0
 35 59  1  0
 35 60  1  0
 36 61  1  0
 36 62  1  0
 37 63  1  0
 38 64  1  0
M  END
$$$$
[H]c1nc([H])c2c([H])c([H])c([H])c(N([H])C(=O)N([H])C([H])([H])c3c([H])c([H])c([H])c([H])c3C(F)(F)F)c2c1[H]
     RDKit          3D

 39 41  0  0  0  0  0  0  0  0999 V2000
    4.1289    0.4741   -2.7704 F   0  0  0  0  0  0  0  0  0  0  0  0
    4.7038    1.1506   -1.7260 C   0  0  0  0  0  0  0  0  0  0  0  0
    6.0270    1.3673   -2.0544 F   0  0  0  0  0  0  0  0  0  0  0  0
    4.1405    2.4065   -1.6064 F   0  0  0  0  0  0  0  0  0  0  0  0
    4.6206    0.3576   -0.4750 C   0  0  0  0  0  0  0  0  0  0  0  0
    5.8287   -0.0063    0.1364 C   0  0  0  0  0  0  0  0  0  0  0  0
    5.9027   -0.7363    1.2895 C   0  0  0  0  0  0  0  0  0  0  0  0
    4.7275   -1.1416    1.8917 C   0  0  0  0  0  0  0  0  0  0  0  0
    3.5459   -0.7882    1.2978 C   0  0  0  0  0  0  0  0  0  0  0  0
    3.4438   -0.0468    0.1259 C   0  0  0  0  0  0  0  0  0  0  0  0
    2.1833    0.3225   -0.4927 C   0  0  0  0  0  0  0  0  0  0  0  0
    0.9878   -0.0935    0.1452 N   0  0  0  0  0  0  0  0  0  0  0  0
   -0.2595    0.2856   -0.4895 C   0  0  0  0  0  0  0  0  0  0  0  0
   -0.1570    0.9365   -1.5279 O   0  0  0  0  0  0  0  0  0  0  0  0
   -1.5001   -0.0806    0.0678 N   0  0  0  0  0  0  0  0  0  0  0  0
   -2.7815    0.2063   -0.4202 C   0  0  0  0  0  0  0  0  0  0  0  0
   -2.9815    0.9257   -1.5745 C   0  0  0  0  0  0  0  0  0  0  0  0
   -4.2892    1.1782   -2.0079 C   0  0  0  0  0  0  0  0  0  0  0  0
   -5.3647    0.7144   -1.2911 C   0  0  0  0  0  0  0  0  0  0  0  0
   -5.1531   -0.0059   -0.1351 C   0  0  0  0  0  0  0  0  0  0  0  0
   -6.2199   -0.4773    0.5941 C   0  0  0  0  0  0  0  0  0  0  0  0
   -6.0734   -1.1949    1.7442 N   0  0  0  0  0  0  0  0  0  0  0  0
   -4.8396   -1.4645    2.2033 C   0  0  0  0  0  0  0  0  0  0  0  0
   -3.7475   -0.9983    1.4831 C   0  0  0  0  0  0  0  0  0  0  0  0
   -3.8694   -0.2749    0.3241 C   0  0  0  0  0  0  0  0  0  0  0  0
    6.7674    0.3056   -0.3260 H   0  0  0  0  0  0  0  0  0  0  0  0
    6.8742   -0.9758    1.6973 H   0  0  0  0  0  0  0  0  0  0  0  0
    4.8080   -1.7137    2.7961 H   0  0  0  0  0  0  0  0  0  0  0  0
    2.6400   -1.1097    1.7761 H   0  0  0  0  0  0  0  0  0  0  0  0
    2.1219    1.4502   -0.5600 H   0  0  0  0  0  0  0  0  0  0  0  0
    2.1215   -0.0938   -1.5436 H   0  0  0  0  0  0  0  0  0  0  0  0
    0.8695   -0.6416    1.0190 H   0  0  0  0  0  0  0  0  0  0  0  0
   -1.3906   -0.6406    0.9658 H   0  0  0  0  0  0  0  0  0  0  0  0
   -2.1734    1.3182   -2.1834 H   0  0  0  0  0  0  0  0  0  0  0  0
   -4.4707    1.7464   -2.9201 H   0  0  0  0  0  0  0  0  0  0  0  0
   -6.3932    0.8830   -1.5841 H   0  0  0  0  0  0  0  0  0  0  0  0
   -7.2217   -0.2736    0.2456 H   0  0  0  0  0  0  0  0  0  0  0  0
   -4.7586   -2.0331    3.1139 H   0  0  0  0  0  0  0  0  0  0  0  0
   -2.7982   -1.2380    1.8877 H   0  0  0  0  0  0  0  0  0  0  0  0
  1  2  1  0
  2  3  1  0
  2  4  1  0
  2  5  1  0
  5  6  2  0
  6  7  1  0
  7  8  2  0
  8  9  1  0
  9 10  2  0
 10 11  1  0
 11 12  1  0
 12 13  1  0
 13 14  2  0
 13 15  1  0
 15 16  1  0
 16 17  2  0
 17 18  1  0
 18 19  2  0
 19 20  1  0
 20 21  2  0
 21 22  1  0
 22 23  2  0
 23 24  1  0
 24 25  2  0
 10  5  1  0
 25 16  1  0
 25 20  1  0
  6 26  1  0
  7 27  1  0
  8 28  1  0
  9 29  1  0
 11 30  1  0
 11 31  1  0
 12 32  1  0
 15 33  1  0
 17 34  1  0
 18 35  1  0
 19 36  1  0
 21 37  1  0
 23 38  1  0
 24 39  1  0
M  END
$$$$
[H]c1c(C(F)(F)F)nc(SC2([H])C([H])([H])C([H])([H])C2([H])[H])c(C([H])([H])N([H])C(=O)C([H])(c2c([H])c([H])c(N([H])S(=O)(=O)C([H])([H])[H])c(F)c2[H])C([H])([H])[H])c1[H]
     RDKit          3D

 56 58  0  0  0  0  0  0  0  0999 V2000
    0.8556    0.8618   -1.5487 C   0  0  0  0  0  0  0  0  0  0  0  0
    1.5693    1.4848   -0.3146 C   0  0  0  0  0  0  0  0  0  0  0  0
    0.5589    1.1308    0.7795 C   0  0  0  0  0  0  0  0  0  0  0  0
    0.8778    0.4632    1.7215 O   0  0  0  0  0  0  0  0  0  0  0  0
   -0.7090    1.6250    0.5361 N   0  0  0  0  0  0  0  0  0  0  0  0
   -2.0292    1.4366    1.1668 C   0  0  0  0  0  0  0  0  0  0  0  0
   -2.4949    0.1228    0.5406 C   0  0  0  0  0  0  0  0  0  0  0  0
   -1.8026   -1.0201    0.6853 C   0  0  0  0  0  0  0  0  0  0  0  0
   -2.2130   -2.1497   -0.0531 C   0  0  0  0  0  0  0  0  0  0  0  0
   -3.2946   -2.0318   -0.8753 C   0  0  0  0  0  0  0  0  0  0  0  0
   -3.9558   -0.8645   -0.9718 N   0  0  0  0  0  0  0  0  0  0  0  0
   -3.6137    0.2382   -0.2993 C   0  0  0  0  0  0  0  0  0  0  0  0
   -4.4690    1.8036   -0.3853 S   0  0  0  0  0  0  0  0  0  0  0  0
   -5.9795    1.7525    0.5914 C   0  0  0  0  0  0  0  0  0  0  0  0
   -7.2652    1.5464   -0.2095 C   0  0  0  0  0  0  0  0  0  0  0  0
   -7.1110    0.0524   -0.0737 C   0  0  0  0  0  0  0  0  0  0  0  0
   -6.2491    0.3214    1.1337 C   0  0  0  0  0  0  0  0  0  0  0  0
   -3.6599   -3.2193   -1.7260 C   0  0  0  0  0  0  0  0  0  0  0  0
   -4.0196   -2.7945   -2.9937 F   0  0  0  0  0  0  0  0  0  0  0  0
   -4.6645   -3.9123   -1.1598 F   0  0  0  0  0  0  0  0  0  0  0  0
   -2.5302   -4.0451   -1.8119 F   0  0  0  0  0  0  0  0  0  0  0  0
    2.8621    0.8115   -0.1755 C   0  0  0  0  0  0  0  0  0  0  0  0
    3.5156    0.5180   -1.3911 C   0  0  0  0  0  0  0  0  0  0  0  0
    4.7170   -0.1817   -1.3681 C   0  0  0  0  0  0  0  0  0  0  0  0
    5.3179   -0.6063   -0.2078 C   0  0  0  0  0  0  0  0  0  0  0  0
    6.5021   -1.3957   -0.2608 N   0  0  0  0  0  0  0  0  0  0  0  0
    8.0174   -1.0774    0.3978 S   0  0  0  0  0  0  0  0  0  0  0  0
    8.8457    0.3542   -0.1623 C   0  0  0  0  0  0  0  0  0  0  0  0
    8.9167   -2.2732    0.0731 O   0  0  0  0  0  0  0  0  0  0  0  0
    8.0161   -1.0303    1.9214 O   0  0  0  0  0  0  0  0  0  0  0  0
    4.6618   -0.2992    0.9473 C   0  0  0  0  0  0  0  0  0  0  0  0
    5.1712   -0.6739    2.1252 F   0  0  0  0  0  0  0  0  0  0  0  0
    3.4540    0.3981    0.9878 C   0  0  0  0  0  0  0  0  0  0  0  0
    0.4985   -0.1643   -1.2745 H   0  0  0  0  0  0  0  0  0  0  0  0
   -0.0690    1.4661   -1.7445 H   0  0  0  0  0  0  0  0  0  0  0  0
    1.4069    0.8487   -2.4602 H   0  0  0  0  0  0  0  0  0  0  0  0
    1.6399    2.5324   -0.4699 H   0  0  0  0  0  0  0  0  0  0  0  0
   -0.7541    2.3391   -0.2993 H   0  0  0  0  0  0  0  0  0  0  0  0
   -1.9623    1.2849    2.2335 H   0  0  0  0  0  0  0  0  0  0  0  0
   -2.6861    2.2400    0.8946 H   0  0  0  0  0  0  0  0  0  0  0  0
   -0.9547   -1.1724    1.3763 H   0  0  0  0  0  0  0  0  0  0  0  0
   -1.6437   -3.0477    0.0816 H   0  0  0  0  0  0  0  0  0  0  0  0
   -6.0897    2.4593    1.4079 H   0  0  0  0  0  0  0  0  0  0  0  0
   -7.1344    1.9369   -1.2449 H   0  0  0  0  0  0  0  0  0  0  0  0
   -8.1542    1.9706    0.2827 H   0  0  0  0  0  0  0  0  0  0  0  0
   -6.6833   -0.4000   -0.9577 H   0  0  0  0  0  0  0  0  0  0  0  0
   -8.0940   -0.4626    0.1981 H   0  0  0  0  0  0  0  0  0  0  0  0
   -5.3437   -0.2388    1.2857 H   0  0  0  0  0  0  0  0  0  0  0  0
   -6.8406    0.3532    2.0709 H   0  0  0  0  0  0  0  0  0  0  0  0
    3.1760    0.8097   -2.3550 H   0  0  0  0  0  0  0  0  0  0  0  0
    5.2228   -0.4168   -2.3070 H   0  0  0  0  0  0  0  0  0  0  0  0
    6.3756   -2.3142   -0.8194 H   0  0  0  0  0  0  0  0  0  0  0  0
    8.8154    1.1908    0.5815 H   0  0  0  0  0  0  0  0  0  0  0  0
    8.5232    0.6811   -1.1534 H   0  0  0  0  0  0  0  0  0  0  0  0
    9.9446    0.1118   -0.2369 H   0  0  0  0  0  0  0  0  0  0  0  0
    3.0081    0.6461    1.9251 H   0  0  0  0  0  0  0  0  0  0  0  0
  1  2  1  0
  2  3  1  0
  3  4  2  0
  3  5  1  0
  5  6  1  0
  6  7  1  0
  7  8  2  0
  8  9  1  0
  9 10  2  0
 10 11  1  0
 11 12  2  0
 12 13  1  0
 13 14  1  0
 14 15  1  0
 15 16  1  0
 16 17  1  0
 10 18  1  0
 18 19  1  0
 18 20  1  0
 18 21  1  0
  2 22  1  0
 22 23  2  0
 23 24  1  0
 24 25  2  0
 25 26  1  0
 26 27  1  0
 27 28  1  0
 27 29  2  0
 27 30  2  0
 25 31  1  0
 31 32  1  0
 31 33  2  0
 12  7  1  0
 17 14  1  0
 33 22  1  0
  1 34  1  0
  1 35  1  0
  1 36  1  0
  2 37  1  0
  5 38  1  0
  6 39  1  0
  6 40  1  0
  8 41  1  0
  9 42  1  0
 14 43  1  0
 15 44  1  0
 15 45  1  0
 16 46  1  0
 16 47  1  0
 17 48  1  0
 17 49  1  0
 23 50  1  0
 24 51  1  0
 26 52  1  0
 28 53  1  0
 28 54  1  0
 28 55  1  0
 33 56  1  0
M  END
$$$$
[H]c1nc([H])c2c([H])c([H])c([H])c(N([H])C(=O)N([H])C([H])([H])c3c([H])c([H])c(C(C([H])([H])[H])(C([H])([H])[H])C([H])([H])[H])c([H])c3[H])c2c1[H]
     RDKit          3D

 48 50  0  0  0  0  0  0  0  0999 V2000
   -5.5514   -0.3529    1.7838 C   0  0  0  0  0  0  0  0  0  0  0  0
   -5.2145   -0.7367    0.3706 C   0  0  0  0  0  0  0  0  0  0  0  0
   -6.3349   -0.3353   -0.5980 C   0  0  0  0  0  0  0  0  0  0  0  0
   -5.1651   -2.2461    0.3195 C   0  0  0  0  0  0  0  0  0  0  0  0
   -3.9382   -0.1008   -0.0433 C   0  0  0  0  0  0  0  0  0  0  0  0
   -2.8609   -0.7869   -0.5234 C   0  0  0  0  0  0  0  0  0  0  0  0
   -1.6963   -0.1158   -0.9037 C   0  0  0  0  0  0  0  0  0  0  0  0
   -1.5591    1.2406   -0.8225 C   0  0  0  0  0  0  0  0  0  0  0  0
   -0.4142    2.0581   -1.1970 C   0  0  0  0  0  0  0  0  0  0  0  0
    0.7865    1.9574   -0.4701 N   0  0  0  0  0  0  0  0  0  0  0  0
    1.7809    0.9678   -0.8311 C   0  0  0  0  0  0  0  0  0  0  0  0
    1.5410    0.2335   -1.8012 O   0  0  0  0  0  0  0  0  0  0  0  0
    2.9805    0.8766   -0.0723 N   0  0  0  0  0  0  0  0  0  0  0  0
    3.9895   -0.0679   -0.3327 C   0  0  0  0  0  0  0  0  0  0  0  0
    3.8196   -1.2148   -1.0535 C   0  0  0  0  0  0  0  0  0  0  0  0
    4.8526   -2.1533   -1.2299 C   0  0  0  0  0  0  0  0  0  0  0  0
    6.0823   -1.9520   -0.6786 C   0  0  0  0  0  0  0  0  0  0  0  0
    6.2967   -0.8081    0.0577 C   0  0  0  0  0  0  0  0  0  0  0  0
    7.5647   -0.6281    0.5954 C   0  0  0  0  0  0  0  0  0  0  0  0
    7.7799    0.4923    1.3013 N   0  0  0  0  0  0  0  0  0  0  0  0
    6.8211    1.3977    1.4825 C   0  0  0  0  0  0  0  0  0  0  0  0
    5.5272    1.2394    0.9487 C   0  0  0  0  0  0  0  0  0  0  0  0
    5.2715    0.1192    0.2293 C   0  0  0  0  0  0  0  0  0  0  0  0
   -2.6894    1.9159   -0.3222 C   0  0  0  0  0  0  0  0  0  0  0  0
   -3.8333    1.2535    0.0503 C   0  0  0  0  0  0  0  0  0  0  0  0
   -4.6584   -0.5009    2.4086 H   0  0  0  0  0  0  0  0  0  0  0  0
   -5.9184    0.6788    1.8955 H   0  0  0  0  0  0  0  0  0  0  0  0
   -6.3606   -1.0082    2.2058 H   0  0  0  0  0  0  0  0  0  0  0  0
   -6.2742   -1.0281   -1.4638 H   0  0  0  0  0  0  0  0  0  0  0  0
   -6.1884    0.6976   -0.9623 H   0  0  0  0  0  0  0  0  0  0  0  0
   -7.2835   -0.4961   -0.0480 H   0  0  0  0  0  0  0  0  0  0  0  0
   -4.7149   -2.7065    1.2132 H   0  0  0  0  0  0  0  0  0  0  0  0
   -4.7613   -2.6166   -0.6339 H   0  0  0  0  0  0  0  0  0  0  0  0
   -6.2506   -2.5703    0.3459 H   0  0  0  0  0  0  0  0  0  0  0  0
   -2.8914   -1.8652   -0.6145 H   0  0  0  0  0  0  0  0  0  0  0  0
   -0.8983   -0.7159   -1.2720 H   0  0  0  0  0  0  0  0  0  0  0  0
   -0.2664    1.9123   -2.3104 H   0  0  0  0  0  0  0  0  0  0  0  0
   -0.7247    3.1483   -1.1554 H   0  0  0  0  0  0  0  0  0  0  0  0
    1.0554    2.5589    0.3590 H   0  0  0  0  0  0  0  0  0  0  0  0
    3.0762    1.5667    0.7476 H   0  0  0  0  0  0  0  0  0  0  0  0
    2.8579   -1.4390   -1.4964 H   0  0  0  0  0  0  0  0  0  0  0  0
    4.6243   -3.0300   -1.8166 H   0  0  0  0  0  0  0  0  0  0  0  0
    6.9077   -2.6697   -0.8011 H   0  0  0  0  0  0  0  0  0  0  0  0
    8.2998   -1.3769    0.4273 H   0  0  0  0  0  0  0  0  0  0  0  0
    7.0324    2.2929    2.0584 H   0  0  0  0  0  0  0  0  0  0  0  0
    4.8115    2.0175    1.1333 H   0  0  0  0  0  0  0  0  0  0  0  0
   -2.6561    3.0141   -0.2263 H   0  0  0  0  0  0  0  0  0  0  0  0
   -4.6547    1.8828    0.4273 H   0  0  0  0  0  0  0  0  0  0  0  0
  1  2  1  0
  2  3  1  0
  2  4  1  0
  2  5  1  0
  5  6  2  0
  6  7  1  0
  7  8  2  0
  8  9  1  0
  9 10  1  0
 10 11  1  0
 11 12  2  0
 11 13  1  0
 13 14  1  0
 14 15  2  0
 15 16  1  0
 16 17  2  0
 17 18  1  0
 18 19  2  0
 19 20  1  0
 20 21  2  0
 21 22  1  0
 22 23  2  0
  8 24  1  0
 24 25  2  0
 25  5  1  0
 23 14  1  0
 23 18  1  0
  1 26  1  0
  1 27  1  0
  1 28  1  0
  3 29  1  0
  3 30  1  0
  3 31  1  0
  4 32  1  0
  4 33  1  0
  4 34  1  0
  6 35  1  0
  7 36  1  0
  9 37  1  0
  9 38  1  0
 10 39  1  0
 13 40  1  0
 15 41  1  0
 16 42  1  0
 17 43  1  0
 19 44  1  0
 21 45  1  0
 22 46  1  0
 24 47  1  0
 25 48  1  0
M  END
$$$$
[H]c1c([H])c(N([H])C(=O)N([H])c2c([H])c([H])c([H])c3c2c([H])nn3[H])c([H])c([H])c1C(=C1C([H])([H])C([H])([H])SC([H])([H])C1([H])[H])N1C([H])([H])C([H])([H])OC([H])([H])C1([H])[H]
     RDKit          3D

 59 63  0  0  0  0  0  0  0  0999 V2000
    3.1617   -0.7580   -1.0902 O   0  0  0  0  0  0  0  0  0  0  0  0
    3.4949   -0.0445   -0.1433 C   0  0  0  0  0  0  0  0  0  0  0  0
    2.5009    0.6392    0.6398 N   0  0  0  0  0  0  0  0  0  0  0  0
    1.1307    0.5439    0.3709 C   0  0  0  0  0  0  0  0  0  0  0  0
    0.2468    0.8261    1.4446 C   0  0  0  0  0  0  0  0  0  0  0  0
   -1.0967    0.7815    1.2578 C   0  0  0  0  0  0  0  0  0  0  0  0
   -1.6607    0.4717    0.0606 C   0  0  0  0  0  0  0  0  0  0  0  0
   -0.8479    0.1913   -1.0088 C   0  0  0  0  0  0  0  0  0  0  0  0
    0.5353    0.2369   -0.8184 C   0  0  0  0  0  0  0  0  0  0  0  0
   -3.1322    0.4592   -0.0827 C   0  0  0  0  0  0  0  0  0  0  0  0
   -3.8573    1.5021    0.1507 C   0  0  0  0  0  0  0  0  0  0  0  0
   -5.3589    1.3364   -0.0321 C   0  0  0  0  0  0  0  0  0  0  0  0
   -5.9542    1.3265    1.3424 C   0  0  0  0  0  0  0  0  0  0  0  0
   -5.5940    2.9253    2.1125 S   0  0  0  0  0  0  0  0  0  0  0  0
   -3.8540    3.3110    1.8508 C   0  0  0  0  0  0  0  0  0  0  0  0
   -3.3418    2.7958    0.5273 C   0  0  0  0  0  0  0  0  0  0  0  0
   -3.6828   -0.8079   -0.4832 N   0  0  0  0  0  0  0  0  0  0  0  0
   -3.9214   -1.1920   -1.8524 C   0  0  0  0  0  0  0  0  0  0  0  0
   -4.9446   -2.3295   -1.8226 C   0  0  0  0  0  0  0  0  0  0  0  0
   -4.4971   -3.4333   -1.1408 O   0  0  0  0  0  0  0  0  0  0  0  0
   -3.7564   -3.1621   -0.0151 C   0  0  0  0  0  0  0  0  0  0  0  0
   -4.0250   -1.7794    0.5438 C   0  0  0  0  0  0  0  0  0  0  0  0
    4.8454    0.1411    0.2218 N   0  0  0  0  0  0  0  0  0  0  0  0
    5.9561   -0.4200   -0.3969 C   0  0  0  0  0  0  0  0  0  0  0  0
    5.9205   -1.2380   -1.4696 C   0  0  0  0  0  0  0  0  0  0  0  0
    7.1176   -1.7319   -1.9980 C   0  0  0  0  0  0  0  0  0  0  0  0
    8.3239   -1.4071   -1.4557 C   0  0  0  0  0  0  0  0  0  0  0  0
    8.3821   -0.5761   -0.3640 C   0  0  0  0  0  0  0  0  0  0  0  0
    9.4090   -0.1077    0.3482 N   0  0  0  0  0  0  0  0  0  0  0  0
    8.9265    0.6516    1.2935 N   0  0  0  0  0  0  0  0  0  0  0  0
    7.5869    0.6959    1.2208 C   0  0  0  0  0  0  0  0  0  0  0  0
    7.2180   -0.1009    0.1434 C   0  0  0  0  0  0  0  0  0  0  0  0
    2.8248    1.2469    1.4584 H   0  0  0  0  0  0  0  0  0  0  0  0
    0.6315    1.0798    2.4225 H   0  0  0  0  0  0  0  0  0  0  0  0
   -1.7699    0.9967    2.0927 H   0  0  0  0  0  0  0  0  0  0  0  0
   -1.2602   -0.0552   -1.9854 H   0  0  0  0  0  0  0  0  0  0  0  0
    1.1442    0.0287   -1.6893 H   0  0  0  0  0  0  0  0  0  0  0  0
   -5.7645    2.2093   -0.5760 H   0  0  0  0  0  0  0  0  0  0  0  0
   -5.6063    0.4167   -0.5442 H   0  0  0  0  0  0  0  0  0  0  0  0
   -7.0599    1.2200    1.3334 H   0  0  0  0  0  0  0  0  0  0  0  0
   -5.5335    0.5536    2.0101 H   0  0  0  0  0  0  0  0  0  0  0  0
   -3.7512    4.4141    1.8350 H   0  0  0  0  0  0  0  0  0  0  0  0
   -3.2823    2.9398    2.7225 H   0  0  0  0  0  0  0  0  0  0  0  0
   -3.6262    3.5676   -0.2790 H   0  0  0  0  0  0  0  0  0  0  0  0
   -2.2587    2.8408    0.5364 H   0  0  0  0  0  0  0  0  0  0  0  0
   -2.9816   -1.6257   -2.2730 H   0  0  0  0  0  0  0  0  0  0  0  0
   -4.3349   -0.3924   -2.4685 H   0  0  0  0  0  0  0  0  0  0  0  0
   -5.9091   -1.9568   -1.4225 H   0  0  0  0  0  0  0  0  0  0  0  0
   -5.0967   -2.6317   -2.9001 H   0  0  0  0  0  0  0  0  0  0  0  0
   -2.6557   -3.3110   -0.1808 H   0  0  0  0  0  0  0  0  0  0  0  0
   -4.0504   -3.8843    0.7728 H   0  0  0  0  0  0  0  0  0  0  0  0
   -3.3293   -1.6316    1.3952 H   0  0  0  0  0  0  0  0  0  0  0  0
   -5.0696   -1.6998    0.8449 H   0  0  0  0  0  0  0  0  0  0  0  0
    4.9787    0.7957    1.0774 H   0  0  0  0  0  0  0  0  0  0  0  0
    4.9900   -1.5395   -1.9553 H   0  0  0  0  0  0  0  0  0  0  0  0
    7.0325   -2.3808   -2.8542 H   0  0  0  0  0  0  0  0  0  0  0  0
    9.2226   -1.8256   -1.9150 H   0  0  0  0  0  0  0  0  0  0  0  0
   10.4049   -0.3447    0.1356 H   0  0  0  0  0  0  0  0  0  0  0  0
    6.8798    1.2224    1.8405 H   0  0  0  0  0  0  0  0  0  0  0  0
  1  2  2  0
  2  3  1  0
  3  4  1  0
  4  5  2  0
  5  6  1  0
  6  7  2  0
  7  8  1  0
  8  9  2  0
  7 10  1  0
 10 11  2  3
 11 12  1  0
 12 13  1  0
 13 14  1  0
 14 15  1  0
 15 16  1  0
 10 17  1  0
 17 18  1  0
 18 19  1  0
 19 20  1  0
 20 21  1  0
 21 22  1  0
  2 23  1  0
 23 24  1  0
 24 25  2  0
 25 26  1  0
 26 27  2  0
 27 28  1  0
 28 29  1  0
 29 30  1  0
 30 31  2  0
 31 32  1  0
  9  4  1  0
 16 11  1  0
 22 17  1  0
 32 24  1  0
 32 28  2  0
  3 33  1  0
  5 34  1  0
  6 35  1  0
  8 36  1  0
  9 37  1  0
 12 38  1  0
 12 39  1  0
 13 40  1  0
 13 41  1  0
 15 42  1  0
 15 43  1  0
 16 44  1  0
 16 45  1  0
 18 46  1  0
 18 47  1  0
 19 48  1  0
 19 49  1  0
 21 50  1  0
 21 51  1  0
 22 52  1  0
 22 53  1  0
 23 54  1  0
 25 55  1  0
 26 56  1  0
 27 57  1  0
 29 58  1  0
 31 59  1  0
M  END
$$$$
[H]c1c([H])c2c([H])c(c1OC(F)(F)F)C([H])(N([H])C([H])([H])C([H])([H])n1c(Br)nc3c([H])c(Cl)c([H])c([H])c31)C([H])([H])N([H])C(=O)C2([H])[H]
     RDKit          2D

 48 51  0  0  0  0  0  0  0  0999 V2000
    4.5000   -2.5981    0.0000 F   0  0  0  0  0  0  0  0  0  0  0  0
    3.7500   -1.2990    0.0000 C   0  0  0  0  0  0  0  0  0  0  0  0
    5.0490   -0.5490    0.0000 F   0  0  0  0  0  0  0  0  0  0  0  0
    2.4510   -2.0490    0.0000 F   0  0  0  0  0  0  0  0  0  0  0  0
    3.0000    0.0000    0.0000 O   0  0  0  0  0  0  0  0  0  0  0  0
    1.5000    0.0000    0.0000 C   0  0  0  0  0  0  0  0  0  0  0  0
    0.7500   -1.2990    0.0000 C   0  0  0  0  0  0  0  0  0  0  0  0
   -0.7500   -1.2990    0.0000 C   0  0  0  0  0  0  0  0  0  0  0  0
   -1.5000    0.0000    0.0000 C   0  0  0  0  0  0  0  0  0  0  0  0
   -2.8403    0.8264    0.0000 C   0  0  0  0  0  0  0  0  0  0  0  0
   -3.0361    2.3135    0.0000 C   0  0  0  0  0  0  0  0  0  0  0  0
   -4.4850    2.7018    0.0000 O   0  0  0  0  0  0  0  0  0  0  0  0
   -2.1230    3.5036    0.0000 N   0  0  0  0  0  0  0  0  0  0  0  0
   -0.6358    3.6993    0.0000 C   0  0  0  0  0  0  0  0  0  0  0  0
    0.5542    2.7862    0.0000 C   0  0  0  0  0  0  0  0  0  0  0  0
    2.0414    2.5904    0.0000 N   0  0  0  0  0  0  0  0  0  0  0  0
    2.9545    3.7804    0.0000 C   0  0  0  0  0  0  0  0  0  0  0  0
    3.8677    4.9705    0.0000 C   0  0  0  0  0  0  0  0  0  0  0  0
    4.7808    6.1605    0.0000 N   0  0  0  0  0  0  0  0  0  0  0  0
    4.3548    7.5987    0.0000 C   0  0  0  0  0  0  0  0  0  0  0  0
    2.9408    8.0994    0.0000 Br  0  0  0  0  0  0  0  0  0  0  0  0
    5.5910    8.4483    0.0000 N   0  0  0  0  0  0  0  0  0  0  0  0
    6.7810    7.5352    0.0000 C   0  0  0  0  0  0  0  0  0  0  0  0
    8.2559    7.8086    0.0000 C   0  0  0  0  0  0  0  0  0  0  0  0
    9.2301    6.6679    0.0000 C   0  0  0  0  0  0  0  0  0  0  0  0
   10.7049    6.9413    0.0000 Cl  0  0  0  0  0  0  0  0  0  0  0  0
    8.7293    5.2540    0.0000 C   0  0  0  0  0  0  0  0  0  0  0  0
    7.2545    4.9806    0.0000 C   0  0  0  0  0  0  0  0  0  0  0  0
    6.2803    6.1212    0.0000 C   0  0  0  0  0  0  0  0  0  0  0  0
   -0.7500    1.2990    0.0000 C   0  0  0  0  0  0  0  0  0  0  0  0
    0.7500    1.2990    0.0000 C   0  0  0  0  0  0  0  0  0  0  0  0
    1.5000   -2.5981    0.0000 H   0  0  0  0  0  0  0  0  0  0  0  0
   -1.5000   -2.5981    0.0000 H   0  0  0  0  0  0  0  0  0  0  0  0
   -4.3275    1.0222    0.0000 H   0  0  0  0  0  0  0  0  0  0  0  0
   -3.4144   -0.5595    0.0000 H   0  0  0  0  0  0  0  0  0  0  0  0
   -2.8730    4.8026    0.0000 H   0  0  0  0  0  0  0  0  0  0  0  0
    0.3270    4.6456    0.0000 H   0  0  0  0  0  0  0  0  0  0  0  0
   -1.2098    5.0852    0.0000 H   0  0  0  0  0  0  0  0  0  0  0  0
    1.0708    4.0334    0.0000 H   0  0  0  0  0  0  0  0  0  0  0  0
    2.6154    1.2046    0.0000 H   0  0  0  0  0  0  0  0  0  0  0  0
    1.8847    4.8318    0.0000 H   0  0  0  0  0  0  0  0  0  0  0  0
    4.1446    2.8673    0.0000 H   0  0  0  0  0  0  0  0  0  0  0  0
    5.0577    4.0573    0.0000 H   0  0  0  0  0  0  0  0  0  0  0  0
    2.6776    5.8836    0.0000 H   0  0  0  0  0  0  0  0  0  0  0  0
    8.7566    9.2225    0.0000 H   0  0  0  0  0  0  0  0  0  0  0  0
    9.7035    4.1134    0.0000 H   0  0  0  0  0  0  0  0  0  0  0  0
    6.7538    3.5667    0.0000 H   0  0  0  0  0  0  0  0  0  0  0  0
   -1.5000    2.5981    0.0000 H   0  0  0  0  0  0  0  0  0  0  0  0
  1  2  1  0
  2  3  1  0
  2  4  1  0
  2  5  1  0
  5  6  1  0
  6  7  2  0
  7  8  1  0
  8  9  2  0
  9 10  1  0
 10 11  1  0
 11 12  2  0
 11 13  1  0
 13 14  1  0
 14 15  1  0
 15 16  1  0
 16 17  1  0
 17 18  1  0
 18 19  1  0
 19 20  1  0
 20 21  1  0
 20 22  2  0
 22 23  1  0
 23 24  2  0
 24 25  1  0
 25 26  1  0
 25 27  2  0
 27 28  1  0
 28 29  2  0
  9 30  1  0
 30 31  2  0
 31  6  1  0
 31 15  1  0
 29 19  1  0
 29 23  1  0
  7 32  1  0
  8 33  1  0
 10 34  1  0
 10 35  1  0
 13 36  1  0
 14 37  1  0
 14 38  1  0
 15 39  1  0
 16 40  1  0
 17 41  1  0
 17 42  1  0
 18 43  1  0
 18 44  1  0
 24 45  1  0
 27 46  1  0
 28 47  1  0
 30 48  1  0
M  END
$$$$
[H]c1c([H])c(C([H])(C(=O)N([H])C([H])([H])c2c([H])c([H])c(C(F)(F)F)c([H])c2N2C([H])([H])C([H])([H])C([H])(C([H])([H])[H])C([H])([H])C2([H])[H])C([H])([H])[H])c([H])c(F)c1N([H])S(=O)(=O)C([H])([H])[H]
     RDKit          3D

 64 66  0  0  0  0  0  0  0  0999 V2000
    2.6106   -2.0761   -0.0390 C   0  0  0  0  0  0  0  0  0  0  0  0
    2.6043   -0.9181   -1.1221 C   0  0  0  0  0  0  0  0  0  0  0  0
    1.3174   -0.2508   -1.0725 C   0  0  0  0  0  0  0  0  0  0  0  0
    1.0677    0.9518   -0.8627 O   0  0  0  0  0  0  0  0  0  0  0  0
    0.1732   -1.0736   -1.2823 N   0  0  0  0  0  0  0  0  0  0  0  0
   -1.1960   -0.6718   -1.2290 C   0  0  0  0  0  0  0  0  0  0  0  0
   -1.6952   -0.3400    0.1384 C   0  0  0  0  0  0  0  0  0  0  0  0
   -0.8999   -0.4105    1.2763 C   0  0  0  0  0  0  0  0  0  0  0  0
   -1.3781   -0.1132    2.5289 C   0  0  0  0  0  0  0  0  0  0  0  0
   -2.6863    0.2696    2.6833 C   0  0  0  0  0  0  0  0  0  0  0  0
   -3.4568    0.3389    1.5730 C   0  0  0  0  0  0  0  0  0  0  0  0
   -3.0182    0.0458    0.2698 C   0  0  0  0  0  0  0  0  0  0  0  0
   -3.9368    0.1072   -0.7990 N   0  0  0  0  0  0  0  0  0  0  0  0
   -4.4687   -1.1081   -1.3950 C   0  0  0  0  0  0  0  0  0  0  0  0
   -5.9762   -1.1654   -1.2429 C   0  0  0  0  0  0  0  0  0  0  0  0
   -6.5359    0.1341   -0.7295 C   0  0  0  0  0  0  0  0  0  0  0  0
   -8.0182    0.1060   -0.9994 C   0  0  0  0  0  0  0  0  0  0  0  0
   -5.9464    1.3427   -1.3889 C   0  0  0  0  0  0  0  0  0  0  0  0
   -4.4322    1.3419   -1.4036 C   0  0  0  0  0  0  0  0  0  0  0  0
   -3.2041    0.5567    4.0743 C   0  0  0  0  0  0  0  0  0  0  0  0
   -2.8158   -0.4040    4.9632 F   0  0  0  0  0  0  0  0  0  0  0  0
   -2.9569    1.8362    4.4774 F   0  0  0  0  0  0  0  0  0  0  0  0
   -4.6102    0.4331    3.9661 F   0  0  0  0  0  0  0  0  0  0  0  0
    3.8101   -0.1563   -0.8779 C   0  0  0  0  0  0  0  0  0  0  0  0
    5.0080   -0.6185   -1.4391 C   0  0  0  0  0  0  0  0  0  0  0  0
    6.2224   -0.0369   -1.1497 C   0  0  0  0  0  0  0  0  0  0  0  0
    6.2813    1.0170   -0.3008 C   0  0  0  0  0  0  0  0  0  0  0  0
    7.5519    1.5490    0.1012 N   0  0  0  0  0  0  0  0  0  0  0  0
    8.2879    0.6308    1.3894 S   0  0  0  0  0  0  0  0  0  0  0  0
    9.7884   -0.1591    0.9543 C   0  0  0  0  0  0  0  0  0  0  0  0
    7.2849   -0.4554    1.7912 O   0  0  0  0  0  0  0  0  0  0  0  0
    8.4295    1.5174    2.6297 O   0  0  0  0  0  0  0  0  0  0  0  0
    5.1131    1.4907    0.2532 C   0  0  0  0  0  0  0  0  0  0  0  0
    5.2238    2.5576    1.1052 F   0  0  0  0  0  0  0  0  0  0  0  0
    3.8694    0.9103   -0.0298 C   0  0  0  0  0  0  0  0  0  0  0  0
    3.2895   -2.8591   -0.4166 H   0  0  0  0  0  0  0  0  0  0  0  0
    1.5853   -2.4383    0.0055 H   0  0  0  0  0  0  0  0  0  0  0  0
    2.9081   -1.6340    0.9345 H   0  0  0  0  0  0  0  0  0  0  0  0
    2.6744   -1.5218   -2.0601 H   0  0  0  0  0  0  0  0  0  0  0  0
    0.3271   -2.1173   -1.5054 H   0  0  0  0  0  0  0  0  0  0  0  0
   -1.2309    0.3067   -1.8065 H   0  0  0  0  0  0  0  0  0  0  0  0
   -1.8780   -1.3792   -1.7385 H   0  0  0  0  0  0  0  0  0  0  0  0
    0.1337   -0.7122    1.1993 H   0  0  0  0  0  0  0  0  0  0  0  0
   -0.7225   -0.1615    3.3860 H   0  0  0  0  0  0  0  0  0  0  0  0
   -4.5194    0.6262    1.6528 H   0  0  0  0  0  0  0  0  0  0  0  0
   -4.0170   -2.0250   -0.9928 H   0  0  0  0  0  0  0  0  0  0  0  0
   -4.2469   -1.0776   -2.4790 H   0  0  0  0  0  0  0  0  0  0  0  0
   -6.4917   -1.4119   -2.1900 H   0  0  0  0  0  0  0  0  0  0  0  0
   -6.2100   -1.9531   -0.4806 H   0  0  0  0  0  0  0  0  0  0  0  0
   -6.4305    0.1341    0.3700 H   0  0  0  0  0  0  0  0  0  0  0  0
   -8.4353   -0.9443   -1.0113 H   0  0  0  0  0  0  0  0  0  0  0  0
   -8.2958    0.6300   -1.9362 H   0  0  0  0  0  0  0  0  0  0  0  0
   -8.6092    0.6058   -0.1850 H   0  0  0  0  0  0  0  0  0  0  0  0
   -6.3734    2.2325   -0.8890 H   0  0  0  0  0  0  0  0  0  0  0  0
   -6.3155    1.3613   -2.4442 H   0  0  0  0  0  0  0  0  0  0  0  0
   -3.9810    2.2156   -0.9123 H   0  0  0  0  0  0  0  0  0  0  0  0
   -4.0686    1.3128   -2.4429 H   0  0  0  0  0  0  0  0  0  0  0  0
    4.9538   -1.4376   -2.1087 H   0  0  0  0  0  0  0  0  0  0  0  0
    7.1440   -0.4162   -1.6043 H   0  0  0  0  0  0  0  0  0  0  0  0
    7.9793    2.3770   -0.3179 H   0  0  0  0  0  0  0  0  0  0  0  0
    9.6398   -0.9816    0.2263 H   0  0  0  0  0  0  0  0  0  0  0  0
   10.5729    0.5581    0.6023 H   0  0  0  0  0  0  0  0  0  0  0  0
   10.1891   -0.6480    1.8909 H   0  0  0  0  0  0  0  0  0  0  0  0
    3.0168    1.3437    0.4417 H   0  0  0  0  0  0  0  0  0  0  0  0
  1  2  1  0
  2  3  1  0
  3  4  2  0
  3  5  1  0
  5  6  1  0
  6  7  1  0
  7  8  2  0
  8  9  1  0
  9 10  2  0
 10 11  1  0
 11 12  2  0
 12 13  1  0
 13 14  1  0
 14 15  1  0
 15 16  1  0
 16 17  1  0
 16 18  1  0
 18 19  1  0
 10 20  1  0
 20 21  1  0
 20 22  1  0
 20 23  1  0
  2 24  1  0
 24 25  2  0
 25 26  1  0
 26 27  2  0
 27 28  1  0
 28 29  1  0
 29 30  1  0
 29 31  2  0
 29 32  2  0
 27 33  1  0
 33 34  1  0
 33 35  2  0
 12  7  1  0
 19 13  1  0
 35 24  1  0
  1 36  1  0
  1 37  1  0
  1 38  1  0
  2 39  1  0
  5 40  1  0
  6 41  1  0
  6 42  1  0
  8 43  1  0
  9 44  1  0
 11 45  1  0
 14 46  1  0
 14 47  1  0
 15 48  1  0
 15 49  1  0
 16 50  1  0
 17 51  1  0
 17 52  1  0
 17 53  1  0
 18 54  1  0
 18 55  1  0
 19 56  1  0
 19 57  1  0
 25 58  1  0
 26 59  1  0
 28 60  1  0
 30 61  1  0
 30 62  1  0
 30 63  1  0
 35 64  1  0
M  END
$$$$
[H]OC(C([H])([H])[H])(C([H])([H])[H])C([H])([H])Oc1c([H])c([H])c([H])c(-c2c(-c3c([H])c([H])c(S(=O)(=O)C([H])([H])[H])c([H])c3[H])nc(C(C([H])([H])[H])(C([H])([H])[H])C([H])([H])[H])n2[H])c1[H]
     RDKit          3D

 61 63  0  0  0  0  0  0  0  0999 V2000
    0.2969   -4.6490   -0.8970 C   0  0  0  0  0  0  0  0  0  0  0  0
    1.5538   -3.8844   -0.6047 C   0  0  0  0  0  0  0  0  0  0  0  0
    2.6221   -4.2616   -1.5906 C   0  0  0  0  0  0  0  0  0  0  0  0
    2.0509   -4.3587    0.7719 C   0  0  0  0  0  0  0  0  0  0  0  0
    1.3295   -2.4048   -0.5779 C   0  0  0  0  0  0  0  0  0  0  0  0
    2.2515   -1.5375   -0.2135 N   0  0  0  0  0  0  0  0  0  0  0  0
    1.7584   -0.2451   -0.2798 C   0  0  0  0  0  0  0  0  0  0  0  0
    0.4785   -0.3599   -0.7031 C   0  0  0  0  0  0  0  0  0  0  0  0
    0.2460   -1.7071   -0.8784 N   0  0  0  0  0  0  0  0  0  0  0  0
   -0.5785    0.6149   -0.9384 C   0  0  0  0  0  0  0  0  0  0  0  0
   -0.4236    1.6906   -1.7821 C   0  0  0  0  0  0  0  0  0  0  0  0
   -1.5304    2.5138   -1.9624 C   0  0  0  0  0  0  0  0  0  0  0  0
   -2.7458    2.3073   -1.3529 C   0  0  0  0  0  0  0  0  0  0  0  0
   -2.9125    1.2100   -0.4919 C   0  0  0  0  0  0  0  0  0  0  0  0
   -4.1514    1.0235    0.0993 O   0  0  0  0  0  0  0  0  0  0  0  0
   -4.5068    0.0120    0.9935 C   0  0  0  0  0  0  0  0  0  0  0  0
   -5.9887    0.2523    1.3157 C   0  0  0  0  0  0  0  0  0  0  0  0
   -6.7676    0.2636   -0.0146 C   0  0  0  0  0  0  0  0  0  0  0  0
   -6.5609   -0.8551    2.1352 C   0  0  0  0  0  0  0  0  0  0  0  0
   -6.0792    1.5001    1.8820 O   0  0  0  0  0  0  0  0  0  0  0  0
   -1.8206    0.4111   -0.3210 C   0  0  0  0  0  0  0  0  0  0  0  0
    2.5897    0.9029    0.0584 C   0  0  0  0  0  0  0  0  0  0  0  0
    3.1671    1.7309   -0.8639 C   0  0  0  0  0  0  0  0  0  0  0  0
    3.9897    2.7675   -0.5046 C   0  0  0  0  0  0  0  0  0  0  0  0
    4.2420    2.9812    0.8401 C   0  0  0  0  0  0  0  0  0  0  0  0
    3.6791    2.1711    1.8089 C   0  0  0  0  0  0  0  0  0  0  0  0
    2.8596    1.1443    1.3818 C   0  0  0  0  0  0  0  0  0  0  0  0
    5.3015    4.3281    1.2392 S   0  0  0  0  0  0  0  0  0  0  0  0
    6.9868    3.8462    0.9276 C   0  0  0  0  0  0  0  0  0  0  0  0
    5.1547    4.5436    2.7440 O   0  0  0  0  0  0  0  0  0  0  0  0
    4.8690    5.5107    0.4520 O   0  0  0  0  0  0  0  0  0  0  0  0
    0.0103   -4.5980   -1.9716 H   0  0  0  0  0  0  0  0  0  0  0  0
   -0.5581   -4.3574   -0.2623 H   0  0  0  0  0  0  0  0  0  0  0  0
    0.5301   -5.7241   -0.6324 H   0  0  0  0  0  0  0  0  0  0  0  0
    2.9433   -5.3024   -1.2997 H   0  0  0  0  0  0  0  0  0  0  0  0
    2.2893   -4.2347   -2.6401 H   0  0  0  0  0  0  0  0  0  0  0  0
    3.5122   -3.6293   -1.3881 H   0  0  0  0  0  0  0  0  0  0  0  0
    2.9586   -3.7273    0.9695 H   0  0  0  0  0  0  0  0  0  0  0  0
    2.3298   -5.4111    0.6944 H   0  0  0  0  0  0  0  0  0  0  0  0
    1.2480   -4.1648    1.5038 H   0  0  0  0  0  0  0  0  0  0  0  0
   -0.6568   -2.1082   -1.2019 H   0  0  0  0  0  0  0  0  0  0  0  0
    0.4887    1.9169   -2.3016 H   0  0  0  0  0  0  0  0  0  0  0  0
   -1.3891    3.3707   -2.6371 H   0  0  0  0  0  0  0  0  0  0  0  0
   -3.5875    2.9621   -1.5080 H   0  0  0  0  0  0  0  0  0  0  0  0
   -4.4042   -0.9704    0.4992 H   0  0  0  0  0  0  0  0  0  0  0  0
   -3.9699    0.0971    1.9561 H   0  0  0  0  0  0  0  0  0  0  0  0
   -7.7950    0.6119    0.2105 H   0  0  0  0  0  0  0  0  0  0  0  0
   -6.3125    0.9757   -0.7286 H   0  0  0  0  0  0  0  0  0  0  0  0
   -6.8536   -0.7667   -0.4024 H   0  0  0  0  0  0  0  0  0  0  0  0
   -6.0838   -0.9145    3.1141 H   0  0  0  0  0  0  0  0  0  0  0  0
   -7.6620   -0.6916    2.2253 H   0  0  0  0  0  0  0  0  0  0  0  0
   -6.4330   -1.8106    1.5424 H   0  0  0  0  0  0  0  0  0  0  0  0
   -5.8028    2.1871    1.2232 H   0  0  0  0  0  0  0  0  0  0  0  0
   -1.9557   -0.4455    0.3528 H   0  0  0  0  0  0  0  0  0  0  0  0
    2.9733    1.5598   -1.9099 H   0  0  0  0  0  0  0  0  0  0  0  0
    4.4567    3.4280   -1.2607 H   0  0  0  0  0  0  0  0  0  0  0  0
    3.8975    2.3604    2.8449 H   0  0  0  0  0  0  0  0  0  0  0  0
    2.4406    0.5317    2.1908 H   0  0  0  0  0  0  0  0  0  0  0  0
    7.4804    4.7417    0.4490 H   0  0  0  0  0  0  0  0  0  0  0  0
    7.0224    2.9704    0.2536 H   0  0  0  0  0  0  0  0  0  0  0  0
    7.5219    3.6804    1.8745 H   0  0  0  0  0  0  0  0  0  0  0  0
  1  2  1  0
  2  3  1  0
  2  4  1  0
  2  5  1  0
  5  6  2  0
  6  7  1  0
  7  8  2  0
  8  9  1  0
  8 10  1  0
 10 11  2  0
 11 12  1  0
 12 13  2  0
 13 14  1  0
 14 15  1  0
 15 16  1  0
 16 17  1  0
 17 18  1  0
 17 19  1  0
 17 20  1  0
 14 21  2  0
  7 22  1  0
 22 23  2  0
 23 24  1  0
 24 25  2  0
 25 26  1  0
 26 27  2  0
 25 28  1  0
 28 29  1  0
 28 30  2  0
 28 31  2  0
  9  5  1  0
 21 10  1  0
 27 22  1  0
  1 32  1  0
  1 33  1  0
  1 34  1  0
  3 35  1  0
  3 36  1  0
  3 37  1  0
  4 38  1  0
  4 39  1  0
  4 40  1  0
  9 41  1  0
 11 42  1  0
 12 43  1  0
 13 44  1  0
 16 45  1  0
 16 46  1  0
 18 47  1  0
 18 48  1  0
 18 49  1  0
 19 50  1  0
 19 51  1  0
 19 52  1  0
 20 53  1  0
 21 54  1  0
 23 55  1  0
 24 56  1  0
 26 57  1  0
 27 58  1  0
 29 59  1  0
 29 60  1  0
 29 61  1  0
M  END
$$$$
[H]c1c(C(F)(F)F)nc(N2C([H])([H])C([H])([H])C([H])(C([H])([H])[H])C([H])([H])C2([H])[H])c(C([H])([H])N([H])C(=O)C([H])(c2c([H])c([H])c(C([H])([H])[H])c([H])c2[H])c2c([H])c([H])c(N([H])S(=O)(=O)C([H])([H])[H])c(F)c2[H])c1[H]
     RDKit          3D

 73 76  0  0  0  0  0  0  0  0999 V2000
   -6.8341    3.8550    0.0338 C   0  0  0  0  0  0  0  0  0  0  0  0
   -6.2010    2.5015   -0.1597 C   0  0  0  0  0  0  0  0  0  0  0  0
   -5.5938    1.9710    1.1158 C   0  0  0  0  0  0  0  0  0  0  0  0
   -5.1153    0.5883    0.9222 C   0  0  0  0  0  0  0  0  0  0  0  0
   -4.5874    0.2856   -0.4009 N   0  0  0  0  0  0  0  0  0  0  0  0
   -4.7718    1.1048   -1.5585 C   0  0  0  0  0  0  0  0  0  0  0  0
   -5.0431    2.5518   -1.1680 C   0  0  0  0  0  0  0  0  0  0  0  0
   -3.8779   -0.9338   -0.5190 C   0  0  0  0  0  0  0  0  0  0  0  0
   -4.5903   -2.0421   -0.9155 N   0  0  0  0  0  0  0  0  0  0  0  0
   -4.0359   -3.2550   -0.9601 C   0  0  0  0  0  0  0  0  0  0  0  0
   -2.7237   -3.4103   -0.6019 C   0  0  0  0  0  0  0  0  0  0  0  0
   -1.9539   -2.3267   -0.1940 C   0  0  0  0  0  0  0  0  0  0  0  0
   -2.5550   -1.0726   -0.1606 C   0  0  0  0  0  0  0  0  0  0  0  0
   -1.7550    0.1165    0.1733 C   0  0  0  0  0  0  0  0  0  0  0  0
   -0.3987   -0.1014    0.5566 N   0  0  0  0  0  0  0  0  0  0  0  0
    0.7007   -0.5747   -0.1800 C   0  0  0  0  0  0  0  0  0  0  0  0
    0.5557   -0.8488   -1.4141 O   0  0  0  0  0  0  0  0  0  0  0  0
    2.0170   -0.7784    0.4524 C   0  0  0  0  0  0  0  0  0  0  0  0
    2.7717   -1.9615   -0.1139 C   0  0  0  0  0  0  0  0  0  0  0  0
    3.8313   -1.8238   -0.9829 C   0  0  0  0  0  0  0  0  0  0  0  0
    4.5181   -2.9409   -1.4385 C   0  0  0  0  0  0  0  0  0  0  0  0
    4.1809   -4.2222   -1.0548 C   0  0  0  0  0  0  0  0  0  0  0  0
    4.9371   -5.4323   -1.5298 C   0  0  0  0  0  0  0  0  0  0  0  0
    3.1196   -4.3574   -0.1881 C   0  0  0  0  0  0  0  0  0  0  0  0
    2.4297   -3.2422    0.2732 C   0  0  0  0  0  0  0  0  0  0  0  0
    2.9214    0.3833    0.5094 C   0  0  0  0  0  0  0  0  0  0  0  0
    3.0198    1.4060   -0.3821 C   0  0  0  0  0  0  0  0  0  0  0  0
    3.9806    2.4084   -0.2317 C   0  0  0  0  0  0  0  0  0  0  0  0
    4.8564    2.3866    0.8276 C   0  0  0  0  0  0  0  0  0  0  0  0
    5.8690    3.3381    1.0943 N   0  0  0  0  0  0  0  0  0  0  0  0
    6.8201    4.1204   -0.0626 S   0  0  0  0  0  0  0  0  0  0  0  0
    5.8553    5.1011   -1.1518 C   0  0  0  0  0  0  0  0  0  0  0  0
    7.5964    3.0796   -0.8561 O   0  0  0  0  0  0  0  0  0  0  0  0
    7.8782    4.9643    0.6328 O   0  0  0  0  0  0  0  0  0  0  0  0
    4.7601    1.3404    1.7479 C   0  0  0  0  0  0  0  0  0  0  0  0
    5.6207    1.2871    2.8133 F   0  0  0  0  0  0  0  0  0  0  0  0
    3.8244    0.3815    1.5844 C   0  0  0  0  0  0  0  0  0  0  0  0
   -4.8463   -4.4511   -1.3959 C   0  0  0  0  0  0  0  0  0  0  0  0
   -4.3759   -4.8973   -2.5912 F   0  0  0  0  0  0  0  0  0  0  0  0
   -6.1815   -4.1252   -1.4141 F   0  0  0  0  0  0  0  0  0  0  0  0
   -4.6110   -5.4504   -0.4658 F   0  0  0  0  0  0  0  0  0  0  0  0
   -7.6055    4.0493   -0.7201 H   0  0  0  0  0  0  0  0  0  0  0  0
   -7.2825    3.8943    1.0535 H   0  0  0  0  0  0  0  0  0  0  0  0
   -6.0607    4.6332   -0.1130 H   0  0  0  0  0  0  0  0  0  0  0  0
   -6.9207    1.7828   -0.5342 H   0  0  0  0  0  0  0  0  0  0  0  0
   -4.8343    2.6951    1.4385 H   0  0  0  0  0  0  0  0  0  0  0  0
   -6.4373    1.9601    1.8745 H   0  0  0  0  0  0  0  0  0  0  0  0
   -4.4122    0.3083    1.7243 H   0  0  0  0  0  0  0  0  0  0  0  0
   -6.0133   -0.1007    1.0944 H   0  0  0  0  0  0  0  0  0  0  0  0
   -5.7302    0.7545   -2.0347 H   0  0  0  0  0  0  0  0  0  0  0  0
   -3.9146    0.9885   -2.2506 H   0  0  0  0  0  0  0  0  0  0  0  0
   -5.2920    3.1541   -2.0392 H   0  0  0  0  0  0  0  0  0  0  0  0
   -4.1582    2.9258   -0.6248 H   0  0  0  0  0  0  0  0  0  0  0  0
   -2.3046   -4.4152   -0.6447 H   0  0  0  0  0  0  0  0  0  0  0  0
   -0.9555   -2.5090    0.1060 H   0  0  0  0  0  0  0  0  0  0  0  0
   -2.3099    0.6988    0.9686 H   0  0  0  0  0  0  0  0  0  0  0  0
   -1.7830    0.8697   -0.6989 H   0  0  0  0  0  0  0  0  0  0  0  0
   -0.1521    0.1494    1.5770 H   0  0  0  0  0  0  0  0  0  0  0  0
    1.7663   -1.0205    1.5406 H   0  0  0  0  0  0  0  0  0  0  0  0
    4.1290   -0.8228   -1.3091 H   0  0  0  0  0  0  0  0  0  0  0  0
    5.3479   -2.8084   -2.1120 H   0  0  0  0  0  0  0  0  0  0  0  0
    4.4835   -5.8532   -2.4330 H   0  0  0  0  0  0  0  0  0  0  0  0
    6.0204   -5.1541   -1.6931 H   0  0  0  0  0  0  0  0  0  0  0  0
    4.9326   -6.2187   -0.7635 H   0  0  0  0  0  0  0  0  0  0  0  0
    2.8186   -5.3406    0.1397 H   0  0  0  0  0  0  0  0  0  0  0  0
    1.5736   -3.3367    0.9653 H   0  0  0  0  0  0  0  0  0  0  0  0
    2.3313    1.4179   -1.2161 H   0  0  0  0  0  0  0  0  0  0  0  0
    4.0239    3.1859   -0.9577 H   0  0  0  0  0  0  0  0  0  0  0  0
    6.0394    3.5779    2.1232 H   0  0  0  0  0  0  0  0  0  0  0  0
    4.8391    5.3326   -0.7851 H   0  0  0  0  0  0  0  0  0  0  0  0
    6.3340    6.1049   -1.2860 H   0  0  0  0  0  0  0  0  0  0  0  0
    5.7463    4.5940   -2.1474 H   0  0  0  0  0  0  0  0  0  0  0  0
    3.7685   -0.4199    2.3121 H   0  0  0  0  0  0  0  0  0  0  0  0
  1  2  1  0
  2  3  1  0
  3  4  1  0
  4  5  1  0
  5  6  1  0
  6  7  1  0
  5  8  1  0
  8  9  2  0
  9 10  1  0
 10 11  2  0
 11 12  1  0
 12 13  2  0
 13 14  1  0
 14 15  1  0
 15 16  1  0
 16 17  2  0
 16 18  1  0
 18 19  1  0
 19 20  2  0
 20 21  1  0
 21 22  2  0
 22 23  1  0
 22 24  1  0
 24 25  2  0
 18 26  1  0
 26 27  2  0
 27 28  1  0
 28 29  2  0
 29 30  1  0
 30 31  1  0
 31 32  1  0
 31 33  2  0
 31 34  2  0
 29 35  1  0
 35 36  1  0
 35 37  2  0
 10 38  1  0
 38 39  1  0
 38 40  1  0
 38 41  1  0
  7  2  1  0
 13  8  1  0
 25 19  1  0
 37 26  1  0
  1 42  1  0
  1 43  1  0
  1 44  1  0
  2 45  1  0
  3 46  1  0
  3 47  1  0
  4 48  1  0
  4 49  1  0
  6 50  1  0
  6 51  1  0
  7 52  1  0
  7 53  1  0
 11 54  1  0
 12 55  1  0
 14 56  1  0
 14 57  1  0
 15 58  1  0
 18 59  1  0
 20 60  1  0
 21 61  1  0
 23 62  1  0
 23 63  1  0
 23 64  1  0
 24 65  1  0
 25 66  1  0
 27 67  1  0
 28 68  1  0
 30 69  1  0
 32 70  1  0
 32 71  1  0
 32 72  1  0
 37 73  1  0
M  END
$$$$
[H]c1c([H])c(-c2c([H])c(C(F)(F)F)c([H])c([H])c2C([H])([H])N([H])C(=O)C([H])(c2c([H])c([H])c(N([H])S(=O)(=O)C([H])([H])[H])c(F)c2[H])C([H])([H])[H])c([H])c([H])c1OC([H])([H])C([H])([H])C([H])([H])[H]
     RDKit          3D

 66 68  0  0  0  0  0  0  0  0999 V2000
   -8.3971   -0.9362    2.4914 C   0  0  0  0  0  0  0  0  0  0  0  0
   -8.0037   -0.1551    3.6806 C   0  0  0  0  0  0  0  0  0  0  0  0
   -6.5382   -0.2479    4.0173 C   0  0  0  0  0  0  0  0  0  0  0  0
   -5.6026    0.1570    3.1806 O   0  0  0  0  0  0  0  0  0  0  0  0
   -4.9217    0.1180    2.0533 C   0  0  0  0  0  0  0  0  0  0  0  0
   -5.1186   -0.7876    1.0157 C   0  0  0  0  0  0  0  0  0  0  0  0
   -4.3492   -0.7221   -0.1193 C   0  0  0  0  0  0  0  0  0  0  0  0
   -3.3753    0.2136   -0.2797 C   0  0  0  0  0  0  0  0  0  0  0  0
   -3.1810    1.1023    0.7445 C   0  0  0  0  0  0  0  0  0  0  0  0
   -3.9052    1.0907    1.8869 C   0  0  0  0  0  0  0  0  0  0  0  0
   -2.6090    0.3509   -1.5080 C   0  0  0  0  0  0  0  0  0  0  0  0
   -3.2174    0.9568   -2.6220 C   0  0  0  0  0  0  0  0  0  0  0  0
   -2.5664    1.1632   -3.8146 C   0  0  0  0  0  0  0  0  0  0  0  0
   -1.2522    0.7388   -3.8896 C   0  0  0  0  0  0  0  0  0  0  0  0
   -0.6003    0.1275   -2.8082 C   0  0  0  0  0  0  0  0  0  0  0  0
   -1.2924   -0.0575   -1.6329 C   0  0  0  0  0  0  0  0  0  0  0  0
   -0.6608   -0.7473   -0.4774 C   0  0  0  0  0  0  0  0  0  0  0  0
    0.6666   -1.1613   -0.6033 N   0  0  0  0  0  0  0  0  0  0  0  0
    1.9172   -0.5667   -0.7708 C   0  0  0  0  0  0  0  0  0  0  0  0
    2.0132    0.6803   -0.7799 O   0  0  0  0  0  0  0  0  0  0  0  0
    3.1104   -1.4001   -0.9297 C   0  0  0  0  0  0  0  0  0  0  0  0
    3.1812   -1.7683   -2.4314 C   0  0  0  0  0  0  0  0  0  0  0  0
    4.3880   -0.8154   -0.5676 C   0  0  0  0  0  0  0  0  0  0  0  0
    4.8176    0.4591   -0.7740 C   0  0  0  0  0  0  0  0  0  0  0  0
    6.0982    0.9215   -0.4154 C   0  0  0  0  0  0  0  0  0  0  0  0
    6.9977    0.0535    0.1790 C   0  0  0  0  0  0  0  0  0  0  0  0
    8.3237    0.4208    0.5273 N   0  0  0  0  0  0  0  0  0  0  0  0
    8.6938    1.7540    1.5144 S   0  0  0  0  0  0  0  0  0  0  0  0
    8.0002    1.5495    3.1280 C   0  0  0  0  0  0  0  0  0  0  0  0
   10.1971    1.8621    1.6207 O   0  0  0  0  0  0  0  0  0  0  0  0
    8.1454    3.0385    0.8923 O   0  0  0  0  0  0  0  0  0  0  0  0
    6.5751   -1.2605    0.4008 C   0  0  0  0  0  0  0  0  0  0  0  0
    7.4931   -2.0886    0.9863 F   0  0  0  0  0  0  0  0  0  0  0  0
    5.3421   -1.6787    0.0511 C   0  0  0  0  0  0  0  0  0  0  0  0
   -3.2656    1.7976   -4.9642 C   0  0  0  0  0  0  0  0  0  0  0  0
   -3.8440    2.9896   -4.6159 F   0  0  0  0  0  0  0  0  0  0  0  0
   -2.3945    2.0349   -6.0037 F   0  0  0  0  0  0  0  0  0  0  0  0
   -4.2179    0.9271   -5.5025 F   0  0  0  0  0  0  0  0  0  0  0  0
   -8.1435   -0.3444    1.5615 H   0  0  0  0  0  0  0  0  0  0  0  0
   -7.8289   -1.8885    2.4907 H   0  0  0  0  0  0  0  0  0  0  0  0
   -9.4602   -1.1841    2.4287 H   0  0  0  0  0  0  0  0  0  0  0  0
   -8.3052    0.8826    3.5393 H   0  0  0  0  0  0  0  0  0  0  0  0
   -8.6242   -0.5056    4.5678 H   0  0  0  0  0  0  0  0  0  0  0  0
   -6.4453    0.3420    4.9994 H   0  0  0  0  0  0  0  0  0  0  0  0
   -6.3842   -1.3102    4.4116 H   0  0  0  0  0  0  0  0  0  0  0  0
   -5.8760   -1.5660    1.1265 H   0  0  0  0  0  0  0  0  0  0  0  0
   -4.5652   -1.4724   -0.8942 H   0  0  0  0  0  0  0  0  0  0  0  0
   -2.3954    1.8836    0.6806 H   0  0  0  0  0  0  0  0  0  0  0  0
   -3.7246    1.8171    2.6799 H   0  0  0  0  0  0  0  0  0  0  0  0
   -4.2450    1.2738   -2.5297 H   0  0  0  0  0  0  0  0  0  0  0  0
   -0.7224    0.8881   -4.8005 H   0  0  0  0  0  0  0  0  0  0  0  0
    0.4067   -0.1981   -2.8973 H   0  0  0  0  0  0  0  0  0  0  0  0
   -0.7938   -0.1746    0.4747 H   0  0  0  0  0  0  0  0  0  0  0  0
   -1.3122   -1.6679   -0.2735 H   0  0  0  0  0  0  0  0  0  0  0  0
    0.7821   -2.2730   -0.5634 H   0  0  0  0  0  0  0  0  0  0  0  0
    2.9985   -2.3934   -0.4204 H   0  0  0  0  0  0  0  0  0  0  0  0
    2.1974   -2.0823   -2.7846 H   0  0  0  0  0  0  0  0  0  0  0  0
    3.4635   -0.8739   -3.0223 H   0  0  0  0  0  0  0  0  0  0  0  0
    3.9456   -2.5219   -2.5956 H   0  0  0  0  0  0  0  0  0  0  0  0
    4.1935    1.1973   -1.2396 H   0  0  0  0  0  0  0  0  0  0  0  0
    6.3982    1.9272   -0.5812 H   0  0  0  0  0  0  0  0  0  0  0  0
    9.0648   -0.2178    0.1011 H   0  0  0  0  0  0  0  0  0  0  0  0
    6.9148    1.5076    3.1060 H   0  0  0  0  0  0  0  0  0  0  0  0
    8.4199    0.5998    3.5451 H   0  0  0  0  0  0  0  0  0  0  0  0
    8.3426    2.3799    3.7944 H   0  0  0  0  0  0  0  0  0  0  0  0
    5.0511   -2.6918    0.2348 H   0  0  0  0  0  0  0  0  0  0  0  0
  1  2  1  0
  2  3  1  0
  3  4  1  0
  4  5  1  0
  5  6  2  0
  6  7  1  0
  7  8  2  0
  8  9  1  0
  9 10  2  0
  8 11  1  0
 11 12  2  0
 12 13  1  0
 13 14  2  0
 14 15  1  0
 15 16  2  0
 16 17  1  0
 17 18  1  0
 18 19  1  0
 19 20  2  0
 19 21  1  0
 21 22  1  0
 21 23  1  0
 23 24  2  0
 24 25  1  0
 25 26  2  0
 26 27  1  0
 27 28  1  0
 28 29  1  0
 28 30  2  0
 28 31  2  0
 26 32  1  0
 32 33  1  0
 32 34  2  0
 13 35  1  0
 35 36  1  0
 35 37  1  0
 35 38  1  0
 10  5  1  0
 16 11  1  0
 34 23  1  0
  1 39  1  0
  1 40  1  0
  1 41  1  0
  2 42  1  0
  2 43  1  0
  3 44  1  0
  3 45  1  0
  6 46  1  0
  7 47  1  0
  9 48  1  0
 10 49  1  0
 12 50  1  0
 14 51  1  0
 15 52  1  0
 17 53  1  0
 17 54  1  0
 18 55  1  0
 21 56  1  0
 22 57  1  0
 22 58  1  0
 22 59  1  0
 24 60  1  0
 25 61  1  0
 27 62  1  0
 29 63  1  0
 29 64  1  0
 29 65  1  0
 34 66  1  0
M  END
$$$$
[H]c1nc([H])c2c([H])c([H])c([H])c(N([H])C(=O)N([H])[C@@]3([H])C([H])([H])c4c(OC([H])([H])c5c([H])c([H])c([H])c([H])c5[H])c([H])c([H])c([H])c4C([H])([H])C3([H])[H])c2c1[H]
     RDKit          3D

 57 61  0  0  0  0  0  0  0  0999 V2000
   -2.5386   -0.4993   -1.3671 O   0  0  0  0  0  0  0  0  0  0  0  0
   -2.6061   -0.7510   -0.1624 C   0  0  0  0  0  0  0  0  0  0  0  0
   -1.3738   -1.2225    0.4230 N   0  0  0  0  0  0  0  0  0  0  0  0
   -0.1583   -1.4010   -0.2752 C   0  0  2  0  0  0  0  0  0  0  0  0
    0.3901   -2.7982   -0.2545 C   0  0  0  0  0  0  0  0  0  0  0  0
    1.2846   -2.9096   -1.4988 C   0  0  0  0  0  0  0  0  0  0  0  0
    2.2166   -1.7453   -1.5515 C   0  0  0  0  0  0  0  0  0  0  0  0
    3.2707   -1.8313   -2.4537 C   0  0  0  0  0  0  0  0  0  0  0  0
    4.1826   -0.8045   -2.5729 C   0  0  0  0  0  0  0  0  0  0  0  0
    4.0393    0.3077   -1.7891 C   0  0  0  0  0  0  0  0  0  0  0  0
    2.9864    0.4015   -0.8824 C   0  0  0  0  0  0  0  0  0  0  0  0
    2.7878    1.4894   -0.0712 O   0  0  0  0  0  0  0  0  0  0  0  0
    3.5775    2.6292   -0.0027 C   0  0  0  0  0  0  0  0  0  0  0  0
    4.9616    2.2930    0.4629 C   0  0  0  0  0  0  0  0  0  0  0  0
    5.1280    1.1536    1.2002 C   0  0  0  0  0  0  0  0  0  0  0  0
    6.3859    0.8228    1.6448 C   0  0  0  0  0  0  0  0  0  0  0  0
    7.4819    1.6212    1.3592 C   0  0  0  0  0  0  0  0  0  0  0  0
    7.2755    2.7695    0.6087 C   0  0  0  0  0  0  0  0  0  0  0  0
    6.0280    3.1029    0.1646 C   0  0  0  0  0  0  0  0  0  0  0  0
    2.0640   -0.6352   -0.7612 C   0  0  0  0  0  0  0  0  0  0  0  0
    0.9629   -0.4862    0.2170 C   0  0  0  0  0  0  0  0  0  0  0  0
   -3.7713   -0.6001    0.5987 N   0  0  0  0  0  0  0  0  0  0  0  0
   -5.0159   -0.1558    0.1139 C   0  0  0  0  0  0  0  0  0  0  0  0
   -5.2910    0.1111   -1.2188 C   0  0  0  0  0  0  0  0  0  0  0  0
   -6.5341    0.5294   -1.6549 C   0  0  0  0  0  0  0  0  0  0  0  0
   -7.5226    0.6838   -0.7399 C   0  0  0  0  0  0  0  0  0  0  0  0
   -7.2793    0.4246    0.6030 C   0  0  0  0  0  0  0  0  0  0  0  0
   -8.3155    0.5962    1.5130 C   0  0  0  0  0  0  0  0  0  0  0  0
   -8.1027    0.3567    2.7988 N   0  0  0  0  0  0  0  0  0  0  0  0
   -6.9251   -0.0481    3.2777 C   0  0  0  0  0  0  0  0  0  0  0  0
   -5.8693   -0.2252    2.3661 C   0  0  0  0  0  0  0  0  0  0  0  0
   -6.0580    0.0134    1.0344 C   0  0  0  0  0  0  0  0  0  0  0  0
   -1.4093   -1.4421    1.4418 H   0  0  0  0  0  0  0  0  0  0  0  0
   -0.3228   -1.1062   -1.3528 H   0  0  0  0  0  0  0  0  0  0  0  0
   -0.3683   -3.5800   -0.3515 H   0  0  0  0  0  0  0  0  0  0  0  0
    1.0708   -2.9239    0.6123 H   0  0  0  0  0  0  0  0  0  0  0  0
    0.5735   -2.8183   -2.3648 H   0  0  0  0  0  0  0  0  0  0  0  0
    1.7855   -3.8716   -1.5654 H   0  0  0  0  0  0  0  0  0  0  0  0
    3.4096   -2.6921   -3.0823 H   0  0  0  0  0  0  0  0  0  0  0  0
    5.0150   -0.8384   -3.2651 H   0  0  0  0  0  0  0  0  0  0  0  0
    4.7531    1.1195   -1.8927 H   0  0  0  0  0  0  0  0  0  0  0  0
    3.6804    3.0471   -1.0276 H   0  0  0  0  0  0  0  0  0  0  0  0
    3.1483    3.4167    0.6512 H   0  0  0  0  0  0  0  0  0  0  0  0
    4.3120    0.5125    1.4415 H   0  0  0  0  0  0  0  0  0  0  0  0
    6.5770   -0.0747    2.2368 H   0  0  0  0  0  0  0  0  0  0  0  0
    8.4587    1.3366    1.7216 H   0  0  0  0  0  0  0  0  0  0  0  0
    8.1532    3.3902    0.3915 H   0  0  0  0  0  0  0  0  0  0  0  0
    5.8866    4.0029   -0.4196 H   0  0  0  0  0  0  0  0  0  0  0  0
    0.6298    0.5487    0.3598 H   0  0  0  0  0  0  0  0  0  0  0  0
    1.3120   -0.9129    1.1974 H   0  0  0  0  0  0  0  0  0  0  0  0
   -3.6680   -0.8634    1.6393 H   0  0  0  0  0  0  0  0  0  0  0  0
   -4.5295   -0.0064   -1.9763 H   0  0  0  0  0  0  0  0  0  0  0  0
   -6.6553    0.7132   -2.7102 H   0  0  0  0  0  0  0  0  0  0  0  0
   -8.4925    1.0085   -1.0702 H   0  0  0  0  0  0  0  0  0  0  0  0
   -9.2669    0.9239    1.1219 H   0  0  0  0  0  0  0  0  0  0  0  0
   -6.7548   -0.2414    4.3173 H   0  0  0  0  0  0  0  0  0  0  0  0
   -4.9604   -0.5458    2.8163 H   0  0  0  0  0  0  0  0  0  0  0  0
  1  2  2  0
  2  3  1  0
  3  4  1  0
  4  5  1  0
  5  6  1  0
  6  7  1  0
  7  8  2  0
  8  9  1  0
  9 10  2  0
 10 11  1  0
 11 12  1  0
 12 13  1  0
 13 14  1  0
 14 15  2  0
 15 16  1  0
 16 17  2  0
 17 18  1  0
 18 19  2  0
 11 20  2  0
 20 21  1  0
  2 22  1  0
 22 23  1  0
 23 24  2  0
 24 25  1  0
 25 26  2  0
 26 27  1  0
 27 28  2  0
 28 29  1  0
 29 30  2  0
 30 31  1  0
 31 32  2  0
 21  4  1  0
 32 23  1  0
 20  7  1  0
 32 27  1  0
 19 14  1  0
  3 33  1  0
  4 34  1  6
  5 35  1  0
  5 36  1  0
  6 37  1  0
  6 38  1  0
  8 39  1  0
  9 40  1  0
 10 41  1  0
 13 42  1  0
 13 43  1  0
 15 44  1  0
 16 45  1  0
 17 46  1  0
 18 47  1  0
 19 48  1  0
 21 49  1  0
 21 50  1  0
 22 51  1  0
 24 52  1  0
 25 53  1  0
 26 54  1  0
 28 55  1  0
 30 56  1  0
 31 57  1  0
M  END
$$$$
[H]c1c(C(C([H])([H])[H])(C([H])([H])[H])C([H])([H])[H])nc(N2C([H])([H])C([H])([H])C([H])([H])C2([H])[H])c(C([H])([H])N([H])C(=O)C([H])(c2c([H])c([H])c(N([H])S(=O)(=O)C([H])([H])[H])c(F)c2[H])C([H])([H])[H])c1[H]
     RDKit          3D

 66 68  0  0  0  0  0  0  0  0999 V2000
    3.0475    1.8661    2.4730 C   0  0  0  0  0  0  0  0  0  0  0  0
    2.5796    1.3713    1.1126 C   0  0  0  0  0  0  0  0  0  0  0  0
    1.3226    0.6166    1.2020 C   0  0  0  0  0  0  0  0  0  0  0  0
    1.1523   -0.4677    0.6502 O   0  0  0  0  0  0  0  0  0  0  0  0
    0.2577    1.1971    1.9825 N   0  0  0  0  0  0  0  0  0  0  0  0
   -0.9975    0.5194    2.1460 C   0  0  0  0  0  0  0  0  0  0  0  0
   -1.7901    0.5411    0.9191 C   0  0  0  0  0  0  0  0  0  0  0  0
   -1.3614    1.2444   -0.1766 C   0  0  0  0  0  0  0  0  0  0  0  0
   -2.1768    1.2817   -1.3115 C   0  0  0  0  0  0  0  0  0  0  0  0
   -3.3792    0.6147   -1.2959 C   0  0  0  0  0  0  0  0  0  0  0  0
   -3.7679   -0.0579   -0.2161 N   0  0  0  0  0  0  0  0  0  0  0  0
   -3.0111   -0.1322    0.9251 C   0  0  0  0  0  0  0  0  0  0  0  0
   -3.4502   -0.8759    2.0360 N   0  0  0  0  0  0  0  0  0  0  0  0
   -3.7419   -0.4960    3.4051 C   0  0  0  0  0  0  0  0  0  0  0  0
   -5.0068   -1.2814    3.6674 C   0  0  0  0  0  0  0  0  0  0  0  0
   -5.0906   -2.3655    2.6093 C   0  0  0  0  0  0  0  0  0  0  0  0
   -3.7003   -2.3055    1.9824 C   0  0  0  0  0  0  0  0  0  0  0  0
   -4.2405    0.6851   -2.4948 C   0  0  0  0  0  0  0  0  0  0  0  0
   -4.2308   -0.6459   -3.2678 C   0  0  0  0  0  0  0  0  0  0  0  0
   -5.6832    0.9411   -2.0758 C   0  0  0  0  0  0  0  0  0  0  0  0
   -3.8589    1.8021   -3.4307 C   0  0  0  0  0  0  0  0  0  0  0  0
    3.6838    0.5729    0.5223 C   0  0  0  0  0  0  0  0  0  0  0  0
    4.4908    1.1161   -0.4449 C   0  0  0  0  0  0  0  0  0  0  0  0
    5.5384    0.3685   -0.9723 C   0  0  0  0  0  0  0  0  0  0  0  0
    5.7798   -0.9024   -0.5382 C   0  0  0  0  0  0  0  0  0  0  0  0
    6.8395   -1.7018   -1.0243 N   0  0  0  0  0  0  0  0  0  0  0  0
    8.1241   -1.1304   -1.9720 S   0  0  0  0  0  0  0  0  0  0  0  0
    7.5751   -0.4819   -3.5105 C   0  0  0  0  0  0  0  0  0  0  0  0
    9.0886   -2.2777   -2.2742 O   0  0  0  0  0  0  0  0  0  0  0  0
    8.9673   -0.0994   -1.2557 O   0  0  0  0  0  0  0  0  0  0  0  0
    4.9558   -1.4582    0.4510 C   0  0  0  0  0  0  0  0  0  0  0  0
    5.1894   -2.7183    0.9014 F   0  0  0  0  0  0  0  0  0  0  0  0
    3.9212   -0.7262    0.9730 C   0  0  0  0  0  0  0  0  0  0  0  0
    4.1417    1.7249    2.5778 H   0  0  0  0  0  0  0  0  0  0  0  0
    2.7722    2.9074    2.6347 H   0  0  0  0  0  0  0  0  0  0  0  0
    2.5876    1.1968    3.2183 H   0  0  0  0  0  0  0  0  0  0  0  0
    2.4244    2.3021    0.4848 H   0  0  0  0  0  0  0  0  0  0  0  0
    0.3846    2.1185    2.4411 H   0  0  0  0  0  0  0  0  0  0  0  0
   -0.7673   -0.5619    2.3944 H   0  0  0  0  0  0  0  0  0  0  0  0
   -1.5515    0.8949    3.0361 H   0  0  0  0  0  0  0  0  0  0  0  0
   -0.4291    1.8031   -0.2401 H   0  0  0  0  0  0  0  0  0  0  0  0
   -1.8858    1.8358   -2.1976 H   0  0  0  0  0  0  0  0  0  0  0  0
   -3.8583    0.5696    3.5443 H   0  0  0  0  0  0  0  0  0  0  0  0
   -2.9748   -0.9059    4.1278 H   0  0  0  0  0  0  0  0  0  0  0  0
   -5.8859   -0.6282    3.6744 H   0  0  0  0  0  0  0  0  0  0  0  0
   -4.9689   -1.7476    4.6964 H   0  0  0  0  0  0  0  0  0  0  0  0
   -5.3180   -3.3372    3.0472 H   0  0  0  0  0  0  0  0  0  0  0  0
   -5.8606   -2.0368    1.8510 H   0  0  0  0  0  0  0  0  0  0  0  0
   -3.7140   -2.6981    0.9510 H   0  0  0  0  0  0  0  0  0  0  0  0
   -2.9838   -2.8290    2.6121 H   0  0  0  0  0  0  0  0  0  0  0  0
   -3.9421   -1.4139   -2.5242 H   0  0  0  0  0  0  0  0  0  0  0  0
   -3.4720   -0.5835   -4.0917 H   0  0  0  0  0  0  0  0  0  0  0  0
   -5.2234   -0.8182   -3.6812 H   0  0  0  0  0  0  0  0  0  0  0  0
   -5.6732    1.8336   -1.4343 H   0  0  0  0  0  0  0  0  0  0  0  0
   -6.0374    0.0547   -1.5450 H   0  0  0  0  0  0  0  0  0  0  0  0
   -6.2440    1.1173   -3.0230 H   0  0  0  0  0  0  0  0  0  0  0  0
   -3.0226    1.5171   -4.1133 H   0  0  0  0  0  0  0  0  0  0  0  0
   -3.6587    2.7079   -2.8323 H   0  0  0  0  0  0  0  0  0  0  0  0
   -4.7855    2.0386   -4.0251 H   0  0  0  0  0  0  0  0  0  0  0  0
    4.3548    2.1096   -0.8404 H   0  0  0  0  0  0  0  0  0  0  0  0
    6.1967    0.7960   -1.7352 H   0  0  0  0  0  0  0  0  0  0  0  0
    6.8151   -2.7480   -0.7702 H   0  0  0  0  0  0  0  0  0  0  0  0
    6.4709   -0.6786   -3.6443 H   0  0  0  0  0  0  0  0  0  0  0  0
    7.7643    0.6047   -3.6359 H   0  0  0  0  0  0  0  0  0  0  0  0
    8.0611   -0.9991   -4.3900 H   0  0  0  0  0  0  0  0  0  0  0  0
    3.2569   -1.0990    1.7352 H   0  0  0  0  0  0  0  0  0  0  0  0
  1  2  1  0
  2  3  1  0
  3  4  2  0
  3  5  1  0
  5  6  1  0
  6  7  1  0
  7  8  2  0
  8  9  1  0
  9 10  2  0
 10 11  1  0
 11 12  2  0
 12 13  1  0
 13 14  1  0
 14 15  1  0
 15 16  1  0
 16 17  1  0
 10 18  1  0
 18 19  1  0
 18 20  1  0
 18 21  1  0
  2 22  1  0
 22 23  2  0
 23 24  1  0
 24 25  2  0
 25 26  1  0
 26 27  1  0
 27 28  1  0
 27 29  2  0
 27 30  2  0
 25 31  1  0
 31 32  1  0
 31 33  2  0
 12  7  1  0
 17 13  1  0
 33 22  1  0
  1 34  1  0
  1 35  1  0
  1 36  1  0
  2 37  1  0
  5 38  1  0
  6 39  1  0
  6 40  1  0
  8 41  1  0
  9 42  1  0
 14 43  1  0
 14 44  1  0
 15 45  1  0
 15 46  1  0
 16 47  1  0
 16 48  1  0
 17 49  1  0
 17 50  1  0
 19 51  1  0
 19 52  1  0
 19 53  1  0
 20 54  1  0
 20 55  1  0
 20 56  1  0
 21 57  1  0
 21 58  1  0
 21 59  1  0
 23 60  1  0
 24 61  1  0
 26 62  1  0
 28 63  1  0
 28 64  1  0
 28 65  1  0
 33 66  1  0
M  END
$$$$
[H]c1c(C(F)(F)F)nc(-c2c([H])c([H])c(F)c(F)c2[H])c(C([H])([H])N([H])C(=O)C([H])(c2c([H])c([H])c(N([H])S(=O)(=O)C([H])([H])[H])c(F)c2[H])C([H])([H])[H])c1[H]
     RDKit          3D

 55 57  0  0  0  0  0  0  0  0999 V2000
    1.0563   -0.7695   -3.0402 C   0  0  0  0  0  0  0  0  0  0  0  0
    1.3801    0.2198   -1.9747 C   0  0  0  0  0  0  0  0  0  0  0  0
    0.3652    0.0306   -0.8791 C   0  0  0  0  0  0  0  0  0  0  0  0
    0.6343   -0.6726    0.1054 O   0  0  0  0  0  0  0  0  0  0  0  0
   -0.8630    0.6954   -1.0274 N   0  0  0  0  0  0  0  0  0  0  0  0
   -2.0081    0.7313   -0.1870 C   0  0  0  0  0  0  0  0  0  0  0  0
   -2.8343   -0.4499   -0.0301 C   0  0  0  0  0  0  0  0  0  0  0  0
   -2.5154   -1.6521   -0.5867 C   0  0  0  0  0  0  0  0  0  0  0  0
   -3.3822   -2.7054   -0.3851 C   0  0  0  0  0  0  0  0  0  0  0  0
   -4.5108   -2.5260    0.3465 C   0  0  0  0  0  0  0  0  0  0  0  0
   -4.8101   -1.3061    0.9006 N   0  0  0  0  0  0  0  0  0  0  0  0
   -4.0082   -0.2740    0.7295 C   0  0  0  0  0  0  0  0  0  0  0  0
   -4.3964    1.0397    1.2393 C   0  0  0  0  0  0  0  0  0  0  0  0
   -3.7375    1.7847    2.1461 C   0  0  0  0  0  0  0  0  0  0  0  0
   -4.1835    3.0618    2.4399 C   0  0  0  0  0  0  0  0  0  0  0  0
   -5.2928    3.5957    1.8296 C   0  0  0  0  0  0  0  0  0  0  0  0
   -5.7462    4.8365    2.0874 F   0  0  0  0  0  0  0  0  0  0  0  0
   -5.9753    2.8485    0.9049 C   0  0  0  0  0  0  0  0  0  0  0  0
   -7.0815    3.3448    0.2741 F   0  0  0  0  0  0  0  0  0  0  0  0
   -5.5292    1.5911    0.6210 C   0  0  0  0  0  0  0  0  0  0  0  0
   -5.4927   -3.5824    0.5985 C   0  0  0  0  0  0  0  0  0  0  0  0
   -5.8897   -3.4723    1.9376 F   0  0  0  0  0  0  0  0  0  0  0  0
   -6.6263   -3.4170   -0.2042 F   0  0  0  0  0  0  0  0  0  0  0  0
   -4.9604   -4.7973    0.3094 F   0  0  0  0  0  0  0  0  0  0  0  0
    2.7755    0.1401   -1.5174 C   0  0  0  0  0  0  0  0  0  0  0  0
    3.6315   -0.9046   -1.7623 C   0  0  0  0  0  0  0  0  0  0  0  0
    4.9666   -0.8957   -1.3365 C   0  0  0  0  0  0  0  0  0  0  0  0
    5.3722    0.2455   -0.6381 C   0  0  0  0  0  0  0  0  0  0  0  0
    6.7231    0.3386   -0.2584 N   0  0  0  0  0  0  0  0  0  0  0  0
    7.4603   -0.6590    0.9200 S   0  0  0  0  0  0  0  0  0  0  0  0
    6.6435   -0.3650    2.4746 C   0  0  0  0  0  0  0  0  0  0  0  0
    8.9482   -0.3366    1.0613 O   0  0  0  0  0  0  0  0  0  0  0  0
    7.3111   -2.1256    0.6259 O   0  0  0  0  0  0  0  0  0  0  0  0
    4.5223    1.3027   -0.3748 C   0  0  0  0  0  0  0  0  0  0  0  0
    4.9861    2.3883    0.3232 F   0  0  0  0  0  0  0  0  0  0  0  0
    3.2357    1.2634   -0.8059 C   0  0  0  0  0  0  0  0  0  0  0  0
    0.0090   -0.5765   -3.3900 H   0  0  0  0  0  0  0  0  0  0  0  0
    1.0951   -1.8185   -2.6452 H   0  0  0  0  0  0  0  0  0  0  0  0
    1.7855   -0.7045   -3.8578 H   0  0  0  0  0  0  0  0  0  0  0  0
    1.2061    1.2761   -2.3651 H   0  0  0  0  0  0  0  0  0  0  0  0
   -0.9294    1.2786   -1.9454 H   0  0  0  0  0  0  0  0  0  0  0  0
   -1.5420    0.9811    0.8600 H   0  0  0  0  0  0  0  0  0  0  0  0
   -2.6240    1.6576   -0.3696 H   0  0  0  0  0  0  0  0  0  0  0  0
   -1.6194   -1.8251   -1.1859 H   0  0  0  0  0  0  0  0  0  0  0  0
   -3.1599   -3.6691   -0.8137 H   0  0  0  0  0  0  0  0  0  0  0  0
   -2.8877    1.3827    2.6387 H   0  0  0  0  0  0  0  0  0  0  0  0
   -3.6883    3.7046    3.1545 H   0  0  0  0  0  0  0  0  0  0  0  0
   -6.0811    1.0142   -0.1158 H   0  0  0  0  0  0  0  0  0  0  0  0
    3.2765   -1.7597   -2.3038 H   0  0  0  0  0  0  0  0  0  0  0  0
    5.6470   -1.7230   -1.5374 H   0  0  0  0  0  0  0  0  0  0  0  0
    7.2784    1.0905   -0.7503 H   0  0  0  0  0  0  0  0  0  0  0  0
    5.6856   -0.9113    2.5024 H   0  0  0  0  0  0  0  0  0  0  0  0
    7.3189   -0.7862    3.2450 H   0  0  0  0  0  0  0  0  0  0  0  0
    6.5199    0.7387    2.6065 H   0  0  0  0  0  0  0  0  0  0  0  0
    2.5411    2.1024   -0.5941 H   0  0  0  0  0  0  0  0  0  0  0  0
  1  2  1  0
  2  3  1  0
  3  4  2  0
  3  5  1  0
  5  6  1  0
  6  7  1  0
  7  8  2  0
  8  9  1  0
  9 10  2  0
 10 11  1  0
 11 12  2  0
 12 13  1  0
 13 14  2  0
 14 15  1  0
 15 16  2  0
 16 17  1  0
 16 18  1  0
 18 19  1  0
 18 20  2  0
 10 21  1  0
 21 22  1  0
 21 23  1  0
 21 24  1  0
  2 25  1  0
 25 26  2  0
 26 27  1  0
 27 28  2  0
 28 29  1  0
 29 30  1  0
 30 31  1  0
 30 32  2  0
 30 33  2  0
 28 34  1  0
 34 35  1  0
 34 36  2  0
 12  7  1  0
 20 13  1  0
 36 25  1  0
  1 37  1  0
  1 38  1  0
  1 39  1  0
  2 40  1  0
  5 41  1  0
  6 42  1  0
  6 43  1  0
  8 44  1  0
  9 45  1  0
 14 46  1  0
 15 47  1  0
 20 48  1  0
 26 49  1  0
 27 50  1  0
 29 51  1  0
 31 52  1  0
 31 53  1  0
 31 54  1  0
 36 55  1  0
M  END
$$$$
[H]c1c(C(C([H])([H])[H])(C([H])([H])[H])C([H])([H])[H])nc(N2C([H])([H])C([H])([H])C([H])(C([H])([H])[H])C([H])([H])C2([H])[H])c(C([H])([H])N([H])C(=O)C([H])(c2c([H])c([H])c(N([H])S(=O)(=O)C([H])([H])[H])c(F)c2[H])C([H])([H])[H])c1[H]
     RDKit          3D

 72 74  0  0  0  0  0  0  0  0999 V2000
   -5.4285    4.9326    0.6517 C   0  0  0  0  0  0  0  0  0  0  0  0
   -4.4632    3.8927    0.1131 C   0  0  0  0  0  0  0  0  0  0  0  0
   -5.1980    2.6556   -0.3784 C   0  0  0  0  0  0  0  0  0  0  0  0
   -4.2111    1.9179   -1.2370 C   0  0  0  0  0  0  0  0  0  0  0  0
   -3.0269    1.5414   -0.4020 N   0  0  0  0  0  0  0  0  0  0  0  0
   -2.4354    2.5864    0.3485 C   0  0  0  0  0  0  0  0  0  0  0  0
   -3.4582    3.4303    1.1402 C   0  0  0  0  0  0  0  0  0  0  0  0
   -2.7168    0.1869   -0.5317 C   0  0  0  0  0  0  0  0  0  0  0  0
   -3.6740   -0.7747   -0.1960 N   0  0  0  0  0  0  0  0  0  0  0  0
   -3.4167   -2.0808   -0.3726 C   0  0  0  0  0  0  0  0  0  0  0  0
   -2.2304   -2.5634   -0.8930 C   0  0  0  0  0  0  0  0  0  0  0  0
   -1.2612   -1.6480   -1.2323 C   0  0  0  0  0  0  0  0  0  0  0  0
   -1.5861   -0.2835   -1.0126 C   0  0  0  0  0  0  0  0  0  0  0  0
   -0.3954    0.5952   -1.3427 C   0  0  0  0  0  0  0  0  0  0  0  0
    0.6210   -0.2663   -0.7201 N   0  0  0  0  0  0  0  0  0  0  0  0
    1.9774   -0.4144   -0.8100 C   0  0  0  0  0  0  0  0  0  0  0  0
    2.5733    0.2828   -1.6275 O   0  0  0  0  0  0  0  0  0  0  0  0
    2.6628   -1.4329    0.1419 C   0  0  0  0  0  0  0  0  0  0  0  0
    1.9948   -1.1437    1.4722 C   0  0  0  0  0  0  0  0  0  0  0  0
    4.0980   -1.0926    0.1535 C   0  0  0  0  0  0  0  0  0  0  0  0
    4.7166   -0.6835   -0.9914 C   0  0  0  0  0  0  0  0  0  0  0  0
    6.0023   -0.0999   -0.9045 C   0  0  0  0  0  0  0  0  0  0  0  0
    6.6480    0.0599    0.2550 C   0  0  0  0  0  0  0  0  0  0  0  0
    7.8059    0.7963    0.5890 N   0  0  0  0  0  0  0  0  0  0  0  0
    9.4368    0.7411    0.4033 S   0  0  0  0  0  0  0  0  0  0  0  0
   10.0462    0.8556   -1.2319 C   0  0  0  0  0  0  0  0  0  0  0  0
    9.9755   -0.5486    1.0597 O   0  0  0  0  0  0  0  0  0  0  0  0
   10.1248    1.9165    1.1889 O   0  0  0  0  0  0  0  0  0  0  0  0
    5.9575   -0.4057    1.4155 C   0  0  0  0  0  0  0  0  0  0  0  0
    6.6115   -0.2938    2.6060 F   0  0  0  0  0  0  0  0  0  0  0  0
    4.7344   -0.9647    1.4066 C   0  0  0  0  0  0  0  0  0  0  0  0
   -4.3014   -3.1642    0.1738 C   0  0  0  0  0  0  0  0  0  0  0  0
   -5.2319   -2.4949    1.1287 C   0  0  0  0  0  0  0  0  0  0  0  0
   -3.3818   -4.1182    0.9442 C   0  0  0  0  0  0  0  0  0  0  0  0
   -4.9732   -3.8297   -0.9844 C   0  0  0  0  0  0  0  0  0  0  0  0
   -5.1514    5.9182    0.2138 H   0  0  0  0  0  0  0  0  0  0  0  0
   -5.3581    5.0170    1.7484 H   0  0  0  0  0  0  0  0  0  0  0  0
   -6.4750    4.7106    0.3137 H   0  0  0  0  0  0  0  0  0  0  0  0
   -3.9063    4.2618   -0.7873 H   0  0  0  0  0  0  0  0  0  0  0  0
   -6.0889    2.8675   -0.9735 H   0  0  0  0  0  0  0  0  0  0  0  0
   -5.3905    2.0306    0.5358 H   0  0  0  0  0  0  0  0  0  0  0  0
   -4.7499    0.9745   -1.5530 H   0  0  0  0  0  0  0  0  0  0  0  0
   -3.8944    2.4335   -2.1257 H   0  0  0  0  0  0  0  0  0  0  0  0
   -1.5670    2.3542    0.9622 H   0  0  0  0  0  0  0  0  0  0  0  0
   -2.0384    3.3340   -0.4057 H   0  0  0  0  0  0  0  0  0  0  0  0
   -3.9074    2.8469    1.9590 H   0  0  0  0  0  0  0  0  0  0  0  0
   -2.9276    4.3586    1.4697 H   0  0  0  0  0  0  0  0  0  0  0  0
   -2.0369   -3.6033   -1.0939 H   0  0  0  0  0  0  0  0  0  0  0  0
   -0.3304   -1.9085   -1.7037 H   0  0  0  0  0  0  0  0  0  0  0  0
   -0.2502    0.5167   -2.4300 H   0  0  0  0  0  0  0  0  0  0  0  0
   -0.4384    1.5880   -1.0034 H   0  0  0  0  0  0  0  0  0  0  0  0
    0.1485   -0.8490    0.1103 H   0  0  0  0  0  0  0  0  0  0  0  0
    2.4829   -2.4218   -0.1704 H   0  0  0  0  0  0  0  0  0  0  0  0
    2.5055   -1.5038    2.3863 H   0  0  0  0  0  0  0  0  0  0  0  0
    1.8155   -0.0673    1.6276 H   0  0  0  0  0  0  0  0  0  0  0  0
    1.0295   -1.7361    1.4848 H   0  0  0  0  0  0  0  0  0  0  0  0
    4.3187   -0.8142   -2.0073 H   0  0  0  0  0  0  0  0  0  0  0  0
    6.4641    0.2277   -1.8184 H   0  0  0  0  0  0  0  0  0  0  0  0
    7.4532    1.7413    1.1418 H   0  0  0  0  0  0  0  0  0  0  0  0
    9.4000    0.3689   -1.9698 H   0  0  0  0  0  0  0  0  0  0  0  0
   10.0532    1.9528   -1.4904 H   0  0  0  0  0  0  0  0  0  0  0  0
   11.1068    0.4838   -1.2834 H   0  0  0  0  0  0  0  0  0  0  0  0
    4.2450   -1.3371    2.2866 H   0  0  0  0  0  0  0  0  0  0  0  0
   -6.0176   -3.2136    1.3944 H   0  0  0  0  0  0  0  0  0  0  0  0
   -4.6129   -2.1935    2.0085 H   0  0  0  0  0  0  0  0  0  0  0  0
   -5.6149   -1.5737    0.6335 H   0  0  0  0  0  0  0  0  0  0  0  0
   -4.0045   -4.5970    1.7106 H   0  0  0  0  0  0  0  0  0  0  0  0
   -2.6160   -3.4857    1.4511 H   0  0  0  0  0  0  0  0  0  0  0  0
   -2.8500   -4.8240    0.2709 H   0  0  0  0  0  0  0  0  0  0  0  0
   -5.0084   -4.9134   -0.8162 H   0  0  0  0  0  0  0  0  0  0  0  0
   -4.3946   -3.6252   -1.9411 H   0  0  0  0  0  0  0  0  0  0  0  0
   -5.9897   -3.4071   -1.0937 H   0  0  0  0  0  0  0  0  0  0  0  0
  1  2  1  0
  2  3  1  0
  3  4  1  0
  4  5  1  0
  5  6  1  0
  6  7  1  0
  5  8  1  0
  8  9  2  0
  9 10  1  0
 10 11  2  0
 11 12  1  0
 12 13  2  0
 13 14  1  0
 14 15  1  0
 15 16  1  0
 16 17  2  0
 16 18  1  0
 18 19  1  0
 18 20  1  0
 20 21  2  0
 21 22  1  0
 22 23  2  0
 23 24  1  0
 24 25  1  0
 25 26  1  0
 25 27  2  0
 25 28  2  0
 23 29  1  0
 29 30  1  0
 29 31  2  0
 10 32  1  0
 32 33  1  0
 32 34  1  0
 32 35  1  0
  7  2  1  0
 13  8  1  0
 31 20  1  0
  1 36  1  0
  1 37  1  0
  1 38  1  0
  2 39  1  0
  3 40  1  0
  3 41  1  0
  4 42  1  0
  4 43  1  0
  6 44  1  0
  6 45  1  0
  7 46  1  0
  7 47  1  0
 11 48  1  0
 12 49  1  0
 14 50  1  0
 14 51  1  0
 15 52  1  0
 18 53  1  0
 19 54  1  0
 19 55  1  0
 19 56  1  0
 21 57  1  0
 22 58  1  0
 24 59  1  0
 26 60  1  0
 26 61  1  0
 26 62  1  0
 31 63  1  0
 33 64  1  0
 33 65  1  0
 33 66  1  0
 34 67  1  0
 34 68  1  0
 34 69  1  0
 35 70  1  0
 35 71  1  0
 35 72  1  0
M  END
$$$$
[H]c1nc(N2C([H])([H])C([H])([H])c3nc(N4C([H])([H])C([H])([H])C([H])([H])C([H])([H])C([H])([H])C4([H])[H])nc(N([H])c4c([H])c([H])c(C(C([H])([H])[H])(C([H])([H])[H])C([H])([H])[H])c([H])c4[H])c3C([H])([H])C2([H])[H])c(C(F)(F)F)c([H])c1[H]
     RDKit          3D

 76 80  0  0  0  0  0  0  0  0999 V2000
    7.0037    0.1994    1.5705 C   0  0  0  0  0  0  0  0  0  0  0  0
    6.5558    0.1583    0.1143 C   0  0  0  0  0  0  0  0  0  0  0  0
    6.9622    1.4658   -0.5469 C   0  0  0  0  0  0  0  0  0  0  0  0
    7.3363   -0.9706   -0.5566 C   0  0  0  0  0  0  0  0  0  0  0  0
    5.1128   -0.1033    0.0139 C   0  0  0  0  0  0  0  0  0  0  0  0
    4.2152    0.8251   -0.4663 C   0  0  0  0  0  0  0  0  0  0  0  0
    2.8404    0.5337   -0.5739 C   0  0  0  0  0  0  0  0  0  0  0  0
    2.3434   -0.6826   -0.2063 C   0  0  0  0  0  0  0  0  0  0  0  0
    0.9982   -1.0566   -0.3104 N   0  0  0  0  0  0  0  0  0  0  0  0
   -0.1062   -0.2234   -0.3907 C   0  0  0  0  0  0  0  0  0  0  0  0
   -0.1144    1.1092   -0.1172 N   0  0  0  0  0  0  0  0  0  0  0  0
   -1.1858    1.8878   -0.0638 C   0  0  0  0  0  0  0  0  0  0  0  0
   -2.3966    1.3048   -0.3038 N   0  0  0  0  0  0  0  0  0  0  0  0
   -2.5222    0.0035   -0.5884 C   0  0  0  0  0  0  0  0  0  0  0  0
   -3.8970   -0.4485   -0.8117 C   0  0  0  0  0  0  0  0  0  0  0  0
   -4.3739   -1.7464   -0.3708 C   0  0  0  0  0  0  0  0  0  0  0  0
   -3.5074   -2.8034    0.0450 N   0  0  0  0  0  0  0  0  0  0  0  0
   -2.0823   -2.9391    0.1004 C   0  0  0  0  0  0  0  0  0  0  0  0
   -1.4167   -2.1875   -1.0347 C   0  0  0  0  0  0  0  0  0  0  0  0
   -1.3573   -0.7595   -0.6327 C   0  0  0  0  0  0  0  0  0  0  0  0
   -4.2067   -3.9299    0.5354 C   0  0  0  0  0  0  0  0  0  0  0  0
   -4.6855   -3.7279    1.8226 N   0  0  0  0  0  0  0  0  0  0  0  0
   -5.4306   -4.6779    2.3939 C   0  0  0  0  0  0  0  0  0  0  0  0
   -5.7286   -5.8417    1.7319 C   0  0  0  0  0  0  0  0  0  0  0  0
   -5.2471   -6.0213    0.4626 C   0  0  0  0  0  0  0  0  0  0  0  0
   -4.4554   -5.0410   -0.1772 C   0  0  0  0  0  0  0  0  0  0  0  0
   -3.9275   -5.3370   -1.4807 C   0  0  0  0  0  0  0  0  0  0  0  0
   -4.1612   -4.3915   -2.4466 F   0  0  0  0  0  0  0  0  0  0  0  0
   -4.7356   -6.4491   -1.9626 F   0  0  0  0  0  0  0  0  0  0  0  0
   -2.6609   -5.8896   -1.5479 F   0  0  0  0  0  0  0  0  0  0  0  0
   -1.1495    3.2952    0.2208 N   0  0  0  0  0  0  0  0  0  0  0  0
   -2.4202    3.9742    0.1147 C   0  0  0  0  0  0  0  0  0  0  0  0
   -2.4029    5.0408   -0.9209 C   0  0  0  0  0  0  0  0  0  0  0  0
   -1.3043    6.0251   -0.6929 C   0  0  0  0  0  0  0  0  0  0  0  0
   -0.9902    6.1388    0.7642 C   0  0  0  0  0  0  0  0  0  0  0  0
    0.1114    5.2228    1.1400 C   0  0  0  0  0  0  0  0  0  0  0  0
    0.1186    3.8597    0.5762 C   0  0  0  0  0  0  0  0  0  0  0  0
    3.2800   -1.6154    0.2829 C   0  0  0  0  0  0  0  0  0  0  0  0
    4.6136   -1.3283    0.3863 C   0  0  0  0  0  0  0  0  0  0  0  0
    7.2420   -0.8153    1.9448 H   0  0  0  0  0  0  0  0  0  0  0  0
    7.9115    0.8524    1.6820 H   0  0  0  0  0  0  0  0  0  0  0  0
    6.1564    0.5718    2.2181 H   0  0  0  0  0  0  0  0  0  0  0  0
    6.4566    2.2860   -0.0306 H   0  0  0  0  0  0  0  0  0  0  0  0
    8.0568    1.6066   -0.3985 H   0  0  0  0  0  0  0  0  0  0  0  0
    6.6930    1.4595   -1.6098 H   0  0  0  0  0  0  0  0  0  0  0  0
    8.4297   -0.7305   -0.4381 H   0  0  0  0  0  0  0  0  0  0  0  0
    7.1861   -1.9135   -0.0112 H   0  0  0  0  0  0  0  0  0  0  0  0
    7.1354   -1.0490   -1.6282 H   0  0  0  0  0  0  0  0  0  0  0  0
    4.5978    1.7957   -0.7666 H   0  0  0  0  0  0  0  0  0  0  0  0
    2.2088    1.3207   -0.9702 H   0  0  0  0  0  0  0  0  0  0  0  0
    0.7713   -2.1124   -0.2855 H   0  0  0  0  0  0  0  0  0  0  0  0
   -4.2246   -0.2592   -1.8727 H   0  0  0  0  0  0  0  0  0  0  0  0
   -4.5221    0.3308   -0.2474 H   0  0  0  0  0  0  0  0  0  0  0  0
   -5.2158   -1.6233    0.4204 H   0  0  0  0  0  0  0  0  0  0  0  0
   -5.0184   -2.1674   -1.2175 H   0  0  0  0  0  0  0  0  0  0  0  0
   -1.7361   -2.4369    1.0485 H   0  0  0  0  0  0  0  0  0  0  0  0
   -1.6801   -3.9465    0.1223 H   0  0  0  0  0  0  0  0  0  0  0  0
   -2.0940   -2.3107   -1.9394 H   0  0  0  0  0  0  0  0  0  0  0  0
   -0.4896   -2.5990   -1.3042 H   0  0  0  0  0  0  0  0  0  0  0  0
   -5.7927   -4.5175    3.4099 H   0  0  0  0  0  0  0  0  0  0  0  0
   -6.3561   -6.6188    2.2079 H   0  0  0  0  0  0  0  0  0  0  0  0
   -5.4723   -6.9328   -0.0719 H   0  0  0  0  0  0  0  0  0  0  0  0
   -2.7914    4.3901    1.0825 H   0  0  0  0  0  0  0  0  0  0  0  0
   -3.2341    3.2125   -0.1367 H   0  0  0  0  0  0  0  0  0  0  0  0
   -2.2494    4.5277   -1.9213 H   0  0  0  0  0  0  0  0  0  0  0  0
   -3.3585    5.6355   -0.9719 H   0  0  0  0  0  0  0  0  0  0  0  0
   -1.6194    7.0500   -1.0215 H   0  0  0  0  0  0  0  0  0  0  0  0
   -0.4384    5.7182   -1.3009 H   0  0  0  0  0  0  0  0  0  0  0  0
   -0.5726    7.1978    0.9778 H   0  0  0  0  0  0  0  0  0  0  0  0
   -1.8377    6.0307    1.4431 H   0  0  0  0  0  0  0  0  0  0  0  0
    1.1285    5.6950    0.9837 H   0  0  0  0  0  0  0  0  0  0  0  0
    0.0750    5.1278    2.2677 H   0  0  0  0  0  0  0  0  0  0  0  0
    0.6866    3.1475    1.2628 H   0  0  0  0  0  0  0  0  0  0  0  0
    0.7641    3.8617   -0.3565 H   0  0  0  0  0  0  0  0  0  0  0  0
    2.8616   -2.5837    0.5770 H   0  0  0  0  0  0  0  0  0  0  0  0
    5.3168   -2.0739    0.7795 H   0  0  0  0  0  0  0  0  0  0  0  0
  1  2  1  0
  2  3  1  0
  2  4  1  0
  2  5  1  0
  5  6  2  0
  6  7  1  0
  7  8  2  0
  8  9  1  0
  9 10  1  0
 10 11  2  0
 11 12  1  0
 12 13  2  0
 13 14  1  0
 14 15  1  0
 15 16  1  0
 16 17  1  0
 17 18  1  0
 18 19  1  0
 19 20  1  0
 17 21  1  0
 21 22  2  0
 22 23  1  0
 23 24  2  0
 24 25  1  0
 25 26  2  0
 26 27  1  0
 27 28  1  0
 27 29  1  0
 27 30  1  0
 12 31  1  0
 31 32  1  0
 32 33  1  0
 33 34  1  0
 34 35  1  0
 35 36  1  0
 36 37  1  0
  8 38  1  0
 38 39  2  0
 39  5  1  0
 20 10  1  0
 26 21  1  0
 37 31  1  0
 20 14  2  0
  1 40  1  0
  1 41  1  0
  1 42  1  0
  3 43  1  0
  3 44  1  0
  3 45  1  0
  4 46  1  0
  4 47  1  0
  4 48  1  0
  6 49  1  0
  7 50  1  0
  9 51  1  0
 15 52  1  0
 15 53  1  0
 16 54  1  0
 16 55  1  0
 18 56  1  0
 18 57  1  0
 19 58  1  0
 19 59  1  0
 23 60  1  0
 24 61  1  0
 25 62  1  0
 32 63  1  0
 32 64  1  0
 33 65  1  0
 33 66  1  0
 34 67  1  0
 34 68  1  0
 35 69  1  0
 35 70  1  0
 36 71  1  0
 36 72  1  0
 37 73  1  0
 37 74  1  0
 38 75  1  0
 39 76  1  0
M  END
$$$$
[H]c1c([H])c(C(F)(F)F)c([H])c([H])c1N([H])C(=O)C1(C(=O)N([H])c2c([H])c([H])c(C(C([H])([H])[H])(C([H])([H])[H])C([H])([H])[H])c([H])c2[H])C([H])([H])C1([H])[H]
     RDKit          3D

 52 54  0  0  0  0  0  0  0  0999 V2000
   -6.7802   -0.5505   -0.0227 C   0  0  0  0  0  0  0  0  0  0  0  0
   -6.0361    0.7658   -0.1899 C   0  0  0  0  0  0  0  0  0  0  0  0
   -6.3659    1.3163   -1.5648 C   0  0  0  0  0  0  0  0  0  0  0  0
   -6.5042    1.6703    0.9283 C   0  0  0  0  0  0  0  0  0  0  0  0
   -4.5812    0.5615   -0.0434 C   0  0  0  0  0  0  0  0  0  0  0  0
   -3.6434    1.5542   -0.2915 C   0  0  0  0  0  0  0  0  0  0  0  0
   -2.2973    1.2976   -0.1863 C   0  0  0  0  0  0  0  0  0  0  0  0
   -1.8372    0.0345    0.1754 C   0  0  0  0  0  0  0  0  0  0  0  0
   -0.4209   -0.2238    0.2601 N   0  0  0  0  0  0  0  0  0  0  0  0
    0.0409   -1.5107   -0.0778 C   0  0  0  0  0  0  0  0  0  0  0  0
   -0.7453   -2.3940   -0.4635 O   0  0  0  0  0  0  0  0  0  0  0  0
    1.4771   -1.9525   -0.0194 C   0  0  0  0  0  0  0  0  0  0  0  0
    1.8041   -3.1399   -0.9031 C   0  0  0  0  0  0  0  0  0  0  0  0
    1.7166   -3.3083    0.5754 C   0  0  0  0  0  0  0  0  0  0  0  0
    2.5161   -0.9562    0.3166 C   0  0  0  0  0  0  0  0  0  0  0  0
    2.2793   -0.0560    1.1291 O   0  0  0  0  0  0  0  0  0  0  0  0
    3.7729   -1.0577   -0.3126 N   0  0  0  0  0  0  0  0  0  0  0  0
    4.8758   -0.1775   -0.1197 C   0  0  0  0  0  0  0  0  0  0  0  0
    6.1538   -0.6889   -0.2956 C   0  0  0  0  0  0  0  0  0  0  0  0
    7.2228    0.1355   -0.1686 C   0  0  0  0  0  0  0  0  0  0  0  0
    7.1038    1.4797    0.1296 C   0  0  0  0  0  0  0  0  0  0  0  0
    5.8572    1.9823    0.2979 C   0  0  0  0  0  0  0  0  0  0  0  0
    4.7467    1.1538    0.1733 C   0  0  0  0  0  0  0  0  0  0  0  0
    8.2995    2.3532    0.2512 C   0  0  0  0  0  0  0  0  0  0  0  0
    8.7855    2.5541   -1.0405 F   0  0  0  0  0  0  0  0  0  0  0  0
    9.2791    1.7095    0.9529 F   0  0  0  0  0  0  0  0  0  0  0  0
    8.0013    3.5488    0.8706 F   0  0  0  0  0  0  0  0  0  0  0  0
   -2.7613   -0.9138    0.4197 C   0  0  0  0  0  0  0  0  0  0  0  0
   -4.1199   -0.6794    0.3178 C   0  0  0  0  0  0  0  0  0  0  0  0
   -6.4371   -1.3299   -0.7058 H   0  0  0  0  0  0  0  0  0  0  0  0
   -6.6812   -0.8684    1.0445 H   0  0  0  0  0  0  0  0  0  0  0  0
   -7.8741   -0.4247   -0.1797 H   0  0  0  0  0  0  0  0  0  0  0  0
   -6.8497    0.5088   -2.1861 H   0  0  0  0  0  0  0  0  0  0  0  0
   -7.0116    2.1913   -1.4356 H   0  0  0  0  0  0  0  0  0  0  0  0
   -5.3938    1.5136   -2.0708 H   0  0  0  0  0  0  0  0  0  0  0  0
   -5.9332    1.3881    1.8349 H   0  0  0  0  0  0  0  0  0  0  0  0
   -6.3408    2.7361    0.6674 H   0  0  0  0  0  0  0  0  0  0  0  0
   -7.5772    1.4499    1.1806 H   0  0  0  0  0  0  0  0  0  0  0  0
   -4.0133    2.5468   -0.5889 H   0  0  0  0  0  0  0  0  0  0  0  0
   -1.5416    2.0755   -0.3699 H   0  0  0  0  0  0  0  0  0  0  0  0
    0.1437    0.5584    0.5559 H   0  0  0  0  0  0  0  0  0  0  0  0
    0.9506   -3.5974   -1.4743 H   0  0  0  0  0  0  0  0  0  0  0  0
    2.7772   -3.2669   -1.3598 H   0  0  0  0  0  0  0  0  0  0  0  0
    0.8069   -3.7774    1.0342 H   0  0  0  0  0  0  0  0  0  0  0  0
    2.6371   -3.5146    1.1232 H   0  0  0  0  0  0  0  0  0  0  0  0
    3.9220   -1.8432   -1.0102 H   0  0  0  0  0  0  0  0  0  0  0  0
    6.2644   -1.7553   -0.5355 H   0  0  0  0  0  0  0  0  0  0  0  0
    8.2376   -0.2169   -0.2983 H   0  0  0  0  0  0  0  0  0  0  0  0
    5.6691    3.0248    0.5272 H   0  0  0  0  0  0  0  0  0  0  0  0
    3.7528    1.5387    0.2768 H   0  0  0  0  0  0  0  0  0  0  0  0
   -2.5170   -1.9493    0.7407 H   0  0  0  0  0  0  0  0  0  0  0  0
   -4.8302   -1.4963    0.5470 H   0  0  0  0  0  0  0  0  0  0  0  0
  1  2  1  0
  2  3  1  0
  2  4  1  0
  2  5  1  0
  5  6  2  0
  6  7  1  0
  7  8  2  0
  8  9  1  0
  9 10  1  0
 10 11  2  0
 10 12  1  0
 12 13  1  0
 13 14  1  0
 12 15  1  0
 15 16  2  0
 15 17  1  0
 17 18  1  0
 18 19  2  0
 19 20  1  0
 20 21  2  0
 21 22  1  0
 22 23  2  0
 21 24  1  0
 24 25  1  0
 24 26  1  0
 24 27  1  0
  8 28  1  0
 28 29  2  0
 29  5  1  0
 14 12  1  0
 23 18  1  0
  1 30  1  0
  1 31  1  0
  1 32  1  0
  3 33  1  0
  3 34  1  0
  3 35  1  0
  4 36  1  0
  4 37  1  0
  4 38  1  0
  6 39  1  0
  7 40  1  0
  9 41  1  0
 13 42  1  0
 13 43  1  0
 14 44  1  0
 14 45  1  0
 17 46  1  0
 19 47  1  0
 20 48  1  0
 22 49  1  0
 23 50  1  0
 28 51  1  0
 29 52  1  0
M  END
$$$$
[H]c1nc([H])c2c([H])c([H])c([H])c(N([H])C(=O)N([H])c3c([H])c([H])c([H])c(C([H])([H])[H])c3[H])c2c1[H]
     RDKit          3D

 36 38  0  0  0  0  0  0  0  0999 V2000
    5.3017    1.9031   -0.3955 C   0  0  0  0  0  0  0  0  0  0  0  0
    4.6898    0.6102   -0.0272 C   0  0  0  0  0  0  0  0  0  0  0  0
    5.5108   -0.4597    0.1985 C   0  0  0  0  0  0  0  0  0  0  0  0
    4.9215   -1.6489    0.5387 C   0  0  0  0  0  0  0  0  0  0  0  0
    3.5695   -1.8014    0.6580 C   0  0  0  0  0  0  0  0  0  0  0  0
    2.6905   -0.7225    0.4331 C   0  0  0  0  0  0  0  0  0  0  0  0
    1.3210   -0.9346    0.5908 N   0  0  0  0  0  0  0  0  0  0  0  0
    0.2723   -0.1218    0.0980 C   0  0  0  0  0  0  0  0  0  0  0  0
    0.5679    0.8788   -0.5451 O   0  0  0  0  0  0  0  0  0  0  0  0
   -1.0784   -0.4715    0.3516 N   0  0  0  0  0  0  0  0  0  0  0  0
   -2.2005    0.2569   -0.0788 C   0  0  0  0  0  0  0  0  0  0  0  0
   -2.1634    1.4924   -0.6686 C   0  0  0  0  0  0  0  0  0  0  0  0
   -3.3042    2.2064   -1.0604 C   0  0  0  0  0  0  0  0  0  0  0  0
   -4.5096    1.6165   -0.8306 C   0  0  0  0  0  0  0  0  0  0  0  0
   -4.6383    0.3778   -0.2432 C   0  0  0  0  0  0  0  0  0  0  0  0
   -5.9067   -0.1692   -0.0415 C   0  0  0  0  0  0  0  0  0  0  0  0
   -6.0283   -1.3732    0.5243 N   0  0  0  0  0  0  0  0  0  0  0  0
   -4.9404   -2.0265    0.8836 C   0  0  0  0  0  0  0  0  0  0  0  0
   -3.6490   -1.5191    0.7018 C   0  0  0  0  0  0  0  0  0  0  0  0
   -3.4932   -0.2908    0.1267 C   0  0  0  0  0  0  0  0  0  0  0  0
    3.3083    0.4511    0.0958 C   0  0  0  0  0  0  0  0  0  0  0  0
    4.5220    2.6682   -0.6010 H   0  0  0  0  0  0  0  0  0  0  0  0
    5.9576    1.7467   -1.2936 H   0  0  0  0  0  0  0  0  0  0  0  0
    5.9538    2.2754    0.4175 H   0  0  0  0  0  0  0  0  0  0  0  0
    6.5912   -0.4084    0.1210 H   0  0  0  0  0  0  0  0  0  0  0  0
    5.5649   -2.5192    0.7240 H   0  0  0  0  0  0  0  0  0  0  0  0
    3.1012   -2.7497    0.9280 H   0  0  0  0  0  0  0  0  0  0  0  0
    1.0127   -1.7932    1.1419 H   0  0  0  0  0  0  0  0  0  0  0  0
   -1.2479   -1.3578    0.9288 H   0  0  0  0  0  0  0  0  0  0  0  0
   -1.2136    1.9788   -0.8486 H   0  0  0  0  0  0  0  0  0  0  0  0
   -3.1573    3.1636   -1.5125 H   0  0  0  0  0  0  0  0  0  0  0  0
   -5.4065    2.1476   -1.1240 H   0  0  0  0  0  0  0  0  0  0  0  0
   -6.7738    0.3961   -0.3492 H   0  0  0  0  0  0  0  0  0  0  0  0
   -5.0369   -3.0169    1.3489 H   0  0  0  0  0  0  0  0  0  0  0  0
   -2.8391   -2.1257    1.0205 H   0  0  0  0  0  0  0  0  0  0  0  0
    2.7302    1.3405   -0.0833 H   0  0  0  0  0  0  0  0  0  0  0  0
  1  2  1  0
  2  3  2  0
  3  4  1  0
  4  5  2  0
  5  6  1  0
  6  7  1  0
  7  8  1  0
  8  9  2  0
  8 10  1  0
 10 11  1  0
 11 12  2  0
 12 13  1  0
 13 14  2  0
 14 15  1  0
 15 16  2  0
 16 17  1  0
 17 18  2  0
 18 19  1  0
 19 20  2  0
  6 21  2  0
 21  2  1  0
 20 11  1  0
 20 15  1  0
  1 22  1  0
  1 23  1  0
  1 24  1  0
  3 25  1  0
  4 26  1  0
  5 27  1  0
  7 28  1  0
 10 29  1  0
 12 30  1  0
 13 31  1  0
 14 32  1  0
 16 33  1  0
 18 34  1  0
 19 35  1  0
 21 36  1  0
M  END
$$$$
[H]c1c([H])c(C(C([H])([H])[H])(C([H])([H])[H])C([H])([H])[H])c([H])c2c1C([H])(N([H])C(=O)N([H])c1c([H])c([H])c([H])c3c1c([H])nn3[H])C([H])([H])C2([H])[H]
     RDKit          3D

 50 53  0  0  0  0  0  0  0  0999 V2000
   -5.9650    0.9708    1.4785 C   0  0  0  0  0  0  0  0  0  0  0  0
   -5.5031    0.4035    0.1695 C   0  0  0  0  0  0  0  0  0  0  0  0
   -5.8561    1.3413   -0.9638 C   0  0  0  0  0  0  0  0  0  0  0  0
   -6.1804   -0.9373    0.0157 C   0  0  0  0  0  0  0  0  0  0  0  0
   -4.0346    0.1831    0.2303 C   0  0  0  0  0  0  0  0  0  0  0  0
   -3.1120    1.1325    0.5989 C   0  0  0  0  0  0  0  0  0  0  0  0
   -1.7563    0.9185    0.6244 C   0  0  0  0  0  0  0  0  0  0  0  0
   -1.2355   -0.3106    0.2650 C   0  0  0  0  0  0  0  0  0  0  0  0
    0.0853   -0.9043    0.1557 C   0  0  0  0  0  0  0  0  0  0  0  0
   -0.1220   -1.8712   -1.0561 C   0  0  0  0  0  0  0  0  0  0  0  0
   -1.3873   -2.5567   -0.5112 C   0  0  0  0  0  0  0  0  0  0  0  0
   -2.1449   -1.2918   -0.1118 C   0  0  0  0  0  0  0  0  0  0  0  0
   -3.4903   -1.0454   -0.1256 C   0  0  0  0  0  0  0  0  0  0  0  0
    1.1642   -0.0243   -0.1753 N   0  0  0  0  0  0  0  0  0  0  0  0
    2.5229   -0.4307    0.0770 C   0  0  0  0  0  0  0  0  0  0  0  0
    2.6758   -1.5368    0.5945 O   0  0  0  0  0  0  0  0  0  0  0  0
    3.5680    0.4214   -0.2746 N   0  0  0  0  0  0  0  0  0  0  0  0
    4.9582    0.2072   -0.1625 C   0  0  0  0  0  0  0  0  0  0  0  0
    5.4754   -1.0046    0.2335 C   0  0  0  0  0  0  0  0  0  0  0  0
    6.8518   -1.2067    0.3050 C   0  0  0  0  0  0  0  0  0  0  0  0
    7.7090   -0.1928   -0.0192 C   0  0  0  0  0  0  0  0  0  0  0  0
    7.1952    1.0173   -0.4119 C   0  0  0  0  0  0  0  0  0  0  0  0
    7.8121    2.1547   -0.7730 N   0  0  0  0  0  0  0  0  0  0  0  0
    6.9019    3.0691   -1.0704 N   0  0  0  0  0  0  0  0  0  0  0  0
    5.6805    2.5363   -0.9069 C   0  0  0  0  0  0  0  0  0  0  0  0
    5.8477    1.2289   -0.4884 C   0  0  0  0  0  0  0  0  0  0  0  0
   -5.6804    2.0646    1.4819 H   0  0  0  0  0  0  0  0  0  0  0  0
   -7.0550    0.8476    1.6427 H   0  0  0  0  0  0  0  0  0  0  0  0
   -5.3778    0.5137    2.3019 H   0  0  0  0  0  0  0  0  0  0  0  0
   -6.9233    1.5550   -0.9103 H   0  0  0  0  0  0  0  0  0  0  0  0
   -5.2493    2.2490   -0.8257 H   0  0  0  0  0  0  0  0  0  0  0  0
   -5.5900    0.8037   -1.9043 H   0  0  0  0  0  0  0  0  0  0  0  0
   -5.8188   -1.6236    0.8030 H   0  0  0  0  0  0  0  0  0  0  0  0
   -6.0780   -1.3256   -1.0064 H   0  0  0  0  0  0  0  0  0  0  0  0
   -7.2672   -0.7989    0.1853 H   0  0  0  0  0  0  0  0  0  0  0  0
   -3.5245    2.1152    0.8906 H   0  0  0  0  0  0  0  0  0  0  0  0
   -1.0729    1.7032    0.9289 H   0  0  0  0  0  0  0  0  0  0  0  0
    0.3294   -1.5766    0.9823 H   0  0  0  0  0  0  0  0  0  0  0  0
   -0.4439   -1.2273   -1.8832 H   0  0  0  0  0  0  0  0  0  0  0  0
    0.7156   -2.5285   -1.2044 H   0  0  0  0  0  0  0  0  0  0  0  0
   -1.1682   -3.1825    0.3646 H   0  0  0  0  0  0  0  0  0  0  0  0
   -1.9036   -3.1379   -1.2631 H   0  0  0  0  0  0  0  0  0  0  0  0
   -4.1997   -1.8165   -0.4203 H   0  0  0  0  0  0  0  0  0  0  0  0
    0.9821    0.8881   -0.5869 H   0  0  0  0  0  0  0  0  0  0  0  0
    3.3238    1.3888   -0.7108 H   0  0  0  0  0  0  0  0  0  0  0  0
    4.8404   -1.8476    0.4993 H   0  0  0  0  0  0  0  0  0  0  0  0
    7.1834   -2.2159    0.6293 H   0  0  0  0  0  0  0  0  0  0  0  0
    8.7801   -0.4008    0.0484 H   0  0  0  0  0  0  0  0  0  0  0  0
    8.8267    2.3057   -0.8172 H   0  0  0  0  0  0  0  0  0  0  0  0
    4.7105    2.9752   -1.0592 H   0  0  0  0  0  0  0  0  0  0  0  0
  1  2  1  0
  2  3  1  0
  2  4  1  0
  2  5  1  0
  5  6  2  0
  6  7  1  0
  7  8  2  0
  8  9  1  0
  9 10  1  0
 10 11  1  0
 11 12  1  0
 12 13  2  0
  9 14  1  0
 14 15  1  0
 15 16  2  0
 15 17  1  0
 17 18  1  0
 18 19  2  0
 19 20  1  0
 20 21  2  0
 21 22  1  0
 22 23  1  0
 23 24  1  0
 24 25  2  0
 25 26  1  0
 13  5  1  0
 26 18  1  0
 12  8  1  0
 26 22  2  0
  1 27  1  0
  1 28  1  0
  1 29  1  0
  3 30  1  0
  3 31  1  0
  3 32  1  0
  4 33  1  0
  4 34  1  0
  4 35  1  0
  6 36  1  0
  7 37  1  0
  9 38  1  0
 10 39  1  0
 10 40  1  0
 11 41  1  0
 11 42  1  0
 13 43  1  0
 14 44  1  0
 17 45  1  0
 19 46  1  0
 20 47  1  0
 21 48  1  0
 23 49  1  0
 25 50  1  0
M  END
$$$$
[H]c1c([H])c2c(c([H])c1Cl)OC([H])([H])C([H])([H])C2([H])N([H])C(=O)N([H])c1c([H])c([H])c([H])c2c1c([H])nn2[H]
     RDKit          3D

 39 42  0  0  0  0  0  0  0  0999 V2000
   -6.2417    3.2839    0.9819 Cl  0  0  0  0  0  0  0  0  0  0  0  0
   -4.9435    2.1056    0.7636 C   0  0  0  0  0  0  0  0  0  0  0  0
   -3.7542    2.4401    0.1488 C   0  0  0  0  0  0  0  0  0  0  0  0
   -2.7303    1.5341   -0.0302 C   0  0  0  0  0  0  0  0  0  0  0  0
   -2.9276    0.2506    0.4321 C   0  0  0  0  0  0  0  0  0  0  0  0
   -1.9112   -0.8273    0.3068 C   0  0  0  0  0  0  0  0  0  0  0  0
   -2.6288   -2.0479   -0.2282 C   0  0  0  0  0  0  0  0  0  0  0  0
   -3.6258   -2.4901    0.8138 C   0  0  0  0  0  0  0  0  0  0  0  0
   -4.2329   -1.4158    1.4881 O   0  0  0  0  0  0  0  0  0  0  0  0
   -4.1169   -0.0825    1.0465 C   0  0  0  0  0  0  0  0  0  0  0  0
   -5.1323    0.8174    1.2236 C   0  0  0  0  0  0  0  0  0  0  0  0
   -0.7676   -0.4536   -0.4476 N   0  0  0  0  0  0  0  0  0  0  0  0
    0.5449   -0.4434    0.1528 C   0  0  0  0  0  0  0  0  0  0  0  0
    0.5624   -0.7840    1.3542 O   0  0  0  0  0  0  0  0  0  0  0  0
    1.6468   -0.0733   -0.6094 N   0  0  0  0  0  0  0  0  0  0  0  0
    2.9975    0.0057   -0.2317 C   0  0  0  0  0  0  0  0  0  0  0  0
    3.4810   -0.2886    1.0331 C   0  0  0  0  0  0  0  0  0  0  0  0
    4.8195   -0.1998    1.3704 C   0  0  0  0  0  0  0  0  0  0  0  0
    5.7340    0.1949    0.4316 C   0  0  0  0  0  0  0  0  0  0  0  0
    5.2678    0.4973   -0.8532 C   0  0  0  0  0  0  0  0  0  0  0  0
    5.9217    0.9051   -1.9641 N   0  0  0  0  0  0  0  0  0  0  0  0
    5.0469    1.0632   -2.9417 N   0  0  0  0  0  0  0  0  0  0  0  0
    3.8155    0.7667   -2.5002 C   0  0  0  0  0  0  0  0  0  0  0  0
    3.9484    0.4092   -1.1838 C   0  0  0  0  0  0  0  0  0  0  0  0
   -3.6370    3.4708   -0.2046 H   0  0  0  0  0  0  0  0  0  0  0  0
   -1.7871    1.7897   -0.5150 H   0  0  0  0  0  0  0  0  0  0  0  0
   -1.6194   -1.0885    1.3636 H   0  0  0  0  0  0  0  0  0  0  0  0
   -3.2250   -1.8055   -1.1469 H   0  0  0  0  0  0  0  0  0  0  0  0
   -1.9663   -2.8772   -0.4727 H   0  0  0  0  0  0  0  0  0  0  0  0
   -4.4268   -3.1067    0.3373 H   0  0  0  0  0  0  0  0  0  0  0  0
   -3.1376   -3.1228    1.5824 H   0  0  0  0  0  0  0  0  0  0  0  0
   -6.0536    0.5033    1.7161 H   0  0  0  0  0  0  0  0  0  0  0  0
   -0.8611   -0.1815   -1.4458 H   0  0  0  0  0  0  0  0  0  0  0  0
    1.4296    0.1873   -1.6275 H   0  0  0  0  0  0  0  0  0  0  0  0
    2.8066   -0.6050    1.8143 H   0  0  0  0  0  0  0  0  0  0  0  0
    5.0981   -0.4504    2.3830 H   0  0  0  0  0  0  0  0  0  0  0  0
    6.7700    0.2683    0.6765 H   0  0  0  0  0  0  0  0  0  0  0  0
    6.9661    1.0540   -1.9797 H   0  0  0  0  0  0  0  0  0  0  0  0
    2.8695    0.7968   -3.0636 H   0  0  0  0  0  0  0  0  0  0  0  0
  1  2  1  0
  2  3  2  0
  3  4  1  0
  4  5  2  0
  5  6  1  0
  6  7  1  0
  7  8  1  0
  8  9  1  0
  9 10  1  0
 10 11  2  0
  6 12  1  0
 12 13  1  0
 13 14  2  0
 13 15  1  0
 15 16  1  0
 16 17  2  0
 17 18  1  0
 18 19  2  0
 19 20  1  0
 20 21  1  0
 21 22  1  0
 22 23  2  0
 23 24  1  0
 11  2  1  0
 24 16  1  0
 10  5  1  0
 24 20  2  0
  3 25  1  0
  4 26  1  0
  6 27  1  0
  7 28  1  0
  7 29  1  0
  8 30  1  0
  8 31  1  0
 11 32  1  0
 12 33  1  0
 15 34  1  0
 17 35  1  0
 18 36  1  0
 19 37  1  0
 21 38  1  0
 23 39  1  0
M  END
$$$$
