[H]c1nc(N2C([H])([H])C([H])([H])N(c3nc(C(=O)N([H])c4c([H])c([H])c(C(F)(F)F)c([H])c4[H])nc(N4C([H])([H])C([H])([H])N(C([H])([H])[H])C([H])([H])C4([H])[H])c3[H])C([H])([H])C2([H])[H])nc([H])c1C(F)(F)F
     RDKit          3D

 69 73  0  0  0  0  0  0  0  0999 V2000
   -0.9290    6.5909    0.9900 C   0  0  0  0  0  0  0  0  0  0  0  0
   -1.9953    6.2103    0.0663 N   0  0  0  0  0  0  0  0  0  0  0  0
   -2.8795    5.3138    0.7592 C   0  0  0  0  0  0  0  0  0  0  0  0
   -2.8624    3.8880    0.3364 C   0  0  0  0  0  0  0  0  0  0  0  0
   -1.5620    3.4441   -0.0862 N   0  0  0  0  0  0  0  0  0  0  0  0
   -0.5760    4.3790   -0.5642 C   0  0  0  0  0  0  0  0  0  0  0  0
   -1.3757    5.5609   -1.1045 C   0  0  0  0  0  0  0  0  0  0  0  0
   -1.2486    2.0562   -0.0656 C   0  0  0  0  0  0  0  0  0  0  0  0
    0.0099    1.5455    0.0368 C   0  0  0  0  0  0  0  0  0  0  0  0
    0.2887    0.1964    0.0453 C   0  0  0  0  0  0  0  0  0  0  0  0
   -0.7935   -0.6449   -0.0596 N   0  0  0  0  0  0  0  0  0  0  0  0
   -2.0373   -0.1758   -0.1654 C   0  0  0  0  0  0  0  0  0  0  0  0
   -2.2687    1.1770   -0.1682 N   0  0  0  0  0  0  0  0  0  0  0  0
   -3.2663   -0.9684   -0.2130 C   0  0  0  0  0  0  0  0  0  0  0  0
   -4.2933   -0.4344   -0.7236 O   0  0  0  0  0  0  0  0  0  0  0  0
   -3.2646   -2.2740    0.3050 N   0  0  0  0  0  0  0  0  0  0  0  0
   -4.4601   -3.0663    0.2965 C   0  0  0  0  0  0  0  0  0  0  0  0
   -5.7215   -2.4758    0.3752 C   0  0  0  0  0  0  0  0  0  0  0  0
   -6.8932   -3.2015    0.3525 C   0  0  0  0  0  0  0  0  0  0  0  0
   -6.8492   -4.5919    0.2493 C   0  0  0  0  0  0  0  0  0  0  0  0
   -5.6019   -5.1744    0.1756 C   0  0  0  0  0  0  0  0  0  0  0  0
   -4.4223   -4.4231    0.2000 C   0  0  0  0  0  0  0  0  0  0  0  0
   -8.1143   -5.3666    0.2278 C   0  0  0  0  0  0  0  0  0  0  0  0
   -8.0740   -6.4403   -0.6109 F   0  0  0  0  0  0  0  0  0  0  0  0
   -8.4003   -5.6883    1.5328 F   0  0  0  0  0  0  0  0  0  0  0  0
   -9.1653   -4.5378   -0.2158 F   0  0  0  0  0  0  0  0  0  0  0  0
    1.6189   -0.2956    0.1044 N   0  0  0  0  0  0  0  0  0  0  0  0
    2.3200   -0.2820   -1.1795 C   0  0  0  0  0  0  0  0  0  0  0  0
    3.4715   -1.2612   -1.1424 C   0  0  0  0  0  0  0  0  0  0  0  0
    4.2243   -1.1167    0.0809 N   0  0  0  0  0  0  0  0  0  0  0  0
    3.6590   -0.7208    1.3310 C   0  0  0  0  0  0  0  0  0  0  0  0
    2.1624   -0.7674    1.3236 C   0  0  0  0  0  0  0  0  0  0  0  0
    5.6351   -1.3734    0.0022 C   0  0  0  0  0  0  0  0  0  0  0  0
    6.2551   -1.3505   -1.2087 N   0  0  0  0  0  0  0  0  0  0  0  0
    7.5749   -1.6026   -1.3530 C   0  0  0  0  0  0  0  0  0  0  0  0
    8.3590   -1.8977   -0.2608 C   0  0  0  0  0  0  0  0  0  0  0  0
    7.7209   -1.9165    0.9757 C   0  0  0  0  0  0  0  0  0  0  0  0
    6.3922   -1.6583    1.0650 N   0  0  0  0  0  0  0  0  0  0  0  0
    9.8065   -2.1814   -0.4189 C   0  0  0  0  0  0  0  0  0  0  0  0
   10.1121   -3.4853   -0.0647 F   0  0  0  0  0  0  0  0  0  0  0  0
   10.2214   -1.8832   -1.6722 F   0  0  0  0  0  0  0  0  0  0  0  0
   10.5502   -1.3670    0.4564 F   0  0  0  0  0  0  0  0  0  0  0  0
   -0.8258    5.7807    1.7341 H   0  0  0  0  0  0  0  0  0  0  0  0
    0.0299    6.7392    0.4667 H   0  0  0  0  0  0  0  0  0  0  0  0
   -1.2752    7.5105    1.5314 H   0  0  0  0  0  0  0  0  0  0  0  0
   -3.9098    5.7743    0.6450 H   0  0  0  0  0  0  0  0  0  0  0  0
   -2.6467    5.3489    1.8704 H   0  0  0  0  0  0  0  0  0  0  0  0
   -3.1498    3.2675    1.2494 H   0  0  0  0  0  0  0  0  0  0  0  0
   -3.5922    3.6561   -0.4988 H   0  0  0  0  0  0  0  0  0  0  0  0
    0.0798    4.6744    0.2632 H   0  0  0  0  0  0  0  0  0  0  0  0
   -0.0701    3.9026   -1.4109 H   0  0  0  0  0  0  0  0  0  0  0  0
   -0.7816    6.3045   -1.6151 H   0  0  0  0  0  0  0  0  0  0  0  0
   -2.1944    5.1480   -1.6989 H   0  0  0  0  0  0  0  0  0  0  0  0
    0.8040    2.2829    0.1301 H   0  0  0  0  0  0  0  0  0  0  0  0
   -2.4373   -2.6943    0.7123 H   0  0  0  0  0  0  0  0  0  0  0  0
   -5.7823   -1.4142    0.4909 H   0  0  0  0  0  0  0  0  0  0  0  0
   -7.8745   -2.7503    0.4122 H   0  0  0  0  0  0  0  0  0  0  0  0
   -5.5700   -6.2749    0.1067 H   0  0  0  0  0  0  0  0  0  0  0  0
   -3.4911   -4.9397    0.1386 H   0  0  0  0  0  0  0  0  0  0  0  0
    1.5799   -0.7120   -1.9112 H   0  0  0  0  0  0  0  0  0  0  0  0
    2.5506    0.7251   -1.4649 H   0  0  0  0  0  0  0  0  0  0  0  0
    4.1380   -1.0172   -1.9839 H   0  0  0  0  0  0  0  0  0  0  0  0
    3.1216   -2.3070   -1.2347 H   0  0  0  0  0  0  0  0  0  0  0  0
    4.0774   -1.3987    2.1302 H   0  0  0  0  0  0  0  0  0  0  0  0
    3.9638    0.3496    1.5260 H   0  0  0  0  0  0  0  0  0  0  0  0
    1.7881   -1.8224    1.4805 H   0  0  0  0  0  0  0  0  0  0  0  0
    1.7321   -0.1539    2.1761 H   0  0  0  0  0  0  0  0  0  0  0  0
    8.0657   -1.5736   -2.3355 H   0  0  0  0  0  0  0  0  0  0  0  0
    8.3416   -2.1451    1.8283 H   0  0  0  0  0  0  0  0  0  0  0  0
  1  2  1  0
  2  3  1  0
  3  4  1  0
  4  5  1  0
  5  6  1  0
  6  7  1  0
  5  8  1  0
  8  9  2  0
  9 10  1  0
 10 11  2  0
 11 12  1  0
 12 13  2  0
 12 14  1  0
 14 15  2  0
 14 16  1  0
 16 17  1  0
 17 18  2  0
 18 19  1  0
 19 20  2  0
 20 21  1  0
 21 22  2  0
 20 23  1  0
 23 24  1  0
 23 25  1  0
 23 26  1  0
 10 27  1  0
 27 28  1  0
 28 29  1  0
 29 30  1  0
 30 31  1  0
 31 32  1  0
 30 33  1  0
 33 34  2  0
 34 35  1  0
 35 36  2  0
 36 37  1  0
 37 38  2  0
 36 39  1  0
 39 40  1  0
 39 41  1  0
 39 42  1  0
  7  2  1  0
 13  8  1  0
 22 17  1  0
 32 27  1  0
 38 33  1  0
  1 43  1  0
  1 44  1  0
  1 45  1  0
  3 46  1  0
  3 47  1  0
  4 48  1  0
  4 49  1  0
  6 50  1  0
  6 51  1  0
  7 52  1  0
  7 53  1  0
  9 54  1  0
 16 55  1  0
 18 56  1  0
 19 57  1  0
 21 58  1  0
 22 59  1  0
 28 60  1  0
 28 61  1  0
 29 62  1  0
 29 63  1  0
 31 64  1  0
 31 65  1  0
 32 66  1  0
 32 67  1  0
 35 68  1  0
 37 69  1  0
M  END
$$$$
[H]c1c(C(=O)N([H])c2c([H])c([H])c(S(=O)(=O)N([H])[H])c([H])c2[H])nc(C(F)(F)F)nc1N1C([H])([H])C([H])([H])N(C(F)(F)F)C([H])([H])[C@@]1([H])C([H])([H])[H]
     RDKit          3D

 52 54  0  0  0  0  0  0  0  0999 V2000
   -2.1789    0.9246   -2.0329 C   0  0  0  0  0  0  0  0  0  0  0  0
   -3.3279    0.6623   -1.1402 C   0  0  2  0  0  0  0  0  0  0  0  0
   -3.6726    1.8943   -0.3250 C   0  0  0  0  0  0  0  0  0  0  0  0
   -4.7841    1.7632    0.5345 N   0  0  0  0  0  0  0  0  0  0  0  0
   -4.8399    0.5571    1.3071 C   0  0  0  0  0  0  0  0  0  0  0  0
   -4.4258   -0.6884    0.5565 C   0  0  0  0  0  0  0  0  0  0  0  0
   -3.2164   -0.4409   -0.2333 N   0  0  0  0  0  0  0  0  0  0  0  0
   -2.1315   -1.2831    0.0031 C   0  0  0  0  0  0  0  0  0  0  0  0
   -0.8146   -0.8824    0.0035 C   0  0  0  0  0  0  0  0  0  0  0  0
    0.1871   -1.7916    0.2291 C   0  0  0  0  0  0  0  0  0  0  0  0
   -0.1685   -3.0936    0.4495 N   0  0  0  0  0  0  0  0  0  0  0  0
   -1.4444   -3.4947    0.4510 C   0  0  0  0  0  0  0  0  0  0  0  0
   -2.4001   -2.6039    0.2325 N   0  0  0  0  0  0  0  0  0  0  0  0
   -1.8068   -4.9375    0.6944 C   0  0  0  0  0  0  0  0  0  0  0  0
   -1.2958   -5.2989    1.9333 F   0  0  0  0  0  0  0  0  0  0  0  0
   -3.1726   -5.0629    0.6282 F   0  0  0  0  0  0  0  0  0  0  0  0
   -1.2066   -5.7128   -0.3061 F   0  0  0  0  0  0  0  0  0  0  0  0
    1.6116   -1.4758    0.2489 C   0  0  0  0  0  0  0  0  0  0  0  0
    2.4509   -2.4104    0.5299 O   0  0  0  0  0  0  0  0  0  0  0  0
    2.0524   -0.1751   -0.0340 N   0  0  0  0  0  0  0  0  0  0  0  0
    3.4161    0.1625   -0.0088 C   0  0  0  0  0  0  0  0  0  0  0  0
    4.2865   -0.4053    0.8767 C   0  0  0  0  0  0  0  0  0  0  0  0
    5.6554   -0.0696    0.8434 C   0  0  0  0  0  0  0  0  0  0  0  0
    6.0830    0.8288   -0.0893 C   0  0  0  0  0  0  0  0  0  0  0  0
    5.2296    1.4181   -0.9935 C   0  0  0  0  0  0  0  0  0  0  0  0
    3.8802    1.0731   -0.9421 C   0  0  0  0  0  0  0  0  0  0  0  0
    7.7679    1.2697   -0.1430 S   0  0  0  0  0  0  0  0  0  0  0  0
    7.9646    2.7683    0.6936 N   0  0  0  0  0  0  0  0  0  0  0  0
    8.6256    0.2225    0.5245 O   0  0  0  0  0  0  0  0  0  0  0  0
    8.1543    1.4160   -1.6002 O   0  0  0  0  0  0  0  0  0  0  0  0
   -6.0698    2.1033   -0.0127 C   0  0  0  0  0  0  0  0  0  0  0  0
   -7.0081    1.9935    1.0209 F   0  0  0  0  0  0  0  0  0  0  0  0
   -6.4172    1.0907   -0.9100 F   0  0  0  0  0  0  0  0  0  0  0  0
   -6.1516    3.3522   -0.5383 F   0  0  0  0  0  0  0  0  0  0  0  0
   -2.5814    1.3498   -3.0052 H   0  0  0  0  0  0  0  0  0  0  0  0
   -1.4893    1.7154   -1.6750 H   0  0  0  0  0  0  0  0  0  0  0  0
   -1.6304    0.0126   -2.3602 H   0  0  0  0  0  0  0  0  0  0  0  0
   -4.2227    0.4403   -1.8029 H   0  0  0  0  0  0  0  0  0  0  0  0
   -2.7377    2.2119    0.2201 H   0  0  0  0  0  0  0  0  0  0  0  0
   -3.9015    2.7016   -1.0655 H   0  0  0  0  0  0  0  0  0  0  0  0
   -5.8896    0.4011    1.6279 H   0  0  0  0  0  0  0  0  0  0  0  0
   -4.2360    0.6415    2.2483 H   0  0  0  0  0  0  0  0  0  0  0  0
   -5.2058   -1.0144   -0.1553 H   0  0  0  0  0  0  0  0  0  0  0  0
   -4.2225   -1.4840    1.2948 H   0  0  0  0  0  0  0  0  0  0  0  0
   -0.5554    0.1601   -0.1588 H   0  0  0  0  0  0  0  0  0  0  0  0
    1.3569    0.5997   -0.2759 H   0  0  0  0  0  0  0  0  0  0  0  0
    3.9906   -1.1068    1.6508 H   0  0  0  0  0  0  0  0  0  0  0  0
    6.2923   -0.5449    1.5541 H   0  0  0  0  0  0  0  0  0  0  0  0
    5.5677    2.1254   -1.7252 H   0  0  0  0  0  0  0  0  0  0  0  0
    3.2130    1.5308   -1.6422 H   0  0  0  0  0  0  0  0  0  0  0  0
    8.3690    3.4637    0.0149 H   0  0  0  0  0  0  0  0  0  0  0  0
    7.0508    3.1232    0.9992 H   0  0  0  0  0  0  0  0  0  0  0  0
  1  2  1  0
  2  3  1  0
  3  4  1  0
  4  5  1  0
  5  6  1  0
  6  7  1  0
  7  8  1  0
  8  9  2  0
  9 10  1  0
 10 11  2  0
 11 12  1  0
 12 13  2  0
 12 14  1  0
 14 15  1  0
 14 16  1  0
 14 17  1  0
 10 18  1  0
 18 19  2  0
 18 20  1  0
 20 21  1  0
 21 22  2  0
 22 23  1  0
 23 24  2  0
 24 25  1  0
 25 26  2  0
 24 27  1  0
 27 28  1  0
 27 29  2  0
 27 30  2  0
  4 31  1  0
 31 32  1  0
 31 33  1  0
 31 34  1  0
  7  2  1  0
 13  8  1  0
 26 21  1  0
  1 35  1  0
  1 36  1  0
  1 37  1  0
  2 38  1  6
  3 39  1  0
  3 40  1  0
  5 41  1  0
  5 42  1  0
  6 43  1  0
  6 44  1  0
  9 45  1  0
 20 46  1  0
 22 47  1  0
 23 48  1  0
 25 49  1  0
 26 50  1  0
 28 51  1  0
 28 52  1  0
M  END
$$$$
[H]c1nc(N2C([H])([H])C([H])([H])N(c3nc(C(=O)N([H])c4c([H])c([H])c(C(F)(F)F)c([H])c4[H])nc(N4C([H])([H])C([H])([H])N(C([H])([H])[H])C([H])([H])C4([H])[H])c3[H])C([H])([H])C2([H])[H])c2c([H])c([H])n([H])c2n1
     RDKit          3D

 70 75  0  0  0  0  0  0  0  0999 V2000
   -1.4157    7.2678   -0.0720 C   0  0  0  0  0  0  0  0  0  0  0  0
   -1.1830    5.8215   -0.1097 N   0  0  0  0  0  0  0  0  0  0  0  0
   -2.1987    5.2554    0.7449 C   0  0  0  0  0  0  0  0  0  0  0  0
   -2.3696    3.7919    0.6256 C   0  0  0  0  0  0  0  0  0  0  0  0
   -1.6866    3.1706   -0.5002 N   0  0  0  0  0  0  0  0  0  0  0  0
   -1.4209    3.8994   -1.6734 C   0  0  0  0  0  0  0  0  0  0  0  0
   -1.3125    5.3962   -1.4769 C   0  0  0  0  0  0  0  0  0  0  0  0
   -1.3103    1.7723   -0.3373 C   0  0  0  0  0  0  0  0  0  0  0  0
   -0.0271    1.4325   -0.0480 C   0  0  0  0  0  0  0  0  0  0  0  0
    0.2975    0.0875    0.1781 C   0  0  0  0  0  0  0  0  0  0  0  0
   -0.6841   -0.8260    0.0998 N   0  0  0  0  0  0  0  0  0  0  0  0
   -1.9360   -0.5008   -0.1871 C   0  0  0  0  0  0  0  0  0  0  0  0
   -2.2303    0.8231   -0.4060 N   0  0  0  0  0  0  0  0  0  0  0  0
   -3.0583   -1.4166   -0.2195 C   0  0  0  0  0  0  0  0  0  0  0  0
   -4.0784   -1.0387   -0.8492 O   0  0  0  0  0  0  0  0  0  0  0  0
   -3.0566   -2.7006    0.4340 N   0  0  0  0  0  0  0  0  0  0  0  0
   -4.2690   -3.4250    0.3309 C   0  0  0  0  0  0  0  0  0  0  0  0
   -5.4746   -2.7648    0.4011 C   0  0  0  0  0  0  0  0  0  0  0  0
   -6.6260   -3.5034    0.1960 C   0  0  0  0  0  0  0  0  0  0  0  0
   -6.5622   -4.8555   -0.0696 C   0  0  0  0  0  0  0  0  0  0  0  0
   -5.3450   -5.4752   -0.1257 C   0  0  0  0  0  0  0  0  0  0  0  0
   -4.1860   -4.7786    0.0709 C   0  0  0  0  0  0  0  0  0  0  0  0
   -7.8046   -5.6028   -0.3165 C   0  0  0  0  0  0  0  0  0  0  0  0
   -8.8248   -4.7625   -0.7537 F   0  0  0  0  0  0  0  0  0  0  0  0
   -7.6139   -6.5829   -1.2760 F   0  0  0  0  0  0  0  0  0  0  0  0
   -8.2231   -6.1688    0.8814 F   0  0  0  0  0  0  0  0  0  0  0  0
    1.6462   -0.1989    0.4324 N   0  0  0  0  0  0  0  0  0  0  0  0
    2.0376   -1.1378    1.4672 C   0  0  0  0  0  0  0  0  0  0  0  0
    3.3635   -1.7513    1.0717 C   0  0  0  0  0  0  0  0  0  0  0  0
    4.3466   -0.6942    0.8215 N   0  0  0  0  0  0  0  0  0  0  0  0
    3.9288    0.6276    0.4017 C   0  0  0  0  0  0  0  0  0  0  0  0
    2.6571    0.4549   -0.4073 C   0  0  0  0  0  0  0  0  0  0  0  0
    5.7177   -1.0426    0.9741 C   0  0  0  0  0  0  0  0  0  0  0  0
    6.3267   -1.0768    2.1743 N   0  0  0  0  0  0  0  0  0  0  0  0
    7.6181   -1.4282    2.2597 C   0  0  0  0  0  0  0  0  0  0  0  0
    8.3683   -1.7518    1.1923 N   0  0  0  0  0  0  0  0  0  0  0  0
    7.7875   -1.7251   -0.0422 C   0  0  0  0  0  0  0  0  0  0  0  0
    8.2892   -1.9692   -1.2795 N   0  0  0  0  0  0  0  0  0  0  0  0
    7.3025   -1.7743   -2.2008 C   0  0  0  0  0  0  0  0  0  0  0  0
    6.1903   -1.4077   -1.4831 C   0  0  0  0  0  0  0  0  0  0  0  0
    6.4668   -1.3708   -0.1374 C   0  0  0  0  0  0  0  0  0  0  0  0
   -2.0079    7.6325   -0.9233 H   0  0  0  0  0  0  0  0  0  0  0  0
   -0.4526    7.7913   -0.0992 H   0  0  0  0  0  0  0  0  0  0  0  0
   -1.9958    7.5606    0.8438 H   0  0  0  0  0  0  0  0  0  0  0  0
   -3.1735    5.7755    0.6653 H   0  0  0  0  0  0  0  0  0  0  0  0
   -1.8595    5.4832    1.8022 H   0  0  0  0  0  0  0  0  0  0  0  0
   -3.4287    3.4543    0.5510 H   0  0  0  0  0  0  0  0  0  0  0  0
   -1.9951    3.2503    1.5517 H   0  0  0  0  0  0  0  0  0  0  0  0
   -0.5160    3.4853   -2.1906 H   0  0  0  0  0  0  0  0  0  0  0  0
   -2.2804    3.7533   -2.3978 H   0  0  0  0  0  0  0  0  0  0  0  0
   -0.4049    5.7349   -2.0074 H   0  0  0  0  0  0  0  0  0  0  0  0
   -2.1736    5.9326   -1.9490 H   0  0  0  0  0  0  0  0  0  0  0  0
    0.7248    2.1705    0.0167 H   0  0  0  0  0  0  0  0  0  0  0  0
   -2.2524   -3.0764    0.9281 H   0  0  0  0  0  0  0  0  0  0  0  0
   -5.5622   -1.7350    0.6389 H   0  0  0  0  0  0  0  0  0  0  0  0
   -7.5766   -3.0092    0.2351 H   0  0  0  0  0  0  0  0  0  0  0  0
   -5.3531   -6.5396   -0.3310 H   0  0  0  0  0  0  0  0  0  0  0  0
   -3.2156   -5.2565    0.0285 H   0  0  0  0  0  0  0  0  0  0  0  0
    2.1485   -0.6046    2.4419 H   0  0  0  0  0  0  0  0  0  0  0  0
    1.2992   -1.9295    1.6242 H   0  0  0  0  0  0  0  0  0  0  0  0
    3.7319   -2.2864    1.9947 H   0  0  0  0  0  0  0  0  0  0  0  0
    3.2981   -2.4427    0.2318 H   0  0  0  0  0  0  0  0  0  0  0  0
    3.7313    1.2754    1.2542 H   0  0  0  0  0  0  0  0  0  0  0  0
    4.7202    1.0538   -0.2595 H   0  0  0  0  0  0  0  0  0  0  0  0
    2.9157   -0.2375   -1.2420 H   0  0  0  0  0  0  0  0  0  0  0  0
    2.3058    1.3897   -0.8470 H   0  0  0  0  0  0  0  0  0  0  0  0
    8.0715   -1.4246    3.2622 H   0  0  0  0  0  0  0  0  0  0  0  0
    9.2757   -2.2472   -1.4576 H   0  0  0  0  0  0  0  0  0  0  0  0
    7.3719   -1.8712   -3.2739 H   0  0  0  0  0  0  0  0  0  0  0  0
    5.2063   -1.1529   -1.8784 H   0  0  0  0  0  0  0  0  0  0  0  0
  1  2  1  0
  2  3  1  0
  3  4  1  0
  4  5  1  0
  5  6  1  0
  6  7  1  0
  5  8  1  0
  8  9  2  0
  9 10  1  0
 10 11  2  0
 11 12  1  0
 12 13  2  0
 12 14  1  0
 14 15  2  0
 14 16  1  0
 16 17  1  0
 17 18  2  0
 18 19  1  0
 19 20  2  0
 20 21  1  0
 21 22  2  0
 20 23  1  0
 23 24  1  0
 23 25  1  0
 23 26  1  0
 10 27  1  0
 27 28  1  0
 28 29  1  0
 29 30  1  0
 30 31  1  0
 31 32  1  0
 30 33  1  0
 33 34  2  0
 34 35  1  0
 35 36  2  0
 36 37  1  0
 37 38  1  0
 38 39  1  0
 39 40  2  0
 40 41  1  0
  7  2  1  0
 13  8  1  0
 22 17  1  0
 32 27  1  0
 41 33  1  0
 41 37  2  0
  1 42  1  0
  1 43  1  0
  1 44  1  0
  3 45  1  0
  3 46  1  0
  4 47  1  0
  4 48  1  0
  6 49  1  0
  6 50  1  0
  7 51  1  0
  7 52  1  0
  9 53  1  0
 16 54  1  0
 18 55  1  0
 19 56  1  0
 21 57  1  0
 22 58  1  0
 28 59  1  0
 28 60  1  0
 29 61  1  0
 29 62  1  0
 31 63  1  0
 31 64  1  0
 32 65  1  0
 32 66  1  0
 35 67  1  0
 38 68  1  0
 39 69  1  0
 40 70  1  0
M  END
$$$$
[H]c1nc(N2C([H])([H])C([H])([H])N(c3nc(C(F)(F)F)nc(N([H])C(=O)c4c([H])c([H])c(N5C([H])([H])C([H])([H])N(C([H])([H])[H])C([H])([H])C5([H])[H])c([H])c4[H])c3[H])C([H])([H])C2([H])[H])nc([H])c1C(F)(F)F
     RDKit          3D

 69 73  0  0  0  0  0  0  0  0999 V2000
   -8.4261    3.0219    0.5522 C   0  0  0  0  0  0  0  0  0  0  0  0
   -9.2332    1.8316    0.3654 N   0  0  0  0  0  0  0  0  0  0  0  0
   -9.2473    1.4888   -1.0397 C   0  0  0  0  0  0  0  0  0  0  0  0
   -7.8500    1.0630   -1.5032 C   0  0  0  0  0  0  0  0  0  0  0  0
   -7.3594    0.0925   -0.5641 N   0  0  0  0  0  0  0  0  0  0  0  0
   -8.3514   -0.4393    0.3802 C   0  0  0  0  0  0  0  0  0  0  0  0
   -8.7909    0.7694    1.2189 C   0  0  0  0  0  0  0  0  0  0  0  0
   -6.0170   -0.3493   -0.4576 C   0  0  0  0  0  0  0  0  0  0  0  0
   -5.7846   -1.6295   -0.0097 C   0  0  0  0  0  0  0  0  0  0  0  0
   -4.4920   -2.0681    0.1458 C   0  0  0  0  0  0  0  0  0  0  0  0
   -3.3861   -1.2820   -0.1272 C   0  0  0  0  0  0  0  0  0  0  0  0
   -3.6400   -0.0044   -0.5773 C   0  0  0  0  0  0  0  0  0  0  0  0
   -4.9212    0.4735   -0.7467 C   0  0  0  0  0  0  0  0  0  0  0  0
   -2.0532   -1.8092    0.1058 C   0  0  0  0  0  0  0  0  0  0  0  0
   -1.9622   -3.0154    0.4920 O   0  0  0  0  0  0  0  0  0  0  0  0
   -0.8851   -1.0292   -0.0796 N   0  0  0  0  0  0  0  0  0  0  0  0
    0.3837   -1.6229    0.2130 C   0  0  0  0  0  0  0  0  0  0  0  0
    1.5496   -0.9139    0.0858 C   0  0  0  0  0  0  0  0  0  0  0  0
    2.7732   -1.5341    0.3891 C   0  0  0  0  0  0  0  0  0  0  0  0
    2.7526   -2.8028    0.7917 N   0  0  0  0  0  0  0  0  0  0  0  0
    1.6125   -3.5358    0.9272 C   0  0  0  0  0  0  0  0  0  0  0  0
    0.4724   -2.9055    0.6285 N   0  0  0  0  0  0  0  0  0  0  0  0
    1.6298   -4.9659    1.3720 C   0  0  0  0  0  0  0  0  0  0  0  0
    1.7107   -5.7383    0.2273 F   0  0  0  0  0  0  0  0  0  0  0  0
    0.4219   -5.2215    1.9983 F   0  0  0  0  0  0  0  0  0  0  0  0
    2.7098   -5.2702    2.1442 F   0  0  0  0  0  0  0  0  0  0  0  0
    3.9420   -0.7449    0.2572 N   0  0  0  0  0  0  0  0  0  0  0  0
    4.5016   -0.0837    1.4023 C   0  0  0  0  0  0  0  0  0  0  0  0
    5.9911   -0.4028    1.4849 C   0  0  0  0  0  0  0  0  0  0  0  0
    6.5626   -0.0677    0.2185 N   0  0  0  0  0  0  0  0  0  0  0  0
    6.0547   -0.7420   -0.9503 C   0  0  0  0  0  0  0  0  0  0  0  0
    4.5492   -0.6037   -1.0421 C   0  0  0  0  0  0  0  0  0  0  0  0
    7.6010    0.8811    0.0831 C   0  0  0  0  0  0  0  0  0  0  0  0
    7.7578    1.5343   -1.1043 N   0  0  0  0  0  0  0  0  0  0  0  0
    8.7377    2.4258   -1.3070 C   0  0  0  0  0  0  0  0  0  0  0  0
    9.6498    2.7310   -0.3070 C   0  0  0  0  0  0  0  0  0  0  0  0
    9.4750    2.0553    0.8965 C   0  0  0  0  0  0  0  0  0  0  0  0
    8.4773    1.1652    1.0644 N   0  0  0  0  0  0  0  0  0  0  0  0
   10.7402    3.7188   -0.5535 C   0  0  0  0  0  0  0  0  0  0  0  0
   10.1467    4.9504   -0.8296 F   0  0  0  0  0  0  0  0  0  0  0  0
   11.4939    3.3154   -1.6442 F   0  0  0  0  0  0  0  0  0  0  0  0
   11.4966    3.8860    0.5714 F   0  0  0  0  0  0  0  0  0  0  0  0
   -8.7190    3.5334    1.4767 H   0  0  0  0  0  0  0  0  0  0  0  0
   -8.4465    3.6607   -0.3502 H   0  0  0  0  0  0  0  0  0  0  0  0
   -7.3556    2.7050    0.6915 H   0  0  0  0  0  0  0  0  0  0  0  0
   -9.5439    2.3815   -1.6145 H   0  0  0  0  0  0  0  0  0  0  0  0
  -10.0027    0.6945   -1.2627 H   0  0  0  0  0  0  0  0  0  0  0  0
   -7.2351    2.0120   -1.5226 H   0  0  0  0  0  0  0  0  0  0  0  0
   -7.9527    0.6636   -2.5261 H   0  0  0  0  0  0  0  0  0  0  0  0
   -9.2639   -0.8036   -0.1116 H   0  0  0  0  0  0  0  0  0  0  0  0
   -7.9069   -1.1499    1.0997 H   0  0  0  0  0  0  0  0  0  0  0  0
   -7.8254    1.1154    1.7110 H   0  0  0  0  0  0  0  0  0  0  0  0
   -9.4851    0.4781    2.0177 H   0  0  0  0  0  0  0  0  0  0  0  0
   -6.6052   -2.3260    0.2192 H   0  0  0  0  0  0  0  0  0  0  0  0
   -4.3618   -3.1128    0.5081 H   0  0  0  0  0  0  0  0  0  0  0  0
   -2.7981    0.6662   -0.8117 H   0  0  0  0  0  0  0  0  0  0  0  0
   -5.1540    1.4748   -1.1035 H   0  0  0  0  0  0  0  0  0  0  0  0
   -0.8970   -0.0346   -0.4002 H   0  0  0  0  0  0  0  0  0  0  0  0
    1.5524    0.1122   -0.2440 H   0  0  0  0  0  0  0  0  0  0  0  0
    4.4203    1.0341    1.2303 H   0  0  0  0  0  0  0  0  0  0  0  0
    3.9729   -0.3296    2.3458 H   0  0  0  0  0  0  0  0  0  0  0  0
    6.0960   -1.4852    1.7295 H   0  0  0  0  0  0  0  0  0  0  0  0
    6.3732    0.1995    2.3387 H   0  0  0  0  0  0  0  0  0  0  0  0
    6.5236   -0.3898   -1.8863 H   0  0  0  0  0  0  0  0  0  0  0  0
    6.3027   -1.8474   -0.8835 H   0  0  0  0  0  0  0  0  0  0  0  0
    4.2887    0.3394   -1.5500 H   0  0  0  0  0  0  0  0  0  0  0  0
    4.1970   -1.4343   -1.7189 H   0  0  0  0  0  0  0  0  0  0  0  0
    8.8617    2.9492   -2.2702 H   0  0  0  0  0  0  0  0  0  0  0  0
   10.1707    2.2719    1.6955 H   0  0  0  0  0  0  0  0  0  0  0  0
  1  2  1  0
  2  3  1  0
  3  4  1  0
  4  5  1  0
  5  6  1  0
  6  7  1  0
  5  8  1  0
  8  9  2  0
  9 10  1  0
 10 11  2  0
 11 12  1  0
 12 13  2  0
 11 14  1  0
 14 15  2  0
 14 16  1  0
 16 17  1  0
 17 18  2  0
 18 19  1  0
 19 20  2  0
 20 21  1  0
 21 22  2  0
 21 23  1  0
 23 24  1  0
 23 25  1  0
 23 26  1  0
 19 27  1  0
 27 28  1  0
 28 29  1  0
 29 30  1  0
 30 31  1  0
 31 32  1  0
 30 33  1  0
 33 34  2  0
 34 35  1  0
 35 36  2  0
 36 37  1  0
 37 38  2  0
 36 39  1  0
 39 40  1  0
 39 41  1  0
 39 42  1  0
  7  2  1  0
 13  8  1  0
 22 17  1  0
 32 27  1  0
 38 33  1  0
  1 43  1  0
  1 44  1  0
  1 45  1  0
  3 46  1  0
  3 47  1  0
  4 48  1  0
  4 49  1  0
  6 50  1  0
  6 51  1  0
  7 52  1  0
  7 53  1  0
  9 54  1  0
 10 55  1  0
 12 56  1  0
 13 57  1  0
 16 58  1  0
 18 59  1  0
 28 60  1  0
 28 61  1  0
 29 62  1  0
 29 63  1  0
 31 64  1  0
 31 65  1  0
 32 66  1  0
 32 67  1  0
 35 68  1  0
 37 69  1  0
M  END
$$$$
[H]c1nc(N2C([H])([H])C([H])([H])N(c3nc(C(=O)N([H])c4c([H])c([H])c(C(F)(F)F)c([H])c4[H])nc(N4C([H])([H])C([H])([H])N(C([H])([H])[H])C([H])([H])C4([H])[H])c3[H])C([H])([H])C2([H])[H])sc1C(F)(F)F
     RDKit          3D

 67 71  0  0  0  0  0  0  0  0999 V2000
   -4.3714   -6.3606   -0.4751 C   0  0  0  0  0  0  0  0  0  0  0  0
   -3.5818   -5.1162   -0.5294 N   0  0  0  0  0  0  0  0  0  0  0  0
   -2.4643   -5.3023    0.3313 C   0  0  0  0  0  0  0  0  0  0  0  0
   -1.8442   -4.0597    0.8943 C   0  0  0  0  0  0  0  0  0  0  0  0
   -2.3607   -2.8206    0.3905 N   0  0  0  0  0  0  0  0  0  0  0  0
   -3.7811   -2.7344    0.0788 C   0  0  0  0  0  0  0  0  0  0  0  0
   -4.4485   -4.0412   -0.1363 C   0  0  0  0  0  0  0  0  0  0  0  0
   -1.5456   -1.6913    0.1816 C   0  0  0  0  0  0  0  0  0  0  0  0
   -0.2083   -1.8266   -0.0349 C   0  0  0  0  0  0  0  0  0  0  0  0
    0.6125   -0.7265   -0.2202 C   0  0  0  0  0  0  0  0  0  0  0  0
    0.0549    0.4670   -0.1767 N   0  0  0  0  0  0  0  0  0  0  0  0
   -1.2869    0.6587    0.0408 C   0  0  0  0  0  0  0  0  0  0  0  0
   -2.0469   -0.4159    0.2105 N   0  0  0  0  0  0  0  0  0  0  0  0
   -1.6578    2.0550    0.0610 C   0  0  0  0  0  0  0  0  0  0  0  0
   -0.7409    2.9554    0.1182 O   0  0  0  0  0  0  0  0  0  0  0  0
   -2.9829    2.5009    0.0170 N   0  0  0  0  0  0  0  0  0  0  0  0
   -3.3529    3.8814   -0.0006 C   0  0  0  0  0  0  0  0  0  0  0  0
   -2.5619    4.8781   -0.5110 C   0  0  0  0  0  0  0  0  0  0  0  0
   -2.9453    6.2159   -0.4755 C   0  0  0  0  0  0  0  0  0  0  0  0
   -4.1476    6.5906    0.0825 C   0  0  0  0  0  0  0  0  0  0  0  0
   -4.9584    5.6149    0.5984 C   0  0  0  0  0  0  0  0  0  0  0  0
   -4.5645    4.2647    0.5571 C   0  0  0  0  0  0  0  0  0  0  0  0
   -4.5330    8.0000    0.0741 C   0  0  0  0  0  0  0  0  0  0  0  0
   -3.8743    8.6397   -0.9955 F   0  0  0  0  0  0  0  0  0  0  0  0
   -4.1068    8.5941    1.2572 F   0  0  0  0  0  0  0  0  0  0  0  0
   -5.8693    8.2369   -0.1300 F   0  0  0  0  0  0  0  0  0  0  0  0
    1.9975   -0.8818   -0.4406 N   0  0  0  0  0  0  0  0  0  0  0  0
    2.7248   -2.0533    0.0710 C   0  0  0  0  0  0  0  0  0  0  0  0
    3.9942   -1.5545    0.7521 C   0  0  0  0  0  0  0  0  0  0  0  0
    4.7022   -0.7454   -0.2220 N   0  0  0  0  0  0  0  0  0  0  0  0
    4.0938   -0.3938   -1.4876 C   0  0  0  0  0  0  0  0  0  0  0  0
    2.7016    0.1291   -1.1923 C   0  0  0  0  0  0  0  0  0  0  0  0
    6.0415   -0.2636    0.0395 C   0  0  0  0  0  0  0  0  0  0  0  0
    7.1832   -0.9104   -0.1338 N   0  0  0  0  0  0  0  0  0  0  0  0
    8.2987   -0.3165    0.1416 C   0  0  0  0  0  0  0  0  0  0  0  0
    8.2554    0.9705    0.6076 C   0  0  0  0  0  0  0  0  0  0  0  0
    6.5669    1.2590    0.6220 S   0  0  0  0  0  0  0  0  0  0  0  0
    9.4186    1.8508    0.9904 C   0  0  0  0  0  0  0  0  0  0  0  0
    9.1461    3.1304    0.6036 F   0  0  0  0  0  0  0  0  0  0  0  0
   10.5271    1.3043    0.3852 F   0  0  0  0  0  0  0  0  0  0  0  0
    9.6283    1.7675    2.3532 F   0  0  0  0  0  0  0  0  0  0  0  0
   -5.4087   -6.1624   -0.1574 H   0  0  0  0  0  0  0  0  0  0  0  0
   -3.9486   -7.0964    0.2229 H   0  0  0  0  0  0  0  0  0  0  0  0
   -4.4434   -6.8158   -1.4774 H   0  0  0  0  0  0  0  0  0  0  0  0
   -1.6697   -5.8423   -0.2566 H   0  0  0  0  0  0  0  0  0  0  0  0
   -2.7141   -6.0386    1.1445 H   0  0  0  0  0  0  0  0  0  0  0  0
   -0.7285   -4.1039    0.8509 H   0  0  0  0  0  0  0  0  0  0  0  0
   -2.1199   -4.0570    1.9955 H   0  0  0  0  0  0  0  0  0  0  0  0
   -3.9512   -2.0225   -0.7669 H   0  0  0  0  0  0  0  0  0  0  0  0
   -4.2554   -2.2556    0.9535 H   0  0  0  0  0  0  0  0  0  0  0  0
   -5.0663   -4.4079    0.7168 H   0  0  0  0  0  0  0  0  0  0  0  0
   -5.1992   -3.9235   -0.9756 H   0  0  0  0  0  0  0  0  0  0  0  0
    0.2594   -2.8010   -0.0815 H   0  0  0  0  0  0  0  0  0  0  0  0
   -3.7525    1.7872   -0.0072 H   0  0  0  0  0  0  0  0  0  0  0  0
   -1.6272    4.6379   -0.9770 H   0  0  0  0  0  0  0  0  0  0  0  0
   -2.2737    6.9421   -0.9067 H   0  0  0  0  0  0  0  0  0  0  0  0
   -5.9151    5.8601    1.0351 H   0  0  0  0  0  0  0  0  0  0  0  0
   -5.2618    3.5604    0.9721 H   0  0  0  0  0  0  0  0  0  0  0  0
    3.0306   -2.6237   -0.8151 H   0  0  0  0  0  0  0  0  0  0  0  0
    2.1357   -2.6591    0.7409 H   0  0  0  0  0  0  0  0  0  0  0  0
    3.7260   -0.9903    1.6570 H   0  0  0  0  0  0  0  0  0  0  0  0
    4.6062   -2.4306    1.0048 H   0  0  0  0  0  0  0  0  0  0  0  0
    4.6982    0.3738   -2.0198 H   0  0  0  0  0  0  0  0  0  0  0  0
    3.9645   -1.3125   -2.0851 H   0  0  0  0  0  0  0  0  0  0  0  0
    2.7896    1.0752   -0.6180 H   0  0  0  0  0  0  0  0  0  0  0  0
    2.1295    0.3665   -2.1256 H   0  0  0  0  0  0  0  0  0  0  0  0
    9.2840   -0.8102    0.0093 H   0  0  0  0  0  0  0  0  0  0  0  0
  1  2  1  0
  2  3  1  0
  3  4  1  0
  4  5  1  0
  5  6  1  0
  6  7  1  0
  5  8  1  0
  8  9  2  0
  9 10  1  0
 10 11  2  0
 11 12  1  0
 12 13  2  0
 12 14  1  0
 14 15  2  0
 14 16  1  0
 16 17  1  0
 17 18  2  0
 18 19  1  0
 19 20  2  0
 20 21  1  0
 21 22  2  0
 20 23  1  0
 23 24  1  0
 23 25  1  0
 23 26  1  0
 10 27  1  0
 27 28  1  0
 28 29  1  0
 29 30  1  0
 30 31  1  0
 31 32  1  0
 30 33  1  0
 33 34  2  0
 34 35  1  0
 35 36  2  0
 36 37  1  0
 36 38  1  0
 38 39  1  0
 38 40  1  0
 38 41  1  0
  7  2  1  0
 13  8  1  0
 22 17  1  0
 32 27  1  0
 37 33  1  0
  1 42  1  0
  1 43  1  0
  1 44  1  0
  3 45  1  0
  3 46  1  0
  4 47  1  0
  4 48  1  0
  6 49  1  0
  6 50  1  0
  7 51  1  0
  7 52  1  0
  9 53  1  0
 16 54  1  0
 18 55  1  0
 19 56  1  0
 21 57  1  0
 22 58  1  0
 28 59  1  0
 28 60  1  0
 29 61  1  0
 29 62  1  0
 31 63  1  0
 31 64  1  0
 32 65  1  0
 32 66  1  0
 35 67  1  0
M  END
$$$$
[H]c1nc(N2C([H])([H])C([H])([H])C([H])([H])[C@@]([H])(N([H])C(=O)c3c([H])c([H])c(N([H])C(=O)c4c([H])c([H])c(N(C([H])([H])[H])C([H])([H])[H])c([H])c4[H])c([H])c3[H])C2([H])[H])sc1C(F)(F)F
     RDKit          3D

 62 65  0  0  0  0  0  0  0  0999 V2000
  -10.1132   -0.6673   -0.7419 C   0  0  0  0  0  0  0  0  0  0  0  0
   -9.6957    0.2128    0.3657 N   0  0  0  0  0  0  0  0  0  0  0  0
  -10.6623    0.9038    1.1513 C   0  0  0  0  0  0  0  0  0  0  0  0
   -8.3061    0.3042    0.6002 C   0  0  0  0  0  0  0  0  0  0  0  0
   -7.5853    1.4570    0.2840 C   0  0  0  0  0  0  0  0  0  0  0  0
   -6.2159    1.5150    0.4046 C   0  0  0  0  0  0  0  0  0  0  0  0
   -5.4838    0.4407    0.8454 C   0  0  0  0  0  0  0  0  0  0  0  0
   -6.2182   -0.7094    1.1685 C   0  0  0  0  0  0  0  0  0  0  0  0
   -7.5834   -0.7805    1.0528 C   0  0  0  0  0  0  0  0  0  0  0  0
   -4.0495    0.4131    0.8156 C   0  0  0  0  0  0  0  0  0  0  0  0
   -3.6018    0.3395   -0.4314 O   0  0  0  0  0  0  0  0  0  0  0  0
   -3.0781    0.4463    1.8373 N   0  0  0  0  0  0  0  0  0  0  0  0
   -1.7223    0.3587    1.3162 C   0  0  0  0  0  0  0  0  0  0  0  0
   -1.0529    1.4127    0.7905 C   0  0  0  0  0  0  0  0  0  0  0  0
    0.1350    1.2206    0.0584 C   0  0  0  0  0  0  0  0  0  0  0  0
    0.6279   -0.0376   -0.1306 C   0  0  0  0  0  0  0  0  0  0  0  0
   -0.0693   -1.1270    0.4316 C   0  0  0  0  0  0  0  0  0  0  0  0
   -1.2473   -0.9203    1.1568 C   0  0  0  0  0  0  0  0  0  0  0  0
    1.7673   -0.3048   -1.0003 C   0  0  0  0  0  0  0  0  0  0  0  0
    1.4628   -0.8176   -2.1519 O   0  0  0  0  0  0  0  0  0  0  0  0
    3.1288   -0.0767   -0.7144 N   0  0  0  0  0  0  0  0  0  0  0  0
    4.0912   -0.4408   -1.7700 C   0  0  2  0  0  0  0  0  0  0  0  0
    4.7491   -1.7038   -1.2698 C   0  0  0  0  0  0  0  0  0  0  0  0
    5.8544   -2.1796   -2.2048 C   0  0  0  0  0  0  0  0  0  0  0  0
    6.8266   -1.0446   -2.5102 C   0  0  0  0  0  0  0  0  0  0  0  0
    6.4031    0.0479   -1.6540 N   0  0  0  0  0  0  0  0  0  0  0  0
    5.1361    0.6386   -1.9241 C   0  0  0  0  0  0  0  0  0  0  0  0
    7.2664    0.4243   -0.5898 C   0  0  0  0  0  0  0  0  0  0  0  0
    7.1180    1.3641    0.3378 N   0  0  0  0  0  0  0  0  0  0  0  0
    8.0156    1.5293    1.2434 C   0  0  0  0  0  0  0  0  0  0  0  0
    9.1111    0.7067    1.2058 C   0  0  0  0  0  0  0  0  0  0  0  0
    8.7877   -0.2714   -0.1427 S   0  0  0  0  0  0  0  0  0  0  0  0
   10.2800    0.7212    2.1626 C   0  0  0  0  0  0  0  0  0  0  0  0
   10.2929    1.8693    2.8948 F   0  0  0  0  0  0  0  0  0  0  0  0
   10.0812   -0.3875    2.9880 F   0  0  0  0  0  0  0  0  0  0  0  0
   11.4174    0.4729    1.4580 F   0  0  0  0  0  0  0  0  0  0  0  0
   -9.4802   -0.4153   -1.6272 H   0  0  0  0  0  0  0  0  0  0  0  0
  -11.1652   -0.4633   -0.9347 H   0  0  0  0  0  0  0  0  0  0  0  0
   -9.8740   -1.7084   -0.4954 H   0  0  0  0  0  0  0  0  0  0  0  0
  -11.6296    0.3814    1.0225 H   0  0  0  0  0  0  0  0  0  0  0  0
  -10.3489    0.8870    2.2114 H   0  0  0  0  0  0  0  0  0  0  0  0
  -10.7755    1.9732    0.8437 H   0  0  0  0  0  0  0  0  0  0  0  0
   -8.1598    2.3263   -0.0815 H   0  0  0  0  0  0  0  0  0  0  0  0
   -5.6438    2.4156    0.1666 H   0  0  0  0  0  0  0  0  0  0  0  0
   -5.6652   -1.5527    1.5039 H   0  0  0  0  0  0  0  0  0  0  0  0
   -8.1218   -1.6946    1.2963 H   0  0  0  0  0  0  0  0  0  0  0  0
   -3.2324    0.5347    2.8266 H   0  0  0  0  0  0  0  0  0  0  0  0
   -1.4208    2.4139    0.9361 H   0  0  0  0  0  0  0  0  0  0  0  0
    0.6198    2.0758   -0.3344 H   0  0  0  0  0  0  0  0  0  0  0  0
    0.2765   -2.1192    0.3234 H   0  0  0  0  0  0  0  0  0  0  0  0
   -1.7965   -1.7285    1.6123 H   0  0  0  0  0  0  0  0  0  0  0  0
    3.4334    0.3094    0.1799 H   0  0  0  0  0  0  0  0  0  0  0  0
    3.5449   -0.6410   -2.7323 H   0  0  0  0  0  0  0  0  0  0  0  0
    5.1380   -1.4741   -0.2546 H   0  0  0  0  0  0  0  0  0  0  0  0
    3.9692   -2.5011   -1.1640 H   0  0  0  0  0  0  0  0  0  0  0  0
    6.4116   -2.9508   -1.6113 H   0  0  0  0  0  0  0  0  0  0  0  0
    5.4441   -2.5816   -3.1358 H   0  0  0  0  0  0  0  0  0  0  0  0
    6.8194   -0.7839   -3.5885 H   0  0  0  0  0  0  0  0  0  0  0  0
    7.8366   -1.4035   -2.2625 H   0  0  0  0  0  0  0  0  0  0  0  0
    5.0674    1.1269   -2.9432 H   0  0  0  0  0  0  0  0  0  0  0  0
    4.9365    1.4083   -1.1291 H   0  0  0  0  0  0  0  0  0  0  0  0
    7.9488    2.3004    2.0383 H   0  0  0  0  0  0  0  0  0  0  0  0
  1  2  1  0
  2  3  1  0
  2  4  1  0
  4  5  2  0
  5  6  1  0
  6  7  2  0
  7  8  1  0
  8  9  2  0
  7 10  1  0
 10 11  2  0
 10 12  1  0
 12 13  1  0
 13 14  2  0
 14 15  1  0
 15 16  2  0
 16 17  1  0
 17 18  2  0
 16 19  1  0
 19 20  2  0
 19 21  1  0
 21 22  1  0
 22 23  1  0
 23 24  1  0
 24 25  1  0
 25 26  1  0
 26 27  1  0
 26 28  1  0
 28 29  2  0
 29 30  1  0
 30 31  2  0
 31 32  1  0
 31 33  1  0
 33 34  1  0
 33 35  1  0
 33 36  1  0
  9  4  1  0
 18 13  1  0
 27 22  1  0
 32 28  1  0
  1 37  1  0
  1 38  1  0
  1 39  1  0
  3 40  1  0
  3 41  1  0
  3 42  1  0
  5 43  1  0
  6 44  1  0
  8 45  1  0
  9 46  1  0
 12 47  1  0
 14 48  1  0
 15 49  1  0
 17 50  1  0
 18 51  1  0
 21 52  1  0
 22 53  1  6
 23 54  1  0
 23 55  1  0
 24 56  1  0
 24 57  1  0
 25 58  1  0
 25 59  1  0
 27 60  1  0
 27 61  1  0
 30 62  1  0
M  END
$$$$
[H]c1nc(N2C([H])([H])C([H])([H])N(c3nc(C(F)(F)F)nc(N([H])C(=O)c4c([H])c([H])c(N5C([H])([H])C([H])([H])N(C([H])([H])[H])C([H])([H])C5([H])[H])c([H])c4[H])c3[H])C([H])([H])C2([H])[H])c2c([H])c([H])n([H])c2n1
     RDKit          3D

 70 75  0  0  0  0  0  0  0  0999 V2000
   -8.4640    2.7451   -0.1751 C   0  0  0  0  0  0  0  0  0  0  0  0
   -9.3760    1.6430    0.0032 N   0  0  0  0  0  0  0  0  0  0  0  0
   -9.1677    1.0644    1.3075 C   0  0  0  0  0  0  0  0  0  0  0  0
   -7.7059    0.7407    1.5518 C   0  0  0  0  0  0  0  0  0  0  0  0
   -7.1986    0.0450    0.4033 N   0  0  0  0  0  0  0  0  0  0  0  0
   -8.1759   -0.4037   -0.5624 C   0  0  0  0  0  0  0  0  0  0  0  0
   -9.1437    0.6615   -1.0004 C   0  0  0  0  0  0  0  0  0  0  0  0
   -5.8118   -0.1829    0.2568 C   0  0  0  0  0  0  0  0  0  0  0  0
   -4.9200    0.4097    1.1326 C   0  0  0  0  0  0  0  0  0  0  0  0
   -3.5417    0.2268    1.0674 C   0  0  0  0  0  0  0  0  0  0  0  0
   -3.0238   -0.5911    0.0735 C   0  0  0  0  0  0  0  0  0  0  0  0
   -3.8918   -1.1890   -0.8068 C   0  0  0  0  0  0  0  0  0  0  0  0
   -5.2732   -0.9940   -0.7247 C   0  0  0  0  0  0  0  0  0  0  0  0
   -1.5580   -0.7916    0.0166 C   0  0  0  0  0  0  0  0  0  0  0  0
   -0.9026    0.0311    0.7018 O   0  0  0  0  0  0  0  0  0  0  0  0
   -0.9719   -1.8025   -0.7305 N   0  0  0  0  0  0  0  0  0  0  0  0
    0.3958   -2.0947   -0.8573 C   0  0  0  0  0  0  0  0  0  0  0  0
    1.4177   -1.3899   -0.2835 C   0  0  0  0  0  0  0  0  0  0  0  0
    2.7685   -1.7592   -0.4197 C   0  0  0  0  0  0  0  0  0  0  0  0
    3.0206   -2.8545   -1.1512 N   0  0  0  0  0  0  0  0  0  0  0  0
    2.0483   -3.5737   -1.7322 C   0  0  0  0  0  0  0  0  0  0  0  0
    0.7789   -3.2031   -1.5881 N   0  0  0  0  0  0  0  0  0  0  0  0
    2.4452   -4.7834   -2.5493 C   0  0  0  0  0  0  0  0  0  0  0  0
    1.8168   -5.9209   -2.0857 F   0  0  0  0  0  0  0  0  0  0  0  0
    3.8117   -4.9182   -2.5687 F   0  0  0  0  0  0  0  0  0  0  0  0
    2.0283   -4.5427   -3.8427 F   0  0  0  0  0  0  0  0  0  0  0  0
    3.7775   -0.9849    0.1758 N   0  0  0  0  0  0  0  0  0  0  0  0
    4.8721   -1.6127    0.8693 C   0  0  0  0  0  0  0  0  0  0  0  0
    5.8958   -0.5587    1.2856 C   0  0  0  0  0  0  0  0  0  0  0  0
    6.1629    0.3360    0.1769 N   0  0  0  0  0  0  0  0  0  0  0  0
    5.0933    0.7888   -0.6468 C   0  0  0  0  0  0  0  0  0  0  0  0
    3.7681    0.4553    0.0733 C   0  0  0  0  0  0  0  0  0  0  0  0
    7.5257    0.7020   -0.0023 C   0  0  0  0  0  0  0  0  0  0  0  0
    8.4755   -0.1851   -0.3175 N   0  0  0  0  0  0  0  0  0  0  0  0
    9.7784    0.1159   -0.4749 C   0  0  0  0  0  0  0  0  0  0  0  0
   10.1322    1.3974   -0.3004 N   0  0  0  0  0  0  0  0  0  0  0  0
    9.2010    2.3507    0.0236 C   0  0  0  0  0  0  0  0  0  0  0  0
    9.3174    3.6824    0.2447 N   0  0  0  0  0  0  0  0  0  0  0  0
    8.1153    4.2004    0.5330 C   0  0  0  0  0  0  0  0  0  0  0  0
    7.2037    3.1763    0.4969 C   0  0  0  0  0  0  0  0  0  0  0  0
    7.8786    2.0251    0.1801 C   0  0  0  0  0  0  0  0  0  0  0  0
   -8.1350    3.0802    0.8242 H   0  0  0  0  0  0  0  0  0  0  0  0
   -9.0601    3.5774   -0.6506 H   0  0  0  0  0  0  0  0  0  0  0  0
   -7.6370    2.4315   -0.8476 H   0  0  0  0  0  0  0  0  0  0  0  0
   -9.7597    0.1112    1.3221 H   0  0  0  0  0  0  0  0  0  0  0  0
   -9.5264    1.7520    2.0991 H   0  0  0  0  0  0  0  0  0  0  0  0
   -7.6602    0.0216    2.4152 H   0  0  0  0  0  0  0  0  0  0  0  0
   -7.1667    1.6456    1.8518 H   0  0  0  0  0  0  0  0  0  0  0  0
   -7.7604   -0.8740   -1.4622 H   0  0  0  0  0  0  0  0  0  0  0  0
   -8.7937   -1.1866   -0.0264 H   0  0  0  0  0  0  0  0  0  0  0  0
  -10.1232    0.2153   -1.3292 H   0  0  0  0  0  0  0  0  0  0  0  0
   -8.7870    1.2086   -1.9207 H   0  0  0  0  0  0  0  0  0  0  0  0
   -5.3284    1.0559    1.9176 H   0  0  0  0  0  0  0  0  0  0  0  0
   -2.9034    0.7301    1.7999 H   0  0  0  0  0  0  0  0  0  0  0  0
   -3.4931   -1.8216   -1.5778 H   0  0  0  0  0  0  0  0  0  0  0  0
   -5.8907   -1.4901   -1.4390 H   0  0  0  0  0  0  0  0  0  0  0  0
   -1.6259   -2.4545   -1.2819 H   0  0  0  0  0  0  0  0  0  0  0  0
    1.2357   -0.5117    0.3035 H   0  0  0  0  0  0  0  0  0  0  0  0
    5.3213   -2.4316    0.2953 H   0  0  0  0  0  0  0  0  0  0  0  0
    4.4554   -2.0436    1.8184 H   0  0  0  0  0  0  0  0  0  0  0  0
    5.5399   -0.0541    2.1852 H   0  0  0  0  0  0  0  0  0  0  0  0
    6.8227   -1.0881    1.5350 H   0  0  0  0  0  0  0  0  0  0  0  0
    5.1390    1.8250   -0.9804 H   0  0  0  0  0  0  0  0  0  0  0  0
    5.0716    0.0819   -1.5371 H   0  0  0  0  0  0  0  0  0  0  0  0
    2.9092    0.8426   -0.4839 H   0  0  0  0  0  0  0  0  0  0  0  0
    3.8361    0.8555    1.1133 H   0  0  0  0  0  0  0  0  0  0  0  0
   10.4981   -0.6495   -0.7320 H   0  0  0  0  0  0  0  0  0  0  0  0
   10.2045    4.2141    0.1985 H   0  0  0  0  0  0  0  0  0  0  0  0
    7.8910    5.2553    0.7565 H   0  0  0  0  0  0  0  0  0  0  0  0
    6.1236    3.2403    0.6829 H   0  0  0  0  0  0  0  0  0  0  0  0
  1  2  1  0
  2  3  1  0
  3  4  1  0
  4  5  1  0
  5  6  1  0
  6  7  1  0
  5  8  1  0
  8  9  2  0
  9 10  1  0
 10 11  2  0
 11 12  1  0
 12 13  2  0
 11 14  1  0
 14 15  2  0
 14 16  1  0
 16 17  1  0
 17 18  2  0
 18 19  1  0
 19 20  2  0
 20 21  1  0
 21 22  2  0
 21 23  1  0
 23 24  1  0
 23 25  1  0
 23 26  1  0
 19 27  1  0
 27 28  1  0
 28 29  1  0
 29 30  1  0
 30 31  1  0
 31 32  1  0
 30 33  1  0
 33 34  2  0
 34 35  1  0
 35 36  2  0
 36 37  1  0
 37 38  1  0
 38 39  1  0
 39 40  2  0
 40 41  1  0
  7  2  1  0
 13  8  1  0
 22 17  1  0
 32 27  1  0
 41 33  1  0
 41 37  2  0
  1 42  1  0
  1 43  1  0
  1 44  1  0
  3 45  1  0
  3 46  1  0
  4 47  1  0
  4 48  1  0
  6 49  1  0
  6 50  1  0
  7 51  1  0
  7 52  1  0
  9 53  1  0
 10 54  1  0
 12 55  1  0
 13 56  1  0
 16 57  1  0
 18 58  1  0
 28 59  1  0
 28 60  1  0
 29 61  1  0
 29 62  1  0
 31 63  1  0
 31 64  1  0
 32 65  1  0
 32 66  1  0
 35 67  1  0
 38 68  1  0
 39 69  1  0
 40 70  1  0
M  END
$$$$
[H]c1c(C(=O)N([H])c2c([H])c([H])c(C(F)(F)F)c([H])c2[H])nc(C(F)(F)F)nc1N1C([H])([H])C([H])([H])N(S(=O)(=O)N2C([H])([H])C([H])([H])OC([H])([H])C2([H])[H])C([H])([H])[C@@]1([H])C([H])([H])[H]
     RDKit          3D

 63 66  0  0  0  0  0  0  0  0999 V2000
   -0.7380   -1.2842   -0.2019 C   0  0  0  0  0  0  0  0  0  0  0  0
   -1.5282   -0.1319    0.3007 C   0  0  2  0  0  0  0  0  0  0  0  0
   -2.8483    0.0466   -0.5047 C   0  0  0  0  0  0  0  0  0  0  0  0
   -3.6361    0.9688    0.1865 N   0  0  0  0  0  0  0  0  0  0  0  0
   -3.0125    1.6863    1.2410 C   0  0  0  0  0  0  0  0  0  0  0  0
   -1.6941    2.2545    0.8014 C   0  0  0  0  0  0  0  0  0  0  0  0
   -0.8900    1.1640    0.2044 N   0  0  0  0  0  0  0  0  0  0  0  0
    0.3630    1.4355   -0.3664 C   0  0  0  0  0  0  0  0  0  0  0  0
    1.4803    0.7404    0.0069 C   0  0  0  0  0  0  0  0  0  0  0  0
    2.7200    0.9710   -0.5616 C   0  0  0  0  0  0  0  0  0  0  0  0
    2.7914    1.9198   -1.5093 N   0  0  0  0  0  0  0  0  0  0  0  0
    1.7125    2.6248   -1.8999 C   0  0  0  0  0  0  0  0  0  0  0  0
    0.5319    2.3754   -1.3306 N   0  0  0  0  0  0  0  0  0  0  0  0
    1.8966    3.6664   -2.9426 C   0  0  0  0  0  0  0  0  0  0  0  0
    0.8909    3.6396   -3.8853 F   0  0  0  0  0  0  0  0  0  0  0  0
    3.1103    3.5465   -3.5834 F   0  0  0  0  0  0  0  0  0  0  0  0
    1.9148    4.9213   -2.3420 F   0  0  0  0  0  0  0  0  0  0  0  0
    3.8709    0.2387   -0.0985 C   0  0  0  0  0  0  0  0  0  0  0  0
    3.7385   -0.4755    0.9191 O   0  0  0  0  0  0  0  0  0  0  0  0
    5.0934    0.3577   -0.8046 N   0  0  0  0  0  0  0  0  0  0  0  0
    6.2281   -0.3390   -0.3328 C   0  0  0  0  0  0  0  0  0  0  0  0
    7.0814   -1.0311   -1.1709 C   0  0  0  0  0  0  0  0  0  0  0  0
    8.1949   -1.6576   -0.6291 C   0  0  0  0  0  0  0  0  0  0  0  0
    8.5039   -1.6315    0.7157 C   0  0  0  0  0  0  0  0  0  0  0  0
    7.6536   -0.9445    1.5419 C   0  0  0  0  0  0  0  0  0  0  0  0
    6.5250   -0.3040    1.0144 C   0  0  0  0  0  0  0  0  0  0  0  0
    9.7104   -2.3191    1.2435 C   0  0  0  0  0  0  0  0  0  0  0  0
    9.2295   -3.3652    2.0341 F   0  0  0  0  0  0  0  0  0  0  0  0
   10.3429   -1.4176    2.0787 F   0  0  0  0  0  0  0  0  0  0  0  0
   10.5045   -2.8097    0.2552 F   0  0  0  0  0  0  0  0  0  0  0  0
   -5.3076    0.8904    0.1558 S   0  0  0  0  0  0  0  0  0  0  0  0
   -5.7436    1.0713   -1.3132 O   0  0  0  0  0  0  0  0  0  0  0  0
   -5.8163    2.1916    0.8031 O   0  0  0  0  0  0  0  0  0  0  0  0
   -6.0831   -0.4445    0.7506 N   0  0  0  0  0  0  0  0  0  0  0  0
   -5.9297   -1.7258    0.2299 C   0  0  0  0  0  0  0  0  0  0  0  0
   -7.2754   -2.4166   -0.0311 C   0  0  0  0  0  0  0  0  0  0  0  0
   -8.1415   -2.3191    1.0291 O   0  0  0  0  0  0  0  0  0  0  0  0
   -8.3139   -1.0535    1.5399 C   0  0  0  0  0  0  0  0  0  0  0  0
   -7.0000   -0.3379    1.8201 C   0  0  0  0  0  0  0  0  0  0  0  0
   -0.1948   -1.7551    0.6712 H   0  0  0  0  0  0  0  0  0  0  0  0
   -1.4762   -2.0941   -0.5022 H   0  0  0  0  0  0  0  0  0  0  0  0
   -0.0890   -1.0934   -1.0576 H   0  0  0  0  0  0  0  0  0  0  0  0
   -1.8165   -0.2895    1.3709 H   0  0  0  0  0  0  0  0  0  0  0  0
   -3.2591   -0.9012   -0.8180 H   0  0  0  0  0  0  0  0  0  0  0  0
   -2.4802    0.5543   -1.4517 H   0  0  0  0  0  0  0  0  0  0  0  0
   -2.9701    1.1440    2.2022 H   0  0  0  0  0  0  0  0  0  0  0  0
   -3.6843    2.5772    1.4541 H   0  0  0  0  0  0  0  0  0  0  0  0
   -1.8331    3.0398    0.0615 H   0  0  0  0  0  0  0  0  0  0  0  0
   -1.0715    2.5625    1.6916 H   0  0  0  0  0  0  0  0  0  0  0  0
    1.4066   -0.0195    0.7797 H   0  0  0  0  0  0  0  0  0  0  0  0
    5.1211    0.9581   -1.6537 H   0  0  0  0  0  0  0  0  0  0  0  0
    6.8288   -1.0438   -2.2063 H   0  0  0  0  0  0  0  0  0  0  0  0
    8.8672   -2.2062   -1.3033 H   0  0  0  0  0  0  0  0  0  0  0  0
    7.8488   -0.8910    2.6157 H   0  0  0  0  0  0  0  0  0  0  0  0
    5.8720    0.2532    1.6855 H   0  0  0  0  0  0  0  0  0  0  0  0
   -5.4095   -2.3987    0.9587 H   0  0  0  0  0  0  0  0  0  0  0  0
   -5.4073   -1.7921   -0.7500 H   0  0  0  0  0  0  0  0  0  0  0  0
   -7.0411   -3.4899   -0.1992 H   0  0  0  0  0  0  0  0  0  0  0  0
   -7.7238   -2.0438   -0.9936 H   0  0  0  0  0  0  0  0  0  0  0  0
   -9.0153   -0.4166    0.9337 H   0  0  0  0  0  0  0  0  0  0  0  0
   -8.8173   -1.1596    2.5422 H   0  0  0  0  0  0  0  0  0  0  0  0
   -7.2402    0.6823    2.1535 H   0  0  0  0  0  0  0  0  0  0  0  0
   -6.5454   -0.8793    2.7120 H   0  0  0  0  0  0  0  0  0  0  0  0
  1  2  1  0
  2  3  1  0
  3  4  1  0
  4  5  1  0
  5  6  1  0
  6  7  1  0
  7  8  1  0
  8  9  2  0
  9 10  1  0
 10 11  2  0
 11 12  1  0
 12 13  2  0
 12 14  1  0
 14 15  1  0
 14 16  1  0
 14 17  1  0
 10 18  1  0
 18 19  2  0
 18 20  1  0
 20 21  1  0
 21 22  2  0
 22 23  1  0
 23 24  2  0
 24 25  1  0
 25 26  2  0
 24 27  1  0
 27 28  1  0
 27 29  1  0
 27 30  1  0
  4 31  1  0
 31 32  2  0
 31 33  2  0
 31 34  1  0
 34 35  1  0
 35 36  1  0
 36 37  1  0
 37 38  1  0
 38 39  1  0
  7  2  1  0
 13  8  1  0
 26 21  1  0
 39 34  1  0
  1 40  1  0
  1 41  1  0
  1 42  1  0
  2 43  1  1
  3 44  1  0
  3 45  1  0
  5 46  1  0
  5 47  1  0
  6 48  1  0
  6 49  1  0
  9 50  1  0
 20 51  1  0
 22 52  1  0
 23 53  1  0
 25 54  1  0
 26 55  1  0
 35 56  1  0
 35 57  1  0
 36 58  1  0
 36 59  1  0
 38 60  1  0
 38 61  1  0
 39 62  1  0
 39 63  1  0
M  END
$$$$
[H]c1c(N2C([H])([H])C([H])([H])OC([H])([H])C2([H])[H])nc(C(F)(F)F)nc1N1C([H])([H])C([H])([H])N(c2c([H])c(N3C([H])([H])C([H])([H])OC([H])([H])C3([H])[H])nc(C(F)(F)F)c2[H])C([H])([H])[C@@]1([H])C([H])([H])[H]
     RDKit          3D

 68 72  0  0  0  0  0  0  0  0999 V2000
    0.8947   -1.5979    1.4893 C   0  0  0  0  0  0  0  0  0  0  0  0
    0.8600   -0.0667    1.3386 C   0  0  2  0  0  0  0  0  0  0  0  0
   -0.4852    0.4282    1.7568 C   0  0  0  0  0  0  0  0  0  0  0  0
   -1.3730    0.6659    0.6369 N   0  0  0  0  0  0  0  0  0  0  0  0
   -0.7694    1.4472   -0.4425 C   0  0  0  0  0  0  0  0  0  0  0  0
    0.2678    0.4746   -1.0209 C   0  0  0  0  0  0  0  0  0  0  0  0
    1.2485    0.1998    0.0018 N   0  0  0  0  0  0  0  0  0  0  0  0
    2.6185    0.1814   -0.4306 C   0  0  0  0  0  0  0  0  0  0  0  0
    3.7038    0.0804    0.4110 C   0  0  0  0  0  0  0  0  0  0  0  0
    4.9949    0.0193   -0.1002 C   0  0  0  0  0  0  0  0  0  0  0  0
    5.1196    0.0662   -1.4700 N   0  0  0  0  0  0  0  0  0  0  0  0
    4.0809    0.1676   -2.3003 C   0  0  0  0  0  0  0  0  0  0  0  0
    2.8721    0.2215   -1.7391 N   0  0  0  0  0  0  0  0  0  0  0  0
    4.2968    0.1757   -3.7848 C   0  0  0  0  0  0  0  0  0  0  0  0
    4.1020    1.4212   -4.3054 F   0  0  0  0  0  0  0  0  0  0  0  0
    3.4079   -0.7252   -4.3482 F   0  0  0  0  0  0  0  0  0  0  0  0
    5.5674   -0.2645   -4.1003 F   0  0  0  0  0  0  0  0  0  0  0  0
    6.1752   -0.1158    0.6482 N   0  0  0  0  0  0  0  0  0  0  0  0
    7.1217   -1.1739    0.2679 C   0  0  0  0  0  0  0  0  0  0  0  0
    8.4859   -0.5419    0.0155 C   0  0  0  0  0  0  0  0  0  0  0  0
    8.8084    0.3805    0.9851 O   0  0  0  0  0  0  0  0  0  0  0  0
    7.8987    1.3882    1.2013 C   0  0  0  0  0  0  0  0  0  0  0  0
    6.5964    0.7199    1.7297 C   0  0  0  0  0  0  0  0  0  0  0  0
   -2.6721    0.1670    0.4876 C   0  0  0  0  0  0  0  0  0  0  0  0
   -3.8215    0.9172    0.5782 C   0  0  0  0  0  0  0  0  0  0  0  0
   -5.0829    0.3394    0.3956 C   0  0  0  0  0  0  0  0  0  0  0  0
   -5.0810   -0.9950    0.1276 N   0  0  0  0  0  0  0  0  0  0  0  0
   -4.0221   -1.7645    0.0209 C   0  0  0  0  0  0  0  0  0  0  0  0
   -2.7890   -1.1881    0.2032 C   0  0  0  0  0  0  0  0  0  0  0  0
   -4.1126   -3.2239   -0.3004 C   0  0  0  0  0  0  0  0  0  0  0  0
   -3.2767   -3.4148   -1.4097 F   0  0  0  0  0  0  0  0  0  0  0  0
   -5.3970   -3.5950   -0.6344 F   0  0  0  0  0  0  0  0  0  0  0  0
   -3.5873   -3.8860    0.7624 F   0  0  0  0  0  0  0  0  0  0  0  0
   -6.3016    1.0107    0.4378 N   0  0  0  0  0  0  0  0  0  0  0  0
   -7.2400    0.7450    1.5510 C   0  0  0  0  0  0  0  0  0  0  0  0
   -8.3814   -0.0184    0.8252 C   0  0  0  0  0  0  0  0  0  0  0  0
   -8.8795    0.7288   -0.2024 O   0  0  0  0  0  0  0  0  0  0  0  0
   -7.9563    1.0106   -1.2026 C   0  0  0  0  0  0  0  0  0  0  0  0
   -6.8400    1.8858   -0.5639 C   0  0  0  0  0  0  0  0  0  0  0  0
    0.0973   -1.8695    2.2032 H   0  0  0  0  0  0  0  0  0  0  0  0
    1.8734   -1.9165    1.8447 H   0  0  0  0  0  0  0  0  0  0  0  0
    0.5876   -2.1059    0.5354 H   0  0  0  0  0  0  0  0  0  0  0  0
    1.5977    0.2980    2.1222 H   0  0  0  0  0  0  0  0  0  0  0  0
   -0.9856   -0.2869    2.4544 H   0  0  0  0  0  0  0  0  0  0  0  0
   -0.3622    1.3846    2.3177 H   0  0  0  0  0  0  0  0  0  0  0  0
   -0.2082    2.3197   -0.1070 H   0  0  0  0  0  0  0  0  0  0  0  0
   -1.4405    1.7338   -1.2342 H   0  0  0  0  0  0  0  0  0  0  0  0
    0.6805    0.8381   -1.9629 H   0  0  0  0  0  0  0  0  0  0  0  0
   -0.2938   -0.4720   -1.2882 H   0  0  0  0  0  0  0  0  0  0  0  0
    3.5854    0.0445    1.4553 H   0  0  0  0  0  0  0  0  0  0  0  0
    7.1421   -1.9023    1.0867 H   0  0  0  0  0  0  0  0  0  0  0  0
    6.8211   -1.6788   -0.6608 H   0  0  0  0  0  0  0  0  0  0  0  0
    9.2311   -1.3655    0.0465 H   0  0  0  0  0  0  0  0  0  0  0  0
    8.5367   -0.1204   -1.0340 H   0  0  0  0  0  0  0  0  0  0  0  0
    7.5788    1.8851    0.2654 H   0  0  0  0  0  0  0  0  0  0  0  0
    8.3130    2.1241    1.8844 H   0  0  0  0  0  0  0  0  0  0  0  0
    7.0209    0.0554    2.5415 H   0  0  0  0  0  0  0  0  0  0  0  0
    5.8884    1.4592    2.0779 H   0  0  0  0  0  0  0  0  0  0  0  0
   -3.7992    1.9534    0.7927 H   0  0  0  0  0  0  0  0  0  0  0  0
   -1.8815   -1.7432    0.1149 H   0  0  0  0  0  0  0  0  0  0  0  0
   -6.8575    0.0584    2.2933 H   0  0  0  0  0  0  0  0  0  0  0  0
   -7.6798    1.6737    1.9036 H   0  0  0  0  0  0  0  0  0  0  0  0
   -9.1451   -0.2613    1.5759 H   0  0  0  0  0  0  0  0  0  0  0  0
   -7.8977   -0.9266    0.4027 H   0  0  0  0  0  0  0  0  0  0  0  0
   -7.4787    0.0622   -1.5723 H   0  0  0  0  0  0  0  0  0  0  0  0
   -8.4048    1.5485   -2.0385 H   0  0  0  0  0  0  0  0  0  0  0  0
   -6.1498    2.2615   -1.3213 H   0  0  0  0  0  0  0  0  0  0  0  0
   -7.4218    2.6781   -0.0160 H   0  0  0  0  0  0  0  0  0  0  0  0
  1  2  1  0
  2  3  1  0
  3  4  1  0
  4  5  1  0
  5  6  1  0
  6  7  1  0
  7  8  1  0
  8  9  2  0
  9 10  1  0
 10 11  2  0
 11 12  1  0
 12 13  2  0
 12 14  1  0
 14 15  1  0
 14 16  1  0
 14 17  1  0
 10 18  1  0
 18 19  1  0
 19 20  1  0
 20 21  1  0
 21 22  1  0
 22 23  1  0
  4 24  1  0
 24 25  2  0
 25 26  1  0
 26 27  2  0
 27 28  1  0
 28 29  2  0
 28 30  1  0
 30 31  1  0
 30 32  1  0
 30 33  1  0
 26 34  1  0
 34 35  1  0
 35 36  1  0
 36 37  1  0
 37 38  1  0
 38 39  1  0
  7  2  1  0
 13  8  1  0
 23 18  1  0
 29 24  1  0
 39 34  1  0
  1 40  1  0
  1 41  1  0
  1 42  1  0
  2 43  1  1
  3 44  1  0
  3 45  1  0
  5 46  1  0
  5 47  1  0
  6 48  1  0
  6 49  1  0
  9 50  1  0
 19 51  1  0
 19 52  1  0
 20 53  1  0
 20 54  1  0
 22 55  1  0
 22 56  1  0
 23 57  1  0
 23 58  1  0
 25 59  1  0
 29 60  1  0
 35 61  1  0
 35 62  1  0
 36 63  1  0
 36 64  1  0
 38 65  1  0
 38 66  1  0
 39 67  1  0
 39 68  1  0
M  END
$$$$
[H]c1nc(N2C([H])([H])C([H])([H])N(c3nc(C(F)(F)F)nc(N([H])C(=O)c4c([H])c([H])c(N5C([H])([H])C([H])([H])N(C([H])([H])[H])C([H])([H])C5([H])[H])c([H])c4[H])c3[H])C([H])([H])C2([H])[H])sc1C(F)(F)F
     RDKit          3D

 67 71  0  0  0  0  0  0  0  0999 V2000
  -10.8012    0.7849    0.2544 C   0  0  0  0  0  0  0  0  0  0  0  0
   -9.5876    0.8015    1.0360 N   0  0  0  0  0  0  0  0  0  0  0  0
   -9.0023   -0.5011    1.0547 C   0  0  0  0  0  0  0  0  0  0  0  0
   -7.6073   -0.4802    1.6203 C   0  0  0  0  0  0  0  0  0  0  0  0
   -6.7749    0.3643    0.7926 N   0  0  0  0  0  0  0  0  0  0  0  0
   -7.3895    1.4516    0.0912 C   0  0  0  0  0  0  0  0  0  0  0  0
   -8.7329    1.8590    0.6257 C   0  0  0  0  0  0  0  0  0  0  0  0
   -5.3848    0.0877    0.6978 C   0  0  0  0  0  0  0  0  0  0  0  0
   -4.6615    0.7779   -0.2513 C   0  0  0  0  0  0  0  0  0  0  0  0
   -3.3061    0.5572   -0.3979 C   0  0  0  0  0  0  0  0  0  0  0  0
   -2.6455   -0.3624    0.4100 C   0  0  0  0  0  0  0  0  0  0  0  0
   -3.3280   -1.0566    1.3533 C   0  0  0  0  0  0  0  0  0  0  0  0
   -4.7125   -0.8201    1.4903 C   0  0  0  0  0  0  0  0  0  0  0  0
   -1.1769   -0.5697    0.1726 C   0  0  0  0  0  0  0  0  0  0  0  0
   -0.4739   -0.6778    1.1992 O   0  0  0  0  0  0  0  0  0  0  0  0
   -0.7043   -0.6313   -1.1207 N   0  0  0  0  0  0  0  0  0  0  0  0
    0.6231   -0.7109   -1.5790 C   0  0  0  0  0  0  0  0  0  0  0  0
    1.7388   -0.6443   -0.7968 C   0  0  0  0  0  0  0  0  0  0  0  0
    3.0030   -0.7154   -1.3193 C   0  0  0  0  0  0  0  0  0  0  0  0
    3.0951   -0.8627   -2.6827 N   0  0  0  0  0  0  0  0  0  0  0  0
    2.0128   -0.9306   -3.4516 C   0  0  0  0  0  0  0  0  0  0  0  0
    0.8226   -0.8576   -2.9335 N   0  0  0  0  0  0  0  0  0  0  0  0
    2.2911   -1.0859   -4.9200 C   0  0  0  0  0  0  0  0  0  0  0  0
    3.5326   -1.6658   -5.1488 F   0  0  0  0  0  0  0  0  0  0  0  0
    2.4044    0.2324   -5.3987 F   0  0  0  0  0  0  0  0  0  0  0  0
    1.2559   -1.7135   -5.5186 F   0  0  0  0  0  0  0  0  0  0  0  0
    4.2101   -0.6058   -0.5856 N   0  0  0  0  0  0  0  0  0  0  0  0
    4.4100   -1.1308    0.6966 C   0  0  0  0  0  0  0  0  0  0  0  0
    5.8114   -0.9462    1.2818 C   0  0  0  0  0  0  0  0  0  0  0  0
    6.5499    0.1081    0.6924 N   0  0  0  0  0  0  0  0  0  0  0  0
    5.8068    1.0561   -0.1490 C   0  0  0  0  0  0  0  0  0  0  0  0
    5.2823    0.1436   -1.2681 C   0  0  0  0  0  0  0  0  0  0  0  0
    7.9444    0.2750    0.8437 C   0  0  0  0  0  0  0  0  0  0  0  0
    8.6698    1.2353    0.2473 N   0  0  0  0  0  0  0  0  0  0  0  0
    9.9293    1.3094    0.4559 C   0  0  0  0  0  0  0  0  0  0  0  0
   10.5133    0.3876    1.2994 C   0  0  0  0  0  0  0  0  0  0  0  0
    9.1322   -0.5497    1.7388 S   0  0  0  0  0  0  0  0  0  0  0  0
   11.9564    0.2741    1.6819 C   0  0  0  0  0  0  0  0  0  0  0  0
   12.1790    0.5261    3.0038 F   0  0  0  0  0  0  0  0  0  0  0  0
   12.6731    1.1380    0.8939 F   0  0  0  0  0  0  0  0  0  0  0  0
   12.3410   -1.0058    1.3209 F   0  0  0  0  0  0  0  0  0  0  0  0
  -11.0303   -0.2374   -0.0637 H   0  0  0  0  0  0  0  0  0  0  0  0
  -10.7196    1.4054   -0.6757 H   0  0  0  0  0  0  0  0  0  0  0  0
  -11.6626    1.1714    0.8546 H   0  0  0  0  0  0  0  0  0  0  0  0
   -8.9611   -0.9914    0.0462 H   0  0  0  0  0  0  0  0  0  0  0  0
   -9.6396   -1.1617    1.6818 H   0  0  0  0  0  0  0  0  0  0  0  0
   -7.2120   -1.5273    1.4684 H   0  0  0  0  0  0  0  0  0  0  0  0
   -7.6067   -0.1814    2.6729 H   0  0  0  0  0  0  0  0  0  0  0  0
   -6.7638    2.3845    0.0864 H   0  0  0  0  0  0  0  0  0  0  0  0
   -7.5237    1.1594   -0.9772 H   0  0  0  0  0  0  0  0  0  0  0  0
   -9.2195    2.5259   -0.1443 H   0  0  0  0  0  0  0  0  0  0  0  0
   -8.5750    2.5565    1.5047 H   0  0  0  0  0  0  0  0  0  0  0  0
   -5.1834    1.5088   -0.8828 H   0  0  0  0  0  0  0  0  0  0  0  0
   -2.7732    1.0959   -1.1270 H   0  0  0  0  0  0  0  0  0  0  0  0
   -2.8692   -1.7828    2.0077 H   0  0  0  0  0  0  0  0  0  0  0  0
   -5.2467   -1.3626    2.2217 H   0  0  0  0  0  0  0  0  0  0  0  0
   -1.4531   -0.5293   -1.8952 H   0  0  0  0  0  0  0  0  0  0  0  0
    1.6615   -0.5254    0.2976 H   0  0  0  0  0  0  0  0  0  0  0  0
    4.2727   -2.2583    0.6213 H   0  0  0  0  0  0  0  0  0  0  0  0
    3.6379   -0.8190    1.4561 H   0  0  0  0  0  0  0  0  0  0  0  0
    5.6740   -0.8602    2.3835 H   0  0  0  0  0  0  0  0  0  0  0  0
    6.3895   -1.9086    1.1529 H   0  0  0  0  0  0  0  0  0  0  0  0
    4.9391    1.3968    0.4479 H   0  0  0  0  0  0  0  0  0  0  0  0
    6.4246    1.8654   -0.5317 H   0  0  0  0  0  0  0  0  0  0  0  0
    4.8990    0.7401   -2.0976 H   0  0  0  0  0  0  0  0  0  0  0  0
    6.0693   -0.5889   -1.5186 H   0  0  0  0  0  0  0  0  0  0  0  0
   10.5730    2.0784   -0.0210 H   0  0  0  0  0  0  0  0  0  0  0  0
  1  2  1  0
  2  3  1  0
  3  4  1  0
  4  5  1  0
  5  6  1  0
  6  7  1  0
  5  8  1  0
  8  9  2  0
  9 10  1  0
 10 11  2  0
 11 12  1  0
 12 13  2  0
 11 14  1  0
 14 15  2  0
 14 16  1  0
 16 17  1  0
 17 18  2  0
 18 19  1  0
 19 20  2  0
 20 21  1  0
 21 22  2  0
 21 23  1  0
 23 24  1  0
 23 25  1  0
 23 26  1  0
 19 27  1  0
 27 28  1  0
 28 29  1  0
 29 30  1  0
 30 31  1  0
 31 32  1  0
 30 33  1  0
 33 34  2  0
 34 35  1  0
 35 36  2  0
 36 37  1  0
 36 38  1  0
 38 39  1  0
 38 40  1  0
 38 41  1  0
  7  2  1  0
 13  8  1  0
 22 17  1  0
 32 27  1  0
 37 33  1  0
  1 42  1  0
  1 43  1  0
  1 44  1  0
  3 45  1  0
  3 46  1  0
  4 47  1  0
  4 48  1  0
  6 49  1  0
  6 50  1  0
  7 51  1  0
  7 52  1  0
  9 53  1  0
 10 54  1  0
 12 55  1  0
 13 56  1  0
 16 57  1  0
 18 58  1  0
 28 59  1  0
 28 60  1  0
 29 61  1  0
 29 62  1  0
 31 63  1  0
 31 64  1  0
 32 65  1  0
 32 66  1  0
 35 67  1  0
M  END
$$$$
[H]c1c(C(=O)N([H])c2c([H])c([H])c(S(=O)(=O)N([H])[H])c([H])c2[H])nc(C(F)(F)F)nc1N1C([H])([H])C([H])([H])N(C(C([H])([H])[H])(C([H])([H])[H])C([H])([H])[H])C([H])([H])[C@@]1([H])C([H])([H])[H]
     RDKit          3D

 61 63  0  0  0  0  0  0  0  0999 V2000
   -2.8718   -1.2040    2.4311 C   0  0  0  0  0  0  0  0  0  0  0  0
   -2.6528   -0.0928    1.4456 C   0  0  2  0  0  0  0  0  0  0  0  0
   -4.0068    0.5450    1.0791 C   0  0  0  0  0  0  0  0  0  0  0  0
   -4.7837   -0.4648    0.3968 N   0  0  0  0  0  0  0  0  0  0  0  0
   -4.2150   -0.9953   -0.7814 C   0  0  0  0  0  0  0  0  0  0  0  0
   -2.8406   -1.5674   -0.5211 C   0  0  0  0  0  0  0  0  0  0  0  0
   -2.0760   -0.5667    0.1915 N   0  0  0  0  0  0  0  0  0  0  0  0
   -0.8813   -0.0594   -0.3082 C   0  0  0  0  0  0  0  0  0  0  0  0
    0.3373   -0.5186    0.1192 C   0  0  0  0  0  0  0  0  0  0  0  0
    1.4895    0.0250   -0.4060 C   0  0  0  0  0  0  0  0  0  0  0  0
    1.3650    0.9981   -1.3320 N   0  0  0  0  0  0  0  0  0  0  0  0
    0.1748    1.4512   -1.7537 C   0  0  0  0  0  0  0  0  0  0  0  0
   -0.9299    0.9086   -1.2281 N   0  0  0  0  0  0  0  0  0  0  0  0
    0.0961    2.5407   -2.7487 C   0  0  0  0  0  0  0  0  0  0  0  0
   -0.7520    3.5609   -2.3022 F   0  0  0  0  0  0  0  0  0  0  0  0
    1.3780    3.1043   -2.9112 F   0  0  0  0  0  0  0  0  0  0  0  0
   -0.3217    2.0878   -3.9802 F   0  0  0  0  0  0  0  0  0  0  0  0
    2.8384   -0.4231    0.0303 C   0  0  0  0  0  0  0  0  0  0  0  0
    2.9026   -1.2249    0.9714 O   0  0  0  0  0  0  0  0  0  0  0  0
    3.9083    0.1159   -0.6826 N   0  0  0  0  0  0  0  0  0  0  0  0
    5.2627   -0.1540   -0.4357 C   0  0  0  0  0  0  0  0  0  0  0  0
    6.2034   -0.0202   -1.4625 C   0  0  0  0  0  0  0  0  0  0  0  0
    7.5540   -0.2290   -1.2749 C   0  0  0  0  0  0  0  0  0  0  0  0
    8.0649   -0.5896   -0.0390 C   0  0  0  0  0  0  0  0  0  0  0  0
    7.1472   -0.7293    0.9773 C   0  0  0  0  0  0  0  0  0  0  0  0
    5.7963   -0.5210    0.8016 C   0  0  0  0  0  0  0  0  0  0  0  0
    9.7764   -0.8519    0.1860 S   0  0  0  0  0  0  0  0  0  0  0  0
   10.4968    0.7072    0.4224 N   0  0  0  0  0  0  0  0  0  0  0  0
   10.4360   -1.4770   -1.0127 O   0  0  0  0  0  0  0  0  0  0  0  0
   10.0595   -1.7492    1.3604 O   0  0  0  0  0  0  0  0  0  0  0  0
   -6.1642   -0.1286    0.3306 C   0  0  0  0  0  0  0  0  0  0  0  0
   -6.3605    1.0878   -0.5345 C   0  0  0  0  0  0  0  0  0  0  0  0
   -7.0124   -1.2434   -0.1434 C   0  0  0  0  0  0  0  0  0  0  0  0
   -6.6563    0.2602    1.7236 C   0  0  0  0  0  0  0  0  0  0  0  0
   -1.8789   -1.5839    2.7881 H   0  0  0  0  0  0  0  0  0  0  0  0
   -3.3611   -0.7818    3.3222 H   0  0  0  0  0  0  0  0  0  0  0  0
   -3.4890   -2.0397    2.0088 H   0  0  0  0  0  0  0  0  0  0  0  0
   -2.0472    0.6941    1.8994 H   0  0  0  0  0  0  0  0  0  0  0  0
   -3.7431    1.3242    0.3421 H   0  0  0  0  0  0  0  0  0  0  0  0
   -4.5387    0.8646    1.9701 H   0  0  0  0  0  0  0  0  0  0  0  0
   -4.0709   -0.1685   -1.5283 H   0  0  0  0  0  0  0  0  0  0  0  0
   -4.8807   -1.7561   -1.2302 H   0  0  0  0  0  0  0  0  0  0  0  0
   -2.9549   -2.5196    0.0485 H   0  0  0  0  0  0  0  0  0  0  0  0
   -2.3886   -1.8184   -1.4892 H   0  0  0  0  0  0  0  0  0  0  0  0
    0.4239   -1.3130    0.8651 H   0  0  0  0  0  0  0  0  0  0  0  0
    3.7185    0.7877   -1.4817 H   0  0  0  0  0  0  0  0  0  0  0  0
    5.8213    0.2591   -2.4252 H   0  0  0  0  0  0  0  0  0  0  0  0
    8.2578   -0.1206   -2.1011 H   0  0  0  0  0  0  0  0  0  0  0  0
    7.5545   -1.0266    1.9657 H   0  0  0  0  0  0  0  0  0  0  0  0
    5.1338   -0.6381    1.6361 H   0  0  0  0  0  0  0  0  0  0  0  0
   11.4571    0.6416    0.8167 H   0  0  0  0  0  0  0  0  0  0  0  0
    9.8681    1.3635    0.9257 H   0  0  0  0  0  0  0  0  0  0  0  0
   -7.2214    1.6906   -0.1551 H   0  0  0  0  0  0  0  0  0  0  0  0
   -6.6178    0.8022   -1.5869 H   0  0  0  0  0  0  0  0  0  0  0  0
   -5.4959    1.7295   -0.5484 H   0  0  0  0  0  0  0  0  0  0  0  0
   -8.1207   -0.9408   -0.1410 H   0  0  0  0  0  0  0  0  0  0  0  0
   -7.0016   -2.1309    0.5265 H   0  0  0  0  0  0  0  0  0  0  0  0
   -6.8081   -1.5672   -1.1803 H   0  0  0  0  0  0  0  0  0  0  0  0
   -6.1092   -0.3742    2.4485 H   0  0  0  0  0  0  0  0  0  0  0  0
   -7.7187    0.0024    1.7817 H   0  0  0  0  0  0  0  0  0  0  0  0
   -6.5506    1.3501    1.9137 H   0  0  0  0  0  0  0  0  0  0  0  0
  1  2  1  0
  2  3  1  0
  3  4  1  0
  4  5  1  0
  5  6  1  0
  6  7  1  0
  7  8  1  0
  8  9  2  0
  9 10  1  0
 10 11  2  0
 11 12  1  0
 12 13  2  0
 12 14  1  0
 14 15  1  0
 14 16  1  0
 14 17  1  0
 10 18  1  0
 18 19  2  0
 18 20  1  0
 20 21  1  0
 21 22  2  0
 22 23  1  0
 23 24  2  0
 24 25  1  0
 25 26  2  0
 24 27  1  0
 27 28  1  0
 27 29  2  0
 27 30  2  0
  4 31  1  0
 31 32  1  0
 31 33  1  0
 31 34  1  0
  7  2  1  0
 13  8  1  0
 26 21  1  0
  1 35  1  0
  1 36  1  0
  1 37  1  0
  2 38  1  1
  3 39  1  0
  3 40  1  0
  5 41  1  0
  5 42  1  0
  6 43  1  0
  6 44  1  0
  9 45  1  0
 20 46  1  0
 22 47  1  0
 23 48  1  0
 25 49  1  0
 26 50  1  0
 28 51  1  0
 28 52  1  0
 32 53  1  0
 32 54  1  0
 32 55  1  0
 33 56  1  0
 33 57  1  0
 33 58  1  0
 34 59  1  0
 34 60  1  0
 34 61  1  0
M  END
$$$$
[H]c1c(N2C([H])([H])C([H])([H])OC([H])([H])C2([H])[H])nc(C(F)(F)F)nc1N1C([H])([H])C([H])([H])N(c2c([H])c(N3C([H])([H])C([H])([H])C(F)(F)C([H])([H])C3([H])[H])nc(C(F)(F)F)c2[H])C([H])([H])[C@@]1([H])C([H])([H])[H]
     RDKit          3D

 70 74  0  0  0  0  0  0  0  0999 V2000
   -1.7953    0.0219   -1.9141 C   0  0  0  0  0  0  0  0  0  0  0  0
   -1.1129    0.1839   -0.5533 C   0  0  2  0  0  0  0  0  0  0  0  0
    0.3802    0.1816   -0.6954 C   0  0  0  0  0  0  0  0  0  0  0  0
    1.0724   -0.7800    0.0949 N   0  0  0  0  0  0  0  0  0  0  0  0
    0.3798   -2.0033    0.4539 C   0  0  0  0  0  0  0  0  0  0  0  0
   -0.8416   -1.5922    1.2335 C   0  0  0  0  0  0  0  0  0  0  0  0
   -1.6471   -0.7847    0.3439 N   0  0  0  0  0  0  0  0  0  0  0  0
   -3.0625   -0.9442    0.3990 C   0  0  0  0  0  0  0  0  0  0  0  0
   -3.9049    0.1462    0.1922 C   0  0  0  0  0  0  0  0  0  0  0  0
   -5.2667   -0.0511    0.2233 C   0  0  0  0  0  0  0  0  0  0  0  0
   -5.7752   -1.2877    0.4498 N   0  0  0  0  0  0  0  0  0  0  0  0
   -4.9650   -2.3529    0.6501 C   0  0  0  0  0  0  0  0  0  0  0  0
   -3.6503   -2.1330    0.6159 N   0  0  0  0  0  0  0  0  0  0  0  0
   -5.4700   -3.7302    0.8842 C   0  0  0  0  0  0  0  0  0  0  0  0
   -4.6090   -4.3176    1.7866 F   0  0  0  0  0  0  0  0  0  0  0  0
   -6.7842   -3.7635    1.3096 F   0  0  0  0  0  0  0  0  0  0  0  0
   -5.3083   -4.4254   -0.3026 F   0  0  0  0  0  0  0  0  0  0  0  0
   -6.1527    1.0346    0.0185 N   0  0  0  0  0  0  0  0  0  0  0  0
   -5.6719    2.3667   -0.3102 C   0  0  0  0  0  0  0  0  0  0  0  0
   -6.7825    2.9865   -1.1764 C   0  0  0  0  0  0  0  0  0  0  0  0
   -7.8915    3.2456   -0.4159 O   0  0  0  0  0  0  0  0  0  0  0  0
   -8.1116    2.2787    0.5585 C   0  0  0  0  0  0  0  0  0  0  0  0
   -7.5943    0.9060    0.1349 C   0  0  0  0  0  0  0  0  0  0  0  0
    2.4109   -0.6371    0.5299 C   0  0  0  0  0  0  0  0  0  0  0  0
    3.4581   -0.3957   -0.3333 C   0  0  0  0  0  0  0  0  0  0  0  0
    4.7543   -0.2537    0.1110 C   0  0  0  0  0  0  0  0  0  0  0  0
    4.9349   -0.3640    1.4478 N   0  0  0  0  0  0  0  0  0  0  0  0
    3.9455   -0.5942    2.3265 C   0  0  0  0  0  0  0  0  0  0  0  0
    2.6450   -0.7391    1.9070 C   0  0  0  0  0  0  0  0  0  0  0  0
    4.2431   -0.6691    3.7785 C   0  0  0  0  0  0  0  0  0  0  0  0
    3.0675   -0.6705    4.4857 F   0  0  0  0  0  0  0  0  0  0  0  0
    4.9383   -1.7920    4.1425 F   0  0  0  0  0  0  0  0  0  0  0  0
    4.9687    0.4940    4.0817 F   0  0  0  0  0  0  0  0  0  0  0  0
    5.8434    0.0236   -0.7515 N   0  0  0  0  0  0  0  0  0  0  0  0
    5.8456    1.2585   -1.5254 C   0  0  0  0  0  0  0  0  0  0  0  0
    7.1129    1.9675   -0.9899 C   0  0  0  0  0  0  0  0  0  0  0  0
    8.2780    1.1533   -1.4954 C   0  0  0  0  0  0  0  0  0  0  0  0
    8.2774    1.1483   -2.8784 F   0  0  0  0  0  0  0  0  0  0  0  0
    9.4436    1.7954   -1.0963 F   0  0  0  0  0  0  0  0  0  0  0  0
    8.2715   -0.1965   -0.8705 C   0  0  0  0  0  0  0  0  0  0  0  0
    6.9380   -0.9027   -0.8588 C   0  0  0  0  0  0  0  0  0  0  0  0
   -2.4649    0.8641   -2.1514 H   0  0  0  0  0  0  0  0  0  0  0  0
   -2.4199   -0.9133   -1.9107 H   0  0  0  0  0  0  0  0  0  0  0  0
   -1.0476   -0.0450   -2.7259 H   0  0  0  0  0  0  0  0  0  0  0  0
   -1.4221    1.1958   -0.1936 H   0  0  0  0  0  0  0  0  0  0  0  0
    0.7803    1.1835   -0.4196 H   0  0  0  0  0  0  0  0  0  0  0  0
    0.6102   -0.0271   -1.7858 H   0  0  0  0  0  0  0  0  0  0  0  0
    0.0255   -2.5524   -0.4355 H   0  0  0  0  0  0  0  0  0  0  0  0
    0.9803   -2.7009    1.0666 H   0  0  0  0  0  0  0  0  0  0  0  0
   -0.5750   -1.0602    2.1654 H   0  0  0  0  0  0  0  0  0  0  0  0
   -1.3592   -2.5235    1.5553 H   0  0  0  0  0  0  0  0  0  0  0  0
   -3.4446    1.1063    0.0160 H   0  0  0  0  0  0  0  0  0  0  0  0
   -5.5229    2.9419    0.6246 H   0  0  0  0  0  0  0  0  0  0  0  0
   -4.7420    2.3706   -0.8703 H   0  0  0  0  0  0  0  0  0  0  0  0
   -6.3144    3.9359   -1.5550 H   0  0  0  0  0  0  0  0  0  0  0  0
   -7.0123    2.2770   -1.9735 H   0  0  0  0  0  0  0  0  0  0  0  0
   -9.1782    2.2047    0.8567 H   0  0  0  0  0  0  0  0  0  0  0  0
   -7.5497    2.5755    1.4529 H   0  0  0  0  0  0  0  0  0  0  0  0
   -7.8971    0.1851    0.9193 H   0  0  0  0  0  0  0  0  0  0  0  0
   -8.0594    0.6756   -0.8418 H   0  0  0  0  0  0  0  0  0  0  0  0
    3.2526   -0.3212   -1.4005 H   0  0  0  0  0  0  0  0  0  0  0  0
    1.8266   -0.9270    2.6220 H   0  0  0  0  0  0  0  0  0  0  0  0
    5.9742    1.0758   -2.6049 H   0  0  0  0  0  0  0  0  0  0  0  0
    5.0121    1.9090   -1.3076 H   0  0  0  0  0  0  0  0  0  0  0  0
    7.1171    1.8401    0.1335 H   0  0  0  0  0  0  0  0  0  0  0  0
    7.1331    3.0256   -1.2550 H   0  0  0  0  0  0  0  0  0  0  0  0
    8.7124   -0.1350    0.1436 H   0  0  0  0  0  0  0  0  0  0  0  0
    8.9884   -0.8496   -1.4467 H   0  0  0  0  0  0  0  0  0  0  0  0
    6.9699   -1.6674   -0.0635 H   0  0  0  0  0  0  0  0  0  0  0  0
    6.8155   -1.4556   -1.8260 H   0  0  0  0  0  0  0  0  0  0  0  0
  1  2  1  0
  2  3  1  0
  3  4  1  0
  4  5  1  0
  5  6  1  0
  6  7  1  0
  7  8  1  0
  8  9  2  0
  9 10  1  0
 10 11  2  0
 11 12  1  0
 12 13  2  0
 12 14  1  0
 14 15  1  0
 14 16  1  0
 14 17  1  0
 10 18  1  0
 18 19  1  0
 19 20  1  0
 20 21  1  0
 21 22  1  0
 22 23  1  0
  4 24  1  0
 24 25  2  0
 25 26  1  0
 26 27  2  0
 27 28  1  0
 28 29  2  0
 28 30  1  0
 30 31  1  0
 30 32  1  0
 30 33  1  0
 26 34  1  0
 34 35  1  0
 35 36  1  0
 36 37  1  0
 37 38  1  0
 37 39  1  0
 37 40  1  0
 40 41  1  0
  7  2  1  0
 13  8  1  0
 23 18  1  0
 29 24  1  0
 41 34  1  0
  1 42  1  0
  1 43  1  0
  1 44  1  0
  2 45  1  1
  3 46  1  0
  3 47  1  0
  5 48  1  0
  5 49  1  0
  6 50  1  0
  6 51  1  0
  9 52  1  0
 19 53  1  0
 19 54  1  0
 20 55  1  0
 20 56  1  0
 22 57  1  0
 22 58  1  0
 23 59  1  0
 23 60  1  0
 25 61  1  0
 29 62  1  0
 35 63  1  0
 35 64  1  0
 36 65  1  0
 36 66  1  0
 40 67  1  0
 40 68  1  0
 41 69  1  0
 41 70  1  0
M  END
$$$$
[H]/C(C(=O)N([H])c1c([H])c([H])c(C(F)(F)F)c([H])c1[H])=C(/[H])c1c([H])c([H])c(N(C([H])([H])[H])C([H])([H])[H])c([H])c1[H]
     RDKit          3D

 41 42  0  0  0  0  0  0  0  0999 V2000
   -6.9869    0.9626    1.2085 C   0  0  0  0  0  0  0  0  0  0  0  0
   -6.2265    0.1609    0.2875 N   0  0  0  0  0  0  0  0  0  0  0  0
   -6.9400   -0.7514   -0.5903 C   0  0  0  0  0  0  0  0  0  0  0  0
   -4.8260    0.2925    0.2210 C   0  0  0  0  0  0  0  0  0  0  0  0
   -4.2336    1.5560    0.3823 C   0  0  0  0  0  0  0  0  0  0  0  0
   -2.8613    1.6731    0.3334 C   0  0  0  0  0  0  0  0  0  0  0  0
   -2.0081    0.5700    0.1255 C   0  0  0  0  0  0  0  0  0  0  0  0
   -0.5851    0.7935    0.0816 C   0  0  0  0  0  0  0  0  0  0  0  0
    0.2931   -0.1497   -0.1351 C   0  0  0  0  0  0  0  0  0  0  0  0
    1.7264    0.1474   -0.1723 C   0  0  0  0  0  0  0  0  0  0  0  0
    2.0852    1.3231    0.0251 O   0  0  0  0  0  0  0  0  0  0  0  0
    2.6544   -0.8723   -0.4280 N   0  0  0  0  0  0  0  0  0  0  0  0
    4.0530   -0.6406   -0.4663 C   0  0  0  0  0  0  0  0  0  0  0  0
    4.8771   -1.3857   -1.3126 C   0  0  0  0  0  0  0  0  0  0  0  0
    6.2372   -1.2275   -1.3695 C   0  0  0  0  0  0  0  0  0  0  0  0
    6.8513   -0.2940   -0.5653 C   0  0  0  0  0  0  0  0  0  0  0  0
    6.0809    0.4680    0.2861 C   0  0  0  0  0  0  0  0  0  0  0  0
    4.6922    0.2804    0.3202 C   0  0  0  0  0  0  0  0  0  0  0  0
    8.3216   -0.1662   -0.6622 C   0  0  0  0  0  0  0  0  0  0  0  0
    8.8735   -1.4091   -0.4319 F   0  0  0  0  0  0  0  0  0  0  0  0
    8.7336    0.7377    0.2732 F   0  0  0  0  0  0  0  0  0  0  0  0
    8.6085    0.2115   -1.9490 F   0  0  0  0  0  0  0  0  0  0  0  0
   -2.6247   -0.6442   -0.0256 C   0  0  0  0  0  0  0  0  0  0  0  0
   -4.0028   -0.7706    0.0231 C   0  0  0  0  0  0  0  0  0  0  0  0
   -6.4375    1.8293    1.6325 H   0  0  0  0  0  0  0  0  0  0  0  0
   -7.9825    1.2696    0.7926 H   0  0  0  0  0  0  0  0  0  0  0  0
   -7.1839    0.2663    2.0981 H   0  0  0  0  0  0  0  0  0  0  0  0
   -6.4521   -1.7175   -0.7046 H   0  0  0  0  0  0  0  0  0  0  0  0
   -7.0633   -0.2375   -1.5858 H   0  0  0  0  0  0  0  0  0  0  0  0
   -7.9738   -0.9446   -0.2427 H   0  0  0  0  0  0  0  0  0  0  0  0
   -4.8862    2.3982    0.5393 H   0  0  0  0  0  0  0  0  0  0  0  0
   -2.4118    2.6373    0.4541 H   0  0  0  0  0  0  0  0  0  0  0  0
   -0.1706    1.8094    0.2276 H   0  0  0  0  0  0  0  0  0  0  0  0
   -0.0097   -1.1651   -0.2865 H   0  0  0  0  0  0  0  0  0  0  0  0
    2.3560   -1.8787   -0.6023 H   0  0  0  0  0  0  0  0  0  0  0  0
    4.3188   -2.1037   -1.9312 H   0  0  0  0  0  0  0  0  0  0  0  0
    6.8007   -1.8548   -2.0640 H   0  0  0  0  0  0  0  0  0  0  0  0
    6.5841    1.1978    0.9141 H   0  0  0  0  0  0  0  0  0  0  0  0
    4.1626    0.9008    1.0150 H   0  0  0  0  0  0  0  0  0  0  0  0
   -2.0030   -1.5107   -0.1828 H   0  0  0  0  0  0  0  0  0  0  0  0
   -4.4406   -1.7617   -0.0970 H   0  0  0  0  0  0  0  0  0  0  0  0
  1  2  1  0
  2  3  1  0
  2  4  1  0
  4  5  2  0
  5  6  1  0
  6  7  2  0
  7  8  1  0
  8  9  2  0
  9 10  1  0
 10 11  2  0
 10 12  1  0
 12 13  1  0
 13 14  2  0
 14 15  1  0
 15 16  2  0
 16 17  1  0
 17 18  2  0
 16 19  1  0
 19 20  1  0
 19 21  1  0
 19 22  1  0
  7 23  1  0
 23 24  2  0
 24  4  1  0
 18 13  1  0
  1 25  1  0
  1 26  1  0
  1 27  1  0
  3 28  1  0
  3 29  1  0
  3 30  1  0
  5 31  1  0
  6 32  1  0
  8 33  1  0
  9 34  1  0
 12 35  1  0
 14 36  1  0
 15 37  1  0
 17 38  1  0
 18 39  1  0
 23 40  1  0
 24 41  1  0
M  END
$$$$
[H]c1c(N2C([H])([H])C([H])([H])OC([H])([H])C2([H])[H])nc(C(=O)N([H])c2c([H])c([H])c(C(F)(F)F)c([H])c2[H])nc1N1C([H])([H])C([H])([H])N(C([H])([H])[H])C([H])([H])C1([H])[H]
     RDKit          3D

 57 60  0  0  0  0  0  0  0  0999 V2000
   -5.8027   -4.2746    0.6265 C   0  0  0  0  0  0  0  0  0  0  0  0
   -4.7362   -3.5443   -0.0434 N   0  0  0  0  0  0  0  0  0  0  0  0
   -3.5152   -3.7474    0.6720 C   0  0  0  0  0  0  0  0  0  0  0  0
   -2.8724   -2.5034    1.1863 C   0  0  0  0  0  0  0  0  0  0  0  0
   -2.8623   -1.4201    0.2243 N   0  0  0  0  0  0  0  0  0  0  0  0
   -3.9968   -1.3038   -0.6832 C   0  0  0  0  0  0  0  0  0  0  0  0
   -5.1176   -2.1545   -0.2001 C   0  0  0  0  0  0  0  0  0  0  0  0
   -1.7688   -0.5132    0.1370 C   0  0  0  0  0  0  0  0  0  0  0  0
   -1.9487    0.8316   -0.1995 C   0  0  0  0  0  0  0  0  0  0  0  0
   -0.9012    1.7210   -0.3265 C   0  0  0  0  0  0  0  0  0  0  0  0
    0.3166    1.1750   -0.0984 N   0  0  0  0  0  0  0  0  0  0  0  0
    0.5412   -0.0987    0.2252 C   0  0  0  0  0  0  0  0  0  0  0  0
   -0.5123   -0.9335    0.3415 N   0  0  0  0  0  0  0  0  0  0  0  0
    1.8763   -0.6500    0.4220 C   0  0  0  0  0  0  0  0  0  0  0  0
    1.9927   -1.8317    0.8693 O   0  0  0  0  0  0  0  0  0  0  0  0
    3.0031    0.1241    0.1053 N   0  0  0  0  0  0  0  0  0  0  0  0
    4.3601   -0.2945    0.2355 C   0  0  0  0  0  0  0  0  0  0  0  0
    4.8255   -1.1870    1.1598 C   0  0  0  0  0  0  0  0  0  0  0  0
    6.1725   -1.5833    1.1692 C   0  0  0  0  0  0  0  0  0  0  0  0
    7.0945   -1.0973    0.2649 C   0  0  0  0  0  0  0  0  0  0  0  0
    6.6269   -0.1934   -0.6676 C   0  0  0  0  0  0  0  0  0  0  0  0
    5.3019    0.1996   -0.6851 C   0  0  0  0  0  0  0  0  0  0  0  0
    8.5121   -1.5499    0.2978 C   0  0  0  0  0  0  0  0  0  0  0  0
    9.2794   -0.5372    0.8055 F   0  0  0  0  0  0  0  0  0  0  0  0
    8.9645   -1.8582   -0.9730 F   0  0  0  0  0  0  0  0  0  0  0  0
    8.5836   -2.6154    1.1698 F   0  0  0  0  0  0  0  0  0  0  0  0
   -1.0583    3.0893   -0.6529 N   0  0  0  0  0  0  0  0  0  0  0  0
    0.1648    3.8794   -0.7737 C   0  0  0  0  0  0  0  0  0  0  0  0
   -0.1494    5.3569   -0.6884 C   0  0  0  0  0  0  0  0  0  0  0  0
   -1.3218    5.6597   -1.3805 O   0  0  0  0  0  0  0  0  0  0  0  0
   -2.3999    5.1253   -0.6644 C   0  0  0  0  0  0  0  0  0  0  0  0
   -2.3686    3.6291   -0.8397 C   0  0  0  0  0  0  0  0  0  0  0  0
   -6.6450   -4.3731   -0.1070 H   0  0  0  0  0  0  0  0  0  0  0  0
   -5.4682   -5.2999    0.8943 H   0  0  0  0  0  0  0  0  0  0  0  0
   -6.1237   -3.7196    1.5437 H   0  0  0  0  0  0  0  0  0  0  0  0
   -2.7771   -4.2130   -0.0499 H   0  0  0  0  0  0  0  0  0  0  0  0
   -3.6204   -4.4378    1.5312 H   0  0  0  0  0  0  0  0  0  0  0  0
   -1.8379   -2.7498    1.4704 H   0  0  0  0  0  0  0  0  0  0  0  0
   -3.3957   -2.1257    2.1108 H   0  0  0  0  0  0  0  0  0  0  0  0
   -4.3014   -0.2698   -0.7916 H   0  0  0  0  0  0  0  0  0  0  0  0
   -3.7048   -1.6743   -1.7069 H   0  0  0  0  0  0  0  0  0  0  0  0
   -5.5337   -1.8119    0.7660 H   0  0  0  0  0  0  0  0  0  0  0  0
   -5.9768   -2.1299   -0.9398 H   0  0  0  0  0  0  0  0  0  0  0  0
   -2.9451    1.1783   -0.3683 H   0  0  0  0  0  0  0  0  0  0  0  0
    2.8050    1.1091   -0.2636 H   0  0  0  0  0  0  0  0  0  0  0  0
    4.1430   -1.5927    1.9019 H   0  0  0  0  0  0  0  0  0  0  0  0
    6.4922   -2.2873    1.9083 H   0  0  0  0  0  0  0  0  0  0  0  0
    7.3714    0.1721   -1.3695 H   0  0  0  0  0  0  0  0  0  0  0  0
    4.9633    0.9025   -1.4205 H   0  0  0  0  0  0  0  0  0  0  0  0
    0.8745    3.6334    0.0128 H   0  0  0  0  0  0  0  0  0  0  0  0
    0.5975    3.6513   -1.7770 H   0  0  0  0  0  0  0  0  0  0  0  0
   -0.2956    5.6921    0.3576 H   0  0  0  0  0  0  0  0  0  0  0  0
    0.6573    5.9650   -1.1341 H   0  0  0  0  0  0  0  0  0  0  0  0
   -3.3669    5.5292   -1.0730 H   0  0  0  0  0  0  0  0  0  0  0  0
   -2.3470    5.4042    0.3862 H   0  0  0  0  0  0  0  0  0  0  0  0
   -2.7193    3.4011   -1.8811 H   0  0  0  0  0  0  0  0  0  0  0  0
   -3.1292    3.1468   -0.1697 H   0  0  0  0  0  0  0  0  0  0  0  0
  1  2  1  0
  2  3  1  0
  3  4  1  0
  4  5  1  0
  5  6  1  0
  6  7  1  0
  5  8  1  0
  8  9  2  0
  9 10  1  0
 10 11  2  0
 11 12  1  0
 12 13  2  0
 12 14  1  0
 14 15  2  0
 14 16  1  0
 16 17  1  0
 17 18  2  0
 18 19  1  0
 19 20  2  0
 20 21  1  0
 21 22  2  0
 20 23  1  0
 23 24  1  0
 23 25  1  0
 23 26  1  0
 10 27  1  0
 27 28  1  0
 28 29  1  0
 29 30  1  0
 30 31  1  0
 31 32  1  0
  7  2  1  0
 13  8  1  0
 22 17  1  0
 32 27  1  0
  1 33  1  0
  1 34  1  0
  1 35  1  0
  3 36  1  0
  3 37  1  0
  4 38  1  0
  4 39  1  0
  6 40  1  0
  6 41  1  0
  7 42  1  0
  7 43  1  0
  9 44  1  0
 16 45  1  0
 18 46  1  0
 19 47  1  0
 21 48  1  0
 22 49  1  0
 28 50  1  0
 28 51  1  0
 29 52  1  0
 29 53  1  0
 31 54  1  0
 31 55  1  0
 32 56  1  0
 32 57  1  0
M  END
$$$$
[H]c1c(C(=O)N([H])c2c([H])c([H])c(C(F)(F)F)c([H])c2[H])nc(C(F)(F)F)nc1N1C([H])([H])C([H])([H])N(C(C([H])([H])[H])(C([H])([H])[H])C([H])([H])[H])C([H])([H])[C@@]1([H])C([H])([H])[H]
     RDKit          3D

 59 61  0  0  0  0  0  0  0  0999 V2000
   -1.8460   -1.7825    1.7260 C   0  0  0  0  0  0  0  0  0  0  0  0
   -1.9654   -0.3814    1.1360 C   0  0  2  0  0  0  0  0  0  0  0  0
   -3.2924    0.1815    1.5790 C   0  0  0  0  0  0  0  0  0  0  0  0
   -4.4206   -0.2561    0.8555 N   0  0  0  0  0  0  0  0  0  0  0  0
   -4.2322   -1.0540   -0.2678 C   0  0  0  0  0  0  0  0  0  0  0  0
   -3.0790   -0.5136   -1.0775 C   0  0  0  0  0  0  0  0  0  0  0  0
   -1.8841   -0.3521   -0.2828 N   0  0  0  0  0  0  0  0  0  0  0  0
   -0.6575   -0.1808   -0.9759 C   0  0  0  0  0  0  0  0  0  0  0  0
    0.5726   -0.2432   -0.3273 C   0  0  0  0  0  0  0  0  0  0  0  0
    1.7733   -0.0716   -0.9732 C   0  0  0  0  0  0  0  0  0  0  0  0
    1.7232    0.1699   -2.3056 N   0  0  0  0  0  0  0  0  0  0  0  0
    0.5562    0.2376   -2.9672 C   0  0  0  0  0  0  0  0  0  0  0  0
   -0.6010    0.0647   -2.3083 N   0  0  0  0  0  0  0  0  0  0  0  0
    0.5467    0.5008   -4.4231 C   0  0  0  0  0  0  0  0  0  0  0  0
    1.2472   -0.4906   -5.1205 F   0  0  0  0  0  0  0  0  0  0  0  0
   -0.7428    0.4446   -4.9405 F   0  0  0  0  0  0  0  0  0  0  0  0
    1.0908    1.7102   -4.7667 F   0  0  0  0  0  0  0  0  0  0  0  0
    3.0571   -0.1691   -0.2463 C   0  0  0  0  0  0  0  0  0  0  0  0
    3.0185   -0.4487    0.9463 O   0  0  0  0  0  0  0  0  0  0  0  0
    4.2250    0.0644   -0.9782 N   0  0  0  0  0  0  0  0  0  0  0  0
    5.5115   -0.0176   -0.4175 C   0  0  0  0  0  0  0  0  0  0  0  0
    6.5620    0.7265   -0.9739 C   0  0  0  0  0  0  0  0  0  0  0  0
    7.8539    0.6693   -0.5107 C   0  0  0  0  0  0  0  0  0  0  0  0
    8.1721   -0.1444    0.5466 C   0  0  0  0  0  0  0  0  0  0  0  0
    7.1712   -0.8938    1.1247 C   0  0  0  0  0  0  0  0  0  0  0  0
    5.8524   -0.8213    0.6353 C   0  0  0  0  0  0  0  0  0  0  0  0
    9.5339   -0.2909    1.1217 C   0  0  0  0  0  0  0  0  0  0  0  0
    9.4957    0.0717    2.4347 F   0  0  0  0  0  0  0  0  0  0  0  0
    9.8128   -1.6633    1.0532 F   0  0  0  0  0  0  0  0  0  0  0  0
   10.4753    0.4019    0.3973 F   0  0  0  0  0  0  0  0  0  0  0  0
   -5.6127    0.4822    1.0139 C   0  0  0  0  0  0  0  0  0  0  0  0
   -5.4206    1.9058    0.5195 C   0  0  0  0  0  0  0  0  0  0  0  0
   -5.9887    0.5044    2.4837 C   0  0  0  0  0  0  0  0  0  0  0  0
   -6.7433   -0.1938    0.2756 C   0  0  0  0  0  0  0  0  0  0  0  0
   -0.8518   -1.9370    2.2144 H   0  0  0  0  0  0  0  0  0  0  0  0
   -2.5878   -1.9125    2.5411 H   0  0  0  0  0  0  0  0  0  0  0  0
   -1.9121   -2.5749    0.9476 H   0  0  0  0  0  0  0  0  0  0  0  0
   -1.1436    0.2098    1.6211 H   0  0  0  0  0  0  0  0  0  0  0  0
   -3.2392    1.2918    1.5270 H   0  0  0  0  0  0  0  0  0  0  0  0
   -3.4239   -0.0433    2.6797 H   0  0  0  0  0  0  0  0  0  0  0  0
   -5.1127   -1.0238   -0.9375 H   0  0  0  0  0  0  0  0  0  0  0  0
   -4.0255   -2.1300   -0.0935 H   0  0  0  0  0  0  0  0  0  0  0  0
   -3.3069    0.4626   -1.5437 H   0  0  0  0  0  0  0  0  0  0  0  0
   -2.8020   -1.1922   -1.9122 H   0  0  0  0  0  0  0  0  0  0  0  0
    0.5566   -0.4368    0.7275 H   0  0  0  0  0  0  0  0  0  0  0  0
    4.1971    0.3168   -2.0128 H   0  0  0  0  0  0  0  0  0  0  0  0
    6.2914    1.3692   -1.8126 H   0  0  0  0  0  0  0  0  0  0  0  0
    8.6505    1.2584   -0.9571 H   0  0  0  0  0  0  0  0  0  0  0  0
    7.3922   -1.5489    1.9648 H   0  0  0  0  0  0  0  0  0  0  0  0
    5.1004   -1.4409    1.1116 H   0  0  0  0  0  0  0  0  0  0  0  0
   -5.2645    2.5416    1.4247 H   0  0  0  0  0  0  0  0  0  0  0  0
   -6.3259    2.2371   -0.0238 H   0  0  0  0  0  0  0  0  0  0  0  0
   -4.4996    1.9740   -0.1227 H   0  0  0  0  0  0  0  0  0  0  0  0
   -5.4946    1.3606    2.9491 H   0  0  0  0  0  0  0  0  0  0  0  0
   -5.7019   -0.4442    2.9419 H   0  0  0  0  0  0  0  0  0  0  0  0
   -7.0903    0.6591    2.5135 H   0  0  0  0  0  0  0  0  0  0  0  0
   -6.6746   -1.2988    0.3236 H   0  0  0  0  0  0  0  0  0  0  0  0
   -6.7669    0.1344   -0.8032 H   0  0  0  0  0  0  0  0  0  0  0  0
   -7.7294    0.0523    0.7454 H   0  0  0  0  0  0  0  0  0  0  0  0
  1  2  1  0
  2  3  1  0
  3  4  1  0
  4  5  1  0
  5  6  1  0
  6  7  1  0
  7  8  1  0
  8  9  2  0
  9 10  1  0
 10 11  2  0
 11 12  1  0
 12 13  2  0
 12 14  1  0
 14 15  1  0
 14 16  1  0
 14 17  1  0
 10 18  1  0
 18 19  2  0
 18 20  1  0
 20 21  1  0
 21 22  2  0
 22 23  1  0
 23 24  2  0
 24 25  1  0
 25 26  2  0
 24 27  1  0
 27 28  1  0
 27 29  1  0
 27 30  1  0
  4 31  1  0
 31 32  1  0
 31 33  1  0
 31 34  1  0
  7  2  1  0
 13  8  1  0
 26 21  1  0
  1 35  1  0
  1 36  1  0
  1 37  1  0
  2 38  1  1
  3 39  1  0
  3 40  1  0
  5 41  1  0
  5 42  1  0
  6 43  1  0
  6 44  1  0
  9 45  1  0
 20 46  1  0
 22 47  1  0
 23 48  1  0
 25 49  1  0
 26 50  1  0
 32 51  1  0
 32 52  1  0
 32 53  1  0
 33 54  1  0
 33 55  1  0
 33 56  1  0
 34 57  1  0
 34 58  1  0
 34 59  1  0
M  END
$$$$
[H]c1c(C(=O)N([H])c2c([H])c([H])c(C(F)(F)F)c([H])c2[H])nc(C(F)(F)F)nc1N1C([H])([H])C([H])([H])N(S(=O)(=O)N2C([H])([H])C([H])([H])C2([H])[H])C([H])([H])[C@@]1([H])C([H])([H])[H]
     RDKit          3D

 59 62  0  0  0  0  0  0  0  0999 V2000
   -1.1962    1.8732   -1.1163 C   0  0  0  0  0  0  0  0  0  0  0  0
   -1.9192    0.5582   -1.3340 C   0  0  2  0  0  0  0  0  0  0  0  0
   -3.3862    0.7718   -0.9466 C   0  0  0  0  0  0  0  0  0  0  0  0
   -4.1569   -0.3156   -0.6548 N   0  0  0  0  0  0  0  0  0  0  0  0
   -3.5790   -1.4525   -0.0407 C   0  0  0  0  0  0  0  0  0  0  0  0
   -2.2087   -1.7666   -0.6111 C   0  0  0  0  0  0  0  0  0  0  0  0
   -1.4098   -0.5295   -0.6100 N   0  0  0  0  0  0  0  0  0  0  0  0
   -0.2073   -0.5903    0.1118 C   0  0  0  0  0  0  0  0  0  0  0  0
    0.9940   -0.0912   -0.3487 C   0  0  0  0  0  0  0  0  0  0  0  0
    2.1283   -0.2045    0.4079 C   0  0  0  0  0  0  0  0  0  0  0  0
    2.0665   -0.8119    1.6189 N   0  0  0  0  0  0  0  0  0  0  0  0
    0.8963   -1.2916    2.0587 C   0  0  0  0  0  0  0  0  0  0  0  0
   -0.1941   -1.1875    1.3388 N   0  0  0  0  0  0  0  0  0  0  0  0
    0.8398   -1.9570    3.3916 C   0  0  0  0  0  0  0  0  0  0  0  0
    0.2979   -1.0584    4.3064 F   0  0  0  0  0  0  0  0  0  0  0  0
    0.0509   -3.0917    3.3321 F   0  0  0  0  0  0  0  0  0  0  0  0
    2.1398   -2.2826    3.7477 F   0  0  0  0  0  0  0  0  0  0  0  0
    3.4244    0.2925   -0.0622 C   0  0  0  0  0  0  0  0  0  0  0  0
    3.4791    1.0207   -1.0690 O   0  0  0  0  0  0  0  0  0  0  0  0
    4.5790   -0.0871    0.6455 N   0  0  0  0  0  0  0  0  0  0  0  0
    5.8619    0.3264    0.2490 C   0  0  0  0  0  0  0  0  0  0  0  0
    6.1868    1.5804   -0.1951 C   0  0  0  0  0  0  0  0  0  0  0  0
    7.4858    1.8731   -0.6214 C   0  0  0  0  0  0  0  0  0  0  0  0
    8.4851    0.9326   -0.6146 C   0  0  0  0  0  0  0  0  0  0  0  0
    8.1588   -0.3485   -0.1620 C   0  0  0  0  0  0  0  0  0  0  0  0
    6.9066   -0.6049    0.2406 C   0  0  0  0  0  0  0  0  0  0  0  0
    9.8634    1.1948   -1.0758 C   0  0  0  0  0  0  0  0  0  0  0  0
   10.0747    0.2860   -2.1395 F   0  0  0  0  0  0  0  0  0  0  0  0
    9.9413    2.4718   -1.5761 F   0  0  0  0  0  0  0  0  0  0  0  0
   10.7771    0.9403   -0.1002 F   0  0  0  0  0  0  0  0  0  0  0  0
   -5.7247   -0.5594   -1.1118 S   0  0  0  0  0  0  0  0  0  0  0  0
   -6.1830   -1.9318   -0.6243 O   0  0  0  0  0  0  0  0  0  0  0  0
   -5.8852   -0.6138   -2.6087 O   0  0  0  0  0  0  0  0  0  0  0  0
   -6.9095    0.5524   -0.5445 N   0  0  0  0  0  0  0  0  0  0  0  0
   -7.0339    0.6030    0.9048 C   0  0  0  0  0  0  0  0  0  0  0  0
   -8.5005    0.3691    0.8569 C   0  0  0  0  0  0  0  0  0  0  0  0
   -8.2449   -0.1035   -0.5408 C   0  0  0  0  0  0  0  0  0  0  0  0
   -1.9530    2.6877   -1.1749 H   0  0  0  0  0  0  0  0  0  0  0  0
   -0.5368    2.0654   -2.0026 H   0  0  0  0  0  0  0  0  0  0  0  0
   -0.6988    1.9691   -0.1507 H   0  0  0  0  0  0  0  0  0  0  0  0
   -1.9456    0.3910   -2.4451 H   0  0  0  0  0  0  0  0  0  0  0  0
   -3.3117    1.4560   -0.0436 H   0  0  0  0  0  0  0  0  0  0  0  0
   -3.7966    1.4461   -1.7417 H   0  0  0  0  0  0  0  0  0  0  0  0
   -3.4998   -1.4371    1.0459 H   0  0  0  0  0  0  0  0  0  0  0  0
   -4.2228   -2.3335   -0.2896 H   0  0  0  0  0  0  0  0  0  0  0  0
   -1.7481   -2.5456    0.0233 H   0  0  0  0  0  0  0  0  0  0  0  0
   -2.2530   -2.1301   -1.6370 H   0  0  0  0  0  0  0  0  0  0  0  0
    1.0325    0.4038   -1.3420 H   0  0  0  0  0  0  0  0  0  0  0  0
    4.4832   -0.7031    1.5021 H   0  0  0  0  0  0  0  0  0  0  0  0
    5.4701    2.3601   -0.2242 H   0  0  0  0  0  0  0  0  0  0  0  0
    7.7281    2.8611   -0.9681 H   0  0  0  0  0  0  0  0  0  0  0  0
    8.9649   -1.0851   -0.1672 H   0  0  0  0  0  0  0  0  0  0  0  0
    6.6308   -1.6212    0.5957 H   0  0  0  0  0  0  0  0  0  0  0  0
   -6.4030   -0.0957    1.4391 H   0  0  0  0  0  0  0  0  0  0  0  0
   -6.8366    1.6466    1.2528 H   0  0  0  0  0  0  0  0  0  0  0  0
   -8.8018   -0.3874    1.5953 H   0  0  0  0  0  0  0  0  0  0  0  0
   -9.1348    1.2936    0.8732 H   0  0  0  0  0  0  0  0  0  0  0  0
   -8.1438   -1.2147   -0.5244 H   0  0  0  0  0  0  0  0  0  0  0  0
   -8.9218    0.2066   -1.3298 H   0  0  0  0  0  0  0  0  0  0  0  0
  1  2  1  0
  2  3  1  0
  3  4  1  0
  4  5  1  0
  5  6  1  0
  6  7  1  0
  7  8  1  0
  8  9  2  0
  9 10  1  0
 10 11  2  0
 11 12  1  0
 12 13  2  0
 12 14  1  0
 14 15  1  0
 14 16  1  0
 14 17  1  0
 10 18  1  0
 18 19  2  0
 18 20  1  0
 20 21  1  0
 21 22  2  0
 22 23  1  0
 23 24  2  0
 24 25  1  0
 25 26  2  0
 24 27  1  0
 27 28  1  0
 27 29  1  0
 27 30  1  0
  4 31  1  0
 31 32  2  0
 31 33  2  0
 31 34  1  0
 34 35  1  0
 35 36  1  0
 36 37  1  0
  7  2  1  0
 13  8  1  0
 26 21  1  0
 37 34  1  0
  1 38  1  0
  1 39  1  0
  1 40  1  0
  2 41  1  6
  3 42  1  0
  3 43  1  0
  5 44  1  0
  5 45  1  0
  6 46  1  0
  6 47  1  0
  9 48  1  0
 20 49  1  0
 22 50  1  0
 23 51  1  0
 25 52  1  0
 26 53  1  0
 35 54  1  0
 35 55  1  0
 36 56  1  0
 36 57  1  0
 37 58  1  0
 37 59  1  0
M  END
$$$$
[H]c1c(N2C([H])([H])C([H])([H])OC([H])([H])C2([H])[H])nc(C(F)(F)F)nc1N1C([H])([H])C([H])([H])N(c2c([H])c(N3C([H])([H])C([H])([H])C(F)(F)C3([H])[H])nc(C(F)(F)F)c2[H])C([H])([H])[C@@]1([H])C([H])([H])[H]
     RDKit          3D

 67 71  0  0  0  0  0  0  0  0999 V2000
   -0.3320   -2.3736   -0.3434 C   0  0  0  0  0  0  0  0  0  0  0  0
    0.2817   -1.3833    0.6117 C   0  0  2  0  0  0  0  0  0  0  0  0
   -0.8181   -0.4313    1.0819 C   0  0  0  0  0  0  0  0  0  0  0  0
   -1.3173    0.2838   -0.0521 N   0  0  0  0  0  0  0  0  0  0  0  0
   -0.4566    0.8371   -1.0460 C   0  0  0  0  0  0  0  0  0  0  0  0
    0.9567    0.3673   -1.0542 C   0  0  0  0  0  0  0  0  0  0  0  0
    1.2915   -0.5565    0.0036 N   0  0  0  0  0  0  0  0  0  0  0  0
    2.6317   -0.6069    0.4456 C   0  0  0  0  0  0  0  0  0  0  0  0
    3.6743    0.0777   -0.1613 C   0  0  0  0  0  0  0  0  0  0  0  0
    4.9682    0.0657    0.3098 C   0  0  0  0  0  0  0  0  0  0  0  0
    5.1809   -0.6702    1.4235 N   0  0  0  0  0  0  0  0  0  0  0  0
    4.2057   -1.3599    2.0552 C   0  0  0  0  0  0  0  0  0  0  0  0
    2.9736   -1.3160    1.5666 N   0  0  0  0  0  0  0  0  0  0  0  0
    4.5923   -2.1077    3.2703 C   0  0  0  0  0  0  0  0  0  0  0  0
    5.2363   -1.2217    4.1558 F   0  0  0  0  0  0  0  0  0  0  0  0
    3.4936   -2.5708    3.9685 F   0  0  0  0  0  0  0  0  0  0  0  0
    5.4394   -3.1582    3.0365 F   0  0  0  0  0  0  0  0  0  0  0  0
    5.9726    0.8086   -0.2811 N   0  0  0  0  0  0  0  0  0  0  0  0
    6.9888    0.2338   -1.1197 C   0  0  0  0  0  0  0  0  0  0  0  0
    8.2806    0.3862   -0.3147 C   0  0  0  0  0  0  0  0  0  0  0  0
    8.1228    1.2058    0.7909 O   0  0  0  0  0  0  0  0  0  0  0  0
    7.4779    2.3868    0.6263 C   0  0  0  0  0  0  0  0  0  0  0  0
    6.1096    2.2521   -0.0457 C   0  0  0  0  0  0  0  0  0  0  0  0
   -2.7318    0.4797   -0.2770 C   0  0  0  0  0  0  0  0  0  0  0  0
   -3.6844   -0.3912    0.1747 C   0  0  0  0  0  0  0  0  0  0  0  0
   -5.0140   -0.1123   -0.0618 C   0  0  0  0  0  0  0  0  0  0  0  0
   -5.3561    1.0215   -0.7417 N   0  0  0  0  0  0  0  0  0  0  0  0
   -4.4637    1.9095   -1.2087 C   0  0  0  0  0  0  0  0  0  0  0  0
   -3.1401    1.6163   -0.9637 C   0  0  0  0  0  0  0  0  0  0  0  0
   -4.9298    3.1114   -1.9082 C   0  0  0  0  0  0  0  0  0  0  0  0
   -6.1525    3.5758   -1.4450 F   0  0  0  0  0  0  0  0  0  0  0  0
   -4.9818    2.9558   -3.2562 F   0  0  0  0  0  0  0  0  0  0  0  0
   -4.0224    4.1375   -1.6569 F   0  0  0  0  0  0  0  0  0  0  0  0
   -6.0247   -0.9427    0.3976 N   0  0  0  0  0  0  0  0  0  0  0  0
   -7.1811   -1.4423   -0.3528 C   0  0  0  0  0  0  0  0  0  0  0  0
   -8.2899   -0.9420    0.5747 C   0  0  0  0  0  0  0  0  0  0  0  0
   -7.6427   -0.8724    1.9737 C   0  0  0  0  0  0  0  0  0  0  0  0
   -7.4543    0.4579    2.3122 F   0  0  0  0  0  0  0  0  0  0  0  0
   -8.3291   -1.5840    2.9072 F   0  0  0  0  0  0  0  0  0  0  0  0
   -6.2388   -1.4654    1.7317 C   0  0  0  0  0  0  0  0  0  0  0  0
   -1.1862   -2.8497    0.2068 H   0  0  0  0  0  0  0  0  0  0  0  0
    0.3644   -3.1896   -0.5872 H   0  0  0  0  0  0  0  0  0  0  0  0
   -0.6970   -1.9021   -1.2852 H   0  0  0  0  0  0  0  0  0  0  0  0
    0.6136   -1.9275    1.5049 H   0  0  0  0  0  0  0  0  0  0  0  0
   -0.3357    0.2250    1.8602 H   0  0  0  0  0  0  0  0  0  0  0  0
   -1.5601   -1.0282    1.6374 H   0  0  0  0  0  0  0  0  0  0  0  0
   -0.4216    1.9483   -0.8265 H   0  0  0  0  0  0  0  0  0  0  0  0
   -0.9499    0.7650   -2.0420 H   0  0  0  0  0  0  0  0  0  0  0  0
    1.1699   -0.1660   -2.0155 H   0  0  0  0  0  0  0  0  0  0  0  0
    1.6571    1.2378   -0.9651 H   0  0  0  0  0  0  0  0  0  0  0  0
    3.4775    0.6409   -1.0716 H   0  0  0  0  0  0  0  0  0  0  0  0
    7.0132    0.8615   -2.0458 H   0  0  0  0  0  0  0  0  0  0  0  0
    6.7881   -0.7968   -1.4220 H   0  0  0  0  0  0  0  0  0  0  0  0
    8.4701   -0.6650    0.0734 H   0  0  0  0  0  0  0  0  0  0  0  0
    9.1485    0.6618   -0.9158 H   0  0  0  0  0  0  0  0  0  0  0  0
    8.1075    3.1712    0.1695 H   0  0  0  0  0  0  0  0  0  0  0  0
    7.2306    2.7507    1.6642 H   0  0  0  0  0  0  0  0  0  0  0  0
    6.2183    2.7025   -1.0604 H   0  0  0  0  0  0  0  0  0  0  0  0
    5.3052    2.6951    0.5170 H   0  0  0  0  0  0  0  0  0  0  0  0
   -3.3433   -1.2788    0.7051 H   0  0  0  0  0  0  0  0  0  0  0  0
   -2.4057    2.3297   -1.3441 H   0  0  0  0  0  0  0  0  0  0  0  0
   -7.2819   -0.9989   -1.3417 H   0  0  0  0  0  0  0  0  0  0  0  0
   -7.1984   -2.5402   -0.3753 H   0  0  0  0  0  0  0  0  0  0  0  0
   -8.5824    0.0605    0.2439 H   0  0  0  0  0  0  0  0  0  0  0  0
   -9.0843   -1.6884    0.5875 H   0  0  0  0  0  0  0  0  0  0  0  0
   -6.3290   -2.5774    1.6767 H   0  0  0  0  0  0  0  0  0  0  0  0
   -5.5058   -1.1037    2.4491 H   0  0  0  0  0  0  0  0  0  0  0  0
  1  2  1  0
  2  3  1  0
  3  4  1  0
  4  5  1  0
  5  6  1  0
  6  7  1  0
  7  8  1  0
  8  9  2  0
  9 10  1  0
 10 11  2  0
 11 12  1  0
 12 13  2  0
 12 14  1  0
 14 15  1  0
 14 16  1  0
 14 17  1  0
 10 18  1  0
 18 19  1  0
 19 20  1  0
 20 21  1  0
 21 22  1  0
 22 23  1  0
  4 24  1  0
 24 25  2  0
 25 26  1  0
 26 27  2  0
 27 28  1  0
 28 29  2  0
 28 30  1  0
 30 31  1  0
 30 32  1  0
 30 33  1  0
 26 34  1  0
 34 35  1  0
 35 36  1  0
 36 37  1  0
 37 38  1  0
 37 39  1  0
 37 40  1  0
  7  2  1  0
 13  8  1  0
 23 18  1  0
 29 24  1  0
 40 34  1  0
  1 41  1  0
  1 42  1  0
  1 43  1  0
  2 44  1  1
  3 45  1  0
  3 46  1  0
  5 47  1  0
  5 48  1  0
  6 49  1  0
  6 50  1  0
  9 51  1  0
 19 52  1  0
 19 53  1  0
 20 54  1  0
 20 55  1  0
 22 56  1  0
 22 57  1  0
 23 58  1  0
 23 59  1  0
 25 60  1  0
 29 61  1  0
 35 62  1  0
 35 63  1  0
 36 64  1  0
 36 65  1  0
 40 66  1  0
 40 67  1  0
M  END
$$$$
[H]c1c(C(=O)N([H])c2c([H])c([H])c(C(F)(F)F)c([H])c2[H])nc(C(F)(F)F)nc1N1C([H])([H])C([H])([H])N(S(=O)(=O)N2C([H])([H])C([H])([H])C([H])([H])C2([H])[H])C([H])([H])[C@@]1([H])C([H])([H])[H]
     RDKit          3D

 62 65  0  0  0  0  0  0  0  0999 V2000
   -1.8546   -1.7366    0.9009 C   0  0  0  0  0  0  0  0  0  0  0  0
   -2.2667   -0.5810    0.0640 C   0  0  2  0  0  0  0  0  0  0  0  0
   -3.3724   -0.9886   -0.9367 C   0  0  0  0  0  0  0  0  0  0  0  0
   -3.9198    0.2161   -1.4651 N   0  0  0  0  0  0  0  0  0  0  0  0
   -3.1144    1.3765   -1.2945 C   0  0  0  0  0  0  0  0  0  0  0  0
   -1.6466    1.0905   -1.6048 C   0  0  0  0  0  0  0  0  0  0  0  0
   -1.2163    0.0008   -0.7533 N   0  0  0  0  0  0  0  0  0  0  0  0
    0.1109   -0.4742   -0.7194 C   0  0  0  0  0  0  0  0  0  0  0  0
    1.2164    0.3543   -0.7253 C   0  0  0  0  0  0  0  0  0  0  0  0
    2.4565   -0.2091   -0.6544 C   0  0  0  0  0  0  0  0  0  0  0  0
    2.5975   -1.5595   -0.5759 N   0  0  0  0  0  0  0  0  0  0  0  0
    1.5322   -2.3880   -0.5623 C   0  0  0  0  0  0  0  0  0  0  0  0
    0.3328   -1.8223   -0.6338 N   0  0  0  0  0  0  0  0  0  0  0  0
    1.7246   -3.8834   -0.4437 C   0  0  0  0  0  0  0  0  0  0  0  0
    0.5954   -4.5180   -0.8291 F   0  0  0  0  0  0  0  0  0  0  0  0
    2.8816   -4.2472   -1.0775 F   0  0  0  0  0  0  0  0  0  0  0  0
    1.8595   -4.1241    0.9348 F   0  0  0  0  0  0  0  0  0  0  0  0
    3.7253    0.5637   -0.5563 C   0  0  0  0  0  0  0  0  0  0  0  0
    3.7027    1.8118   -0.5828 O   0  0  0  0  0  0  0  0  0  0  0  0
    4.9167   -0.1573   -0.4231 N   0  0  0  0  0  0  0  0  0  0  0  0
    6.2402    0.2247   -0.2388 C   0  0  0  0  0  0  0  0  0  0  0  0
    7.2131    0.0602   -1.1686 C   0  0  0  0  0  0  0  0  0  0  0  0
    8.5439    0.3117   -0.8875 C   0  0  0  0  0  0  0  0  0  0  0  0
    8.9557    0.7507    0.3329 C   0  0  0  0  0  0  0  0  0  0  0  0
    7.9703    0.9413    1.3166 C   0  0  0  0  0  0  0  0  0  0  0  0
    6.6577    0.6803    1.0154 C   0  0  0  0  0  0  0  0  0  0  0  0
   10.3913    1.0050    0.6433 C   0  0  0  0  0  0  0  0  0  0  0  0
   11.1838   -0.0367    0.1626 F   0  0  0  0  0  0  0  0  0  0  0  0
   10.5395    0.9150    2.0333 F   0  0  0  0  0  0  0  0  0  0  0  0
   10.8177    2.2361    0.2541 F   0  0  0  0  0  0  0  0  0  0  0  0
   -5.5637    0.3891   -1.0818 S   0  0  0  0  0  0  0  0  0  0  0  0
   -6.2172    1.4985   -1.9277 O   0  0  0  0  0  0  0  0  0  0  0  0
   -6.2689   -0.8717   -1.6608 O   0  0  0  0  0  0  0  0  0  0  0  0
   -5.9877    0.4423    0.5233 N   0  0  0  0  0  0  0  0  0  0  0  0
   -6.8230   -0.5727    1.0438 C   0  0  0  0  0  0  0  0  0  0  0  0
   -8.0787    0.2157    1.4803 C   0  0  0  0  0  0  0  0  0  0  0  0
   -7.5754    1.5753    1.8506 C   0  0  0  0  0  0  0  0  0  0  0  0
   -6.1944    1.6264    1.2290 C   0  0  0  0  0  0  0  0  0  0  0  0
   -2.7015   -1.9071    1.6518 H   0  0  0  0  0  0  0  0  0  0  0  0
   -1.8763   -2.6550    0.2513 H   0  0  0  0  0  0  0  0  0  0  0  0
   -0.9856   -1.5936    1.5031 H   0  0  0  0  0  0  0  0  0  0  0  0
   -2.6967    0.2371    0.6666 H   0  0  0  0  0  0  0  0  0  0  0  0
   -2.8801   -1.5811   -1.7279 H   0  0  0  0  0  0  0  0  0  0  0  0
   -4.1006   -1.6115   -0.3784 H   0  0  0  0  0  0  0  0  0  0  0  0
   -3.1850    1.9271   -0.3594 H   0  0  0  0  0  0  0  0  0  0  0  0
   -3.4666    2.1268   -2.0749 H   0  0  0  0  0  0  0  0  0  0  0  0
   -1.5272    0.8850   -2.6801 H   0  0  0  0  0  0  0  0  0  0  0  0
   -1.0577    1.9813   -1.2929 H   0  0  0  0  0  0  0  0  0  0  0  0
    1.1446    1.4316   -0.7775 H   0  0  0  0  0  0  0  0  0  0  0  0
    4.7749   -1.2466   -0.4587 H   0  0  0  0  0  0  0  0  0  0  0  0
    7.0021   -0.2964   -2.1713 H   0  0  0  0  0  0  0  0  0  0  0  0
    9.3166    0.2018   -1.6421 H   0  0  0  0  0  0  0  0  0  0  0  0
    8.3054    1.2896    2.2648 H   0  0  0  0  0  0  0  0  0  0  0  0
    5.8828    0.8250    1.7542 H   0  0  0  0  0  0  0  0  0  0  0  0
   -7.1352   -1.3577    0.3028 H   0  0  0  0  0  0  0  0  0  0  0  0
   -6.4282   -1.0565    1.9462 H   0  0  0  0  0  0  0  0  0  0  0  0
   -8.8499    0.1717    0.6982 H   0  0  0  0  0  0  0  0  0  0  0  0
   -8.4666   -0.2860    2.4176 H   0  0  0  0  0  0  0  0  0  0  0  0
   -8.2171    2.3838    1.4323 H   0  0  0  0  0  0  0  0  0  0  0  0
   -7.4817    1.7411    2.9229 H   0  0  0  0  0  0  0  0  0  0  0  0
   -5.4339    1.6460    2.0885 H   0  0  0  0  0  0  0  0  0  0  0  0
   -6.0022    2.5751    0.6813 H   0  0  0  0  0  0  0  0  0  0  0  0
  1  2  1  0
  2  3  1  0
  3  4  1  0
  4  5  1  0
  5  6  1  0
  6  7  1  0
  7  8  1  0
  8  9  2  0
  9 10  1  0
 10 11  2  0
 11 12  1  0
 12 13  2  0
 12 14  1  0
 14 15  1  0
 14 16  1  0
 14 17  1  0
 10 18  1  0
 18 19  2  0
 18 20  1  0
 20 21  1  0
 21 22  2  0
 22 23  1  0
 23 24  2  0
 24 25  1  0
 25 26  2  0
 24 27  1  0
 27 28  1  0
 27 29  1  0
 27 30  1  0
  4 31  1  0
 31 32  2  0
 31 33  2  0
 31 34  1  0
 34 35  1  0
 35 36  1  0
 36 37  1  0
 37 38  1  0
  7  2  1  0
 13  8  1  0
 26 21  1  0
 38 34  1  0
  1 39  1  0
  1 40  1  0
  1 41  1  0
  2 42  1  1
  3 43  1  0
  3 44  1  0
  5 45  1  0
  5 46  1  0
  6 47  1  0
  6 48  1  0
  9 49  1  0
 20 50  1  0
 22 51  1  0
 23 52  1  0
 25 53  1  0
 26 54  1  0
 35 55  1  0
 35 56  1  0
 36 57  1  0
 36 58  1  0
 37 59  1  0
 37 60  1  0
 38 61  1  0
 38 62  1  0
M  END
$$$$
[H]c1c(N([H])C(=O)c2c([H])c([H])c(N3C([H])([H])C([H])([H])N(C([H])([H])[H])C([H])([H])C3([H])[H])c([H])c2[H])nc(C(F)(F)F)nc1N1C([H])([H])C([H])([H])OC([H])([H])C1([H])[H]
     RDKit          3D

 57 60  0  0  0  0  0  0  0  0999 V2000
   -8.5366    1.5377    0.2779 C   0  0  0  0  0  0  0  0  0  0  0  0
   -7.6829    0.5180   -0.3240 N   0  0  0  0  0  0  0  0  0  0  0  0
   -6.4762    1.1815   -0.7264 C   0  0  0  0  0  0  0  0  0  0  0  0
   -5.3360    0.9723    0.2158 C   0  0  0  0  0  0  0  0  0  0  0  0
   -5.0803   -0.4769    0.2770 N   0  0  0  0  0  0  0  0  0  0  0  0
   -6.1937   -1.3486    0.3280 C   0  0  0  0  0  0  0  0  0  0  0  0
   -7.4520   -0.5516    0.6249 C   0  0  0  0  0  0  0  0  0  0  0  0
   -3.7136   -0.8161    0.2765 C   0  0  0  0  0  0  0  0  0  0  0  0
   -2.9044   -0.3620    1.3264 C   0  0  0  0  0  0  0  0  0  0  0  0
   -1.5295   -0.5643    1.2718 C   0  0  0  0  0  0  0  0  0  0  0  0
   -1.0296   -1.2056    0.2051 C   0  0  0  0  0  0  0  0  0  0  0  0
   -1.8052   -1.6908   -0.8703 C   0  0  0  0  0  0  0  0  0  0  0  0
   -3.1704   -1.4655   -0.7965 C   0  0  0  0  0  0  0  0  0  0  0  0
    0.4098   -1.3909    0.0284 C   0  0  0  0  0  0  0  0  0  0  0  0
    0.7469   -2.4765   -0.5968 O   0  0  0  0  0  0  0  0  0  0  0  0
    1.3610   -0.4870    0.4620 N   0  0  0  0  0  0  0  0  0  0  0  0
    2.7037   -0.6173   -0.0036 C   0  0  0  0  0  0  0  0  0  0  0  0
    3.6883    0.2484    0.2771 C   0  0  0  0  0  0  0  0  0  0  0  0
    4.9650    0.1083   -0.2493 C   0  0  0  0  0  0  0  0  0  0  0  0
    5.1934   -0.9408   -1.0725 N   0  0  0  0  0  0  0  0  0  0  0  0
    4.1746   -1.8123   -1.3484 C   0  0  0  0  0  0  0  0  0  0  0  0
    2.9657   -1.6593   -0.8362 N   0  0  0  0  0  0  0  0  0  0  0  0
    4.4827   -2.9591   -2.2747 C   0  0  0  0  0  0  0  0  0  0  0  0
    3.4169   -3.8434   -2.1777 F   0  0  0  0  0  0  0  0  0  0  0  0
    5.6085   -3.5985   -1.8986 F   0  0  0  0  0  0  0  0  0  0  0  0
    4.4958   -2.5252   -3.5748 F   0  0  0  0  0  0  0  0  0  0  0  0
    6.0045    0.9561    0.2224 N   0  0  0  0  0  0  0  0  0  0  0  0
    6.4892    0.5518    1.5885 C   0  0  0  0  0  0  0  0  0  0  0  0
    7.0212    1.7196    2.3275 C   0  0  0  0  0  0  0  0  0  0  0  0
    7.9495    2.4538    1.6466 O   0  0  0  0  0  0  0  0  0  0  0  0
    8.0068    2.2078    0.2857 C   0  0  0  0  0  0  0  0  0  0  0  0
    6.6422    2.0583   -0.3699 C   0  0  0  0  0  0  0  0  0  0  0  0
   -9.4067    1.0927    0.7799 H   0  0  0  0  0  0  0  0  0  0  0  0
   -7.9600    2.2070    0.9544 H   0  0  0  0  0  0  0  0  0  0  0  0
   -8.8625    2.1902   -0.5787 H   0  0  0  0  0  0  0  0  0  0  0  0
   -6.1848    0.8242   -1.7268 H   0  0  0  0  0  0  0  0  0  0  0  0
   -6.6222    2.2970   -0.8165 H   0  0  0  0  0  0  0  0  0  0  0  0
   -4.4298    1.4159   -0.3039 H   0  0  0  0  0  0  0  0  0  0  0  0
   -5.4413    1.3211    1.2308 H   0  0  0  0  0  0  0  0  0  0  0  0
   -6.3936   -1.9505   -0.5641 H   0  0  0  0  0  0  0  0  0  0  0  0
   -6.1003   -2.0542    1.2080 H   0  0  0  0  0  0  0  0  0  0  0  0
   -8.3354   -1.2174    0.5592 H   0  0  0  0  0  0  0  0  0  0  0  0
   -7.3954   -0.1678    1.6642 H   0  0  0  0  0  0  0  0  0  0  0  0
   -3.3781    0.1301    2.1245 H   0  0  0  0  0  0  0  0  0  0  0  0
   -0.8727   -0.2028    2.0623 H   0  0  0  0  0  0  0  0  0  0  0  0
   -1.3397   -2.1797   -1.7110 H   0  0  0  0  0  0  0  0  0  0  0  0
   -3.7860   -1.8358   -1.6224 H   0  0  0  0  0  0  0  0  0  0  0  0
    1.1213    0.3662    0.9988 H   0  0  0  0  0  0  0  0  0  0  0  0
    3.4941    1.0943    0.9229 H   0  0  0  0  0  0  0  0  0  0  0  0
    7.1682   -0.2721    1.4131 H   0  0  0  0  0  0  0  0  0  0  0  0
    5.5356    0.2279    2.1077 H   0  0  0  0  0  0  0  0  0  0  0  0
    6.1774    2.3667    2.6464 H   0  0  0  0  0  0  0  0  0  0  0  0
    7.4843    1.3168    3.2770 H   0  0  0  0  0  0  0  0  0  0  0  0
    8.5130    3.0803   -0.1672 H   0  0  0  0  0  0  0  0  0  0  0  0
    8.6376    1.3129    0.0592 H   0  0  0  0  0  0  0  0  0  0  0  0
    6.8525    1.8936   -1.4485 H   0  0  0  0  0  0  0  0  0  0  0  0
    6.1094    3.0217   -0.2215 H   0  0  0  0  0  0  0  0  0  0  0  0
  1  2  1  0
  2  3  1  0
  3  4  1  0
  4  5  1  0
  5  6  1  0
  6  7  1  0
  5  8  1  0
  8  9  2  0
  9 10  1  0
 10 11  2  0
 11 12  1  0
 12 13  2  0
 11 14  1  0
 14 15  2  0
 14 16  1  0
 16 17  1  0
 17 18  2  0
 18 19  1  0
 19 20  2  0
 20 21  1  0
 21 22  2  0
 21 23  1  0
 23 24  1  0
 23 25  1  0
 23 26  1  0
 19 27  1  0
 27 28  1  0
 28 29  1  0
 29 30  1  0
 30 31  1  0
 31 32  1  0
  7  2  1  0
 13  8  1  0
 22 17  1  0
 32 27  1  0
  1 33  1  0
  1 34  1  0
  1 35  1  0
  3 36  1  0
  3 37  1  0
  4 38  1  0
  4 39  1  0
  6 40  1  0
  6 41  1  0
  7 42  1  0
  7 43  1  0
  9 44  1  0
 10 45  1  0
 12 46  1  0
 13 47  1  0
 16 48  1  0
 18 49  1  0
 28 50  1  0
 28 51  1  0
 29 52  1  0
 29 53  1  0
 31 54  1  0
 31 55  1  0
 32 56  1  0
 32 57  1  0
M  END
$$$$
[H]c1c(C(=O)N([H])c2c([H])c([H])c(C(F)(F)F)c([H])c2[H])nc(C(F)(F)F)nc1N1C([H])([H])C([H])([H])N(S(=O)(=O)c2c([H])c([H])c([H])c([H])c2[H])C([H])([H])[C@@]1([H])C([H])([H])[H]
     RDKit          3D

 60 63  0  0  0  0  0  0  0  0999 V2000
   -2.2701   -1.9818    1.3011 C   0  0  0  0  0  0  0  0  0  0  0  0
   -2.0889   -0.5885    0.7933 C   0  0  2  0  0  0  0  0  0  0  0  0
   -3.3060   -0.0023    0.1080 C   0  0  0  0  0  0  0  0  0  0  0  0
   -3.8426   -1.0431   -0.6756 N   0  0  0  0  0  0  0  0  0  0  0  0
   -3.0077   -1.3151   -1.7964 C   0  0  0  0  0  0  0  0  0  0  0  0
   -1.5123   -1.4114   -1.5042 C   0  0  0  0  0  0  0  0  0  0  0  0
   -1.1234   -0.7181   -0.3726 N   0  0  0  0  0  0  0  0  0  0  0  0
    0.0743    0.0047   -0.1985 C   0  0  0  0  0  0  0  0  0  0  0  0
    1.3674   -0.4178   -0.3794 C   0  0  0  0  0  0  0  0  0  0  0  0
    2.4596    0.3813   -0.1391 C   0  0  0  0  0  0  0  0  0  0  0  0
    2.1625    1.6696    0.3081 N   0  0  0  0  0  0  0  0  0  0  0  0
    0.9342    2.1119    0.4913 C   0  0  0  0  0  0  0  0  0  0  0  0
   -0.0655    1.3190    0.2496 N   0  0  0  0  0  0  0  0  0  0  0  0
    0.7630    3.5354    0.9987 C   0  0  0  0  0  0  0  0  0  0  0  0
    0.8955    3.5656    2.3565 F   0  0  0  0  0  0  0  0  0  0  0  0
    1.8111    4.2548    0.4590 F   0  0  0  0  0  0  0  0  0  0  0  0
   -0.4531    4.0658    0.6289 F   0  0  0  0  0  0  0  0  0  0  0  0
    3.8220    0.1046   -0.2187 C   0  0  0  0  0  0  0  0  0  0  0  0
    4.6157    1.1912   -0.1168 O   0  0  0  0  0  0  0  0  0  0  0  0
    4.6810   -1.0255   -0.3811 N   0  0  0  0  0  0  0  0  0  0  0  0
    6.0996   -0.6991   -0.3775 C   0  0  0  0  0  0  0  0  0  0  0  0
    6.8098   -0.4315   -1.5095 C   0  0  0  0  0  0  0  0  0  0  0  0
    8.0870    0.1439   -1.4159 C   0  0  0  0  0  0  0  0  0  0  0  0
    8.6809    0.4613   -0.2174 C   0  0  0  0  0  0  0  0  0  0  0  0
    7.9147    0.1607    0.9370 C   0  0  0  0  0  0  0  0  0  0  0  0
    6.6680   -0.4032    0.8461 C   0  0  0  0  0  0  0  0  0  0  0  0
    9.9564    1.2287   -0.0693 C   0  0  0  0  0  0  0  0  0  0  0  0
   10.3940    1.7435   -1.2692 F   0  0  0  0  0  0  0  0  0  0  0  0
    9.5853    2.3009    0.7822 F   0  0  0  0  0  0  0  0  0  0  0  0
   10.9282    0.5460    0.5781 F   0  0  0  0  0  0  0  0  0  0  0  0
   -5.4137   -0.7010   -1.2602 S   0  0  0  0  0  0  0  0  0  0  0  0
   -5.3007    0.5408   -2.1529 O   0  0  0  0  0  0  0  0  0  0  0  0
   -5.8390   -1.8320   -2.1319 O   0  0  0  0  0  0  0  0  0  0  0  0
   -6.6224   -0.4214   -0.0965 C   0  0  0  0  0  0  0  0  0  0  0  0
   -7.6367    0.4723   -0.3646 C   0  0  0  0  0  0  0  0  0  0  0  0
   -8.6428    0.7673    0.5661 C   0  0  0  0  0  0  0  0  0  0  0  0
   -8.6338    0.1477    1.7902 C   0  0  0  0  0  0  0  0  0  0  0  0
   -7.6062   -0.7668    2.0648 C   0  0  0  0  0  0  0  0  0  0  0  0
   -6.6438   -1.0240    1.1395 C   0  0  0  0  0  0  0  0  0  0  0  0
   -2.6638   -2.6097    0.5044 H   0  0  0  0  0  0  0  0  0  0  0  0
   -1.2385   -2.3526    1.5634 H   0  0  0  0  0  0  0  0  0  0  0  0
   -2.8772   -2.0230    2.2235 H   0  0  0  0  0  0  0  0  0  0  0  0
   -1.6508    0.0661    1.5824 H   0  0  0  0  0  0  0  0  0  0  0  0
   -2.9174    0.8855   -0.4886 H   0  0  0  0  0  0  0  0  0  0  0  0
   -3.9278    0.4104    0.9116 H   0  0  0  0  0  0  0  0  0  0  0  0
   -3.1156   -0.5082   -2.5458 H   0  0  0  0  0  0  0  0  0  0  0  0
   -3.3877   -2.2471   -2.2625 H   0  0  0  0  0  0  0  0  0  0  0  0
   -1.2707   -2.4781   -1.4192 H   0  0  0  0  0  0  0  0  0  0  0  0
   -0.9296   -1.0563   -2.4086 H   0  0  0  0  0  0  0  0  0  0  0  0
    1.5632   -1.4492   -0.7144 H   0  0  0  0  0  0  0  0  0  0  0  0
    4.3765   -1.9746   -0.4852 H   0  0  0  0  0  0  0  0  0  0  0  0
    6.3835   -0.6794   -2.4805 H   0  0  0  0  0  0  0  0  0  0  0  0
    8.6244    0.3547   -2.3402 H   0  0  0  0  0  0  0  0  0  0  0  0
    8.3661    0.4009    1.8882 H   0  0  0  0  0  0  0  0  0  0  0  0
    6.0984   -0.6350    1.7546 H   0  0  0  0  0  0  0  0  0  0  0  0
   -7.7126    1.0139   -1.3068 H   0  0  0  0  0  0  0  0  0  0  0  0
   -9.4525    1.4979    0.2995 H   0  0  0  0  0  0  0  0  0  0  0  0
   -9.4191    0.3894    2.4831 H   0  0  0  0  0  0  0  0  0  0  0  0
   -7.6736   -1.2061    3.0599 H   0  0  0  0  0  0  0  0  0  0  0  0
   -5.8766   -1.7338    1.4378 H   0  0  0  0  0  0  0  0  0  0  0  0
  1  2  1  0
  2  3  1  0
  3  4  1  0
  4  5  1  0
  5  6  1  0
  6  7  1  0
  7  8  1  0
  8  9  2  0
  9 10  1  0
 10 11  2  0
 11 12  1  0
 12 13  2  0
 12 14  1  0
 14 15  1  0
 14 16  1  0
 14 17  1  0
 10 18  1  0
 18 19  2  0
 18 20  1  0
 20 21  1  0
 21 22  2  0
 22 23  1  0
 23 24  2  0
 24 25  1  0
 25 26  2  0
 24 27  1  0
 27 28  1  0
 27 29  1  0
 27 30  1  0
  4 31  1  0
 31 32  2  0
 31 33  2  0
 31 34  1  0
 34 35  2  0
 35 36  1  0
 36 37  2  0
 37 38  1  0
 38 39  2  0
  7  2  1  0
 13  8  1  0
 26 21  1  0
 39 34  1  0
  1 40  1  0
  1 41  1  0
  1 42  1  0
  2 43  1  1
  3 44  1  0
  3 45  1  0
  5 46  1  0
  5 47  1  0
  6 48  1  0
  6 49  1  0
  9 50  1  0
 20 51  1  0
 22 52  1  0
 23 53  1  0
 25 54  1  0
 26 55  1  0
 35 56  1  0
 36 57  1  0
 37 58  1  0
 38 59  1  0
 39 60  1  0
M  END
$$$$
