[H]c1nc(N2C([H])([H])C3([H])C(F)(F)C3([H])C2([H])[H])nc([H])c1-c1nc(N([H])C(=O)[C@@]([H])(n2c([H])nc3c2c(=O)n(C([H])([H])C(=O)C([H])([H])[H])c(=O)n3C([H])([H])[H])C([H])([H])[H])c([H])c([H])c1[H]
     RDKit          3D

 66 71  0  0  0  0  0  0  0  0999 V2000
    2.2751    2.3832   -0.6513 C   0  0  0  0  0  0  0  0  0  0  0  0
    2.7070    0.9339   -0.3717 C   0  0  1  0  0  0  0  0  0  0  0  0
    1.7577    0.1090   -1.2120 C   0  0  0  0  0  0  0  0  0  0  0  0
    2.2568   -0.6087   -2.0708 O   0  0  0  0  0  0  0  0  0  0  0  0
    0.3896    0.2153   -0.9603 N   0  0  0  0  0  0  0  0  0  0  0  0
   -0.6541   -0.4657   -1.6330 C   0  0  0  0  0  0  0  0  0  0  0  0
   -0.4574   -1.3466   -2.6561 C   0  0  0  0  0  0  0  0  0  0  0  0
   -1.5876   -1.9445   -3.2260 C   0  0  0  0  0  0  0  0  0  0  0  0
   -2.8545   -1.6528   -2.7690 C   0  0  0  0  0  0  0  0  0  0  0  0
   -3.0312   -0.7637   -1.7386 C   0  0  0  0  0  0  0  0  0  0  0  0
   -1.9361   -0.2146   -1.2206 N   0  0  0  0  0  0  0  0  0  0  0  0
   -4.3441   -0.3941   -1.1866 C   0  0  0  0  0  0  0  0  0  0  0  0
   -4.4456    0.5073   -0.1430 C   0  0  0  0  0  0  0  0  0  0  0  0
   -5.6269    0.8636    0.3806 N   0  0  0  0  0  0  0  0  0  0  0  0
   -6.7944    0.3443   -0.1011 C   0  0  0  0  0  0  0  0  0  0  0  0
   -6.6895   -0.5350   -1.1197 N   0  0  0  0  0  0  0  0  0  0  0  0
   -5.5097   -0.9160   -1.6715 C   0  0  0  0  0  0  0  0  0  0  0  0
   -8.0407    0.7157    0.4472 N   0  0  0  0  0  0  0  0  0  0  0  0
   -8.2460    1.6257    1.5312 C   0  0  0  0  0  0  0  0  0  0  0  0
   -9.2853    0.8878    2.3671 C   0  0  0  0  0  0  0  0  0  0  0  0
  -10.0028   -0.0427    1.3620 C   0  0  0  0  0  0  0  0  0  0  0  0
   -9.3265    0.2548    0.0241 C   0  0  0  0  0  0  0  0  0  0  0  0
  -10.7259    1.0404    2.0686 C   0  0  0  0  0  0  0  0  0  0  0  0
  -11.1114    2.1648    1.3918 F   0  0  0  0  0  0  0  0  0  0  0  0
  -11.5829    0.6213    3.0661 F   0  0  0  0  0  0  0  0  0  0  0  0
    4.0384    0.7985   -0.8481 N   0  0  0  0  0  0  0  0  0  0  0  0
    4.4644    1.3456   -2.0123 C   0  0  0  0  0  0  0  0  0  0  0  0
    5.7541    1.0619   -2.2105 N   0  0  0  0  0  0  0  0  0  0  0  0
    6.1791    0.3274   -1.1770 C   0  0  0  0  0  0  0  0  0  0  0  0
    7.3467   -0.2396   -0.8242 N   0  0  0  0  0  0  0  0  0  0  0  0
    8.4746   -0.0671   -1.7189 C   0  0  0  0  0  0  0  0  0  0  0  0
    7.4911   -0.9409    0.3019 C   0  0  0  0  0  0  0  0  0  0  0  0
    8.6184   -1.4512    0.5790 O   0  0  0  0  0  0  0  0  0  0  0  0
    6.4672   -1.1204    1.1531 N   0  0  0  0  0  0  0  0  0  0  0  0
    6.6380   -1.8862    2.3780 C   0  0  0  0  0  0  0  0  0  0  0  0
    7.0552   -1.0285    3.5081 C   0  0  0  0  0  0  0  0  0  0  0  0
    8.4793   -0.7495    3.8400 C   0  0  0  0  0  0  0  0  0  0  0  0
    6.1915   -0.5183    4.2112 O   0  0  0  0  0  0  0  0  0  0  0  0
    5.2814   -0.5539    0.8108 C   0  0  0  0  0  0  0  0  0  0  0  0
    4.3114   -0.7033    1.5816 O   0  0  0  0  0  0  0  0  0  0  0  0
    5.1067    0.1696   -0.3373 C   0  0  0  0  0  0  0  0  0  0  0  0
    1.3125    2.5337   -0.1210 H   0  0  0  0  0  0  0  0  0  0  0  0
    3.0577    3.0958   -0.3315 H   0  0  0  0  0  0  0  0  0  0  0  0
    2.0505    2.4405   -1.7364 H   0  0  0  0  0  0  0  0  0  0  0  0
    2.5114    0.6576    0.6574 H   0  0  0  0  0  0  0  0  0  0  0  0
    0.0698    0.8935   -0.1627 H   0  0  0  0  0  0  0  0  0  0  0  0
    0.5070   -1.6078   -3.0488 H   0  0  0  0  0  0  0  0  0  0  0  0
   -1.4186   -2.6460   -4.0420 H   0  0  0  0  0  0  0  0  0  0  0  0
   -3.7224   -2.1200   -3.2156 H   0  0  0  0  0  0  0  0  0  0  0  0
   -3.4928    0.9134    0.2295 H   0  0  0  0  0  0  0  0  0  0  0  0
   -5.4974   -1.6348   -2.4970 H   0  0  0  0  0  0  0  0  0  0  0  0
   -8.7121    2.5473    1.1201 H   0  0  0  0  0  0  0  0  0  0  0  0
   -7.3308    1.8463    2.1173 H   0  0  0  0  0  0  0  0  0  0  0  0
   -8.9368    0.4140    3.3107 H   0  0  0  0  0  0  0  0  0  0  0  0
  -10.1043   -1.0901    1.6428 H   0  0  0  0  0  0  0  0  0  0  0  0
   -9.9371    1.0285   -0.4849 H   0  0  0  0  0  0  0  0  0  0  0  0
   -9.2443   -0.6688   -0.5925 H   0  0  0  0  0  0  0  0  0  0  0  0
    3.8665    1.9277   -2.6930 H   0  0  0  0  0  0  0  0  0  0  0  0
    9.0846   -0.9956   -1.7104 H   0  0  0  0  0  0  0  0  0  0  0  0
    8.1424    0.1252   -2.7522 H   0  0  0  0  0  0  0  0  0  0  0  0
    9.1167    0.7635   -1.3941 H   0  0  0  0  0  0  0  0  0  0  0  0
    5.7044   -2.4415    2.6120 H   0  0  0  0  0  0  0  0  0  0  0  0
    7.4603   -2.6140    2.1823 H   0  0  0  0  0  0  0  0  0  0  0  0
    9.1660   -1.5181    3.4322 H   0  0  0  0  0  0  0  0  0  0  0  0
    8.6113   -0.6699    4.9522 H   0  0  0  0  0  0  0  0  0  0  0  0
    8.7044    0.2542    3.3826 H   0  0  0  0  0  0  0  0  0  0  0  0
  1  2  1  0
  2  3  1  0
  3  4  2  0
  3  5  1  0
  5  6  1  0
  6  7  2  0
  7  8  1  0
  8  9  2  0
  9 10  1  0
 10 11  2  0
 10 12  1  0
 12 13  2  0
 13 14  1  0
 14 15  2  0
 15 16  1  0
 16 17  2  0
 15 18  1  0
 18 19  1  0
 19 20  1  0
 20 21  1  0
 21 22  1  0
 21 23  1  0
 23 24  1  0
 23 25  1  0
  2 26  1  0
 26 27  1  0
 27 28  2  0
 28 29  1  0
 29 30  1  0
 30 31  1  0
 30 32  1  0
 32 33  2  0
 32 34  1  0
 34 35  1  0
 35 36  1  0
 36 37  1  0
 36 38  2  0
 34 39  1  0
 39 40  2  0
 39 41  1  0
 11  6  1  0
 17 12  1  0
 22 18  1  0
 41 26  1  0
 23 20  1  0
 41 29  2  0
  1 42  1  0
  1 43  1  0
  1 44  1  0
  2 45  1  1
  5 46  1  0
  7 47  1  0
  8 48  1  0
  9 49  1  0
 13 50  1  0
 17 51  1  0
 19 52  1  0
 19 53  1  0
 20 54  1  0
 21 55  1  0
 22 56  1  0
 22 57  1  0
 27 58  1  0
 31 59  1  0
 31 60  1  0
 31 61  1  0
 35 62  1  0
 35 63  1  0
 37 64  1  0
 37 65  1  0
 37 66  1  0
M  END
$$$$
[H]c1sc(-c2c([H])c([H])c(Cl)c(Cl)c2[H])nc1N([H])C(=O)[C@@]([H])(n1c([H])nc2c1c(=O)n(C([H])([H])C#N)c(=O)n2C([H])([H])[H])C([H])([H])[H]
     RDKit          3D

 48 51  0  0  0  0  0  0  0  0999 V2000
    1.3273   -1.2930    2.0335 C   0  0  0  0  0  0  0  0  0  0  0  0
    0.8790   -0.8174    0.6476 C   0  0  1  0  0  0  0  0  0  0  0  0
   -0.5626   -0.5119    0.7291 C   0  0  0  0  0  0  0  0  0  0  0  0
   -1.3535   -1.0324   -0.0923 O   0  0  0  0  0  0  0  0  0  0  0  0
   -1.0838    0.3609    1.7179 N   0  0  0  0  0  0  0  0  0  0  0  0
   -2.5046    0.6607    1.7965 C   0  0  0  0  0  0  0  0  0  0  0  0
   -2.9963    1.5094    2.7614 C   0  0  0  0  0  0  0  0  0  0  0  0
   -4.6679    1.5043    2.4035 S   0  0  0  0  0  0  0  0  0  0  0  0
   -4.6404    0.4423    1.0726 C   0  0  0  0  0  0  0  0  0  0  0  0
   -3.3589    0.1454    0.9683 N   0  0  0  0  0  0  0  0  0  0  0  0
   -5.7326   -0.0548    0.2171 C   0  0  0  0  0  0  0  0  0  0  0  0
   -5.4606   -0.9198   -0.8145 C   0  0  0  0  0  0  0  0  0  0  0  0
   -6.4824   -1.4024   -1.6368 C   0  0  0  0  0  0  0  0  0  0  0  0
   -7.7847   -1.0112   -1.4182 C   0  0  0  0  0  0  0  0  0  0  0  0
   -9.0807   -1.6144   -2.4500 Cl  0  0  0  0  0  0  0  0  0  0  0  0
   -8.0377   -0.1456   -0.3819 C   0  0  0  0  0  0  0  0  0  0  0  0
   -9.6864    0.3486   -0.1066 Cl  0  0  0  0  0  0  0  0  0  0  0  0
   -7.0169    0.3359    0.4388 C   0  0  0  0  0  0  0  0  0  0  0  0
    1.6715    0.2861    0.1646 N   0  0  0  0  0  0  0  0  0  0  0  0
    1.2971    1.5755    0.0558 C   0  0  0  0  0  0  0  0  0  0  0  0
    2.3404    2.2514   -0.4352 N   0  0  0  0  0  0  0  0  0  0  0  0
    3.3612    1.4158   -0.6374 C   0  0  0  0  0  0  0  0  0  0  0  0
    4.6211    1.5483   -1.1042 N   0  0  0  0  0  0  0  0  0  0  0  0
    5.0320    2.8895   -1.4972 C   0  0  0  0  0  0  0  0  0  0  0  0
    5.4519    0.4956   -1.2006 C   0  0  0  0  0  0  0  0  0  0  0  0
    6.6126    0.6704   -1.6404 O   0  0  0  0  0  0  0  0  0  0  0  0
    5.0906   -0.7417   -0.8443 N   0  0  0  0  0  0  0  0  0  0  0  0
    5.9829   -1.8375   -0.9543 C   0  0  0  0  0  0  0  0  0  0  0  0
    6.7477   -1.9934    0.2772 C   0  0  0  0  0  0  0  0  0  0  0  0
    7.3480   -2.1242    1.2451 N   0  0  0  0  0  0  0  0  0  0  0  0
    3.8446   -0.9142   -0.3749 C   0  0  0  0  0  0  0  0  0  0  0  0
    3.4517   -2.0527   -0.0262 O   0  0  0  0  0  0  0  0  0  0  0  0
    2.9556    0.1404   -0.2582 C   0  0  0  0  0  0  0  0  0  0  0  0
    1.4623   -2.3906    2.0573 H   0  0  0  0  0  0  0  0  0  0  0  0
    0.5827   -0.9874    2.8139 H   0  0  0  0  0  0  0  0  0  0  0  0
    2.2877   -0.8294    2.3313 H   0  0  0  0  0  0  0  0  0  0  0  0
    1.0575   -1.6569   -0.0790 H   0  0  0  0  0  0  0  0  0  0  0  0
   -0.4329    0.7867    2.3907 H   0  0  0  0  0  0  0  0  0  0  0  0
   -2.4306    2.0405    3.5488 H   0  0  0  0  0  0  0  0  0  0  0  0
   -4.4287   -1.2148   -0.9687 H   0  0  0  0  0  0  0  0  0  0  0  0
   -6.2537   -2.0821   -2.4442 H   0  0  0  0  0  0  0  0  0  0  0  0
   -7.2131    1.0205    1.2593 H   0  0  0  0  0  0  0  0  0  0  0  0
    0.3098    1.9562    0.3283 H   0  0  0  0  0  0  0  0  0  0  0  0
    4.5588    3.6446   -0.8324 H   0  0  0  0  0  0  0  0  0  0  0  0
    4.7695    3.0957   -2.5533 H   0  0  0  0  0  0  0  0  0  0  0  0
    6.1251    2.9947   -1.3474 H   0  0  0  0  0  0  0  0  0  0  0  0
    5.3764   -2.7629   -1.1642 H   0  0  0  0  0  0  0  0  0  0  0  0
    6.6643   -1.7289   -1.8296 H   0  0  0  0  0  0  0  0  0  0  0  0
  1  2  1  0
  2  3  1  0
  3  4  2  0
  3  5  1  0
  5  6  1  0
  6  7  2  0
  7  8  1  0
  8  9  1  0
  9 10  2  0
  9 11  1  0
 11 12  2  0
 12 13  1  0
 13 14  2  0
 14 15  1  0
 14 16  1  0
 16 17  1  0
 16 18  2  0
  2 19  1  0
 19 20  1  0
 20 21  2  0
 21 22  1  0
 22 23  1  0
 23 24  1  0
 23 25  1  0
 25 26  2  0
 25 27  1  0
 27 28  1  0
 28 29  1  0
 29 30  3  0
 27 31  1  0
 31 32  2  0
 31 33  1  0
 10  6  1  0
 18 11  1  0
 33 19  1  0
 33 22  2  0
  1 34  1  0
  1 35  1  0
  1 36  1  0
  2 37  1  6
  5 38  1  0
  7 39  1  0
 12 40  1  0
 13 41  1  0
 18 42  1  0
 20 43  1  0
 24 44  1  0
 24 45  1  0
 24 46  1  0
 28 47  1  0
 28 48  1  0
M  END
$$$$
[H]C([H])([H])SC([H])([H])C([H])([H])C([H])([H])C([H])([H])C([H])([H])N=C=S
     RDKit          3D

 23 22  0  0  0  0  0  0  0  0999 V2000
    4.0951    0.7346   -0.2752 C   0  0  0  0  0  0  0  0  0  0  0  0
    2.8995    1.9239    0.3954 S   0  0  0  0  0  0  0  0  0  0  0  0
    1.2483    1.4940   -0.1807 C   0  0  0  0  0  0  0  0  0  0  0  0
    0.7989    0.1580    0.4022 C   0  0  0  0  0  0  0  0  0  0  0  0
   -0.5834   -0.1046   -0.1391 C   0  0  0  0  0  0  0  0  0  0  0  0
   -1.1563   -1.4128    0.3645 C   0  0  0  0  0  0  0  0  0  0  0  0
   -2.5466   -1.5329   -0.2670 C   0  0  0  0  0  0  0  0  0  0  0  0
   -3.3055   -0.3928    0.1791 N   0  0  0  0  0  0  0  0  0  0  0  0
   -4.1818    0.0822   -0.6069 C   0  0  0  0  0  0  0  0  0  0  0  0
   -5.1811    1.0982   -1.3499 S   0  0  0  0  0  0  0  0  0  0  0  0
    3.5890   -0.2190   -0.4387 H   0  0  0  0  0  0  0  0  0  0  0  0
    4.4849    1.1028   -1.2571 H   0  0  0  0  0  0  0  0  0  0  0  0
    4.9237    0.6696    0.4577 H   0  0  0  0  0  0  0  0  0  0  0  0
    1.2196    1.3942   -1.2921 H   0  0  0  0  0  0  0  0  0  0  0  0
    0.5544    2.3038    0.0890 H   0  0  0  0  0  0  0  0  0  0  0  0
    0.7735    0.2611    1.4884 H   0  0  0  0  0  0  0  0  0  0  0  0
    1.4544   -0.6401    0.0587 H   0  0  0  0  0  0  0  0  0  0  0  0
   -1.3061    0.6869    0.1604 H   0  0  0  0  0  0  0  0  0  0  0  0
   -0.5829   -0.1488   -1.2403 H   0  0  0  0  0  0  0  0  0  0  0  0
   -1.3001   -1.2958    1.4642 H   0  0  0  0  0  0  0  0  0  0  0  0
   -0.5216   -2.2731    0.1426 H   0  0  0  0  0  0  0  0  0  0  0  0
   -3.0082   -2.4969   -0.0540 H   0  0  0  0  0  0  0  0  0  0  0  0
   -2.3677   -1.3925   -1.3701 H   0  0  0  0  0  0  0  0  0  0  0  0
  1  2  1  0
  2  3  1  0
  3  4  1  0
  4  5  1  0
  5  6  1  0
  6  7  1  0
  7  8  1  0
  8  9  2  3
  9 10  2  0
  1 11  1  0
  1 12  1  0
  1 13  1  0
  3 14  1  0
  3 15  1  0
  4 16  1  0
  4 17  1  0
  5 18  1  0
  5 19  1  0
  6 20  1  0
  6 21  1  0
  7 22  1  0
  7 23  1  0
M  END
$$$$
[H]c1nc(N([H])C(=O)C([H])([H])n2c([H])nc3c2c(=O)n(C([H])([H])c2noc(C([H])([H])[H])c2[H])c(=O)n3C([H])([H])[H])c([H])c([H])c1N1C([H])([H])C([H])([H])C([H])(C(F)(C([H])([H])[H])C([H])([H])[H])C([H])([H])C1([H])[H]
     RDKit          3D

 70 74  0  0  0  0  0  0  0  0999 V2000
   10.2873    2.8854   -0.6361 C   0  0  0  0  0  0  0  0  0  0  0  0
    8.8293    2.5698   -0.6747 C   0  0  0  0  0  0  0  0  0  0  0  0
    8.2053    1.4957   -1.2673 C   0  0  0  0  0  0  0  0  0  0  0  0
    6.8382    1.6272   -1.0417 C   0  0  0  0  0  0  0  0  0  0  0  0
    5.7732    0.7048   -1.4953 C   0  0  0  0  0  0  0  0  0  0  0  0
    5.5145   -0.2798   -0.4684 N   0  0  0  0  0  0  0  0  0  0  0  0
    6.1865   -1.4434   -0.4244 C   0  0  0  0  0  0  0  0  0  0  0  0
    7.0541   -1.6563   -1.2939 O   0  0  0  0  0  0  0  0  0  0  0  0
    5.9332   -2.3588    0.5317 N   0  0  0  0  0  0  0  0  0  0  0  0
    6.6776   -3.5938    0.5423 C   0  0  0  0  0  0  0  0  0  0  0  0
    4.9849   -2.0533    1.4297 C   0  0  0  0  0  0  0  0  0  0  0  0
    4.5396   -2.7642    2.4748 N   0  0  0  0  0  0  0  0  0  0  0  0
    3.5872   -2.0584    3.0943 C   0  0  0  0  0  0  0  0  0  0  0  0
    3.3950   -0.8738    2.4623 N   0  0  0  0  0  0  0  0  0  0  0  0
    2.4506    0.1474    2.7984 C   0  0  0  0  0  0  0  0  0  0  0  0
    1.1006   -0.0465    2.2253 C   0  0  0  0  0  0  0  0  0  0  0  0
    0.3457   -0.9856    2.6453 O   0  0  0  0  0  0  0  0  0  0  0  0
    0.5761    0.7620    1.2176 N   0  0  0  0  0  0  0  0  0  0  0  0
   -0.7278    0.5785    0.6511 C   0  0  0  0  0  0  0  0  0  0  0  0
   -1.2157    1.3955   -0.3395 C   0  0  0  0  0  0  0  0  0  0  0  0
   -2.4593    1.2390   -0.9068 C   0  0  0  0  0  0  0  0  0  0  0  0
   -3.3002    0.2018   -0.4760 C   0  0  0  0  0  0  0  0  0  0  0  0
   -2.7832   -0.5982    0.5169 C   0  0  0  0  0  0  0  0  0  0  0  0
   -1.5404   -0.4092    1.0551 N   0  0  0  0  0  0  0  0  0  0  0  0
   -4.5897    0.0309   -1.0399 N   0  0  0  0  0  0  0  0  0  0  0  0
   -5.2067   -1.2720   -0.9996 C   0  0  0  0  0  0  0  0  0  0  0  0
   -6.4908   -1.1237   -0.1663 C   0  0  0  0  0  0  0  0  0  0  0  0
   -7.3865   -0.0913   -0.8200 C   0  0  0  0  0  0  0  0  0  0  0  0
   -6.6910    1.2351   -0.9605 C   0  0  0  0  0  0  0  0  0  0  0  0
   -5.3516    1.0939   -1.6578 C   0  0  0  0  0  0  0  0  0  0  0  0
   -8.7148    0.0363   -0.1606 C   0  0  0  0  0  0  0  0  0  0  0  0
   -8.5931    0.4476    1.3014 C   0  0  0  0  0  0  0  0  0  0  0  0
   -9.5232   -1.2194   -0.2445 C   0  0  0  0  0  0  0  0  0  0  0  0
   -9.4486    1.0529   -0.7853 F   0  0  0  0  0  0  0  0  0  0  0  0
    4.2570   -0.8692    1.4364 C   0  0  0  0  0  0  0  0  0  0  0  0
    4.5560    0.0328    0.4373 C   0  0  0  0  0  0  0  0  0  0  0  0
    3.9438    1.1396    0.3679 O   0  0  0  0  0  0  0  0  0  0  0  0
    6.7119    2.7671   -0.3292 N   0  0  0  0  0  0  0  0  0  0  0  0
    7.8840    3.2861   -0.1350 O   0  0  0  0  0  0  0  0  0  0  0  0
   10.4814    3.7189    0.0516 H   0  0  0  0  0  0  0  0  0  0  0  0
   10.6243    3.0963   -1.6732 H   0  0  0  0  0  0  0  0  0  0  0  0
   10.8249    1.9972   -0.2985 H   0  0  0  0  0  0  0  0  0  0  0  0
    8.6723    0.6905   -1.8113 H   0  0  0  0  0  0  0  0  0  0  0  0
    4.8693    1.3224   -1.6805 H   0  0  0  0  0  0  0  0  0  0  0  0
    6.0417    0.2263   -2.4717 H   0  0  0  0  0  0  0  0  0  0  0  0
    6.4051   -4.1419   -0.3768 H   0  0  0  0  0  0  0  0  0  0  0  0
    6.2910   -4.2048    1.3961 H   0  0  0  0  0  0  0  0  0  0  0  0
    7.7682   -3.4262    0.6557 H   0  0  0  0  0  0  0  0  0  0  0  0
    3.0072   -2.3211    3.9742 H   0  0  0  0  0  0  0  0  0  0  0  0
    2.4039    0.1733    3.9300 H   0  0  0  0  0  0  0  0  0  0  0  0
    2.7778    1.1733    2.5270 H   0  0  0  0  0  0  0  0  0  0  0  0
    1.1636    1.5603    0.8335 H   0  0  0  0  0  0  0  0  0  0  0  0
   -0.5540    2.1977   -0.6654 H   0  0  0  0  0  0  0  0  0  0  0  0
   -2.8323    1.8854   -1.6895 H   0  0  0  0  0  0  0  0  0  0  0  0
   -3.3876   -1.4193    0.9056 H   0  0  0  0  0  0  0  0  0  0  0  0
   -5.5026   -1.6134   -2.0296 H   0  0  0  0  0  0  0  0  0  0  0  0
   -4.5685   -2.0388   -0.5309 H   0  0  0  0  0  0  0  0  0  0  0  0
   -6.2475   -0.9004    0.8767 H   0  0  0  0  0  0  0  0  0  0  0  0
   -6.9862   -2.1143   -0.2010 H   0  0  0  0  0  0  0  0  0  0  0  0
   -7.5697   -0.4685   -1.8656 H   0  0  0  0  0  0  0  0  0  0  0  0
   -7.3309    1.8720   -1.6382 H   0  0  0  0  0  0  0  0  0  0  0  0
   -6.5670    1.7397    0.0119 H   0  0  0  0  0  0  0  0  0  0  0  0
   -5.5188    0.7969   -2.7337 H   0  0  0  0  0  0  0  0  0  0  0  0
   -4.8122    2.0610   -1.6165 H   0  0  0  0  0  0  0  0  0  0  0  0
   -9.6486    0.6281    1.6495 H   0  0  0  0  0  0  0  0  0  0  0  0
   -8.0731    1.4068    1.4359 H   0  0  0  0  0  0  0  0  0  0  0  0
   -8.1362   -0.3493    1.9027 H   0  0  0  0  0  0  0  0  0  0  0  0
   -9.1543   -1.8134   -1.1236 H   0  0  0  0  0  0  0  0  0  0  0  0
   -9.4624   -1.8025    0.7027 H   0  0  0  0  0  0  0  0  0  0  0  0
  -10.5878   -0.9648   -0.4127 H   0  0  0  0  0  0  0  0  0  0  0  0
  1  2  1  0
  2  3  2  0
  3  4  1  0
  4  5  1  0
  5  6  1  0
  6  7  1  0
  7  8  2  0
  7  9  1  0
  9 10  1  0
  9 11  1  0
 11 12  1  0
 12 13  2  0
 13 14  1  0
 14 15  1  0
 15 16  1  0
 16 17  2  0
 16 18  1  0
 18 19  1  0
 19 20  2  0
 20 21  1  0
 21 22  2  0
 22 23  1  0
 23 24  2  0
 22 25  1  0
 25 26  1  0
 26 27  1  0
 27 28  1  0
 28 29  1  0
 29 30  1  0
 28 31  1  0
 31 32  1  0
 31 33  1  0
 31 34  1  0
 14 35  1  0
 35 36  1  0
 36 37  2  0
  4 38  2  0
 38 39  1  0
 39  2  1  0
 36  6  1  0
 35 11  2  0
 24 19  1  0
 30 25  1  0
  1 40  1  0
  1 41  1  0
  1 42  1  0
  3 43  1  0
  5 44  1  0
  5 45  1  0
 10 46  1  0
 10 47  1  0
 10 48  1  0
 13 49  1  0
 15 50  1  0
 15 51  1  0
 18 52  1  0
 20 53  1  0
 21 54  1  0
 23 55  1  0
 26 56  1  0
 26 57  1  0
 27 58  1  0
 27 59  1  0
 28 60  1  0
 29 61  1  0
 29 62  1  0
 30 63  1  0
 30 64  1  0
 32 65  1  0
 32 66  1  0
 32 67  1  0
 33 68  1  0
 33 69  1  0
 33 70  1  0
M  END
$$$$
[H]c1nc(N2C([H])([H])C3([H])C(F)(F)C3([H])C2([H])[H])c([H])c([H])c1-c1nc(N([H])C(=O)[C@@]([H])(n2c([H])nc3c2c(=O)n(C([H])([H])C(=O)C([H])([H])C([H])([H])[H])c(=O)n3C([H])([H])[H])C([H])([H])[H])c([H])c([H])c1[H]
     RDKit          3D

 70 75  0  0  0  0  0  0  0  0999 V2000
   -6.1639    3.9187    0.2883 C   0  0  0  0  0  0  0  0  0  0  0  0
   -6.7340    2.6566   -0.3405 C   0  0  0  0  0  0  0  0  0  0  0  0
   -6.5196    1.5315    0.5928 C   0  0  0  0  0  0  0  0  0  0  0  0
   -5.9301    1.7483    1.6592 O   0  0  0  0  0  0  0  0  0  0  0  0
   -6.9518    0.1376    0.3730 C   0  0  0  0  0  0  0  0  0  0  0  0
   -5.8806   -0.5947   -0.2834 N   0  0  0  0  0  0  0  0  0  0  0  0
   -5.7877   -0.6925   -1.6203 C   0  0  0  0  0  0  0  0  0  0  0  0
   -6.6616   -0.1409   -2.3613 O   0  0  0  0  0  0  0  0  0  0  0  0
   -4.7664   -1.3780   -2.1833 N   0  0  0  0  0  0  0  0  0  0  0  0
   -4.6979   -1.4617   -3.6333 C   0  0  0  0  0  0  0  0  0  0  0  0
   -3.8352   -1.9679   -1.4158 C   0  0  0  0  0  0  0  0  0  0  0  0
   -2.7260   -2.7035   -1.6905 N   0  0  0  0  0  0  0  0  0  0  0  0
   -2.1406   -3.0561   -0.5387 C   0  0  0  0  0  0  0  0  0  0  0  0
   -2.8620   -2.5546    0.4846 N   0  0  0  0  0  0  0  0  0  0  0  0
   -2.5666   -2.7087    1.9167 C   0  0  1  0  0  0  0  0  0  0  0  0
   -3.4202   -3.9012    2.4319 C   0  0  0  0  0  0  0  0  0  0  0  0
   -1.1652   -3.0695    2.0388 C   0  0  0  0  0  0  0  0  0  0  0  0
   -0.9775   -4.3225    2.4017 O   0  0  0  0  0  0  0  0  0  0  0  0
    0.0004   -2.3676    1.8465 N   0  0  0  0  0  0  0  0  0  0  0  0
    0.2714   -1.0261    1.5200 C   0  0  0  0  0  0  0  0  0  0  0  0
   -0.6491   -0.0258    1.3923 C   0  0  0  0  0  0  0  0  0  0  0  0
   -0.2728    1.2705    1.0345 C   0  0  0  0  0  0  0  0  0  0  0  0
    1.0638    1.5036    0.8155 C   0  0  0  0  0  0  0  0  0  0  0  0
    2.0187    0.5239    0.9349 C   0  0  0  0  0  0  0  0  0  0  0  0
    1.5907   -0.6938    1.2797 N   0  0  0  0  0  0  0  0  0  0  0  0
    3.4421    0.7733    0.7012 C   0  0  0  0  0  0  0  0  0  0  0  0
    4.3467   -0.2662    0.8373 C   0  0  0  0  0  0  0  0  0  0  0  0
    5.7073   -0.0676    0.6236 C   0  0  0  0  0  0  0  0  0  0  0  0
    6.1683    1.1759    0.2719 C   0  0  0  0  0  0  0  0  0  0  0  0
    5.2832    2.1730    0.1436 N   0  0  0  0  0  0  0  0  0  0  0  0
    3.9333    1.9943    0.3512 C   0  0  0  0  0  0  0  0  0  0  0  0
    7.5699    1.4103    0.0448 N   0  0  0  0  0  0  0  0  0  0  0  0
    8.2031    2.6547   -0.3073 C   0  0  0  0  0  0  0  0  0  0  0  0
    9.2596    2.2513   -1.2824 C   0  0  0  0  0  0  0  0  0  0  0  0
    9.5235    0.7752   -1.0022 C   0  0  0  0  0  0  0  0  0  0  0  0
    8.5917    0.4148    0.1352 C   0  0  0  0  0  0  0  0  0  0  0  0
    8.9805    1.2144   -2.3037 C   0  0  0  0  0  0  0  0  0  0  0  0
    7.6423    1.0105   -2.6164 F   0  0  0  0  0  0  0  0  0  0  0  0
    9.8912    1.1800   -3.3529 F   0  0  0  0  0  0  0  0  0  0  0  0
   -3.9086   -1.8819   -0.0344 C   0  0  0  0  0  0  0  0  0  0  0  0
   -4.9580   -1.1783    0.5151 C   0  0  0  0  0  0  0  0  0  0  0  0
   -5.0270   -1.0990    1.7695 O   0  0  0  0  0  0  0  0  0  0  0  0
   -5.0578    3.8622    0.1127 H   0  0  0  0  0  0  0  0  0  0  0  0
   -6.6166    4.7991   -0.1845 H   0  0  0  0  0  0  0  0  0  0  0  0
   -6.3781    3.8867    1.3686 H   0  0  0  0  0  0  0  0  0  0  0  0
   -6.2683    2.5084   -1.3378 H   0  0  0  0  0  0  0  0  0  0  0  0
   -7.8242    2.8654   -0.4883 H   0  0  0  0  0  0  0  0  0  0  0  0
   -7.8142    0.1186   -0.3105 H   0  0  0  0  0  0  0  0  0  0  0  0
   -7.2690   -0.3673    1.3192 H   0  0  0  0  0  0  0  0  0  0  0  0
   -5.2866   -2.3528   -3.9410 H   0  0  0  0  0  0  0  0  0  0  0  0
   -3.6525   -1.6056   -3.9432 H   0  0  0  0  0  0  0  0  0  0  0  0
   -5.1591   -0.5728   -4.0938 H   0  0  0  0  0  0  0  0  0  0  0  0
   -1.2282   -3.6504   -0.3803 H   0  0  0  0  0  0  0  0  0  0  0  0
   -2.8342   -1.8184    2.4974 H   0  0  0  0  0  0  0  0  0  0  0  0
   -2.9225   -4.8534    2.2107 H   0  0  0  0  0  0  0  0  0  0  0  0
   -4.3994   -3.9173    1.9125 H   0  0  0  0  0  0  0  0  0  0  0  0
   -3.5059   -3.7567    3.5198 H   0  0  0  0  0  0  0  0  0  0  0  0
    0.9465   -2.9362    2.0103 H   0  0  0  0  0  0  0  0  0  0  0  0
   -1.6750   -0.1964    1.5763 H   0  0  0  0  0  0  0  0  0  0  0  0
   -1.0302    2.0304    0.9440 H   0  0  0  0  0  0  0  0  0  0  0  0
    1.3693    2.5167    0.5340 H   0  0  0  0  0  0  0  0  0  0  0  0
    3.9429   -1.2333    1.1164 H   0  0  0  0  0  0  0  0  0  0  0  0
    6.3950   -0.9036    0.7382 H   0  0  0  0  0  0  0  0  0  0  0  0
    3.2663    2.8289    0.2345 H   0  0  0  0  0  0  0  0  0  0  0  0
    8.6108    3.1562    0.5943 H   0  0  0  0  0  0  0  0  0  0  0  0
    7.4267    3.3074   -0.7531 H   0  0  0  0  0  0  0  0  0  0  0  0
   10.1588    2.9037   -1.3936 H   0  0  0  0  0  0  0  0  0  0  0  0
   10.5815    0.4475   -0.9316 H   0  0  0  0  0  0  0  0  0  0  0  0
    9.1103    0.3941    1.1052 H   0  0  0  0  0  0  0  0  0  0  0  0
    8.2282   -0.6215   -0.1031 H   0  0  0  0  0  0  0  0  0  0  0  0
  1  2  1  0
  2  3  1  0
  3  4  2  0
  3  5  1  0
  5  6  1  0
  6  7  1  0
  7  8  2  0
  7  9  1  0
  9 10  1  0
  9 11  1  0
 11 12  1  0
 12 13  2  0
 13 14  1  0
 14 15  1  0
 15 16  1  0
 15 17  1  0
 17 18  2  0
 17 19  1  0
 19 20  1  0
 20 21  2  0
 21 22  1  0
 22 23  2  0
 23 24  1  0
 24 25  2  0
 24 26  1  0
 26 27  2  0
 27 28  1  0
 28 29  2  0
 29 30  1  0
 30 31  2  0
 29 32  1  0
 32 33  1  0
 33 34  1  0
 34 35  1  0
 35 36  1  0
 35 37  1  0
 37 38  1  0
 37 39  1  0
 14 40  1  0
 40 41  1  0
 41 42  2  0
 41  6  1  0
 40 11  2  0
 25 20  1  0
 31 26  1  0
 36 32  1  0
 37 34  1  0
  1 43  1  0
  1 44  1  0
  1 45  1  0
  2 46  1  0
  2 47  1  0
  5 48  1  0
  5 49  1  0
 10 50  1  0
 10 51  1  0
 10 52  1  0
 13 53  1  0
 15 54  1  1
 16 55  1  0
 16 56  1  0
 16 57  1  0
 19 58  1  0
 21 59  1  0
 22 60  1  0
 23 61  1  0
 27 62  1  0
 28 63  1  0
 31 64  1  0
 33 65  1  0
 33 66  1  0
 34 67  1  0
 35 68  1  0
 36 69  1  0
 36 70  1  0
M  END
$$$$
[H]c1sc(N([H])C(=O)C([H])([H])c2c([H])c([H])c([H])c3c2c(=O)n(C([H])([H])[H])c(=O)n3C([H])([H])[H])nc1-c1c([H])c([H])c([H])c(Cl)c1F
     RDKit          3D

 47 50  0  0  0  0  0  0  0  0999 V2000
   -6.3946    1.4895    0.3008 C   0  0  0  0  0  0  0  0  0  0  0  0
   -5.2433    0.6958   -0.0714 N   0  0  0  0  0  0  0  0  0  0  0  0
   -4.3828    0.3204    0.8982 C   0  0  0  0  0  0  0  0  0  0  0  0
   -4.6423    0.6977    2.2110 C   0  0  0  0  0  0  0  0  0  0  0  0
   -3.8171    0.3405    3.2503 C   0  0  0  0  0  0  0  0  0  0  0  0
   -2.7038   -0.4108    2.9802 C   0  0  0  0  0  0  0  0  0  0  0  0
   -2.3791   -0.8283    1.6696 C   0  0  0  0  0  0  0  0  0  0  0  0
   -1.1480   -1.5904    1.4648 C   0  0  0  0  0  0  0  0  0  0  0  0
   -0.0714   -0.6581    1.0369 C   0  0  0  0  0  0  0  0  0  0  0  0
   -0.3067    0.6004    0.9481 O   0  0  0  0  0  0  0  0  0  0  0  0
    1.2250   -1.1401    0.7221 N   0  0  0  0  0  0  0  0  0  0  0  0
    2.2294   -0.1892    0.3204 C   0  0  0  0  0  0  0  0  0  0  0  0
    3.4642   -0.3771   -0.0128 N   0  0  0  0  0  0  0  0  0  0  0  0
    4.2475    0.6076   -0.3511 C   0  0  0  0  0  0  0  0  0  0  0  0
    3.6985    1.8613   -0.3378 C   0  0  0  0  0  0  0  0  0  0  0  0
    2.0741    1.5042    0.1700 S   0  0  0  0  0  0  0  0  0  0  0  0
    5.6558    0.3550   -0.7307 C   0  0  0  0  0  0  0  0  0  0  0  0
    6.1046   -0.9449   -0.7694 C   0  0  0  0  0  0  0  0  0  0  0  0
    7.3995   -1.3181   -1.1027 C   0  0  0  0  0  0  0  0  0  0  0  0
    8.2873   -0.3266   -1.4134 C   0  0  0  0  0  0  0  0  0  0  0  0
    7.8784    0.9759   -1.3859 C   0  0  0  0  0  0  0  0  0  0  0  0
    8.9796    2.2565   -1.7743 Cl  0  0  0  0  0  0  0  0  0  0  0  0
    6.5567    1.3251   -1.0434 C   0  0  0  0  0  0  0  0  0  0  0  0
    6.2171    2.6316   -1.0305 F   0  0  0  0  0  0  0  0  0  0  0  0
   -3.2324   -0.4518    0.6508 C   0  0  0  0  0  0  0  0  0  0  0  0
   -3.0037   -0.8275   -0.6587 C   0  0  0  0  0  0  0  0  0  0  0  0
   -2.0202   -1.5070   -0.9578 O   0  0  0  0  0  0  0  0  0  0  0  0
   -3.8902   -0.4315   -1.6061 N   0  0  0  0  0  0  0  0  0  0  0  0
   -3.6068   -0.8501   -2.9699 C   0  0  0  0  0  0  0  0  0  0  0  0
   -4.9752    0.3057   -1.3265 C   0  0  0  0  0  0  0  0  0  0  0  0
   -5.7637    0.6413   -2.2660 O   0  0  0  0  0  0  0  0  0  0  0  0
   -6.0979    2.4266    0.8303 H   0  0  0  0  0  0  0  0  0  0  0  0
   -6.9933    1.8032   -0.5649 H   0  0  0  0  0  0  0  0  0  0  0  0
   -7.0494    0.9423    1.0366 H   0  0  0  0  0  0  0  0  0  0  0  0
   -5.5213    1.2914    2.4186 H   0  0  0  0  0  0  0  0  0  0  0  0
   -4.0623    0.6593    4.2604 H   0  0  0  0  0  0  0  0  0  0  0  0
   -2.0171   -0.7229    3.7479 H   0  0  0  0  0  0  0  0  0  0  0  0
   -1.1528   -2.4287    0.7660 H   0  0  0  0  0  0  0  0  0  0  0  0
   -0.7545   -1.9617    2.4730 H   0  0  0  0  0  0  0  0  0  0  0  0
    1.4516   -2.1369    0.7800 H   0  0  0  0  0  0  0  0  0  0  0  0
    4.0737    2.8559   -0.5623 H   0  0  0  0  0  0  0  0  0  0  0  0
    5.4231   -1.7467   -0.5284 H   0  0  0  0  0  0  0  0  0  0  0  0
    7.6760   -2.3412   -1.1114 H   0  0  0  0  0  0  0  0  0  0  0  0
    9.3146   -0.5956   -1.6800 H   0  0  0  0  0  0  0  0  0  0  0  0
   -2.8819   -0.1368   -3.3888 H   0  0  0  0  0  0  0  0  0  0  0  0
   -4.5571   -0.7671   -3.5418 H   0  0  0  0  0  0  0  0  0  0  0  0
   -3.2878   -1.8981   -3.0243 H   0  0  0  0  0  0  0  0  0  0  0  0
  1  2  1  0
  2  3  1  0
  3  4  2  0
  4  5  1  0
  5  6  2  0
  6  7  1  0
  7  8  1  0
  8  9  1  0
  9 10  2  0
  9 11  1  0
 11 12  1  0
 12 13  2  0
 13 14  1  0
 14 15  2  0
 15 16  1  0
 14 17  1  0
 17 18  2  0
 18 19  1  0
 19 20  2  0
 20 21  1  0
 21 22  1  0
 21 23  2  0
 23 24  1  0
  7 25  2  0
 25 26  1  0
 26 27  2  0
 26 28  1  0
 28 29  1  0
 28 30  1  0
 30 31  2  0
 30  2  1  0
 25  3  1  0
 16 12  1  0
 23 17  1  0
  1 32  1  0
  1 33  1  0
  1 34  1  0
  4 35  1  0
  5 36  1  0
  6 37  1  0
  8 38  1  0
  8 39  1  0
 11 40  1  0
 15 41  1  0
 18 42  1  0
 19 43  1  0
 20 44  1  0
 29 45  1  0
 29 46  1  0
 29 47  1  0
M  END
$$$$
[H]c1c([H])c(SC([H])(N([H])C(=O)c2c([H])c([H])c([N+](=O)[O-])c([H])c2[H])C(Cl)(Cl)Cl)c([H])c([H])c1Cl
     RDKit          3D

 35 36  0  0  0  0  0  0  0  0999 V2000
    7.8191    0.1627    0.8862 O   0  0  0  0  0  0  0  0  0  0  0  0
    6.9048    0.7078    0.0452 N   0  0  0  0  0  0  0  0  0  0  0  0
    7.2849    1.5299   -0.8083 O   0  0  0  0  0  0  0  0  0  0  0  0
    5.5259    0.3534    0.1269 C   0  0  0  0  0  0  0  0  0  0  0  0
    4.5908    0.8950   -0.7149 C   0  0  0  0  0  0  0  0  0  0  0  0
    3.2565    0.5423   -0.6248 C   0  0  0  0  0  0  0  0  0  0  0  0
    2.8088   -0.3604    0.3052 C   0  0  0  0  0  0  0  0  0  0  0  0
    3.7653   -0.9111    1.1626 C   0  0  0  0  0  0  0  0  0  0  0  0
    5.0900   -0.5579    1.0697 C   0  0  0  0  0  0  0  0  0  0  0  0
    1.4229   -0.7635    0.4411 C   0  0  0  0  0  0  0  0  0  0  0  0
    1.0783   -1.5996    1.3191 O   0  0  0  0  0  0  0  0  0  0  0  0
    0.4427   -0.2408   -0.3899 N   0  0  0  0  0  0  0  0  0  0  0  0
   -0.9808   -0.6089   -0.3031 C   0  0  0  0  0  0  0  0  0  0  0  0
   -1.8729    0.8349    0.1334 S   0  0  0  0  0  0  0  0  0  0  0  0
   -3.5926    0.7355    0.3174 C   0  0  0  0  0  0  0  0  0  0  0  0
   -4.4336    0.9608   -0.7480 C   0  0  0  0  0  0  0  0  0  0  0  0
   -5.8235    0.8807   -0.6002 C   0  0  0  0  0  0  0  0  0  0  0  0
   -6.3586    0.5739    0.6202 C   0  0  0  0  0  0  0  0  0  0  0  0
   -8.1210    0.4757    0.7929 Cl  0  0  0  0  0  0  0  0  0  0  0  0
   -5.5323    0.3497    1.6786 C   0  0  0  0  0  0  0  0  0  0  0  0
   -4.1737    0.4322    1.5165 C   0  0  0  0  0  0  0  0  0  0  0  0
   -1.3149   -1.2860   -1.5857 C   0  0  0  0  0  0  0  0  0  0  0  0
   -0.2418   -2.7300   -1.7101 Cl  0  0  0  0  0  0  0  0  0  0  0  0
   -2.9534   -1.8410   -1.7570 Cl  0  0  0  0  0  0  0  0  0  0  0  0
   -0.9167   -0.2681   -2.9922 Cl  0  0  0  0  0  0  0  0  0  0  0  0
    4.9306    1.6214   -1.4683 H   0  0  0  0  0  0  0  0  0  0  0  0
    2.5792    1.0095   -1.3206 H   0  0  0  0  0  0  0  0  0  0  0  0
    3.4643   -1.6338    1.9207 H   0  0  0  0  0  0  0  0  0  0  0  0
    5.8399   -0.9878    1.7396 H   0  0  0  0  0  0  0  0  0  0  0  0
    0.6653    0.4502   -1.1304 H   0  0  0  0  0  0  0  0  0  0  0  0
   -1.0374   -1.3444    0.5275 H   0  0  0  0  0  0  0  0  0  0  0  0
   -4.0859    1.2071   -1.7391 H   0  0  0  0  0  0  0  0  0  0  0  0
   -6.4913    1.0556   -1.4291 H   0  0  0  0  0  0  0  0  0  0  0  0
   -5.9863    0.1061    2.6436 H   0  0  0  0  0  0  0  0  0  0  0  0
   -3.5526    0.2490    2.3739 H   0  0  0  0  0  0  0  0  0  0  0  0
  1  2  1  0
  2  3  2  0
  2  4  1  0
  4  5  2  0
  5  6  1  0
  6  7  2  0
  7  8  1  0
  8  9  2  0
  7 10  1  0
 10 11  2  0
 10 12  1  0
 12 13  1  0
 13 14  1  0
 14 15  1  0
 15 16  2  0
 16 17  1  0
 17 18  2  0
 18 19  1  0
 18 20  1  0
 20 21  2  0
 13 22  1  0
 22 23  1  0
 22 24  1  0
 22 25  1  0
  9  4  1  0
 21 15  1  0
  5 26  1  0
  6 27  1  0
  8 28  1  0
  9 29  1  0
 12 30  1  0
 13 31  1  0
 16 32  1  0
 17 33  1  0
 20 34  1  0
 21 35  1  0
M  CHG  2   1  -1   2   1
M  END
$$$$
[H]c1c(C([H])([H])n2c(=O)c3c(nc([H])n3[C@]([H])(C(=O)N([H])c3nc(-c4noc(C(F)(F)F)n4)c([H])c([H])c3[H])C([H])([H])[H])n(C([H])([H])[H])c2=O)noc1C([H])([H])[H]
     RDKit          3D

 57 61  0  0  0  0  0  0  0  0999 V2000
    0.6077   -0.6325    2.6578 C   0  0  0  0  0  0  0  0  0  0  0  0
    0.5213   -0.6584    1.1263 C   0  0  1  0  0  0  0  0  0  0  0  0
    1.8976   -0.7334    0.6227 C   0  0  0  0  0  0  0  0  0  0  0  0
    2.7520   -0.0498    1.3128 O   0  0  0  0  0  0  0  0  0  0  0  0
    2.4095   -1.4139   -0.4613 N   0  0  0  0  0  0  0  0  0  0  0  0
    3.7633   -1.3326   -0.8374 C   0  0  0  0  0  0  0  0  0  0  0  0
    4.2366   -2.2359   -1.7510 C   0  0  0  0  0  0  0  0  0  0  0  0
    5.5456   -2.1677   -2.2164 C   0  0  0  0  0  0  0  0  0  0  0  0
    6.3433   -1.1774   -1.7376 C   0  0  0  0  0  0  0  0  0  0  0  0
    5.8621   -0.2756   -0.8213 C   0  0  0  0  0  0  0  0  0  0  0  0
    4.5903   -0.3702   -0.3914 N   0  0  0  0  0  0  0  0  0  0  0  0
    6.7199    0.8521   -0.4372 C   0  0  0  0  0  0  0  0  0  0  0  0
    8.0171    1.0062   -0.8317 N   0  0  0  0  0  0  0  0  0  0  0  0
    8.3951    2.1587   -0.3730 O   0  0  0  0  0  0  0  0  0  0  0  0
    7.4383    2.7589    0.2893 C   0  0  0  0  0  0  0  0  0  0  0  0
    6.3788    1.9348    0.2544 N   0  0  0  0  0  0  0  0  0  0  0  0
    7.5428    4.1125    0.9386 C   0  0  0  0  0  0  0  0  0  0  0  0
    8.2348    3.9763    2.1027 F   0  0  0  0  0  0  0  0  0  0  0  0
    8.2827    4.9210    0.0478 F   0  0  0  0  0  0  0  0  0  0  0  0
    6.3008    4.6537    1.0930 F   0  0  0  0  0  0  0  0  0  0  0  0
   -0.3868   -1.6541    0.6859 N   0  0  0  0  0  0  0  0  0  0  0  0
   -0.2201   -2.8928    0.2187 C   0  0  0  0  0  0  0  0  0  0  0  0
   -1.3745   -3.4650   -0.1213 N   0  0  0  0  0  0  0  0  0  0  0  0
   -2.3671   -2.5845    0.1253 C   0  0  0  0  0  0  0  0  0  0  0  0
   -3.7099   -2.6792   -0.0101 N   0  0  0  0  0  0  0  0  0  0  0  0
   -4.2807   -3.8748   -0.5798 C   0  0  0  0  0  0  0  0  0  0  0  0
   -4.4789   -1.6517    0.3665 C   0  0  0  0  0  0  0  0  0  0  0  0
   -5.7498   -1.7373    0.2412 O   0  0  0  0  0  0  0  0  0  0  0  0
   -3.9513   -0.5276    0.8724 N   0  0  0  0  0  0  0  0  0  0  0  0
   -4.7721    0.5476    1.3516 C   0  0  0  0  0  0  0  0  0  0  0  0
   -5.1909    1.5369    0.3702 C   0  0  0  0  0  0  0  0  0  0  0  0
   -6.3315    2.3433    0.5965 C   0  0  0  0  0  0  0  0  0  0  0  0
   -6.4804    3.1695   -0.4910 C   0  0  0  0  0  0  0  0  0  0  0  0
   -7.5522    4.2121   -0.7043 C   0  0  0  0  0  0  0  0  0  0  0  0
   -5.4975    2.8760   -1.3098 O   0  0  0  0  0  0  0  0  0  0  0  0
   -4.7388    1.9303   -0.8247 N   0  0  0  0  0  0  0  0  0  0  0  0
   -2.6038   -0.4311    0.9985 C   0  0  0  0  0  0  0  0  0  0  0  0
   -2.0853    0.6184    1.4684 O   0  0  0  0  0  0  0  0  0  0  0  0
   -1.7416   -1.4476    0.6338 C   0  0  0  0  0  0  0  0  0  0  0  0
   -0.2965   -1.1630    3.0261 H   0  0  0  0  0  0  0  0  0  0  0  0
    0.5833    0.4004    3.0548 H   0  0  0  0  0  0  0  0  0  0  0  0
    1.5471   -1.1032    3.0142 H   0  0  0  0  0  0  0  0  0  0  0  0
    0.1934    0.3969    0.8715 H   0  0  0  0  0  0  0  0  0  0  0  0
    1.7992   -1.9861   -1.0761 H   0  0  0  0  0  0  0  0  0  0  0  0
    3.6208   -3.0495   -2.1583 H   0  0  0  0  0  0  0  0  0  0  0  0
    5.8432   -2.9050   -2.9301 H   0  0  0  0  0  0  0  0  0  0  0  0
    7.3715   -1.1105   -2.0774 H   0  0  0  0  0  0  0  0  0  0  0  0
    0.7434   -3.3993    0.1556 H   0  0  0  0  0  0  0  0  0  0  0  0
   -5.3394   -4.0071   -0.2853 H   0  0  0  0  0  0  0  0  0  0  0  0
   -4.3231   -3.7719   -1.7254 H   0  0  0  0  0  0  0  0  0  0  0  0
   -3.7249   -4.7895   -0.3156 H   0  0  0  0  0  0  0  0  0  0  0  0
   -4.3772    1.0166    2.2914 H   0  0  0  0  0  0  0  0  0  0  0  0
   -5.7374    0.0495    1.7210 H   0  0  0  0  0  0  0  0  0  0  0  0
   -6.9736    2.3143    1.4716 H   0  0  0  0  0  0  0  0  0  0  0  0
   -7.9780    4.4144    0.2994 H   0  0  0  0  0  0  0  0  0  0  0  0
   -8.2832    3.9250   -1.4594 H   0  0  0  0  0  0  0  0  0  0  0  0
   -6.9953    5.1527   -0.9834 H   0  0  0  0  0  0  0  0  0  0  0  0
  1  2  1  0
  2  3  1  0
  3  4  2  0
  3  5  1  0
  5  6  1  0
  6  7  2  0
  7  8  1  0
  8  9  2  0
  9 10  1  0
 10 11  2  0
 10 12  1  0
 12 13  2  0
 13 14  1  0
 14 15  1  0
 15 16  2  0
 15 17  1  0
 17 18  1  0
 17 19  1  0
 17 20  1  0
  2 21  1  0
 21 22  1  0
 22 23  2  0
 23 24  1  0
 24 25  1  0
 25 26  1  0
 25 27  1  0
 27 28  2  0
 27 29  1  0
 29 30  1  0
 30 31  1  0
 31 32  1  0
 32 33  2  0
 33 34  1  0
 33 35  1  0
 35 36  1  0
 29 37  1  0
 37 38  2  0
 37 39  1  0
 11  6  1  0
 16 12  1  0
 39 21  1  0
 39 24  2  0
 36 31  2  0
  1 40  1  0
  1 41  1  0
  1 42  1  0
  2 43  1  6
  5 44  1  0
  7 45  1  0
  8 46  1  0
  9 47  1  0
 22 48  1  0
 26 49  1  0
 26 50  1  0
 26 51  1  0
 30 52  1  0
 30 53  1  0
 32 54  1  0
 34 55  1  0
 34 56  1  0
 34 57  1  0
M  END
$$$$
[H]c1nc([H])c(N([H])C(=O)[C@@]([H])(n2c([H])nc3c2c(=O)n(C([H])([H])c2nc(C([H])([H])[H])no2)c(=O)n3C([H])([H])[H])C([H])([H])[H])nc1-c1c([H])nc(C(F)(F)F)nc1[H]
     RDKit          3D

 58 62  0  0  0  0  0  0  0  0999 V2000
   -0.4012    1.4170   -1.0849 C   0  0  0  0  0  0  0  0  0  0  0  0
    0.2191    0.5103    0.0203 C   0  0  1  0  0  0  0  0  0  0  0  0
   -0.8573   -0.5206    0.3007 C   0  0  0  0  0  0  0  0  0  0  0  0
   -0.4929   -1.6895    0.5288 O   0  0  0  0  0  0  0  0  0  0  0  0
   -2.2043   -0.1586    0.2927 N   0  0  0  0  0  0  0  0  0  0  0  0
   -3.3423   -1.0247    0.3964 C   0  0  0  0  0  0  0  0  0  0  0  0
   -3.2913   -2.3865    0.4625 C   0  0  0  0  0  0  0  0  0  0  0  0
   -4.4272   -3.1035    0.5174 N   0  0  0  0  0  0  0  0  0  0  0  0
   -5.6463   -2.5046    0.5074 C   0  0  0  0  0  0  0  0  0  0  0  0
   -5.7332   -1.1341    0.4410 C   0  0  0  0  0  0  0  0  0  0  0  0
   -4.5928   -0.4544    0.3893 N   0  0  0  0  0  0  0  0  0  0  0  0
   -7.0334   -0.4650    0.4491 C   0  0  0  0  0  0  0  0  0  0  0  0
   -7.1291    0.9213    0.6256 C   0  0  0  0  0  0  0  0  0  0  0  0
   -8.3347    1.5452    0.5921 N   0  0  0  0  0  0  0  0  0  0  0  0
   -9.4855    0.8859    0.3916 C   0  0  0  0  0  0  0  0  0  0  0  0
   -9.3867   -0.4463    0.2224 N   0  0  0  0  0  0  0  0  0  0  0  0
   -8.2226   -1.1257    0.2433 C   0  0  0  0  0  0  0  0  0  0  0  0
  -10.8105    1.5804    0.3554 C   0  0  0  0  0  0  0  0  0  0  0  0
  -11.4122    1.4486   -0.8992 F   0  0  0  0  0  0  0  0  0  0  0  0
  -10.6496    2.9154    0.6018 F   0  0  0  0  0  0  0  0  0  0  0  0
  -11.7054    1.0685    1.2603 F   0  0  0  0  0  0  0  0  0  0  0  0
    1.2927   -0.1951   -0.6813 N   0  0  0  0  0  0  0  0  0  0  0  0
    1.0819   -1.2612   -1.4895 C   0  0  0  0  0  0  0  0  0  0  0  0
    2.2521   -1.6619   -2.0273 N   0  0  0  0  0  0  0  0  0  0  0  0
    3.2320   -0.8565   -1.5741 C   0  0  0  0  0  0  0  0  0  0  0  0
    4.5539   -0.8316   -1.8460 N   0  0  0  0  0  0  0  0  0  0  0  0
    5.1307   -1.8296   -2.7122 C   0  0  0  0  0  0  0  0  0  0  0  0
    5.2555    0.1391   -1.2553 C   0  0  0  0  0  0  0  0  0  0  0  0
    6.5027    0.2269   -1.4641 O   0  0  0  0  0  0  0  0  0  0  0  0
    4.7031    1.0523   -0.4247 N   0  0  0  0  0  0  0  0  0  0  0  0
    5.5654    2.0942    0.0776 C   0  0  0  0  0  0  0  0  0  0  0  0
    6.4405    1.6272    1.1762 C   0  0  0  0  0  0  0  0  0  0  0  0
    7.7725    1.3565    0.9566 N   0  0  0  0  0  0  0  0  0  0  0  0
    8.3058    0.9539    2.1322 C   0  0  0  0  0  0  0  0  0  0  0  0
    9.7128    0.5574    2.3761 C   0  0  0  0  0  0  0  0  0  0  0  0
    7.3282    0.9810    3.0236 N   0  0  0  0  0  0  0  0  0  0  0  0
    6.2375    1.3893    2.4066 O   0  0  0  0  0  0  0  0  0  0  0  0
    3.4019    1.0337   -0.1474 C   0  0  0  0  0  0  0  0  0  0  0  0
    2.8389    1.8398    0.6019 O   0  0  0  0  0  0  0  0  0  0  0  0
    2.6043    0.0547   -0.7303 C   0  0  0  0  0  0  0  0  0  0  0  0
   -0.9553    0.7814   -1.8160 H   0  0  0  0  0  0  0  0  0  0  0  0
    0.4803    1.8501   -1.5939 H   0  0  0  0  0  0  0  0  0  0  0  0
   -1.0079    2.2105   -0.6650 H   0  0  0  0  0  0  0  0  0  0  0  0
    0.5016    1.1244    0.8317 H   0  0  0  0  0  0  0  0  0  0  0  0
   -2.4298    0.8704    0.1112 H   0  0  0  0  0  0  0  0  0  0  0  0
   -2.3313   -2.9030    0.4672 H   0  0  0  0  0  0  0  0  0  0  0  0
   -6.5561   -3.0803    0.5433 H   0  0  0  0  0  0  0  0  0  0  0  0
   -6.2157    1.4611    0.7944 H   0  0  0  0  0  0  0  0  0  0  0  0
   -8.2449   -2.1987    0.0861 H   0  0  0  0  0  0  0  0  0  0  0  0
    0.1536   -1.7702   -1.7304 H   0  0  0  0  0  0  0  0  0  0  0  0
    4.3606   -2.3479   -3.3190 H   0  0  0  0  0  0  0  0  0  0  0  0
    5.6916   -2.6130   -2.1609 H   0  0  0  0  0  0  0  0  0  0  0  0
    5.8204   -1.3545   -3.4610 H   0  0  0  0  0  0  0  0  0  0  0  0
    4.9690    2.9367    0.4836 H   0  0  0  0  0  0  0  0  0  0  0  0
    6.1459    2.4909   -0.7777 H   0  0  0  0  0  0  0  0  0  0  0  0
    9.9660   -0.4075    1.8563 H   0  0  0  0  0  0  0  0  0  0  0  0
    9.9651    0.4140    3.4280 H   0  0  0  0  0  0  0  0  0  0  0  0
   10.4138    1.3029    1.9097 H   0  0  0  0  0  0  0  0  0  0  0  0
  1  2  1  0
  2  3  1  0
  3  4  2  0
  3  5  1  0
  5  6  1  0
  6  7  2  0
  7  8  1  0
  8  9  2  0
  9 10  1  0
 10 11  2  0
 10 12  1  0
 12 13  2  0
 13 14  1  0
 14 15  2  0
 15 16  1  0
 16 17  2  0
 15 18  1  0
 18 19  1  0
 18 20  1  0
 18 21  1  0
  2 22  1  0
 22 23  1  0
 23 24  2  0
 24 25  1  0
 25 26  1  0
 26 27  1  0
 26 28  1  0
 28 29  2  0
 28 30  1  0
 30 31  1  0
 31 32  1  0
 32 33  2  0
 33 34  1  0
 34 35  1  0
 34 36  2  0
 36 37  1  0
 30 38  1  0
 38 39  2  0
 38 40  1  0
 11  6  1  0
 17 12  1  0
 40 22  1  0
 40 25  2  0
 37 32  1  0
  1 41  1  0
  1 42  1  0
  1 43  1  0
  2 44  1  1
  5 45  1  0
  7 46  1  0
  9 47  1  0
 13 48  1  0
 17 49  1  0
 23 50  1  0
 27 51  1  0
 27 52  1  0
 27 53  1  0
 31 54  1  0
 31 55  1  0
 35 56  1  0
 35 57  1  0
 35 58  1  0
M  END
$$$$
[H]C1=Nc2c([H])c([H])c([H])c(C#N)c2Oc2c([H])c([H])c([H])c([H])c21
     RDKit          3D

 25 27  0  0  0  0  0  0  0  0999 V2000
   -2.0641    3.6343   -0.3153 N   0  0  0  0  0  0  0  0  0  0  0  0
   -2.1911    2.4665   -0.2469 C   0  0  0  0  0  0  0  0  0  0  0  0
   -2.3526    1.0471   -0.1407 C   0  0  0  0  0  0  0  0  0  0  0  0
   -3.6227    0.5581    0.0708 C   0  0  0  0  0  0  0  0  0  0  0  0
   -3.7380   -0.8223    0.1682 C   0  0  0  0  0  0  0  0  0  0  0  0
   -2.6596   -1.6626    0.0620 C   0  0  0  0  0  0  0  0  0  0  0  0
   -1.3910   -1.1694   -0.1495 C   0  0  0  0  0  0  0  0  0  0  0  0
   -0.3910   -2.1869   -0.2340 N   0  0  0  0  0  0  0  0  0  0  0  0
    0.8869   -2.0056   -0.2066 C   0  0  0  0  0  0  0  0  0  0  0  0
    1.6516   -0.7661   -0.0867 C   0  0  0  0  0  0  0  0  0  0  0  0
    2.9881   -0.9580    0.1761 C   0  0  0  0  0  0  0  0  0  0  0  0
    3.8656    0.0920    0.3221 C   0  0  0  0  0  0  0  0  0  0  0  0
    3.4300    1.3935    0.2084 C   0  0  0  0  0  0  0  0  0  0  0  0
    2.0969    1.5980   -0.0541 C   0  0  0  0  0  0  0  0  0  0  0  0
    1.2167    0.5496   -0.2005 C   0  0  0  0  0  0  0  0  0  0  0  0
   -0.0840    0.9360   -0.4608 O   0  0  0  0  0  0  0  0  0  0  0  0
   -1.2638    0.2087   -0.2484 C   0  0  0  0  0  0  0  0  0  0  0  0
   -4.5038    1.1784    0.1614 H   0  0  0  0  0  0  0  0  0  0  0  0
   -4.7450   -1.2334    0.3372 H   0  0  0  0  0  0  0  0  0  0  0  0
   -2.7811   -2.7398    0.1425 H   0  0  0  0  0  0  0  0  0  0  0  0
    1.5280   -2.8741   -0.2805 H   0  0  0  0  0  0  0  0  0  0  0  0
    3.3214   -1.9925    0.2640 H   0  0  0  0  0  0  0  0  0  0  0  0
    4.9139   -0.0885    0.5289 H   0  0  0  0  0  0  0  0  0  0  0  0
    4.1401    2.2216    0.3270 H   0  0  0  0  0  0  0  0  0  0  0  0
    1.7489    2.6151   -0.1444 H   0  0  0  0  0  0  0  0  0  0  0  0
  1  2  3  0
  2  3  1  0
  3  4  2  0
  4  5  1  0
  5  6  2  0
  6  7  1  0
  7  8  1  0
  8  9  2  0
  9 10  1  0
 10 11  2  0
 11 12  1  0
 12 13  2  0
 13 14  1  0
 14 15  2  0
 15 16  1  0
 16 17  1  0
 17  3  1  0
 17  7  2  0
 15 10  1  0
  4 18  1  0
  5 19  1  0
  6 20  1  0
  9 21  1  0
 11 22  1  0
 12 23  1  0
 13 24  1  0
 14 25  1  0
M  END
$$$$
[H]/C(=C(\c1c([H])c([H])c(Cl)c([H])c1[H])C([H])([H])[H])c1noc(C([H])([H])n2c([H])nc3nc([H])n(C([H])([H])[H])c3c2=O)n1
     RDKit          3D

 42 45  0  0  0  0  0  0  0  0999 V2000
   -1.6889   -0.3242    1.1317 C   0  0  0  0  0  0  0  0  0  0  0  0
   -2.8207   -0.5417    0.1779 C   0  0  0  0  0  0  0  0  0  0  0  0
   -2.5638   -0.7087   -1.0866 C   0  0  0  0  0  0  0  0  0  0  0  0
   -1.1823   -0.6926   -1.5936 C   0  0  0  0  0  0  0  0  0  0  0  0
   -0.7266   -0.0688   -2.6840 N   0  0  0  0  0  0  0  0  0  0  0  0
    0.5423   -0.3192   -2.8103 O   0  0  0  0  0  0  0  0  0  0  0  0
    0.9273   -1.0930   -1.8270 C   0  0  0  0  0  0  0  0  0  0  0  0
    2.2772   -1.6522   -1.5321 C   0  0  0  0  0  0  0  0  0  0  0  0
    2.9443   -0.7957   -0.5581 N   0  0  0  0  0  0  0  0  0  0  0  0
    2.7504   -1.0626    0.7425 C   0  0  0  0  0  0  0  0  0  0  0  0
    3.3488   -0.2898    1.6666 N   0  0  0  0  0  0  0  0  0  0  0  0
    4.1297    0.7344    1.2789 C   0  0  0  0  0  0  0  0  0  0  0  0
    4.8505    1.6693    1.9612 N   0  0  0  0  0  0  0  0  0  0  0  0
    5.4530    2.4648    1.0556 C   0  0  0  0  0  0  0  0  0  0  0  0
    5.1388    2.0671   -0.1949 N   0  0  0  0  0  0  0  0  0  0  0  0
    5.6436    2.7369   -1.3686 C   0  0  0  0  0  0  0  0  0  0  0  0
    4.3353    1.0165   -0.0499 C   0  0  0  0  0  0  0  0  0  0  0  0
    3.7112    0.2106   -0.9745 C   0  0  0  0  0  0  0  0  0  0  0  0
    3.9075    0.4792   -2.1961 O   0  0  0  0  0  0  0  0  0  0  0  0
   -0.1389   -1.3360   -1.0572 N   0  0  0  0  0  0  0  0  0  0  0  0
   -4.2016   -0.5798    0.6602 C   0  0  0  0  0  0  0  0  0  0  0  0
   -5.2820   -0.7488   -0.1708 C   0  0  0  0  0  0  0  0  0  0  0  0
   -6.5903   -0.7932    0.3463 C   0  0  0  0  0  0  0  0  0  0  0  0
   -6.8437   -0.6706    1.6909 C   0  0  0  0  0  0  0  0  0  0  0  0
   -8.4916   -0.7289    2.3005 Cl  0  0  0  0  0  0  0  0  0  0  0  0
   -5.7696   -0.5014    2.5301 C   0  0  0  0  0  0  0  0  0  0  0  0
   -4.4889   -0.4597    2.0115 C   0  0  0  0  0  0  0  0  0  0  0  0
   -0.8611    0.2872    0.6723 H   0  0  0  0  0  0  0  0  0  0  0  0
   -1.3594   -1.2235    1.6446 H   0  0  0  0  0  0  0  0  0  0  0  0
   -2.0787    0.3851    1.9219 H   0  0  0  0  0  0  0  0  0  0  0  0
   -3.3403   -0.8665   -1.8211 H   0  0  0  0  0  0  0  0  0  0  0  0
    2.8279   -1.6878   -2.4952 H   0  0  0  0  0  0  0  0  0  0  0  0
    2.1207   -2.6936   -1.1295 H   0  0  0  0  0  0  0  0  0  0  0  0
    2.1088   -1.9022    1.0578 H   0  0  0  0  0  0  0  0  0  0  0  0
    6.0887    3.2916    1.3586 H   0  0  0  0  0  0  0  0  0  0  0  0
    5.0145    2.6907   -2.2487 H   0  0  0  0  0  0  0  0  0  0  0  0
    6.6919    2.3803   -1.5220 H   0  0  0  0  0  0  0  0  0  0  0  0
    5.7662    3.8396   -1.1372 H   0  0  0  0  0  0  0  0  0  0  0  0
   -5.1417   -0.8499   -1.2408 H   0  0  0  0  0  0  0  0  0  0  0  0
   -7.4227   -0.9292   -0.3470 H   0  0  0  0  0  0  0  0  0  0  0  0
   -5.9168   -0.3990    3.6055 H   0  0  0  0  0  0  0  0  0  0  0  0
   -3.6690   -0.3350    2.6991 H   0  0  0  0  0  0  0  0  0  0  0  0
  1  2  1  0
  2  3  2  0
  3  4  1  0
  4  5  2  0
  5  6  1  0
  6  7  1  0
  7  8  1  0
  8  9  1  0
  9 10  1  0
 10 11  2  0
 11 12  1  0
 12 13  1  0
 13 14  2  0
 14 15  1  0
 15 16  1  0
 15 17  1  0
 17 18  1  0
 18 19  2  0
  7 20  2  0
  2 21  1  0
 21 22  2  0
 22 23  1  0
 23 24  2  0
 24 25  1  0
 24 26  1  0
 26 27  2  0
 20  4  1  0
 27 21  1  0
 18  9  1  0
 17 12  2  0
  1 28  1  0
  1 29  1  0
  1 30  1  0
  3 31  1  0
  8 32  1  0
  8 33  1  0
 10 34  1  0
 14 35  1  0
 16 36  1  0
 16 37  1  0
 16 38  1  0
 22 39  1  0
 23 40  1  0
 26 41  1  0
 27 42  1  0
M  END
$$$$
[H]c1nc(-c2c([H])nc(N3C([H])([H])C4([H])C([H])([H])C4([H])C3([H])[H])nc2[H])nc(N([H])C(=O)[C@@]([H])(n2c([H])nc3c2c(=O)n(C([H])([H])C#N)c(=O)n3C([H])([H])[H])C([H])([H])[H])c1[H]
     RDKit          3D

 61 66  0  0  0  0  0  0  0  0999 V2000
   -3.0375    0.4683    2.9137 C   0  0  0  0  0  0  0  0  0  0  0  0
   -3.2965    0.1840    1.4111 C   0  0  1  0  0  0  0  0  0  0  0  0
   -2.2952   -0.7702    0.9726 C   0  0  0  0  0  0  0  0  0  0  0  0
   -2.7678   -1.9746    0.7674 O   0  0  0  0  0  0  0  0  0  0  0  0
   -0.9581   -0.6155    0.7488 N   0  0  0  0  0  0  0  0  0  0  0  0
   -0.0554    0.4624    0.7720 C   0  0  0  0  0  0  0  0  0  0  0  0
   -0.3550    1.7613    0.9547 C   0  0  0  0  0  0  0  0  0  0  0  0
    0.6672    2.7174    0.9887 C   0  0  0  0  0  0  0  0  0  0  0  0
    1.9418    2.3538    0.8400 N   0  0  0  0  0  0  0  0  0  0  0  0
    2.2630    1.0631    0.6554 C   0  0  0  0  0  0  0  0  0  0  0  0
    1.2820    0.1714    0.6262 N   0  0  0  0  0  0  0  0  0  0  0  0
    3.6760    0.6660    0.4912 C   0  0  0  0  0  0  0  0  0  0  0  0
    4.6885    1.5859    0.5146 C   0  0  0  0  0  0  0  0  0  0  0  0
    5.9572    1.1642    0.3614 N   0  0  0  0  0  0  0  0  0  0  0  0
    6.2772   -0.1233    0.1858 C   0  0  0  0  0  0  0  0  0  0  0  0
    5.2730   -1.0084    0.1659 N   0  0  0  0  0  0  0  0  0  0  0  0
    3.9852   -0.6615    0.3118 C   0  0  0  0  0  0  0  0  0  0  0  0
    7.6412   -0.5259    0.0259 N   0  0  0  0  0  0  0  0  0  0  0  0
    8.7660    0.3716   -0.0017 C   0  0  0  0  0  0  0  0  0  0  0  0
    9.8074   -0.3348   -0.8202 C   0  0  0  0  0  0  0  0  0  0  0  0
    9.4439   -0.9896   -2.1147 C   0  0  0  0  0  0  0  0  0  0  0  0
    9.4420   -1.7694   -0.8462 C   0  0  0  0  0  0  0  0  0  0  0  0
    8.1324   -1.8829   -0.1312 C   0  0  0  0  0  0  0  0  0  0  0  0
   -4.6540   -0.3937    1.3019 N   0  0  0  0  0  0  0  0  0  0  0  0
   -5.2443   -1.1852    2.2114 C   0  0  0  0  0  0  0  0  0  0  0  0
   -6.4588   -1.5044    1.7739 N   0  0  0  0  0  0  0  0  0  0  0  0
   -6.6889   -0.9317    0.5730 C   0  0  0  0  0  0  0  0  0  0  0  0
   -7.7256   -0.9433   -0.2706 N   0  0  0  0  0  0  0  0  0  0  0  0
   -8.9450   -1.6734    0.0155 C   0  0  0  0  0  0  0  0  0  0  0  0
   -7.6428   -0.2554   -1.4287 C   0  0  0  0  0  0  0  0  0  0  0  0
   -8.6040   -0.2528   -2.2339 O   0  0  0  0  0  0  0  0  0  0  0  0
   -6.5445    0.4403   -1.7544 N   0  0  0  0  0  0  0  0  0  0  0  0
   -6.4465    1.1717   -2.9798 C   0  0  0  0  0  0  0  0  0  0  0  0
   -6.9368    2.5328   -2.7617 C   0  0  0  0  0  0  0  0  0  0  0  0
   -7.3120    3.6138   -2.6029 N   0  0  0  0  0  0  0  0  0  0  0  0
   -5.4874    0.4602   -0.9080 C   0  0  0  0  0  0  0  0  0  0  0  0
   -4.4445    1.1130   -1.2058 O   0  0  0  0  0  0  0  0  0  0  0  0
   -5.5163   -0.2191    0.2810 C   0  0  0  0  0  0  0  0  0  0  0  0
   -2.7192    1.5423    2.9823 H   0  0  0  0  0  0  0  0  0  0  0  0
   -3.9669    0.3168    3.4957 H   0  0  0  0  0  0  0  0  0  0  0  0
   -2.2738   -0.2097    3.3292 H   0  0  0  0  0  0  0  0  0  0  0  0
   -3.3439    1.1129    0.8544 H   0  0  0  0  0  0  0  0  0  0  0  0
   -0.4639   -1.5628    0.4283 H   0  0  0  0  0  0  0  0  0  0  0  0
   -1.3615    2.1096    1.0623 H   0  0  0  0  0  0  0  0  0  0  0  0
    0.4104    3.7759    1.1400 H   0  0  0  0  0  0  0  0  0  0  0  0
    4.4391    2.6338    0.6567 H   0  0  0  0  0  0  0  0  0  0  0  0
    3.2538   -1.4433    0.2808 H   0  0  0  0  0  0  0  0  0  0  0  0
    8.4532    1.3464   -0.4459 H   0  0  0  0  0  0  0  0  0  0  0  0
    9.1566    0.5075    1.0189 H   0  0  0  0  0  0  0  0  0  0  0  0
   10.8579   -0.0206   -0.6466 H   0  0  0  0  0  0  0  0  0  0  0  0
    8.4636   -0.7226   -2.5739 H   0  0  0  0  0  0  0  0  0  0  0  0
   10.2696   -1.0723   -2.8486 H   0  0  0  0  0  0  0  0  0  0  0  0
   10.2349   -2.5277   -0.6373 H   0  0  0  0  0  0  0  0  0  0  0  0
    8.2547   -2.3867    0.8710 H   0  0  0  0  0  0  0  0  0  0  0  0
    7.3863   -2.4522   -0.7531 H   0  0  0  0  0  0  0  0  0  0  0  0
   -4.7427   -1.4863    3.1425 H   0  0  0  0  0  0  0  0  0  0  0  0
   -8.8088   -2.2034    0.9860 H   0  0  0  0  0  0  0  0  0  0  0  0
   -9.1849   -2.4367   -0.7454 H   0  0  0  0  0  0  0  0  0  0  0  0
   -9.7808   -0.9549    0.1646 H   0  0  0  0  0  0  0  0  0  0  0  0
   -6.9938    0.6767   -3.8309 H   0  0  0  0  0  0  0  0  0  0  0  0
   -5.3672    1.1708   -3.3027 H   0  0  0  0  0  0  0  0  0  0  0  0
  1  2  1  0
  2  3  1  0
  3  4  2  0
  3  5  1  0
  5  6  1  0
  6  7  2  0
  7  8  1  0
  8  9  2  0
  9 10  1  0
 10 11  2  0
 10 12  1  0
 12 13  2  0
 13 14  1  0
 14 15  2  0
 15 16  1  0
 16 17  2  0
 15 18  1  0
 18 19  1  0
 19 20  1  0
 20 21  1  0
 21 22  1  0
 22 23  1  0
  2 24  1  0
 24 25  1  0
 25 26  2  0
 26 27  1  0
 27 28  1  0
 28 29  1  0
 28 30  1  0
 30 31  2  0
 30 32  1  0
 32 33  1  0
 33 34  1  0
 34 35  3  0
 32 36  1  0
 36 37  2  0
 36 38  1  0
 11  6  1  0
 17 12  1  0
 23 18  1  0
 38 24  1  0
 22 20  1  0
 38 27  2  0
  1 39  1  0
  1 40  1  0
  1 41  1  0
  2 42  1  6
  5 43  1  0
  7 44  1  0
  8 45  1  0
 13 46  1  0
 17 47  1  0
 19 48  1  0
 19 49  1  0
 20 50  1  0
 21 51  1  0
 21 52  1  0
 22 53  1  0
 23 54  1  0
 23 55  1  0
 25 56  1  0
 29 57  1  0
 29 58  1  0
 29 59  1  0
 33 60  1  0
 33 61  1  0
M  END
$$$$
[H]c1nc(N2C([H])([H])C([H])([H])C([H])([H])[C@@]2([H])C(F)(F)F)nc([H])c1-c1nc(N([H])C(=O)C([H])([H])n2c([H])nc3c2c(=O)n(C([H])([H])C(=O)C([H])([H])[H])c(=O)n3C([H])([H])[H])c([H])c([H])c1[H]
     RDKit          3D

 65 69  0  0  0  0  0  0  0  0999 V2000
   -1.8172    1.5661   -1.5679 C   0  0  0  0  0  0  0  0  0  0  0  0
   -2.6385    1.4774   -2.7990 C   0  0  0  0  0  0  0  0  0  0  0  0
   -2.0804    1.7251   -3.8545 O   0  0  0  0  0  0  0  0  0  0  0  0
   -4.0667    1.1144   -2.8342 C   0  0  0  0  0  0  0  0  0  0  0  0
   -4.5159    0.8611   -1.4646 N   0  0  0  0  0  0  0  0  0  0  0  0
   -5.0157    1.8378   -0.6952 C   0  0  0  0  0  0  0  0  0  0  0  0
   -5.1005    3.0111   -1.1685 O   0  0  0  0  0  0  0  0  0  0  0  0
   -5.4347    1.6230    0.5689 N   0  0  0  0  0  0  0  0  0  0  0  0
   -5.9677    2.7106    1.3654 C   0  0  0  0  0  0  0  0  0  0  0  0
   -5.3740    0.4056    1.1344 C   0  0  0  0  0  0  0  0  0  0  0  0
   -5.7289   -0.0754    2.3370 N   0  0  0  0  0  0  0  0  0  0  0  0
   -5.4398   -1.3856    2.3139 C   0  0  0  0  0  0  0  0  0  0  0  0
   -4.9039   -1.7300    1.1022 N   0  0  0  0  0  0  0  0  0  0  0  0
   -4.4461   -3.0656    0.8088 C   0  0  0  0  0  0  0  0  0  0  0  0
   -3.0959   -3.3714    1.3746 C   0  0  0  0  0  0  0  0  0  0  0  0
   -3.0848   -4.3121    2.2014 O   0  0  0  0  0  0  0  0  0  0  0  0
   -1.9351   -2.6895    1.0348 N   0  0  0  0  0  0  0  0  0  0  0  0
   -0.6188   -2.9057    1.5106 C   0  0  0  0  0  0  0  0  0  0  0  0
   -0.3182   -3.8871    2.4031 C   0  0  0  0  0  0  0  0  0  0  0  0
    1.0105   -4.0431    2.8442 C   0  0  0  0  0  0  0  0  0  0  0  0
    1.9443   -3.1801    2.3390 C   0  0  0  0  0  0  0  0  0  0  0  0
    1.6460   -2.1874    1.4375 C   0  0  0  0  0  0  0  0  0  0  0  0
    0.3792   -2.0687    1.0420 N   0  0  0  0  0  0  0  0  0  0  0  0
    2.6856   -1.2746    0.9209 C   0  0  0  0  0  0  0  0  0  0  0  0
    4.0048   -1.3264    1.2757 C   0  0  0  0  0  0  0  0  0  0  0  0
    4.9043   -0.4652    0.7728 N   0  0  0  0  0  0  0  0  0  0  0  0
    4.5764    0.5237   -0.1264 C   0  0  0  0  0  0  0  0  0  0  0  0
    3.2766    0.5530   -0.4583 N   0  0  0  0  0  0  0  0  0  0  0  0
    2.3401   -0.2832    0.0152 C   0  0  0  0  0  0  0  0  0  0  0  0
    5.5601    1.3926   -0.6171 N   0  0  0  0  0  0  0  0  0  0  0  0
    6.9821    1.3026   -0.2352 C   0  0  0  0  0  0  0  0  0  0  0  0
    7.6247    1.3669   -1.6114 C   0  0  0  0  0  0  0  0  0  0  0  0
    6.6048    2.0540   -2.5230 C   0  0  0  0  0  0  0  0  0  0  0  0
    5.5432    2.4827   -1.5084 C   0  0  1  0  0  0  0  0  0  0  0  0
    4.2753    2.8816   -2.1604 C   0  0  0  0  0  0  0  0  0  0  0  0
    4.6143    3.9903   -2.9826 F   0  0  0  0  0  0  0  0  0  0  0  0
    3.7647    1.9626   -3.0519 F   0  0  0  0  0  0  0  0  0  0  0  0
    3.3439    3.3973   -1.2918 F   0  0  0  0  0  0  0  0  0  0  0  0
   -4.8546   -0.6253    0.3472 C   0  0  0  0  0  0  0  0  0  0  0  0
   -4.4314   -0.3952   -0.9400 C   0  0  0  0  0  0  0  0  0  0  0  0
   -3.9676   -1.3174   -1.6523 O   0  0  0  0  0  0  0  0  0  0  0  0
   -1.5143    2.6398   -1.4283 H   0  0  0  0  0  0  0  0  0  0  0  0
   -2.3814    1.3014   -0.6508 H   0  0  0  0  0  0  0  0  0  0  0  0
   -0.8681    1.0025   -1.6364 H   0  0  0  0  0  0  0  0  0  0  0  0
   -4.1808    0.1549   -3.3670 H   0  0  0  0  0  0  0  0  0  0  0  0
   -4.6954    1.8977   -3.3171 H   0  0  0  0  0  0  0  0  0  0  0  0
   -5.9535    2.4487    2.4433 H   0  0  0  0  0  0  0  0  0  0  0  0
   -6.9849    2.9740    1.0099 H   0  0  0  0  0  0  0  0  0  0  0  0
   -5.2589    3.5681    1.2568 H   0  0  0  0  0  0  0  0  0  0  0  0
   -5.6072   -2.0633    3.1328 H   0  0  0  0  0  0  0  0  0  0  0  0
   -4.4828   -3.2865   -0.2798 H   0  0  0  0  0  0  0  0  0  0  0  0
   -5.1771   -3.7553    1.2663 H   0  0  0  0  0  0  0  0  0  0  0  0
   -2.0303   -1.8848    0.3100 H   0  0  0  0  0  0  0  0  0  0  0  0
   -1.0397   -4.5768    2.8094 H   0  0  0  0  0  0  0  0  0  0  0  0
    1.2289   -4.8277    3.5527 H   0  0  0  0  0  0  0  0  0  0  0  0
    2.9610   -3.3258    2.6985 H   0  0  0  0  0  0  0  0  0  0  0  0
    4.3248   -2.0856    1.9812 H   0  0  0  0  0  0  0  0  0  0  0  0
    1.2955   -0.2340   -0.2722 H   0  0  0  0  0  0  0  0  0  0  0  0
    7.2598    2.1645    0.4019 H   0  0  0  0  0  0  0  0  0  0  0  0
    7.2171    0.3347    0.2290 H   0  0  0  0  0  0  0  0  0  0  0  0
    8.5866    1.9049   -1.5939 H   0  0  0  0  0  0  0  0  0  0  0  0
    7.7161    0.3191   -1.9764 H   0  0  0  0  0  0  0  0  0  0  0  0
    6.2100    1.3824   -3.2908 H   0  0  0  0  0  0  0  0  0  0  0  0
    7.0985    2.9033   -2.9988 H   0  0  0  0  0  0  0  0  0  0  0  0
    6.0314    3.3929   -1.0115 H   0  0  0  0  0  0  0  0  0  0  0  0
  1  2  1  0
  2  3  2  0
  2  4  1  0
  4  5  1  0
  5  6  1  0
  6  7  2  0
  6  8  1  0
  8  9  1  0
  8 10  1  0
 10 11  1  0
 11 12  2  0
 12 13  1  0
 13 14  1  0
 14 15  1  0
 15 16  2  0
 15 17  1  0
 17 18  1  0
 18 19  2  0
 19 20  1  0
 20 21  2  0
 21 22  1  0
 22 23  2  0
 22 24  1  0
 24 25  2  0
 25 26  1  0
 26 27  2  0
 27 28  1  0
 28 29  2  0
 27 30  1  0
 30 31  1  0
 31 32  1  0
 32 33  1  0
 33 34  1  0
 34 35  1  0
 35 36  1  0
 35 37  1  0
 35 38  1  0
 13 39  1  0
 39 40  1  0
 40 41  2  0
 40  5  1  0
 39 10  2  0
 23 18  1  0
 29 24  1  0
 34 30  1  0
  1 42  1  0
  1 43  1  0
  1 44  1  0
  4 45  1  0
  4 46  1  0
  9 47  1  0
  9 48  1  0
  9 49  1  0
 12 50  1  0
 14 51  1  0
 14 52  1  0
 17 53  1  0
 19 54  1  0
 20 55  1  0
 21 56  1  0
 25 57  1  0
 29 58  1  0
 31 59  1  0
 31 60  1  0
 32 61  1  0
 32 62  1  0
 33 63  1  0
 33 64  1  0
 34 65  1  1
M  END
$$$$
[H]c1nc([H])c(N([H])C(=O)[C@@]([H])(n2c([H])nc3c2c(=O)n(C([H])([H])C(=O)C([H])([H])[H])c(=O)n3C([H])([H])[H])C([H])([H])[H])nc1-c1c([H])nc(N2C([H])([H])C3([H])C([H])([H])C3([H])C2([H])[H])c([H])c1[H]
     RDKit          3D

 66 71  0  0  0  0  0  0  0  0999 V2000
   -3.2676    0.6664   -1.7357 C   0  0  0  0  0  0  0  0  0  0  0  0
   -3.0287   -0.7103   -1.1986 C   0  0  1  0  0  0  0  0  0  0  0  0
   -1.6657   -1.2275   -1.3281 C   0  0  0  0  0  0  0  0  0  0  0  0
   -1.6485   -2.4499   -1.9371 O   0  0  0  0  0  0  0  0  0  0  0  0
   -0.3969   -0.8384   -1.0150 N   0  0  0  0  0  0  0  0  0  0  0  0
    0.2828    0.2196   -0.3905 C   0  0  0  0  0  0  0  0  0  0  0  0
   -0.2646    1.3094    0.2374 C   0  0  0  0  0  0  0  0  0  0  0  0
    0.5299    2.2551    0.7602 N   0  0  0  0  0  0  0  0  0  0  0  0
    1.8779    2.1682    0.6886 C   0  0  0  0  0  0  0  0  0  0  0  0
    2.4792    1.0989    0.0725 C   0  0  0  0  0  0  0  0  0  0  0  0
    1.6718    0.1782   -0.4365 N   0  0  0  0  0  0  0  0  0  0  0  0
    3.9433    0.9399   -0.0406 C   0  0  0  0  0  0  0  0  0  0  0  0
    4.8359    1.8520    0.4595 C   0  0  0  0  0  0  0  0  0  0  0  0
    6.2140    1.6303    0.3139 C   0  0  0  0  0  0  0  0  0  0  0  0
    6.7130    0.5158   -0.3210 C   0  0  0  0  0  0  0  0  0  0  0  0
    5.8070   -0.3573   -0.7990 N   0  0  0  0  0  0  0  0  0  0  0  0
    4.4813   -0.1650   -0.6708 C   0  0  0  0  0  0  0  0  0  0  0  0
    8.1138    0.2830   -0.4729 N   0  0  0  0  0  0  0  0  0  0  0  0
    9.1805    1.1475   -0.0103 C   0  0  0  0  0  0  0  0  0  0  0  0
   10.1504    0.1506    0.6014 C   0  0  0  0  0  0  0  0  0  0  0  0
   11.1955   -0.3600   -0.3013 C   0  0  0  0  0  0  0  0  0  0  0  0
    9.9414   -1.1341   -0.1966 C   0  0  0  0  0  0  0  0  0  0  0  0
    8.7724   -0.8401   -1.1065 C   0  0  0  0  0  0  0  0  0  0  0  0
   -3.6361   -0.8754    0.0972 N   0  0  0  0  0  0  0  0  0  0  0  0
   -3.0465   -1.0042    1.2832 C   0  0  0  0  0  0  0  0  0  0  0  0
   -3.9083   -1.1532    2.2929 N   0  0  0  0  0  0  0  0  0  0  0  0
   -5.1352   -1.1184    1.7113 C   0  0  0  0  0  0  0  0  0  0  0  0
   -6.3731   -1.2270    2.2283 N   0  0  0  0  0  0  0  0  0  0  0  0
   -6.5434   -1.4050    3.6536 C   0  0  0  0  0  0  0  0  0  0  0  0
   -7.4281   -1.1674    1.4041 C   0  0  0  0  0  0  0  0  0  0  0  0
   -8.6143   -1.2673    1.8679 O   0  0  0  0  0  0  0  0  0  0  0  0
   -7.2833   -1.0028    0.0782 N   0  0  0  0  0  0  0  0  0  0  0  0
   -8.4494   -0.9448   -0.7794 C   0  0  0  0  0  0  0  0  0  0  0  0
   -8.9487    0.4396   -0.9427 C   0  0  0  0  0  0  0  0  0  0  0  0
   -8.3342    1.6244   -0.3060 C   0  0  0  0  0  0  0  0  0  0  0  0
   -9.9283    0.6000   -1.6486 O   0  0  0  0  0  0  0  0  0  0  0  0
   -6.0465   -0.8873   -0.4941 C   0  0  0  0  0  0  0  0  0  0  0  0
   -5.9580   -0.7372   -1.7394 O   0  0  0  0  0  0  0  0  0  0  0  0
   -4.9615   -0.9463    0.3458 C   0  0  0  0  0  0  0  0  0  0  0  0
   -3.7171    0.5727   -2.7707 H   0  0  0  0  0  0  0  0  0  0  0  0
   -2.3289    1.2398   -1.9509 H   0  0  0  0  0  0  0  0  0  0  0  0
   -3.9870    1.2737   -1.1543 H   0  0  0  0  0  0  0  0  0  0  0  0
   -3.6472   -1.3701   -1.9371 H   0  0  0  0  0  0  0  0  0  0  0  0
    0.3660   -1.6106   -1.3337 H   0  0  0  0  0  0  0  0  0  0  0  0
   -1.3424    1.3833    0.3172 H   0  0  0  0  0  0  0  0  0  0  0  0
    2.4926    2.9419    1.1166 H   0  0  0  0  0  0  0  0  0  0  0  0
    4.4593    2.7240    0.9560 H   0  0  0  0  0  0  0  0  0  0  0  0
    6.8979    2.3607    0.7147 H   0  0  0  0  0  0  0  0  0  0  0  0
    3.7663   -0.8907   -1.0688 H   0  0  0  0  0  0  0  0  0  0  0  0
    9.6304    1.6408   -0.8966 H   0  0  0  0  0  0  0  0  0  0  0  0
    8.8648    1.8421    0.7702 H   0  0  0  0  0  0  0  0  0  0  0  0
   10.1561    0.0076    1.6888 H   0  0  0  0  0  0  0  0  0  0  0  0
   12.0827   -0.8169    0.1887 H   0  0  0  0  0  0  0  0  0  0  0  0
   11.4439    0.2539   -1.1782 H   0  0  0  0  0  0  0  0  0  0  0  0
    9.9478   -2.0919    0.3341 H   0  0  0  0  0  0  0  0  0  0  0  0
    9.1367   -0.4896   -2.0960 H   0  0  0  0  0  0  0  0  0  0  0  0
    8.0958   -1.7174   -1.1944 H   0  0  0  0  0  0  0  0  0  0  0  0
   -1.9535   -0.9978    1.4261 H   0  0  0  0  0  0  0  0  0  0  0  0
   -5.7103   -2.0188    4.0497 H   0  0  0  0  0  0  0  0  0  0  0  0
   -7.4757   -1.9670    3.8297 H   0  0  0  0  0  0  0  0  0  0  0  0
   -6.5103   -0.4395    4.2017 H   0  0  0  0  0  0  0  0  0  0  0  0
   -8.1393   -1.2928   -1.8019 H   0  0  0  0  0  0  0  0  0  0  0  0
   -9.2290   -1.6478   -0.4231 H   0  0  0  0  0  0  0  0  0  0  0  0
   -7.7555    2.1657   -1.0863 H   0  0  0  0  0  0  0  0  0  0  0  0
   -7.6969    1.3672    0.5500 H   0  0  0  0  0  0  0  0  0  0  0  0
   -9.1701    2.3174   -0.0302 H   0  0  0  0  0  0  0  0  0  0  0  0
  1  2  1  0
  2  3  1  0
  3  4  2  0
  3  5  1  0
  5  6  1  0
  6  7  2  0
  7  8  1  0
  8  9  2  0
  9 10  1  0
 10 11  2  0
 10 12  1  0
 12 13  2  0
 13 14  1  0
 14 15  2  0
 15 16  1  0
 16 17  2  0
 15 18  1  0
 18 19  1  0
 19 20  1  0
 20 21  1  0
 21 22  1  0
 22 23  1  0
  2 24  1  0
 24 25  1  0
 25 26  2  0
 26 27  1  0
 27 28  1  0
 28 29  1  0
 28 30  1  0
 30 31  2  0
 30 32  1  0
 32 33  1  0
 33 34  1  0
 34 35  1  0
 34 36  2  0
 32 37  1  0
 37 38  2  0
 37 39  1  0
 11  6  1  0
 17 12  1  0
 23 18  1  0
 39 24  1  0
 22 20  1  0
 39 27  2  0
  1 40  1  0
  1 41  1  0
  1 42  1  0
  2 43  1  6
  5 44  1  0
  7 45  1  0
  9 46  1  0
 13 47  1  0
 14 48  1  0
 17 49  1  0
 19 50  1  0
 19 51  1  0
 20 52  1  0
 21 53  1  0
 21 54  1  0
 22 55  1  0
 23 56  1  0
 23 57  1  0
 25 58  1  0
 29 59  1  0
 29 60  1  0
 29 61  1  0
 33 62  1  0
 33 63  1  0
 35 64  1  0
 35 65  1  0
 35 66  1  0
M  END
$$$$
[H]c1sc(N([H])C(=O)C([H])([H])n2c([H])c([H])c3c2c(=O)n(C([H])([H])[H])c(=O)n3C([H])([H])[H])nc1-c1c([H])c([H])c(C(F)(F)F)c(F)c1[H]
     RDKit          3D

 48 51  0  0  0  0  0  0  0  0999 V2000
   -7.4901    1.2236    0.1998 C   0  0  0  0  0  0  0  0  0  0  0  0
   -6.2393    0.4580    0.2466 N   0  0  0  0  0  0  0  0  0  0  0  0
   -5.1093    1.1831    0.1951 C   0  0  0  0  0  0  0  0  0  0  0  0
   -4.7960    2.5138    0.1046 C   0  0  0  0  0  0  0  0  0  0  0  0
   -3.4399    2.6047    0.0936 C   0  0  0  0  0  0  0  0  0  0  0  0
   -2.9062    1.3658    0.1748 N   0  0  0  0  0  0  0  0  0  0  0  0
   -1.4741    1.0288    0.1972 C   0  0  0  0  0  0  0  0  0  0  0  0
   -0.9734    0.7966   -1.1733 C   0  0  0  0  0  0  0  0  0  0  0  0
   -1.8178    0.8607   -2.1323 O   0  0  0  0  0  0  0  0  0  0  0  0
    0.3487    0.5091   -1.5409 N   0  0  0  0  0  0  0  0  0  0  0  0
    1.4007    0.4249   -0.5644 C   0  0  0  0  0  0  0  0  0  0  0  0
    2.6753    0.1542   -0.7761 N   0  0  0  0  0  0  0  0  0  0  0  0
    3.5007    0.1227    0.2230 C   0  0  0  0  0  0  0  0  0  0  0  0
    2.9870    0.3794    1.4754 C   0  0  0  0  0  0  0  0  0  0  0  0
    1.3411    0.6489    1.1152 S   0  0  0  0  0  0  0  0  0  0  0  0
    4.9472   -0.1816   -0.0004 C   0  0  0  0  0  0  0  0  0  0  0  0
    5.4588   -0.4358   -1.2499 C   0  0  0  0  0  0  0  0  0  0  0  0
    6.7956   -0.7158   -1.4469 C   0  0  0  0  0  0  0  0  0  0  0  0
    7.6801   -0.7522   -0.3880 C   0  0  0  0  0  0  0  0  0  0  0  0
    7.1777   -0.4989    0.8680 C   0  0  0  0  0  0  0  0  0  0  0  0
    7.9977   -0.5228    1.9276 F   0  0  0  0  0  0  0  0  0  0  0  0
    5.8178   -0.2155    1.0567 C   0  0  0  0  0  0  0  0  0  0  0  0
    9.1043   -1.0565   -0.6454 C   0  0  0  0  0  0  0  0  0  0  0  0
    9.5532   -2.1699    0.0004 F   0  0  0  0  0  0  0  0  0  0  0  0
    9.9254    0.0020   -0.2298 F   0  0  0  0  0  0  0  0  0  0  0  0
    9.3385   -1.2018   -1.9946 F   0  0  0  0  0  0  0  0  0  0  0  0
   -3.9028    0.4804    0.2377 C   0  0  0  0  0  0  0  0  0  0  0  0
   -3.9397   -0.9010    0.3290 C   0  0  0  0  0  0  0  0  0  0  0  0
   -2.8554   -1.5206    0.3659 O   0  0  0  0  0  0  0  0  0  0  0  0
   -5.1068   -1.5983    0.3789 N   0  0  0  0  0  0  0  0  0  0  0  0
   -5.0295   -3.0237    0.4731 C   0  0  0  0  0  0  0  0  0  0  0  0
   -6.2363   -0.8866    0.3356 C   0  0  0  0  0  0  0  0  0  0  0  0
   -7.3336   -1.4992    0.3797 O   0  0  0  0  0  0  0  0  0  0  0  0
   -7.3414    2.0448   -0.5330 H   0  0  0  0  0  0  0  0  0  0  0  0
   -7.6227    1.6289    1.2363 H   0  0  0  0  0  0  0  0  0  0  0  0
   -8.3157    0.5422   -0.0865 H   0  0  0  0  0  0  0  0  0  0  0  0
   -5.5032    3.3242    0.0527 H   0  0  0  0  0  0  0  0  0  0  0  0
   -2.8669    3.5166    0.0303 H   0  0  0  0  0  0  0  0  0  0  0  0
   -1.2700    0.2243    0.9096 H   0  0  0  0  0  0  0  0  0  0  0  0
   -0.9866    1.9484    0.6390 H   0  0  0  0  0  0  0  0  0  0  0  0
    0.5970    0.3578   -2.5591 H   0  0  0  0  0  0  0  0  0  0  0  0
    3.5198    0.4002    2.4448 H   0  0  0  0  0  0  0  0  0  0  0  0
    4.7789   -0.4114   -2.0931 H   0  0  0  0  0  0  0  0  0  0  0  0
    7.1921   -0.9167   -2.4475 H   0  0  0  0  0  0  0  0  0  0  0  0
    5.4475   -0.0194    2.0593 H   0  0  0  0  0  0  0  0  0  0  0  0
   -6.0458   -3.4407    0.6152 H   0  0  0  0  0  0  0  0  0  0  0  0
   -4.5754   -3.4541   -0.4431 H   0  0  0  0  0  0  0  0  0  0  0  0
   -4.4076   -3.3214    1.3515 H   0  0  0  0  0  0  0  0  0  0  0  0
  1  2  1  0
  2  3  1  0
  3  4  1  0
  4  5  2  0
  5  6  1  0
  6  7  1  0
  7  8  1  0
  8  9  2  0
  8 10  1  0
 10 11  1  0
 11 12  2  0
 12 13  1  0
 13 14  2  0
 14 15  1  0
 13 16  1  0
 16 17  2  0
 17 18  1  0
 18 19  2  0
 19 20  1  0
 20 21  1  0
 20 22  2  0
 19 23  1  0
 23 24  1  0
 23 25  1  0
 23 26  1  0
  6 27  1  0
 27 28  1  0
 28 29  2  0
 28 30  1  0
 30 31  1  0
 30 32  1  0
 32 33  2  0
 32  2  1  0
 27  3  2  0
 15 11  1  0
 22 16  1  0
  1 34  1  0
  1 35  1  0
  1 36  1  0
  4 37  1  0
  5 38  1  0
  7 39  1  0
  7 40  1  0
 10 41  1  0
 14 42  1  0
 17 43  1  0
 18 44  1  0
 22 45  1  0
 31 46  1  0
 31 47  1  0
 31 48  1  0
M  END
$$$$
[H]c1sc(N([H])C(=O)C([H])([H])c2c([H])c([H])c([H])c3c2c(=O)n(C([H])([H])[H])c(=O)n3C([H])([H])[H])nc1-c1c([H])c([H])c([H])c(F)c1F
     RDKit          3D

 47 50  0  0  0  0  0  0  0  0999 V2000
   -5.5371   -1.9391   -0.6233 C   0  0  0  0  0  0  0  0  0  0  0  0
   -4.7123   -0.7814   -0.2814 N   0  0  0  0  0  0  0  0  0  0  0  0
   -3.6097   -0.9787    0.4557 C   0  0  0  0  0  0  0  0  0  0  0  0
   -3.3057   -2.2499    0.9139 C   0  0  0  0  0  0  0  0  0  0  0  0
   -2.2147   -2.4482    1.7019 C   0  0  0  0  0  0  0  0  0  0  0  0
   -1.4362   -1.3729    2.0234 C   0  0  0  0  0  0  0  0  0  0  0  0
   -1.7233   -0.0551    1.5646 C   0  0  0  0  0  0  0  0  0  0  0  0
   -0.7510    0.9976    1.8753 C   0  0  0  0  0  0  0  0  0  0  0  0
    0.3791    0.9447    0.9714 C   0  0  0  0  0  0  0  0  0  0  0  0
    1.2291   -0.0175    1.1635 O   0  0  0  0  0  0  0  0  0  0  0  0
    0.6702    1.8050   -0.0831 N   0  0  0  0  0  0  0  0  0  0  0  0
    1.9471    1.6557   -0.8009 C   0  0  0  0  0  0  0  0  0  0  0  0
    2.9139    0.8368   -0.4588 N   0  0  0  0  0  0  0  0  0  0  0  0
    4.0189    0.7667   -1.1488 C   0  0  0  0  0  0  0  0  0  0  0  0
    4.1109    1.5820   -2.2396 C   0  0  0  0  0  0  0  0  0  0  0  0
    2.5728    2.3990   -2.1762 S   0  0  0  0  0  0  0  0  0  0  0  0
    5.1173   -0.1412   -0.6868 C   0  0  0  0  0  0  0  0  0  0  0  0
    4.9405   -0.9038    0.4773 C   0  0  0  0  0  0  0  0  0  0  0  0
    5.9145   -1.7273    0.9719 C   0  0  0  0  0  0  0  0  0  0  0  0
    7.1186   -1.8106    0.2970 C   0  0  0  0  0  0  0  0  0  0  0  0
    7.3204   -1.0858   -0.8344 C   0  0  0  0  0  0  0  0  0  0  0  0
    8.4840   -1.1535   -1.5007 F   0  0  0  0  0  0  0  0  0  0  0  0
    6.3014   -0.2579   -1.3060 C   0  0  0  0  0  0  0  0  0  0  0  0
    6.5865    0.4317   -2.4470 F   0  0  0  0  0  0  0  0  0  0  0  0
   -2.8178    0.1363    0.7794 C   0  0  0  0  0  0  0  0  0  0  0  0
   -3.2291    1.3706    0.3177 C   0  0  0  0  0  0  0  0  0  0  0  0
   -2.5586    2.3943    0.5877 O   0  0  0  0  0  0  0  0  0  0  0  0
   -4.3630    1.5084   -0.4282 N   0  0  0  0  0  0  0  0  0  0  0  0
   -4.7610    2.8162   -0.8735 C   0  0  0  0  0  0  0  0  0  0  0  0
   -5.0966    0.4305   -0.7232 C   0  0  0  0  0  0  0  0  0  0  0  0
   -6.1625    0.4945   -1.4129 O   0  0  0  0  0  0  0  0  0  0  0  0
   -5.8442   -2.4452    0.3126 H   0  0  0  0  0  0  0  0  0  0  0  0
   -5.0418   -2.6077   -1.3399 H   0  0  0  0  0  0  0  0  0  0  0  0
   -6.5039   -1.5923   -1.0879 H   0  0  0  0  0  0  0  0  0  0  0  0
   -3.9514   -3.0749    0.6327 H   0  0  0  0  0  0  0  0  0  0  0  0
   -1.9574   -3.4501    2.0780 H   0  0  0  0  0  0  0  0  0  0  0  0
   -0.5486   -1.4565    2.6527 H   0  0  0  0  0  0  0  0  0  0  0  0
   -1.0822    2.0206    1.9951 H   0  0  0  0  0  0  0  0  0  0  0  0
   -0.2550    0.7057    2.9020 H   0  0  0  0  0  0  0  0  0  0  0  0
    0.0971    2.5893   -0.3608 H   0  0  0  0  0  0  0  0  0  0  0  0
    4.8786    1.7395   -2.9887 H   0  0  0  0  0  0  0  0  0  0  0  0
    3.9810   -0.8394    1.0163 H   0  0  0  0  0  0  0  0  0  0  0  0
    5.7359   -2.3080    1.8907 H   0  0  0  0  0  0  0  0  0  0  0  0
    7.8819   -2.4807    0.7227 H   0  0  0  0  0  0  0  0  0  0  0  0
   -4.3240    3.1008   -1.8385 H   0  0  0  0  0  0  0  0  0  0  0  0
   -4.5356    3.5642   -0.0562 H   0  0  0  0  0  0  0  0  0  0  0  0
   -5.8769    2.8875   -0.9955 H   0  0  0  0  0  0  0  0  0  0  0  0
  1  2  1  0
  2  3  1  0
  3  4  2  0
  4  5  1  0
  5  6  2  0
  6  7  1  0
  7  8  1  0
  8  9  1  0
  9 10  2  0
  9 11  1  0
 11 12  1  0
 12 13  2  0
 13 14  1  0
 14 15  2  0
 15 16  1  0
 14 17  1  0
 17 18  2  0
 18 19  1  0
 19 20  2  0
 20 21  1  0
 21 22  1  0
 21 23  2  0
 23 24  1  0
  7 25  2  0
 25 26  1  0
 26 27  2  0
 26 28  1  0
 28 29  1  0
 28 30  1  0
 30 31  2  0
 30  2  1  0
 25  3  1  0
 16 12  1  0
 23 17  1  0
  1 32  1  0
  1 33  1  0
  1 34  1  0
  4 35  1  0
  5 36  1  0
  6 37  1  0
  8 38  1  0
  8 39  1  0
 11 40  1  0
 15 41  1  0
 18 42  1  0
 19 43  1  0
 20 44  1  0
 29 45  1  0
 29 46  1  0
 29 47  1  0
M  END
$$$$
[H]C1=Nc2c([H])c([H])c([H])c([H])c2C([H])([H])c2c(C(=O)N([H])[H])c([H])c([H])c([H])c21
     RDKit          3D

 30 32  0  0  0  0  0  0  0  0999 V2000
   -3.6271    1.9798   -0.6706 N   0  0  0  0  0  0  0  0  0  0  0  0
   -2.4459    1.5646    0.0531 C   0  0  0  0  0  0  0  0  0  0  0  0
   -1.8526    2.4541    0.7039 O   0  0  0  0  0  0  0  0  0  0  0  0
   -2.0666    0.1679   -0.0475 C   0  0  0  0  0  0  0  0  0  0  0  0
   -3.0909   -0.7199   -0.4296 C   0  0  0  0  0  0  0  0  0  0  0  0
   -2.8104   -2.0527   -0.5049 C   0  0  0  0  0  0  0  0  0  0  0  0
   -1.5646   -2.5321   -0.2172 C   0  0  0  0  0  0  0  0  0  0  0  0
   -0.5483   -1.6665    0.1589 C   0  0  0  0  0  0  0  0  0  0  0  0
    0.6757   -2.4362    0.4604 C   0  0  0  0  0  0  0  0  0  0  0  0
    1.8617   -1.9623    0.5328 N   0  0  0  0  0  0  0  0  0  0  0  0
    2.3031   -0.6100    0.3474 C   0  0  0  0  0  0  0  0  0  0  0  0
    3.6884   -0.6280    0.1408 C   0  0  0  0  0  0  0  0  0  0  0  0
    4.3106    0.5785   -0.0651 C   0  0  0  0  0  0  0  0  0  0  0  0
    3.5853    1.7512   -0.0652 C   0  0  0  0  0  0  0  0  0  0  0  0
    2.2376    1.7514    0.1375 C   0  0  0  0  0  0  0  0  0  0  0  0
    1.5536    0.5164    0.3554 C   0  0  0  0  0  0  0  0  0  0  0  0
    0.1208    0.8054    0.5516 C   0  0  0  0  0  0  0  0  0  0  0  0
   -0.7766   -0.3042    0.2479 C   0  0  0  0  0  0  0  0  0  0  0  0
   -3.5768    2.1334   -1.6888 H   0  0  0  0  0  0  0  0  0  0  0  0
   -4.5096    2.1201   -0.1706 H   0  0  0  0  0  0  0  0  0  0  0  0
   -4.0958   -0.3231   -0.6579 H   0  0  0  0  0  0  0  0  0  0  0  0
   -3.6225   -2.7265   -0.8051 H   0  0  0  0  0  0  0  0  0  0  0  0
   -1.3520   -3.5907   -0.2781 H   0  0  0  0  0  0  0  0  0  0  0  0
    0.5144   -3.5053    0.6315 H   0  0  0  0  0  0  0  0  0  0  0  0
    4.2006   -1.5759    0.1525 H   0  0  0  0  0  0  0  0  0  0  0  0
    5.3811    0.6130   -0.2292 H   0  0  0  0  0  0  0  0  0  0  0  0
    4.0730    2.7166   -0.2284 H   0  0  0  0  0  0  0  0  0  0  0  0
    1.6298    2.6524    0.1450 H   0  0  0  0  0  0  0  0  0  0  0  0
   -0.0869    1.1502    1.5908 H   0  0  0  0  0  0  0  0  0  0  0  0
   -0.1091    1.6783   -0.1513 H   0  0  0  0  0  0  0  0  0  0  0  0
  1  2  1  0
  2  3  2  0
  2  4  1  0
  4  5  2  0
  5  6  1  0
  6  7  2  0
  7  8  1  0
  8  9  1  0
  9 10  2  0
 10 11  1  0
 11 12  2  0
 12 13  1  0
 13 14  2  0
 14 15  1  0
 15 16  2  0
 16 17  1  0
 17 18  1  0
 18  4  1  0
 18  8  2  0
 16 11  1  0
  1 19  1  0
  1 20  1  0
  5 21  1  0
  6 22  1  0
  7 23  1  0
  9 24  1  0
 12 25  1  0
 13 26  1  0
 14 27  1  0
 15 28  1  0
 17 29  1  0
 17 30  1  0
M  END
$$$$
[H]c1nc(C([H])([H])n2c(=O)c3c(nc([H])n3C([H])([H])C(=O)N([H])c3nc(-c4c([H])c([H])c(Cl)c([H])c4[H])sc3[H])n(C([H])([H])[H])c2=O)c([H])c([H])c1[H]
     RDKit          3D

 53 57  0  0  0  0  0  0  0  0999 V2000
   -5.2239    2.4431    2.1854 C   0  0  0  0  0  0  0  0  0  0  0  0
   -4.2555    1.4214    1.9765 N   0  0  0  0  0  0  0  0  0  0  0  0
   -3.1673    1.3518    2.7805 C   0  0  0  0  0  0  0  0  0  0  0  0
   -2.7488    2.0832    3.8305 N   0  0  0  0  0  0  0  0  0  0  0  0
   -1.5935    1.5571    4.2537 C   0  0  0  0  0  0  0  0  0  0  0  0
   -1.2486    0.4822    3.4869 N   0  0  0  0  0  0  0  0  0  0  0  0
   -0.0374   -0.2295    3.7294 C   0  0  0  0  0  0  0  0  0  0  0  0
    1.1614    0.3898    3.0474 C   0  0  0  0  0  0  0  0  0  0  0  0
    1.5625    1.4404    3.6189 O   0  0  0  0  0  0  0  0  0  0  0  0
    1.7142   -0.1810    1.9236 N   0  0  0  0  0  0  0  0  0  0  0  0
    2.8658    0.3238    1.1850 C   0  0  0  0  0  0  0  0  0  0  0  0
    3.5302    1.4588    1.5566 C   0  0  0  0  0  0  0  0  0  0  0  0
    4.7640    1.5532    0.3466 S   0  0  0  0  0  0  0  0  0  0  0  0
    4.3387    0.1510   -0.5291 C   0  0  0  0  0  0  0  0  0  0  0  0
    3.3097   -0.3035    0.1255 N   0  0  0  0  0  0  0  0  0  0  0  0
    4.9891   -0.4127   -1.7450 C   0  0  0  0  0  0  0  0  0  0  0  0
    4.4380   -1.5640   -2.2546 C   0  0  0  0  0  0  0  0  0  0  0  0
    4.9874   -2.1483   -3.3831 C   0  0  0  0  0  0  0  0  0  0  0  0
    6.0872   -1.5177   -3.9410 C   0  0  0  0  0  0  0  0  0  0  0  0
    6.8234   -2.2129   -5.3704 Cl  0  0  0  0  0  0  0  0  0  0  0  0
    6.6273   -0.3627   -3.4162 C   0  0  0  0  0  0  0  0  0  0  0  0
    6.0768    0.2259   -2.2826 C   0  0  0  0  0  0  0  0  0  0  0  0
   -2.2278    0.3708    2.5875 C   0  0  0  0  0  0  0  0  0  0  0  0
   -2.4020   -0.5332    1.5785 C   0  0  0  0  0  0  0  0  0  0  0  0
   -1.5499   -1.4261    1.4042 O   0  0  0  0  0  0  0  0  0  0  0  0
   -3.5056   -0.4332    0.7911 N   0  0  0  0  0  0  0  0  0  0  0  0
   -3.6443   -1.4205   -0.2615 C   0  0  0  0  0  0  0  0  0  0  0  0
   -2.9826   -0.9872   -1.5218 C   0  0  0  0  0  0  0  0  0  0  0  0
   -3.6521   -0.3766   -2.5571 C   0  0  0  0  0  0  0  0  0  0  0  0
   -3.0064    0.0183   -3.7074 C   0  0  0  0  0  0  0  0  0  0  0  0
   -1.6554   -0.1981   -3.8373 C   0  0  0  0  0  0  0  0  0  0  0  0
   -0.9891   -0.8101   -2.7984 C   0  0  0  0  0  0  0  0  0  0  0  0
   -1.6559   -1.1777   -1.6979 N   0  0  0  0  0  0  0  0  0  0  0  0
   -4.4181    0.5297    0.9879 C   0  0  0  0  0  0  0  0  0  0  0  0
   -5.4425    0.5884    0.2254 O   0  0  0  0  0  0  0  0  0  0  0  0
   -4.7351    3.4300    2.1118 H   0  0  0  0  0  0  0  0  0  0  0  0
   -5.6888    2.3433    3.2065 H   0  0  0  0  0  0  0  0  0  0  0  0
   -6.0337    2.3783    1.4337 H   0  0  0  0  0  0  0  0  0  0  0  0
   -1.0486    1.9656    5.0925 H   0  0  0  0  0  0  0  0  0  0  0  0
    0.1892   -0.2235    4.8102 H   0  0  0  0  0  0  0  0  0  0  0  0
   -0.0582   -1.2869    3.4220 H   0  0  0  0  0  0  0  0  0  0  0  0
    1.2522   -1.0764    1.5661 H   0  0  0  0  0  0  0  0  0  0  0  0
    3.3658    2.1608    2.3919 H   0  0  0  0  0  0  0  0  0  0  0  0
    3.5739   -2.0483   -1.8059 H   0  0  0  0  0  0  0  0  0  0  0  0
    4.5546   -3.0402   -3.7716 H   0  0  0  0  0  0  0  0  0  0  0  0
    7.4755    0.0778   -3.8899 H   0  0  0  0  0  0  0  0  0  0  0  0
    6.4735    1.1231   -1.8505 H   0  0  0  0  0  0  0  0  0  0  0  0
   -4.7067   -1.6253   -0.4658 H   0  0  0  0  0  0  0  0  0  0  0  0
   -3.1368   -2.3668    0.0420 H   0  0  0  0  0  0  0  0  0  0  0  0
   -4.7318   -0.2216   -2.4257 H   0  0  0  0  0  0  0  0  0  0  0  0
   -3.5681    0.5005   -4.5101 H   0  0  0  0  0  0  0  0  0  0  0  0
   -1.1150    0.1089   -4.7485 H   0  0  0  0  0  0  0  0  0  0  0  0
    0.0693   -0.9673   -2.9267 H   0  0  0  0  0  0  0  0  0  0  0  0
  1  2  1  0
  2  3  1  0
  3  4  1  0
  4  5  2  0
  5  6  1  0
  6  7  1  0
  7  8  1  0
  8  9  2  0
  8 10  1  0
 10 11  1  0
 11 12  2  0
 12 13  1  0
 13 14  1  0
 14 15  2  0
 14 16  1  0
 16 17  2  0
 17 18  1  0
 18 19  2  0
 19 20  1  0
 19 21  1  0
 21 22  2  0
  6 23  1  0
 23 24  1  0
 24 25  2  0
 24 26  1  0
 26 27  1  0
 27 28  1  0
 28 29  2  0
 29 30  1  0
 30 31  2  0
 31 32  1  0
 32 33  2  0
 26 34  1  0
 34 35  2  0
 34  2  1  0
 23  3  2  0
 33 28  1  0
 15 11  1  0
 22 16  1  0
  1 36  1  0
  1 37  1  0
  1 38  1  0
  5 39  1  0
  7 40  1  0
  7 41  1  0
 10 42  1  0
 12 43  1  0
 17 44  1  0
 18 45  1  0
 21 46  1  0
 22 47  1  0
 27 48  1  0
 27 49  1  0
 29 50  1  0
 30 51  1  0
 31 52  1  0
 32 53  1  0
M  END
$$$$
[H]c1nc(N2C([H])([H])C([H])([H])N(C([H])([H])C3([H])C([H])([H])OC([H])([H])C([H])([H])C3([H])[H])C([H])([H])C2([H])[H])nc(N([H])C([H])([H])C([H])(C([H])([H])[H])C([H])([H])[H])c1C(=O)N([H])C([H])([H])c1c([H])c([H])c([H])c([H])c1[H]
     RDKit          3D

 72 75  0  0  0  0  0  0  0  0999 V2000
   -3.4911   -2.7582   -2.6560 C   0  0  0  0  0  0  0  0  0  0  0  0
   -2.6675   -3.5536   -1.6667 C   0  0  0  0  0  0  0  0  0  0  0  0
   -1.7334   -4.4904   -2.3693 C   0  0  0  0  0  0  0  0  0  0  0  0
   -1.8621   -2.5786   -0.8719 C   0  0  0  0  0  0  0  0  0  0  0  0
   -2.7210   -1.6199   -0.1359 N   0  0  0  0  0  0  0  0  0  0  0  0
   -2.0837   -0.6320    0.6274 C   0  0  0  0  0  0  0  0  0  0  0  0
   -0.7261   -0.6299    0.5913 N   0  0  0  0  0  0  0  0  0  0  0  0
    0.0057    0.2588    1.2523 C   0  0  0  0  0  0  0  0  0  0  0  0
   -0.6537    1.1758    1.9734 N   0  0  0  0  0  0  0  0  0  0  0  0
   -1.9901    1.2409    2.0607 C   0  0  0  0  0  0  0  0  0  0  0  0
   -2.7568    0.2975    1.3593 C   0  0  0  0  0  0  0  0  0  0  0  0
   -4.1877    0.3277    1.4546 C   0  0  0  0  0  0  0  0  0  0  0  0
   -4.9501   -0.4839    0.9134 O   0  0  0  0  0  0  0  0  0  0  0  0
   -4.8462    1.3581    2.2251 N   0  0  0  0  0  0  0  0  0  0  0  0
   -6.3030    1.3846    2.3285 C   0  0  0  0  0  0  0  0  0  0  0  0
   -6.8379    1.8922    1.0523 C   0  0  0  0  0  0  0  0  0  0  0  0
   -7.6446    1.0400    0.3086 C   0  0  0  0  0  0  0  0  0  0  0  0
   -8.1441    1.5042   -0.8857 C   0  0  0  0  0  0  0  0  0  0  0  0
   -7.8642    2.7657   -1.3418 C   0  0  0  0  0  0  0  0  0  0  0  0
   -7.0604    3.5992   -0.5885 C   0  0  0  0  0  0  0  0  0  0  0  0
   -6.5486    3.1578    0.6103 C   0  0  0  0  0  0  0  0  0  0  0  0
    1.4373    0.2691    1.2147 N   0  0  0  0  0  0  0  0  0  0  0  0
    2.2297    1.1051    2.1210 C   0  0  0  0  0  0  0  0  0  0  0  0
    3.5837    0.4067    2.1892 C   0  0  0  0  0  0  0  0  0  0  0  0
    4.3062    0.6418    0.9035 N   0  0  0  0  0  0  0  0  0  0  0  0
    5.5068   -0.0878    1.0188 C   0  0  0  0  0  0  0  0  0  0  0  0
    6.5949    0.0893    0.0533 C   0  0  0  0  0  0  0  0  0  0  0  0
    6.3404   -0.2141   -1.3885 C   0  0  0  0  0  0  0  0  0  0  0  0
    7.7342   -0.2613   -2.0567 C   0  0  0  0  0  0  0  0  0  0  0  0
    8.3234    1.1169   -1.8874 C   0  0  0  0  0  0  0  0  0  0  0  0
    7.5095    1.9452   -1.1212 O   0  0  0  0  0  0  0  0  0  0  0  0
    7.2693    1.4440    0.1348 C   0  0  0  0  0  0  0  0  0  0  0  0
    3.4019    0.3147   -0.1454 C   0  0  0  0  0  0  0  0  0  0  0  0
    2.2090   -0.5261    0.2894 C   0  0  0  0  0  0  0  0  0  0  0  0
   -2.8269   -1.9756   -3.0985 H   0  0  0  0  0  0  0  0  0  0  0  0
   -4.3371   -2.2888   -2.1463 H   0  0  0  0  0  0  0  0  0  0  0  0
   -3.7701   -3.4690   -3.4582 H   0  0  0  0  0  0  0  0  0  0  0  0
   -3.3714   -4.1062   -1.0333 H   0  0  0  0  0  0  0  0  0  0  0  0
   -1.8747   -4.4413   -3.4766 H   0  0  0  0  0  0  0  0  0  0  0  0
   -1.9410   -5.5221   -2.0677 H   0  0  0  0  0  0  0  0  0  0  0  0
   -0.6762   -4.2695   -2.1263 H   0  0  0  0  0  0  0  0  0  0  0  0
   -1.3091   -3.1101   -0.0519 H   0  0  0  0  0  0  0  0  0  0  0  0
   -1.1406   -2.0415   -1.5155 H   0  0  0  0  0  0  0  0  0  0  0  0
   -3.7283   -1.7760   -0.2656 H   0  0  0  0  0  0  0  0  0  0  0  0
   -2.4949    1.9834    2.6438 H   0  0  0  0  0  0  0  0  0  0  0  0
   -4.3555    2.1101    2.7268 H   0  0  0  0  0  0  0  0  0  0  0  0
   -6.5897    2.0137    3.1930 H   0  0  0  0  0  0  0  0  0  0  0  0
   -6.6003    0.3207    2.4834 H   0  0  0  0  0  0  0  0  0  0  0  0
   -7.8665    0.0430    0.6714 H   0  0  0  0  0  0  0  0  0  0  0  0
   -8.7877    0.8384   -1.4853 H   0  0  0  0  0  0  0  0  0  0  0  0
   -8.2641    3.1193   -2.2872 H   0  0  0  0  0  0  0  0  0  0  0  0
   -6.8162    4.6057   -0.9182 H   0  0  0  0  0  0  0  0  0  0  0  0
   -5.9084    3.8273    1.2073 H   0  0  0  0  0  0  0  0  0  0  0  0
    1.8191    1.1313    3.1308 H   0  0  0  0  0  0  0  0  0  0  0  0
    2.2981    2.1215    1.6740 H   0  0  0  0  0  0  0  0  0  0  0  0
    4.1428    0.7856    3.0420 H   0  0  0  0  0  0  0  0  0  0  0  0
    3.3895   -0.6782    2.2143 H   0  0  0  0  0  0  0  0  0  0  0  0
    5.9552    0.0870    2.0509 H   0  0  0  0  0  0  0  0  0  0  0  0
    5.2591   -1.1940    1.0431 H   0  0  0  0  0  0  0  0  0  0  0  0
    7.4189   -0.6394    0.3585 H   0  0  0  0  0  0  0  0  0  0  0  0
    5.8428    0.6355   -1.9024 H   0  0  0  0  0  0  0  0  0  0  0  0
    5.8326   -1.1918   -1.5472 H   0  0  0  0  0  0  0  0  0  0  0  0
    7.6049   -0.5743   -3.1103 H   0  0  0  0  0  0  0  0  0  0  0  0
    8.3063   -1.0414   -1.4998 H   0  0  0  0  0  0  0  0  0  0  0  0
    9.3597    1.0787   -1.4983 H   0  0  0  0  0  0  0  0  0  0  0  0
    8.3928    1.5784   -2.8938 H   0  0  0  0  0  0  0  0  0  0  0  0
    6.6551    2.1874    0.6842 H   0  0  0  0  0  0  0  0  0  0  0  0
    8.2252    1.3894    0.6897 H   0  0  0  0  0  0  0  0  0  0  0  0
    2.9374    1.2862   -0.4930 H   0  0  0  0  0  0  0  0  0  0  0  0
    3.7885   -0.1589   -1.0349 H   0  0  0  0  0  0  0  0  0  0  0  0
    2.4641   -1.5249    0.6301 H   0  0  0  0  0  0  0  0  0  0  0  0
    1.5867   -0.6392   -0.6223 H   0  0  0  0  0  0  0  0  0  0  0  0
  1  2  1  0
  2  3  1  0
  2  4  1  0
  4  5  1  0
  5  6  1  0
  6  7  2  0
  7  8  1  0
  8  9  2  0
  9 10  1  0
 10 11  2  0
 11 12  1  0
 12 13  2  0
 12 14  1  0
 14 15  1  0
 15 16  1  0
 16 17  2  0
 17 18  1  0
 18 19  2  0
 19 20  1  0
 20 21  2  0
  8 22  1  0
 22 23  1  0
 23 24  1  0
 24 25  1  0
 25 26  1  0
 26 27  1  0
 27 28  1  0
 28 29  1  0
 29 30  1  0
 30 31  1  0
 31 32  1  0
 25 33  1  0
 33 34  1  0
 11  6  1  0
 21 16  1  0
 34 22  1  0
 32 27  1  0
  1 35  1  0
  1 36  1  0
  1 37  1  0
  2 38  1  0
  3 39  1  0
  3 40  1  0
  3 41  1  0
  4 42  1  0
  4 43  1  0
  5 44  1  0
 10 45  1  0
 14 46  1  0
 15 47  1  0
 15 48  1  0
 17 49  1  0
 18 50  1  0
 19 51  1  0
 20 52  1  0
 21 53  1  0
 23 54  1  0
 23 55  1  0
 24 56  1  0
 24 57  1  0
 26 58  1  0
 26 59  1  0
 27 60  1  0
 28 61  1  0
 28 62  1  0
 29 63  1  0
 29 64  1  0
 30 65  1  0
 30 66  1  0
 32 67  1  0
 32 68  1  0
 33 69  1  0
 33 70  1  0
 34 71  1  0
 34 72  1  0
M  END
$$$$
[H]c1nc([H])c(N([H])C(=O)[C@@]([H])(n2c([H])nc3c2c(=O)n(C([H])([H])C#N)c(=O)n3C([H])([H])[H])C([H])([H])[H])nc1-c1c([H])nc(N2C([H])([H])C([H])([H])C([H])([H])[C@@]2([H])C(F)(F)F)nc1[H]
     RDKit          3D

 63 67  0  0  0  0  0  0  0  0999 V2000
    2.9355   -0.3541   -2.3058 C   0  0  0  0  0  0  0  0  0  0  0  0
    3.3255    0.8069   -1.4637 C   0  0  1  0  0  0  0  0  0  0  0  0
    2.6086    0.8705   -0.1349 C   0  0  0  0  0  0  0  0  0  0  0  0
    3.2986    1.0724    0.8545 O   0  0  0  0  0  0  0  0  0  0  0  0
    1.2370    0.6978   -0.1563 N   0  0  0  0  0  0  0  0  0  0  0  0
    0.3666    0.7194    0.9442 C   0  0  0  0  0  0  0  0  0  0  0  0
    0.7778    0.9226    2.2215 C   0  0  0  0  0  0  0  0  0  0  0  0
   -0.1181    0.9305    3.2455 N   0  0  0  0  0  0  0  0  0  0  0  0
   -1.4145    0.7353    2.9811 C   0  0  0  0  0  0  0  0  0  0  0  0
   -1.8914    0.5247    1.7116 C   0  0  0  0  0  0  0  0  0  0  0  0
   -0.9902    0.5226    0.7310 N   0  0  0  0  0  0  0  0  0  0  0  0
   -3.2954    0.3064    1.3730 C   0  0  0  0  0  0  0  0  0  0  0  0
   -4.3053    0.2873    2.3079 C   0  0  0  0  0  0  0  0  0  0  0  0
   -5.5831    0.0806    1.9339 N   0  0  0  0  0  0  0  0  0  0  0  0
   -5.9601   -0.1181    0.6482 C   0  0  0  0  0  0  0  0  0  0  0  0
   -4.9728   -0.0990   -0.2630 N   0  0  0  0  0  0  0  0  0  0  0  0
   -3.6859    0.1022    0.0545 C   0  0  0  0  0  0  0  0  0  0  0  0
   -7.3199   -0.3365    0.2946 N   0  0  0  0  0  0  0  0  0  0  0  0
   -8.4714   -0.4247    1.1559 C   0  0  0  0  0  0  0  0  0  0  0  0
   -9.5967   -0.9482    0.3539 C   0  0  0  0  0  0  0  0  0  0  0  0
   -9.0251   -1.3622   -0.9522 C   0  0  0  0  0  0  0  0  0  0  0  0
   -7.7753   -0.5165   -1.0699 C   0  0  1  0  0  0  0  0  0  0  0  0
   -8.0475    0.7878   -1.7744 C   0  0  0  0  0  0  0  0  0  0  0  0
   -9.0144    1.4617   -1.0889 F   0  0  0  0  0  0  0  0  0  0  0  0
   -6.8930    1.5130   -1.9658 F   0  0  0  0  0  0  0  0  0  0  0  0
   -8.4995    0.4549   -3.0577 F   0  0  0  0  0  0  0  0  0  0  0  0
    4.7072    1.1310   -1.3902 N   0  0  0  0  0  0  0  0  0  0  0  0
    5.3128    2.3030   -1.7580 C   0  0  0  0  0  0  0  0  0  0  0  0
    6.6245    2.2595   -1.5516 N   0  0  0  0  0  0  0  0  0  0  0  0
    6.9335    1.0596   -1.0406 C   0  0  0  0  0  0  0  0  0  0  0  0
    8.1235    0.5447   -0.6682 N   0  0  0  0  0  0  0  0  0  0  0  0
    9.3143    1.3603   -0.8132 C   0  0  0  0  0  0  0  0  0  0  0  0
    8.1469   -0.7066   -0.1781 C   0  0  0  0  0  0  0  0  0  0  0  0
    9.2419   -1.2096    0.1760 O   0  0  0  0  0  0  0  0  0  0  0  0
    7.0324   -1.4390   -0.0546 N   0  0  0  0  0  0  0  0  0  0  0  0
    7.0603   -2.7937    0.4765 C   0  0  0  0  0  0  0  0  0  0  0  0
    6.8824   -2.7137    1.9234 C   0  0  0  0  0  0  0  0  0  0  0  0
    6.7309   -2.6619    3.0781 N   0  0  0  0  0  0  0  0  0  0  0  0
    5.8268   -0.9121   -0.4339 C   0  0  0  0  0  0  0  0  0  0  0  0
    4.7961   -1.6030   -0.3143 O   0  0  0  0  0  0  0  0  0  0  0  0
    5.7270    0.3596   -0.9430 C   0  0  0  0  0  0  0  0  0  0  0  0
    2.3812   -1.1613   -1.7619 H   0  0  0  0  0  0  0  0  0  0  0  0
    3.8287   -0.7235   -2.8502 H   0  0  0  0  0  0  0  0  0  0  0  0
    2.2192   -0.0862   -3.1428 H   0  0  0  0  0  0  0  0  0  0  0  0
    2.8386    1.6997   -1.9928 H   0  0  0  0  0  0  0  0  0  0  0  0
    0.7258    0.5231   -1.1032 H   0  0  0  0  0  0  0  0  0  0  0  0
    1.8229    1.0868    2.4903 H   0  0  0  0  0  0  0  0  0  0  0  0
   -2.1015    0.7463    3.8097 H   0  0  0  0  0  0  0  0  0  0  0  0
   -4.0368    0.4445    3.3558 H   0  0  0  0  0  0  0  0  0  0  0  0
   -2.8911    0.1154   -0.6987 H   0  0  0  0  0  0  0  0  0  0  0  0
   -8.6992    0.5458    1.6529 H   0  0  0  0  0  0  0  0  0  0  0  0
   -8.1874   -1.1895    1.9415 H   0  0  0  0  0  0  0  0  0  0  0  0
  -10.0619   -1.8674    0.8074 H   0  0  0  0  0  0  0  0  0  0  0  0
  -10.3645   -0.1436    0.2512 H   0  0  0  0  0  0  0  0  0  0  0  0
   -9.7179   -1.1995   -1.8034 H   0  0  0  0  0  0  0  0  0  0  0  0
   -8.7772   -2.4404   -0.9492 H   0  0  0  0  0  0  0  0  0  0  0  0
   -7.0135   -1.1238   -1.5948 H   0  0  0  0  0  0  0  0  0  0  0  0
    4.7197    3.1338   -2.1660 H   0  0  0  0  0  0  0  0  0  0  0  0
    9.4347    1.9205    0.1342 H   0  0  0  0  0  0  0  0  0  0  0  0
    9.2078    2.0925   -1.6374 H   0  0  0  0  0  0  0  0  0  0  0  0
   10.1896    0.7066   -1.0236 H   0  0  0  0  0  0  0  0  0  0  0  0
    8.0531   -3.2791    0.3061 H   0  0  0  0  0  0  0  0  0  0  0  0
    6.2793   -3.4159   -0.0177 H   0  0  0  0  0  0  0  0  0  0  0  0
  1  2  1  0
  2  3  1  0
  3  4  2  0
  3  5  1  0
  5  6  1  0
  6  7  2  0
  7  8  1  0
  8  9  2  0
  9 10  1  0
 10 11  2  0
 10 12  1  0
 12 13  2  0
 13 14  1  0
 14 15  2  0
 15 16  1  0
 16 17  2  0
 15 18  1  0
 18 19  1  0
 19 20  1  0
 20 21  1  0
 21 22  1  0
 22 23  1  0
 23 24  1  0
 23 25  1  0
 23 26  1  0
  2 27  1  0
 27 28  1  0
 28 29  2  0
 29 30  1  0
 30 31  1  0
 31 32  1  0
 31 33  1  0
 33 34  2  0
 33 35  1  0
 35 36  1  0
 36 37  1  0
 37 38  3  0
 35 39  1  0
 39 40  2  0
 39 41  1  0
 11  6  1  0
 17 12  1  0
 22 18  1  0
 41 27  1  0
 41 30  2  0
  1 42  1  0
  1 43  1  0
  1 44  1  0
  2 45  1  6
  5 46  1  0
  7 47  1  0
  9 48  1  0
 13 49  1  0
 17 50  1  0
 19 51  1  0
 19 52  1  0
 20 53  1  0
 20 54  1  0
 21 55  1  0
 21 56  1  0
 22 57  1  6
 28 58  1  0
 32 59  1  0
 32 60  1  0
 32 61  1  0
 36 62  1  0
 36 63  1  0
M  END
$$$$
[H]c1c([H])c([H])c2c(c1[H])C(=O)C1([H])C2=NC(=S)N([H])[C@]1([H])c1c([H])c([H])c([H])c(OC([H])([H])[H])c1[H]
     RDKit          3D

 37 40  0  0  0  0  0  0  0  0999 V2000
    5.5223   -1.5187    0.7286 C   0  0  0  0  0  0  0  0  0  0  0  0
    4.2683   -1.4218    0.0639 O   0  0  0  0  0  0  0  0  0  0  0  0
    3.4628   -0.3197    0.2740 C   0  0  0  0  0  0  0  0  0  0  0  0
    3.8647    0.6892    1.1242 C   0  0  0  0  0  0  0  0  0  0  0  0
    3.0141    1.7619    1.2903 C   0  0  0  0  0  0  0  0  0  0  0  0
    1.8034    1.8181    0.6256 C   0  0  0  0  0  0  0  0  0  0  0  0
    1.3880    0.8162   -0.2282 C   0  0  0  0  0  0  0  0  0  0  0  0
    2.2521   -0.2538   -0.3848 C   0  0  0  0  0  0  0  0  0  0  0  0
    0.0880    0.8816   -0.9379 C   0  0  1  0  0  0  0  0  0  0  0  0
    0.3169    0.5012   -2.3423 N   0  0  0  0  0  0  0  0  0  0  0  0
   -0.8511    0.4604   -3.1919 C   0  0  0  0  0  0  0  0  0  0  0  0
   -0.6855    0.7462   -4.7633 S   0  0  0  0  0  0  0  0  0  0  0  0
   -2.0474    0.1585   -2.5123 N   0  0  0  0  0  0  0  0  0  0  0  0
   -2.1305   -0.0683   -1.2616 C   0  0  0  0  0  0  0  0  0  0  0  0
   -0.9355   -0.0371   -0.3891 C   0  0  0  0  0  0  0  0  0  0  0  0
   -1.5188    0.3492    0.9099 C   0  0  0  0  0  0  0  0  0  0  0  0
   -0.9448    0.9521    1.8209 O   0  0  0  0  0  0  0  0  0  0  0  0
   -2.8980   -0.1135    0.9172 C   0  0  0  0  0  0  0  0  0  0  0  0
   -3.8222   -0.3263    1.9174 C   0  0  0  0  0  0  0  0  0  0  0  0
   -5.0961   -0.7813    1.6485 C   0  0  0  0  0  0  0  0  0  0  0  0
   -5.4984   -1.0438    0.3532 C   0  0  0  0  0  0  0  0  0  0  0  0
   -4.5780   -0.8327   -0.6520 C   0  0  0  0  0  0  0  0  0  0  0  0
   -3.3016   -0.3779   -0.3933 C   0  0  0  0  0  0  0  0  0  0  0  0
    6.0755   -0.5894    0.5199 H   0  0  0  0  0  0  0  0  0  0  0  0
    5.2857   -1.5174    1.8302 H   0  0  0  0  0  0  0  0  0  0  0  0
    6.0536   -2.4274    0.4303 H   0  0  0  0  0  0  0  0  0  0  0  0
    4.8115    0.6623    1.6545 H   0  0  0  0  0  0  0  0  0  0  0  0
    3.3109    2.5652    1.9538 H   0  0  0  0  0  0  0  0  0  0  0  0
    1.1275    2.6772    0.7609 H   0  0  0  0  0  0  0  0  0  0  0  0
    1.9179   -1.0419   -1.0606 H   0  0  0  0  0  0  0  0  0  0  0  0
   -0.2854    1.9189   -0.8661 H   0  0  0  0  0  0  0  0  0  0  0  0
    1.2638    0.2908   -2.6493 H   0  0  0  0  0  0  0  0  0  0  0  0
   -0.5024   -1.0701   -0.3456 H   0  0  0  0  0  0  0  0  0  0  0  0
   -3.5136   -0.1216    2.9458 H   0  0  0  0  0  0  0  0  0  0  0  0
   -5.8299   -0.9499    2.4465 H   0  0  0  0  0  0  0  0  0  0  0  0
   -6.5050   -1.4011    0.1635 H   0  0  0  0  0  0  0  0  0  0  0  0
   -4.8827   -1.0353   -1.6713 H   0  0  0  0  0  0  0  0  0  0  0  0
  1  2  1  0
  2  3  1  0
  3  4  2  0
  4  5  1  0
  5  6  2  0
  6  7  1  0
  7  8  2  0
  7  9  1  0
  9 10  1  0
 10 11  1  0
 11 12  2  0
 11 13  1  0
 13 14  2  0
 14 15  1  0
 15 16  1  0
 16 17  2  0
 16 18  1  0
 18 19  2  0
 19 20  1  0
 20 21  2  0
 21 22  1  0
 22 23  2  0
  8  3  1  0
 15  9  1  0
 23 18  1  0
 23 14  1  0
  1 24  1  0
  1 25  1  0
  1 26  1  0
  4 27  1  0
  5 28  1  0
  6 29  1  0
  8 30  1  0
  9 31  1  6
 10 32  1  0
 15 33  1  0
 19 34  1  0
 20 35  1  0
 21 36  1  0
 22 37  1  0
M  END
$$$$
[H]c1nc(N2C([H])([H])C3([H])C([H])([H])C3([H])C2([H])[H])nc([H])c1-c1nc(N([H])C(=O)[C@@]([H])(n2c([H])nc3c2c(=O)n(C([H])([H])C(F)(F)F)c(=O)n3C([H])([H])[H])C([H])([H])[H])c([H])s1
     RDKit          3D

 61 66  0  0  0  0  0  0  0  0999 V2000
   -2.7617    2.0357    1.1640 C   0  0  0  0  0  0  0  0  0  0  0  0
   -3.0121    1.5764   -0.2402 C   0  0  1  0  0  0  0  0  0  0  0  0
   -1.8377    1.5915   -1.1293 C   0  0  0  0  0  0  0  0  0  0  0  0
   -2.0968    2.2050   -2.3167 O   0  0  0  0  0  0  0  0  0  0  0  0
   -0.5524    1.1540   -1.0796 N   0  0  0  0  0  0  0  0  0  0  0  0
    0.3031    0.4389   -0.2011 C   0  0  0  0  0  0  0  0  0  0  0  0
   -0.0571   -0.1726    0.9664 C   0  0  0  0  0  0  0  0  0  0  0  0
    1.4333   -0.7776    1.5673 S   0  0  0  0  0  0  0  0  0  0  0  0
    2.4378   -0.2271    0.3085 C   0  0  0  0  0  0  0  0  0  0  0  0
    1.6086    0.3698   -0.4769 N   0  0  0  0  0  0  0  0  0  0  0  0
    3.9060   -0.3912    0.1580 C   0  0  0  0  0  0  0  0  0  0  0  0
    4.6216    0.0883   -0.9010 C   0  0  0  0  0  0  0  0  0  0  0  0
    5.9754   -0.1166   -0.9399 N   0  0  0  0  0  0  0  0  0  0  0  0
    6.6192   -0.7766    0.0354 C   0  0  0  0  0  0  0  0  0  0  0  0
    5.9008   -1.2417    1.0699 N   0  0  0  0  0  0  0  0  0  0  0  0
    4.5489   -1.0671    1.1616 C   0  0  0  0  0  0  0  0  0  0  0  0
    8.0320   -0.9668   -0.0468 N   0  0  0  0  0  0  0  0  0  0  0  0
    8.9006   -1.6460    0.8956 C   0  0  0  0  0  0  0  0  0  0  0  0
   10.1837   -0.8765    0.8844 C   0  0  0  0  0  0  0  0  0  0  0  0
   11.1967   -1.0181   -0.1674 C   0  0  0  0  0  0  0  0  0  0  0  0
   10.0931   -0.0082   -0.3792 C   0  0  0  0  0  0  0  0  0  0  0  0
    8.8783   -0.5082   -1.1070 C   0  0  0  0  0  0  0  0  0  0  0  0
   -3.7944    0.3831   -0.3305 N   0  0  0  0  0  0  0  0  0  0  0  0
   -3.3467   -0.8362   -0.6386 C   0  0  0  0  0  0  0  0  0  0  0  0
   -4.3403   -1.7373   -0.6489 N   0  0  0  0  0  0  0  0  0  0  0  0
   -5.4951   -1.1134   -0.3406 C   0  0  0  0  0  0  0  0  0  0  0  0
   -6.7702   -1.5238   -0.2191 N   0  0  0  0  0  0  0  0  0  0  0  0
   -7.1302   -2.9073   -0.4237 C   0  0  0  0  0  0  0  0  0  0  0  0
   -7.7270   -0.6396    0.0969 C   0  0  0  0  0  0  0  0  0  0  0  0
   -8.9372   -1.0350    0.2116 O   0  0  0  0  0  0  0  0  0  0  0  0
   -7.4434    0.6561    0.2965 N   0  0  0  0  0  0  0  0  0  0  0  0
   -8.4837    1.6036    0.6375 C   0  0  0  0  0  0  0  0  0  0  0  0
   -9.1014    2.2238   -0.5981 C   0  0  0  0  0  0  0  0  0  0  0  0
   -9.6716    1.2657   -1.4174 F   0  0  0  0  0  0  0  0  0  0  0  0
   -8.1683    2.9671   -1.2929 F   0  0  0  0  0  0  0  0  0  0  0  0
  -10.1139    3.0896   -0.2436 F   0  0  0  0  0  0  0  0  0  0  0  0
   -6.1447    1.0756    0.1733 C   0  0  0  0  0  0  0  0  0  0  0  0
   -5.8682    2.2945    0.3566 O   0  0  0  0  0  0  0  0  0  0  0  0
   -5.1317    0.2216   -0.1442 C   0  0  0  0  0  0  0  0  0  0  0  0
   -2.8632    1.1989    1.8796 H   0  0  0  0  0  0  0  0  0  0  0  0
   -3.4393    2.8383    1.5268 H   0  0  0  0  0  0  0  0  0  0  0  0
   -1.6948    2.3841    1.2436 H   0  0  0  0  0  0  0  0  0  0  0  0
   -3.6685    2.4455   -0.6745 H   0  0  0  0  0  0  0  0  0  0  0  0
   -0.0043    1.4085   -2.0322 H   0  0  0  0  0  0  0  0  0  0  0  0
   -1.0573   -0.2904    1.4280 H   0  0  0  0  0  0  0  0  0  0  0  0
    4.1020    0.6179   -1.6829 H   0  0  0  0  0  0  0  0  0  0  0  0
    3.9989   -1.4503    2.0014 H   0  0  0  0  0  0  0  0  0  0  0  0
    8.4700   -1.6871    1.9172 H   0  0  0  0  0  0  0  0  0  0  0  0
    9.0849   -2.7099    0.5653 H   0  0  0  0  0  0  0  0  0  0  0  0
   10.4719   -0.3700    1.8330 H   0  0  0  0  0  0  0  0  0  0  0  0
   12.2172   -0.6516    0.0839 H   0  0  0  0  0  0  0  0  0  0  0  0
   11.2076   -1.8396   -0.8974 H   0  0  0  0  0  0  0  0  0  0  0  0
   10.2574    1.0540   -0.1953 H   0  0  0  0  0  0  0  0  0  0  0  0
    8.4133    0.2204   -1.7702 H   0  0  0  0  0  0  0  0  0  0  0  0
    9.1654   -1.4152   -1.7152 H   0  0  0  0  0  0  0  0  0  0  0  0
   -2.3282   -1.1549   -0.8743 H   0  0  0  0  0  0  0  0  0  0  0  0
   -6.4132   -3.5787    0.1152 H   0  0  0  0  0  0  0  0  0  0  0  0
   -7.1805   -3.1623   -1.5160 H   0  0  0  0  0  0  0  0  0  0  0  0
   -8.1204   -3.1207   -0.0100 H   0  0  0  0  0  0  0  0  0  0  0  0
   -8.0104    2.4304    1.2134 H   0  0  0  0  0  0  0  0  0  0  0  0
   -9.2617    1.1795    1.2961 H   0  0  0  0  0  0  0  0  0  0  0  0
  1  2  1  0
  2  3  1  0
  3  4  2  0
  3  5  1  0
  5  6  1  0
  6  7  2  0
  7  8  1  0
  8  9  1  0
  9 10  2  0
  9 11  1  0
 11 12  2  0
 12 13  1  0
 13 14  2  0
 14 15  1  0
 15 16  2  0
 14 17  1  0
 17 18  1  0
 18 19  1  0
 19 20  1  0
 20 21  1  0
 21 22  1  0
  2 23  1  0
 23 24  1  0
 24 25  2  0
 25 26  1  0
 26 27  1  0
 27 28  1  0
 27 29  1  0
 29 30  2  0
 29 31  1  0
 31 32  1  0
 32 33  1  0
 33 34  1  0
 33 35  1  0
 33 36  1  0
 31 37  1  0
 37 38  2  0
 37 39  1  0
 10  6  1  0
 16 11  1  0
 22 17  1  0
 39 23  1  0
 21 19  1  0
 39 26  2  0
  1 40  1  0
  1 41  1  0
  1 42  1  0
  2 43  1  6
  5 44  1  0
  7 45  1  0
 12 46  1  0
 16 47  1  0
 18 48  1  0
 18 49  1  0
 19 50  1  0
 20 51  1  0
 20 52  1  0
 21 53  1  0
 22 54  1  0
 22 55  1  0
 24 56  1  0
 28 57  1  0
 28 58  1  0
 28 59  1  0
 32 60  1  0
 32 61  1  0
M  END
$$$$
[H]c1s/c(=N\C(=O)C([H])([H])c2c(C([H])([H])[H])oc3c2c(=O)n(C([H])([H])[H])c(=O)n3C([H])([H])[H])n(C([H])([H])OC(=O)C([H])([H])N([H])[H])c1-c1c([H])c([H])c(OC(F)(F)F)c(Cl)c1[H]
     RDKit          3D

 62 65  0  0  0  0  0  0  0  0999 V2000
    3.2717    0.6723    3.2036 C   0  0  0  0  0  0  0  0  0  0  0  0
    4.1203    0.4636    2.0144 C   0  0  0  0  0  0  0  0  0  0  0  0
    5.4337    0.6816    2.0318 O   0  0  0  0  0  0  0  0  0  0  0  0
    5.9669    0.4332    0.8819 C   0  0  0  0  0  0  0  0  0  0  0  0
    7.2262    0.4896    0.3750 N   0  0  0  0  0  0  0  0  0  0  0  0
    8.3020    0.9172    1.2457 C   0  0  0  0  0  0  0  0  0  0  0  0
    7.4674    0.1535   -0.9135 C   0  0  0  0  0  0  0  0  0  0  0  0
    8.6512    0.2201   -1.3440 O   0  0  0  0  0  0  0  0  0  0  0  0
    6.5115   -0.2480   -1.7601 N   0  0  0  0  0  0  0  0  0  0  0  0
    6.7643   -0.6090   -3.1379 C   0  0  0  0  0  0  0  0  0  0  0  0
    5.2506   -0.3122   -1.2791 C   0  0  0  0  0  0  0  0  0  0  0  0
    4.3316   -0.6823   -2.0385 O   0  0  0  0  0  0  0  0  0  0  0  0
    4.9625    0.0176    0.0137 C   0  0  0  0  0  0  0  0  0  0  0  0
    3.8002    0.0416    0.7432 C   0  0  0  0  0  0  0  0  0  0  0  0
    2.4211   -0.3067    0.3134 C   0  0  0  0  0  0  0  0  0  0  0  0
    1.6661    0.9407    0.1105 C   0  0  0  0  0  0  0  0  0  0  0  0
    2.2096    2.0827    0.3100 O   0  0  0  0  0  0  0  0  0  0  0  0
    0.3090    1.0077   -0.3115 N   0  0  0  0  0  0  0  0  0  0  0  0
   -0.6554    0.5844    0.4556 C   0  0  0  0  0  0  0  0  0  0  0  0
   -0.4376   -0.0694    1.9808 S   0  0  0  0  0  0  0  0  0  0  0  0
   -2.0558   -0.3850    2.3531 C   0  0  0  0  0  0  0  0  0  0  0  0
   -2.7484    0.0554    1.2069 C   0  0  0  0  0  0  0  0  0  0  0  0
   -4.2017   -0.2152    1.2271 C   0  0  0  0  0  0  0  0  0  0  0  0
   -5.0664    0.3282    0.3590 C   0  0  0  0  0  0  0  0  0  0  0  0
   -6.4323   -0.0306    0.3765 C   0  0  0  0  0  0  0  0  0  0  0  0
   -6.9336   -0.9325    1.2638 C   0  0  0  0  0  0  0  0  0  0  0  0
   -8.2746   -1.2845    1.2804 O   0  0  0  0  0  0  0  0  0  0  0  0
   -9.2751   -0.6487    2.0116 C   0  0  0  0  0  0  0  0  0  0  0  0
   -9.0558   -0.6632    3.3694 F   0  0  0  0  0  0  0  0  0  0  0  0
   -9.4921    0.6500    1.5876 F   0  0  0  0  0  0  0  0  0  0  0  0
  -10.4513   -1.3571    1.8015 F   0  0  0  0  0  0  0  0  0  0  0  0
   -6.0647   -1.5028    2.1656 C   0  0  0  0  0  0  0  0  0  0  0  0
   -6.6677   -2.6816    3.3318 Cl  0  0  0  0  0  0  0  0  0  0  0  0
   -4.7357   -1.1409    2.1327 C   0  0  0  0  0  0  0  0  0  0  0  0
   -1.9951    0.5512    0.2499 N   0  0  0  0  0  0  0  0  0  0  0  0
   -2.4736    1.0571   -1.0665 C   0  0  0  0  0  0  0  0  0  0  0  0
   -2.6913    0.0188   -1.9805 O   0  0  0  0  0  0  0  0  0  0  0  0
   -3.1401    0.3831   -3.2419 C   0  0  0  0  0  0  0  0  0  0  0  0
   -3.3374    1.6095   -3.5310 O   0  0  0  0  0  0  0  0  0  0  0  0
   -3.4135   -0.6047   -4.3113 C   0  0  0  0  0  0  0  0  0  0  0  0
   -3.1427   -1.9293   -3.8270 N   0  0  0  0  0  0  0  0  0  0  0  0
    3.8836    0.5229    4.1385 H   0  0  0  0  0  0  0  0  0  0  0  0
    2.8301    1.6802    3.2662 H   0  0  0  0  0  0  0  0  0  0  0  0
    2.5042   -0.1069    3.2288 H   0  0  0  0  0  0  0  0  0  0  0  0
    9.2732    0.6042    0.7816 H   0  0  0  0  0  0  0  0  0  0  0  0
    8.2669    0.4092    2.2300 H   0  0  0  0  0  0  0  0  0  0  0  0
    8.2583    2.0141    1.3523 H   0  0  0  0  0  0  0  0  0  0  0  0
    7.0066   -1.6983   -3.1612 H   0  0  0  0  0  0  0  0  0  0  0  0
    5.8171   -0.4986   -3.7275 H   0  0  0  0  0  0  0  0  0  0  0  0
    7.5864    0.0053   -3.5101 H   0  0  0  0  0  0  0  0  0  0  0  0
    2.0043   -0.9270    1.1612 H   0  0  0  0  0  0  0  0  0  0  0  0
    2.3910   -0.9867   -0.5606 H   0  0  0  0  0  0  0  0  0  0  0  0
   -2.4557   -0.8174    3.2820 H   0  0  0  0  0  0  0  0  0  0  0  0
   -4.8489    1.0670   -0.3833 H   0  0  0  0  0  0  0  0  0  0  0  0
   -7.1139    0.4367   -0.3543 H   0  0  0  0  0  0  0  0  0  0  0  0
   -4.1226   -1.6520    2.8781 H   0  0  0  0  0  0  0  0  0  0  0  0
   -1.5704    1.6147   -1.5682 H   0  0  0  0  0  0  0  0  0  0  0  0
   -3.1854    1.8461   -1.0298 H   0  0  0  0  0  0  0  0  0  0  0  0
   -2.7720   -0.3221   -5.1740 H   0  0  0  0  0  0  0  0  0  0  0  0
   -4.4687   -0.5820   -4.6459 H   0  0  0  0  0  0  0  0  0  0  0  0
   -2.3050   -1.8851   -3.2041 H   0  0  0  0  0  0  0  0  0  0  0  0
   -2.9029   -2.5323   -4.6533 H   0  0  0  0  0  0  0  0  0  0  0  0
  1  2  1  0
  2  3  1  0
  3  4  1  0
  4  5  1  0
  5  6  1  0
  5  7  1  0
  7  8  2  0
  7  9  1  0
  9 10  1  0
  9 11  1  0
 11 12  2  0
 11 13  1  0
 13 14  1  0
 14 15  1  0
 15 16  1  0
 16 17  2  0
 16 18  1  0
 18 19  2  0
 19 20  1  0
 20 21  1  0
 21 22  2  0
 22 23  1  0
 23 24  2  0
 24 25  1  0
 25 26  2  0
 26 27  1  0
 27 28  1  0
 28 29  1  0
 28 30  1  0
 28 31  1  0
 26 32  1  0
 32 33  1  0
 32 34  2  0
 22 35  1  0
 35 36  1  0
 36 37  1  0
 37 38  1  0
 38 39  2  0
 38 40  1  0
 40 41  1  0
 14  2  2  0
 35 19  1  0
 13  4  2  0
 34 23  1  0
  1 42  1  0
  1 43  1  0
  1 44  1  0
  6 45  1  0
  6 46  1  0
  6 47  1  0
 10 48  1  0
 10 49  1  0
 10 50  1  0
 15 51  1  0
 15 52  1  0
 21 53  1  0
 24 54  1  0
 25 55  1  0
 34 56  1  0
 36 57  1  0
 36 58  1  0
 40 59  1  0
 40 60  1  0
 41 61  1  0
 41 62  1  0
M  END
$$$$
[H]c1nc(C([H])([H])[H])c(C(F)(F)F)c([H])c1-c1nc(N([H])C(=O)[C@@]([H])(n2c([H])nc3c2c(=O)n(C([H])([H])C(F)(F)F)c(=O)n3C([H])([H])[H])C([H])([H])[H])c([H])s1
     RDKit          3D

 55 58  0  0  0  0  0  0  0  0999 V2000
   -1.4231   -2.4407   -1.7941 C   0  0  0  0  0  0  0  0  0  0  0  0
   -1.2207   -1.9127   -0.5038 C   0  0  1  0  0  0  0  0  0  0  0  0
    0.0755   -1.1286   -0.6684 C   0  0  0  0  0  0  0  0  0  0  0  0
    1.1078   -1.3398   -0.0362 O   0  0  0  0  0  0  0  0  0  0  0  0
    0.0354   -0.0915   -1.6327 N   0  0  0  0  0  0  0  0  0  0  0  0
    1.2008    0.7462   -1.9018 C   0  0  0  0  0  0  0  0  0  0  0  0
    1.1956    1.7625   -2.8322 C   0  0  0  0  0  0  0  0  0  0  0  0
    2.7870    2.3663   -2.7064 S   0  0  0  0  0  0  0  0  0  0  0  0
    3.3669    1.3132   -1.4978 C   0  0  0  0  0  0  0  0  0  0  0  0
    2.3142    0.5559   -1.2542 N   0  0  0  0  0  0  0  0  0  0  0  0
    4.7114    1.2558   -0.8732 C   0  0  0  0  0  0  0  0  0  0  0  0
    5.6376    2.1610   -1.3057 C   0  0  0  0  0  0  0  0  0  0  0  0
    6.8662    2.1707   -0.7917 N   0  0  0  0  0  0  0  0  0  0  0  0
    7.2248    1.2771    0.1771 C   0  0  0  0  0  0  0  0  0  0  0  0
    8.6080    1.3611    0.6884 C   0  0  0  0  0  0  0  0  0  0  0  0
    6.3117    0.3527    0.6327 C   0  0  0  0  0  0  0  0  0  0  0  0
    5.0249    0.3419    0.0949 C   0  0  0  0  0  0  0  0  0  0  0  0
    6.7037   -0.6030    1.6728 C   0  0  0  0  0  0  0  0  0  0  0  0
    7.7717   -1.4104    1.2831 F   0  0  0  0  0  0  0  0  0  0  0  0
    7.0432   -0.0205    2.8766 F   0  0  0  0  0  0  0  0  0  0  0  0
    5.6650   -1.4928    1.9559 F   0  0  0  0  0  0  0  0  0  0  0  0
   -1.9879   -1.1745    0.3690 N   0  0  0  0  0  0  0  0  0  0  0  0
   -1.4364   -0.8168    1.5834 C   0  0  0  0  0  0  0  0  0  0  0  0
   -2.2874   -0.1218    2.3009 N   0  0  0  0  0  0  0  0  0  0  0  0
   -3.4101    0.0286    1.6546 C   0  0  0  0  0  0  0  0  0  0  0  0
   -4.5841    0.6299    1.9016 N   0  0  0  0  0  0  0  0  0  0  0  0
   -4.7917    1.3130    3.1436 C   0  0  0  0  0  0  0  0  0  0  0  0
   -5.5761    0.5972    0.9870 C   0  0  0  0  0  0  0  0  0  0  0  0
   -6.6677    1.1654    1.2339 O   0  0  0  0  0  0  0  0  0  0  0  0
   -5.3905   -0.0511   -0.2010 N   0  0  0  0  0  0  0  0  0  0  0  0
   -6.4388   -0.0983   -1.1975 C   0  0  0  0  0  0  0  0  0  0  0  0
   -7.3073   -1.3041   -0.9738 C   0  0  0  0  0  0  0  0  0  0  0  0
   -6.6257   -2.4956   -1.0487 F   0  0  0  0  0  0  0  0  0  0  0  0
   -8.2522   -1.3426   -1.9911 F   0  0  0  0  0  0  0  0  0  0  0  0
   -7.9149   -1.2567    0.2626 F   0  0  0  0  0  0  0  0  0  0  0  0
   -4.2312   -0.6652   -0.4881 C   0  0  0  0  0  0  0  0  0  0  0  0
   -4.0774   -1.2348   -1.5425 O   0  0  0  0  0  0  0  0  0  0  0  0
   -3.2181   -0.6383    0.4325 C   0  0  0  0  0  0  0  0  0  0  0  0
   -2.1375   -3.3126   -1.9301 H   0  0  0  0  0  0  0  0  0  0  0  0
   -1.4924   -1.7310   -2.6770 H   0  0  0  0  0  0  0  0  0  0  0  0
   -0.4519   -2.9764   -2.0909 H   0  0  0  0  0  0  0  0  0  0  0  0
   -0.8482   -2.8277    0.0984 H   0  0  0  0  0  0  0  0  0  0  0  0
   -0.8110    0.1305   -2.1957 H   0  0  0  0  0  0  0  0  0  0  0  0
    0.3586    2.0835   -3.4816 H   0  0  0  0  0  0  0  0  0  0  0  0
    5.4130    2.8946   -2.0713 H   0  0  0  0  0  0  0  0  0  0  0  0
    9.1360    2.2061    0.2100 H   0  0  0  0  0  0  0  0  0  0  0  0
    8.6321    1.5454    1.7925 H   0  0  0  0  0  0  0  0  0  0  0  0
    9.2057    0.4427    0.4621 H   0  0  0  0  0  0  0  0  0  0  0  0
    4.2819   -0.3594    0.4192 H   0  0  0  0  0  0  0  0  0  0  0  0
   -0.4373   -1.0431    1.9662 H   0  0  0  0  0  0  0  0  0  0  0  0
   -4.1673    0.8562    3.9495 H   0  0  0  0  0  0  0  0  0  0  0  0
   -4.5546    2.3892    3.0328 H   0  0  0  0  0  0  0  0  0  0  0  0
   -5.8385    1.2595    3.5109 H   0  0  0  0  0  0  0  0  0  0  0  0
   -6.0045   -0.1103   -2.2123 H   0  0  0  0  0  0  0  0  0  0  0  0
   -7.0944    0.7937   -1.0602 H   0  0  0  0  0  0  0  0  0  0  0  0
  1  2  1  0
  2  3  1  0
  3  4  2  0
  3  5  1  0
  5  6  1  0
  6  7  2  0
  7  8  1  0
  8  9  1  0
  9 10  2  0
  9 11  1  0
 11 12  2  0
 12 13  1  0
 13 14  2  0
 14 15  1  0
 14 16  1  0
 16 17  2  0
 16 18  1  0
 18 19  1  0
 18 20  1  0
 18 21  1  0
  2 22  1  0
 22 23  1  0
 23 24  2  0
 24 25  1  0
 25 26  1  0
 26 27  1  0
 26 28  1  0
 28 29  2  0
 28 30  1  0
 30 31  1  0
 31 32  1  0
 32 33  1  0
 32 34  1  0
 32 35  1  0
 30 36  1  0
 36 37  2  0
 36 38  1  0
 10  6  1  0
 17 11  1  0
 38 22  1  0
 38 25  2  0
  1 39  1  0
  1 40  1  0
  1 41  1  0
  2 42  1  1
  5 43  1  0
  7 44  1  0
 12 45  1  0
 15 46  1  0
 15 47  1  0
 15 48  1  0
 17 49  1  0
 23 50  1  0
 27 51  1  0
 27 52  1  0
 27 53  1  0
 31 54  1  0
 31 55  1  0
M  END
$$$$
[H]c1c(C([H])([H])n2c(=O)c3c(nc([H])n3C([H])([H])C(=O)N([H])[H])n(C([H])([H])[H])c2=O)noc1C([H])([H])[H]
     RDKit          3D

 37 39  0  0  0  0  0  0  0  0999 V2000
    4.7997    1.9319    1.1391 C   0  0  0  0  0  0  0  0  0  0  0  0
    4.0968    1.1258    0.1031 C   0  0  0  0  0  0  0  0  0  0  0  0
    2.8441    1.4099   -0.4533 C   0  0  0  0  0  0  0  0  0  0  0  0
    2.5746    0.4204   -1.3601 C   0  0  0  0  0  0  0  0  0  0  0  0
    1.3966    0.2633   -2.1987 C   0  0  0  0  0  0  0  0  0  0  0  0
    0.3226   -0.4684   -1.5704 N   0  0  0  0  0  0  0  0  0  0  0  0
    0.1889   -1.8027   -1.6399 C   0  0  0  0  0  0  0  0  0  0  0  0
    1.0474   -2.4844   -2.2942 O   0  0  0  0  0  0  0  0  0  0  0  0
   -0.8210   -2.4632   -1.0447 N   0  0  0  0  0  0  0  0  0  0  0  0
   -0.9108   -3.9110   -1.1544 C   0  0  0  0  0  0  0  0  0  0  0  0
   -1.7268   -1.7461   -0.3550 C   0  0  0  0  0  0  0  0  0  0  0  0
   -2.8294   -2.0746    0.3367 N   0  0  0  0  0  0  0  0  0  0  0  0
   -3.3832   -0.9561    0.8378 C   0  0  0  0  0  0  0  0  0  0  0  0
   -2.6367    0.1292    0.4724 N   0  0  0  0  0  0  0  0  0  0  0  0
   -2.9772    1.4747    0.8829 C   0  0  0  0  0  0  0  0  0  0  0  0
   -2.3972    1.8280    2.2017 C   0  0  0  0  0  0  0  0  0  0  0  0
   -3.0753    1.4993    3.3974 N   0  0  0  0  0  0  0  0  0  0  0  0
   -1.3008    2.4226    2.3152 O   0  0  0  0  0  0  0  0  0  0  0  0
   -1.6357   -0.3542   -0.2502 C   0  0  0  0  0  0  0  0  0  0  0  0
   -0.5808    0.2520   -0.8825 C   0  0  0  0  0  0  0  0  0  0  0  0
   -0.4772    1.5248   -0.8026 O   0  0  0  0  0  0  0  0  0  0  0  0
    3.6259   -0.4158   -1.3407 N   0  0  0  0  0  0  0  0  0  0  0  0
    4.4814    0.0356   -0.4773 O   0  0  0  0  0  0  0  0  0  0  0  0
    5.2091    1.2406    1.8863 H   0  0  0  0  0  0  0  0  0  0  0  0
    4.0809    2.6717    1.5345 H   0  0  0  0  0  0  0  0  0  0  0  0
    5.6708    2.4577    0.6629 H   0  0  0  0  0  0  0  0  0  0  0  0
    2.2450    2.2609   -0.1865 H   0  0  0  0  0  0  0  0  0  0  0  0
    0.9668    1.2314   -2.5568 H   0  0  0  0  0  0  0  0  0  0  0  0
    1.6378   -0.3119   -3.1318 H   0  0  0  0  0  0  0  0  0  0  0  0
    0.0456   -4.3911   -0.8644 H   0  0  0  0  0  0  0  0  0  0  0  0
   -1.1495   -4.2394   -2.1881 H   0  0  0  0  0  0  0  0  0  0  0  0
   -1.7254   -4.2589   -0.4906 H   0  0  0  0  0  0  0  0  0  0  0  0
   -4.2742   -0.9355    1.4310 H   0  0  0  0  0  0  0  0  0  0  0  0
   -4.0706    1.6317    0.9575 H   0  0  0  0  0  0  0  0  0  0  0  0
   -2.6306    2.2492    0.1432 H   0  0  0  0  0  0  0  0  0  0  0  0
   -2.5628    1.0118    4.1486 H   0  0  0  0  0  0  0  0  0  0  0  0
   -4.0688    1.7409    3.5214 H   0  0  0  0  0  0  0  0  0  0  0  0
  1  2  1  0
  2  3  2  0
  3  4  1  0
  4  5  1  0
  5  6  1  0
  6  7  1  0
  7  8  2  0
  7  9  1  0
  9 10  1  0
  9 11  1  0
 11 12  1  0
 12 13  2  0
 13 14  1  0
 14 15  1  0
 15 16  1  0
 16 17  1  0
 16 18  2  0
 14 19  1  0
 19 20  1  0
 20 21  2  0
  4 22  2  0
 22 23  1  0
 23  2  1  0
 20  6  1  0
 19 11  2  0
  1 24  1  0
  1 25  1  0
  1 26  1  0
  3 27  1  0
  5 28  1  0
  5 29  1  0
 10 30  1  0
 10 31  1  0
 10 32  1  0
 13 33  1  0
 15 34  1  0
 15 35  1  0
 17 36  1  0
 17 37  1  0
M  END
$$$$
[H]c1nc(C(F)(F)F)c(C([H])([H])[H])c([H])c1-c1nc(N([H])C(=O)C([H])([H])n2c([H])nc3c2c(=O)n(C([H])([H])c2onc(C([H])([H])[H])c2[H])c(=O)n3C([H])([H])[H])c([H])c([H])c1[H]
     RDKit          3D

 61 65  0  0  0  0  0  0  0  0999 V2000
   -6.0233    1.0851   -4.2526 C   0  0  0  0  0  0  0  0  0  0  0  0
   -6.0006   -0.1138   -3.3930 C   0  0  0  0  0  0  0  0  0  0  0  0
   -4.8939   -0.6884   -2.7848 C   0  0  0  0  0  0  0  0  0  0  0  0
   -5.3209   -1.7912   -2.0743 C   0  0  0  0  0  0  0  0  0  0  0  0
   -4.4382   -2.6842   -1.2791 C   0  0  0  0  0  0  0  0  0  0  0  0
   -4.3177   -2.2159    0.1071 N   0  0  0  0  0  0  0  0  0  0  0  0
   -5.1648   -2.6270    1.0603 C   0  0  0  0  0  0  0  0  0  0  0  0
   -6.0777   -3.4301    0.7500 O   0  0  0  0  0  0  0  0  0  0  0  0
   -5.0906   -2.2265    2.3306 N   0  0  0  0  0  0  0  0  0  0  0  0
   -6.0049   -2.6692    3.3631 C   0  0  0  0  0  0  0  0  0  0  0  0
   -4.1230   -1.3659    2.6938 C   0  0  0  0  0  0  0  0  0  0  0  0
   -3.7849   -0.7856    3.8703 N   0  0  0  0  0  0  0  0  0  0  0  0
   -2.7147   -0.0029    3.6489 C   0  0  0  0  0  0  0  0  0  0  0  0
   -2.3563   -0.0640    2.3640 N   0  0  0  0  0  0  0  0  0  0  0  0
   -1.2453    0.6490    1.7172 C   0  0  0  0  0  0  0  0  0  0  0  0
   -0.0427   -0.1941    1.7590 C   0  0  0  0  0  0  0  0  0  0  0  0
   -0.1718   -1.3727    2.3282 O   0  0  0  0  0  0  0  0  0  0  0  0
    1.2265    0.0732    1.2796 N   0  0  0  0  0  0  0  0  0  0  0  0
    1.8142    1.1641    0.6272 C   0  0  0  0  0  0  0  0  0  0  0  0
    1.1639    2.3084    0.3154 C   0  0  0  0  0  0  0  0  0  0  0  0
    1.8626    3.3246   -0.3416 C   0  0  0  0  0  0  0  0  0  0  0  0
    3.1838    3.1192   -0.6443 C   0  0  0  0  0  0  0  0  0  0  0  0
    3.8518    1.9646   -0.3331 C   0  0  0  0  0  0  0  0  0  0  0  0
    3.1438    1.0152    0.2971 N   0  0  0  0  0  0  0  0  0  0  0  0
    5.2745    1.7420   -0.6591 C   0  0  0  0  0  0  0  0  0  0  0  0
    6.0120    2.6830   -1.2934 C   0  0  0  0  0  0  0  0  0  0  0  0
    7.3022    2.4191   -1.5623 N   0  0  0  0  0  0  0  0  0  0  0  0
    7.8999    1.2540   -1.2279 C   0  0  0  0  0  0  0  0  0  0  0  0
    7.1854    0.2726   -0.5827 C   0  0  0  0  0  0  0  0  0  0  0  0
    7.7859   -1.0120   -0.1964 C   0  0  0  0  0  0  0  0  0  0  0  0
    5.8520    0.5335   -0.2995 C   0  0  0  0  0  0  0  0  0  0  0  0
    9.3321    1.0516   -1.5664 C   0  0  0  0  0  0  0  0  0  0  0  0
   10.0804    0.8296   -0.4156 F   0  0  0  0  0  0  0  0  0  0  0  0
    9.5091    0.0354   -2.4951 F   0  0  0  0  0  0  0  0  0  0  0  0
    9.8480    2.2250   -2.1158 F   0  0  0  0  0  0  0  0  0  0  0  0
   -3.2015   -0.8927    1.7524 C   0  0  0  0  0  0  0  0  0  0  0  0
   -3.3419   -1.3545    0.4492 C   0  0  0  0  0  0  0  0  0  0  0  0
   -2.5290   -0.9486   -0.4201 O   0  0  0  0  0  0  0  0  0  0  0  0
   -6.6242   -1.8636   -2.2560 O   0  0  0  0  0  0  0  0  0  0  0  0
   -7.0360   -0.8970   -3.0195 N   0  0  0  0  0  0  0  0  0  0  0  0
   -5.4622    1.8975   -3.7157 H   0  0  0  0  0  0  0  0  0  0  0  0
   -5.5595    0.9340   -5.2289 H   0  0  0  0  0  0  0  0  0  0  0  0
   -7.0768    1.4743   -4.3156 H   0  0  0  0  0  0  0  0  0  0  0  0
   -3.8904   -0.2848   -2.8930 H   0  0  0  0  0  0  0  0  0  0  0  0
   -3.4303   -2.7514   -1.7005 H   0  0  0  0  0  0  0  0  0  0  0  0
   -4.8949   -3.7018   -1.2825 H   0  0  0  0  0  0  0  0  0  0  0  0
   -5.5329   -3.5707    3.8520 H   0  0  0  0  0  0  0  0  0  0  0  0
   -7.0002   -2.9213    2.9411 H   0  0  0  0  0  0  0  0  0  0  0  0
   -6.0819   -1.9063    4.1546 H   0  0  0  0  0  0  0  0  0  0  0  0
   -2.1764    0.6146    4.3756 H   0  0  0  0  0  0  0  0  0  0  0  0
   -1.4990    0.9073    0.6976 H   0  0  0  0  0  0  0  0  0  0  0  0
   -1.0086    1.5654    2.3090 H   0  0  0  0  0  0  0  0  0  0  0  0
    1.9504   -0.7504    1.4463 H   0  0  0  0  0  0  0  0  0  0  0  0
    0.1413    2.4721    0.5497 H   0  0  0  0  0  0  0  0  0  0  0  0
    1.3232    4.2318   -0.5818 H   0  0  0  0  0  0  0  0  0  0  0  0
    3.7107    3.9198   -1.1549 H   0  0  0  0  0  0  0  0  0  0  0  0
    5.6300    3.6283   -1.5954 H   0  0  0  0  0  0  0  0  0  0  0  0
    8.5915   -0.9036    0.5650 H   0  0  0  0  0  0  0  0  0  0  0  0
    8.1409   -1.5227   -1.1229 H   0  0  0  0  0  0  0  0  0  0  0  0
    7.0085   -1.6456    0.3056 H   0  0  0  0  0  0  0  0  0  0  0  0
    5.2920   -0.2359    0.2062 H   0  0  0  0  0  0  0  0  0  0  0  0
  1  2  1  0
  2  3  1  0
  3  4  2  0
  4  5  1  0
  5  6  1  0
  6  7  1  0
  7  8  2  0
  7  9  1  0
  9 10  1  0
  9 11  1  0
 11 12  1  0
 12 13  2  0
 13 14  1  0
 14 15  1  0
 15 16  1  0
 16 17  2  0
 16 18  1  0
 18 19  1  0
 19 20  2  0
 20 21  1  0
 21 22  2  0
 22 23  1  0
 23 24  2  0
 23 25  1  0
 25 26  2  0
 26 27  1  0
 27 28  2  0
 28 29  1  0
 29 30  1  0
 29 31  2  0
 28 32  1  0
 32 33  1  0
 32 34  1  0
 32 35  1  0
 14 36  1  0
 36 37  1  0
 37 38  2  0
  4 39  1  0
 39 40  1  0
 40  2  2  0
 37  6  1  0
 36 11  2  0
 24 19  1  0
 31 25  1  0
  1 41  1  0
  1 42  1  0
  1 43  1  0
  3 44  1  0
  5 45  1  0
  5 46  1  0
 10 47  1  0
 10 48  1  0
 10 49  1  0
 13 50  1  0
 15 51  1  0
 15 52  1  0
 18 53  1  0
 20 54  1  0
 21 55  1  0
 22 56  1  0
 26 57  1  0
 30 58  1  0
 30 59  1  0
 30 60  1  0
 31 61  1  0
M  END
$$$$
[H]C([H])([H])C([H])([H])C([H])(N=C=S)C([H])([H])[H]
     RDKit          3D

 16 15  0  0  0  0  0  0  0  0999 V2000
   -1.7436    1.1019    0.2251 C   0  0  0  0  0  0  0  0  0  0  0  0
   -0.7496    0.2555   -0.4957 C   0  0  0  0  0  0  0  0  0  0  0  0
    0.0373   -0.6611    0.3918 C   0  0  0  0  0  0  0  0  0  0  0  0
    0.9969   -1.4444   -0.5013 C   0  0  0  0  0  0  0  0  0  0  0  0
    0.8491    0.0641    1.3414 N   0  0  0  0  0  0  0  0  0  0  0  0
    1.9005    0.6913    1.0104 C   0  0  0  0  0  0  0  0  0  0  0  0
    3.0632    1.6569    0.4599 S   0  0  0  0  0  0  0  0  0  0  0  0
   -1.7407    0.9532    1.3253 H   0  0  0  0  0  0  0  0  0  0  0  0
   -2.7973    0.9719   -0.1626 H   0  0  0  0  0  0  0  0  0  0  0  0
   -1.5049    2.1801   -0.0141 H   0  0  0  0  0  0  0  0  0  0  0  0
   -0.0008    0.8665   -1.0696 H   0  0  0  0  0  0  0  0  0  0  0  0
   -1.2863   -0.3605   -1.2456 H   0  0  0  0  0  0  0  0  0  0  0  0
   -0.5850   -1.3859    0.9417 H   0  0  0  0  0  0  0  0  0  0  0  0
    1.8698   -1.8155    0.0535 H   0  0  0  0  0  0  0  0  0  0  0  0
    1.3154   -0.7931   -1.3228 H   0  0  0  0  0  0  0  0  0  0  0  0
    0.3759   -2.2806   -0.9376 H   0  0  0  0  0  0  0  0  0  0  0  0
  1  2  1  0
  2  3  1  0
  3  4  1  0
  3  5  1  0
  5  6  2  3
  6  7  2  0
  1  8  1  0
  1  9  1  0
  1 10  1  0
  2 11  1  0
  2 12  1  0
  3 13  1  0
  4 14  1  0
  4 15  1  0
  4 16  1  0
M  END
$$$$
[H]c1nc(N2C([H])([H])C3([H])C([H])([H])C3([H])C2([H])[H])c([H])c([H])c1-c1nc(N([H])C(=O)[C@@]([H])(n2c([H])nc3c2c(=O)n(C([H])([H])C#N)c(=O)n3C([H])([H])[H])C([H])([H])[H])c([H])s1
     RDKit          3D

 60 65  0  0  0  0  0  0  0  0999 V2000
   -3.0251    2.0909    1.7951 C   0  0  0  0  0  0  0  0  0  0  0  0
   -3.2803    0.8527    0.9171 C   0  0  1  0  0  0  0  0  0  0  0  0
   -2.3466   -0.2183    1.2849 C   0  0  0  0  0  0  0  0  0  0  0  0
   -2.9388   -1.2110    1.9420 O   0  0  0  0  0  0  0  0  0  0  0  0
   -1.0166   -0.3983    1.0992 N   0  0  0  0  0  0  0  0  0  0  0  0
   -0.0700    0.4005    0.3972 C   0  0  0  0  0  0  0  0  0  0  0  0
   -0.3496    1.5090   -0.3483 C   0  0  0  0  0  0  0  0  0  0  0  0
    1.2279    2.0048   -0.8711 S   0  0  0  0  0  0  0  0  0  0  0  0
    2.1312    0.7839   -0.1176 C   0  0  0  0  0  0  0  0  0  0  0  0
    1.2181    0.0808    0.4767 N   0  0  0  0  0  0  0  0  0  0  0  0
    3.6082    0.5674   -0.1297 C   0  0  0  0  0  0  0  0  0  0  0  0
    4.1317   -0.5012    0.5576 C   0  0  0  0  0  0  0  0  0  0  0  0
    5.4975   -0.7329    0.5691 C   0  0  0  0  0  0  0  0  0  0  0  0
    6.2841    0.1610   -0.1401 C   0  0  0  0  0  0  0  0  0  0  0  0
    5.7268    1.2078   -0.8084 N   0  0  0  0  0  0  0  0  0  0  0  0
    4.3993    1.4331   -0.8198 C   0  0  0  0  0  0  0  0  0  0  0  0
    7.6836   -0.0547   -0.1437 N   0  0  0  0  0  0  0  0  0  0  0  0
    8.4141   -1.1162    0.5121 C   0  0  0  0  0  0  0  0  0  0  0  0
    9.6709   -1.3282   -0.3145 C   0  0  0  0  0  0  0  0  0  0  0  0
    9.5354   -1.4011   -1.7984 C   0  0  0  0  0  0  0  0  0  0  0  0
    9.8386   -0.1088   -1.1161 C   0  0  0  0  0  0  0  0  0  0  0  0
    8.6489    0.7932   -0.8371 C   0  0  0  0  0  0  0  0  0  0  0  0
   -4.6307    0.4224    1.2991 N   0  0  0  0  0  0  0  0  0  0  0  0
   -5.0227    0.4025    2.5861 C   0  0  0  0  0  0  0  0  0  0  0  0
   -6.2885   -0.0298    2.6614 N   0  0  0  0  0  0  0  0  0  0  0  0
   -6.7243   -0.2937    1.4133 C   0  0  0  0  0  0  0  0  0  0  0  0
   -7.8582   -0.7368    0.8749 N   0  0  0  0  0  0  0  0  0  0  0  0
   -8.9623   -1.0373    1.7850 C   0  0  0  0  0  0  0  0  0  0  0  0
   -8.0062   -0.9086   -0.4429 C   0  0  0  0  0  0  0  0  0  0  0  0
   -9.0954   -1.3294   -0.9068 O   0  0  0  0  0  0  0  0  0  0  0  0
   -6.9610   -0.6207   -1.2663 N   0  0  0  0  0  0  0  0  0  0  0  0
   -7.0910   -0.7953   -2.7028 C   0  0  0  0  0  0  0  0  0  0  0  0
   -7.5829    0.4788   -3.2384 C   0  0  0  0  0  0  0  0  0  0  0  0
   -7.9640    1.4895   -3.6699 N   0  0  0  0  0  0  0  0  0  0  0  0
   -5.7775   -0.1668   -0.7998 C   0  0  0  0  0  0  0  0  0  0  0  0
   -4.8187    0.0957   -1.5675 O   0  0  0  0  0  0  0  0  0  0  0  0
   -5.6508    0.0017    0.5616 C   0  0  0  0  0  0  0  0  0  0  0  0
   -2.1200    1.8778    2.4378 H   0  0  0  0  0  0  0  0  0  0  0  0
   -2.7232    2.9205    1.1390 H   0  0  0  0  0  0  0  0  0  0  0  0
   -3.8792    2.3384    2.4220 H   0  0  0  0  0  0  0  0  0  0  0  0
   -3.2579    1.1826   -0.1126 H   0  0  0  0  0  0  0  0  0  0  0  0
   -0.6146   -1.3292    1.5230 H   0  0  0  0  0  0  0  0  0  0  0  0
   -1.2921    2.0055   -0.6080 H   0  0  0  0  0  0  0  0  0  0  0  0
    3.4797   -1.1673    1.0933 H   0  0  0  0  0  0  0  0  0  0  0  0
    5.9355   -1.5701    1.1045 H   0  0  0  0  0  0  0  0  0  0  0  0
    3.9380    2.2542   -1.3413 H   0  0  0  0  0  0  0  0  0  0  0  0
    7.8345   -2.0613    0.5502 H   0  0  0  0  0  0  0  0  0  0  0  0
    8.7226   -0.8504    1.5339 H   0  0  0  0  0  0  0  0  0  0  0  0
   10.4780   -1.8387    0.2161 H   0  0  0  0  0  0  0  0  0  0  0  0
    8.5380   -1.5102   -2.2626 H   0  0  0  0  0  0  0  0  0  0  0  0
   10.3537   -1.9032   -2.3418 H   0  0  0  0  0  0  0  0  0  0  0  0
   10.8359    0.3619   -1.2359 H   0  0  0  0  0  0  0  0  0  0  0  0
    8.9301    1.6534   -0.2020 H   0  0  0  0  0  0  0  0  0  0  0  0
    8.2291    1.0871   -1.8200 H   0  0  0  0  0  0  0  0  0  0  0  0
   -4.4396    0.6826    3.4600 H   0  0  0  0  0  0  0  0  0  0  0  0
   -8.9126   -0.3103    2.6159 H   0  0  0  0  0  0  0  0  0  0  0  0
   -9.9315   -0.9624    1.2694 H   0  0  0  0  0  0  0  0  0  0  0  0
   -8.7939   -2.0579    2.2252 H   0  0  0  0  0  0  0  0  0  0  0  0
   -6.0770   -0.9654   -3.1098 H   0  0  0  0  0  0  0  0  0  0  0  0
   -7.7885   -1.6241   -2.9491 H   0  0  0  0  0  0  0  0  0  0  0  0
  1  2  1  0
  2  3  1  0
  3  4  2  0
  3  5  1  0
  5  6  1  0
  6  7  2  0
  7  8  1  0
  8  9  1  0
  9 10  2  0
  9 11  1  0
 11 12  2  0
 12 13  1  0
 13 14  2  0
 14 15  1  0
 15 16  2  0
 14 17  1  0
 17 18  1  0
 18 19  1  0
 19 20  1  0
 20 21  1  0
 21 22  1  0
  2 23  1  0
 23 24  1  0
 24 25  2  0
 25 26  1  0
 26 27  1  0
 27 28  1  0
 27 29  1  0
 29 30  2  0
 29 31  1  0
 31 32  1  0
 32 33  1  0
 33 34  3  0
 31 35  1  0
 35 36  2  0
 35 37  1  0
 10  6  1  0
 16 11  1  0
 22 17  1  0
 37 23  1  0
 21 19  1  0
 37 26  2  0
  1 38  1  0
  1 39  1  0
  1 40  1  0
  2 41  1  6
  5 42  1  0
  7 43  1  0
 12 44  1  0
 13 45  1  0
 16 46  1  0
 18 47  1  0
 18 48  1  0
 19 49  1  0
 20 50  1  0
 20 51  1  0
 21 52  1  0
 22 53  1  0
 22 54  1  0
 24 55  1  0
 28 56  1  0
 28 57  1  0
 28 58  1  0
 32 59  1  0
 32 60  1  0
M  END
$$$$
[H]C1=Nc2c([H])c([H])c([H])c([H])c2C([H])([H])c2c(C(=O)N(C([H])([H])C([H])([H])[H])C([H])([H])C([H])([H])[H])c([H])c([H])c([H])c21
     RDKit          3D

 42 44  0  0  0  0  0  0  0  0999 V2000
   -1.0891    1.7350    1.4060 C   0  0  0  0  0  0  0  0  0  0  0  0
   -2.1121    0.6699    1.2379 C   0  0  0  0  0  0  0  0  0  0  0  0
   -2.3323    0.2076   -0.1001 N   0  0  0  0  0  0  0  0  0  0  0  0
   -3.3135    0.8934   -0.9118 C   0  0  0  0  0  0  0  0  0  0  0  0
   -4.6891    0.3211   -0.7900 C   0  0  0  0  0  0  0  0  0  0  0  0
   -1.6101   -0.8905   -0.6163 C   0  0  0  0  0  0  0  0  0  0  0  0
   -1.8894   -1.2443   -1.8187 O   0  0  0  0  0  0  0  0  0  0  0  0
   -0.6021   -1.6563    0.0560 C   0  0  0  0  0  0  0  0  0  0  0  0
   -1.0129   -2.6667    0.9256 C   0  0  0  0  0  0  0  0  0  0  0  0
   -0.0544   -3.3918    1.6151 C   0  0  0  0  0  0  0  0  0  0  0  0
    1.2746   -3.1207    1.4454 C   0  0  0  0  0  0  0  0  0  0  0  0
    1.6538   -2.1093    0.5724 C   0  0  0  0  0  0  0  0  0  0  0  0
    3.1082   -2.0186    0.5717 C   0  0  0  0  0  0  0  0  0  0  0  0
    3.8200   -0.9765    0.2206 N   0  0  0  0  0  0  0  0  0  0  0  0
    3.3201    0.2971   -0.2379 C   0  0  0  0  0  0  0  0  0  0  0  0
    4.2847    1.2882   -0.0339 C   0  0  0  0  0  0  0  0  0  0  0  0
    4.0177    2.5881   -0.4011 C   0  0  0  0  0  0  0  0  0  0  0  0
    2.7849    2.8436   -0.9625 C   0  0  0  0  0  0  0  0  0  0  0  0
    1.8266    1.8749   -1.1683 C   0  0  0  0  0  0  0  0  0  0  0  0
    2.0922    0.5667   -0.8000 C   0  0  0  0  0  0  0  0  0  0  0  0
    0.9563   -0.3173   -1.0992 C   0  0  0  0  0  0  0  0  0  0  0  0
    0.7256   -1.3853   -0.1155 C   0  0  0  0  0  0  0  0  0  0  0  0
   -1.3312    2.4257    2.2507 H   0  0  0  0  0  0  0  0  0  0  0  0
   -0.1156    1.2676    1.6509 H   0  0  0  0  0  0  0  0  0  0  0  0
   -0.9214    2.3081    0.4653 H   0  0  0  0  0  0  0  0  0  0  0  0
   -3.0849    1.0375    1.6319 H   0  0  0  0  0  0  0  0  0  0  0  0
   -1.8326   -0.1622    1.9359 H   0  0  0  0  0  0  0  0  0  0  0  0
   -3.3704    1.9803   -0.6602 H   0  0  0  0  0  0  0  0  0  0  0  0
   -3.0289    0.8711   -2.0011 H   0  0  0  0  0  0  0  0  0  0  0  0
   -5.4865    1.0947   -0.9320 H   0  0  0  0  0  0  0  0  0  0  0  0
   -4.8536   -0.2691    0.1338 H   0  0  0  0  0  0  0  0  0  0  0  0
   -4.8524   -0.4120   -1.6326 H   0  0  0  0  0  0  0  0  0  0  0  0
   -2.0776   -2.8561    1.0371 H   0  0  0  0  0  0  0  0  0  0  0  0
   -0.4152   -4.1703    2.2828 H   0  0  0  0  0  0  0  0  0  0  0  0
    1.9998   -3.7032    1.9975 H   0  0  0  0  0  0  0  0  0  0  0  0
    3.6909   -2.8733    0.8851 H   0  0  0  0  0  0  0  0  0  0  0  0
    5.2404    1.0484    0.4095 H   0  0  0  0  0  0  0  0  0  0  0  0
    4.7490    3.3766   -0.2538 H   0  0  0  0  0  0  0  0  0  0  0  0
    2.5680    3.8560   -1.2522 H   0  0  0  0  0  0  0  0  0  0  0  0
    0.8623    2.0743   -1.6073 H   0  0  0  0  0  0  0  0  0  0  0  0
    0.0314    0.3093   -1.1432 H   0  0  0  0  0  0  0  0  0  0  0  0
    1.0688   -0.7119   -2.1355 H   0  0  0  0  0  0  0  0  0  0  0  0
  1  2  1  0
  2  3  1  0
  3  4  1  0
  4  5  1  0
  3  6  1  0
  6  7  2  0
  6  8  1  0
  8  9  2  0
  9 10  1  0
 10 11  2  0
 11 12  1  0
 12 13  1  0
 13 14  2  0
 14 15  1  0
 15 16  2  0
 16 17  1  0
 17 18  2  0
 18 19  1  0
 19 20  2  0
 20 21  1  0
 21 22  1  0
 22  8  1  0
 22 12  2  0
 20 15  1  0
  1 23  1  0
  1 24  1  0
  1 25  1  0
  2 26  1  0
  2 27  1  0
  4 28  1  0
  4 29  1  0
  5 30  1  0
  5 31  1  0
  5 32  1  0
  9 33  1  0
 10 34  1  0
 11 35  1  0
 13 36  1  0
 16 37  1  0
 17 38  1  0
 18 39  1  0
 19 40  1  0
 21 41  1  0
 21 42  1  0
M  END
$$$$
[H]c1nc(C([H])([H])[H])c(C(F)(F)F)c([H])c1-c1nc(N([H])C(=O)C([H])([H])n2c([H])nc3c2c(=O)n(C([H])([H])C(=O)C([H])([H])C([H])([H])[H])c(=O)n3C([H])([H])[H])c([H])s1
     RDKit          3D

 57 60  0  0  0  0  0  0  0  0999 V2000
   -5.5237    2.3833    2.9443 C   0  0  0  0  0  0  0  0  0  0  0  0
   -6.2362    1.3119    2.1749 C   0  0  0  0  0  0  0  0  0  0  0  0
   -5.4390    0.7801    1.0573 C   0  0  0  0  0  0  0  0  0  0  0  0
   -5.8974   -0.0953    0.3499 O   0  0  0  0  0  0  0  0  0  0  0  0
   -4.0712    1.2801    0.7543 C   0  0  0  0  0  0  0  0  0  0  0  0
   -3.5060    0.5985   -0.3855 N   0  0  0  0  0  0  0  0  0  0  0  0
   -3.7145    1.1196   -1.6255 C   0  0  0  0  0  0  0  0  0  0  0  0
   -4.3903    2.1766   -1.7542 O   0  0  0  0  0  0  0  0  0  0  0  0
   -3.2190    0.5387   -2.7266 N   0  0  0  0  0  0  0  0  0  0  0  0
   -3.4302    1.0777   -4.0514 C   0  0  0  0  0  0  0  0  0  0  0  0
   -2.5004   -0.5864   -2.5820 C   0  0  0  0  0  0  0  0  0  0  0  0
   -1.8667   -1.4175   -3.4445 N   0  0  0  0  0  0  0  0  0  0  0  0
   -1.2947   -2.4083   -2.7422 C   0  0  0  0  0  0  0  0  0  0  0  0
   -1.5334   -2.2559   -1.4289 N   0  0  0  0  0  0  0  0  0  0  0  0
   -1.0599   -3.1461   -0.4239 C   0  0  0  0  0  0  0  0  0  0  0  0
    0.2893   -2.7118    0.0777 C   0  0  0  0  0  0  0  0  0  0  0  0
    0.7995   -1.6733   -0.4275 O   0  0  0  0  0  0  0  0  0  0  0  0
    0.9221   -3.4735    1.0805 N   0  0  0  0  0  0  0  0  0  0  0  0
    2.2179   -3.0594    1.5647 C   0  0  0  0  0  0  0  0  0  0  0  0
    2.8739   -3.7760    2.5458 C   0  0  0  0  0  0  0  0  0  0  0  0
    4.3112   -2.8797    2.7353 S   0  0  0  0  0  0  0  0  0  0  0  0
    4.0077   -1.6634    1.5782 C   0  0  0  0  0  0  0  0  0  0  0  0
    2.8230   -2.0076    1.1084 N   0  0  0  0  0  0  0  0  0  0  0  0
    4.8457   -0.5073    1.1851 C   0  0  0  0  0  0  0  0  0  0  0  0
    6.0637   -0.2778    1.7661 C   0  0  0  0  0  0  0  0  0  0  0  0
    6.7921    0.8056    1.3620 N   0  0  0  0  0  0  0  0  0  0  0  0
    6.3691    1.6597    0.4184 C   0  0  0  0  0  0  0  0  0  0  0  0
    7.2430    2.8006    0.0602 C   0  0  0  0  0  0  0  0  0  0  0  0
    5.1560    1.4591   -0.1826 C   0  0  0  0  0  0  0  0  0  0  0  0
    4.3989    0.3569    0.2185 C   0  0  0  0  0  0  0  0  0  0  0  0
    4.6582    2.3795   -1.2265 C   0  0  0  0  0  0  0  0  0  0  0  0
    4.5316    3.6772   -0.7478 F   0  0  0  0  0  0  0  0  0  0  0  0
    3.3819    1.9745   -1.5672 F   0  0  0  0  0  0  0  0  0  0  0  0
    5.4073    2.3330   -2.3846 F   0  0  0  0  0  0  0  0  0  0  0  0
   -2.2720   -1.1410   -1.3231 C   0  0  0  0  0  0  0  0  0  0  0  0
   -2.7958   -0.5182   -0.2132 C   0  0  0  0  0  0  0  0  0  0  0  0
   -2.5773   -1.0357    0.9117 O   0  0  0  0  0  0  0  0  0  0  0  0
   -4.6778    1.9336    3.4790 H   0  0  0  0  0  0  0  0  0  0  0  0
   -6.2439    2.8104    3.6768 H   0  0  0  0  0  0  0  0  0  0  0  0
   -5.1998    3.1558    2.2178 H   0  0  0  0  0  0  0  0  0  0  0  0
   -6.4935    0.4924    2.9036 H   0  0  0  0  0  0  0  0  0  0  0  0
   -7.1709    1.7582    1.7492 H   0  0  0  0  0  0  0  0  0  0  0  0
   -4.0496    2.3823    0.6475 H   0  0  0  0  0  0  0  0  0  0  0  0
   -3.4478    1.0606    1.6684 H   0  0  0  0  0  0  0  0  0  0  0  0
   -2.4788    1.1526   -4.6169 H   0  0  0  0  0  0  0  0  0  0  0  0
   -4.0465    0.3165   -4.6090 H   0  0  0  0  0  0  0  0  0  0  0  0
   -3.9648    2.0319   -4.0412 H   0  0  0  0  0  0  0  0  0  0  0  0
   -0.7258   -3.2005   -3.2329 H   0  0  0  0  0  0  0  0  0  0  0  0
   -1.7153   -3.2886    0.4421 H   0  0  0  0  0  0  0  0  0  0  0  0
   -0.9365   -4.1805   -0.8651 H   0  0  0  0  0  0  0  0  0  0  0  0
    0.4807   -4.3068    1.4659 H   0  0  0  0  0  0  0  0  0  0  0  0
    2.5218   -4.6940    3.0545 H   0  0  0  0  0  0  0  0  0  0  0  0
    6.4278   -0.9534    2.5310 H   0  0  0  0  0  0  0  0  0  0  0  0
    6.8386    3.7711    0.3438 H   0  0  0  0  0  0  0  0  0  0  0  0
    8.2392    2.6998    0.5371 H   0  0  0  0  0  0  0  0  0  0  0  0
    7.4436    2.8190   -1.0392 H   0  0  0  0  0  0  0  0  0  0  0  0
    3.4352    0.1611   -0.2300 H   0  0  0  0  0  0  0  0  0  0  0  0
  1  2  1  0
  2  3  1  0
  3  4  2  0
  3  5  1  0
  5  6  1  0
  6  7  1  0
  7  8  2  0
  7  9  1  0
  9 10  1  0
  9 11  1  0
 11 12  1  0
 12 13  2  0
 13 14  1  0
 14 15  1  0
 15 16  1  0
 16 17  2  0
 16 18  1  0
 18 19  1  0
 19 20  2  0
 20 21  1  0
 21 22  1  0
 22 23  2  0
 22 24  1  0
 24 25  2  0
 25 26  1  0
 26 27  2  0
 27 28  1  0
 27 29  1  0
 29 30  2  0
 29 31  1  0
 31 32  1  0
 31 33  1  0
 31 34  1  0
 14 35  1  0
 35 36  1  0
 36 37  2  0
 36  6  1  0
 35 11  2  0
 23 19  1  0
 30 24  1  0
  1 38  1  0
  1 39  1  0
  1 40  1  0
  2 41  1  0
  2 42  1  0
  5 43  1  0
  5 44  1  0
 10 45  1  0
 10 46  1  0
 10 47  1  0
 13 48  1  0
 15 49  1  0
 15 50  1  0
 18 51  1  0
 20 52  1  0
 25 53  1  0
 28 54  1  0
 28 55  1  0
 28 56  1  0
 30 57  1  0
M  END
$$$$
[H]c1nc(OC([H])([H])C([H])([H])[H])c(C(F)(F)F)c([H])c1-c1nc(N([H])C(=O)[C@@]([H])(n2c([H])nc3c2c(=O)n(C([H])([H])c2noc(C([H])([H])[H])c2[H])c(=O)n3C([H])([H])[H])C([H])([H])[H])c([H])c([H])c1[H]
     RDKit          3D

 68 72  0  0  0  0  0  0  0  0999 V2000
    8.3688    3.0971    1.2979 C   0  0  0  0  0  0  0  0  0  0  0  0
    7.7277    1.8085    0.8440 C   0  0  0  0  0  0  0  0  0  0  0  0
    6.3185    1.9576    0.6753 O   0  0  0  0  0  0  0  0  0  0  0  0
    5.6240    0.8310    0.2597 C   0  0  0  0  0  0  0  0  0  0  0  0
    6.2105   -0.3511    0.0193 N   0  0  0  0  0  0  0  0  0  0  0  0
    5.5111   -1.4499   -0.3893 C   0  0  0  0  0  0  0  0  0  0  0  0
    4.1439   -1.4179   -0.5837 C   0  0  0  0  0  0  0  0  0  0  0  0
    3.5264   -0.2147   -0.3419 C   0  0  0  0  0  0  0  0  0  0  0  0
    4.2660    0.8828    0.0721 C   0  0  0  0  0  0  0  0  0  0  0  0
    3.5892    2.1740    0.3289 C   0  0  0  0  0  0  0  0  0  0  0  0
    3.7641    2.5913    1.6410 F   0  0  0  0  0  0  0  0  0  0  0  0
    4.1161    3.1079   -0.5330 F   0  0  0  0  0  0  0  0  0  0  0  0
    2.2441    2.0725    0.0734 F   0  0  0  0  0  0  0  0  0  0  0  0
    3.3957   -2.6041   -1.0127 C   0  0  0  0  0  0  0  0  0  0  0  0
    4.0196   -3.8124   -1.1963 C   0  0  0  0  0  0  0  0  0  0  0  0
    3.2766   -4.8755   -1.5789 C   0  0  0  0  0  0  0  0  0  0  0  0
    1.9267   -4.7299   -1.7750 C   0  0  0  0  0  0  0  0  0  0  0  0
    1.2614   -3.4904   -1.5914 C   0  0  0  0  0  0  0  0  0  0  0  0
   -0.1055   -3.4148   -1.8091 N   0  0  0  0  0  0  0  0  0  0  0  0
   -1.1331   -2.5080   -1.7762 C   0  0  0  0  0  0  0  0  0  0  0  0
   -2.3003   -3.0896   -2.1239 O   0  0  0  0  0  0  0  0  0  0  0  0
   -1.2271   -1.0857   -1.4516 C   0  0  2  0  0  0  0  0  0  0  0  0
   -0.1772   -0.2178   -2.1305 C   0  0  0  0  0  0  0  0  0  0  0  0
   -1.4194   -0.7789   -0.0680 N   0  0  0  0  0  0  0  0  0  0  0  0
   -0.4775   -0.7109    0.8922 C   0  0  0  0  0  0  0  0  0  0  0  0
   -1.0110   -0.3962    2.0821 N   0  0  0  0  0  0  0  0  0  0  0  0
   -2.3355   -0.2522    1.9076 C   0  0  0  0  0  0  0  0  0  0  0  0
   -3.3247    0.0608    2.7822 N   0  0  0  0  0  0  0  0  0  0  0  0
   -3.0030    0.2980    4.1600 C   0  0  0  0  0  0  0  0  0  0  0  0
   -4.5826    0.1379    2.3178 C   0  0  0  0  0  0  0  0  0  0  0  0
   -5.5498    0.4276    3.0937 O   0  0  0  0  0  0  0  0  0  0  0  0
   -4.8697   -0.0854    1.0279 N   0  0  0  0  0  0  0  0  0  0  0  0
   -6.2362    0.0025    0.5724 C   0  0  0  0  0  0  0  0  0  0  0  0
   -6.6086    1.3680    0.1241 C   0  0  0  0  0  0  0  0  0  0  0  0
   -6.5076    1.8933   -1.1430 C   0  0  0  0  0  0  0  0  0  0  0  0
   -6.9809    3.1811   -1.0316 C   0  0  0  0  0  0  0  0  0  0  0  0
   -7.0806    4.1787   -2.1382 C   0  0  0  0  0  0  0  0  0  0  0  0
   -7.3232    3.3629    0.2146 O   0  0  0  0  0  0  0  0  0  0  0  0
   -7.1156    2.3134    0.9191 N   0  0  0  0  0  0  0  0  0  0  0  0
   -3.8996   -0.3994    0.1345 C   0  0  0  0  0  0  0  0  0  0  0  0
   -4.2025   -0.6011   -1.0659 O   0  0  0  0  0  0  0  0  0  0  0  0
   -2.5944   -0.4921    0.5565 C   0  0  0  0  0  0  0  0  0  0  0  0
    2.0609   -2.5040   -1.2175 N   0  0  0  0  0  0  0  0  0  0  0  0
    7.6377    3.7449    1.8464 H   0  0  0  0  0  0  0  0  0  0  0  0
    8.7687    3.6272    0.4041 H   0  0  0  0  0  0  0  0  0  0  0  0
    9.2206    2.8386    1.9544 H   0  0  0  0  0  0  0  0  0  0  0  0
    8.2265    1.5017   -0.1056 H   0  0  0  0  0  0  0  0  0  0  0  0
    7.9475    1.0283    1.6061 H   0  0  0  0  0  0  0  0  0  0  0  0
    6.0340   -2.3707   -0.5680 H   0  0  0  0  0  0  0  0  0  0  0  0
    2.4635   -0.1527   -0.4789 H   0  0  0  0  0  0  0  0  0  0  0  0
    5.0609   -3.9431   -1.0487 H   0  0  0  0  0  0  0  0  0  0  0  0
    3.6840   -5.8783   -1.7497 H   0  0  0  0  0  0  0  0  0  0  0  0
    1.3240   -5.5750   -2.0806 H   0  0  0  0  0  0  0  0  0  0  0  0
   -0.5155   -4.4294   -2.1231 H   0  0  0  0  0  0  0  0  0  0  0  0
   -2.1754   -0.7494   -2.0210 H   0  0  0  0  0  0  0  0  0  0  0  0
   -0.6704    0.6227   -2.7342 H   0  0  0  0  0  0  0  0  0  0  0  0
    0.3268   -0.8079   -2.9152 H   0  0  0  0  0  0  0  0  0  0  0  0
    0.4535    0.3063   -1.4213 H   0  0  0  0  0  0  0  0  0  0  0  0
    0.5765   -0.8881    0.7067 H   0  0  0  0  0  0  0  0  0  0  0  0
   -3.1127   -0.6025    4.7958 H   0  0  0  0  0  0  0  0  0  0  0  0
   -3.7013    1.0991    4.5304 H   0  0  0  0  0  0  0  0  0  0  0  0
   -1.9486    0.6329    4.2440 H   0  0  0  0  0  0  0  0  0  0  0  0
   -6.4153   -0.6776   -0.2827 H   0  0  0  0  0  0  0  0  0  0  0  0
   -6.9275   -0.3534    1.3887 H   0  0  0  0  0  0  0  0  0  0  0  0
   -6.1321    1.3898   -2.0361 H   0  0  0  0  0  0  0  0  0  0  0  0
   -7.7580    3.8061   -2.9387 H   0  0  0  0  0  0  0  0  0  0  0  0
   -7.5598    5.0964   -1.7411 H   0  0  0  0  0  0  0  0  0  0  0  0
   -6.0932    4.4688   -2.5383 H   0  0  0  0  0  0  0  0  0  0  0  0
  1  2  1  0
  2  3  1  0
  3  4  1  0
  4  5  2  0
  5  6  1  0
  6  7  2  0
  7  8  1  0
  8  9  2  0
  9 10  1  0
 10 11  1  0
 10 12  1  0
 10 13  1  0
  7 14  1  0
 14 15  2  0
 15 16  1  0
 16 17  2  0
 17 18  1  0
 18 19  1  0
 19 20  1  0
 20 21  2  0
 20 22  1  0
 22 23  1  0
 22 24  1  0
 24 25  1  0
 25 26  2  0
 26 27  1  0
 27 28  1  0
 28 29  1  0
 28 30  1  0
 30 31  2  0
 30 32  1  0
 32 33  1  0
 33 34  1  0
 34 35  1  0
 35 36  2  0
 36 37  1  0
 36 38  1  0
 38 39  1  0
 32 40  1  0
 40 41  2  0
 40 42  1  0
 18 43  2  0
  9  4  1  0
 43 14  1  0
 42 24  1  0
 42 27  2  0
 39 34  2  0
  1 44  1  0
  1 45  1  0
  1 46  1  0
  2 47  1  0
  2 48  1  0
  6 49  1  0
  8 50  1  0
 15 51  1  0
 16 52  1  0
 17 53  1  0
 19 54  1  0
 22 55  1  6
 23 56  1  0
 23 57  1  0
 23 58  1  0
 25 59  1  0
 29 60  1  0
 29 61  1  0
 29 62  1  0
 33 63  1  0
 33 64  1  0
 35 65  1  0
 37 66  1  0
 37 67  1  0
 37 68  1  0
M  END
$$$$
[H]c1nc(-c2c([H])nc(N3C([H])([H])C([H])([H])C([H])([H])[C@]3([H])C(F)(F)F)nc2[H])nc(N([H])C(=O)[C@@]([H])(n2c([H])nc3c2c(=O)n(C([H])([H])C#N)c(=O)n3C([H])([H])[H])C([H])([H])[H])c1[H]
     RDKit          3D

 63 67  0  0  0  0  0  0  0  0999 V2000
    5.4837   -3.3258   -1.0492 C   0  0  0  0  0  0  0  0  0  0  0  0
    4.4596   -2.2415   -1.1079 C   0  0  1  0  0  0  0  0  0  0  0  0
    3.0930   -2.7194   -1.4824 C   0  0  0  0  0  0  0  0  0  0  0  0
    3.0080   -3.9108   -1.8309 O   0  0  0  0  0  0  0  0  0  0  0  0
    2.0214   -1.8460   -1.4307 N   0  0  0  0  0  0  0  0  0  0  0  0
    0.6756   -2.0808   -1.7785 C   0  0  0  0  0  0  0  0  0  0  0  0
    0.1961   -3.2690   -2.2754 C   0  0  0  0  0  0  0  0  0  0  0  0
   -1.1398   -3.4034   -2.5996 C   0  0  0  0  0  0  0  0  0  0  0  0
   -1.9670   -2.3705   -2.4258 N   0  0  0  0  0  0  0  0  0  0  0  0
   -1.5357   -1.1975   -1.9416 C   0  0  0  0  0  0  0  0  0  0  0  0
   -0.2511   -1.0904   -1.6388 N   0  0  0  0  0  0  0  0  0  0  0  0
   -2.4523   -0.0685   -1.7594 C   0  0  0  0  0  0  0  0  0  0  0  0
   -3.7584   -0.1381   -2.1731 C   0  0  0  0  0  0  0  0  0  0  0  0
   -4.5768    0.9354   -1.9511 N   0  0  0  0  0  0  0  0  0  0  0  0
   -4.1582    2.0486   -1.3468 C   0  0  0  0  0  0  0  0  0  0  0  0
   -2.8638    2.1132   -0.9392 N   0  0  0  0  0  0  0  0  0  0  0  0
   -2.0255    1.0882   -1.1352 C   0  0  0  0  0  0  0  0  0  0  0  0
   -4.9667    3.2060   -1.1085 N   0  0  0  0  0  0  0  0  0  0  0  0
   -4.8286    4.0788    0.0330 C   0  0  0  0  0  0  0  0  0  0  0  0
   -4.9779    5.4464   -0.5946 C   0  0  0  0  0  0  0  0  0  0  0  0
   -5.9694    5.2090   -1.7186 C   0  0  0  0  0  0  0  0  0  0  0  0
   -6.0012    3.7052   -1.9526 C   0  0  2  0  0  0  0  0  0  0  0  0
   -7.3867    3.2091   -1.6060 C   0  0  0  0  0  0  0  0  0  0  0  0
   -7.5076    1.8458   -1.6779 F   0  0  0  0  0  0  0  0  0  0  0  0
   -7.7884    3.5979   -0.3544 F   0  0  0  0  0  0  0  0  0  0  0  0
   -8.2911    3.7414   -2.5379 F   0  0  0  0  0  0  0  0  0  0  0  0
    4.5044   -1.2623   -0.0725 N   0  0  0  0  0  0  0  0  0  0  0  0
    4.8188    0.0631   -0.1867 C   0  0  0  0  0  0  0  0  0  0  0  0
    4.7705    0.6811    0.9925 N   0  0  0  0  0  0  0  0  0  0  0  0
    4.4161   -0.2357    1.9391 C   0  0  0  0  0  0  0  0  0  0  0  0
    4.2492   -0.0769    3.2701 N   0  0  0  0  0  0  0  0  0  0  0  0
    4.4408    1.2162    3.8882 C   0  0  0  0  0  0  0  0  0  0  0  0
    3.9040   -1.1717    3.9577 C   0  0  0  0  0  0  0  0  0  0  0  0
    3.7281   -1.1149    5.2112 O   0  0  0  0  0  0  0  0  0  0  0  0
    3.7344   -2.3685    3.3364 N   0  0  0  0  0  0  0  0  0  0  0  0
    3.3644   -3.5307    4.1245 C   0  0  0  0  0  0  0  0  0  0  0  0
    1.8989   -3.6094    4.1764 C   0  0  0  0  0  0  0  0  0  0  0  0
    0.7391   -3.6687    4.2263 N   0  0  0  0  0  0  0  0  0  0  0  0
    3.8978   -2.5353    2.0129 C   0  0  0  0  0  0  0  0  0  0  0  0
    3.7461   -3.6186    1.4329 O   0  0  0  0  0  0  0  0  0  0  0  0
    4.2570   -1.4226    1.2630 C   0  0  0  0  0  0  0  0  0  0  0  0
    4.9711   -4.3173   -1.0803 H   0  0  0  0  0  0  0  0  0  0  0  0
    6.1638   -3.2445   -0.1483 H   0  0  0  0  0  0  0  0  0  0  0  0
    6.1969   -3.3532   -1.9041 H   0  0  0  0  0  0  0  0  0  0  0  0
    4.7443   -1.6655   -2.0657 H   0  0  0  0  0  0  0  0  0  0  0  0
    2.2391   -0.8438   -1.1045 H   0  0  0  0  0  0  0  0  0  0  0  0
    0.8276   -4.1337   -2.4338 H   0  0  0  0  0  0  0  0  0  0  0  0
   -1.5302   -4.3376   -2.9920 H   0  0  0  0  0  0  0  0  0  0  0  0
   -4.1494   -1.0141   -2.6681 H   0  0  0  0  0  0  0  0  0  0  0  0
   -0.9817    1.1032   -0.8252 H   0  0  0  0  0  0  0  0  0  0  0  0
   -3.8293    3.9383    0.5062 H   0  0  0  0  0  0  0  0  0  0  0  0
   -5.6330    3.9264    0.7795 H   0  0  0  0  0  0  0  0  0  0  0  0
   -5.4373    6.1381    0.1479 H   0  0  0  0  0  0  0  0  0  0  0  0
   -4.0027    5.8008   -0.9681 H   0  0  0  0  0  0  0  0  0  0  0  0
   -5.6217    5.6881   -2.6578 H   0  0  0  0  0  0  0  0  0  0  0  0
   -6.9894    5.5857   -1.4370 H   0  0  0  0  0  0  0  0  0  0  0  0
   -5.8085    3.4809   -3.0305 H   0  0  0  0  0  0  0  0  0  0  0  0
    5.0745    0.5065   -1.1673 H   0  0  0  0  0  0  0  0  0  0  0  0
    4.1805    1.1496    4.9554 H   0  0  0  0  0  0  0  0  0  0  0  0
    3.6744    1.8954    3.4133 H   0  0  0  0  0  0  0  0  0  0  0  0
    5.4567    1.6170    3.6959 H   0  0  0  0  0  0  0  0  0  0  0  0
    3.7066   -3.3590    5.1691 H   0  0  0  0  0  0  0  0  0  0  0  0
    3.7871   -4.4698    3.7214 H   0  0  0  0  0  0  0  0  0  0  0  0
  1  2  1  0
  2  3  1  0
  3  4  2  0
  3  5  1  0
  5  6  1  0
  6  7  2  0
  7  8  1  0
  8  9  2  0
  9 10  1  0
 10 11  2  0
 10 12  1  0
 12 13  2  0
 13 14  1  0
 14 15  2  0
 15 16  1  0
 16 17  2  0
 15 18  1  0
 18 19  1  0
 19 20  1  0
 20 21  1  0
 21 22  1  0
 22 23  1  0
 23 24  1  0
 23 25  1  0
 23 26  1  0
  2 27  1  0
 27 28  1  0
 28 29  2  0
 29 30  1  0
 30 31  1  0
 31 32  1  0
 31 33  1  0
 33 34  2  0
 33 35  1  0
 35 36  1  0
 36 37  1  0
 37 38  3  0
 35 39  1  0
 39 40  2  0
 39 41  1  0
 11  6  1  0
 17 12  1  0
 22 18  1  0
 41 27  1  0
 41 30  2  0
  1 42  1  0
  1 43  1  0
  1 44  1  0
  2 45  1  6
  5 46  1  0
  7 47  1  0
  8 48  1  0
 13 49  1  0
 17 50  1  0
 19 51  1  0
 19 52  1  0
 20 53  1  0
 20 54  1  0
 21 55  1  0
 21 56  1  0
 22 57  1  6
 28 58  1  0
 32 59  1  0
 32 60  1  0
 32 61  1  0
 36 62  1  0
 36 63  1  0
M  END
$$$$
[H]c1c([H])c([C@]2([H])N(S(=O)(=O)c3c([H])c(C([H])([H])[H])c(F)c(C([H])([H])[H])c3[H])C([H])([H])C([H])([H])[C@@]2([H])F)c([H])c([H])c1F
     RDKit          3D

 43 45  0  0  0  0  0  0  0  0999 V2000
    3.6859    3.1739   -1.2296 C   0  0  0  0  0  0  0  0  0  0  0  0
    3.3888    1.8342   -0.6612 C   0  0  0  0  0  0  0  0  0  0  0  0
    2.1768    1.5683   -0.0621 C   0  0  0  0  0  0  0  0  0  0  0  0
    1.8763    0.3173    0.4783 C   0  0  0  0  0  0  0  0  0  0  0  0
    2.8717   -0.6411    0.3756 C   0  0  0  0  0  0  0  0  0  0  0  0
    4.0831   -0.3721   -0.2243 C   0  0  0  0  0  0  0  0  0  0  0  0
    5.1255   -1.4229   -0.3164 C   0  0  0  0  0  0  0  0  0  0  0  0
    4.3667    0.8672   -0.7538 C   0  0  0  0  0  0  0  0  0  0  0  0
    5.5668    1.1233   -1.3447 F   0  0  0  0  0  0  0  0  0  0  0  0
    0.3288    0.0193    1.2356 S   0  0  0  0  0  0  0  0  0  0  0  0
    0.4960   -1.0726    2.2820 O   0  0  0  0  0  0  0  0  0  0  0  0
   -0.1146    1.2356    1.9941 O   0  0  0  0  0  0  0  0  0  0  0  0
   -0.8684   -0.4916    0.0735 N   0  0  0  0  0  0  0  0  0  0  0  0
   -0.4168   -1.7291   -0.5146 C   0  0  0  0  0  0  0  0  0  0  0  0
   -1.0380   -2.8357    0.3359 C   0  0  0  0  0  0  0  0  0  0  0  0
   -2.3881   -2.2150    0.6698 C   0  0  1  0  0  0  0  0  0  0  0  0
   -2.9566   -2.7208    1.7986 F   0  0  0  0  0  0  0  0  0  0  0  0
   -2.1140   -0.7237    0.7408 C   0  0  2  0  0  0  0  0  0  0  0  0
   -3.2391    0.0791    0.1737 C   0  0  0  0  0  0  0  0  0  0  0  0
   -4.5123   -0.4112   -0.0067 C   0  0  0  0  0  0  0  0  0  0  0  0
   -5.5272    0.3833   -0.5512 C   0  0  0  0  0  0  0  0  0  0  0  0
   -5.2857    1.6864   -0.9259 C   0  0  0  0  0  0  0  0  0  0  0  0
   -6.2784    2.4646   -1.4589 F   0  0  0  0  0  0  0  0  0  0  0  0
   -4.0108    2.1775   -0.7450 C   0  0  0  0  0  0  0  0  0  0  0  0
   -3.0129    1.3922   -0.2084 C   0  0  0  0  0  0  0  0  0  0  0  0
    4.6140    3.5710   -0.7290 H   0  0  0  0  0  0  0  0  0  0  0  0
    3.9195    3.1007   -2.3103 H   0  0  0  0  0  0  0  0  0  0  0  0
    2.8867    3.9079   -1.0054 H   0  0  0  0  0  0  0  0  0  0  0  0
    1.3917    2.3148    0.0221 H   0  0  0  0  0  0  0  0  0  0  0  0
    2.6599   -1.6299    0.7949 H   0  0  0  0  0  0  0  0  0  0  0  0
    5.6415   -1.4527    0.6731 H   0  0  0  0  0  0  0  0  0  0  0  0
    4.6999   -2.4345   -0.4688 H   0  0  0  0  0  0  0  0  0  0  0  0
    5.8806   -1.1729   -1.0834 H   0  0  0  0  0  0  0  0  0  0  0  0
    0.6695   -1.8840   -0.4957 H   0  0  0  0  0  0  0  0  0  0  0  0
   -0.7934   -1.8754   -1.5495 H   0  0  0  0  0  0  0  0  0  0  0  0
   -0.4452   -3.0838    1.2169 H   0  0  0  0  0  0  0  0  0  0  0  0
   -1.1639   -3.7491   -0.2815 H   0  0  0  0  0  0  0  0  0  0  0  0
   -3.0551   -2.4043   -0.1979 H   0  0  0  0  0  0  0  0  0  0  0  0
   -1.9951   -0.4974    1.8288 H   0  0  0  0  0  0  0  0  0  0  0  0
   -4.7338   -1.4334    0.2840 H   0  0  0  0  0  0  0  0  0  0  0  0
   -6.5230    0.0009   -0.6929 H   0  0  0  0  0  0  0  0  0  0  0  0
   -3.8337    3.2047   -1.0439 H   0  0  0  0  0  0  0  0  0  0  0  0
   -2.0234    1.8310   -0.0888 H   0  0  0  0  0  0  0  0  0  0  0  0
  1  2  1  0
  2  3  2  0
  3  4  1  0
  4  5  2  0
  5  6  1  0
  6  7  1  0
  6  8  2  0
  8  9  1  0
  4 10  1  0
 10 11  2  0
 10 12  2  0
 10 13  1  0
 13 14  1  0
 14 15  1  0
 15 16  1  0
 16 17  1  0
 16 18  1  0
 18 19  1  0
 19 20  2  0
 20 21  1  0
 21 22  2  0
 22 23  1  0
 22 24  1  0
 24 25  2  0
  8  2  1  0
 18 13  1  0
 25 19  1  0
  1 26  1  0
  1 27  1  0
  1 28  1  0
  3 29  1  0
  5 30  1  0
  7 31  1  0
  7 32  1  0
  7 33  1  0
 14 34  1  0
 14 35  1  0
 15 36  1  0
 15 37  1  0
 16 38  1  6
 18 39  1  1
 20 40  1  0
 21 41  1  0
 24 42  1  0
 25 43  1  0
M  END
$$$$
[H]c1nc(-c2c([H])nc(C(F)(F)F)c([H])c2[H])c([H])c(C([H])([H])N([H])C(=O)C([H])([H])N(c2c([H])c([H])c(F)c([H])c2[H])S(=O)(=O)c2c([H])c([H])c(F)c([H])c2[H])n1
     RDKit          3D

 57 60  0  0  0  0  0  0  0  0999 V2000
   -6.5088   -4.3854    0.7856 F   0  0  0  0  0  0  0  0  0  0  0  0
   -5.6607   -3.3909    0.3434 C   0  0  0  0  0  0  0  0  0  0  0  0
   -5.1003   -3.5968   -0.9114 C   0  0  0  0  0  0  0  0  0  0  0  0
   -4.2477   -2.6373   -1.3847 C   0  0  0  0  0  0  0  0  0  0  0  0
   -3.9220   -1.4939   -0.6893 C   0  0  0  0  0  0  0  0  0  0  0  0
   -4.5100   -1.3334    0.5549 C   0  0  0  0  0  0  0  0  0  0  0  0
   -5.3883   -2.2827    1.0897 C   0  0  0  0  0  0  0  0  0  0  0  0
   -2.9845   -0.5160   -1.1609 N   0  0  0  0  0  0  0  0  0  0  0  0
   -1.6006   -0.7358   -0.9312 C   0  0  0  0  0  0  0  0  0  0  0  0
   -1.0181   -0.3762    0.3706 C   0  0  0  0  0  0  0  0  0  0  0  0
   -1.6415    0.1309    1.3201 O   0  0  0  0  0  0  0  0  0  0  0  0
    0.3975   -0.6719    0.4884 N   0  0  0  0  0  0  0  0  0  0  0  0
    1.0881   -0.3965    1.7205 C   0  0  0  0  0  0  0  0  0  0  0  0
    2.4746   -0.9389    1.5629 C   0  0  0  0  0  0  0  0  0  0  0  0
    3.5445   -0.1655    1.1962 C   0  0  0  0  0  0  0  0  0  0  0  0
    4.7740   -0.7398    1.0627 C   0  0  0  0  0  0  0  0  0  0  0  0
    4.8760   -2.0602    1.3031 N   0  0  0  0  0  0  0  0  0  0  0  0
    3.8462   -2.8358    1.6629 C   0  0  0  0  0  0  0  0  0  0  0  0
    2.6533   -2.2400    1.7837 N   0  0  0  0  0  0  0  0  0  0  0  0
    5.9485   -0.0002    0.6206 C   0  0  0  0  0  0  0  0  0  0  0  0
    7.1470   -0.6850    0.3736 C   0  0  0  0  0  0  0  0  0  0  0  0
    8.2473   -0.0034   -0.0801 C   0  0  0  0  0  0  0  0  0  0  0  0
    8.2169    1.3569   -0.3059 C   0  0  0  0  0  0  0  0  0  0  0  0
    7.0757    2.0081   -0.0679 N   0  0  0  0  0  0  0  0  0  0  0  0
    5.9665    1.3517    0.3852 C   0  0  0  0  0  0  0  0  0  0  0  0
    9.4393    2.0398   -0.8396 C   0  0  0  0  0  0  0  0  0  0  0  0
   10.5538    1.6566   -0.1515 F   0  0  0  0  0  0  0  0  0  0  0  0
    9.3134    3.4013   -0.8360 F   0  0  0  0  0  0  0  0  0  0  0  0
    9.5637    1.6106   -2.1659 F   0  0  0  0  0  0  0  0  0  0  0  0
   -3.5008    0.8883   -2.0031 S   0  0  0  0  0  0  0  0  0  0  0  0
   -2.2745    1.6461   -2.4832 O   0  0  0  0  0  0  0  0  0  0  0  0
   -4.1578    0.3993   -3.2917 O   0  0  0  0  0  0  0  0  0  0  0  0
   -4.5648    1.9144   -1.1069 C   0  0  0  0  0  0  0  0  0  0  0  0
   -5.9586    1.8476   -1.3251 C   0  0  0  0  0  0  0  0  0  0  0  0
   -6.8354    2.6358   -0.6278 C   0  0  0  0  0  0  0  0  0  0  0  0
   -6.3993    3.5276    0.3188 C   0  0  0  0  0  0  0  0  0  0  0  0
   -7.2828    4.3037    1.0118 F   0  0  0  0  0  0  0  0  0  0  0  0
   -5.0460    3.6058    0.5483 C   0  0  0  0  0  0  0  0  0  0  0  0
   -4.1378    2.8030   -0.1629 C   0  0  0  0  0  0  0  0  0  0  0  0
   -5.3282   -4.4733   -1.4806 H   0  0  0  0  0  0  0  0  0  0  0  0
   -3.8156   -2.7971   -2.3689 H   0  0  0  0  0  0  0  0  0  0  0  0
   -4.3442   -0.4747    1.1769 H   0  0  0  0  0  0  0  0  0  0  0  0
   -5.8409   -2.1473    2.0618 H   0  0  0  0  0  0  0  0  0  0  0  0
   -0.9876   -0.1196   -1.6841 H   0  0  0  0  0  0  0  0  0  0  0  0
   -1.2867   -1.7880   -1.2182 H   0  0  0  0  0  0  0  0  0  0  0  0
    0.8773   -1.0753   -0.3280 H   0  0  0  0  0  0  0  0  0  0  0  0
    0.5637   -0.9716    2.5110 H   0  0  0  0  0  0  0  0  0  0  0  0
    1.0786    0.6704    2.0004 H   0  0  0  0  0  0  0  0  0  0  0  0
    3.3947    0.8857    1.0176 H   0  0  0  0  0  0  0  0  0  0  0  0
    3.9369   -3.8920    1.8582 H   0  0  0  0  0  0  0  0  0  0  0  0
    7.1295   -1.7461    0.5622 H   0  0  0  0  0  0  0  0  0  0  0  0
    9.1671   -0.5731   -0.2746 H   0  0  0  0  0  0  0  0  0  0  0  0
    5.0491    1.9222    0.5799 H   0  0  0  0  0  0  0  0  0  0  0  0
   -6.2651    1.1382   -2.0790 H   0  0  0  0  0  0  0  0  0  0  0  0
   -7.9216    2.5786   -0.8062 H   0  0  0  0  0  0  0  0  0  0  0  0
   -4.7118    4.3092    1.2914 H   0  0  0  0  0  0  0  0  0  0  0  0
   -3.0815    2.9123    0.0695 H   0  0  0  0  0  0  0  0  0  0  0  0
  1  2  1  0
  2  3  2  0
  3  4  1  0
  4  5  2  0
  5  6  1  0
  6  7  2  0
  5  8  1  0
  8  9  1  0
  9 10  1  0
 10 11  2  0
 10 12  1  0
 12 13  1  0
 13 14  1  0
 14 15  2  0
 15 16  1  0
 16 17  2  0
 17 18  1  0
 18 19  2  0
 16 20  1  0
 20 21  2  0
 21 22  1  0
 22 23  2  0
 23 24  1  0
 24 25  2  0
 23 26  1  0
 26 27  1  0
 26 28  1  0
 26 29  1  0
  8 30  1  0
 30 31  2  0
 30 32  2  0
 30 33  1  0
 33 34  2  0
 34 35  1  0
 35 36  2  0
 36 37  1  0
 36 38  1  0
 38 39  2  0
  7  2  1  0
 19 14  1  0
 25 20  1  0
 39 33  1  0
  3 40  1  0
  4 41  1  0
  6 42  1  0
  7 43  1  0
  9 44  1  0
  9 45  1  0
 12 46  1  0
 13 47  1  0
 13 48  1  0
 15 49  1  0
 18 50  1  0
 21 51  1  0
 22 52  1  0
 25 53  1  0
 34 54  1  0
 35 55  1  0
 38 56  1  0
 39 57  1  0
M  END
$$$$
[H]c1nc(C(F)(F)F)c(C([H])([H])[H])c([H])c1-c1nc(N([H])C(=O)C([H])([H])n2c([H])nc3c2c(=O)n(C([H])([H])c2nc(C([H])([H])[H])no2)c(=O)n3C([H])([H])[H])c([H])s1
     RDKit          3D

 57 61  0  0  0  0  0  0  0  0999 V2000
    9.9255   -0.6688   -0.3783 C   0  0  0  0  0  0  0  0  0  0  0  0
    8.5315   -1.1298   -0.3938 C   0  0  0  0  0  0  0  0  0  0  0  0
    7.9378   -2.1130    0.3142 N   0  0  0  0  0  0  0  0  0  0  0  0
    6.7016   -2.1660   -0.0246 O   0  0  0  0  0  0  0  0  0  0  0  0
    6.4095   -1.2611   -0.9381 C   0  0  0  0  0  0  0  0  0  0  0  0
    5.0915   -1.0098   -1.5794 C   0  0  0  0  0  0  0  0  0  0  0  0
    4.2667   -0.0839   -0.8566 N   0  0  0  0  0  0  0  0  0  0  0  0
    4.3113    1.2295   -1.1055 C   0  0  0  0  0  0  0  0  0  0  0  0
    5.1042    1.6391   -1.9979 O   0  0  0  0  0  0  0  0  0  0  0  0
    3.5499    2.1134   -0.4454 N   0  0  0  0  0  0  0  0  0  0  0  0
    3.6378    3.5155   -0.7566 C   0  0  0  0  0  0  0  0  0  0  0  0
    2.7165    1.6456    0.4989 C   0  0  0  0  0  0  0  0  0  0  0  0
    1.8307    2.2454    1.3342 N   0  0  0  0  0  0  0  0  0  0  0  0
    1.2393    1.3210    2.0959 C   0  0  0  0  0  0  0  0  0  0  0  0
    1.7210    0.0814    1.7812 N   0  0  0  0  0  0  0  0  0  0  0  0
    1.3110   -1.1616    2.4038 C   0  0  0  0  0  0  0  0  0  0  0  0
    0.1513   -1.7194    1.6019 C   0  0  0  0  0  0  0  0  0  0  0  0
    0.2822   -2.7817    0.9724 O   0  0  0  0  0  0  0  0  0  0  0  0
   -1.0376   -0.9987    1.6045 N   0  0  0  0  0  0  0  0  0  0  0  0
   -2.2538   -1.3794    0.9048 C   0  0  0  0  0  0  0  0  0  0  0  0
   -2.3688   -2.5432    0.2076 C   0  0  0  0  0  0  0  0  0  0  0  0
   -3.9822   -2.4109   -0.4121 S   0  0  0  0  0  0  0  0  0  0  0  0
   -4.3764   -0.8939    0.2614 C   0  0  0  0  0  0  0  0  0  0  0  0
   -3.2836   -0.5750    0.9099 N   0  0  0  0  0  0  0  0  0  0  0  0
   -5.6349   -0.1270    0.1358 C   0  0  0  0  0  0  0  0  0  0  0  0
   -5.8097    1.0931    0.7196 C   0  0  0  0  0  0  0  0  0  0  0  0
   -6.9788    1.7880    0.5839 N   0  0  0  0  0  0  0  0  0  0  0  0
   -7.9854    1.2332   -0.1568 C   0  0  0  0  0  0  0  0  0  0  0  0
   -7.8602    0.0058   -0.7656 C   0  0  0  0  0  0  0  0  0  0  0  0
   -8.9458   -0.6045   -1.5671 C   0  0  0  0  0  0  0  0  0  0  0  0
   -6.6490   -0.6725   -0.6028 C   0  0  0  0  0  0  0  0  0  0  0  0
   -9.2288    2.0094   -0.2762 C   0  0  0  0  0  0  0  0  0  0  0  0
   -9.4561    2.2461   -1.6210 F   0  0  0  0  0  0  0  0  0  0  0  0
   -9.0365    3.2896    0.2774 F   0  0  0  0  0  0  0  0  0  0  0  0
  -10.2991    1.4877    0.3875 F   0  0  0  0  0  0  0  0  0  0  0  0
    2.6217    0.2858    0.8073 C   0  0  0  0  0  0  0  0  0  0  0  0
    3.4263   -0.5537    0.0954 C   0  0  0  0  0  0  0  0  0  0  0  0
    3.4013   -1.7727    0.3110 O   0  0  0  0  0  0  0  0  0  0  0  0
    7.5623   -0.6121   -1.1674 N   0  0  0  0  0  0  0  0  0  0  0  0
   10.4460   -0.8783    0.5787 H   0  0  0  0  0  0  0  0  0  0  0  0
   10.0061    0.4209   -0.5604 H   0  0  0  0  0  0  0  0  0  0  0  0
   10.5103   -1.2107   -1.1577 H   0  0  0  0  0  0  0  0  0  0  0  0
    5.3076   -0.5517   -2.5786 H   0  0  0  0  0  0  0  0  0  0  0  0
    4.5426   -1.9532   -1.8104 H   0  0  0  0  0  0  0  0  0  0  0  0
    4.4109    3.7003   -1.5055 H   0  0  0  0  0  0  0  0  0  0  0  0
    3.9016    4.0791    0.1616 H   0  0  0  0  0  0  0  0  0  0  0  0
    2.6155    3.8073   -1.1247 H   0  0  0  0  0  0  0  0  0  0  0  0
    0.5042    1.5658    2.8340 H   0  0  0  0  0  0  0  0  0  0  0  0
    2.0921   -1.9243    2.3814 H   0  0  0  0  0  0  0  0  0  0  0  0
    1.0098   -1.0364    3.4639 H   0  0  0  0  0  0  0  0  0  0  0  0
   -1.0453   -0.0969    2.1777 H   0  0  0  0  0  0  0  0  0  0  0  0
   -1.6739   -3.3837    0.0426 H   0  0  0  0  0  0  0  0  0  0  0  0
   -5.0012    1.5093    1.2993 H   0  0  0  0  0  0  0  0  0  0  0  0
   -8.9122   -1.7010   -1.3564 H   0  0  0  0  0  0  0  0  0  0  0  0
   -8.7506   -0.5274   -2.6736 H   0  0  0  0  0  0  0  0  0  0  0  0
   -9.9304   -0.1736   -1.3757 H   0  0  0  0  0  0  0  0  0  0  0  0
   -6.5773   -1.6364   -1.0926 H   0  0  0  0  0  0  0  0  0  0  0  0
  1  2  1  0
  2  3  2  0
  3  4  1  0
  4  5  1  0
  5  6  1  0
  6  7  1  0
  7  8  1  0
  8  9  2  0
  8 10  1  0
 10 11  1  0
 10 12  1  0
 12 13  1  0
 13 14  2  0
 14 15  1  0
 15 16  1  0
 16 17  1  0
 17 18  2  0
 17 19  1  0
 19 20  1  0
 20 21  2  0
 21 22  1  0
 22 23  1  0
 23 24  2  0
 23 25  1  0
 25 26  2  0
 26 27  1  0
 27 28  2  0
 28 29  1  0
 29 30  1  0
 29 31  2  0
 28 32  1  0
 32 33  1  0
 32 34  1  0
 32 35  1  0
 15 36  1  0
 36 37  1  0
 37 38  2  0
  5 39  2  0
 39  2  1  0
 37  7  1  0
 36 12  2  0
 24 20  1  0
 31 25  1  0
  1 40  1  0
  1 41  1  0
  1 42  1  0
  6 43  1  0
  6 44  1  0
 11 45  1  0
 11 46  1  0
 11 47  1  0
 14 48  1  0
 16 49  1  0
 16 50  1  0
 19 51  1  0
 21 52  1  0
 26 53  1  0
 30 54  1  0
 30 55  1  0
 30 56  1  0
 31 57  1  0
M  END
$$$$
[H]c1nc(C([H])([H])[H])c(C(F)(F)F)c([H])c1-c1nc(N([H])C(=O)[C@@]([H])(n2c([H])nc3c2c(=O)n(C([H])([H])C(=O)C([H])([H])[H])c(=O)n3C([H])([H])[H])C([H])([H])[H])c([H])s1
     RDKit          3D

 57 60  0  0  0  0  0  0  0  0999 V2000
   -2.0341   -1.4619    3.3130 C   0  0  0  0  0  0  0  0  0  0  0  0
   -1.3031   -0.2909    2.7419 C   0  0  1  0  0  0  0  0  0  0  0  0
   -0.0990   -0.6004    1.9556 C   0  0  0  0  0  0  0  0  0  0  0  0
    0.9608    0.0731    2.1151 O   0  0  0  0  0  0  0  0  0  0  0  0
   -0.0893   -1.6439    1.0093 N   0  0  0  0  0  0  0  0  0  0  0  0
    1.1119   -1.9387    0.2327 C   0  0  0  0  0  0  0  0  0  0  0  0
    1.1219   -2.9572   -0.6904 C   0  0  0  0  0  0  0  0  0  0  0  0
    2.7192   -2.8642   -1.2842 S   0  0  0  0  0  0  0  0  0  0  0  0
    3.2699   -1.5505   -0.3328 C   0  0  0  0  0  0  0  0  0  0  0  0
    2.1991   -1.2588    0.3848 N   0  0  0  0  0  0  0  0  0  0  0  0
    4.5954   -0.9164   -0.3234 C   0  0  0  0  0  0  0  0  0  0  0  0
    4.8625    0.1381    0.5120 C   0  0  0  0  0  0  0  0  0  0  0  0
    6.0927    0.7341    0.5270 N   0  0  0  0  0  0  0  0  0  0  0  0
    7.0980    0.3227   -0.2690 C   0  0  0  0  0  0  0  0  0  0  0  0
    8.4366    0.9723   -0.2539 C   0  0  0  0  0  0  0  0  0  0  0  0
    6.8517   -0.7391   -1.1197 C   0  0  0  0  0  0  0  0  0  0  0  0
    5.5958   -1.3635   -1.1493 C   0  0  0  0  0  0  0  0  0  0  0  0
    7.9409   -1.2231   -2.0150 C   0  0  0  0  0  0  0  0  0  0  0  0
    7.4409   -2.2898   -2.7665 F   0  0  0  0  0  0  0  0  0  0  0  0
    8.4019   -0.2660   -2.8712 F   0  0  0  0  0  0  0  0  0  0  0  0
    8.9700   -1.7977   -1.2556 F   0  0  0  0  0  0  0  0  0  0  0  0
   -2.0591    0.8452    2.3237 N   0  0  0  0  0  0  0  0  0  0  0  0
   -1.8481    2.1438    2.7282 C   0  0  0  0  0  0  0  0  0  0  0  0
   -2.6878    2.9931    2.1882 N   0  0  0  0  0  0  0  0  0  0  0  0
   -3.5008    2.3129    1.3978 C   0  0  0  0  0  0  0  0  0  0  0  0
   -4.5409    2.6441    0.5972 N   0  0  0  0  0  0  0  0  0  0  0  0
   -4.9291    4.0422    0.5277 C   0  0  0  0  0  0  0  0  0  0  0  0
   -5.1993    1.7237   -0.1126 C   0  0  0  0  0  0  0  0  0  0  0  0
   -6.1573    2.0832   -0.8400 O   0  0  0  0  0  0  0  0  0  0  0  0
   -4.8637    0.4247   -0.0685 N   0  0  0  0  0  0  0  0  0  0  0  0
   -5.5581   -0.5649   -0.8214 C   0  0  0  0  0  0  0  0  0  0  0  0
   -5.0306   -0.8203   -2.1566 C   0  0  0  0  0  0  0  0  0  0  0  0
   -5.5164   -0.0698   -3.3360 C   0  0  0  0  0  0  0  0  0  0  0  0
   -4.1759   -1.6601   -2.3298 O   0  0  0  0  0  0  0  0  0  0  0  0
   -3.8237    0.0853    0.7308 C   0  0  0  0  0  0  0  0  0  0  0  0
   -3.5334   -1.1105    0.7549 O   0  0  0  0  0  0  0  0  0  0  0  0
   -3.1092    0.9765    1.4821 C   0  0  0  0  0  0  0  0  0  0  0  0
   -1.6096   -1.8121    4.3151 H   0  0  0  0  0  0  0  0  0  0  0  0
   -1.8532   -2.3434    2.6639 H   0  0  0  0  0  0  0  0  0  0  0  0
   -3.0890   -1.2606    3.5450 H   0  0  0  0  0  0  0  0  0  0  0  0
   -0.7907    0.1125    3.7325 H   0  0  0  0  0  0  0  0  0  0  0  0
   -0.9436   -2.2011    0.8697 H   0  0  0  0  0  0  0  0  0  0  0  0
    0.2920   -3.6381   -0.9529 H   0  0  0  0  0  0  0  0  0  0  0  0
    4.0758    0.5073    1.1772 H   0  0  0  0  0  0  0  0  0  0  0  0
    8.4013    1.7639    0.5503 H   0  0  0  0  0  0  0  0  0  0  0  0
    8.6341    1.5480   -1.1871 H   0  0  0  0  0  0  0  0  0  0  0  0
    9.2518    0.3053    0.0338 H   0  0  0  0  0  0  0  0  0  0  0  0
    5.4308   -2.1895   -1.8225 H   0  0  0  0  0  0  0  0  0  0  0  0
   -1.0458    2.4039    3.4303 H   0  0  0  0  0  0  0  0  0  0  0  0
   -5.0533    4.4083    1.5562 H   0  0  0  0  0  0  0  0  0  0  0  0
   -4.1680    4.6466   -0.0265 H   0  0  0  0  0  0  0  0  0  0  0  0
   -5.8921    4.1265    0.0029 H   0  0  0  0  0  0  0  0  0  0  0  0
   -6.6397   -0.2376   -0.8611 H   0  0  0  0  0  0  0  0  0  0  0  0
   -5.6036   -1.5019   -0.1898 H   0  0  0  0  0  0  0  0  0  0  0  0
   -5.7090   -0.8296   -4.1503 H   0  0  0  0  0  0  0  0  0  0  0  0
   -4.7716    0.6710   -3.6774 H   0  0  0  0  0  0  0  0  0  0  0  0
   -6.5269    0.3934   -3.1655 H   0  0  0  0  0  0  0  0  0  0  0  0
  1  2  1  0
  2  3  1  0
  3  4  2  0
  3  5  1  0
  5  6  1  0
  6  7  2  0
  7  8  1  0
  8  9  1  0
  9 10  2  0
  9 11  1  0
 11 12  2  0
 12 13  1  0
 13 14  2  0
 14 15  1  0
 14 16  1  0
 16 17  2  0
 16 18  1  0
 18 19  1  0
 18 20  1  0
 18 21  1  0
  2 22  1  0
 22 23  1  0
 23 24  2  0
 24 25  1  0
 25 26  1  0
 26 27  1  0
 26 28  1  0
 28 29  2  0
 28 30  1  0
 30 31  1  0
 31 32  1  0
 32 33  1  0
 32 34  2  0
 30 35  1  0
 35 36  2  0
 35 37  1  0
 10  6  1  0
 17 11  1  0
 37 22  1  0
 37 25  2  0
  1 38  1  0
  1 39  1  0
  1 40  1  0
  2 41  1  1
  5 42  1  0
  7 43  1  0
 12 44  1  0
 15 45  1  0
 15 46  1  0
 15 47  1  0
 17 48  1  0
 23 49  1  0
 27 50  1  0
 27 51  1  0
 27 52  1  0
 31 53  1  0
 31 54  1  0
 33 55  1  0
 33 56  1  0
 33 57  1  0
M  END
$$$$
[H]c1sc(N([H])C(=O)C([H])([H])c2nsc3c2c(=O)n(C([H])([H])[H])c(=O)n3C([H])([H])[H])nc1-c1c([H])c([H])c([H])c(C(F)(F)F)c1F
     RDKit          3D

 46 49  0  0  0  0  0  0  0  0999 V2000
   -7.4524   -0.5845   -1.1378 C   0  0  0  0  0  0  0  0  0  0  0  0
   -6.2418   -0.2166   -0.4380 N   0  0  0  0  0  0  0  0  0  0  0  0
   -5.2797   -1.1946   -0.3642 C   0  0  0  0  0  0  0  0  0  0  0  0
   -5.1847   -2.8033   -0.9245 S   0  0  0  0  0  0  0  0  0  0  0  0
   -3.6555   -3.1876   -0.3618 N   0  0  0  0  0  0  0  0  0  0  0  0
   -3.2319   -2.0803    0.2498 C   0  0  0  0  0  0  0  0  0  0  0  0
   -1.8444   -2.0609    0.8774 C   0  0  0  0  0  0  0  0  0  0  0  0
   -0.8759   -1.3629    0.0051 C   0  0  0  0  0  0  0  0  0  0  0  0
   -1.2421   -0.9095   -1.1065 O   0  0  0  0  0  0  0  0  0  0  0  0
    0.4463   -1.2176    0.4375 N   0  0  0  0  0  0  0  0  0  0  0  0
    1.3869   -0.5469   -0.3939 C   0  0  0  0  0  0  0  0  0  0  0  0
    2.6644   -0.3164   -0.1539 N   0  0  0  0  0  0  0  0  0  0  0  0
    3.3880    0.3142   -1.0240 C   0  0  0  0  0  0  0  0  0  0  0  0
    2.7746    0.7220   -2.1821 C   0  0  0  0  0  0  0  0  0  0  0  0
    1.1779    0.1643   -1.9396 S   0  0  0  0  0  0  0  0  0  0  0  0
    4.8398    0.5886   -0.7756 C   0  0  0  0  0  0  0  0  0  0  0  0
    5.5846    1.2534   -1.7013 C   0  0  0  0  0  0  0  0  0  0  0  0
    6.9373    1.5180   -1.4873 C   0  0  0  0  0  0  0  0  0  0  0  0
    7.5328    1.0994   -0.3179 C   0  0  0  0  0  0  0  0  0  0  0  0
    6.7655    0.4312    0.6019 C   0  0  0  0  0  0  0  0  0  0  0  0
    5.4391    0.1705    0.3949 C   0  0  0  0  0  0  0  0  0  0  0  0
    4.7095   -0.4860    1.3121 F   0  0  0  0  0  0  0  0  0  0  0  0
    7.3773   -0.0426    1.8905 C   0  0  0  0  0  0  0  0  0  0  0  0
    7.2543   -1.4172    1.9683 F   0  0  0  0  0  0  0  0  0  0  0  0
    8.6798    0.3579    2.0194 F   0  0  0  0  0  0  0  0  0  0  0  0
    6.6397    0.5359    2.9130 F   0  0  0  0  0  0  0  0  0  0  0  0
   -4.0788   -1.0139    0.2593 C   0  0  0  0  0  0  0  0  0  0  0  0
   -3.8975    0.2639    0.8282 C   0  0  0  0  0  0  0  0  0  0  0  0
   -2.8319    0.5719    1.4388 O   0  0  0  0  0  0  0  0  0  0  0  0
   -4.8593    1.1779    0.7302 N   0  0  0  0  0  0  0  0  0  0  0  0
   -4.6476    2.4842    1.3241 C   0  0  0  0  0  0  0  0  0  0  0  0
   -6.0364    0.9812    0.1113 C   0  0  0  0  0  0  0  0  0  0  0  0
   -6.9328    1.8483    0.0256 O   0  0  0  0  0  0  0  0  0  0  0  0
   -7.2799   -1.4079   -1.8641 H   0  0  0  0  0  0  0  0  0  0  0  0
   -8.1768   -0.9391   -0.3763 H   0  0  0  0  0  0  0  0  0  0  0  0
   -7.9281    0.3003   -1.6300 H   0  0  0  0  0  0  0  0  0  0  0  0
   -1.4770   -3.0959    1.0174 H   0  0  0  0  0  0  0  0  0  0  0  0
   -1.8420   -1.5974    1.8601 H   0  0  0  0  0  0  0  0  0  0  0  0
    0.7592   -1.5823    1.3415 H   0  0  0  0  0  0  0  0  0  0  0  0
    3.2127    1.2681   -3.0395 H   0  0  0  0  0  0  0  0  0  0  0  0
    5.1351    1.5909   -2.6273 H   0  0  0  0  0  0  0  0  0  0  0  0
    7.5137    2.0410   -2.2208 H   0  0  0  0  0  0  0  0  0  0  0  0
    8.5952    1.2911   -0.1176 H   0  0  0  0  0  0  0  0  0  0  0  0
   -5.3839    2.6844    2.1552 H   0  0  0  0  0  0  0  0  0  0  0  0
   -4.7831    3.3097    0.6026 H   0  0  0  0  0  0  0  0  0  0  0  0
   -3.6500    2.5429    1.8199 H   0  0  0  0  0  0  0  0  0  0  0  0
  1  2  1  0
  2  3  1  0
  3  4  1  0
  4  5  1  0
  5  6  2  0
  6  7  1  0
  7  8  1  0
  8  9  2  0
  8 10  1  0
 10 11  1  0
 11 12  2  0
 12 13  1  0
 13 14  2  0
 14 15  1  0
 13 16  1  0
 16 17  2  0
 17 18  1  0
 18 19  2  0
 19 20  1  0
 20 21  2  0
 21 22  1  0
 20 23  1  0
 23 24  1  0
 23 25  1  0
 23 26  1  0
  6 27  1  0
 27 28  1  0
 28 29  2  0
 28 30  1  0
 30 31  1  0
 30 32  1  0
 32 33  2  0
 32  2  1  0
 27  3  2  0
 15 11  1  0
 21 16  1  0
  1 34  1  0
  1 35  1  0
  1 36  1  0
  7 37  1  0
  7 38  1  0
 10 39  1  0
 14 40  1  0
 17 41  1  0
 18 42  1  0
 19 43  1  0
 31 44  1  0
 31 45  1  0
 31 46  1  0
M  END
$$$$
[H]c1c(C([H])([H])n2c(=O)c3c(nc([H])n3[C@]([H])(C(=O)N([H])c3nc(-c4c([H])c([H])c(C(F)(F)F)c([H])c4[H])c([H])c([H])c3[H])C([H])([H])[H])n(C([H])([H])[H])c2=O)noc1C([H])([H])[H]
     RDKit          3D

 62 66  0  0  0  0  0  0  0  0999 V2000
    0.4617    1.2403   -0.8590 C   0  0  0  0  0  0  0  0  0  0  0  0
    0.3784   -0.1416   -0.2209 C   0  0  1  0  0  0  0  0  0  0  0  0
   -0.9815   -0.6594   -0.4325 C   0  0  0  0  0  0  0  0  0  0  0  0
   -1.8773    0.2447   -0.6593 O   0  0  0  0  0  0  0  0  0  0  0  0
   -1.4170   -1.9830   -0.4076 N   0  0  0  0  0  0  0  0  0  0  0  0
   -2.7975   -2.3040   -0.4886 C   0  0  0  0  0  0  0  0  0  0  0  0
   -3.2159   -3.6226   -0.6392 C   0  0  0  0  0  0  0  0  0  0  0  0
   -4.5497   -3.9292   -0.6018 C   0  0  0  0  0  0  0  0  0  0  0  0
   -5.4759   -2.9064   -0.4117 C   0  0  0  0  0  0  0  0  0  0  0  0
   -5.0335   -1.6100   -0.2661 C   0  0  0  0  0  0  0  0  0  0  0  0
   -3.7144   -1.3535   -0.3111 N   0  0  0  0  0  0  0  0  0  0  0  0
   -5.9843   -0.5251   -0.0264 C   0  0  0  0  0  0  0  0  0  0  0  0
   -7.3340   -0.7102    0.1340 C   0  0  0  0  0  0  0  0  0  0  0  0
   -8.2121    0.3497    0.3798 C   0  0  0  0  0  0  0  0  0  0  0  0
   -7.7490    1.6362    0.4683 C   0  0  0  0  0  0  0  0  0  0  0  0
   -6.3860    1.8251    0.3053 C   0  0  0  0  0  0  0  0  0  0  0  0
   -5.5133    0.7780    0.0636 C   0  0  0  0  0  0  0  0  0  0  0  0
   -8.6598    2.7593    0.7429 C   0  0  0  0  0  0  0  0  0  0  0  0
   -9.2701    2.6229    1.9754 F   0  0  0  0  0  0  0  0  0  0  0  0
   -9.6831    2.6927   -0.2153 F   0  0  0  0  0  0  0  0  0  0  0  0
   -8.0216    3.9559    0.6197 F   0  0  0  0  0  0  0  0  0  0  0  0
    1.4125   -1.0313   -0.6361 N   0  0  0  0  0  0  0  0  0  0  0  0
    1.5085   -2.0515   -1.4784 C   0  0  0  0  0  0  0  0  0  0  0  0
    2.7484   -2.5653   -1.5124 N   0  0  0  0  0  0  0  0  0  0  0  0
    3.5019   -1.8667   -0.6690 C   0  0  0  0  0  0  0  0  0  0  0  0
    4.8084   -1.9540   -0.3358 N   0  0  0  0  0  0  0  0  0  0  0  0
    5.6440   -2.9645   -0.9187 C   0  0  0  0  0  0  0  0  0  0  0  0
    5.3118   -1.0824    0.5520 C   0  0  0  0  0  0  0  0  0  0  0  0
    6.5321   -1.1694    0.8556 O   0  0  0  0  0  0  0  0  0  0  0  0
    4.5762   -0.1276    1.1278 N   0  0  0  0  0  0  0  0  0  0  0  0
    5.0823    0.8646    2.0747 C   0  0  0  0  0  0  0  0  0  0  0  0
    5.4570    2.0794    1.2904 C   0  0  0  0  0  0  0  0  0  0  0  0
    6.6755    2.3371    0.7027 C   0  0  0  0  0  0  0  0  0  0  0  0
    6.5446    3.5596    0.0895 C   0  0  0  0  0  0  0  0  0  0  0  0
    7.5837    4.3047   -0.6965 C   0  0  0  0  0  0  0  0  0  0  0  0
    5.3280    3.9887    0.3055 O   0  0  0  0  0  0  0  0  0  0  0  0
    4.6642    3.1134    1.0230 N   0  0  0  0  0  0  0  0  0  0  0  0
    3.2554   -0.0398    0.7912 C   0  0  0  0  0  0  0  0  0  0  0  0
    2.5609    0.8536    1.3238 O   0  0  0  0  0  0  0  0  0  0  0  0
    2.6852   -0.9033   -0.1135 C   0  0  0  0  0  0  0  0  0  0  0  0
    0.2055    1.9835   -0.0841 H   0  0  0  0  0  0  0  0  0  0  0  0
   -0.2976    1.3537   -1.6605 H   0  0  0  0  0  0  0  0  0  0  0  0
    1.4612    1.4276   -1.3101 H   0  0  0  0  0  0  0  0  0  0  0  0
    0.4168   -0.0053    0.9230 H   0  0  0  0  0  0  0  0  0  0  0  0
   -0.7360   -2.7676   -0.2451 H   0  0  0  0  0  0  0  0  0  0  0  0
   -2.4729   -4.4093   -0.7946 H   0  0  0  0  0  0  0  0  0  0  0  0
   -4.9082   -4.9478   -0.7173 H   0  0  0  0  0  0  0  0  0  0  0  0
   -6.5314   -3.1564   -0.3874 H   0  0  0  0  0  0  0  0  0  0  0  0
   -7.7506   -1.7059    0.0704 H   0  0  0  0  0  0  0  0  0  0  0  0
   -9.2727    0.1494    0.5053 H   0  0  0  0  0  0  0  0  0  0  0  0
   -6.0190    2.8474    0.3732 H   0  0  0  0  0  0  0  0  0  0  0  0
   -4.4720    0.9951   -0.0510 H   0  0  0  0  0  0  0  0  0  0  0  0
    0.6965   -2.4392   -2.0801 H   0  0  0  0  0  0  0  0  0  0  0  0
    6.5708   -3.1014   -0.3001 H   0  0  0  0  0  0  0  0  0  0  0  0
    5.9926   -2.7128   -1.9222 H   0  0  0  0  0  0  0  0  0  0  0  0
    5.1190   -3.9524   -0.9989 H   0  0  0  0  0  0  0  0  0  0  0  0
    5.9299    0.4575    2.6419 H   0  0  0  0  0  0  0  0  0  0  0  0
    4.2437    1.0937    2.7809 H   0  0  0  0  0  0  0  0  0  0  0  0
    7.5592    1.6913    0.7260 H   0  0  0  0  0  0  0  0  0  0  0  0
    7.1303    4.7199   -1.6412 H   0  0  0  0  0  0  0  0  0  0  0  0
    8.3807    3.5945   -0.9734 H   0  0  0  0  0  0  0  0  0  0  0  0
    7.9097    5.1792   -0.1123 H   0  0  0  0  0  0  0  0  0  0  0  0
  1  2  1  0
  2  3  1  0
  3  4  2  0
  3  5  1  0
  5  6  1  0
  6  7  2  0
  7  8  1  0
  8  9  2  0
  9 10  1  0
 10 11  2  0
 10 12  1  0
 12 13  2  0
 13 14  1  0
 14 15  2  0
 15 16  1  0
 16 17  2  0
 15 18  1  0
 18 19  1  0
 18 20  1  0
 18 21  1  0
  2 22  1  0
 22 23  1  0
 23 24  2  0
 24 25  1  0
 25 26  1  0
 26 27  1  0
 26 28  1  0
 28 29  2  0
 28 30  1  0
 30 31  1  0
 31 32  1  0
 32 33  1  0
 33 34  2  0
 34 35  1  0
 34 36  1  0
 36 37  1  0
 30 38  1  0
 38 39  2  0
 38 40  1  0
 11  6  1  0
 17 12  1  0
 40 22  1  0
 40 25  2  0
 37 32  2  0
  1 41  1  0
  1 42  1  0
  1 43  1  0
  2 44  1  1
  5 45  1  0
  7 46  1  0
  8 47  1  0
  9 48  1  0
 13 49  1  0
 14 50  1  0
 16 51  1  0
 17 52  1  0
 23 53  1  0
 27 54  1  0
 27 55  1  0
 27 56  1  0
 31 57  1  0
 31 58  1  0
 33 59  1  0
 35 60  1  0
 35 61  1  0
 35 62  1  0
M  END
$$$$
[H]c1sc(N([H])C(=O)C([H])([H])n2nc([H])c3c2c(=O)n(C([H])([H])[H])c(=O)n3C([H])([H])[H])nc1-c1c([H])c(Cl)c(OC([H])([H])C(C([H])([H])[H])(C([H])([H])[H])C([H])([H])[H])c(Cl)c1[H]
     RDKit          3D

 60 63  0  0  0  0  0  0  0  0999 V2000
   -6.1868    2.3096    1.6665 C   0  0  0  0  0  0  0  0  0  0  0  0
   -5.8646    0.8897    1.5133 N   0  0  0  0  0  0  0  0  0  0  0  0
   -4.8117    0.5849    0.7430 C   0  0  0  0  0  0  0  0  0  0  0  0
   -3.8926    1.3196    0.0217 C   0  0  0  0  0  0  0  0  0  0  0  0
   -3.0461    0.4593   -0.5536 N   0  0  0  0  0  0  0  0  0  0  0  0
   -3.3729   -0.7964   -0.2403 N   0  0  0  0  0  0  0  0  0  0  0  0
   -2.7131   -2.0013   -0.7057 C   0  0  0  0  0  0  0  0  0  0  0  0
   -3.1353   -2.4712   -2.0154 C   0  0  0  0  0  0  0  0  0  0  0  0
   -4.2258   -3.1577   -2.0543 O   0  0  0  0  0  0  0  0  0  0  0  0
   -2.5083   -2.2708   -3.2242 N   0  0  0  0  0  0  0  0  0  0  0  0
   -1.2844   -1.5647   -3.4061 C   0  0  0  0  0  0  0  0  0  0  0  0
   -0.4403   -0.9597   -2.6186 N   0  0  0  0  0  0  0  0  0  0  0  0
    0.6302   -0.3771   -3.0530 C   0  0  0  0  0  0  0  0  0  0  0  0
    0.8501   -0.4207   -4.4098 C   0  0  0  0  0  0  0  0  0  0  0  0
   -0.5073   -1.2999   -4.9488 S   0  0  0  0  0  0  0  0  0  0  0  0
    1.5675    0.3040   -2.1061 C   0  0  0  0  0  0  0  0  0  0  0  0
    2.6847    0.9037   -2.6014 C   0  0  0  0  0  0  0  0  0  0  0  0
    3.5802    1.5477   -1.7459 C   0  0  0  0  0  0  0  0  0  0  0  0
    4.9215    2.3604   -2.5419 Cl  0  0  0  0  0  0  0  0  0  0  0  0
    3.3925    1.6071   -0.4101 C   0  0  0  0  0  0  0  0  0  0  0  0
    4.2243    2.2044    0.4818 O   0  0  0  0  0  0  0  0  0  0  0  0
    5.1444    1.6131    1.2794 C   0  0  0  0  0  0  0  0  0  0  0  0
    6.3159    0.8539    0.8285 C   0  0  0  0  0  0  0  0  0  0  0  0
    7.0065    0.3538    2.1372 C   0  0  0  0  0  0  0  0  0  0  0  0
    7.3962    1.6465    0.1267 C   0  0  0  0  0  0  0  0  0  0  0  0
    5.9474   -0.3469    0.0276 C   0  0  0  0  0  0  0  0  0  0  0  0
    2.2146    0.9711    0.0691 C   0  0  0  0  0  0  0  0  0  0  0  0
    1.9599    1.0481    1.7992 Cl  0  0  0  0  0  0  0  0  0  0  0  0
    1.3363    0.3413   -0.7666 C   0  0  0  0  0  0  0  0  0  0  0  0
   -4.4557   -0.7511    0.5583 C   0  0  0  0  0  0  0  0  0  0  0  0
   -5.2505   -1.6751    1.2127 C   0  0  0  0  0  0  0  0  0  0  0  0
   -5.0028   -2.8987    1.1076 O   0  0  0  0  0  0  0  0  0  0  0  0
   -6.3087   -1.3593    1.9862 N   0  0  0  0  0  0  0  0  0  0  0  0
   -7.1066   -2.3819    2.6475 C   0  0  0  0  0  0  0  0  0  0  0  0
   -6.6054   -0.0580    2.1274 C   0  0  0  0  0  0  0  0  0  0  0  0
   -7.5895    0.3242    2.8410 O   0  0  0  0  0  0  0  0  0  0  0  0
   -7.2968    2.4462    1.5928 H   0  0  0  0  0  0  0  0  0  0  0  0
   -5.7183    2.9039    0.8663 H   0  0  0  0  0  0  0  0  0  0  0  0
   -5.8527    2.5935    2.6880 H   0  0  0  0  0  0  0  0  0  0  0  0
   -3.9065    2.3954   -0.0305 H   0  0  0  0  0  0  0  0  0  0  0  0
   -2.8248   -2.8064    0.0824 H   0  0  0  0  0  0  0  0  0  0  0  0
   -1.6313   -1.7864   -0.6897 H   0  0  0  0  0  0  0  0  0  0  0  0
   -2.9463   -2.6807   -4.1169 H   0  0  0  0  0  0  0  0  0  0  0  0
    1.6928    0.0077   -4.9852 H   0  0  0  0  0  0  0  0  0  0  0  0
    2.8943    0.8897   -3.6625 H   0  0  0  0  0  0  0  0  0  0  0  0
    5.5025    2.4421    2.0147 H   0  0  0  0  0  0  0  0  0  0  0  0
    4.6343    0.9195    2.0664 H   0  0  0  0  0  0  0  0  0  0  0  0
    6.2447   -0.0925    2.7998 H   0  0  0  0  0  0  0  0  0  0  0  0
    7.4858    1.1899    2.6501 H   0  0  0  0  0  0  0  0  0  0  0  0
    7.6857   -0.4541    1.8160 H   0  0  0  0  0  0  0  0  0  0  0  0
    8.3702    1.3995    0.5833 H   0  0  0  0  0  0  0  0  0  0  0  0
    7.4180    1.3114   -0.9421 H   0  0  0  0  0  0  0  0  0  0  0  0
    7.1842    2.7197    0.2392 H   0  0  0  0  0  0  0  0  0  0  0  0
    6.5426   -1.2443    0.3318 H   0  0  0  0  0  0  0  0  0  0  0  0
    6.1046   -0.1876   -1.0596 H   0  0  0  0  0  0  0  0  0  0  0  0
    4.8927   -0.6318    0.1903 H   0  0  0  0  0  0  0  0  0  0  0  0
    0.4544   -0.1306   -0.3739 H   0  0  0  0  0  0  0  0  0  0  0  0
   -7.2675   -3.1910    1.8782 H   0  0  0  0  0  0  0  0  0  0  0  0
   -6.4855   -2.8777    3.4451 H   0  0  0  0  0  0  0  0  0  0  0  0
   -8.0408   -1.9869    3.0421 H   0  0  0  0  0  0  0  0  0  0  0  0
  1  2  1  0
  2  3  1  0
  3  4  1  0
  4  5  2  0
  5  6  1  0
  6  7  1  0
  7  8  1  0
  8  9  2  0
  8 10  1  0
 10 11  1  0
 11 12  2  0
 12 13  1  0
 13 14  2  0
 14 15  1  0
 13 16  1  0
 16 17  2  0
 17 18  1  0
 18 19  1  0
 18 20  2  0
 20 21  1  0
 21 22  1  0
 22 23  1  0
 23 24  1  0
 23 25  1  0
 23 26  1  0
 20 27  1  0
 27 28  1  0
 27 29  2  0
  6 30  1  0
 30 31  1  0
 31 32  2  0
 31 33  1  0
 33 34  1  0
 33 35  1  0
 35 36  2  0
 35  2  1  0
 30  3  2  0
 15 11  1  0
 29 16  1  0
  1 37  1  0
  1 38  1  0
  1 39  1  0
  4 40  1  0
  7 41  1  0
  7 42  1  0
 10 43  1  0
 14 44  1  0
 17 45  1  0
 22 46  1  0
 22 47  1  0
 24 48  1  0
 24 49  1  0
 24 50  1  0
 25 51  1  0
 25 52  1  0
 25 53  1  0
 26 54  1  0
 26 55  1  0
 26 56  1  0
 29 57  1  0
 34 58  1  0
 34 59  1  0
 34 60  1  0
M  END
$$$$
[H]c1sc(N([H])C(=O)C([H])([H])c2c(C([H])([H])[H])oc3c2c(=O)n(C([H])([H])[H])c(=O)n3C([H])([H])[H])nc1-c1c([H])c([H])c(OC([H])([H])C(F)(F)F)c(Cl)c1[H]
     RDKit          3D

 54 57  0  0  0  0  0  0  0  0999 V2000
   -3.0397   -0.8132   -3.5140 C   0  0  0  0  0  0  0  0  0  0  0  0
   -3.5923   -0.4847   -2.1639 C   0  0  0  0  0  0  0  0  0  0  0  0
   -4.1271   -1.3333   -1.3502 O   0  0  0  0  0  0  0  0  0  0  0  0
   -4.5364   -0.7946   -0.2279 C   0  0  0  0  0  0  0  0  0  0  0  0
   -5.1361   -1.2552    0.8892 N   0  0  0  0  0  0  0  0  0  0  0  0
   -5.4203   -2.6716    0.9720 C   0  0  0  0  0  0  0  0  0  0  0  0
   -5.4559   -0.4495    1.9174 C   0  0  0  0  0  0  0  0  0  0  0  0
   -6.0216   -0.9669    2.9372 O   0  0  0  0  0  0  0  0  0  0  0  0
   -5.1862    0.8593    1.8695 N   0  0  0  0  0  0  0  0  0  0  0  0
   -5.5537    1.7094    2.9819 C   0  0  0  0  0  0  0  0  0  0  0  0
   -4.5829    1.3532    0.7628 C   0  0  0  0  0  0  0  0  0  0  0  0
   -4.3358    2.5631    0.7259 O   0  0  0  0  0  0  0  0  0  0  0  0
   -4.2416    0.5613   -0.3058 C   0  0  0  0  0  0  0  0  0  0  0  0
   -3.6353    0.7503   -1.5495 C   0  0  0  0  0  0  0  0  0  0  0  0
   -3.2063    2.0138   -2.0843 C   0  0  0  0  0  0  0  0  0  0  0  0
   -1.8327    2.3827   -2.2975 C   0  0  0  0  0  0  0  0  0  0  0  0
   -1.8214    3.4004   -3.2340 O   0  0  0  0  0  0  0  0  0  0  0  0
   -0.5758    2.0988   -1.9219 N   0  0  0  0  0  0  0  0  0  0  0  0
    0.0204    1.1836   -1.0130 C   0  0  0  0  0  0  0  0  0  0  0  0
    1.3440    1.0383   -0.8247 N   0  0  0  0  0  0  0  0  0  0  0  0
    1.7915    0.1860    0.0242 C   0  0  0  0  0  0  0  0  0  0  0  0
    0.8835   -0.5626    0.7259 C   0  0  0  0  0  0  0  0  0  0  0  0
   -0.5744    0.0374    0.0886 S   0  0  0  0  0  0  0  0  0  0  0  0
    3.2577    0.0071    0.2334 C   0  0  0  0  0  0  0  0  0  0  0  0
    3.7191   -0.9022    1.1429 C   0  0  0  0  0  0  0  0  0  0  0  0
    5.0957   -1.0768    1.3332 C   0  0  0  0  0  0  0  0  0  0  0  0
    6.0203   -0.3602    0.6334 C   0  0  0  0  0  0  0  0  0  0  0  0
    7.3906   -0.4982    0.7875 O   0  0  0  0  0  0  0  0  0  0  0  0
    8.0239   -1.3879    1.6709 C   0  0  0  0  0  0  0  0  0  0  0  0
    9.5303   -1.1516    1.4739 C   0  0  0  0  0  0  0  0  0  0  0  0
   10.2597   -1.9735    2.2862 F   0  0  0  0  0  0  0  0  0  0  0  0
    9.7789   -1.3210    0.1245 F   0  0  0  0  0  0  0  0  0  0  0  0
    9.7040    0.2027    1.7768 F   0  0  0  0  0  0  0  0  0  0  0  0
    5.5588    0.5582   -0.2825 C   0  0  0  0  0  0  0  0  0  0  0  0
    6.7273    1.5014   -1.2043 Cl  0  0  0  0  0  0  0  0  0  0  0  0
    4.1951    0.7318   -0.4722 C   0  0  0  0  0  0  0  0  0  0  0  0
   -2.9049    0.1147   -4.1178 H   0  0  0  0  0  0  0  0  0  0  0  0
   -3.6740   -1.4875   -4.1024 H   0  0  0  0  0  0  0  0  0  0  0  0
   -2.0709   -1.3238   -3.3223 H   0  0  0  0  0  0  0  0  0  0  0  0
   -5.4118   -3.1136   -0.0382 H   0  0  0  0  0  0  0  0  0  0  0  0
   -6.4431   -2.8578    1.3806 H   0  0  0  0  0  0  0  0  0  0  0  0
   -4.6763   -3.1890    1.6394 H   0  0  0  0  0  0  0  0  0  0  0  0
   -4.7392    2.4423    3.1987 H   0  0  0  0  0  0  0  0  0  0  0  0
   -6.4197    2.3441    2.6256 H   0  0  0  0  0  0  0  0  0  0  0  0
   -5.8456    1.1374    3.8767 H   0  0  0  0  0  0  0  0  0  0  0  0
   -3.7111    2.8922   -1.5782 H   0  0  0  0  0  0  0  0  0  0  0  0
   -3.7121    2.0554   -3.1323 H   0  0  0  0  0  0  0  0  0  0  0  0
    0.2153    2.7062   -2.4088 H   0  0  0  0  0  0  0  0  0  0  0  0
    1.0629   -1.3400    1.4912 H   0  0  0  0  0  0  0  0  0  0  0  0
    3.0185   -1.4922    1.7210 H   0  0  0  0  0  0  0  0  0  0  0  0
    5.4343   -1.7901    2.0450 H   0  0  0  0  0  0  0  0  0  0  0  0
    7.8427   -2.4277    1.3020 H   0  0  0  0  0  0  0  0  0  0  0  0
    7.7697   -1.2662    2.7205 H   0  0  0  0  0  0  0  0  0  0  0  0
    3.8400    1.4600   -1.1972 H   0  0  0  0  0  0  0  0  0  0  0  0
  1  2  1  0
  2  3  1  0
  3  4  1  0
  4  5  1  0
  5  6  1  0
  5  7  1  0
  7  8  2  0
  7  9  1  0
  9 10  1  0
  9 11  1  0
 11 12  2  0
 11 13  1  0
 13 14  1  0
 14 15  1  0
 15 16  1  0
 16 17  2  0
 16 18  1  0
 18 19  1  0
 19 20  2  0
 20 21  1  0
 21 22  2  0
 22 23  1  0
 21 24  1  0
 24 25  2  0
 25 26  1  0
 26 27  2  0
 27 28  1  0
 28 29  1  0
 29 30  1  0
 30 31  1  0
 30 32  1  0
 30 33  1  0
 27 34  1  0
 34 35  1  0
 34 36  2  0
 14  2  2  0
 23 19  1  0
 36 24  1  0
 13  4  2  0
  1 37  1  0
  1 38  1  0
  1 39  1  0
  6 40  1  0
  6 41  1  0
  6 42  1  0
 10 43  1  0
 10 44  1  0
 10 45  1  0
 15 46  1  0
 15 47  1  0
 18 48  1  0
 22 49  1  0
 25 50  1  0
 26 51  1  0
 29 52  1  0
 29 53  1  0
 36 54  1  0
M  END
$$$$
[H]c1nc(C(F)(F)F)c([H])nc1-c1nc(N([H])C(=O)C([H])([H])n2c(C([H])([H])[H])nc3c2c(=O)n(C([H])([H])C(=O)C([H])([H])[H])c(=O)n3C([H])([H])[H])c([H])c([H])c1[H]
     RDKit          3D

 56 59  0  0  0  0  0  0  0  0999 V2000
   -4.9057    3.2290   -2.6864 C   0  0  0  0  0  0  0  0  0  0  0  0
   -5.8022    2.5732   -1.7102 C   0  0  0  0  0  0  0  0  0  0  0  0
   -6.6615    3.2885   -1.1654 O   0  0  0  0  0  0  0  0  0  0  0  0
   -5.6605    1.1374   -1.4125 C   0  0  0  0  0  0  0  0  0  0  0  0
   -4.7049    0.8509   -0.3642 N   0  0  0  0  0  0  0  0  0  0  0  0
   -5.1232    0.9046    0.9016 C   0  0  0  0  0  0  0  0  0  0  0  0
   -6.3068    1.2461    1.1818 O   0  0  0  0  0  0  0  0  0  0  0  0
   -4.3117    0.6001    1.9270 N   0  0  0  0  0  0  0  0  0  0  0  0
   -4.7470    0.6369    3.3167 C   0  0  0  0  0  0  0  0  0  0  0  0
   -3.0559    0.2358    1.6437 C   0  0  0  0  0  0  0  0  0  0  0  0
   -2.0705   -0.1149    2.4631 N   0  0  0  0  0  0  0  0  0  0  0  0
   -0.9904   -0.4052    1.7098 C   0  0  0  0  0  0  0  0  0  0  0  0
    0.2836   -0.8207    2.2924 C   0  0  0  0  0  0  0  0  0  0  0  0
   -1.2775   -0.2447    0.4103 N   0  0  0  0  0  0  0  0  0  0  0  0
   -0.3817   -0.5023   -0.7055 C   0  0  0  0  0  0  0  0  0  0  0  0
   -0.4220   -1.8991   -1.1186 C   0  0  0  0  0  0  0  0  0  0  0  0
   -1.5274   -2.3680   -1.6614 O   0  0  0  0  0  0  0  0  0  0  0  0
    0.5796   -2.8592   -1.0146 N   0  0  0  0  0  0  0  0  0  0  0  0
    1.9132   -2.8225   -0.6097 C   0  0  0  0  0  0  0  0  0  0  0  0
    2.5884   -4.0562   -0.4433 C   0  0  0  0  0  0  0  0  0  0  0  0
    3.8991   -4.1532   -0.1088 C   0  0  0  0  0  0  0  0  0  0  0  0
    4.6454   -3.0367    0.0845 C   0  0  0  0  0  0  0  0  0  0  0  0
    4.0024   -1.8109   -0.0753 C   0  0  0  0  0  0  0  0  0  0  0  0
    2.6735   -1.7461   -0.4126 N   0  0  0  0  0  0  0  0  0  0  0  0
    4.7519   -0.5898    0.0869 C   0  0  0  0  0  0  0  0  0  0  0  0
    6.0851   -0.6014    0.3754 C   0  0  0  0  0  0  0  0  0  0  0  0
    6.8195    0.5287    0.4910 N   0  0  0  0  0  0  0  0  0  0  0  0
    6.2197    1.7121    0.3210 C   0  0  0  0  0  0  0  0  0  0  0  0
    4.8721    1.7651    0.0305 C   0  0  0  0  0  0  0  0  0  0  0  0
    4.1576    0.6069   -0.0839 N   0  0  0  0  0  0  0  0  0  0  0  0
    7.0085    2.9739    0.4363 C   0  0  0  0  0  0  0  0  0  0  0  0
    7.0760    3.6247   -0.7671 F   0  0  0  0  0  0  0  0  0  0  0  0
    8.3002    2.7124    0.8456 F   0  0  0  0  0  0  0  0  0  0  0  0
    6.3944    3.7891    1.3631 F   0  0  0  0  0  0  0  0  0  0  0  0
   -2.5591    0.1600    0.3336 C   0  0  0  0  0  0  0  0  0  0  0  0
   -3.4442    0.4889   -0.6699 C   0  0  0  0  0  0  0  0  0  0  0  0
   -3.0450    0.4465   -1.8544 O   0  0  0  0  0  0  0  0  0  0  0  0
   -3.9184    3.3565   -2.2263 H   0  0  0  0  0  0  0  0  0  0  0  0
   -5.3330    4.2142   -3.0295 H   0  0  0  0  0  0  0  0  0  0  0  0
   -4.8365    2.5587   -3.5887 H   0  0  0  0  0  0  0  0  0  0  0  0
   -6.6461    0.7131   -1.0570 H   0  0  0  0  0  0  0  0  0  0  0  0
   -5.4036    0.5342   -2.3184 H   0  0  0  0  0  0  0  0  0  0  0  0
   -5.7764    1.0515    3.3073 H   0  0  0  0  0  0  0  0  0  0  0  0
   -4.1247    1.3585    3.8710 H   0  0  0  0  0  0  0  0  0  0  0  0
   -4.7070   -0.3890    3.7420 H   0  0  0  0  0  0  0  0  0  0  0  0
    0.3108   -0.7451    3.4078 H   0  0  0  0  0  0  0  0  0  0  0  0
    1.1457   -0.2325    1.9194 H   0  0  0  0  0  0  0  0  0  0  0  0
    0.4839   -1.8679    2.0207 H   0  0  0  0  0  0  0  0  0  0  0  0
   -0.6170    0.1572   -1.5707 H   0  0  0  0  0  0  0  0  0  0  0  0
    0.6272   -0.2424   -0.3559 H   0  0  0  0  0  0  0  0  0  0  0  0
    0.2981   -3.8812   -1.3881 H   0  0  0  0  0  0  0  0  0  0  0  0
    2.0636   -5.0005   -0.5725 H   0  0  0  0  0  0  0  0  0  0  0  0
    4.3893   -5.1259    0.0165 H   0  0  0  0  0  0  0  0  0  0  0  0
    5.6797   -3.1506    0.3490 H   0  0  0  0  0  0  0  0  0  0  0  0
    6.6523   -1.5341    0.5391 H   0  0  0  0  0  0  0  0  0  0  0  0
    4.4392    2.7453   -0.0890 H   0  0  0  0  0  0  0  0  0  0  0  0
  1  2  1  0
  2  3  2  0
  2  4  1  0
  4  5  1  0
  5  6  1  0
  6  7  2  0
  6  8  1  0
  8  9  1  0
  8 10  1  0
 10 11  1  0
 11 12  2  0
 12 13  1  0
 12 14  1  0
 14 15  1  0
 15 16  1  0
 16 17  2  0
 16 18  1  0
 18 19  1  0
 19 20  2  0
 20 21  1  0
 21 22  2  0
 22 23  1  0
 23 24  2  0
 23 25  1  0
 25 26  2  0
 26 27  1  0
 27 28  2  0
 28 29  1  0
 29 30  2  0
 28 31  1  0
 31 32  1  0
 31 33  1  0
 31 34  1  0
 14 35  1  0
 35 36  1  0
 36 37  2  0
 36  5  1  0
 35 10  2  0
 24 19  1  0
 30 25  1  0
  1 38  1  0
  1 39  1  0
  1 40  1  0
  4 41  1  0
  4 42  1  0
  9 43  1  0
  9 44  1  0
  9 45  1  0
 13 46  1  0
 13 47  1  0
 13 48  1  0
 15 49  1  0
 15 50  1  0
 18 51  1  0
 20 52  1  0
 21 53  1  0
 22 54  1  0
 26 55  1  0
 29 56  1  0
M  END
$$$$
[H]C1=Nc2c([H])c([H])c([H])c([H])c2C([H])([H])c2c(Br)c([H])c([H])c([H])c21
     RDKit          3D

 26 28  0  0  0  0  0  0  0  0999 V2000
   -0.2130   -1.2809   -3.3830 Br  0  0  0  0  0  0  0  0  0  0  0  0
   -1.3837   -0.5147   -2.0806 C   0  0  0  0  0  0  0  0  0  0  0  0
   -2.6068    0.0232   -2.4169 C   0  0  0  0  0  0  0  0  0  0  0  0
   -3.4380    0.5711   -1.4665 C   0  0  0  0  0  0  0  0  0  0  0  0
   -2.9997    0.5623   -0.1576 C   0  0  0  0  0  0  0  0  0  0  0  0
   -1.7704    0.0241    0.1955 C   0  0  0  0  0  0  0  0  0  0  0  0
   -1.4831    0.1108    1.6256 C   0  0  0  0  0  0  0  0  0  0  0  0
   -0.2961    0.1607    2.2039 N   0  0  0  0  0  0  0  0  0  0  0  0
    0.9777    0.1417    1.5654 C   0  0  0  0  0  0  0  0  0  0  0  0
    1.9765    0.7676    2.2834 C   0  0  0  0  0  0  0  0  0  0  0  0
    3.2759    0.8474    1.8141 C   0  0  0  0  0  0  0  0  0  0  0  0
    3.5351    0.2739    0.5942 C   0  0  0  0  0  0  0  0  0  0  0  0
    2.5740   -0.3493   -0.1367 C   0  0  0  0  0  0  0  0  0  0  0  0
    1.2537   -0.4298    0.3414 C   0  0  0  0  0  0  0  0  0  0  0  0
    0.4011   -1.1568   -0.6323 C   0  0  0  0  0  0  0  0  0  0  0  0
   -0.9364   -0.5255   -0.7555 C   0  0  0  0  0  0  0  0  0  0  0  0
   -2.8981    0.0001   -3.4740 H   0  0  0  0  0  0  0  0  0  0  0  0
   -4.3819    0.9778   -1.7798 H   0  0  0  0  0  0  0  0  0  0  0  0
   -3.5943    0.9706    0.6314 H   0  0  0  0  0  0  0  0  0  0  0  0
   -2.3506    0.1378    2.2389 H   0  0  0  0  0  0  0  0  0  0  0  0
    1.7637    1.2160    3.2420 H   0  0  0  0  0  0  0  0  0  0  0  0
    4.0565    1.3388    2.3795 H   0  0  0  0  0  0  0  0  0  0  0  0
    4.5582    0.3297    0.2111 H   0  0  0  0  0  0  0  0  0  0  0  0
    2.7742   -0.8026   -1.0987 H   0  0  0  0  0  0  0  0  0  0  0  0
    0.8943   -1.1570   -1.6249 H   0  0  0  0  0  0  0  0  0  0  0  0
    0.3115   -2.2368   -0.3200 H   0  0  0  0  0  0  0  0  0  0  0  0
  1  2  1  0
  2  3  2  0
  3  4  1  0
  4  5  2  0
  5  6  1  0
  6  7  1  0
  7  8  2  0
  8  9  1  0
  9 10  2  0
 10 11  1  0
 11 12  2  0
 12 13  1  0
 13 14  2  0
 14 15  1  0
 15 16  1  0
 16  2  1  0
 16  6  2  0
 14  9  1  0
  3 17  1  0
  4 18  1  0
  5 19  1  0
  7 20  1  0
 10 21  1  0
 11 22  1  0
 12 23  1  0
 13 24  1  0
 15 25  1  0
 15 26  1  0
M  END
$$$$
[H]C1=Nc2c([H])c([H])c([H])c([H])c2Oc2c([H])c([H])c([H])c([H])c21
     RDKit          3D

 24 26  0  0  0  0  0  0  0  0999 V2000
   -0.0200    1.1044   -0.4451 O   0  0  0  0  0  0  0  0  0  0  0  0
   -1.2235    0.4392   -0.2476 C   0  0  0  0  0  0  0  0  0  0  0  0
   -2.3114    1.2478   -0.4338 C   0  0  0  0  0  0  0  0  0  0  0  0
   -3.5973    0.7738   -0.2841 C   0  0  0  0  0  0  0  0  0  0  0  0
   -3.8464   -0.5376    0.0604 C   0  0  0  0  0  0  0  0  0  0  0  0
   -2.7551   -1.3597    0.2500 C   0  0  0  0  0  0  0  0  0  0  0  0
   -1.4674   -0.8772    0.0980 C   0  0  0  0  0  0  0  0  0  0  0  0
   -0.4434   -1.8942    0.3395 C   0  0  0  0  0  0  0  0  0  0  0  0
    0.8421   -1.7817    0.3643 N   0  0  0  0  0  0  0  0  0  0  0  0
    1.6346   -0.6120    0.1592 C   0  0  0  0  0  0  0  0  0  0  0  0
    2.9788   -0.8447    0.3617 C   0  0  0  0  0  0  0  0  0  0  0  0
    3.9207    0.1510    0.2158 C   0  0  0  0  0  0  0  0  0  0  0  0
    3.5538    1.4287   -0.1409 C   0  0  0  0  0  0  0  0  0  0  0  0
    2.2150    1.6852   -0.3487 C   0  0  0  0  0  0  0  0  0  0  0  0
    1.2871    0.6750   -0.1978 C   0  0  0  0  0  0  0  0  0  0  0  0
   -2.1245    2.2844   -0.7059 H   0  0  0  0  0  0  0  0  0  0  0  0
   -4.4665    1.4205   -0.4330 H   0  0  0  0  0  0  0  0  0  0  0  0
   -4.8540   -0.9162    0.1796 H   0  0  0  0  0  0  0  0  0  0  0  0
   -2.9144   -2.4110    0.5253 H   0  0  0  0  0  0  0  0  0  0  0  0
   -0.8799   -2.8704    0.5190 H   0  0  0  0  0  0  0  0  0  0  0  0
    3.2500   -1.8614    0.6433 H   0  0  0  0  0  0  0  0  0  0  0  0
    4.9731   -0.1133    0.3948 H   0  0  0  0  0  0  0  0  0  0  0  0
    4.3222    2.1810   -0.2450 H   0  0  0  0  0  0  0  0  0  0  0  0
    1.9261    2.6885   -0.6290 H   0  0  0  0  0  0  0  0  0  0  0  0
  1  2  1  0
  2  3  2  0
  3  4  1  0
  4  5  2  0
  5  6  1  0
  6  7  2  0
  7  8  1  0
  8  9  2  0
  9 10  1  0
 10 11  2  0
 11 12  1  0
 12 13  2  0
 13 14  1  0
 14 15  2  0
 15  1  1  0
  7  2  1  0
 15 10  1  0
  3 16  1  0
  4 17  1  0
  5 18  1  0
  6 19  1  0
  8 20  1  0
 11 21  1  0
 12 22  1  0
 13 23  1  0
 14 24  1  0
M  END
$$$$
[H]c1sc(N([H])C(=O)C([H])([H])c2c(C([H])([H])[H])oc3c2c(=O)n(C([H])([H])[H])c(=O)n3C([H])([H])[H])nc1-c1c([H])c(F)c(OC([H])([H])C(F)(F)F)c(F)c1[H]
     RDKit          3D

 54 57  0  0  0  0  0  0  0  0999 V2000
   -3.7953   -2.7838   -2.0368 C   0  0  0  0  0  0  0  0  0  0  0  0
   -4.3856   -1.6824   -1.2318 C   0  0  0  0  0  0  0  0  0  0  0  0
   -5.6782   -1.4108   -1.1500 O   0  0  0  0  0  0  0  0  0  0  0  0
   -5.9108   -0.4001   -0.3797 C   0  0  0  0  0  0  0  0  0  0  0  0
   -7.0438    0.2371    0.0051 N   0  0  0  0  0  0  0  0  0  0  0  0
   -8.3462   -0.1919   -0.4653 C   0  0  0  0  0  0  0  0  0  0  0  0
   -6.9449    1.2865    0.8392 C   0  0  0  0  0  0  0  0  0  0  0  0
   -7.9848    1.9039    1.2180 O   0  0  0  0  0  0  0  0  0  0  0  0
   -5.7698    1.7380    1.3136 N   0  0  0  0  0  0  0  0  0  0  0  0
   -5.6705    2.8698    2.2112 C   0  0  0  0  0  0  0  0  0  0  0  0
   -4.6414    1.1099    0.9356 C   0  0  0  0  0  0  0  0  0  0  0  0
   -3.5515    1.5104    1.3611 O   0  0  0  0  0  0  0  0  0  0  0  0
   -4.6815    0.0439    0.0944 C   0  0  0  0  0  0  0  0  0  0  0  0
   -3.7236   -0.7768   -0.4528 C   0  0  0  0  0  0  0  0  0  0  0  0
   -2.2467   -0.7284   -0.2697 C   0  0  0  0  0  0  0  0  0  0  0  0
   -1.6512   -0.1241   -1.4722 C   0  0  0  0  0  0  0  0  0  0  0  0
   -2.3948    0.2753   -2.4193 O   0  0  0  0  0  0  0  0  0  0  0  0
   -0.2776    0.0288   -1.6129 N   0  0  0  0  0  0  0  0  0  0  0  0
    0.6960   -0.3853   -0.6371 C   0  0  0  0  0  0  0  0  0  0  0  0
    2.0073   -0.2506   -0.7365 N   0  0  0  0  0  0  0  0  0  0  0  0
    2.7755   -0.6749    0.2197 C   0  0  0  0  0  0  0  0  0  0  0  0
    2.1683   -1.2537    1.3070 C   0  0  0  0  0  0  0  0  0  0  0  0
    0.5184   -1.1468    0.8754 S   0  0  0  0  0  0  0  0  0  0  0  0
    4.2508   -0.5353    0.1330 C   0  0  0  0  0  0  0  0  0  0  0  0
    5.0510   -0.9926    1.1399 C   0  0  0  0  0  0  0  0  0  0  0  0
    6.4330   -0.8719    1.0807 C   0  0  0  0  0  0  0  0  0  0  0  0
    7.0937   -1.3994    2.1397 F   0  0  0  0  0  0  0  0  0  0  0  0
    7.0474   -0.2892    0.0125 C   0  0  0  0  0  0  0  0  0  0  0  0
    8.3996   -0.1523   -0.0720 O   0  0  0  0  0  0  0  0  0  0  0  0
    9.2406    0.8808    0.2547 C   0  0  0  0  0  0  0  0  0  0  0  0
    9.3158    1.3588    1.6606 C   0  0  0  0  0  0  0  0  0  0  0  0
   10.2443    2.4361    1.6453 F   0  0  0  0  0  0  0  0  0  0  0  0
    8.1711    1.8495    2.1921 F   0  0  0  0  0  0  0  0  0  0  0  0
    9.8811    0.3832    2.4690 F   0  0  0  0  0  0  0  0  0  0  0  0
    6.2286    0.1812   -1.0241 C   0  0  0  0  0  0  0  0  0  0  0  0
    6.8200    0.7608   -2.0926 F   0  0  0  0  0  0  0  0  0  0  0  0
    4.8757    0.0503   -0.9420 C   0  0  0  0  0  0  0  0  0  0  0  0
   -3.2988   -2.4233   -2.9618 H   0  0  0  0  0  0  0  0  0  0  0  0
   -2.9994   -3.2901   -1.4473 H   0  0  0  0  0  0  0  0  0  0  0  0
   -4.5586   -3.5593   -2.2719 H   0  0  0  0  0  0  0  0  0  0  0  0
   -8.8403    0.5328   -1.1143 H   0  0  0  0  0  0  0  0  0  0  0  0
   -8.9794   -0.4887    0.4040 H   0  0  0  0  0  0  0  0  0  0  0  0
   -8.1998   -1.1443   -1.0543 H   0  0  0  0  0  0  0  0  0  0  0  0
   -5.4137    3.7829    1.6264 H   0  0  0  0  0  0  0  0  0  0  0  0
   -6.5851    3.0016    2.8150 H   0  0  0  0  0  0  0  0  0  0  0  0
   -4.8312    2.6897    2.9129 H   0  0  0  0  0  0  0  0  0  0  0  0
   -1.8605   -1.7822   -0.1996 H   0  0  0  0  0  0  0  0  0  0  0  0
   -1.9678   -0.2203    0.6598 H   0  0  0  0  0  0  0  0  0  0  0  0
    0.1234    0.4711   -2.4934 H   0  0  0  0  0  0  0  0  0  0  0  0
    2.6349   -1.6758    2.2186 H   0  0  0  0  0  0  0  0  0  0  0  0
    4.6030   -1.4600    2.0042 H   0  0  0  0  0  0  0  0  0  0  0  0
    9.1366    1.7689   -0.4424 H   0  0  0  0  0  0  0  0  0  0  0  0
   10.2967    0.5259   -0.0022 H   0  0  0  0  0  0  0  0  0  0  0  0
    4.2198    0.4170   -1.7519 H   0  0  0  0  0  0  0  0  0  0  0  0
  1  2  1  0
  2  3  1  0
  3  4  1  0
  4  5  1  0
  5  6  1  0
  5  7  1  0
  7  8  2  0
  7  9  1  0
  9 10  1  0
  9 11  1  0
 11 12  2  0
 11 13  1  0
 13 14  1  0
 14 15  1  0
 15 16  1  0
 16 17  2  0
 16 18  1  0
 18 19  1  0
 19 20  2  0
 20 21  1  0
 21 22  2  0
 22 23  1  0
 21 24  1  0
 24 25  2  0
 25 26  1  0
 26 27  1  0
 26 28  2  0
 28 29  1  0
 29 30  1  0
 30 31  1  0
 31 32  1  0
 31 33  1  0
 31 34  1  0
 28 35  1  0
 35 36  1  0
 35 37  2  0
 14  2  2  0
 23 19  1  0
 37 24  1  0
 13  4  2  0
  1 38  1  0
  1 39  1  0
  1 40  1  0
  6 41  1  0
  6 42  1  0
  6 43  1  0
 10 44  1  0
 10 45  1  0
 10 46  1  0
 15 47  1  0
 15 48  1  0
 18 49  1  0
 22 50  1  0
 25 51  1  0
 30 52  1  0
 30 53  1  0
 37 54  1  0
M  END
$$$$
[H]C([H])([H])C([H])(C([H])([H])[H])C([H])([H])N=C=S
     RDKit          3D

 16 15  0  0  0  0  0  0  0  0999 V2000
   -0.9441    0.5584    1.3107 C   0  0  0  0  0  0  0  0  0  0  0  0
   -0.2794    0.2993   -0.0023 C   0  0  0  0  0  0  0  0  0  0  0  0
   -1.3252    0.1156   -1.0600 C   0  0  0  0  0  0  0  0  0  0  0  0
    0.6351   -0.9180    0.0306 C   0  0  0  0  0  0  0  0  0  0  0  0
    1.6797   -0.7060    1.0314 N   0  0  0  0  0  0  0  0  0  0  0  0
    2.8686   -0.3886    0.7126 C   0  0  0  0  0  0  0  0  0  0  0  0
    4.1012    0.5606    0.2304 S   0  0  0  0  0  0  0  0  0  0  0  0
   -1.8435   -0.1055    1.4382 H   0  0  0  0  0  0  0  0  0  0  0  0
   -0.2747    0.4791    2.1841 H   0  0  0  0  0  0  0  0  0  0  0  0
   -1.3434    1.5948    1.2873 H   0  0  0  0  0  0  0  0  0  0  0  0
    0.3271    1.1843   -0.2598 H   0  0  0  0  0  0  0  0  0  0  0  0
   -2.3439    0.4133   -0.7288 H   0  0  0  0  0  0  0  0  0  0  0  0
   -1.3616   -0.9595   -1.3568 H   0  0  0  0  0  0  0  0  0  0  0  0
   -1.0978    0.6944   -1.9815 H   0  0  0  0  0  0  0  0  0  0  0  0
    1.1164   -0.9833   -0.9682 H   0  0  0  0  0  0  0  0  0  0  0  0
    0.0853   -1.8392    0.2142 H   0  0  0  0  0  0  0  0  0  0  0  0
  1  2  1  0
  2  3  1  0
  2  4  1  0
  4  5  1  0
  5  6  2  3
  6  7  2  0
  1  8  1  0
  1  9  1  0
  1 10  1  0
  2 11  1  0
  3 12  1  0
  3 13  1  0
  3 14  1  0
  4 15  1  0
  4 16  1  0
M  END
$$$$
[H]c1sc(N([H])C(=O)C([H])([H])c2c(Cl)oc3c2c(=O)n(C([H])([H])[H])c(=O)n3C([H])([H])[H])nc1-c1c([H])c([H])c(C(F)(F)F)c(F)c1[H]
     RDKit          3D

 47 50  0  0  0  0  0  0  0  0999 V2000
   -7.7483   -0.3994   -0.7943 C   0  0  0  0  0  0  0  0  0  0  0  0
   -6.4657   -0.0738   -0.1942 N   0  0  0  0  0  0  0  0  0  0  0  0
   -5.2944   -0.4512   -0.7308 C   0  0  0  0  0  0  0  0  0  0  0  0
   -5.0315   -1.1322   -1.8212 O   0  0  0  0  0  0  0  0  0  0  0  0
   -3.7403   -1.2900   -1.9931 C   0  0  0  0  0  0  0  0  0  0  0  0
   -3.0334   -2.1474   -3.3428 Cl  0  0  0  0  0  0  0  0  0  0  0  0
   -3.0718   -0.6767   -0.9504 C   0  0  0  0  0  0  0  0  0  0  0  0
   -1.6046   -0.6026   -0.7291 C   0  0  0  0  0  0  0  0  0  0  0  0
   -0.9635    0.4079   -1.5957 C   0  0  0  0  0  0  0  0  0  0  0  0
   -1.7158    1.0665   -2.3595 O   0  0  0  0  0  0  0  0  0  0  0  0
    0.4010    0.6956   -1.6403 N   0  0  0  0  0  0  0  0  0  0  0  0
    1.3889    0.0202   -0.8482 C   0  0  0  0  0  0  0  0  0  0  0  0
    2.6929    0.2343   -0.8044 N   0  0  0  0  0  0  0  0  0  0  0  0
    3.4317   -0.4872   -0.0277 C   0  0  0  0  0  0  0  0  0  0  0  0
    2.8118   -1.4572    0.7256 C   0  0  0  0  0  0  0  0  0  0  0  0
    1.1817   -1.2610    0.2566 S   0  0  0  0  0  0  0  0  0  0  0  0
    4.8973   -0.2891    0.0709 C   0  0  0  0  0  0  0  0  0  0  0  0
    5.5215    0.6839   -0.6608 C   0  0  0  0  0  0  0  0  0  0  0  0
    6.9022    0.8936   -0.5866 C   0  0  0  0  0  0  0  0  0  0  0  0
    7.6563    0.1081    0.2377 C   0  0  0  0  0  0  0  0  0  0  0  0
    7.0510   -0.8783    0.9849 C   0  0  0  0  0  0  0  0  0  0  0  0
    7.7971   -1.6524    1.8006 F   0  0  0  0  0  0  0  0  0  0  0  0
    5.6664   -1.0646    0.8898 C   0  0  0  0  0  0  0  0  0  0  0  0
    9.1332    0.3275    0.3195 C   0  0  0  0  0  0  0  0  0  0  0  0
    9.7845   -0.8375   -0.0715 F   0  0  0  0  0  0  0  0  0  0  0  0
    9.4258    0.4973    1.6756 F   0  0  0  0  0  0  0  0  0  0  0  0
    9.5322    1.4129   -0.3996 F   0  0  0  0  0  0  0  0  0  0  0  0
   -4.0628   -0.1474   -0.1558 C   0  0  0  0  0  0  0  0  0  0  0  0
   -4.0837    0.5759    1.0171 C   0  0  0  0  0  0  0  0  0  0  0  0
   -2.9858    0.8710    1.5692 O   0  0  0  0  0  0  0  0  0  0  0  0
   -5.2528    0.9600    1.5633 N   0  0  0  0  0  0  0  0  0  0  0  0
   -5.2335    1.7227    2.7927 C   0  0  0  0  0  0  0  0  0  0  0  0
   -6.4183    0.6322    0.9550 C   0  0  0  0  0  0  0  0  0  0  0  0
   -7.5195    0.9939    1.4702 O   0  0  0  0  0  0  0  0  0  0  0  0
   -8.0216    0.2710   -1.6176 H   0  0  0  0  0  0  0  0  0  0  0  0
   -8.5453   -0.2860   -0.0115 H   0  0  0  0  0  0  0  0  0  0  0  0
   -7.7936   -1.4891   -1.0712 H   0  0  0  0  0  0  0  0  0  0  0  0
   -1.3584   -0.4833    0.3450 H   0  0  0  0  0  0  0  0  0  0  0  0
   -1.1695   -1.5948   -1.0347 H   0  0  0  0  0  0  0  0  0  0  0  0
    0.7601    1.4287   -2.2823 H   0  0  0  0  0  0  0  0  0  0  0  0
    3.2663   -2.1687    1.4418 H   0  0  0  0  0  0  0  0  0  0  0  0
    4.9343    1.3223   -1.3262 H   0  0  0  0  0  0  0  0  0  0  0  0
    7.3949    1.6642   -1.1660 H   0  0  0  0  0  0  0  0  0  0  0  0
    5.2454   -1.8566    1.5027 H   0  0  0  0  0  0  0  0  0  0  0  0
   -4.4691    2.5351    2.6324 H   0  0  0  0  0  0  0  0  0  0  0  0
   -5.0708    1.1397    3.6979 H   0  0  0  0  0  0  0  0  0  0  0  0
   -6.2224    2.2619    2.8583 H   0  0  0  0  0  0  0  0  0  0  0  0
  1  2  1  0
  2  3  1  0
  3  4  1  0
  4  5  1  0
  5  6  1  0
  5  7  2  0
  7  8  1  0
  8  9  1  0
  9 10  2  0
  9 11  1  0
 11 12  1  0
 12 13  2  0
 13 14  1  0
 14 15  2  0
 15 16  1  0
 14 17  1  0
 17 18  2  0
 18 19  1  0
 19 20  2  0
 20 21  1  0
 21 22  1  0
 21 23  2  0
 20 24  1  0
 24 25  1  0
 24 26  1  0
 24 27  1  0
  7 28  1  0
 28 29  1  0
 29 30  2  0
 29 31  1  0
 31 32  1  0
 31 33  1  0
 33 34  2  0
 33  2  1  0
 28  3  2  0
 16 12  1  0
 23 17  1  0
  1 35  1  0
  1 36  1  0
  1 37  1  0
  8 38  1  0
  8 39  1  0
 11 40  1  0
 15 41  1  0
 18 42  1  0
 19 43  1  0
 23 44  1  0
 32 45  1  0
 32 46  1  0
 32 47  1  0
M  END
$$$$
[H]c1nc(OC([H])([H])[H])c(C(F)(F)F)c([H])c1-c1nc(N([H])C(=O)[C@@]([H])(n2c([H])nc3c2c(=O)n(C([H])([H])c2noc(C([H])([H])[H])c2[H])c(=O)n3C([H])([H])[H])C([H])([H])[H])c([H])c([H])c1[H]
     RDKit          3D

 65 69  0  0  0  0  0  0  0  0999 V2000
   -8.7375    2.1055    3.1357 C   0  0  0  0  0  0  0  0  0  0  0  0
   -7.3331    2.2416    3.0007 O   0  0  0  0  0  0  0  0  0  0  0  0
   -6.6711    1.5505    1.9727 C   0  0  0  0  0  0  0  0  0  0  0  0
   -7.3575    0.7694    1.1261 N   0  0  0  0  0  0  0  0  0  0  0  0
   -6.7594    0.0765    0.1101 C   0  0  0  0  0  0  0  0  0  0  0  0
   -5.4111    0.1536   -0.0876 C   0  0  0  0  0  0  0  0  0  0  0  0
   -4.6959    0.9620    0.7873 C   0  0  0  0  0  0  0  0  0  0  0  0
   -5.3207    1.6554    1.8098 C   0  0  0  0  0  0  0  0  0  0  0  0
   -4.5408    2.5205    2.7437 C   0  0  0  0  0  0  0  0  0  0  0  0
   -5.0356    3.8090    2.6242 F   0  0  0  0  0  0  0  0  0  0  0  0
   -4.6954    2.0258    4.0077 F   0  0  0  0  0  0  0  0  0  0  0  0
   -3.2155    2.5670    2.3512 F   0  0  0  0  0  0  0  0  0  0  0  0
   -4.6948   -0.5560   -1.1491 C   0  0  0  0  0  0  0  0  0  0  0  0
   -5.3821   -1.3555   -2.0274 C   0  0  0  0  0  0  0  0  0  0  0  0
   -4.6888   -2.0151   -3.0168 C   0  0  0  0  0  0  0  0  0  0  0  0
   -3.3299   -1.8462   -3.0857 C   0  0  0  0  0  0  0  0  0  0  0  0
   -2.6324   -1.0415   -2.2030 C   0  0  0  0  0  0  0  0  0  0  0  0
   -1.2077   -0.9038   -2.3163 N   0  0  0  0  0  0  0  0  0  0  0  0
   -0.4711   -0.0763   -1.4235 C   0  0  0  0  0  0  0  0  0  0  0  0
   -1.0284    0.5759   -0.5019 O   0  0  0  0  0  0  0  0  0  0  0  0
    1.0021   -0.0003   -1.6096 C   0  0  2  0  0  0  0  0  0  0  0  0
    1.2229    0.2603   -3.0729 C   0  0  0  0  0  0  0  0  0  0  0  0
    1.5765   -1.2131   -1.1043 N   0  0  0  0  0  0  0  0  0  0  0  0
    1.0036   -2.3848   -0.7741 C   0  0  0  0  0  0  0  0  0  0  0  0
    1.9508   -3.2471   -0.3365 N   0  0  0  0  0  0  0  0  0  0  0  0
    3.1494   -2.6532   -0.3747 C   0  0  0  0  0  0  0  0  0  0  0  0
    4.4089   -3.0148   -0.0663 N   0  0  0  0  0  0  0  0  0  0  0  0
    4.6205   -4.3587    0.4357 C   0  0  0  0  0  0  0  0  0  0  0  0
    5.4420   -2.1605   -0.2170 C   0  0  0  0  0  0  0  0  0  0  0  0
    6.6208   -2.5146    0.0773 O   0  0  0  0  0  0  0  0  0  0  0  0
    5.2739   -0.9117   -0.6793 N   0  0  0  0  0  0  0  0  0  0  0  0
    6.3322    0.0538   -0.8659 C   0  0  0  0  0  0  0  0  0  0  0  0
    6.5995    0.8988    0.3004 C   0  0  0  0  0  0  0  0  0  0  0  0
    6.0021    2.1198    0.5435 C   0  0  0  0  0  0  0  0  0  0  0  0
    6.5430    2.5521    1.7337 C   0  0  0  0  0  0  0  0  0  0  0  0
    6.2491    3.8127    2.4587 C   0  0  0  0  0  0  0  0  0  0  0  0
    7.3996    1.6556    2.1688 O   0  0  0  0  0  0  0  0  0  0  0  0
    7.4373    0.6851    1.3341 N   0  0  0  0  0  0  0  0  0  0  0  0
    4.0109   -0.5382   -0.9923 C   0  0  0  0  0  0  0  0  0  0  0  0
    3.7713    0.6260   -1.4345 O   0  0  0  0  0  0  0  0  0  0  0  0
    2.9182   -1.3821   -0.8540 C   0  0  0  0  0  0  0  0  0  0  0  0
   -3.3603   -0.4304   -1.2687 N   0  0  0  0  0  0  0  0  0  0  0  0
   -9.1890    3.1128    3.2378 H   0  0  0  0  0  0  0  0  0  0  0  0
   -9.1736    1.5351    2.2904 H   0  0  0  0  0  0  0  0  0  0  0  0
   -8.8966    1.4772    4.0464 H   0  0  0  0  0  0  0  0  0  0  0  0
   -7.3563   -0.5326   -0.5359 H   0  0  0  0  0  0  0  0  0  0  0  0
   -3.6298    1.0271    0.6357 H   0  0  0  0  0  0  0  0  0  0  0  0
   -6.4627   -1.4996   -1.9851 H   0  0  0  0  0  0  0  0  0  0  0  0
   -5.2125   -2.6506   -3.7194 H   0  0  0  0  0  0  0  0  0  0  0  0
   -2.7361   -2.3492   -3.8542 H   0  0  0  0  0  0  0  0  0  0  0  0
   -0.7334   -1.4421   -3.0811 H   0  0  0  0  0  0  0  0  0  0  0  0
    1.3756    0.8680   -0.9885 H   0  0  0  0  0  0  0  0  0  0  0  0
    0.3172    0.1900   -3.6927 H   0  0  0  0  0  0  0  0  0  0  0  0
    1.9651   -0.4718   -3.4295 H   0  0  0  0  0  0  0  0  0  0  0  0
    1.5888    1.3207   -3.2119 H   0  0  0  0  0  0  0  0  0  0  0  0
   -0.0700   -2.5947   -0.8488 H   0  0  0  0  0  0  0  0  0  0  0  0
    4.4142   -4.4355    1.5283 H   0  0  0  0  0  0  0  0  0  0  0  0
    3.8911   -5.0705   -0.0442 H   0  0  0  0  0  0  0  0  0  0  0  0
    5.6179   -4.7442    0.1820 H   0  0  0  0  0  0  0  0  0  0  0  0
    6.1275    0.6172   -1.7966 H   0  0  0  0  0  0  0  0  0  0  0  0
    7.2707   -0.5426   -1.0500 H   0  0  0  0  0  0  0  0  0  0  0  0
    5.2708    2.6650   -0.0312 H   0  0  0  0  0  0  0  0  0  0  0  0
    6.2931    3.6546    3.5547 H   0  0  0  0  0  0  0  0  0  0  0  0
    5.2768    4.2590    2.1738 H   0  0  0  0  0  0  0  0  0  0  0  0
    7.0859    4.5338    2.2358 H   0  0  0  0  0  0  0  0  0  0  0  0
  1  2  1  0
  2  3  1  0
  3  4  2  0
  4  5  1  0
  5  6  2  0
  6  7  1  0
  7  8  2  0
  8  9  1  0
  9 10  1  0
  9 11  1  0
  9 12  1  0
  6 13  1  0
 13 14  2  0
 14 15  1  0
 15 16  2  0
 16 17  1  0
 17 18  1  0
 18 19  1  0
 19 20  2  0
 19 21  1  0
 21 22  1  0
 21 23  1  0
 23 24  1  0
 24 25  2  0
 25 26  1  0
 26 27  1  0
 27 28  1  0
 27 29  1  0
 29 30  2  0
 29 31  1  0
 31 32  1  0
 32 33  1  0
 33 34  1  0
 34 35  2  0
 35 36  1  0
 35 37  1  0
 37 38  1  0
 31 39  1  0
 39 40  2  0
 39 41  1  0
 17 42  2  0
  8  3  1  0
 42 13  1  0
 41 23  1  0
 41 26  2  0
 38 33  2  0
  1 43  1  0
  1 44  1  0
  1 45  1  0
  5 46  1  0
  7 47  1  0
 14 48  1  0
 15 49  1  0
 16 50  1  0
 18 51  1  0
 21 52  1  1
 22 53  1  0
 22 54  1  0
 22 55  1  0
 24 56  1  0
 28 57  1  0
 28 58  1  0
 28 59  1  0
 32 60  1  0
 32 61  1  0
 34 62  1  0
 36 63  1  0
 36 64  1  0
 36 65  1  0
M  END
$$$$
[H]c1nc(C([H])([H])[H])c(C(F)(F)F)c([H])c1-c1nc(N([H])C(=O)[C@@]([H])(n2c([H])nc3c2c(=O)n(C([H])([H])c2noc(C([H])([H])[H])n2)c(=O)n3C([H])([H])[H])C([H])([H])[H])c([H])s1
     RDKit          3D

 60 64  0  0  0  0  0  0  0  0999 V2000
    1.2310   -1.9318   -1.1406 C   0  0  0  0  0  0  0  0  0  0  0  0
    1.0944   -0.6754   -1.9146 C   0  0  1  0  0  0  0  0  0  0  0  0
    0.0023    0.2442   -1.4328 C   0  0  0  0  0  0  0  0  0  0  0  0
    0.2708    1.4278   -1.2719 O   0  0  0  0  0  0  0  0  0  0  0  0
   -1.2422   -0.3243   -1.2079 N   0  0  0  0  0  0  0  0  0  0  0  0
   -2.4098    0.4114   -0.7483 C   0  0  0  0  0  0  0  0  0  0  0  0
   -2.3816    1.7517   -0.4911 C   0  0  0  0  0  0  0  0  0  0  0  0
   -4.0173    2.0422    0.0038 S   0  0  0  0  0  0  0  0  0  0  0  0
   -4.6056    0.4538   -0.1525 C   0  0  0  0  0  0  0  0  0  0  0  0
   -3.5514   -0.2022   -0.5640 N   0  0  0  0  0  0  0  0  0  0  0  0
   -5.9723   -0.0692    0.1095 C   0  0  0  0  0  0  0  0  0  0  0  0
   -6.2441   -1.3896   -0.0781 C   0  0  0  0  0  0  0  0  0  0  0  0
   -7.4767   -1.9118    0.1482 N   0  0  0  0  0  0  0  0  0  0  0  0
   -8.4676   -1.0867    0.5754 C   0  0  0  0  0  0  0  0  0  0  0  0
   -9.8156   -1.6676    0.8215 C   0  0  0  0  0  0  0  0  0  0  0  0
   -8.1935    0.2487    0.7653 C   0  0  0  0  0  0  0  0  0  0  0  0
   -6.9227    0.7959    0.5338 C   0  0  0  0  0  0  0  0  0  0  0  0
   -9.2570    1.1617    1.2287 C   0  0  0  0  0  0  0  0  0  0  0  0
   -8.7852    2.4550    1.3593 F   0  0  0  0  0  0  0  0  0  0  0  0
  -10.3155    1.2313    0.3262 F   0  0  0  0  0  0  0  0  0  0  0  0
   -9.7937    0.7807    2.4425 F   0  0  0  0  0  0  0  0  0  0  0  0
    2.2786    0.0272   -2.2659 N   0  0  0  0  0  0  0  0  0  0  0  0
    2.6973    0.3192   -3.5432 C   0  0  0  0  0  0  0  0  0  0  0  0
    3.8326    0.9807   -3.5478 N   0  0  0  0  0  0  0  0  0  0  0  0
    4.1845    1.1375   -2.2634 C   0  0  0  0  0  0  0  0  0  0  0  0
    5.2418    1.7332   -1.7161 N   0  0  0  0  0  0  0  0  0  0  0  0
    6.2262    2.3398   -2.5977 C   0  0  0  0  0  0  0  0  0  0  0  0
    5.3724    1.7594   -0.3770 C   0  0  0  0  0  0  0  0  0  0  0  0
    6.3944    2.3378    0.0844 O   0  0  0  0  0  0  0  0  0  0  0  0
    4.4741    1.2057    0.4366 N   0  0  0  0  0  0  0  0  0  0  0  0
    4.6050    1.2284    1.8714 C   0  0  0  0  0  0  0  0  0  0  0  0
    5.3325    0.0807    2.4125 C   0  0  0  0  0  0  0  0  0  0  0  0
    4.7927   -1.0975    2.8029 N   0  0  0  0  0  0  0  0  0  0  0  0
    5.7592   -1.8814    3.2326 O   0  0  0  0  0  0  0  0  0  0  0  0
    6.9009   -1.2847    3.1463 C   0  0  0  0  0  0  0  0  0  0  0  0
    8.2426   -1.8019    3.5201 C   0  0  0  0  0  0  0  0  0  0  0  0
    6.6612   -0.0626    2.6388 N   0  0  0  0  0  0  0  0  0  0  0  0
    3.3910    0.5939   -0.0853 C   0  0  0  0  0  0  0  0  0  0  0  0
    2.5292    0.0637    0.6699 O   0  0  0  0  0  0  0  0  0  0  0  0
    3.2237    0.5472   -1.4491 C   0  0  0  0  0  0  0  0  0  0  0  0
    2.2932   -2.2348   -1.0010 H   0  0  0  0  0  0  0  0  0  0  0  0
    0.7789   -2.8358   -1.6595 H   0  0  0  0  0  0  0  0  0  0  0  0
    0.6685   -1.9275   -0.1608 H   0  0  0  0  0  0  0  0  0  0  0  0
    0.6418   -1.0183   -2.9132 H   0  0  0  0  0  0  0  0  0  0  0  0
   -1.4076   -1.3797   -1.3712 H   0  0  0  0  0  0  0  0  0  0  0  0
   -1.5770    2.4942   -0.5595 H   0  0  0  0  0  0  0  0  0  0  0  0
   -5.4643   -2.0529   -0.4170 H   0  0  0  0  0  0  0  0  0  0  0  0
   -9.8052   -2.7579    0.5559 H   0  0  0  0  0  0  0  0  0  0  0  0
  -10.0993   -1.6230    1.9021 H   0  0  0  0  0  0  0  0  0  0  0  0
  -10.6083   -1.2284    0.2043 H   0  0  0  0  0  0  0  0  0  0  0  0
   -6.6978    1.8241    0.6763 H   0  0  0  0  0  0  0  0  0  0  0  0
    2.1555    0.0376   -4.4435 H   0  0  0  0  0  0  0  0  0  0  0  0
    7.2158    2.3720   -2.1137 H   0  0  0  0  0  0  0  0  0  0  0  0
    5.8350    3.3375   -2.8755 H   0  0  0  0  0  0  0  0  0  0  0  0
    6.2957    1.7633   -3.5581 H   0  0  0  0  0  0  0  0  0  0  0  0
    3.5817    1.2553    2.3138 H   0  0  0  0  0  0  0  0  0  0  0  0
    5.0946    2.1758    2.2349 H   0  0  0  0  0  0  0  0  0  0  0  0
    8.6533   -2.4945    2.7675 H   0  0  0  0  0  0  0  0  0  0  0  0
    8.9757   -0.9934    3.6631 H   0  0  0  0  0  0  0  0  0  0  0  0
    8.1837   -2.3857    4.4728 H   0  0  0  0  0  0  0  0  0  0  0  0
  1  2  1  0
  2  3  1  0
  3  4  2  0
  3  5  1  0
  5  6  1  0
  6  7  2  0
  7  8  1  0
  8  9  1  0
  9 10  2  0
  9 11  1  0
 11 12  2  0
 12 13  1  0
 13 14  2  0
 14 15  1  0
 14 16  1  0
 16 17  2  0
 16 18  1  0
 18 19  1  0
 18 20  1  0
 18 21  1  0
  2 22  1  0
 22 23  1  0
 23 24  2  0
 24 25  1  0
 25 26  1  0
 26 27  1  0
 26 28  1  0
 28 29  2  0
 28 30  1  0
 30 31  1  0
 31 32  1  0
 32 33  2  0
 33 34  1  0
 34 35  1  0
 35 36  1  0
 35 37  2  0
 30 38  1  0
 38 39  2  0
 38 40  1  0
 10  6  1  0
 17 11  1  0
 40 22  1  0
 40 25  2  0
 37 32  1  0
  1 41  1  0
  1 42  1  0
  1 43  1  0
  2 44  1  6
  5 45  1  0
  7 46  1  0
 12 47  1  0
 15 48  1  0
 15 49  1  0
 15 50  1  0
 17 51  1  0
 23 52  1  0
 27 53  1  0
 27 54  1  0
 27 55  1  0
 31 56  1  0
 31 57  1  0
 36 58  1  0
 36 59  1  0
 36 60  1  0
M  END
$$$$
[H]c1c(C#N)sc(-c2nn([H])c3c([H])c(OC(F)(F)F)c([H])c([H])c23)c1[H]
     RDKit          3D

 27 29  0  0  0  0  0  0  0  0999 V2000
    4.4158   -0.4891   -2.0847 F   0  0  0  0  0  0  0  0  0  0  0  0
    4.9858   -0.3345   -0.8441 C   0  0  0  0  0  0  0  0  0  0  0  0
    6.2982   -0.7522   -0.8480 F   0  0  0  0  0  0  0  0  0  0  0  0
    4.9433    1.0163   -0.5093 F   0  0  0  0  0  0  0  0  0  0  0  0
    4.2177   -1.0498    0.1018 O   0  0  0  0  0  0  0  0  0  0  0  0
    2.8813   -0.6817    0.2477 C   0  0  0  0  0  0  0  0  0  0  0  0
    1.9050   -1.2766   -0.5171 C   0  0  0  0  0  0  0  0  0  0  0  0
    0.5587   -0.9332   -0.3979 C   0  0  0  0  0  0  0  0  0  0  0  0
    0.2157    0.0235    0.5093 C   0  0  0  0  0  0  0  0  0  0  0  0
   -0.9661    0.5665    0.8577 C   0  0  0  0  0  0  0  0  0  0  0  0
   -0.6897    1.4822    1.8280 N   0  0  0  0  0  0  0  0  0  0  0  0
    0.5731    1.5378    2.0972 N   0  0  0  0  0  0  0  0  0  0  0  0
    1.1879    0.6475    1.3029 C   0  0  0  0  0  0  0  0  0  0  0  0
    2.5067    0.2692    1.1438 C   0  0  0  0  0  0  0  0  0  0  0  0
   -2.3555    0.3488    0.4038 C   0  0  0  0  0  0  0  0  0  0  0  0
   -2.9137   -0.4676   -0.5135 C   0  0  0  0  0  0  0  0  0  0  0  0
   -4.2594   -0.4185   -0.6910 C   0  0  0  0  0  0  0  0  0  0  0  0
   -4.9573    0.4593    0.0762 C   0  0  0  0  0  0  0  0  0  0  0  0
   -3.7490    1.1894    1.0162 S   0  0  0  0  0  0  0  0  0  0  0  0
   -6.3946    0.7037    0.0802 C   0  0  0  0  0  0  0  0  0  0  0  0
   -7.5315    0.8819    0.0931 N   0  0  0  0  0  0  0  0  0  0  0  0
    2.1984   -2.0314   -1.2290 H   0  0  0  0  0  0  0  0  0  0  0  0
   -0.1935   -1.3902   -0.9858 H   0  0  0  0  0  0  0  0  0  0  0  0
    1.0227    2.1601    2.8008 H   0  0  0  0  0  0  0  0  0  0  0  0
    3.2310    0.7667    1.7678 H   0  0  0  0  0  0  0  0  0  0  0  0
   -2.3145   -1.1758   -1.1263 H   0  0  0  0  0  0  0  0  0  0  0  0
   -4.8166   -1.0521   -1.4238 H   0  0  0  0  0  0  0  0  0  0  0  0
  1  2  1  0
  2  3  1  0
  2  4  1  0
  2  5  1  0
  5  6  1  0
  6  7  2  0
  7  8  1  0
  8  9  2  0
  9 10  1  0
 10 11  2  0
 11 12  1  0
 12 13  1  0
 13 14  2  0
 10 15  1  0
 15 16  2  0
 16 17  1  0
 17 18  2  0
 18 19  1  0
 18 20  1  0
 20 21  3  0
 14  6  1  0
 19 15  1  0
 13  9  1  0
  7 22  1  0
  8 23  1  0
 12 24  1  0
 14 25  1  0
 16 26  1  0
 17 27  1  0
M  END
$$$$
[H]C1=Nc2c([H])c([H])c([H])c([H])c2Sc2c([H])c([H])c([H])c([H])c21
     RDKit          3D

 24 26  0  0  0  0  0  0  0  0999 V2000
    0.7105   -1.4067    1.0269 S   0  0  0  0  0  0  0  0  0  0  0  0
   -1.0222   -1.0008    0.7524 C   0  0  0  0  0  0  0  0  0  0  0  0
   -1.7710   -1.2433    1.8842 C   0  0  0  0  0  0  0  0  0  0  0  0
   -3.1282   -1.0059    1.9096 C   0  0  0  0  0  0  0  0  0  0  0  0
   -3.7096   -0.5163    0.7597 C   0  0  0  0  0  0  0  0  0  0  0  0
   -2.9570   -0.2749   -0.3707 C   0  0  0  0  0  0  0  0  0  0  0  0
   -1.5810   -0.5122   -0.4068 C   0  0  0  0  0  0  0  0  0  0  0  0
   -0.9706   -0.2006   -1.6723 C   0  0  0  0  0  0  0  0  0  0  0  0
    0.2353    0.1657   -1.9351 N   0  0  0  0  0  0  0  0  0  0  0  0
    1.3777    0.3968   -1.1436 C   0  0  0  0  0  0  0  0  0  0  0  0
    2.2582    1.3159   -1.7024 C   0  0  0  0  0  0  0  0  0  0  0  0
    3.4133    1.6298   -1.0307 C   0  0  0  0  0  0  0  0  0  0  0  0
    3.6886    1.0377    0.1798 C   0  0  0  0  0  0  0  0  0  0  0  0
    2.8149    0.1187    0.7453 C   0  0  0  0  0  0  0  0  0  0  0  0
    1.6516   -0.2020    0.0762 C   0  0  0  0  0  0  0  0  0  0  0  0
   -1.2885   -1.6296    2.7786 H   0  0  0  0  0  0  0  0  0  0  0  0
   -3.7251   -1.1962    2.8026 H   0  0  0  0  0  0  0  0  0  0  0  0
   -4.7728   -0.3278    0.7723 H   0  0  0  0  0  0  0  0  0  0  0  0
   -3.3979    0.1118   -1.2893 H   0  0  0  0  0  0  0  0  0  0  0  0
   -1.6373   -0.2914   -2.5166 H   0  0  0  0  0  0  0  0  0  0  0  0
    2.0390    1.7788   -2.6528 H   0  0  0  0  0  0  0  0  0  0  0  0
    4.1225    2.3346   -1.4249 H   0  0  0  0  0  0  0  0  0  0  0  0
    4.5909    1.2516    0.7537 H   0  0  0  0  0  0  0  0  0  0  0  0
    3.0588   -0.3336    1.7040 H   0  0  0  0  0  0  0  0  0  0  0  0
  1  2  1  0
  2  3  2  0
  3  4  1  0
  4  5  2  0
  5  6  1  0
  6  7  2  0
  7  8  1  0
  8  9  2  0
  9 10  1  0
 10 11  2  0
 11 12  1  0
 12 13  2  0
 13 14  1  0
 14 15  2  0
 15  1  1  0
  7  2  1  0
 15 10  1  0
  3 16  1  0
  4 17  1  0
  5 18  1  0
  6 19  1  0
  8 20  1  0
 11 21  1  0
 12 22  1  0
 13 23  1  0
 14 24  1  0
M  END
$$$$
[H]c1nc([H])c(N([H])C(=O)[C@@]([H])(n2c([H])nc3c2c(=O)n(C([H])([H])C(=O)C([H])([H])[H])c(=O)n3C([H])([H])[H])C([H])([H])[H])nc1-c1c([H])nc(N2C([H])([H])C3([H])C([H])([H])C3([H])C2([H])[H])nc1[H]
     RDKit          3D

 65 70  0  0  0  0  0  0  0  0999 V2000
   -1.6476    2.1725    0.3536 C   0  0  0  0  0  0  0  0  0  0  0  0
   -2.1382    0.8634   -0.2143 C   0  0  1  0  0  0  0  0  0  0  0  0
   -0.9443    0.0303   -0.5288 C   0  0  0  0  0  0  0  0  0  0  0  0
    0.1913    0.4990   -0.2903 O   0  0  0  0  0  0  0  0  0  0  0  0
   -1.0307   -1.2537   -1.0791 N   0  0  0  0  0  0  0  0  0  0  0  0
    0.1314   -2.0325   -1.3719 C   0  0  0  0  0  0  0  0  0  0  0  0
   -0.0019   -3.3019   -1.9183 C   0  0  0  0  0  0  0  0  0  0  0  0
    1.0977   -4.0069   -2.1819 N   0  0  0  0  0  0  0  0  0  0  0  0
    2.3215   -3.5074   -1.9270 C   0  0  0  0  0  0  0  0  0  0  0  0
    2.5056   -2.2583   -1.3876 C   0  0  0  0  0  0  0  0  0  0  0  0
    1.3863   -1.5672   -1.1306 N   0  0  0  0  0  0  0  0  0  0  0  0
    3.8034   -1.6691   -1.0914 C   0  0  0  0  0  0  0  0  0  0  0  0
    4.9940   -2.3242   -1.3321 C   0  0  0  0  0  0  0  0  0  0  0  0
    6.1769   -1.7471   -1.0446 N   0  0  0  0  0  0  0  0  0  0  0  0
    6.2865   -0.5054   -0.5085 C   0  0  0  0  0  0  0  0  0  0  0  0
    5.1285    0.1375   -0.2720 N   0  0  0  0  0  0  0  0  0  0  0  0
    3.9287   -0.4058   -0.5455 C   0  0  0  0  0  0  0  0  0  0  0  0
    7.5382    0.0809   -0.2152 N   0  0  0  0  0  0  0  0  0  0  0  0
    7.7038    1.3895    0.3573 C   0  0  0  0  0  0  0  0  0  0  0  0
    9.1667    1.7386    0.2178 C   0  0  0  0  0  0  0  0  0  0  0  0
   10.1154    1.0714    1.1188 C   0  0  0  0  0  0  0  0  0  0  0  0
    9.8616    0.5375   -0.2411 C   0  0  0  0  0  0  0  0  0  0  0  0
    8.8223   -0.5259   -0.4389 C   0  0  0  0  0  0  0  0  0  0  0  0
   -2.9783    0.2512    0.7965 N   0  0  0  0  0  0  0  0  0  0  0  0
   -2.5494   -0.6283    1.7149 C   0  0  0  0  0  0  0  0  0  0  0  0
   -3.6185   -0.9541    2.4557 N   0  0  0  0  0  0  0  0  0  0  0  0
   -4.6944   -0.2902    2.0077 C   0  0  0  0  0  0  0  0  0  0  0  0
   -5.9823   -0.2914    2.4290 N   0  0  0  0  0  0  0  0  0  0  0  0
   -6.3613   -1.1227    3.5530 C   0  0  0  0  0  0  0  0  0  0  0  0
   -6.8593    0.4868    1.7786 C   0  0  0  0  0  0  0  0  0  0  0  0
   -8.0514    0.4597    2.2000 O   0  0  0  0  0  0  0  0  0  0  0  0
   -6.4984    1.2687    0.7201 N   0  0  0  0  0  0  0  0  0  0  0  0
   -7.5325    2.0599    0.1046 C   0  0  0  0  0  0  0  0  0  0  0  0
   -8.1718    1.2717   -0.9848 C   0  0  0  0  0  0  0  0  0  0  0  0
   -9.2647    1.8735   -1.7651 C   0  0  0  0  0  0  0  0  0  0  0  0
   -7.7943    0.1367   -1.2301 O   0  0  0  0  0  0  0  0  0  0  0  0
   -5.2271    1.2726    0.3008 C   0  0  0  0  0  0  0  0  0  0  0  0
   -4.8822    1.9836   -0.6671 O   0  0  0  0  0  0  0  0  0  0  0  0
   -4.2890    0.4935    0.9324 C   0  0  0  0  0  0  0  0  0  0  0  0
   -2.4407    2.6629    0.9225 H   0  0  0  0  0  0  0  0  0  0  0  0
   -1.2891    2.7798   -0.5117 H   0  0  0  0  0  0  0  0  0  0  0  0
   -0.7559    1.9273    0.9818 H   0  0  0  0  0  0  0  0  0  0  0  0
   -2.6920    0.9770   -1.1632 H   0  0  0  0  0  0  0  0  0  0  0  0
   -1.9585   -1.7209   -1.3097 H   0  0  0  0  0  0  0  0  0  0  0  0
   -0.9741   -3.6914   -2.1178 H   0  0  0  0  0  0  0  0  0  0  0  0
    3.1728   -4.1176   -2.1585 H   0  0  0  0  0  0  0  0  0  0  0  0
    4.9516   -3.3315   -1.7655 H   0  0  0  0  0  0  0  0  0  0  0  0
    3.0087    0.1323   -0.3459 H   0  0  0  0  0  0  0  0  0  0  0  0
    7.4025    1.4304    1.4264 H   0  0  0  0  0  0  0  0  0  0  0  0
    7.0998    2.1132   -0.2271 H   0  0  0  0  0  0  0  0  0  0  0  0
    9.3917    2.6800   -0.3031 H   0  0  0  0  0  0  0  0  0  0  0  0
   11.1307    1.4495    1.3013 H   0  0  0  0  0  0  0  0  0  0  0  0
    9.6893    0.4435    1.9452 H   0  0  0  0  0  0  0  0  0  0  0  0
   10.6385    0.5679   -1.0379 H   0  0  0  0  0  0  0  0  0  0  0  0
    9.0000   -1.3899    0.2582 H   0  0  0  0  0  0  0  0  0  0  0  0
    8.8509   -0.9539   -1.4506 H   0  0  0  0  0  0  0  0  0  0  0  0
   -1.5215   -1.0099    1.8388 H   0  0  0  0  0  0  0  0  0  0  0  0
   -5.4738   -1.2885    4.1647 H   0  0  0  0  0  0  0  0  0  0  0  0
   -6.6880   -2.0961    3.1390 H   0  0  0  0  0  0  0  0  0  0  0  0
   -7.1739   -0.6696    4.1547 H   0  0  0  0  0  0  0  0  0  0  0  0
   -8.3104    2.3283    0.8329 H   0  0  0  0  0  0  0  0  0  0  0  0
   -7.0770    2.9843   -0.3429 H   0  0  0  0  0  0  0  0  0  0  0  0
  -10.2515    1.4794   -1.4991 H   0  0  0  0  0  0  0  0  0  0  0  0
   -9.2751    2.9602   -1.6229 H   0  0  0  0  0  0  0  0  0  0  0  0
   -9.0970    1.6670   -2.8460 H   0  0  0  0  0  0  0  0  0  0  0  0
  1  2  1  0
  2  3  1  0
  3  4  2  0
  3  5  1  0
  5  6  1  0
  6  7  2  0
  7  8  1  0
  8  9  2  0
  9 10  1  0
 10 11  2  0
 10 12  1  0
 12 13  2  0
 13 14  1  0
 14 15  2  0
 15 16  1  0
 16 17  2  0
 15 18  1  0
 18 19  1  0
 19 20  1  0
 20 21  1  0
 21 22  1  0
 22 23  1  0
  2 24  1  0
 24 25  1  0
 25 26  2  0
 26 27  1  0
 27 28  1  0
 28 29  1  0
 28 30  1  0
 30 31  2  0
 30 32  1  0
 32 33  1  0
 33 34  1  0
 34 35  1  0
 34 36  2  0
 32 37  1  0
 37 38  2  0
 37 39  1  0
 11  6  1  0
 17 12  1  0
 23 18  1  0
 39 24  1  0
 22 20  1  0
 39 27  2  0
  1 40  1  0
  1 41  1  0
  1 42  1  0
  2 43  1  6
  5 44  1  0
  7 45  1  0
  9 46  1  0
 13 47  1  0
 17 48  1  0
 19 49  1  0
 19 50  1  0
 20 51  1  0
 21 52  1  0
 21 53  1  0
 22 54  1  0
 23 55  1  0
 23 56  1  0
 25 57  1  0
 29 58  1  0
 29 59  1  0
 29 60  1  0
 33 61  1  0
 33 62  1  0
 35 63  1  0
 35 64  1  0
 35 65  1  0
M  END
$$$$
[H]c1nc(N2C([H])([H])C3([H])C([H])([H])C3([H])C2([H])[H])c([H])c([H])c1-c1nc(N([H])C(=O)[C@@]([H])(n2c([H])nc3c2c(=O)n(C([H])([H])C(=O)C([H])([H])C([H])([H])[H])c(=O)n3C([H])([H])[H])C([H])([H])[H])c([H])c([H])c1[H]
     RDKit          3D

 70 75  0  0  0  0  0  0  0  0999 V2000
   -6.9925    4.0293    0.4392 C   0  0  0  0  0  0  0  0  0  0  0  0
   -6.3491    3.6695   -0.8793 C   0  0  0  0  0  0  0  0  0  0  0  0
   -6.1585    2.1959   -0.9747 C   0  0  0  0  0  0  0  0  0  0  0  0
   -5.6557    1.7484   -1.9779 O   0  0  0  0  0  0  0  0  0  0  0  0
   -6.5705    1.3087    0.1213 C   0  0  0  0  0  0  0  0  0  0  0  0
   -6.2909   -0.0713   -0.2137 N   0  0  0  0  0  0  0  0  0  0  0  0
   -7.1779   -0.8619   -0.8464 C   0  0  0  0  0  0  0  0  0  0  0  0
   -8.2834   -0.3465   -1.1459 O   0  0  0  0  0  0  0  0  0  0  0  0
   -6.8969   -2.1404   -1.1445 N   0  0  0  0  0  0  0  0  0  0  0  0
   -7.9074   -2.9161   -1.8233 C   0  0  0  0  0  0  0  0  0  0  0  0
   -5.7043   -2.6649   -0.8113 C   0  0  0  0  0  0  0  0  0  0  0  0
   -5.1771   -3.8939   -0.9897 N   0  0  0  0  0  0  0  0  0  0  0  0
   -3.9426   -3.8648   -0.4588 C   0  0  0  0  0  0  0  0  0  0  0  0
   -3.6886   -2.6660    0.0395 N   0  0  0  0  0  0  0  0  0  0  0  0
   -2.4434   -2.2630    0.6950 C   0  0  1  0  0  0  0  0  0  0  0  0
   -1.9379   -3.5436    1.3948 C   0  0  0  0  0  0  0  0  0  0  0  0
   -1.4517   -1.9230   -0.3273 C   0  0  0  0  0  0  0  0  0  0  0  0
   -1.8511   -2.2135   -1.5646 O   0  0  0  0  0  0  0  0  0  0  0  0
   -0.2081   -1.3730   -0.2273 N   0  0  0  0  0  0  0  0  0  0  0  0
    0.5512   -0.8871    0.8450 C   0  0  0  0  0  0  0  0  0  0  0  0
    0.1970   -0.7536    2.1426 C   0  0  0  0  0  0  0  0  0  0  0  0
    1.0981   -0.2745    3.0894 C   0  0  0  0  0  0  0  0  0  0  0  0
    2.3603    0.0672    2.7016 C   0  0  0  0  0  0  0  0  0  0  0  0
    2.7428   -0.0579    1.3954 C   0  0  0  0  0  0  0  0  0  0  0  0
    1.8514   -0.5188    0.5277 N   0  0  0  0  0  0  0  0  0  0  0  0
    4.1077    0.3004    0.9524 C   0  0  0  0  0  0  0  0  0  0  0  0
    5.0652    0.7900    1.7852 C   0  0  0  0  0  0  0  0  0  0  0  0
    6.3133    1.0892    1.2677 C   0  0  0  0  0  0  0  0  0  0  0  0
    6.6448    0.9155   -0.0653 C   0  0  0  0  0  0  0  0  0  0  0  0
    5.6720    0.4300   -0.8568 N   0  0  0  0  0  0  0  0  0  0  0  0
    4.4571    0.1323   -0.3848 C   0  0  0  0  0  0  0  0  0  0  0  0
    7.9296    1.2352   -0.5449 N   0  0  0  0  0  0  0  0  0  0  0  0
    8.4124    1.0538   -1.9055 C   0  0  0  0  0  0  0  0  0  0  0  0
    9.8727    0.9885   -1.6091 C   0  0  0  0  0  0  0  0  0  0  0  0
   10.9229    1.9097   -1.5807 C   0  0  0  0  0  0  0  0  0  0  0  0
    9.8381    2.3663   -0.8231 C   0  0  0  0  0  0  0  0  0  0  0  0
    8.9893    1.8098    0.2683 C   0  0  0  0  0  0  0  0  0  0  0  0
   -4.7445   -1.8938   -0.1542 C   0  0  0  0  0  0  0  0  0  0  0  0
   -5.0954   -0.5799    0.1258 C   0  0  0  0  0  0  0  0  0  0  0  0
   -4.2523    0.1488    0.7192 O   0  0  0  0  0  0  0  0  0  0  0  0
   -6.2961    3.8118    1.2505 H   0  0  0  0  0  0  0  0  0  0  0  0
   -7.3163    5.0865    0.3703 H   0  0  0  0  0  0  0  0  0  0  0  0
   -7.9159    3.4163    0.5410 H   0  0  0  0  0  0  0  0  0  0  0  0
   -7.0986    3.9298   -1.6768 H   0  0  0  0  0  0  0  0  0  0  0  0
   -5.3949    4.1841   -0.9927 H   0  0  0  0  0  0  0  0  0  0  0  0
   -6.0126    1.6222    1.0434 H   0  0  0  0  0  0  0  0  0  0  0  0
   -7.6472    1.3974    0.3748 H   0  0  0  0  0  0  0  0  0  0  0  0
   -8.8335   -3.0244   -1.2067 H   0  0  0  0  0  0  0  0  0  0  0  0
   -7.5734   -3.9374   -2.0665 H   0  0  0  0  0  0  0  0  0  0  0  0
   -8.2117   -2.4347   -2.7563 H   0  0  0  0  0  0  0  0  0  0  0  0
   -3.3051   -4.7629   -0.4832 H   0  0  0  0  0  0  0  0  0  0  0  0
   -2.6293   -1.5241    1.4584 H   0  0  0  0  0  0  0  0  0  0  0  0
   -1.6318   -3.2803    2.4482 H   0  0  0  0  0  0  0  0  0  0  0  0
   -1.0657   -3.9580    0.8919 H   0  0  0  0  0  0  0  0  0  0  0  0
   -2.7497   -4.2764    1.4500 H   0  0  0  0  0  0  0  0  0  0  0  0
    0.3039   -1.2528   -1.2247 H   0  0  0  0  0  0  0  0  0  0  0  0
   -0.7949   -1.0037    2.4540 H   0  0  0  0  0  0  0  0  0  0  0  0
    0.7431   -0.1938    4.1211 H   0  0  0  0  0  0  0  0  0  0  0  0
    3.0628    0.4394    3.4353 H   0  0  0  0  0  0  0  0  0  0  0  0
    4.8593    0.9432    2.8274 H   0  0  0  0  0  0  0  0  0  0  0  0
    7.0636    1.4807    1.9594 H   0  0  0  0  0  0  0  0  0  0  0  0
    3.6729   -0.2611   -1.0332 H   0  0  0  0  0  0  0  0  0  0  0  0
    8.1756    1.9451   -2.5084 H   0  0  0  0  0  0  0  0  0  0  0  0
    8.0123    0.1361   -2.3714 H   0  0  0  0  0  0  0  0  0  0  0  0
   10.0268    0.0713   -0.9536 H   0  0  0  0  0  0  0  0  0  0  0  0
   11.8810    1.6602   -1.0421 H   0  0  0  0  0  0  0  0  0  0  0  0
   11.2020    2.4253   -2.5412 H   0  0  0  0  0  0  0  0  0  0  0  0
    9.2315    3.1879   -1.3220 H   0  0  0  0  0  0  0  0  0  0  0  0
    9.4682    1.0695    0.9124 H   0  0  0  0  0  0  0  0  0  0  0  0
    8.5276    2.6216    0.8701 H   0  0  0  0  0  0  0  0  0  0  0  0
  1  2  1  0
  2  3  1  0
  3  4  2  0
  3  5  1  0
  5  6  1  0
  6  7  1  0
  7  8  2  0
  7  9  1  0
  9 10  1  0
  9 11  1  0
 11 12  1  0
 12 13  2  0
 13 14  1  0
 14 15  1  0
 15 16  1  0
 15 17  1  0
 17 18  2  0
 17 19  1  0
 19 20  1  0
 20 21  2  0
 21 22  1  0
 22 23  2  0
 23 24  1  0
 24 25  2  0
 24 26  1  0
 26 27  2  0
 27 28  1  0
 28 29  2  0
 29 30  1  0
 30 31  2  0
 29 32  1  0
 32 33  1  0
 33 34  1  0
 34 35  1  0
 35 36  1  0
 36 37  1  0
 14 38  1  0
 38 39  1  0
 39 40  2  0
 39  6  1  0
 38 11  2  0
 25 20  1  0
 31 26  1  0
 37 32  1  0
 36 34  1  0
  1 41  1  0
  1 42  1  0
  1 43  1  0
  2 44  1  0
  2 45  1  0
  5 46  1  0
  5 47  1  0
 10 48  1  0
 10 49  1  0
 10 50  1  0
 13 51  1  0
 15 52  1  1
 16 53  1  0
 16 54  1  0
 16 55  1  0
 19 56  1  0
 21 57  1  0
 22 58  1  0
 23 59  1  0
 27 60  1  0
 28 61  1  0
 31 62  1  0
 33 63  1  0
 33 64  1  0
 34 65  1  0
 35 66  1  0
 35 67  1  0
 36 68  1  0
 37 69  1  0
 37 70  1  0
M  END
$$$$
[H]c1nc(C(F)(F)F)nc([H])c1-c1nc(N([H])C(=O)C([H])([H])n2c([H])nc3c2c(=O)n(C([H])([H])C(=O)C([H])([H])[H])c(=O)n3C([H])([H])[H])c([H])c([H])c1[H]
     RDKit          3D

 53 56  0  0  0  0  0  0  0  0999 V2000
   -8.2585   -0.2757    1.4520 C   0  0  0  0  0  0  0  0  0  0  0  0
   -6.7725   -0.4009    1.4647 C   0  0  0  0  0  0  0  0  0  0  0  0
   -6.1477    0.1119    2.3719 O   0  0  0  0  0  0  0  0  0  0  0  0
   -6.0855   -1.1289    0.3853 C   0  0  0  0  0  0  0  0  0  0  0  0
   -5.0040   -0.3247   -0.1563 N   0  0  0  0  0  0  0  0  0  0  0  0
   -5.2995    0.6499   -1.0515 C   0  0  0  0  0  0  0  0  0  0  0  0
   -6.5154    0.8595   -1.3670 O   0  0  0  0  0  0  0  0  0  0  0  0
   -4.3309    1.3734   -1.5923 N   0  0  0  0  0  0  0  0  0  0  0  0
   -4.6247    2.4500   -2.5547 C   0  0  0  0  0  0  0  0  0  0  0  0
   -3.0315    1.1737   -1.2799 C   0  0  0  0  0  0  0  0  0  0  0  0
   -1.8592    1.7602   -1.6597 N   0  0  0  0  0  0  0  0  0  0  0  0
   -0.8402    1.1712   -1.0199 C   0  0  0  0  0  0  0  0  0  0  0  0
   -1.4026    0.2079   -0.2387 N   0  0  0  0  0  0  0  0  0  0  0  0
   -0.5334   -0.6877    0.5103 C   0  0  0  0  0  0  0  0  0  0  0  0
   -0.0067   -1.6296   -0.5494 C   0  0  0  0  0  0  0  0  0  0  0  0
   -0.9050   -2.1745   -1.3370 O   0  0  0  0  0  0  0  0  0  0  0  0
    1.3173   -1.9557   -0.7855 N   0  0  0  0  0  0  0  0  0  0  0  0
    2.4106   -1.6440    0.0991 C   0  0  0  0  0  0  0  0  0  0  0  0
    2.1589   -1.5852    1.4750 C   0  0  0  0  0  0  0  0  0  0  0  0
    3.1311   -1.1152    2.3021 C   0  0  0  0  0  0  0  0  0  0  0  0
    4.3158   -0.7181    1.7355 C   0  0  0  0  0  0  0  0  0  0  0  0
    4.5523   -0.7737    0.4081 C   0  0  0  0  0  0  0  0  0  0  0  0
    3.5879   -1.2442   -0.4132 N   0  0  0  0  0  0  0  0  0  0  0  0
    5.8089   -0.2130   -0.1365 C   0  0  0  0  0  0  0  0  0  0  0  0
    6.0647   -0.1777   -1.5010 C   0  0  0  0  0  0  0  0  0  0  0  0
    7.1906    0.4323   -1.9800 N   0  0  0  0  0  0  0  0  0  0  0  0
    8.0913    1.0149   -1.1798 C   0  0  0  0  0  0  0  0  0  0  0  0
    7.8538    0.9792    0.1275 N   0  0  0  0  0  0  0  0  0  0  0  0
    6.7515    0.3874    0.6595 C   0  0  0  0  0  0  0  0  0  0  0  0
    9.3003    1.7342   -1.7193 C   0  0  0  0  0  0  0  0  0  0  0  0
    8.9541    3.0041   -2.1790 F   0  0  0  0  0  0  0  0  0  0  0  0
   10.2480    1.8958   -0.7283 F   0  0  0  0  0  0  0  0  0  0  0  0
    9.9076    1.0657   -2.7425 F   0  0  0  0  0  0  0  0  0  0  0  0
   -2.7059    0.1778   -0.3649 C   0  0  0  0  0  0  0  0  0  0  0  0
   -3.7456   -0.5724    0.1944 C   0  0  0  0  0  0  0  0  0  0  0  0
   -3.4325   -1.4547    1.0073 O   0  0  0  0  0  0  0  0  0  0  0  0
   -8.7228   -0.5894    2.4263 H   0  0  0  0  0  0  0  0  0  0  0  0
   -8.5477    0.7355    1.1502 H   0  0  0  0  0  0  0  0  0  0  0  0
   -8.6157   -0.9381    0.6075 H   0  0  0  0  0  0  0  0  0  0  0  0
   -6.7028   -1.4396   -0.4526 H   0  0  0  0  0  0  0  0  0  0  0  0
   -5.6324   -2.0949    0.7790 H   0  0  0  0  0  0  0  0  0  0  0  0
   -4.7980    3.4213   -2.0579 H   0  0  0  0  0  0  0  0  0  0  0  0
   -3.8430    2.4755   -3.3235 H   0  0  0  0  0  0  0  0  0  0  0  0
   -5.5691    2.1604   -3.0581 H   0  0  0  0  0  0  0  0  0  0  0  0
    0.2083    1.4333   -1.1299 H   0  0  0  0  0  0  0  0  0  0  0  0
    0.3187   -0.0608    0.8940 H   0  0  0  0  0  0  0  0  0  0  0  0
   -0.9826   -1.2652    1.2827 H   0  0  0  0  0  0  0  0  0  0  0  0
    1.5681   -2.5983   -1.5939 H   0  0  0  0  0  0  0  0  0  0  0  0
    1.2272   -1.9317    1.9121 H   0  0  0  0  0  0  0  0  0  0  0  0
    2.9502   -1.0615    3.3756 H   0  0  0  0  0  0  0  0  0  0  0  0
    5.0544   -0.3601    2.4397 H   0  0  0  0  0  0  0  0  0  0  0  0
    5.3348   -0.6436   -2.1670 H   0  0  0  0  0  0  0  0  0  0  0  0
    6.6092    0.3837    1.7303 H   0  0  0  0  0  0  0  0  0  0  0  0
  1  2  1  0
  2  3  2  0
  2  4  1  0
  4  5  1  0
  5  6  1  0
  6  7  2  0
  6  8  1  0
  8  9  1  0
  8 10  1  0
 10 11  1  0
 11 12  2  0
 12 13  1  0
 13 14  1  0
 14 15  1  0
 15 16  2  0
 15 17  1  0
 17 18  1  0
 18 19  2  0
 19 20  1  0
 20 21  2  0
 21 22  1  0
 22 23  2  0
 22 24  1  0
 24 25  2  0
 25 26  1  0
 26 27  2  0
 27 28  1  0
 28 29  2  0
 27 30  1  0
 30 31  1  0
 30 32  1  0
 30 33  1  0
 13 34  1  0
 34 35  1  0
 35 36  2  0
 35  5  1  0
 34 10  2  0
 23 18  1  0
 29 24  1  0
  1 37  1  0
  1 38  1  0
  1 39  1  0
  4 40  1  0
  4 41  1  0
  9 42  1  0
  9 43  1  0
  9 44  1  0
 12 45  1  0
 14 46  1  0
 14 47  1  0
 17 48  1  0
 19 49  1  0
 20 50  1  0
 21 51  1  0
 25 52  1  0
 29 53  1  0
M  END
$$$$
[H]c1nc([H])c(N([H])C(=O)[C@@]([H])(n2c([H])nc3c2c(=O)n(C([H])([H])C#N)c(=O)n3C([H])([H])[H])C([H])([H])[H])nc1-c1c([H])nc(N2C([H])([H])C([H])([H])C([H])([H])[C@]2([H])C(F)(F)F)nc1[H]
     RDKit          3D

 63 67  0  0  0  0  0  0  0  0999 V2000
    2.9448   -0.6427   -2.1870 C   0  0  0  0  0  0  0  0  0  0  0  0
    3.3561    0.5882   -1.4637 C   0  0  1  0  0  0  0  0  0  0  0  0
    2.6186    0.8010   -0.1563 C   0  0  0  0  0  0  0  0  0  0  0  0
    3.2736    1.0754    0.8416 O   0  0  0  0  0  0  0  0  0  0  0  0
    1.2401    0.6660   -0.2094 N   0  0  0  0  0  0  0  0  0  0  0  0
    0.3532    0.8224    0.8785 C   0  0  0  0  0  0  0  0  0  0  0  0
    0.7365    1.1334    2.1510 C   0  0  0  0  0  0  0  0  0  0  0  0
   -0.1822    1.2695    3.1603 N   0  0  0  0  0  0  0  0  0  0  0  0
   -1.4759    1.0894    2.8703 C   0  0  0  0  0  0  0  0  0  0  0  0
   -1.9201    0.7755    1.6098 C   0  0  0  0  0  0  0  0  0  0  0  0
   -0.9999    0.6523    0.6594 N   0  0  0  0  0  0  0  0  0  0  0  0
   -3.3259    0.5714    1.2566 C   0  0  0  0  0  0  0  0  0  0  0  0
   -4.3499    0.6764    2.1655 C   0  0  0  0  0  0  0  0  0  0  0  0
   -5.6419    0.4731    1.7690 N   0  0  0  0  0  0  0  0  0  0  0  0
   -5.9687    0.1681    0.5030 C   0  0  0  0  0  0  0  0  0  0  0  0
   -4.9667    0.0653   -0.3870 N   0  0  0  0  0  0  0  0  0  0  0  0
   -3.6802    0.2550   -0.0504 C   0  0  0  0  0  0  0  0  0  0  0  0
   -7.3281   -0.0409    0.1087 N   0  0  0  0  0  0  0  0  0  0  0  0
   -8.4767    0.0394    0.9505 C   0  0  0  0  0  0  0  0  0  0  0  0
   -9.5533    0.5790    0.0378 C   0  0  0  0  0  0  0  0  0  0  0  0
   -9.0486    0.3876   -1.3670 C   0  0  0  0  0  0  0  0  0  0  0  0
   -7.7498   -0.3698   -1.2208 C   0  0  2  0  0  0  0  0  0  0  0  0
   -7.9689   -1.8667   -1.4284 C   0  0  0  0  0  0  0  0  0  0  0  0
   -6.8134   -2.5441   -1.1889 F   0  0  0  0  0  0  0  0  0  0  0  0
   -9.0511   -2.3256   -0.7269 F   0  0  0  0  0  0  0  0  0  0  0  0
   -8.2577   -2.0628   -2.7857 F   0  0  0  0  0  0  0  0  0  0  0  0
    4.7416    0.8877   -1.3985 N   0  0  0  0  0  0  0  0  0  0  0  0
    5.3737    2.0041   -1.8750 C   0  0  0  0  0  0  0  0  0  0  0  0
    6.6810    1.9589   -1.6444 N   0  0  0  0  0  0  0  0  0  0  0  0
    6.9659    0.8195   -1.0105 C   0  0  0  0  0  0  0  0  0  0  0  0
    8.1362    0.3124   -0.5626 N   0  0  0  0  0  0  0  0  0  0  0  0
    9.3559    1.0811   -0.7672 C   0  0  0  0  0  0  0  0  0  0  0  0
    8.1239   -0.8735    0.0487 C   0  0  0  0  0  0  0  0  0  0  0  0
    9.2399   -1.3245    0.4590 O   0  0  0  0  0  0  0  0  0  0  0  0
    6.9904   -1.5678    0.2278 N   0  0  0  0  0  0  0  0  0  0  0  0
    7.0164   -2.8512    0.8957 C   0  0  0  0  0  0  0  0  0  0  0  0
    6.8260   -2.5781    2.3368 C   0  0  0  0  0  0  0  0  0  0  0  0
    6.6856   -2.3778    3.4703 N   0  0  0  0  0  0  0  0  0  0  0  0
    5.8130   -1.0707   -0.2160 C   0  0  0  0  0  0  0  0  0  0  0  0
    4.7502   -1.7158   -0.0509 O   0  0  0  0  0  0  0  0  0  0  0  0
    5.7505    0.1473   -0.8559 C   0  0  0  0  0  0  0  0  0  0  0  0
    2.3597   -1.3755   -1.5650 H   0  0  0  0  0  0  0  0  0  0  0  0
    3.8285   -1.0999   -2.6801 H   0  0  0  0  0  0  0  0  0  0  0  0
    2.2393   -0.4462   -3.0517 H   0  0  0  0  0  0  0  0  0  0  0  0
    2.8927    1.4339   -2.0836 H   0  0  0  0  0  0  0  0  0  0  0  0
    0.7493    0.4208   -1.1399 H   0  0  0  0  0  0  0  0  0  0  0  0
    1.7593    1.2824    2.4107 H   0  0  0  0  0  0  0  0  0  0  0  0
   -2.2022    1.1984    3.6746 H   0  0  0  0  0  0  0  0  0  0  0  0
   -4.1216    0.9203    3.1919 H   0  0  0  0  0  0  0  0  0  0  0  0
   -2.8711    0.1687   -0.7844 H   0  0  0  0  0  0  0  0  0  0  0  0
   -8.3277    0.7160    1.8222 H   0  0  0  0  0  0  0  0  0  0  0  0
   -8.7480   -0.9857    1.3311 H   0  0  0  0  0  0  0  0  0  0  0  0
  -10.5354    0.0817    0.1982 H   0  0  0  0  0  0  0  0  0  0  0  0
   -9.6256    1.6857    0.2398 H   0  0  0  0  0  0  0  0  0  0  0  0
   -8.8347    1.3572   -1.8652 H   0  0  0  0  0  0  0  0  0  0  0  0
   -9.7919   -0.2128   -1.9555 H   0  0  0  0  0  0  0  0  0  0  0  0
   -6.9984   -0.0380   -1.9843 H   0  0  0  0  0  0  0  0  0  0  0  0
    4.8049    2.7993   -2.3755 H   0  0  0  0  0  0  0  0  0  0  0  0
    9.6750    1.4549    0.2052 H   0  0  0  0  0  0  0  0  0  0  0  0
    9.1525    1.9403   -1.4366 H   0  0  0  0  0  0  0  0  0  0  0  0
   10.1465    0.4572   -1.2331 H   0  0  0  0  0  0  0  0  0  0  0  0
    8.0153   -3.3103    0.7696 H   0  0  0  0  0  0  0  0  0  0  0  0
    6.2197   -3.5359    0.5584 H   0  0  0  0  0  0  0  0  0  0  0  0
  1  2  1  0
  2  3  1  0
  3  4  2  0
  3  5  1  0
  5  6  1  0
  6  7  2  0
  7  8  1  0
  8  9  2  0
  9 10  1  0
 10 11  2  0
 10 12  1  0
 12 13  2  0
 13 14  1  0
 14 15  2  0
 15 16  1  0
 16 17  2  0
 15 18  1  0
 18 19  1  0
 19 20  1  0
 20 21  1  0
 21 22  1  0
 22 23  1  0
 23 24  1  0
 23 25  1  0
 23 26  1  0
  2 27  1  0
 27 28  1  0
 28 29  2  0
 29 30  1  0
 30 31  1  0
 31 32  1  0
 31 33  1  0
 33 34  2  0
 33 35  1  0
 35 36  1  0
 36 37  1  0
 37 38  3  0
 35 39  1  0
 39 40  2  0
 39 41  1  0
 11  6  1  0
 17 12  1  0
 22 18  1  0
 41 27  1  0
 41 30  2  0
  1 42  1  0
  1 43  1  0
  1 44  1  0
  2 45  1  6
  5 46  1  0
  7 47  1  0
  9 48  1  0
 13 49  1  0
 17 50  1  0
 19 51  1  0
 19 52  1  0
 20 53  1  0
 20 54  1  0
 21 55  1  0
 21 56  1  0
 22 57  1  6
 28 58  1  0
 32 59  1  0
 32 60  1  0
 32 61  1  0
 36 62  1  0
 36 63  1  0
M  END
$$$$
[H]c1nc([H])c(N([H])C(=O)[C@@]([H])(n2c([H])nc3c2c(=O)n(C([H])([H])c2noc(C([H])([H])[H])c2[H])c(=O)n3C([H])([H])[H])C([H])([H])[H])nc1-c1c([H])nc(C(F)(F)F)nc1[H]
     RDKit          3D

 59 63  0  0  0  0  0  0  0  0999 V2000
    0.8426   -1.7802    0.1384 C   0  0  0  0  0  0  0  0  0  0  0  0
    0.4763   -0.4258    0.7222 C   0  0  1  0  0  0  0  0  0  0  0  0
    0.2476    0.6142   -0.2921 C   0  0  0  0  0  0  0  0  0  0  0  0
   -0.6939    1.4495   -0.0688 O   0  0  0  0  0  0  0  0  0  0  0  0
    0.9545    0.7599   -1.4857 N   0  0  0  0  0  0  0  0  0  0  0  0
    2.2062    0.2449   -1.8939 C   0  0  0  0  0  0  0  0  0  0  0  0
    2.4556    0.0262   -3.2259 C   0  0  0  0  0  0  0  0  0  0  0  0
    3.6837   -0.2816   -3.6871 N   0  0  0  0  0  0  0  0  0  0  0  0
    4.7349   -0.3820   -2.8273 C   0  0  0  0  0  0  0  0  0  0  0  0
    4.4915   -0.1540   -1.4609 C   0  0  0  0  0  0  0  0  0  0  0  0
    3.2818    0.1369   -1.0487 N   0  0  0  0  0  0  0  0  0  0  0  0
    5.6854   -0.0526   -0.6182 C   0  0  0  0  0  0  0  0  0  0  0  0
    6.9195   -0.5276   -0.9477 C   0  0  0  0  0  0  0  0  0  0  0  0
    8.0164   -0.2125   -0.2003 N   0  0  0  0  0  0  0  0  0  0  0  0
    7.9433    0.5784    0.8938 C   0  0  0  0  0  0  0  0  0  0  0  0
    6.7451    1.0518    1.2421 N   0  0  0  0  0  0  0  0  0  0  0  0
    5.6286    0.7665    0.5343 C   0  0  0  0  0  0  0  0  0  0  0  0
    9.2024    0.9263    1.6514 C   0  0  0  0  0  0  0  0  0  0  0  0
   10.2452    0.1764    1.1570 F   0  0  0  0  0  0  0  0  0  0  0  0
    9.0777    0.7162    2.9977 F   0  0  0  0  0  0  0  0  0  0  0  0
    9.5139    2.2425    1.3545 F   0  0  0  0  0  0  0  0  0  0  0  0
   -0.6834   -0.5938    1.6091 N   0  0  0  0  0  0  0  0  0  0  0  0
   -0.6642   -0.4538    2.9609 C   0  0  0  0  0  0  0  0  0  0  0  0
   -1.8672   -0.6201    3.4729 N   0  0  0  0  0  0  0  0  0  0  0  0
   -2.6999   -0.8729    2.4553 C   0  0  0  0  0  0  0  0  0  0  0  0
   -4.0163   -1.0825    2.4660 N   0  0  0  0  0  0  0  0  0  0  0  0
   -4.7513   -1.1162    3.7276 C   0  0  0  0  0  0  0  0  0  0  0  0
   -4.6516   -1.2837    1.2868 C   0  0  0  0  0  0  0  0  0  0  0  0
   -5.8937   -1.4766    1.3420 O   0  0  0  0  0  0  0  0  0  0  0  0
   -3.9680   -1.2759    0.1379 N   0  0  0  0  0  0  0  0  0  0  0  0
   -4.7016   -1.3937   -1.1010 C   0  0  0  0  0  0  0  0  0  0  0  0
   -5.0039    0.0182   -1.5635 C   0  0  0  0  0  0  0  0  0  0  0  0
   -6.0249    0.8272   -1.1649 C   0  0  0  0  0  0  0  0  0  0  0  0
   -5.8958    2.0426   -1.8421 C   0  0  0  0  0  0  0  0  0  0  0  0
   -6.7855    3.2229   -1.7189 C   0  0  0  0  0  0  0  0  0  0  0  0
   -4.8168    1.9047   -2.6107 O   0  0  0  0  0  0  0  0  0  0  0  0
   -4.2854    0.7384   -2.4616 N   0  0  0  0  0  0  0  0  0  0  0  0
   -2.6355   -1.0722    0.1199 C   0  0  0  0  0  0  0  0  0  0  0  0
   -2.0264   -1.0951   -0.9843 O   0  0  0  0  0  0  0  0  0  0  0  0
   -1.9628   -0.8583    1.2834 C   0  0  0  0  0  0  0  0  0  0  0  0
    0.1313   -2.5694    0.5564 H   0  0  0  0  0  0  0  0  0  0  0  0
    1.8554   -2.1267    0.4364 H   0  0  0  0  0  0  0  0  0  0  0  0
    0.8304   -1.7379   -0.9677 H   0  0  0  0  0  0  0  0  0  0  0  0
    1.3113   -0.1180    1.3379 H   0  0  0  0  0  0  0  0  0  0  0  0
    0.6354    1.5550   -2.1805 H   0  0  0  0  0  0  0  0  0  0  0  0
    1.6642    0.0865   -4.0034 H   0  0  0  0  0  0  0  0  0  0  0  0
    5.7064   -0.6219   -3.1789 H   0  0  0  0  0  0  0  0  0  0  0  0
    7.0081   -1.1752   -1.8230 H   0  0  0  0  0  0  0  0  0  0  0  0
    4.6695    1.1579    0.8218 H   0  0  0  0  0  0  0  0  0  0  0  0
    0.2514   -0.2303    3.4956 H   0  0  0  0  0  0  0  0  0  0  0  0
   -5.0943   -0.0557    3.8901 H   0  0  0  0  0  0  0  0  0  0  0  0
   -3.9986   -1.3373    4.5031 H   0  0  0  0  0  0  0  0  0  0  0  0
   -5.5770   -1.8202    3.6974 H   0  0  0  0  0  0  0  0  0  0  0  0
   -5.6943   -1.8370   -0.8917 H   0  0  0  0  0  0  0  0  0  0  0  0
   -4.1953   -1.9331   -1.8955 H   0  0  0  0  0  0  0  0  0  0  0  0
   -6.8165    0.6091   -0.4554 H   0  0  0  0  0  0  0  0  0  0  0  0
   -7.0103    3.4575   -0.6276 H   0  0  0  0  0  0  0  0  0  0  0  0
   -7.7613    3.1150   -2.2334 H   0  0  0  0  0  0  0  0  0  0  0  0
   -6.2399    4.1488   -2.0418 H   0  0  0  0  0  0  0  0  0  0  0  0
  1  2  1  0
  2  3  1  0
  3  4  2  0
  3  5  1  0
  5  6  1  0
  6  7  2  0
  7  8  1  0
  8  9  2  0
  9 10  1  0
 10 11  2  0
 10 12  1  0
 12 13  2  0
 13 14  1  0
 14 15  2  0
 15 16  1  0
 16 17  2  0
 15 18  1  0
 18 19  1  0
 18 20  1  0
 18 21  1  0
  2 22  1  0
 22 23  1  0
 23 24  2  0
 24 25  1  0
 25 26  1  0
 26 27  1  0
 26 28  1  0
 28 29  2  0
 28 30  1  0
 30 31  1  0
 31 32  1  0
 32 33  1  0
 33 34  2  0
 34 35  1  0
 34 36  1  0
 36 37  1  0
 30 38  1  0
 38 39  2  0
 38 40  1  0
 11  6  1  0
 17 12  1  0
 40 22  1  0
 40 25  2  0
 37 32  2  0
  1 41  1  0
  1 42  1  0
  1 43  1  0
  2 44  1  1
  5 45  1  0
  7 46  1  0
  9 47  1  0
 13 48  1  0
 17 49  1  0
 23 50  1  0
 27 51  1  0
 27 52  1  0
 27 53  1  0
 31 54  1  0
 31 55  1  0
 33 56  1  0
 35 57  1  0
 35 58  1  0
 35 59  1  0
M  END
$$$$
[H]c1nc(C([H])([H])N([H])C(=O)[C@@]2([H])N(S(=O)(=O)c3c([H])c([H])c(F)c([H])c3[H])[C@@]([H])(C([H])([H])[H])[C@]([H])(F)C2([H])[H])c([H])c(-c2c([H])nc(C(F)(F)F)nc2[H])c1C#N
     RDKit          3D

 58 61  0  0  0  0  0  0  0  0999 V2000
   -4.7706   -1.0296    3.2396 C   0  0  0  0  0  0  0  0  0  0  0  0
   -3.5795   -1.2351    2.4065 C   0  0  1  0  0  0  0  0  0  0  0  0
   -3.7753   -2.1346    1.2020 C   0  0  2  0  0  0  0  0  0  0  0  0
   -3.7143   -3.4660    1.5618 F   0  0  0  0  0  0  0  0  0  0  0  0
   -2.5550   -1.8198    0.3136 C   0  0  0  0  0  0  0  0  0  0  0  0
   -1.8406   -0.8005    1.1347 C   0  0  2  0  0  0  0  0  0  0  0  0
   -2.8944   -0.1488    1.8559 N   0  0  0  0  0  0  0  0  0  0  0  0
   -3.6589    1.1712    1.2553 S   0  0  0  0  0  0  0  0  0  0  0  0
   -2.6162    2.2131    0.8897 O   0  0  0  0  0  0  0  0  0  0  0  0
   -4.4521    1.8339    2.3734 O   0  0  0  0  0  0  0  0  0  0  0  0
   -4.7588    1.0069   -0.0749 C   0  0  0  0  0  0  0  0  0  0  0  0
   -4.3563    1.0957   -1.3820 C   0  0  0  0  0  0  0  0  0  0  0  0
   -5.2291    0.9605   -2.4400 C   0  0  0  0  0  0  0  0  0  0  0  0
   -6.5664    0.7281   -2.2068 C   0  0  0  0  0  0  0  0  0  0  0  0
   -7.4443    0.5923   -3.2375 F   0  0  0  0  0  0  0  0  0  0  0  0
   -6.9673    0.6411   -0.8840 C   0  0  0  0  0  0  0  0  0  0  0  0
   -6.0860    0.7778    0.1557 C   0  0  0  0  0  0  0  0  0  0  0  0
   -0.9159    0.0980    0.4617 C   0  0  0  0  0  0  0  0  0  0  0  0
   -0.9722    0.2787   -0.7646 O   0  0  0  0  0  0  0  0  0  0  0  0
    0.0763    0.8022    1.1783 N   0  0  0  0  0  0  0  0  0  0  0  0
    1.0071    1.7470    0.7044 C   0  0  0  0  0  0  0  0  0  0  0  0
    1.9736    1.2478   -0.2904 C   0  0  0  0  0  0  0  0  0  0  0  0
    3.2819    0.9034   -0.0415 C   0  0  0  0  0  0  0  0  0  0  0  0
    4.1743    0.5359   -1.0507 C   0  0  0  0  0  0  0  0  0  0  0  0
    5.5445    0.2173   -0.7669 C   0  0  0  0  0  0  0  0  0  0  0  0
    6.2973    1.0578    0.0300 C   0  0  0  0  0  0  0  0  0  0  0  0
    7.6026    0.7961    0.2592 N   0  0  0  0  0  0  0  0  0  0  0  0
    8.2174   -0.2668   -0.2630 C   0  0  0  0  0  0  0  0  0  0  0  0
    7.4991   -1.0921   -1.0360 N   0  0  0  0  0  0  0  0  0  0  0  0
    6.1941   -0.8701   -1.2900 C   0  0  0  0  0  0  0  0  0  0  0  0
    9.6520   -0.5413   -0.0189 C   0  0  0  0  0  0  0  0  0  0  0  0
   10.3314    0.6117   -0.3672 F   0  0  0  0  0  0  0  0  0  0  0  0
   10.1276   -1.5289   -0.8842 F   0  0  0  0  0  0  0  0  0  0  0  0
    9.8615   -0.8431    1.3026 F   0  0  0  0  0  0  0  0  0  0  0  0
    3.7081    0.5235   -2.3381 C   0  0  0  0  0  0  0  0  0  0  0  0
    2.3969    0.8647   -2.6119 C   0  0  0  0  0  0  0  0  0  0  0  0
    1.6117    1.2016   -1.6069 N   0  0  0  0  0  0  0  0  0  0  0  0
    4.5397    0.2076   -3.4596 C   0  0  0  0  0  0  0  0  0  0  0  0
    5.2309   -0.0189   -4.3920 N   0  0  0  0  0  0  0  0  0  0  0  0
   -4.7367   -0.1375    3.8851 H   0  0  0  0  0  0  0  0  0  0  0  0
   -4.8752   -1.8959    3.9497 H   0  0  0  0  0  0  0  0  0  0  0  0
   -5.7509   -1.0511    2.6741 H   0  0  0  0  0  0  0  0  0  0  0  0
   -2.8225   -1.7860    3.0515 H   0  0  0  0  0  0  0  0  0  0  0  0
   -4.7142   -1.9794    0.6761 H   0  0  0  0  0  0  0  0  0  0  0  0
   -1.9163   -2.7566    0.2182 H   0  0  0  0  0  0  0  0  0  0  0  0
   -2.8095   -1.5495   -0.7030 H   0  0  0  0  0  0  0  0  0  0  0  0
   -1.3004   -1.4104    1.9396 H   0  0  0  0  0  0  0  0  0  0  0  0
   -3.3039    1.2849   -1.6524 H   0  0  0  0  0  0  0  0  0  0  0  0
   -4.8806    1.0291   -3.4859 H   0  0  0  0  0  0  0  0  0  0  0  0
   -8.0466    0.4666   -0.7254 H   0  0  0  0  0  0  0  0  0  0  0  0
   -6.4844    0.6960    1.1844 H   0  0  0  0  0  0  0  0  0  0  0  0
    0.1062    0.5758    2.2383 H   0  0  0  0  0  0  0  0  0  0  0  0
    0.5208    2.7108    0.3788 H   0  0  0  0  0  0  0  0  0  0  0  0
    1.6706    2.0977    1.5805 H   0  0  0  0  0  0  0  0  0  0  0  0
    3.6163    0.9143    0.9740 H   0  0  0  0  0  0  0  0  0  0  0  0
    5.8043    1.9261    0.4577 H   0  0  0  0  0  0  0  0  0  0  0  0
    5.6887   -1.5997   -1.9184 H   0  0  0  0  0  0  0  0  0  0  0  0
    2.0598    0.8385   -3.6404 H   0  0  0  0  0  0  0  0  0  0  0  0
  1  2  1  0
  2  3  1  0
  3  4  1  0
  3  5  1  0
  5  6  1  0
  6  7  1  0
  7  8  1  0
  8  9  2  0
  8 10  2  0
  8 11  1  0
 11 12  2  0
 12 13  1  0
 13 14  2  0
 14 15  1  0
 14 16  1  0
 16 17  2  0
  6 18  1  0
 18 19  2  0
 18 20  1  0
 20 21  1  0
 21 22  1  0
 22 23  2  0
 23 24  1  0
 24 25  1  0
 25 26  2  0
 26 27  1  0
 27 28  2  0
 28 29  1  0
 29 30  2  0
 28 31  1  0
 31 32  1  0
 31 33  1  0
 31 34  1  0
 24 35  2  0
 35 36  1  0
 36 37  2  0
 35 38  1  0
 38 39  3  0
  7  2  1  0
 17 11  1  0
 37 22  1  0
 30 25  1  0
  1 40  1  0
  1 41  1  0
  1 42  1  0
  2 43  1  1
  3 44  1  6
  5 45  1  0
  5 46  1  0
  6 47  1  1
 12 48  1  0
 13 49  1  0
 16 50  1  0
 17 51  1  0
 20 52  1  0
 21 53  1  0
 21 54  1  0
 23 55  1  0
 26 56  1  0
 30 57  1  0
 36 58  1  0
M  END
$$$$
[H]c1c([H])c([H])c(C(F)(F)F)c(-c2c(OC([H])([H])[H])c([H])c3c(c([H])nn3[H])c2[H])c1[H]
     RDKit          3D

 32 34  0  0  0  0  0  0  0  0999 V2000
   -1.1762    2.7476    1.7558 C   0  0  0  0  0  0  0  0  0  0  0  0
   -0.5141    1.6649    1.1870 O   0  0  0  0  0  0  0  0  0  0  0  0
   -1.0442    0.6878    0.3750 C   0  0  0  0  0  0  0  0  0  0  0  0
   -2.3820    0.6781    0.0214 C   0  0  0  0  0  0  0  0  0  0  0  0
   -2.9070   -0.3076   -0.7941 C   0  0  0  0  0  0  0  0  0  0  0  0
   -4.1567   -0.5466   -1.2777 N   0  0  0  0  0  0  0  0  0  0  0  0
   -4.1005   -1.6540   -2.0209 N   0  0  0  0  0  0  0  0  0  0  0  0
   -2.8317   -2.1197   -2.0174 C   0  0  0  0  0  0  0  0  0  0  0  0
   -2.0536   -1.2820   -1.2451 C   0  0  0  0  0  0  0  0  0  0  0  0
   -0.7140   -1.2643   -0.8867 C   0  0  0  0  0  0  0  0  0  0  0  0
   -0.1607   -0.2824   -0.0670 C   0  0  0  0  0  0  0  0  0  0  0  0
    1.2297   -0.3462    0.3587 C   0  0  0  0  0  0  0  0  0  0  0  0
    1.4596   -0.8599    1.6312 C   0  0  0  0  0  0  0  0  0  0  0  0
    2.7220   -1.0767    2.1413 C   0  0  0  0  0  0  0  0  0  0  0  0
    3.7939   -0.7746    1.3651 C   0  0  0  0  0  0  0  0  0  0  0  0
    3.5957   -0.2654    0.1059 C   0  0  0  0  0  0  0  0  0  0  0  0
    2.3222   -0.0454   -0.4067 C   0  0  0  0  0  0  0  0  0  0  0  0
    2.2094    0.5761   -1.7270 C   0  0  0  0  0  0  0  0  0  0  0  0
    1.5205   -0.1842   -2.5925 F   0  0  0  0  0  0  0  0  0  0  0  0
    1.6551    1.8460   -1.6527 F   0  0  0  0  0  0  0  0  0  0  0  0
    3.4915    0.7512   -2.2593 F   0  0  0  0  0  0  0  0  0  0  0  0
   -1.4381    2.5389    2.8157 H   0  0  0  0  0  0  0  0  0  0  0  0
   -2.1168    3.0048    1.2075 H   0  0  0  0  0  0  0  0  0  0  0  0
   -0.5430    3.6814    1.7885 H   0  0  0  0  0  0  0  0  0  0  0  0
   -3.0737    1.4359    0.3619 H   0  0  0  0  0  0  0  0  0  0  0  0
   -5.0173    0.0417   -1.0952 H   0  0  0  0  0  0  0  0  0  0  0  0
   -2.4792   -2.9956   -2.5263 H   0  0  0  0  0  0  0  0  0  0  0  0
   -0.0687   -2.0665   -1.2489 H   0  0  0  0  0  0  0  0  0  0  0  0
    0.6291   -1.1191    2.2801 H   0  0  0  0  0  0  0  0  0  0  0  0
    2.8576   -1.4784    3.1416 H   0  0  0  0  0  0  0  0  0  0  0  0
    4.7952   -0.9418    1.7483 H   0  0  0  0  0  0  0  0  0  0  0  0
    4.4958   -0.0439   -0.4677 H   0  0  0  0  0  0  0  0  0  0  0  0
  1  2  1  0
  2  3  1  0
  3  4  2  0
  4  5  1  0
  5  6  1  0
  6  7  1  0
  7  8  2  0
  8  9  1  0
  9 10  1  0
 10 11  2  0
 11 12  1  0
 12 13  2  0
 13 14  1  0
 14 15  2  0
 15 16  1  0
 16 17  2  0
 17 18  1  0
 18 19  1  0
 18 20  1  0
 18 21  1  0
 11  3  1  0
 17 12  1  0
  9  5  2  0
  1 22  1  0
  1 23  1  0
  1 24  1  0
  4 25  1  0
  6 26  1  0
  8 27  1  0
 10 28  1  0
 13 29  1  0
 14 30  1  0
 15 31  1  0
 16 32  1  0
M  END
$$$$
[H]C(=C(C#N)C#N)c1c([H])c([H])c([H])c([H])c1Cl
     RDKit          3D

 18 18  0  0  0  0  0  0  0  0999 V2000
   -0.5155   -0.4043    2.8831 Cl  0  0  0  0  0  0  0  0  0  0  0  0
   -1.0230   -0.1279    1.2260 C   0  0  0  0  0  0  0  0  0  0  0  0
   -2.3427    0.2834    1.0018 C   0  0  0  0  0  0  0  0  0  0  0  0
   -2.7054    0.4973   -0.3131 C   0  0  0  0  0  0  0  0  0  0  0  0
   -1.8096    0.3136   -1.3563 C   0  0  0  0  0  0  0  0  0  0  0  0
   -0.5215   -0.0916   -1.0928 C   0  0  0  0  0  0  0  0  0  0  0  0
   -0.1129   -0.3181    0.2111 C   0  0  0  0  0  0  0  0  0  0  0  0
    1.2300   -0.7785    0.5290 C   0  0  0  0  0  0  0  0  0  0  0  0
    2.3006   -0.1969    0.0382 C   0  0  0  0  0  0  0  0  0  0  0  0
    2.2901    0.9274   -0.8396 C   0  0  0  0  0  0  0  0  0  0  0  0
    2.2918    1.8697   -1.5453 N   0  0  0  0  0  0  0  0  0  0  0  0
    3.6157   -0.7077    0.3830 C   0  0  0  0  0  0  0  0  0  0  0  0
    4.6862   -1.1132    0.6675 N   0  0  0  0  0  0  0  0  0  0  0  0
   -3.0165    0.4212    1.8379 H   0  0  0  0  0  0  0  0  0  0  0  0
   -3.7074    0.8137   -0.5346 H   0  0  0  0  0  0  0  0  0  0  0  0
   -2.1468    0.4929   -2.3673 H   0  0  0  0  0  0  0  0  0  0  0  0
    0.1642   -0.2395   -1.9207 H   0  0  0  0  0  0  0  0  0  0  0  0
    1.3225   -1.6415    1.1921 H   0  0  0  0  0  0  0  0  0  0  0  0
  1  2  1  0
  2  3  2  0
  3  4  1  0
  4  5  2  0
  5  6  1  0
  6  7  2  0
  7  8  1  0
  8  9  2  3
  9 10  1  0
 10 11  3  0
  9 12  1  0
 12 13  3  0
  7  2  1  0
  3 14  1  0
  4 15  1  0
  5 16  1  0
  6 17  1  0
  8 18  1  0
M  END
$$$$
[H]c1sc(N([H])C(=O)C([H])([H])c2c([H])c([H])c([H])c3c2c(=O)n(C([H])([H])[H])c(=O)n3C([H])([H])[H])nc1-c1c([H])c([H])c(C(C([H])([H])[H])(C([H])([H])[H])C([H])([H])[H])c([H])c1[H]
     RDKit          3D

 59 62  0  0  0  0  0  0  0  0999 V2000
    8.6938    1.9312   -0.7383 C   0  0  0  0  0  0  0  0  0  0  0  0
    7.8737    0.7751   -0.4248 N   0  0  0  0  0  0  0  0  0  0  0  0
    6.5276    0.9641   -0.3618 C   0  0  0  0  0  0  0  0  0  0  0  0
    5.9970    2.1978   -0.6271 C   0  0  0  0  0  0  0  0  0  0  0  0
    4.6550    2.3633   -0.5926 C   0  0  0  0  0  0  0  0  0  0  0  0
    3.8588    1.2847   -0.2887 C   0  0  0  0  0  0  0  0  0  0  0  0
    4.3027    0.0060   -0.0020 C   0  0  0  0  0  0  0  0  0  0  0  0
    3.4945   -1.1081    0.4346 C   0  0  0  0  0  0  0  0  0  0  0  0
    2.0591   -0.9880    0.2290 C   0  0  0  0  0  0  0  0  0  0  0  0
    1.4544   -1.8551   -0.5556 O   0  0  0  0  0  0  0  0  0  0  0  0
    1.1337   -0.0591    0.7549 N   0  0  0  0  0  0  0  0  0  0  0  0
   -0.2800   -0.4202    0.6741 C   0  0  0  0  0  0  0  0  0  0  0  0
   -1.4210    0.1737    0.6926 N   0  0  0  0  0  0  0  0  0  0  0  0
   -2.5300   -0.4497    0.8191 C   0  0  0  0  0  0  0  0  0  0  0  0
   -2.4403   -1.8594    0.9424 C   0  0  0  0  0  0  0  0  0  0  0  0
   -0.7812   -2.1093    0.8522 S   0  0  0  0  0  0  0  0  0  0  0  0
   -3.9223    0.0398    0.6473 C   0  0  0  0  0  0  0  0  0  0  0  0
   -4.9028   -0.2934    1.5554 C   0  0  0  0  0  0  0  0  0  0  0  0
   -6.2547   -0.1199    1.2927 C   0  0  0  0  0  0  0  0  0  0  0  0
   -6.6598    0.3995    0.0796 C   0  0  0  0  0  0  0  0  0  0  0  0
   -5.6886    0.7515   -0.8624 C   0  0  0  0  0  0  0  0  0  0  0  0
   -4.3257    0.5746   -0.5686 C   0  0  0  0  0  0  0  0  0  0  0  0
   -8.0708    0.5055   -0.3380 C   0  0  0  0  0  0  0  0  0  0  0  0
   -8.4419    1.8588   -0.8733 C   0  0  0  0  0  0  0  0  0  0  0  0
   -8.3026   -0.4713   -1.5214 C   0  0  0  0  0  0  0  0  0  0  0  0
   -9.0326    0.0100    0.7264 C   0  0  0  0  0  0  0  0  0  0  0  0
    5.7145   -0.1276   -0.0521 C   0  0  0  0  0  0  0  0  0  0  0  0
    6.3374   -1.3077    0.1674 C   0  0  0  0  0  0  0  0  0  0  0  0
    5.6898   -2.3175    0.4479 O   0  0  0  0  0  0  0  0  0  0  0  0
    7.6877   -1.4845    0.1016 N   0  0  0  0  0  0  0  0  0  0  0  0
    8.2607   -2.8236    0.3255 C   0  0  0  0  0  0  0  0  0  0  0  0
    8.4524   -0.4276   -0.1952 C   0  0  0  0  0  0  0  0  0  0  0  0
    9.7058   -0.5312   -0.2616 O   0  0  0  0  0  0  0  0  0  0  0  0
    8.3928    2.3820   -1.6893 H   0  0  0  0  0  0  0  0  0  0  0  0
    8.5098    2.6988    0.0684 H   0  0  0  0  0  0  0  0  0  0  0  0
    9.7802    1.6578   -0.6793 H   0  0  0  0  0  0  0  0  0  0  0  0
    6.6781    3.0184   -0.8536 H   0  0  0  0  0  0  0  0  0  0  0  0
    4.2005    3.3503   -0.8051 H   0  0  0  0  0  0  0  0  0  0  0  0
    2.7890    1.4934   -0.2967 H   0  0  0  0  0  0  0  0  0  0  0  0
    3.6221   -1.3942    1.5109 H   0  0  0  0  0  0  0  0  0  0  0  0
    3.7190   -2.0379   -0.2002 H   0  0  0  0  0  0  0  0  0  0  0  0
    1.3002    0.7512    1.3653 H   0  0  0  0  0  0  0  0  0  0  0  0
   -3.2819   -2.5628    1.0781 H   0  0  0  0  0  0  0  0  0  0  0  0
   -4.5538   -0.7094    2.5200 H   0  0  0  0  0  0  0  0  0  0  0  0
   -6.9681   -0.3819    2.0478 H   0  0  0  0  0  0  0  0  0  0  0  0
   -5.9507    1.1679   -1.8352 H   0  0  0  0  0  0  0  0  0  0  0  0
   -3.6328    0.8637   -1.3189 H   0  0  0  0  0  0  0  0  0  0  0  0
   -7.8185    2.0208   -1.7952 H   0  0  0  0  0  0  0  0  0  0  0  0
   -9.4889    1.7731   -1.2737 H   0  0  0  0  0  0  0  0  0  0  0  0
   -8.3899    2.6808   -0.1511 H   0  0  0  0  0  0  0  0  0  0  0  0
   -8.1644   -1.5022   -1.0773 H   0  0  0  0  0  0  0  0  0  0  0  0
   -9.3087   -0.3274   -1.8938 H   0  0  0  0  0  0  0  0  0  0  0  0
   -7.5223   -0.2269   -2.2502 H   0  0  0  0  0  0  0  0  0  0  0  0
   -8.6939   -0.9026    1.2443 H   0  0  0  0  0  0  0  0  0  0  0  0
   -9.2593    0.8327    1.4415 H   0  0  0  0  0  0  0  0  0  0  0  0
  -10.0203   -0.2751    0.2626 H   0  0  0  0  0  0  0  0  0  0  0  0
    9.1804   -2.7957    0.9353 H   0  0  0  0  0  0  0  0  0  0  0  0
    7.4811   -3.4967    0.6665 H   0  0  0  0  0  0  0  0  0  0  0  0
    8.5560   -3.1610   -0.7113 H   0  0  0  0  0  0  0  0  0  0  0  0
  1  2  1  0
  2  3  1  0
  3  4  2  0
  4  5  1  0
  5  6  2  0
  6  7  1  0
  7  8  1  0
  8  9  1  0
  9 10  2  0
  9 11  1  0
 11 12  1  0
 12 13  2  0
 13 14  1  0
 14 15  2  0
 15 16  1  0
 14 17  1  0
 17 18  2  0
 18 19  1  0
 19 20  2  0
 20 21  1  0
 21 22  2  0
 20 23  1  0
 23 24  1  0
 23 25  1  0
 23 26  1  0
  7 27  2  0
 27 28  1  0
 28 29  2  0
 28 30  1  0
 30 31  1  0
 30 32  1  0
 32 33  2  0
 32  2  1  0
 27  3  1  0
 16 12  1  0
 22 17  1  0
  1 34  1  0
  1 35  1  0
  1 36  1  0
  4 37  1  0
  5 38  1  0
  6 39  1  0
  8 40  1  0
  8 41  1  0
 11 42  1  0
 15 43  1  0
 18 44  1  0
 19 45  1  0
 21 46  1  0
 22 47  1  0
 24 48  1  0
 24 49  1  0
 24 50  1  0
 25 51  1  0
 25 52  1  0
 25 53  1  0
 26 54  1  0
 26 55  1  0
 26 56  1  0
 31 57  1  0
 31 58  1  0
 31 59  1  0
M  END
$$$$
[H]C1=Nc2c([H])c([H])c([H])c([H])c2C([H])([H])c2c(C(=O)OC([H])([H])[H])c([H])c([H])c([H])c21
     RDKit          3D

 32 34  0  0  0  0  0  0  0  0999 V2000
   -3.6250    1.7902    1.0336 C   0  0  0  0  0  0  0  0  0  0  0  0
   -2.5969    0.9846    0.5556 O   0  0  0  0  0  0  0  0  0  0  0  0
   -2.6928   -0.3350    0.2167 C   0  0  0  0  0  0  0  0  0  0  0  0
   -3.8812   -0.8053    0.3839 O   0  0  0  0  0  0  0  0  0  0  0  0
   -1.6653   -1.2271   -0.2868 C   0  0  0  0  0  0  0  0  0  0  0  0
   -2.1126   -2.4851   -0.6793 C   0  0  0  0  0  0  0  0  0  0  0  0
   -1.2567   -3.4204   -1.1932 C   0  0  0  0  0  0  0  0  0  0  0  0
    0.0754   -3.1043   -1.3224 C   0  0  0  0  0  0  0  0  0  0  0  0
    0.5261   -1.8638   -0.9369 C   0  0  0  0  0  0  0  0  0  0  0  0
    1.9419   -1.7686   -1.1709 C   0  0  0  0  0  0  0  0  0  0  0  0
    2.7835   -0.8475   -0.8706 N   0  0  0  0  0  0  0  0  0  0  0  0
    2.5485    0.3808   -0.1992 C   0  0  0  0  0  0  0  0  0  0  0  0
    3.7255    1.0649    0.0614 C   0  0  0  0  0  0  0  0  0  0  0  0
    3.6909    2.2785    0.7082 C   0  0  0  0  0  0  0  0  0  0  0  0
    2.4868    2.8223    1.1014 C   0  0  0  0  0  0  0  0  0  0  0  0
    1.3518    2.1139    0.8243 C   0  0  0  0  0  0  0  0  0  0  0  0
    1.3449    0.8752    0.1678 C   0  0  0  0  0  0  0  0  0  0  0  0
   -0.0731    0.4529    0.0665 C   0  0  0  0  0  0  0  0  0  0  0  0
   -0.3191   -0.8943   -0.4116 C   0  0  0  0  0  0  0  0  0  0  0  0
   -4.5211    1.2490    1.3715 H   0  0  0  0  0  0  0  0  0  0  0  0
   -3.2841    2.4319    1.8868 H   0  0  0  0  0  0  0  0  0  0  0  0
   -3.9440    2.4829    0.2253 H   0  0  0  0  0  0  0  0  0  0  0  0
   -3.1705   -2.7677   -0.5893 H   0  0  0  0  0  0  0  0  0  0  0  0
   -1.6278   -4.4014   -1.4950 H   0  0  0  0  0  0  0  0  0  0  0  0
    0.7663   -3.8488   -1.7335 H   0  0  0  0  0  0  0  0  0  0  0  0
    2.4046   -2.6150   -1.6935 H   0  0  0  0  0  0  0  0  0  0  0  0
    4.6657    0.6153   -0.2589 H   0  0  0  0  0  0  0  0  0  0  0  0
    4.5936    2.8307    0.9226 H   0  0  0  0  0  0  0  0  0  0  0  0
    2.4723    3.7769    1.6091 H   0  0  0  0  0  0  0  0  0  0  0  0
    0.3996    2.5383    1.1323 H   0  0  0  0  0  0  0  0  0  0  0  0
   -0.4322    0.4861    1.1377 H   0  0  0  0  0  0  0  0  0  0  0  0
   -0.5748    1.2100   -0.5635 H   0  0  0  0  0  0  0  0  0  0  0  0
  1  2  1  0
  2  3  1  0
  3  4  2  0
  3  5  1  0
  5  6  2  0
  6  7  1  0
  7  8  2  0
  8  9  1  0
  9 10  1  0
 10 11  2  0
 11 12  1  0
 12 13  2  0
 13 14  1  0
 14 15  2  0
 15 16  1  0
 16 17  2  0
 17 18  1  0
 18 19  1  0
 19  5  1  0
 19  9  2  0
 17 12  1  0
  1 20  1  0
  1 21  1  0
  1 22  1  0
  6 23  1  0
  7 24  1  0
  8 25  1  0
 10 26  1  0
 13 27  1  0
 14 28  1  0
 15 29  1  0
 16 30  1  0
 18 31  1  0
 18 32  1  0
M  END
$$$$
[H]c1c([H])c([H])c2c(c1[H])C(=O)C1([H])C2=NC(=S)N([H])[C@]1([H])c1c([H])c([H])c([H])c(OC([H])([H])C([H])([H])C([H])([H])OC([H])([H])[H])c1[H]
     RDKit          3D

 47 50  0  0  0  0  0  0  0  0999 V2000
    4.9017    1.7674   -3.3541 C   0  0  0  0  0  0  0  0  0  0  0  0
    4.7924    1.6593   -1.9509 O   0  0  0  0  0  0  0  0  0  0  0  0
    3.4073    1.6679   -1.6495 C   0  0  0  0  0  0  0  0  0  0  0  0
    3.2678    1.5511   -0.1449 C   0  0  0  0  0  0  0  0  0  0  0  0
    3.9121    0.3135    0.3739 C   0  0  0  0  0  0  0  0  0  0  0  0
    3.4825   -0.9048   -0.0115 O   0  0  0  0  0  0  0  0  0  0  0  0
    2.2925   -1.5859    0.1586 C   0  0  0  0  0  0  0  0  0  0  0  0
    2.1537   -2.8690   -0.3896 C   0  0  0  0  0  0  0  0  0  0  0  0
    0.9671   -3.5317   -0.2011 C   0  0  0  0  0  0  0  0  0  0  0  0
   -0.0912   -3.0101    0.5002 C   0  0  0  0  0  0  0  0  0  0  0  0
    0.0267   -1.7586    1.0450 C   0  0  0  0  0  0  0  0  0  0  0  0
    1.2131   -1.0833    0.8579 C   0  0  0  0  0  0  0  0  0  0  0  0
   -1.1016   -1.1999    1.8501 C   0  0  1  0  0  0  0  0  0  0  0  0
   -0.6249   -0.4068    2.9582 N   0  0  0  0  0  0  0  0  0  0  0  0
   -1.1678    0.8628    3.2156 C   0  0  0  0  0  0  0  0  0  0  0  0
   -0.5466    1.8306    4.4122 S   0  0  0  0  0  0  0  0  0  0  0  0
   -2.2604    1.3149    2.4302 N   0  0  0  0  0  0  0  0  0  0  0  0
   -2.7846    0.6163    1.4964 C   0  0  0  0  0  0  0  0  0  0  0  0
   -2.2827   -0.7727    1.1348 C   0  0  0  0  0  0  0  0  0  0  0  0
   -2.2749   -0.6332   -0.3353 C   0  0  0  0  0  0  0  0  0  0  0  0
   -1.4871   -0.9269   -1.2494 O   0  0  0  0  0  0  0  0  0  0  0  0
   -3.5788    0.0280   -0.6134 C   0  0  0  0  0  0  0  0  0  0  0  0
   -4.4584    0.0166   -1.6608 C   0  0  0  0  0  0  0  0  0  0  0  0
   -5.6277    0.7555   -1.5837 C   0  0  0  0  0  0  0  0  0  0  0  0
   -5.9378    1.5198   -0.4564 C   0  0  0  0  0  0  0  0  0  0  0  0
   -5.0384    1.5261    0.6034 C   0  0  0  0  0  0  0  0  0  0  0  0
   -3.8839    0.7879    0.5142 C   0  0  0  0  0  0  0  0  0  0  0  0
    4.3653    0.8963   -3.7718 H   0  0  0  0  0  0  0  0  0  0  0  0
    5.9791    1.7907   -3.6211 H   0  0  0  0  0  0  0  0  0  0  0  0
    4.4748    2.7343   -3.6629 H   0  0  0  0  0  0  0  0  0  0  0  0
    2.8731    0.9146   -2.2241 H   0  0  0  0  0  0  0  0  0  0  0  0
    3.0464    2.6894   -1.9737 H   0  0  0  0  0  0  0  0  0  0  0  0
    2.2255    1.7193    0.1618 H   0  0  0  0  0  0  0  0  0  0  0  0
    3.8505    2.4238    0.2745 H   0  0  0  0  0  0  0  0  0  0  0  0
    3.9222    0.3536    1.5074 H   0  0  0  0  0  0  0  0  0  0  0  0
    5.0245    0.3972    0.1275 H   0  0  0  0  0  0  0  0  0  0  0  0
    3.0092   -3.2567   -0.9346 H   0  0  0  0  0  0  0  0  0  0  0  0
    0.9086   -4.5245   -0.6488 H   0  0  0  0  0  0  0  0  0  0  0  0
   -1.0322   -3.5778    0.6306 H   0  0  0  0  0  0  0  0  0  0  0  0
    1.3035   -0.0844    1.3025 H   0  0  0  0  0  0  0  0  0  0  0  0
   -1.4508   -2.1644    2.4418 H   0  0  0  0  0  0  0  0  0  0  0  0
    0.1243   -0.8087    3.5686 H   0  0  0  0  0  0  0  0  0  0  0  0
   -3.1753   -1.4601    1.4329 H   0  0  0  0  0  0  0  0  0  0  0  0
   -4.2775   -0.5568   -2.5649 H   0  0  0  0  0  0  0  0  0  0  0  0
   -6.3442    0.7591   -2.4154 H   0  0  0  0  0  0  0  0  0  0  0  0
   -6.8412    2.0976   -0.3618 H   0  0  0  0  0  0  0  0  0  0  0  0
   -5.2558    2.1228    1.5066 H   0  0  0  0  0  0  0  0  0  0  0  0
  1  2  1  0
  2  3  1  0
  3  4  1  0
  4  5  1  0
  5  6  1  0
  6  7  1  0
  7  8  2  0
  8  9  1  0
  9 10  2  0
 10 11  1  0
 11 12  2  0
 11 13  1  0
 13 14  1  0
 14 15  1  0
 15 16  2  0
 15 17  1  0
 17 18  2  0
 18 19  1  0
 19 20  1  0
 20 21  2  0
 20 22  1  0
 22 23  2  0
 23 24  1  0
 24 25  2  0
 25 26  1  0
 26 27  2  0
 12  7  1  0
 19 13  1  0
 27 22  1  0
 27 18  1  0
  1 28  1  0
  1 29  1  0
  1 30  1  0
  3 31  1  0
  3 32  1  0
  4 33  1  0
  4 34  1  0
  5 35  1  0
  5 36  1  0
  8 37  1  0
  9 38  1  0
 10 39  1  0
 12 40  1  0
 13 41  1  1
 14 42  1  0
 19 43  1  0
 23 44  1  0
 24 45  1  0
 25 46  1  0
 26 47  1  0
M  END
$$$$
[H]OC([H])([H])[C@@]1([H])N(S(=O)(=O)c2c([H])c(C([H])([H])[H])c(F)c(C([H])([H])[H])c2[H])[C@@]([H])(c2c([H])c([H])c(F)c([H])c2[H])C([H])([H])C1([H])[H]
     RDKit          3D

 47 49  0  0  0  0  0  0  0  0999 V2000
   -4.6930   -2.3934   -0.1324 C   0  0  0  0  0  0  0  0  0  0  0  0
   -3.8421   -1.1753   -0.1262 C   0  0  0  0  0  0  0  0  0  0  0  0
   -2.6721   -1.1617    0.6069 C   0  0  0  0  0  0  0  0  0  0  0  0
   -1.8386   -0.0665    0.6556 C   0  0  0  0  0  0  0  0  0  0  0  0
   -2.2264    1.0420   -0.0730 C   0  0  0  0  0  0  0  0  0  0  0  0
   -3.4015    1.0507   -0.8191 C   0  0  0  0  0  0  0  0  0  0  0  0
   -3.8361    2.2326   -1.6092 C   0  0  0  0  0  0  0  0  0  0  0  0
   -4.2125   -0.0663   -0.8440 C   0  0  0  0  0  0  0  0  0  0  0  0
   -5.3765   -0.1087   -1.5608 F   0  0  0  0  0  0  0  0  0  0  0  0
   -0.3735   -0.0415    1.5702 S   0  0  0  0  0  0  0  0  0  0  0  0
   -0.1304    1.3902    2.0006 O   0  0  0  0  0  0  0  0  0  0  0  0
   -0.5643   -0.8406    2.8201 O   0  0  0  0  0  0  0  0  0  0  0  0
    0.9992   -0.5667    0.7164 N   0  0  0  0  0  0  0  0  0  0  0  0
    0.9547   -1.9056    0.2541 C   0  0  2  0  0  0  0  0  0  0  0  0
    2.0090   -2.8067    0.8648 C   0  0  0  0  0  0  0  0  0  0  0  0
    1.9068   -2.8939    2.2370 O   0  0  0  0  0  0  0  0  0  0  0  0
    1.2098   -1.8914   -1.2437 C   0  0  0  0  0  0  0  0  0  0  0  0
    1.7936   -0.5249   -1.5185 C   0  0  0  0  0  0  0  0  0  0  0  0
    1.3784    0.3063   -0.3304 C   0  0  2  0  0  0  0  0  0  0  0  0
    2.4341    1.2855    0.0405 C   0  0  0  0  0  0  0  0  0  0  0  0
    3.5702    0.9103    0.7587 C   0  0  0  0  0  0  0  0  0  0  0  0
    4.5451    1.8178    1.1004 C   0  0  0  0  0  0  0  0  0  0  0  0
    4.4326    3.1448    0.7413 C   0  0  0  0  0  0  0  0  0  0  0  0
    5.3617    4.0739    1.0526 F   0  0  0  0  0  0  0  0  0  0  0  0
    3.3242    3.5449    0.0330 C   0  0  0  0  0  0  0  0  0  0  0  0
    2.3545    2.6232   -0.3027 C   0  0  0  0  0  0  0  0  0  0  0  0
   -4.0777   -3.2806    0.1907 H   0  0  0  0  0  0  0  0  0  0  0  0
   -5.5484   -2.2732    0.5423 H   0  0  0  0  0  0  0  0  0  0  0  0
   -5.0554   -2.6483   -1.1499 H   0  0  0  0  0  0  0  0  0  0  0  0
   -2.3926   -2.0281    1.1615 H   0  0  0  0  0  0  0  0  0  0  0  0
   -1.6438    1.9325   -0.0935 H   0  0  0  0  0  0  0  0  0  0  0  0
   -3.3372    3.1294   -1.2139 H   0  0  0  0  0  0  0  0  0  0  0  0
   -3.7137    2.0812   -2.6931 H   0  0  0  0  0  0  0  0  0  0  0  0
   -4.9304    2.3721   -1.4004 H   0  0  0  0  0  0  0  0  0  0  0  0
   -0.0320   -2.4022    0.4896 H   0  0  0  0  0  0  0  0  0  0  0  0
    3.0303   -2.5610    0.5216 H   0  0  0  0  0  0  0  0  0  0  0  0
    1.7955   -3.8398    0.4605 H   0  0  0  0  0  0  0  0  0  0  0  0
    2.1835   -2.0227    2.6101 H   0  0  0  0  0  0  0  0  0  0  0  0
    0.2058   -1.9301   -1.7247 H   0  0  0  0  0  0  0  0  0  0  0  0
    1.8377   -2.7127   -1.5861 H   0  0  0  0  0  0  0  0  0  0  0  0
    2.8960   -0.6178   -1.5371 H   0  0  0  0  0  0  0  0  0  0  0  0
    1.3861   -0.0820   -2.4475 H   0  0  0  0  0  0  0  0  0  0  0  0
    0.4755    0.9256   -0.6044 H   0  0  0  0  0  0  0  0  0  0  0  0
    3.6505   -0.1236    1.0343 H   0  0  0  0  0  0  0  0  0  0  0  0
    5.4237    1.5232    1.6568 H   0  0  0  0  0  0  0  0  0  0  0  0
    3.2319    4.6039   -0.2551 H   0  0  0  0  0  0  0  0  0  0  0  0
    1.5081    2.9755   -0.8540 H   0  0  0  0  0  0  0  0  0  0  0  0
  1  2  1  0
  2  3  2  0
  3  4  1  0
  4  5  2  0
  5  6  1  0
  6  7  1  0
  6  8  2  0
  8  9  1  0
  4 10  1  0
 10 11  2  0
 10 12  2  0
 10 13  1  0
 13 14  1  0
 14 15  1  0
 15 16  1  0
 14 17  1  0
 17 18  1  0
 18 19  1  0
 19 20  1  0
 20 21  2  0
 21 22  1  0
 22 23  2  0
 23 24  1  0
 23 25  1  0
 25 26  2  0
  8  2  1  0
 19 13  1  0
 26 20  1  0
  1 27  1  0
  1 28  1  0
  1 29  1  0
  3 30  1  0
  5 31  1  0
  7 32  1  0
  7 33  1  0
  7 34  1  0
 14 35  1  6
 15 36  1  0
 15 37  1  0
 16 38  1  0
 17 39  1  0
 17 40  1  0
 18 41  1  0
 18 42  1  0
 19 43  1  6
 21 44  1  0
 22 45  1  0
 25 46  1  0
 26 47  1  0
M  END
$$$$
[H]OC1(C(F)(F)F)C([H])([H])C([H])([H])N(C([H])(C([H])([H])c2c([H])c([H])c(F)c([H])c2[H])C([H])([H])N([H])C(=O)C2(c3c([H])c([H])c(Cl)c([H])c3[H])C([H])([H])C2([H])[H])C([H])([H])C1([H])[H]
     RDKit          3D

 61 64  0  0  0  0  0  0  0  0999 V2000
   -4.3311    1.0684    2.2132 O   0  0  0  0  0  0  0  0  0  0  0  0
   -3.2487    1.3880    1.3488 C   0  0  0  0  0  0  0  0  0  0  0  0
   -3.6468    0.9219    0.0048 C   0  0  0  0  0  0  0  0  0  0  0  0
   -2.4672    0.7539   -0.8846 C   0  0  0  0  0  0  0  0  0  0  0  0
   -1.5822   -0.2251   -0.2187 N   0  0  0  0  0  0  0  0  0  0  0  0
   -0.9888    0.3726    0.9058 C   0  0  0  0  0  0  0  0  0  0  0  0
   -2.0049    0.8127    1.9372 C   0  0  0  0  0  0  0  0  0  0  0  0
   -0.8892   -0.9895   -1.1302 C   0  0  0  0  0  0  0  0  0  0  0  0
    0.1001   -0.3992   -2.0607 C   0  0  0  0  0  0  0  0  0  0  0  0
    1.2402    0.2443   -1.4543 N   0  0  0  0  0  0  0  0  0  0  0  0
    2.2290    0.8593   -2.2422 C   0  0  0  0  0  0  0  0  0  0  0  0
    2.0482    0.8155   -3.5103 O   0  0  0  0  0  0  0  0  0  0  0  0
    3.4445    1.5492   -1.7963 C   0  0  0  0  0  0  0  0  0  0  0  0
    3.8493    2.7306   -2.5919 C   0  0  0  0  0  0  0  0  0  0  0  0
    4.6198    1.4480   -2.7262 C   0  0  0  0  0  0  0  0  0  0  0  0
    3.7052    1.5233   -0.3361 C   0  0  0  0  0  0  0  0  0  0  0  0
    3.9591    2.7043    0.3105 C   0  0  0  0  0  0  0  0  0  0  0  0
    4.2450    2.6899    1.6811 C   0  0  0  0  0  0  0  0  0  0  0  0
    4.2746    1.5047    2.3895 C   0  0  0  0  0  0  0  0  0  0  0  0
    4.6335    1.4717    4.1170 Cl  0  0  0  0  0  0  0  0  0  0  0  0
    4.0206    0.3136    1.7477 C   0  0  0  0  0  0  0  0  0  0  0  0
    3.7446    0.3574    0.4094 C   0  0  0  0  0  0  0  0  0  0  0  0
   -0.2322   -2.2370   -0.5200 C   0  0  0  0  0  0  0  0  0  0  0  0
   -1.2264   -3.1588    0.0858 C   0  0  0  0  0  0  0  0  0  0  0  0
   -1.8096   -4.0950   -0.7770 C   0  0  0  0  0  0  0  0  0  0  0  0
   -2.7339   -5.0044   -0.3253 C   0  0  0  0  0  0  0  0  0  0  0  0
   -3.1182   -5.0244    0.9964 C   0  0  0  0  0  0  0  0  0  0  0  0
   -4.0396   -5.9403    1.4164 F   0  0  0  0  0  0  0  0  0  0  0  0
   -2.5431   -4.1089    1.8235 C   0  0  0  0  0  0  0  0  0  0  0  0
   -1.6089   -3.1837    1.3872 C   0  0  0  0  0  0  0  0  0  0  0  0
   -3.2077    2.9125    1.3743 C   0  0  0  0  0  0  0  0  0  0  0  0
   -2.2157    3.4413    0.5930 F   0  0  0  0  0  0  0  0  0  0  0  0
   -4.4582    3.4322    1.0456 F   0  0  0  0  0  0  0  0  0  0  0  0
   -2.9547    3.3390    2.6802 F   0  0  0  0  0  0  0  0  0  0  0  0
   -4.6615    0.1708    2.0492 H   0  0  0  0  0  0  0  0  0  0  0  0
   -4.3718    1.6452   -0.4221 H   0  0  0  0  0  0  0  0  0  0  0  0
   -4.1580   -0.0635    0.1029 H   0  0  0  0  0  0  0  0  0  0  0  0
   -2.7801    0.2360   -1.8283 H   0  0  0  0  0  0  0  0  0  0  0  0
   -1.8582    1.6363   -1.0657 H   0  0  0  0  0  0  0  0  0  0  0  0
   -0.4054    1.3016    0.6632 H   0  0  0  0  0  0  0  0  0  0  0  0
   -0.2944   -0.3181    1.4030 H   0  0  0  0  0  0  0  0  0  0  0  0
   -2.2789   -0.0342    2.5959 H   0  0  0  0  0  0  0  0  0  0  0  0
   -1.5487    1.5826    2.5903 H   0  0  0  0  0  0  0  0  0  0  0  0
   -1.6602   -1.4777   -1.8447 H   0  0  0  0  0  0  0  0  0  0  0  0
   -0.3526    0.2201   -2.8682 H   0  0  0  0  0  0  0  0  0  0  0  0
    0.5434   -1.2717   -2.6360 H   0  0  0  0  0  0  0  0  0  0  0  0
    1.3266    0.2472   -0.4300 H   0  0  0  0  0  0  0  0  0  0  0  0
    3.2194    2.9867   -3.4940 H   0  0  0  0  0  0  0  0  0  0  0  0
    4.2968    3.6099   -2.1425 H   0  0  0  0  0  0  0  0  0  0  0  0
    4.4772    0.8362   -3.6381 H   0  0  0  0  0  0  0  0  0  0  0  0
    5.6534    1.4198   -2.2951 H   0  0  0  0  0  0  0  0  0  0  0  0
    3.9508    3.6679   -0.1750 H   0  0  0  0  0  0  0  0  0  0  0  0
    4.4447    3.6264    2.1853 H   0  0  0  0  0  0  0  0  0  0  0  0
    4.0510   -0.5940    2.3265 H   0  0  0  0  0  0  0  0  0  0  0  0
    3.5471   -0.5652   -0.1043 H   0  0  0  0  0  0  0  0  0  0  0  0
    0.4398   -1.9114    0.3190 H   0  0  0  0  0  0  0  0  0  0  0  0
    0.3253   -2.8128   -1.2839 H   0  0  0  0  0  0  0  0  0  0  0  0
   -1.5324   -4.1128   -1.8322 H   0  0  0  0  0  0  0  0  0  0  0  0
   -3.1822   -5.7331   -1.0172 H   0  0  0  0  0  0  0  0  0  0  0  0
   -2.8254   -4.0998    2.8696 H   0  0  0  0  0  0  0  0  0  0  0  0
   -1.1721   -2.4803    2.0787 H   0  0  0  0  0  0  0  0  0  0  0  0
  1  2  1  0
  2  3  1  0
  3  4  1  0
  4  5  1  0
  5  6  1  0
  6  7  1  0
  5  8  1  0
  8  9  1  0
  9 10  1  0
 10 11  1  0
 11 12  2  0
 11 13  1  0
 13 14  1  0
 14 15  1  0
 13 16  1  0
 16 17  2  0
 17 18  1  0
 18 19  2  0
 19 20  1  0
 19 21  1  0
 21 22  2  0
  8 23  1  0
 23 24  1  0
 24 25  2  0
 25 26  1  0
 26 27  2  0
 27 28  1  0
 27 29  1  0
 29 30  2  0
  2 31  1  0
 31 32  1  0
 31 33  1  0
 31 34  1  0
  7  2  1  0
 15 13  1  0
 22 16  1  0
 30 24  1  0
  1 35  1  0
  3 36  1  0
  3 37  1  0
  4 38  1  0
  4 39  1  0
  6 40  1  0
  6 41  1  0
  7 42  1  0
  7 43  1  0
  8 44  1  0
  9 45  1  0
  9 46  1  0
 10 47  1  0
 14 48  1  0
 14 49  1  0
 15 50  1  0
 15 51  1  0
 17 52  1  0
 18 53  1  0
 21 54  1  0
 22 55  1  0
 23 56  1  0
 23 57  1  0
 25 58  1  0
 26 59  1  0
 29 60  1  0
 30 61  1  0
M  END
$$$$
[H]C1=Nc2c([H])c([H])c([H])c(C(=O)N([H])[H])c2Oc2c([H])c([H])c([H])c([H])c21
     RDKit          3D

 28 30  0  0  0  0  0  0  0  0999 V2000
   -3.6822    2.2521    0.1189 N   0  0  0  0  0  0  0  0  0  0  0  0
   -2.3494    1.7027    0.0800 C   0  0  0  0  0  0  0  0  0  0  0  0
   -1.3979    2.5274    0.0812 O   0  0  0  0  0  0  0  0  0  0  0  0
   -2.1397    0.2648    0.0419 C   0  0  0  0  0  0  0  0  0  0  0  0
   -3.2333   -0.5736    0.0431 C   0  0  0  0  0  0  0  0  0  0  0  0
   -3.0702   -1.9577    0.0072 C   0  0  0  0  0  0  0  0  0  0  0  0
   -1.7775   -2.4500   -0.0295 C   0  0  0  0  0  0  0  0  0  0  0  0
   -0.6719   -1.6437   -0.0317 C   0  0  0  0  0  0  0  0  0  0  0  0
    0.5160   -2.4114   -0.0728 N   0  0  0  0  0  0  0  0  0  0  0  0
    1.7395   -2.0184   -0.0876 C   0  0  0  0  0  0  0  0  0  0  0  0
    2.2286   -0.6485   -0.0652 C   0  0  0  0  0  0  0  0  0  0  0  0
    3.6236   -0.6264   -0.0925 C   0  0  0  0  0  0  0  0  0  0  0  0
    4.2283    0.6126   -0.0754 C   0  0  0  0  0  0  0  0  0  0  0  0
    3.5260    1.7915   -0.0337 C   0  0  0  0  0  0  0  0  0  0  0  0
    2.1467    1.7540   -0.0071 C   0  0  0  0  0  0  0  0  0  0  0  0
    1.5194    0.5336   -0.0232 C   0  0  0  0  0  0  0  0  0  0  0  0
    0.1216    0.6961    0.0085 O   0  0  0  0  0  0  0  0  0  0  0  0
   -0.8729   -0.2666    0.0048 C   0  0  0  0  0  0  0  0  0  0  0  0
   -3.8491    3.0043    0.8204 H   0  0  0  0  0  0  0  0  0  0  0  0
   -4.4492    1.9361   -0.5033 H   0  0  0  0  0  0  0  0  0  0  0  0
   -4.2144   -0.1210    0.0728 H   0  0  0  0  0  0  0  0  0  0  0  0
   -3.9255   -2.5890    0.0087 H   0  0  0  0  0  0  0  0  0  0  0  0
   -1.6172   -3.5329   -0.0582 H   0  0  0  0  0  0  0  0  0  0  0  0
    2.4828   -2.8017   -0.1204 H   0  0  0  0  0  0  0  0  0  0  0  0
    4.1639   -1.5618   -0.1252 H   0  0  0  0  0  0  0  0  0  0  0  0
    5.3156    0.6690   -0.0958 H   0  0  0  0  0  0  0  0  0  0  0  0
    4.0354    2.7682   -0.0209 H   0  0  0  0  0  0  0  0  0  0  0  0
    1.6030    2.6903    0.0258 H   0  0  0  0  0  0  0  0  0  0  0  0
  1  2  1  0
  2  3  2  0
  2  4  1  0
  4  5  2  0
  5  6  1  0
  6  7  2  0
  7  8  1  0
  8  9  1  0
  9 10  2  0
 10 11  1  0
 11 12  2  0
 12 13  1  0
 13 14  2  0
 14 15  1  0
 15 16  2  0
 16 17  1  0
 17 18  1  0
 18  4  1  0
 18  8  2  0
 16 11  1  0
  1 19  1  0
  1 20  1  0
  5 21  1  0
  6 22  1  0
  7 23  1  0
 10 24  1  0
 12 25  1  0
 13 26  1  0
 14 27  1  0
 15 28  1  0
M  END
$$$$
[H]c1sc(N([H])C(=O)C([H])([H])c2c(Cl)oc3c2c(=O)n(C([H])([H])[H])c(=O)n3C([H])([H])[H])nc1-c1c([H])c([H])c(F)c(OC(F)(F)F)c1[H]
     RDKit          3D

 48 51  0  0  0  0  0  0  0  0999 V2000
   -7.4973   -1.9513   -0.4784 C   0  0  0  0  0  0  0  0  0  0  0  0
   -6.3161   -1.2188   -0.0264 N   0  0  0  0  0  0  0  0  0  0  0  0
   -5.1029   -1.4725   -0.5261 C   0  0  0  0  0  0  0  0  0  0  0  0
   -4.7114   -2.3313   -1.4316 O   0  0  0  0  0  0  0  0  0  0  0  0
   -3.4204   -2.2593   -1.6361 C   0  0  0  0  0  0  0  0  0  0  0  0
   -2.4943   -3.2243   -2.7568 Cl  0  0  0  0  0  0  0  0  0  0  0  0
   -2.9151   -1.2698   -0.7956 C   0  0  0  0  0  0  0  0  0  0  0  0
   -1.4881   -0.8516   -0.7026 C   0  0  0  0  0  0  0  0  0  0  0  0
   -1.1508    0.0017   -1.8657 C   0  0  0  0  0  0  0  0  0  0  0  0
   -2.0473    0.2794   -2.7178 O   0  0  0  0  0  0  0  0  0  0  0  0
    0.1259    0.5327   -2.0887 N   0  0  0  0  0  0  0  0  0  0  0  0
    1.2385    0.2998   -1.2203 C   0  0  0  0  0  0  0  0  0  0  0  0
    2.4783    0.7495   -1.3375 N   0  0  0  0  0  0  0  0  0  0  0  0
    3.3587    0.4294   -0.4444 C   0  0  0  0  0  0  0  0  0  0  0  0
    2.9515   -0.3735    0.5936 C   0  0  0  0  0  0  0  0  0  0  0  0
    1.3044   -0.6161    0.2080 S   0  0  0  0  0  0  0  0  0  0  0  0
    4.7658    0.9103   -0.5397 C   0  0  0  0  0  0  0  0  0  0  0  0
    5.2011    1.7029   -1.5841 C   0  0  0  0  0  0  0  0  0  0  0  0
    6.5049    2.1527   -1.6709 C   0  0  0  0  0  0  0  0  0  0  0  0
    7.3991    1.8014   -0.6879 C   0  0  0  0  0  0  0  0  0  0  0  0
    8.6904    2.2233   -0.7370 F   0  0  0  0  0  0  0  0  0  0  0  0
    6.9980    1.0119    0.3680 C   0  0  0  0  0  0  0  0  0  0  0  0
    7.9172    0.6812    1.3320 O   0  0  0  0  0  0  0  0  0  0  0  0
    7.6650   -0.1152    2.4644 C   0  0  0  0  0  0  0  0  0  0  0  0
    7.2474   -1.3816    2.1920 F   0  0  0  0  0  0  0  0  0  0  0  0
    8.8225   -0.2448    3.2452 F   0  0  0  0  0  0  0  0  0  0  0  0
    6.7327    0.4766    3.3164 F   0  0  0  0  0  0  0  0  0  0  0  0
    5.6835    0.5850    0.4134 C   0  0  0  0  0  0  0  0  0  0  0  0
   -3.9820   -0.7730   -0.0939 C   0  0  0  0  0  0  0  0  0  0  0  0
   -4.1573    0.1940    0.8688 C   0  0  0  0  0  0  0  0  0  0  0  0
   -3.1514    0.8347    1.2685 O   0  0  0  0  0  0  0  0  0  0  0  0
   -5.3934    0.4300    1.3565 N   0  0  0  0  0  0  0  0  0  0  0  0
   -5.5212    1.4588    2.3690 C   0  0  0  0  0  0  0  0  0  0  0  0
   -6.4523   -0.2671    0.9134 C   0  0  0  0  0  0  0  0  0  0  0  0
   -7.6121   -0.0342    1.3819 O   0  0  0  0  0  0  0  0  0  0  0  0
   -8.4104   -1.3792   -0.2480 H   0  0  0  0  0  0  0  0  0  0  0  0
   -7.3683   -2.1051   -1.5791 H   0  0  0  0  0  0  0  0  0  0  0  0
   -7.5169   -2.9576   -0.0300 H   0  0  0  0  0  0  0  0  0  0  0  0
   -0.9104   -1.8172   -0.7286 H   0  0  0  0  0  0  0  0  0  0  0  0
   -1.3384   -0.3758    0.2608 H   0  0  0  0  0  0  0  0  0  0  0  0
    0.3060    1.1337   -2.9336 H   0  0  0  0  0  0  0  0  0  0  0  0
    3.5459   -0.7527    1.4461 H   0  0  0  0  0  0  0  0  0  0  0  0
    4.4644    1.9638   -2.3496 H   0  0  0  0  0  0  0  0  0  0  0  0
    6.8042    2.7753   -2.5125 H   0  0  0  0  0  0  0  0  0  0  0  0
    5.3985   -0.0292    1.2509 H   0  0  0  0  0  0  0  0  0  0  0  0
   -6.5720    1.6308    2.6471 H   0  0  0  0  0  0  0  0  0  0  0  0
   -5.1091    2.3991    1.9592 H   0  0  0  0  0  0  0  0  0  0  0  0
   -4.9650    1.1431    3.2800 H   0  0  0  0  0  0  0  0  0  0  0  0
  1  2  1  0
  2  3  1  0
  3  4  1  0
  4  5  1  0
  5  6  1  0
  5  7  2  0
  7  8  1  0
  8  9  1  0
  9 10  2  0
  9 11  1  0
 11 12  1  0
 12 13  2  0
 13 14  1  0
 14 15  2  0
 15 16  1  0
 14 17  1  0
 17 18  2  0
 18 19  1  0
 19 20  2  0
 20 21  1  0
 20 22  1  0
 22 23  1  0
 23 24  1  0
 24 25  1  0
 24 26  1  0
 24 27  1  0
 22 28  2  0
  7 29  1  0
 29 30  1  0
 30 31  2  0
 30 32  1  0
 32 33  1  0
 32 34  1  0
 34 35  2  0
 34  2  1  0
 29  3  2  0
 16 12  1  0
 28 17  1  0
  1 36  1  0
  1 37  1  0
  1 38  1  0
  8 39  1  0
  8 40  1  0
 11 41  1  0
 15 42  1  0
 18 43  1  0
 19 44  1  0
 28 45  1  0
 33 46  1  0
 33 47  1  0
 33 48  1  0
M  END
$$$$
[H]c1nc(C(F)(F)F)nc([H])c1-c1nc(N([H])C(=O)[C@@]([H])(n2c([H])nc3c2c(=O)n(C([H])([H])C(=O)C([H])([H])[H])c(=O)n3C([H])([H])[H])C([H])([H])[H])c([H])s1
     RDKit          3D

 53 56  0  0  0  0  0  0  0  0999 V2000
   -0.4411   -0.3399    2.0628 C   0  0  0  0  0  0  0  0  0  0  0  0
   -0.7159   -0.3298    0.5728 C   0  0  1  0  0  0  0  0  0  0  0  0
    0.5062   -0.8413   -0.1452 C   0  0  0  0  0  0  0  0  0  0  0  0
    0.3712   -1.8107   -0.8749 O   0  0  0  0  0  0  0  0  0  0  0  0
    1.7380   -0.1610    0.0742 N   0  0  0  0  0  0  0  0  0  0  0  0
    2.9672   -0.6224   -0.5843 C   0  0  0  0  0  0  0  0  0  0  0  0
    3.0267   -1.7092   -1.4090 C   0  0  0  0  0  0  0  0  0  0  0  0
    4.6881   -1.7658   -1.8666 S   0  0  0  0  0  0  0  0  0  0  0  0
    5.2023   -0.3626   -0.9335 C   0  0  0  0  0  0  0  0  0  0  0  0
    4.0824    0.0014   -0.3923 N   0  0  0  0  0  0  0  0  0  0  0  0
    6.5723    0.1725   -0.9097 C   0  0  0  0  0  0  0  0  0  0  0  0
    7.5218   -0.3357   -1.7644 C   0  0  0  0  0  0  0  0  0  0  0  0
    8.7894    0.1813   -1.7147 N   0  0  0  0  0  0  0  0  0  0  0  0
    9.1603    1.1763   -0.8590 C   0  0  0  0  0  0  0  0  0  0  0  0
    8.2169    1.6340   -0.0520 N   0  0  0  0  0  0  0  0  0  0  0  0
    6.9045    1.1653   -0.0442 C   0  0  0  0  0  0  0  0  0  0  0  0
   10.5584    1.6814   -0.8547 C   0  0  0  0  0  0  0  0  0  0  0  0
   11.3388    0.7719   -1.5484 F   0  0  0  0  0  0  0  0  0  0  0  0
   11.0070    1.6892    0.4514 F   0  0  0  0  0  0  0  0  0  0  0  0
   10.6496    2.9580   -1.4014 F   0  0  0  0  0  0  0  0  0  0  0  0
   -1.8290   -1.2083    0.3075 N   0  0  0  0  0  0  0  0  0  0  0  0
   -1.7910   -2.5215    0.0852 C   0  0  0  0  0  0  0  0  0  0  0  0
   -2.9787   -2.9944   -0.2900 N   0  0  0  0  0  0  0  0  0  0  0  0
   -3.8171   -1.9002   -0.2863 C   0  0  0  0  0  0  0  0  0  0  0  0
   -5.1302   -1.8498   -0.5374 N   0  0  0  0  0  0  0  0  0  0  0  0
   -5.8557   -3.0299   -0.9218 C   0  0  0  0  0  0  0  0  0  0  0  0
   -5.7419   -0.6494   -0.4017 C   0  0  0  0  0  0  0  0  0  0  0  0
   -6.9608   -0.5162   -0.6123 O   0  0  0  0  0  0  0  0  0  0  0  0
   -5.0765    0.4948   -0.0246 N   0  0  0  0  0  0  0  0  0  0  0  0
   -5.8606    1.7421    0.0670 C   0  0  0  0  0  0  0  0  0  0  0  0
   -6.5542    1.9677    1.2641 C   0  0  0  0  0  0  0  0  0  0  0  0
   -6.9677    1.1083    2.4301 C   0  0  0  0  0  0  0  0  0  0  0  0
   -7.0165    3.1897    1.5637 O   0  0  0  0  0  0  0  0  0  0  0  0
   -3.7646    0.4286    0.2174 C   0  0  0  0  0  0  0  0  0  0  0  0
   -3.0919    1.4125    0.5709 O   0  0  0  0  0  0  0  0  0  0  0  0
   -3.0975   -0.8095    0.0898 C   0  0  0  0  0  0  0  0  0  0  0  0
   -0.0328   -1.3270    2.3438 H   0  0  0  0  0  0  0  0  0  0  0  0
    0.3303    0.4480    2.2671 H   0  0  0  0  0  0  0  0  0  0  0  0
   -1.3162   -0.0551    2.6432 H   0  0  0  0  0  0  0  0  0  0  0  0
   -0.8374    0.7061    0.1824 H   0  0  0  0  0  0  0  0  0  0  0  0
    1.7847    0.6619    0.7009 H   0  0  0  0  0  0  0  0  0  0  0  0
    2.2548   -2.4164   -1.7671 H   0  0  0  0  0  0  0  0  0  0  0  0
    7.2300   -1.0884   -2.4754 H   0  0  0  0  0  0  0  0  0  0  0  0
    6.1447    1.5642    0.5921 H   0  0  0  0  0  0  0  0  0  0  0  0
   -0.9569   -3.1957    0.2178 H   0  0  0  0  0  0  0  0  0  0  0  0
   -6.7712   -2.6792   -1.4938 H   0  0  0  0  0  0  0  0  0  0  0  0
   -5.2935   -3.6999   -1.5661 H   0  0  0  0  0  0  0  0  0  0  0  0
   -6.1247   -3.6273   -0.0278 H   0  0  0  0  0  0  0  0  0  0  0  0
   -5.0891    2.6426   -0.0919 H   0  0  0  0  0  0  0  0  0  0  0  0
   -6.5047    1.8430   -0.8521 H   0  0  0  0  0  0  0  0  0  0  0  0
   -8.1150    1.0712    2.3753 H   0  0  0  0  0  0  0  0  0  0  0  0
   -6.6892    0.0443    2.2875 H   0  0  0  0  0  0  0  0  0  0  0  0
   -6.6241    1.5608    3.3359 H   0  0  0  0  0  0  0  0  0  0  0  0
  1  2  1  0
  2  3  1  0
  3  4  2  0
  3  5  1  0
  5  6  1  0
  6  7  2  0
  7  8  1  0
  8  9  1  0
  9 10  2  0
  9 11  1  0
 11 12  2  0
 12 13  1  0
 13 14  2  0
 14 15  1  0
 15 16  2  0
 14 17  1  0
 17 18  1  0
 17 19  1  0
 17 20  1  0
  2 21  1  0
 21 22  1  0
 22 23  2  0
 23 24  1  0
 24 25  1  0
 25 26  1  0
 25 27  1  0
 27 28  2  0
 27 29  1  0
 29 30  1  0
 30 31  1  0
 31 32  1  0
 31 33  2  0
 29 34  1  0
 34 35  2  0
 34 36  1  0
 10  6  1  0
 16 11  1  0
 36 21  1  0
 36 24  2  0
  1 37  1  0
  1 38  1  0
  1 39  1  0
  2 40  1  6
  5 41  1  0
  7 42  1  0
 12 43  1  0
 16 44  1  0
 22 45  1  0
 26 46  1  0
 26 47  1  0
 26 48  1  0
 30 49  1  0
 30 50  1  0
 32 51  1  0
 32 52  1  0
 32 53  1  0
M  END
$$$$
[H]C([H])([H])SC([H])([H])C([H])([H])C([H])([H])C([H])([H])N=C=S
     RDKit          3D

 20 19  0  0  0  0  0  0  0  0999 V2000
   -3.2424    1.3016    0.6227 C   0  0  0  0  0  0  0  0  0  0  0  0
   -2.8342   -0.3486    0.0244 S   0  0  0  0  0  0  0  0  0  0  0  0
   -1.0837   -0.3551   -0.5238 C   0  0  0  0  0  0  0  0  0  0  0  0
   -0.2524   -0.1431    0.6982 C   0  0  0  0  0  0  0  0  0  0  0  0
    1.2263   -0.1195    0.4438 C   0  0  0  0  0  0  0  0  0  0  0  0
    1.7579   -1.3797   -0.1534 C   0  0  0  0  0  0  0  0  0  0  0  0
    3.2041   -1.1925   -0.3368 N   0  0  0  0  0  0  0  0  0  0  0  0
    3.6971   -0.0145   -0.4210 C   0  0  0  0  0  0  0  0  0  0  0  0
    4.3260    1.4124    0.0408 S   0  0  0  0  0  0  0  0  0  0  0  0
   -3.1543    1.9985   -0.2520 H   0  0  0  0  0  0  0  0  0  0  0  0
   -2.5606    1.6742    1.3969 H   0  0  0  0  0  0  0  0  0  0  0  0
   -4.2542    1.2892    1.0456 H   0  0  0  0  0  0  0  0  0  0  0  0
   -0.9195    0.3993   -1.3183 H   0  0  0  0  0  0  0  0  0  0  0  0
   -0.9279   -1.3616   -0.9842 H   0  0  0  0  0  0  0  0  0  0  0  0
   -0.5291   -0.9474    1.4273 H   0  0  0  0  0  0  0  0  0  0  0  0
   -0.5759    0.8034    1.1729 H   0  0  0  0  0  0  0  0  0  0  0  0
    1.7197    0.0770    1.4233 H   0  0  0  0  0  0  0  0  0  0  0  0
    1.4495    0.7671   -0.1836 H   0  0  0  0  0  0  0  0  0  0  0  0
    1.6319   -2.2006    0.5982 H   0  0  0  0  0  0  0  0  0  0  0  0
    1.3217   -1.6602   -1.1061 H   0  0  0  0  0  0  0  0  0  0  0  0
  1  2  1  0
  2  3  1  0
  3  4  1  0
  4  5  1  0
  5  6  1  0
  6  7  1  0
  7  8  2  3
  8  9  2  0
  1 10  1  0
  1 11  1  0
  1 12  1  0
  3 13  1  0
  3 14  1  0
  4 15  1  0
  4 16  1  0
  5 17  1  0
  5 18  1  0
  6 19  1  0
  6 20  1  0
M  END
$$$$
[H]c1nc(C(F)(F)F)c(C([H])([H])[H])c([H])c1-c1nc(N([H])C(=O)C([H])([H])n2c([H])nc3c2c(=O)n(C([H])([H])C(=O)C([H])([H])OC([H])([H])[H])c(=O)n3C([H])([H])[H])c([H])s1
     RDKit          3D

 58 61  0  0  0  0  0  0  0  0999 V2000
    7.7287    2.7076   -1.4942 C   0  0  0  0  0  0  0  0  0  0  0  0
    6.5589    3.1505   -2.0503 O   0  0  0  0  0  0  0  0  0  0  0  0
    5.6752    2.1520   -2.3053 C   0  0  0  0  0  0  0  0  0  0  0  0
    5.1688    1.4364   -1.1193 C   0  0  0  0  0  0  0  0  0  0  0  0
    5.4444    1.7308    0.0286 O   0  0  0  0  0  0  0  0  0  0  0  0
    4.2554    0.2729   -1.3806 C   0  0  0  0  0  0  0  0  0  0  0  0
    3.8515   -0.3145   -0.1288 N   0  0  0  0  0  0  0  0  0  0  0  0
    4.6051   -1.2988    0.3887 C   0  0  0  0  0  0  0  0  0  0  0  0
    5.6547   -1.7093   -0.2080 O   0  0  0  0  0  0  0  0  0  0  0  0
    4.2242   -1.8431    1.5567 N   0  0  0  0  0  0  0  0  0  0  0  0
    5.0390   -2.9030    2.1105 C   0  0  0  0  0  0  0  0  0  0  0  0
    3.1118   -1.3914    2.1664 C   0  0  0  0  0  0  0  0  0  0  0  0
    2.5031   -1.7445    3.3232 N   0  0  0  0  0  0  0  0  0  0  0  0
    1.4085   -0.9833    3.4887 C   0  0  0  0  0  0  0  0  0  0  0  0
    1.2913   -0.1351    2.4546 N   0  0  0  0  0  0  0  0  0  0  0  0
    0.2299    0.8624    2.2601 C   0  0  0  0  0  0  0  0  0  0  0  0
   -0.8958    0.2587    1.5018 C   0  0  0  0  0  0  0  0  0  0  0  0
   -1.8912    1.0067    1.2572 O   0  0  0  0  0  0  0  0  0  0  0  0
   -0.8464   -1.0902    1.0782 N   0  0  0  0  0  0  0  0  0  0  0  0
   -1.9613   -1.6514    0.3394 C   0  0  0  0  0  0  0  0  0  0  0  0
   -1.9261   -2.9650   -0.0794 C   0  0  0  0  0  0  0  0  0  0  0  0
   -3.4275   -3.1148   -0.8730 S   0  0  0  0  0  0  0  0  0  0  0  0
   -4.0106   -1.5130   -0.6299 C   0  0  0  0  0  0  0  0  0  0  0  0
   -3.0158   -0.9667    0.0444 N   0  0  0  0  0  0  0  0  0  0  0  0
   -5.2790   -0.9387   -1.0676 C   0  0  0  0  0  0  0  0  0  0  0  0
   -6.1857   -1.6843   -1.7645 C   0  0  0  0  0  0  0  0  0  0  0  0
   -7.3507   -1.0965   -2.1469 N   0  0  0  0  0  0  0  0  0  0  0  0
   -7.6575    0.1853   -1.8735 C   0  0  0  0  0  0  0  0  0  0  0  0
   -6.7631    0.9609   -1.1727 C   0  0  0  0  0  0  0  0  0  0  0  0
   -7.0866    2.3735   -0.8644 C   0  0  0  0  0  0  0  0  0  0  0  0
   -5.5571    0.3661   -0.7724 C   0  0  0  0  0  0  0  0  0  0  0  0
   -8.9512    0.7761   -2.3188 C   0  0  0  0  0  0  0  0  0  0  0  0
   -9.7053    1.2222   -1.2563 F   0  0  0  0  0  0  0  0  0  0  0  0
   -8.7634    1.7595   -3.2820 F   0  0  0  0  0  0  0  0  0  0  0  0
   -9.6772   -0.2299   -2.9592 F   0  0  0  0  0  0  0  0  0  0  0  0
    2.3277   -0.3774    1.6417 C   0  0  0  0  0  0  0  0  0  0  0  0
    2.7375    0.1631    0.4472 C   0  0  0  0  0  0  0  0  0  0  0  0
    2.0504    1.0813   -0.0532 O   0  0  0  0  0  0  0  0  0  0  0  0
    8.2286    1.9684   -2.1927 H   0  0  0  0  0  0  0  0  0  0  0  0
    7.6668    2.2486   -0.5032 H   0  0  0  0  0  0  0  0  0  0  0  0
    8.4318    3.5964   -1.4505 H   0  0  0  0  0  0  0  0  0  0  0  0
    6.0823    1.3842   -3.0319 H   0  0  0  0  0  0  0  0  0  0  0  0
    4.7635    2.5835   -2.8082 H   0  0  0  0  0  0  0  0  0  0  0  0
    3.3879    0.6449   -1.9589 H   0  0  0  0  0  0  0  0  0  0  0  0
    4.8168   -0.4685   -1.9523 H   0  0  0  0  0  0  0  0  0  0  0  0
    4.4318   -3.5797    2.7349 H   0  0  0  0  0  0  0  0  0  0  0  0
    5.9114   -2.4767    2.6760 H   0  0  0  0  0  0  0  0  0  0  0  0
    5.4568   -3.5321    1.2784 H   0  0  0  0  0  0  0  0  0  0  0  0
    0.6947   -1.0085    4.3118 H   0  0  0  0  0  0  0  0  0  0  0  0
    0.6101    1.7852    1.8142 H   0  0  0  0  0  0  0  0  0  0  0  0
   -0.1155    1.1246    3.2846 H   0  0  0  0  0  0  0  0  0  0  0  0
   -0.0090   -1.6529    1.3060 H   0  0  0  0  0  0  0  0  0  0  0  0
   -1.1144   -3.6970    0.0796 H   0  0  0  0  0  0  0  0  0  0  0  0
   -6.0125   -2.7379   -2.0284 H   0  0  0  0  0  0  0  0  0  0  0  0
   -7.2167    2.9967   -1.7767 H   0  0  0  0  0  0  0  0  0  0  0  0
   -7.8918    2.4946   -0.1264 H   0  0  0  0  0  0  0  0  0  0  0  0
   -6.1680    2.8041   -0.3664 H   0  0  0  0  0  0  0  0  0  0  0  0
   -4.8692    1.0068   -0.2187 H   0  0  0  0  0  0  0  0  0  0  0  0
  1  2  1  0
  2  3  1  0
  3  4  1  0
  4  5  2  0
  4  6  1  0
  6  7  1  0
  7  8  1  0
  8  9  2  0
  8 10  1  0
 10 11  1  0
 10 12  1  0
 12 13  1  0
 13 14  2  0
 14 15  1  0
 15 16  1  0
 16 17  1  0
 17 18  2  0
 17 19  1  0
 19 20  1  0
 20 21  2  0
 21 22  1  0
 22 23  1  0
 23 24  2  0
 23 25  1  0
 25 26  2  0
 26 27  1  0
 27 28  2  0
 28 29  1  0
 29 30  1  0
 29 31  2  0
 28 32  1  0
 32 33  1  0
 32 34  1  0
 32 35  1  0
 15 36  1  0
 36 37  1  0
 37 38  2  0
 37  7  1  0
 36 12  2  0
 24 20  1  0
 31 25  1  0
  1 39  1  0
  1 40  1  0
  1 41  1  0
  3 42  1  0
  3 43  1  0
  6 44  1  0
  6 45  1  0
 11 46  1  0
 11 47  1  0
 11 48  1  0
 14 49  1  0
 16 50  1  0
 16 51  1  0
 19 52  1  0
 21 53  1  0
 26 54  1  0
 30 55  1  0
 30 56  1  0
 30 57  1  0
 31 58  1  0
M  END
$$$$
[H]c1nc(N2C([H])([H])C3([H])C([H])([H])C3([H])C2([H])[H])c([H])c([H])c1-c1nc(N([H])C(=O)[C@@]([H])(n2c([H])nc3c2c(=O)n(C([H])([H])C(=O)C([H])([H])[H])c(=O)n3C([H])([H])[H])C([H])([H])[H])c([H])s1
     RDKit          3D

 64 69  0  0  0  0  0  0  0  0999 V2000
   -2.7918    2.5924   -1.5741 C   0  0  0  0  0  0  0  0  0  0  0  0
   -2.3957    1.2448   -1.7565 C   0  0  1  0  0  0  0  0  0  0  0  0
   -1.1472    1.1377   -0.8953 C   0  0  0  0  0  0  0  0  0  0  0  0
   -0.0640    0.8159   -1.4005 O   0  0  0  0  0  0  0  0  0  0  0  0
   -1.2139    1.4049    0.4897 N   0  0  0  0  0  0  0  0  0  0  0  0
   -0.0356    1.3116    1.3346 C   0  0  0  0  0  0  0  0  0  0  0  0
   -0.1154    1.5732    2.6825 C   0  0  0  0  0  0  0  0  0  0  0  0
    1.4991    1.3282    3.1801 S   0  0  0  0  0  0  0  0  0  0  0  0
    2.1704    0.9138    1.6674 C   0  0  0  0  0  0  0  0  0  0  0  0
    1.1259    0.9843    0.8621 N   0  0  0  0  0  0  0  0  0  0  0  0
    3.5692    0.5630    1.3232 C   0  0  0  0  0  0  0  0  0  0  0  0
    3.8483    0.2647    0.0190 C   0  0  0  0  0  0  0  0  0  0  0  0
    5.1309   -0.0642   -0.3471 C   0  0  0  0  0  0  0  0  0  0  0  0
    6.1295   -0.0861    0.6334 C   0  0  0  0  0  0  0  0  0  0  0  0
    5.7813    0.2192    1.8989 N   0  0  0  0  0  0  0  0  0  0  0  0
    4.5350    0.5441    2.2835 C   0  0  0  0  0  0  0  0  0  0  0  0
    7.4659   -0.4126    0.3275 N   0  0  0  0  0  0  0  0  0  0  0  0
    7.9272   -0.7480   -1.0266 C   0  0  0  0  0  0  0  0  0  0  0  0
    9.3984   -0.3785   -1.0147 C   0  0  0  0  0  0  0  0  0  0  0  0
   10.3083   -1.3904   -0.4252 C   0  0  0  0  0  0  0  0  0  0  0  0
    9.8097   -0.2629    0.4074 C   0  0  0  0  0  0  0  0  0  0  0  0
    8.5606   -0.4702    1.2431 C   0  0  0  0  0  0  0  0  0  0  0  0
   -3.0193    0.0363   -1.6686 N   0  0  0  0  0  0  0  0  0  0  0  0
   -2.2971   -1.1098   -1.9325 C   0  0  0  0  0  0  0  0  0  0  0  0
   -3.0370   -2.1812   -1.8072 N   0  0  0  0  0  0  0  0  0  0  0  0
   -4.2574   -1.8195   -1.4628 C   0  0  0  0  0  0  0  0  0  0  0  0
   -5.4229   -2.4321   -1.1968 N   0  0  0  0  0  0  0  0  0  0  0  0
   -5.4882   -3.8862   -1.2732 C   0  0  0  0  0  0  0  0  0  0  0  0
   -6.5335   -1.7514   -0.8619 C   0  0  0  0  0  0  0  0  0  0  0  0
   -7.6098   -2.3846   -0.6207 O   0  0  0  0  0  0  0  0  0  0  0  0
   -6.5571   -0.4200   -0.7699 N   0  0  0  0  0  0  0  0  0  0  0  0
   -7.6943    0.3696   -0.4234 C   0  0  0  0  0  0  0  0  0  0  0  0
   -7.8571    0.6274    1.0018 C   0  0  0  0  0  0  0  0  0  0  0  0
   -8.9971    1.4367    1.4901 C   0  0  0  0  0  0  0  0  0  0  0  0
   -7.0675    0.1869    1.8070 O   0  0  0  0  0  0  0  0  0  0  0  0
   -5.3917    0.2448   -1.0324 C   0  0  0  0  0  0  0  0  0  0  0  0
   -5.3980    1.4740   -0.9515 O   0  0  0  0  0  0  0  0  0  0  0  0
   -4.2384   -0.4188   -1.3773 C   0  0  0  0  0  0  0  0  0  0  0  0
   -1.8607    3.2371   -1.7747 H   0  0  0  0  0  0  0  0  0  0  0  0
   -2.9913    2.9330   -0.5162 H   0  0  0  0  0  0  0  0  0  0  0  0
   -3.4871    3.0848   -2.3120 H   0  0  0  0  0  0  0  0  0  0  0  0
   -1.9136    1.2642   -2.8168 H   0  0  0  0  0  0  0  0  0  0  0  0
   -2.1152    1.6687    0.8884 H   0  0  0  0  0  0  0  0  0  0  0  0
   -1.0095    1.8643    3.2636 H   0  0  0  0  0  0  0  0  0  0  0  0
    3.0535    0.2904   -0.7155 H   0  0  0  0  0  0  0  0  0  0  0  0
    5.3915   -0.3049   -1.3610 H   0  0  0  0  0  0  0  0  0  0  0  0
    4.2979    0.7793    3.2939 H   0  0  0  0  0  0  0  0  0  0  0  0
    7.3837   -0.1484   -1.7757 H   0  0  0  0  0  0  0  0  0  0  0  0
    7.8261   -1.8313   -1.1636 H   0  0  0  0  0  0  0  0  0  0  0  0
    9.7252    0.3725   -1.7397 H   0  0  0  0  0  0  0  0  0  0  0  0
    9.9292   -2.4267   -0.2981 H   0  0  0  0  0  0  0  0  0  0  0  0
   11.3949   -1.3950   -0.7038 H   0  0  0  0  0  0  0  0  0  0  0  0
   10.5431    0.4664    0.7492 H   0  0  0  0  0  0  0  0  0  0  0  0
    8.4746    0.3609    1.9647 H   0  0  0  0  0  0  0  0  0  0  0  0
    8.6816   -1.4639    1.7241 H   0  0  0  0  0  0  0  0  0  0  0  0
   -1.2398   -1.1797   -2.2164 H   0  0  0  0  0  0  0  0  0  0  0  0
   -6.4329   -4.1557   -1.7889 H   0  0  0  0  0  0  0  0  0  0  0  0
   -4.6503   -4.2787   -1.8638 H   0  0  0  0  0  0  0  0  0  0  0  0
   -5.4370   -4.3632   -0.2734 H   0  0  0  0  0  0  0  0  0  0  0  0
   -8.6023   -0.2030   -0.7752 H   0  0  0  0  0  0  0  0  0  0  0  0
   -7.7013    1.3074   -1.0144 H   0  0  0  0  0  0  0  0  0  0  0  0
   -9.2202    2.3072    0.8225 H   0  0  0  0  0  0  0  0  0  0  0  0
   -8.7271    1.8948    2.4743 H   0  0  0  0  0  0  0  0  0  0  0  0
   -9.9429    0.8627    1.5485 H   0  0  0  0  0  0  0  0  0  0  0  0
  1  2  1  0
  2  3  1  0
  3  4  2  0
  3  5  1  0
  5  6  1  0
  6  7  2  0
  7  8  1  0
  8  9  1  0
  9 10  2  0
  9 11  1  0
 11 12  2  0
 12 13  1  0
 13 14  2  0
 14 15  1  0
 15 16  2  0
 14 17  1  0
 17 18  1  0
 18 19  1  0
 19 20  1  0
 20 21  1  0
 21 22  1  0
  2 23  1  0
 23 24  1  0
 24 25  2  0
 25 26  1  0
 26 27  1  0
 27 28  1  0
 27 29  1  0
 29 30  2  0
 29 31  1  0
 31 32  1  0
 32 33  1  0
 33 34  1  0
 33 35  2  0
 31 36  1  0
 36 37  2  0
 36 38  1  0
 10  6  1  0
 16 11  1  0
 22 17  1  0
 38 23  1  0
 21 19  1  0
 38 26  2  0
  1 39  1  0
  1 40  1  0
  1 41  1  0
  2 42  1  6
  5 43  1  0
  7 44  1  0
 12 45  1  0
 13 46  1  0
 16 47  1  0
 18 48  1  0
 18 49  1  0
 19 50  1  0
 20 51  1  0
 20 52  1  0
 21 53  1  0
 22 54  1  0
 22 55  1  0
 24 56  1  0
 28 57  1  0
 28 58  1  0
 28 59  1  0
 32 60  1  0
 32 61  1  0
 34 62  1  0
 34 63  1  0
 34 64  1  0
M  END
$$$$
[H]c1c([H])c(N([H])c2nn([H])c3c([H])c(C(F)(F)F)c([H])c([H])c23)c([H])c(F)c1F
     RDKit          3D

 30 32  0  0  0  0  0  0  0  0999 V2000
    6.5597    0.3854    0.4184 F   0  0  0  0  0  0  0  0  0  0  0  0
    5.2603    0.1046    0.1104 C   0  0  0  0  0  0  0  0  0  0  0  0
    4.7463    0.3100   -1.1588 C   0  0  0  0  0  0  0  0  0  0  0  0
    3.4185    0.0300   -1.4228 C   0  0  0  0  0  0  0  0  0  0  0  0
    2.5611   -0.4569   -0.4301 C   0  0  0  0  0  0  0  0  0  0  0  0
    1.2023   -0.6056   -0.7792 N   0  0  0  0  0  0  0  0  0  0  0  0
    0.1804   -0.2192    0.1740 C   0  0  0  0  0  0  0  0  0  0  0  0
    0.3463    0.1979    1.4598 N   0  0  0  0  0  0  0  0  0  0  0  0
   -0.8572    0.4987    1.9870 N   0  0  0  0  0  0  0  0  0  0  0  0
   -1.8004    0.2677    1.0699 C   0  0  0  0  0  0  0  0  0  0  0  0
   -3.1739    0.4485    1.0553 C   0  0  0  0  0  0  0  0  0  0  0  0
   -3.8623    0.1813   -0.0871 C   0  0  0  0  0  0  0  0  0  0  0  0
   -3.2522   -0.2630   -1.2421 C   0  0  0  0  0  0  0  0  0  0  0  0
   -1.8821   -0.4447   -1.2317 C   0  0  0  0  0  0  0  0  0  0  0  0
   -1.1578   -0.1775   -0.0647 C   0  0  0  0  0  0  0  0  0  0  0  0
   -5.3348    0.5093   -0.0784 C   0  0  0  0  0  0  0  0  0  0  0  0
   -5.6042    1.7654    0.3988 F   0  0  0  0  0  0  0  0  0  0  0  0
   -5.8304    0.3440   -1.3435 F   0  0  0  0  0  0  0  0  0  0  0  0
   -5.9600   -0.4254    0.7553 F   0  0  0  0  0  0  0  0  0  0  0  0
    3.0818   -0.6476    0.7838 C   0  0  0  0  0  0  0  0  0  0  0  0
    4.4374   -0.3692    1.0819 C   0  0  0  0  0  0  0  0  0  0  0  0
    4.9158   -0.5595    2.3107 F   0  0  0  0  0  0  0  0  0  0  0  0
    5.4154    0.6667   -1.9431 H   0  0  0  0  0  0  0  0  0  0  0  0
    3.0391    0.1752   -2.4156 H   0  0  0  0  0  0  0  0  0  0  0  0
    0.9148   -1.0288   -1.6947 H   0  0  0  0  0  0  0  0  0  0  0  0
   -1.0525    0.8607    2.9280 H   0  0  0  0  0  0  0  0  0  0  0  0
   -3.6755    0.8066    1.9525 H   0  0  0  0  0  0  0  0  0  0  0  0
   -3.8269   -0.4776   -2.1363 H   0  0  0  0  0  0  0  0  0  0  0  0
   -1.3134   -0.8080   -2.0689 H   0  0  0  0  0  0  0  0  0  0  0  0
    2.5044   -1.0688    1.6112 H   0  0  0  0  0  0  0  0  0  0  0  0
  1  2  1  0
  2  3  2  0
  3  4  1  0
  4  5  2  0
  5  6  1  0
  6  7  1  0
  7  8  2  0
  8  9  1  0
  9 10  1  0
 10 11  2  0
 11 12  1  0
 12 13  2  0
 13 14  1  0
 14 15  2  0
 12 16  1  0
 16 17  1  0
 16 18  1  0
 16 19  1  0
  5 20  1  0
 20 21  2  0
 21 22  1  0
 21  2  1  0
 15  7  1  0
 15 10  1  0
  3 23  1  0
  4 24  1  0
  6 25  1  0
  9 26  1  0
 11 27  1  0
 13 28  1  0
 14 29  1  0
 20 30  1  0
M  END
$$$$
[H]c1nc([H])c(N([H])C(=O)[C@@]([H])(n2c([H])nc3c2c(=O)n(C([H])([H])C#N)c(=O)n3C([H])([H])[H])C([H])([H])[H])nc1-c1c([H])nc(N2C([H])([H])C3([H])C(F)(F)C3([H])C2([H])[H])c([H])c1[H]
     RDKit          3D

 62 67  0  0  0  0  0  0  0  0999 V2000
   -3.7040   -1.7365   -2.6772 C   0  0  0  0  0  0  0  0  0  0  0  0
   -3.6926   -2.1083   -1.2526 C   0  0  1  0  0  0  0  0  0  0  0  0
   -2.5039   -2.0777   -0.4394 C   0  0  0  0  0  0  0  0  0  0  0  0
   -2.6843   -2.9801    0.5796 O   0  0  0  0  0  0  0  0  0  0  0  0
   -1.2840   -1.4798   -0.3256 N   0  0  0  0  0  0  0  0  0  0  0  0
   -0.4889   -0.5144   -0.9139 C   0  0  0  0  0  0  0  0  0  0  0  0
   -0.8380    0.3143   -1.9108 C   0  0  0  0  0  0  0  0  0  0  0  0
    0.0380    1.1861   -2.4447 N   0  0  0  0  0  0  0  0  0  0  0  0
    1.2981    1.2490   -1.9855 C   0  0  0  0  0  0  0  0  0  0  0  0
    1.7225    0.4317   -0.9670 C   0  0  0  0  0  0  0  0  0  0  0  0
    0.8069   -0.4134   -0.4779 N   0  0  0  0  0  0  0  0  0  0  0  0
    3.0824    0.4921   -0.4626 C   0  0  0  0  0  0  0  0  0  0  0  0
    3.5064   -0.3373    0.5706 C   0  0  0  0  0  0  0  0  0  0  0  0
    4.8121   -0.2159    0.9889 C   0  0  0  0  0  0  0  0  0  0  0  0
    5.6955    0.6771    0.4345 C   0  0  0  0  0  0  0  0  0  0  0  0
    5.2518    1.4535   -0.5521 N   0  0  0  0  0  0  0  0  0  0  0  0
    3.9777    1.3723   -0.9988 C   0  0  0  0  0  0  0  0  0  0  0  0
    7.0406    0.8048    0.8627 N   0  0  0  0  0  0  0  0  0  0  0  0
    8.0427    1.7129    0.3423 C   0  0  0  0  0  0  0  0  0  0  0  0
    9.2359    0.8055    0.1907 C   0  0  0  0  0  0  0  0  0  0  0  0
    8.9990   -0.3480    1.1916 C   0  0  0  0  0  0  0  0  0  0  0  0
    7.7233    0.0587    1.9173 C   0  0  0  0  0  0  0  0  0  0  0  0
   10.1593    0.5490    1.3184 C   0  0  0  0  0  0  0  0  0  0  0  0
   11.4028    0.0452    0.9911 F   0  0  0  0  0  0  0  0  0  0  0  0
   10.1871    1.4572    2.3520 F   0  0  0  0  0  0  0  0  0  0  0  0
   -4.9686   -2.0221   -0.5597 N   0  0  0  0  0  0  0  0  0  0  0  0
   -5.8797   -3.0081   -0.3031 C   0  0  0  0  0  0  0  0  0  0  0  0
   -6.9338   -2.5626    0.3535 N   0  0  0  0  0  0  0  0  0  0  0  0
   -6.7675   -1.2525    0.5629 C   0  0  0  0  0  0  0  0  0  0  0  0
   -7.4691   -0.2836    1.1519 N   0  0  0  0  0  0  0  0  0  0  0  0
   -8.7458   -0.6201    1.7486 C   0  0  0  0  0  0  0  0  0  0  0  0
   -7.0307    0.9858    1.2080 C   0  0  0  0  0  0  0  0  0  0  0  0
   -7.7317    1.8831    1.7805 O   0  0  0  0  0  0  0  0  0  0  0  0
   -5.8633    1.3613    0.6777 N   0  0  0  0  0  0  0  0  0  0  0  0
   -5.3285    2.6871    0.6958 C   0  0  0  0  0  0  0  0  0  0  0  0
   -4.5105    2.9103    1.8798 C   0  0  0  0  0  0  0  0  0  0  0  0
   -3.8703    3.0921    2.8238 N   0  0  0  0  0  0  0  0  0  0  0  0
   -5.1218    0.3923    0.0677 C   0  0  0  0  0  0  0  0  0  0  0  0
   -4.0288    0.6853   -0.4423 O   0  0  0  0  0  0  0  0  0  0  0  0
   -5.5368   -0.9288   -0.0124 C   0  0  0  0  0  0  0  0  0  0  0  0
   -3.8811   -0.6842   -2.9423 H   0  0  0  0  0  0  0  0  0  0  0  0
   -2.7722   -2.0377   -3.1992 H   0  0  0  0  0  0  0  0  0  0  0  0
   -4.5095   -2.3248   -3.2041 H   0  0  0  0  0  0  0  0  0  0  0  0
   -3.6987   -3.3183   -1.4402 H   0  0  0  0  0  0  0  0  0  0  0  0
   -0.7314   -1.8944    0.5879 H   0  0  0  0  0  0  0  0  0  0  0  0
   -1.8462    0.3365   -2.3060 H   0  0  0  0  0  0  0  0  0  0  0  0
    1.9467    1.9890   -2.4784 H   0  0  0  0  0  0  0  0  0  0  0  0
    2.7999   -1.0362    0.9982 H   0  0  0  0  0  0  0  0  0  0  0  0
    5.1691   -0.8443    1.7865 H   0  0  0  0  0  0  0  0  0  0  0  0
    3.7508    2.0720   -1.8161 H   0  0  0  0  0  0  0  0  0  0  0  0
    8.2648    2.4709    1.1307 H   0  0  0  0  0  0  0  0  0  0  0  0
    7.7255    2.1945   -0.5857 H   0  0  0  0  0  0  0  0  0  0  0  0
    9.5512    0.5243   -0.8283 H   0  0  0  0  0  0  0  0  0  0  0  0
    9.0623   -1.3563    0.7424 H   0  0  0  0  0  0  0  0  0  0  0  0
    7.1475   -0.7913    2.2816 H   0  0  0  0  0  0  0  0  0  0  0  0
    7.9641    0.8112    2.7125 H   0  0  0  0  0  0  0  0  0  0  0  0
   -5.7575   -4.0346   -0.6009 H   0  0  0  0  0  0  0  0  0  0  0  0
   -8.5484   -1.1199    2.7063 H   0  0  0  0  0  0  0  0  0  0  0  0
   -9.3384   -1.3042    1.1052 H   0  0  0  0  0  0  0  0  0  0  0  0
   -9.3601    0.2984    1.8654 H   0  0  0  0  0  0  0  0  0  0  0  0
   -6.1798    3.3974    0.7172 H   0  0  0  0  0  0  0  0  0  0  0  0
   -4.7579    2.9344   -0.2430 H   0  0  0  0  0  0  0  0  0  0  0  0
  1  2  1  0
  2  3  1  0
  3  4  2  0
  3  5  1  0
  5  6  1  0
  6  7  2  0
  7  8  1  0
  8  9  2  0
  9 10  1  0
 10 11  2  0
 10 12  1  0
 12 13  2  0
 13 14  1  0
 14 15  2  0
 15 16  1  0
 16 17  2  0
 15 18  1  0
 18 19  1  0
 19 20  1  0
 20 21  1  0
 21 22  1  0
 21 23  1  0
 23 24  1  0
 23 25  1  0
  2 26  1  0
 26 27  1  0
 27 28  2  0
 28 29  1  0
 29 30  1  0
 30 31  1  0
 30 32  1  0
 32 33  2  0
 32 34  1  0
 34 35  1  0
 35 36  1  0
 36 37  3  0
 34 38  1  0
 38 39  2  0
 38 40  1  0
 11  6  1  0
 17 12  1  0
 22 18  1  0
 40 26  1  0
 23 20  1  0
 40 29  2  0
  1 41  1  0
  1 42  1  0
  1 43  1  0
  2 44  1  6
  5 45  1  0
  7 46  1  0
  9 47  1  0
 13 48  1  0
 14 49  1  0
 17 50  1  0
 19 51  1  0
 19 52  1  0
 20 53  1  0
 21 54  1  0
 22 55  1  0
 22 56  1  0
 27 57  1  0
 31 58  1  0
 31 59  1  0
 31 60  1  0
 35 61  1  0
 35 62  1  0
M  END
$$$$
[H]c1nc(N2C([H])([H])C([H])([H])N(C(=O)c3c(F)c([H])c([H])c([H])c3F)C([H])([H])C2([H])[H])nc(N([H])C2([H])C([H])([H])C2([H])[H])c1C(=O)N([H])C([H])([H])c1c([H])c([H])c([H])c([H])c1[H]
     RDKit          3D

 62 66  0  0  0  0  0  0  0  0999 V2000
    6.4268    0.5249    2.2494 F   0  0  0  0  0  0  0  0  0  0  0  0
    6.7217    1.2524    1.1453 C   0  0  0  0  0  0  0  0  0  0  0  0
    7.3237    2.4847    1.2765 C   0  0  0  0  0  0  0  0  0  0  0  0
    7.6174    3.2134    0.1372 C   0  0  0  0  0  0  0  0  0  0  0  0
    7.3135    2.7188   -1.1353 C   0  0  0  0  0  0  0  0  0  0  0  0
    6.7116    1.4853   -1.2553 C   0  0  0  0  0  0  0  0  0  0  0  0
    6.4026    0.9739   -2.4670 F   0  0  0  0  0  0  0  0  0  0  0  0
    6.4186    0.7589   -0.1229 C   0  0  0  0  0  0  0  0  0  0  0  0
    5.7821   -0.5422   -0.2825 C   0  0  0  0  0  0  0  0  0  0  0  0
    6.4708   -1.6072   -0.4050 O   0  0  0  0  0  0  0  0  0  0  0  0
    4.3706   -0.6660   -0.3067 N   0  0  0  0  0  0  0  0  0  0  0  0
    3.5713    0.5543   -0.1670 C   0  0  0  0  0  0  0  0  0  0  0  0
    2.5924    0.3080    0.9632 C   0  0  0  0  0  0  0  0  0  0  0  0
    1.8345   -0.8607    0.6399 N   0  0  0  0  0  0  0  0  0  0  0  0
    2.5747   -2.1197    0.5143 C   0  0  0  0  0  0  0  0  0  0  0  0
    3.7270   -1.9589   -0.4642 C   0  0  0  0  0  0  0  0  0  0  0  0
    0.4341   -0.8572    0.4398 C   0  0  0  0  0  0  0  0  0  0  0  0
   -0.2325    0.3016    0.5537 N   0  0  0  0  0  0  0  0  0  0  0  0
   -1.5539    0.3967    0.3814 C   0  0  0  0  0  0  0  0  0  0  0  0
   -2.2861   -0.7606    0.0673 C   0  0  0  0  0  0  0  0  0  0  0  0
   -3.7147   -0.6267   -0.1137 C   0  0  0  0  0  0  0  0  0  0  0  0
   -4.4617   -1.5932   -0.3959 O   0  0  0  0  0  0  0  0  0  0  0  0
   -4.3601    0.6534    0.0254 N   0  0  0  0  0  0  0  0  0  0  0  0
   -5.8015    0.7417   -0.1657 C   0  0  0  0  0  0  0  0  0  0  0  0
   -6.2524    2.1281    0.0214 C   0  0  0  0  0  0  0  0  0  0  0  0
   -6.2796    2.9609   -1.0891 C   0  0  0  0  0  0  0  0  0  0  0  0
   -6.6916    4.2570   -0.9615 C   0  0  0  0  0  0  0  0  0  0  0  0
   -7.0859    4.7655    0.2561 C   0  0  0  0  0  0  0  0  0  0  0  0
   -7.0636    3.9488    1.3673 C   0  0  0  0  0  0  0  0  0  0  0  0
   -6.6490    2.6501    1.2308 C   0  0  0  0  0  0  0  0  0  0  0  0
   -1.6245   -1.9586   -0.0543 C   0  0  0  0  0  0  0  0  0  0  0  0
   -2.2671   -3.1665   -0.3645 N   0  0  0  0  0  0  0  0  0  0  0  0
   -1.4072   -4.3693   -0.4587 C   0  0  0  0  0  0  0  0  0  0  0  0
   -2.0946   -5.6816   -0.7948 C   0  0  0  0  0  0  0  0  0  0  0  0
   -1.2171   -4.9965   -1.7758 C   0  0  0  0  0  0  0  0  0  0  0  0
   -0.2696   -1.9303    0.1450 N   0  0  0  0  0  0  0  0  0  0  0  0
    7.5797    2.9132    2.2350 H   0  0  0  0  0  0  0  0  0  0  0  0
    8.0824    4.1678    0.2161 H   0  0  0  0  0  0  0  0  0  0  0  0
    7.5460    3.2944   -2.0264 H   0  0  0  0  0  0  0  0  0  0  0  0
    2.9546    0.6409   -1.0939 H   0  0  0  0  0  0  0  0  0  0  0  0
    4.1946    1.4251    0.0214 H   0  0  0  0  0  0  0  0  0  0  0  0
    1.9461    1.1995    1.1246 H   0  0  0  0  0  0  0  0  0  0  0  0
    3.1404    0.0834    1.9245 H   0  0  0  0  0  0  0  0  0  0  0  0
    2.9854   -2.3733    1.4925 H   0  0  0  0  0  0  0  0  0  0  0  0
    1.9019   -2.9248    0.1803 H   0  0  0  0  0  0  0  0  0  0  0  0
    3.2878   -2.0465   -1.4787 H   0  0  0  0  0  0  0  0  0  0  0  0
    4.4912   -2.7245   -0.3415 H   0  0  0  0  0  0  0  0  0  0  0  0
   -2.0253    1.3358    0.4834 H   0  0  0  0  0  0  0  0  0  0  0  0
   -3.8761    1.5134    0.2506 H   0  0  0  0  0  0  0  0  0  0  0  0
   -6.1338    0.3126   -1.1163 H   0  0  0  0  0  0  0  0  0  0  0  0
   -6.2640    0.1214    0.6431 H   0  0  0  0  0  0  0  0  0  0  0  0
   -5.9769    2.6049   -2.0754 H   0  0  0  0  0  0  0  0  0  0  0  0
   -6.7053    4.8898   -1.8404 H   0  0  0  0  0  0  0  0  0  0  0  0
   -7.4207    5.8046    0.3811 H   0  0  0  0  0  0  0  0  0  0  0  0
   -7.3772    4.3684    2.3136 H   0  0  0  0  0  0  0  0  0  0  0  0
   -6.6382    2.0270    2.1093 H   0  0  0  0  0  0  0  0  0  0  0  0
   -3.2490   -3.2856   -0.5266 H   0  0  0  0  0  0  0  0  0  0  0  0
   -0.5716   -4.4505    0.2671 H   0  0  0  0  0  0  0  0  0  0  0  0
   -1.7258   -6.5941   -0.2714 H   0  0  0  0  0  0  0  0  0  0  0  0
   -3.1958   -5.6394   -0.8660 H   0  0  0  0  0  0  0  0  0  0  0  0
   -0.2386   -5.4741   -2.0032 H   0  0  0  0  0  0  0  0  0  0  0  0
   -1.6927   -4.5721   -2.6892 H   0  0  0  0  0  0  0  0  0  0  0  0
  1  2  1  0
  2  3  2  0
  3  4  1  0
  4  5  2  0
  5  6  1  0
  6  7  1  0
  6  8  2  0
  8  9  1  0
  9 10  2  0
  9 11  1  0
 11 12  1  0
 12 13  1  0
 13 14  1  0
 14 15  1  0
 15 16  1  0
 14 17  1  0
 17 18  2  0
 18 19  1  0
 19 20  2  0
 20 21  1  0
 21 22  2  0
 21 23  1  0
 23 24  1  0
 24 25  1  0
 25 26  2  0
 26 27  1  0
 27 28  2  0
 28 29  1  0
 29 30  2  0
 20 31  1  0
 31 32  1  0
 32 33  1  0
 33 34  1  0
 34 35  1  0
 31 36  2  0
  8  2  1  0
 16 11  1  0
 36 17  1  0
 30 25  1  0
 35 33  1  0
  3 37  1  0
  4 38  1  0
  5 39  1  0
 12 40  1  0
 12 41  1  0
 13 42  1  0
 13 43  1  0
 15 44  1  0
 15 45  1  0
 16 46  1  0
 16 47  1  0
 19 48  1  0
 23 49  1  0
 24 50  1  0
 24 51  1  0
 26 52  1  0
 27 53  1  0
 28 54  1  0
 29 55  1  0
 30 56  1  0
 32 57  1  0
 33 58  1  0
 34 59  1  0
 34 60  1  0
 35 61  1  0
 35 62  1  0
M  END
$$$$
[H]C1=Nc2c([H])c([H])c([H])c([H])c2C([H])([H])c2c(C#N)c([H])c([H])c([H])c21
     RDKit          3D

 27 29  0  0  0  0  0  0  0  0999 V2000
   -1.9537   -3.1822    1.8362 N   0  0  0  0  0  0  0  0  0  0  0  0
   -2.0486   -2.1379    1.3071 C   0  0  0  0  0  0  0  0  0  0  0  0
   -2.1945   -0.8456    0.6594 C   0  0  0  0  0  0  0  0  0  0  0  0
   -3.3458   -0.1095    0.8187 C   0  0  0  0  0  0  0  0  0  0  0  0
   -3.5385    1.1222    0.2247 C   0  0  0  0  0  0  0  0  0  0  0  0
   -2.5222    1.6212   -0.5593 C   0  0  0  0  0  0  0  0  0  0  0  0
   -1.3558    0.8988   -0.7336 C   0  0  0  0  0  0  0  0  0  0  0  0
   -0.3887    1.5791   -1.5941 C   0  0  0  0  0  0  0  0  0  0  0  0
    0.8993    1.4645   -1.5975 N   0  0  0  0  0  0  0  0  0  0  0  0
    1.7274    0.6341   -0.7522 C   0  0  0  0  0  0  0  0  0  0  0  0
    2.9937    1.1362   -0.5941 C   0  0  0  0  0  0  0  0  0  0  0  0
    3.8739    0.4327    0.1932 C   0  0  0  0  0  0  0  0  0  0  0  0
    3.5000   -0.7582    0.8176 C   0  0  0  0  0  0  0  0  0  0  0  0
    2.2221   -1.2210    0.6298 C   0  0  0  0  0  0  0  0  0  0  0  0
    1.2955   -0.5350   -0.1639 C   0  0  0  0  0  0  0  0  0  0  0  0
   -0.0094   -1.2502   -0.2033 C   0  0  0  0  0  0  0  0  0  0  0  0
   -1.1781   -0.3300   -0.1337 C   0  0  0  0  0  0  0  0  0  0  0  0
   -4.1225   -0.5589    1.4560 H   0  0  0  0  0  0  0  0  0  0  0  0
   -4.4519    1.6681    0.3725 H   0  0  0  0  0  0  0  0  0  0  0  0
   -2.6455    2.5643   -1.0273 H   0  0  0  0  0  0  0  0  0  0  0  0
   -0.8682    2.2578   -2.2982 H   0  0  0  0  0  0  0  0  0  0  0  0
    3.3082    2.0526   -1.0644 H   0  0  0  0  0  0  0  0  0  0  0  0
    4.8879    0.7663    0.3638 H   0  0  0  0  0  0  0  0  0  0  0  0
    4.1944   -1.3091    1.4361 H   0  0  0  0  0  0  0  0  0  0  0  0
    1.8613   -2.1466    1.0884 H   0  0  0  0  0  0  0  0  0  0  0  0
   -0.0749   -1.8837   -1.1253 H   0  0  0  0  0  0  0  0  0  0  0  0
   -0.0654   -1.9300    0.6435 H   0  0  0  0  0  0  0  0  0  0  0  0
  1  2  3  0
  2  3  1  0
  3  4  2  0
  4  5  1  0
  5  6  2  0
  6  7  1  0
  7  8  1  0
  8  9  2  0
  9 10  1  0
 10 11  2  0
 11 12  1  0
 12 13  2  0
 13 14  1  0
 14 15  2  0
 15 16  1  0
 16 17  1  0
 17  3  1  0
 17  7  2  0
 15 10  1  0
  4 18  1  0
  5 19  1  0
  6 20  1  0
  8 21  1  0
 11 22  1  0
 12 23  1  0
 13 24  1  0
 14 25  1  0
 16 26  1  0
 16 27  1  0
M  END
$$$$
[H]c1nc(N2C([H])([H])C([H])([H])C([H])([H])[C@@]2([H])C(F)(F)F)nc([H])c1-c1nc(N([H])C(=O)[C@@]([H])(n2c([H])nc3c2c(=O)n(C([H])([H])C#CC([H])([H])[H])c(=O)n3C([H])([H])[H])C([H])([H])[H])c([H])s1
     RDKit          3D

 65 69  0  0  0  0  0  0  0  0999 V2000
   -9.8207    3.8149   -1.1253 C   0  0  0  0  0  0  0  0  0  0  0  0
   -9.1373    2.5126   -1.1782 C   0  0  0  0  0  0  0  0  0  0  0  0
   -8.5939    1.4301   -1.2137 C   0  0  0  0  0  0  0  0  0  0  0  0
   -7.9594    0.1113   -1.2532 C   0  0  0  0  0  0  0  0  0  0  0  0
   -6.8694    0.0062   -0.3065 N   0  0  0  0  0  0  0  0  0  0  0  0
   -7.1324   -0.4190    0.9354 C   0  0  0  0  0  0  0  0  0  0  0  0
   -8.3138   -0.7227    1.2838 O   0  0  0  0  0  0  0  0  0  0  0  0
   -6.1625   -0.5479    1.8806 N   0  0  0  0  0  0  0  0  0  0  0  0
   -6.4467   -1.0080    3.2297 C   0  0  0  0  0  0  0  0  0  0  0  0
   -4.8840   -0.2407    1.5724 C   0  0  0  0  0  0  0  0  0  0  0  0
   -3.7547   -0.2807    2.3105 N   0  0  0  0  0  0  0  0  0  0  0  0
   -2.7340    0.1298    1.5238 C   0  0  0  0  0  0  0  0  0  0  0  0
   -3.2486    0.4179    0.3097 N   0  0  0  0  0  0  0  0  0  0  0  0
   -2.4322    0.8895   -0.7930 C   0  0  1  0  0  0  0  0  0  0  0  0
   -2.1082    2.3287   -0.5017 C   0  0  0  0  0  0  0  0  0  0  0  0
   -1.1439    0.1347   -0.8406 C   0  0  0  0  0  0  0  0  0  0  0  0
   -0.0628    0.7299   -0.6757 O   0  0  0  0  0  0  0  0  0  0  0  0
   -1.1602   -1.2635   -1.0738 N   0  0  0  0  0  0  0  0  0  0  0  0
    0.0896   -1.9949   -1.1045 C   0  0  0  0  0  0  0  0  0  0  0  0
    0.1022   -3.3487   -1.3481 C   0  0  0  0  0  0  0  0  0  0  0  0
    1.7702   -3.7020   -1.2613 S   0  0  0  0  0  0  0  0  0  0  0  0
    2.3449   -2.1291   -0.9249 C   0  0  0  0  0  0  0  0  0  0  0  0
    1.2324   -1.4186   -0.8972 N   0  0  0  0  0  0  0  0  0  0  0  0
    3.7386   -1.6762   -0.7109 C   0  0  0  0  0  0  0  0  0  0  0  0
    4.7593   -2.5946   -0.7790 C   0  0  0  0  0  0  0  0  0  0  0  0
    6.0369   -2.2131   -0.5820 N   0  0  0  0  0  0  0  0  0  0  0  0
    6.3799   -0.9333   -0.3122 C   0  0  0  0  0  0  0  0  0  0  0  0
    5.3798   -0.0398   -0.2470 N   0  0  0  0  0  0  0  0  0  0  0  0
    4.0709   -0.3729   -0.4382 C   0  0  0  0  0  0  0  0  0  0  0  0
    7.7390   -0.5632   -0.1055 N   0  0  0  0  0  0  0  0  0  0  0  0
    8.9188   -1.3901   -0.1855 C   0  0  0  0  0  0  0  0  0  0  0  0
    9.6792   -0.9663    1.0528 C   0  0  0  0  0  0  0  0  0  0  0  0
    9.4532    0.5306    1.0377 C   0  0  0  0  0  0  0  0  0  0  0  0
    8.1909    0.7577    0.2413 C   0  0  1  0  0  0  0  0  0  0  0  0
    8.4335    1.6528   -0.9528 C   0  0  0  0  0  0  0  0  0  0  0  0
    9.3822    1.1746   -1.8168 F   0  0  0  0  0  0  0  0  0  0  0  0
    8.9168    2.8823   -0.4913 F   0  0  0  0  0  0  0  0  0  0  0  0
    7.2492    1.9409   -1.5996 F   0  0  0  0  0  0  0  0  0  0  0  0
   -4.5692    0.2028    0.2990 C   0  0  0  0  0  0  0  0  0  0  0  0
   -5.5953    0.3096   -0.6035 C   0  0  0  0  0  0  0  0  0  0  0  0
   -5.3391    0.7076   -1.7575 O   0  0  0  0  0  0  0  0  0  0  0  0
  -10.6816    3.7349   -1.8195 H   0  0  0  0  0  0  0  0  0  0  0  0
  -10.1597    4.0448   -0.0742 H   0  0  0  0  0  0  0  0  0  0  0  0
   -9.1426    4.6515   -1.4014 H   0  0  0  0  0  0  0  0  0  0  0  0
   -7.5805   -0.1341   -2.2653 H   0  0  0  0  0  0  0  0  0  0  0  0
   -8.7148   -0.6556   -0.9951 H   0  0  0  0  0  0  0  0  0  0  0  0
   -5.9454   -1.9751    3.4281 H   0  0  0  0  0  0  0  0  0  0  0  0
   -7.5474   -1.1760    3.3089 H   0  0  0  0  0  0  0  0  0  0  0  0
   -6.1948   -0.2359    3.9926 H   0  0  0  0  0  0  0  0  0  0  0  0
   -1.7076    0.1927    1.8724 H   0  0  0  0  0  0  0  0  0  0  0  0
   -2.9299    0.7607   -1.7791 H   0  0  0  0  0  0  0  0  0  0  0  0
   -1.2006    2.4344    0.1159 H   0  0  0  0  0  0  0  0  0  0  0  0
   -1.9569    2.9426   -1.4113 H   0  0  0  0  0  0  0  0  0  0  0  0
   -2.9379    2.8131    0.0862 H   0  0  0  0  0  0  0  0  0  0  0  0
   -2.0692   -1.7856   -1.2177 H   0  0  0  0  0  0  0  0  0  0  0  0
   -0.7593   -4.0165   -1.5471 H   0  0  0  0  0  0  0  0  0  0  0  0
    4.4902   -3.6288   -0.9957 H   0  0  0  0  0  0  0  0  0  0  0  0
    3.2962    0.3755   -0.3776 H   0  0  0  0  0  0  0  0  0  0  0  0
    8.6533   -2.4769   -0.1398 H   0  0  0  0  0  0  0  0  0  0  0  0
    9.5685   -1.1637   -1.0456 H   0  0  0  0  0  0  0  0  0  0  0  0
    9.2095   -1.4419    1.9373 H   0  0  0  0  0  0  0  0  0  0  0  0
   10.7600   -1.2154    0.9812 H   0  0  0  0  0  0  0  0  0  0  0  0
    9.3274    0.8251    2.1105 H   0  0  0  0  0  0  0  0  0  0  0  0
   10.3439    1.0020    0.6040 H   0  0  0  0  0  0  0  0  0  0  0  0
    7.4801    1.2894    0.9112 H   0  0  0  0  0  0  0  0  0  0  0  0
  1  2  1  0
  2  3  3  0
  3  4  1  0
  4  5  1  0
  5  6  1  0
  6  7  2  0
  6  8  1  0
  8  9  1  0
  8 10  1  0
 10 11  1  0
 11 12  2  0
 12 13  1  0
 13 14  1  0
 14 15  1  0
 14 16  1  0
 16 17  2  0
 16 18  1  0
 18 19  1  0
 19 20  2  0
 20 21  1  0
 21 22  1  0
 22 23  2  0
 22 24  1  0
 24 25  2  0
 25 26  1  0
 26 27  2  0
 27 28  1  0
 28 29  2  0
 27 30  1  0
 30 31  1  0
 31 32  1  0
 32 33  1  0
 33 34  1  0
 34 35  1  0
 35 36  1  0
 35 37  1  0
 35 38  1  0
 13 39  1  0
 39 40  1  0
 40 41  2  0
 40  5  1  0
 39 10  2  0
 23 19  1  0
 29 24  1  0
 34 30  1  0
  1 42  1  0
  1 43  1  0
  1 44  1  0
  4 45  1  0
  4 46  1  0
  9 47  1  0
  9 48  1  0
  9 49  1  0
 12 50  1  0
 14 51  1  6
 15 52  1  0
 15 53  1  0
 15 54  1  0
 18 55  1  0
 20 56  1  0
 25 57  1  0
 29 58  1  0
 31 59  1  0
 31 60  1  0
 32 61  1  0
 32 62  1  0
 33 63  1  0
 33 64  1  0
 34 65  1  1
M  END
$$$$
[H]c1nc([H])c(N([H])C(=O)[C@@]([H])(n2c([H])nc3c2c(=O)n(C([H])([H])C(=O)C([H])([H])C([H])([H])[H])c(=O)n3C([H])([H])[H])C([H])([H])[H])nc1-c1c([H])nc(N2C([H])([H])C3([H])C(F)(F)C3([H])C2([H])[H])c([H])c1[H]
     RDKit          3D

 69 74  0  0  0  0  0  0  0  0999 V2000
    8.0789   -2.1791   -0.4223 C   0  0  0  0  0  0  0  0  0  0  0  0
    6.5706   -2.1505   -0.3141 C   0  0  0  0  0  0  0  0  0  0  0  0
    6.0712   -2.2186    1.0760 C   0  0  0  0  0  0  0  0  0  0  0  0
    6.0519   -3.2994    1.6281 O   0  0  0  0  0  0  0  0  0  0  0  0
    5.6103   -1.0305    1.7803 C   0  0  0  0  0  0  0  0  0  0  0  0
    5.6735    0.2049    1.0636 N   0  0  0  0  0  0  0  0  0  0  0  0
    6.7249    1.0301    1.0722 C   0  0  0  0  0  0  0  0  0  0  0  0
    7.7311    0.7146    1.7475 O   0  0  0  0  0  0  0  0  0  0  0  0
    6.7413    2.1779    0.3883 N   0  0  0  0  0  0  0  0  0  0  0  0
    7.9114    3.0372    0.4359 C   0  0  0  0  0  0  0  0  0  0  0  0
    5.6682    2.5268   -0.3387 C   0  0  0  0  0  0  0  0  0  0  0  0
    5.4062    3.6054   -1.1164 N   0  0  0  0  0  0  0  0  0  0  0  0
    4.1829    3.4736   -1.6263 C   0  0  0  0  0  0  0  0  0  0  0  0
    3.6013    2.3079   -1.2026 N   0  0  0  0  0  0  0  0  0  0  0  0
    2.2883    1.8516   -1.5602 C   0  0  1  0  0  0  0  0  0  0  0  0
    2.1702    0.5214   -2.2110 C   0  0  0  0  0  0  0  0  0  0  0  0
    1.3921    1.9076   -0.3450 C   0  0  0  0  0  0  0  0  0  0  0  0
    1.9026    2.5197    0.6296 O   0  0  0  0  0  0  0  0  0  0  0  0
    0.1225    1.3124   -0.3808 N   0  0  0  0  0  0  0  0  0  0  0  0
   -0.8127    1.2630    0.6390 C   0  0  0  0  0  0  0  0  0  0  0  0
   -0.6352    1.7779    1.8803 C   0  0  0  0  0  0  0  0  0  0  0  0
   -1.5726    1.7237    2.8745 N   0  0  0  0  0  0  0  0  0  0  0  0
   -2.7402    1.1274    2.6147 C   0  0  0  0  0  0  0  0  0  0  0  0
   -2.9822    0.5837    1.3696 C   0  0  0  0  0  0  0  0  0  0  0  0
   -2.0348    0.6617    0.4311 N   0  0  0  0  0  0  0  0  0  0  0  0
   -4.2454   -0.0673    1.0450 C   0  0  0  0  0  0  0  0  0  0  0  0
   -4.4022   -0.5546   -0.2433 C   0  0  0  0  0  0  0  0  0  0  0  0
   -5.5817   -1.1686   -0.5710 C   0  0  0  0  0  0  0  0  0  0  0  0
   -6.6091   -1.3169    0.3302 C   0  0  0  0  0  0  0  0  0  0  0  0
   -6.4075   -0.8288    1.5631 N   0  0  0  0  0  0  0  0  0  0  0  0
   -5.2664   -0.2127    1.9475 C   0  0  0  0  0  0  0  0  0  0  0  0
   -7.8051   -1.9548   -0.0683 N   0  0  0  0  0  0  0  0  0  0  0  0
   -8.9787   -2.2687    0.7331 C   0  0  0  0  0  0  0  0  0  0  0  0
  -10.1377   -2.1808   -0.2241 C   0  0  0  0  0  0  0  0  0  0  0  0
   -9.5933   -2.1972   -1.5958 C   0  0  0  0  0  0  0  0  0  0  0  0
   -8.1089   -2.4285   -1.3860 C   0  0  0  0  0  0  0  0  0  0  0  0
  -10.2277   -0.9632   -1.0677 C   0  0  0  0  0  0  0  0  0  0  0  0
  -11.4566   -0.6337   -1.5990 F   0  0  0  0  0  0  0  0  0  0  0  0
   -9.4500    0.0990   -0.6643 F   0  0  0  0  0  0  0  0  0  0  0  0
    4.5230    1.7283   -0.4085 C   0  0  0  0  0  0  0  0  0  0  0  0
    4.5858    0.5650    0.3232 C   0  0  0  0  0  0  0  0  0  0  0  0
    3.5843   -0.2081    0.3072 O   0  0  0  0  0  0  0  0  0  0  0  0
    8.5330   -2.6809    0.4431 H   0  0  0  0  0  0  0  0  0  0  0  0
    8.5213   -1.1622   -0.4694 H   0  0  0  0  0  0  0  0  0  0  0  0
    8.3474   -2.6580   -1.3853 H   0  0  0  0  0  0  0  0  0  0  0  0
    6.1854   -3.0128   -0.9301 H   0  0  0  0  0  0  0  0  0  0  0  0
    6.1417   -1.2538   -0.7987 H   0  0  0  0  0  0  0  0  0  0  0  0
    4.5469   -1.1311    2.1498 H   0  0  0  0  0  0  0  0  0  0  0  0
    6.1802   -0.8482    2.7438 H   0  0  0  0  0  0  0  0  0  0  0  0
    7.8449    3.7308   -0.4231 H   0  0  0  0  0  0  0  0  0  0  0  0
    7.8779    3.7003    1.3491 H   0  0  0  0  0  0  0  0  0  0  0  0
    8.8528    2.4521    0.4572 H   0  0  0  0  0  0  0  0  0  0  0  0
    3.6532    4.1507   -2.2908 H   0  0  0  0  0  0  0  0  0  0  0  0
    1.8376    2.6008   -2.3075 H   0  0  0  0  0  0  0  0  0  0  0  0
    1.6129    0.5688   -3.1903 H   0  0  0  0  0  0  0  0  0  0  0  0
    1.5540   -0.1631   -1.5985 H   0  0  0  0  0  0  0  0  0  0  0  0
    3.1409    0.0389   -2.4789 H   0  0  0  0  0  0  0  0  0  0  0  0
   -0.1499    0.8319   -1.3071 H   0  0  0  0  0  0  0  0  0  0  0  0
    0.3022    2.2825    2.1703 H   0  0  0  0  0  0  0  0  0  0  0  0
   -3.4918    1.0842    3.4133 H   0  0  0  0  0  0  0  0  0  0  0  0
   -3.5863   -0.4418   -0.9752 H   0  0  0  0  0  0  0  0  0  0  0  0
   -5.6644   -1.5391   -1.5996 H   0  0  0  0  0  0  0  0  0  0  0  0
   -5.1677    0.1586    2.9625 H   0  0  0  0  0  0  0  0  0  0  0  0
   -9.0178   -1.5281    1.5524 H   0  0  0  0  0  0  0  0  0  0  0  0
   -8.9498   -3.2870    1.1546 H   0  0  0  0  0  0  0  0  0  0  0  0
  -11.1021   -2.6355    0.0558 H   0  0  0  0  0  0  0  0  0  0  0  0
  -10.0613   -2.7163   -2.4369 H   0  0  0  0  0  0  0  0  0  0  0  0
   -7.9129   -3.5082   -1.5196 H   0  0  0  0  0  0  0  0  0  0  0  0
   -7.5732   -1.8925   -2.1880 H   0  0  0  0  0  0  0  0  0  0  0  0
  1  2  1  0
  2  3  1  0
  3  4  2  0
  3  5  1  0
  5  6  1  0
  6  7  1  0
  7  8  2  0
  7  9  1  0
  9 10  1  0
  9 11  1  0
 11 12  1  0
 12 13  2  0
 13 14  1  0
 14 15  1  0
 15 16  1  0
 15 17  1  0
 17 18  2  0
 17 19  1  0
 19 20  1  0
 20 21  2  0
 21 22  1  0
 22 23  2  0
 23 24  1  0
 24 25  2  0
 24 26  1  0
 26 27  2  0
 27 28  1  0
 28 29  2  0
 29 30  1  0
 30 31  2  0
 29 32  1  0
 32 33  1  0
 33 34  1  0
 34 35  1  0
 35 36  1  0
 35 37  1  0
 37 38  1  0
 37 39  1  0
 14 40  1  0
 40 41  1  0
 41 42  2  0
 41  6  1  0
 40 11  2  0
 25 20  1  0
 31 26  1  0
 36 32  1  0
 37 34  1  0
  1 43  1  0
  1 44  1  0
  1 45  1  0
  2 46  1  0
  2 47  1  0
  5 48  1  0
  5 49  1  0
 10 50  1  0
 10 51  1  0
 10 52  1  0
 13 53  1  0
 15 54  1  6
 16 55  1  0
 16 56  1  0
 16 57  1  0
 19 58  1  0
 21 59  1  0
 23 60  1  0
 27 61  1  0
 28 62  1  0
 31 63  1  0
 33 64  1  0
 33 65  1  0
 34 66  1  0
 35 67  1  0
 36 68  1  0
 36 69  1  0
M  END
$$$$
[H]c1nc2c(c(C([H])([H])C(=O)N([H])c3nc(-c4c([H])c(F)c(OC([H])([H])C(F)(F)F)c(F)c4[H])c([H])s3)c1[H])c(=O)n(C([H])([H])[H])c(=O)n2C([H])([H])[H]
     RDKit          3D

 53 56  0  0  0  0  0  0  0  0999 V2000
   -5.6376    3.1011    1.6964 C   0  0  0  0  0  0  0  0  0  0  0  0
   -5.1220    1.9927    0.8865 N   0  0  0  0  0  0  0  0  0  0  0  0
   -4.5972    0.9222    1.5123 C   0  0  0  0  0  0  0  0  0  0  0  0
   -4.5565    0.8518    2.8654 N   0  0  0  0  0  0  0  0  0  0  0  0
   -4.0464   -0.2273    3.4403 C   0  0  0  0  0  0  0  0  0  0  0  0
   -3.5681   -1.2533    2.6918 C   0  0  0  0  0  0  0  0  0  0  0  0
   -3.5659   -1.2724    1.2826 C   0  0  0  0  0  0  0  0  0  0  0  0
   -2.9845   -2.3976    0.5860 C   0  0  0  0  0  0  0  0  0  0  0  0
   -1.5739   -2.2641    0.1634 C   0  0  0  0  0  0  0  0  0  0  0  0
   -0.9541   -1.2175    0.4343 O   0  0  0  0  0  0  0  0  0  0  0  0
   -0.9717   -3.3150   -0.5270 N   0  0  0  0  0  0  0  0  0  0  0  0
    0.4079   -3.2534   -0.9579 C   0  0  0  0  0  0  0  0  0  0  0  0
    1.2587   -2.2601   -0.7775 N   0  0  0  0  0  0  0  0  0  0  0  0
    2.4718   -2.3634   -1.2287 C   0  0  0  0  0  0  0  0  0  0  0  0
    2.8027   -3.5267   -1.8812 C   0  0  0  0  0  0  0  0  0  0  0  0
    1.3376   -4.3994   -1.8020 S   0  0  0  0  0  0  0  0  0  0  0  0
    3.4695   -1.2689   -1.0418 C   0  0  0  0  0  0  0  0  0  0  0  0
    3.1560   -0.1192   -0.3565 C   0  0  0  0  0  0  0  0  0  0  0  0
    4.0914    0.8870   -0.1994 C   0  0  0  0  0  0  0  0  0  0  0  0
    3.7394    2.0022    0.4841 F   0  0  0  0  0  0  0  0  0  0  0  0
    5.3608    0.7801   -0.7165 C   0  0  0  0  0  0  0  0  0  0  0  0
    6.2790    1.7992   -0.5451 O   0  0  0  0  0  0  0  0  0  0  0  0
    7.1656    1.8560    0.5590 C   0  0  0  0  0  0  0  0  0  0  0  0
    8.0152    3.0826    0.4254 C   0  0  0  0  0  0  0  0  0  0  0  0
    8.7407    3.0266   -0.7567 F   0  0  0  0  0  0  0  0  0  0  0  0
    7.2030    4.1975    0.3465 F   0  0  0  0  0  0  0  0  0  0  0  0
    8.8776    3.2297    1.4994 F   0  0  0  0  0  0  0  0  0  0  0  0
    5.6717   -0.3746   -1.4028 C   0  0  0  0  0  0  0  0  0  0  0  0
    6.9095   -0.5300   -1.9312 F   0  0  0  0  0  0  0  0  0  0  0  0
    4.7257   -1.3832   -1.5575 C   0  0  0  0  0  0  0  0  0  0  0  0
   -4.1089   -0.1270    0.7210 C   0  0  0  0  0  0  0  0  0  0  0  0
   -4.1862   -0.0217   -0.6333 C   0  0  0  0  0  0  0  0  0  0  0  0
   -3.7624   -0.9419   -1.3613 O   0  0  0  0  0  0  0  0  0  0  0  0
   -4.7161    1.0605   -1.2273 N   0  0  0  0  0  0  0  0  0  0  0  0
   -4.7703    1.1114   -2.6599 C   0  0  0  0  0  0  0  0  0  0  0  0
   -5.1766    2.0532   -0.4537 C   0  0  0  0  0  0  0  0  0  0  0  0
   -5.6798    3.0833   -0.9787 O   0  0  0  0  0  0  0  0  0  0  0  0
   -4.7804    3.5546    2.1948 H   0  0  0  0  0  0  0  0  0  0  0  0
   -6.3585    2.6623    2.4330 H   0  0  0  0  0  0  0  0  0  0  0  0
   -6.1600    3.8256    1.0518 H   0  0  0  0  0  0  0  0  0  0  0  0
   -4.0231   -0.2642    4.5297 H   0  0  0  0  0  0  0  0  0  0  0  0
   -3.1653   -2.1040    3.2237 H   0  0  0  0  0  0  0  0  0  0  0  0
   -3.6181   -2.9545   -0.1267 H   0  0  0  0  0  0  0  0  0  0  0  0
   -2.8854   -3.2224    1.3688 H   0  0  0  0  0  0  0  0  0  0  0  0
   -1.4696   -4.1970   -0.7644 H   0  0  0  0  0  0  0  0  0  0  0  0
    3.7755   -3.7989   -2.3308 H   0  0  0  0  0  0  0  0  0  0  0  0
    2.1576    0.0019    0.0690 H   0  0  0  0  0  0  0  0  0  0  0  0
    6.5722    1.9379    1.4878 H   0  0  0  0  0  0  0  0  0  0  0  0
    7.7607    0.9244    0.6155 H   0  0  0  0  0  0  0  0  0  0  0  0
    5.0344   -2.2443   -2.0977 H   0  0  0  0  0  0  0  0  0  0  0  0
   -5.7178    1.6516   -2.9555 H   0  0  0  0  0  0  0  0  0  0  0  0
   -4.9065    0.0824   -3.0709 H   0  0  0  0  0  0  0  0  0  0  0  0
   -3.9215    1.6238   -3.1226 H   0  0  0  0  0  0  0  0  0  0  0  0
  1  2  1  0
  2  3  1  0
  3  4  2  0
  4  5  1  0
  5  6  2  0
  6  7  1  0
  7  8  1  0
  8  9  1  0
  9 10  2  0
  9 11  1  0
 11 12  1  0
 12 13  2  0
 13 14  1  0
 14 15  2  0
 15 16  1  0
 14 17  1  0
 17 18  2  0
 18 19  1  0
 19 20  1  0
 19 21  2  0
 21 22  1  0
 22 23  1  0
 23 24  1  0
 24 25  1  0
 24 26  1  0
 24 27  1  0
 21 28  1  0
 28 29  1  0
 28 30  2  0
  7 31  2  0
 31 32  1  0
 32 33  2  0
 32 34  1  0
 34 35  1  0
 34 36  1  0
 36 37  2  0
 36  2  1  0
 31  3  1  0
 16 12  1  0
 30 17  1  0
  1 38  1  0
  1 39  1  0
  1 40  1  0
  5 41  1  0
  6 42  1  0
  8 43  1  0
  8 44  1  0
 11 45  1  0
 15 46  1  0
 18 47  1  0
 23 48  1  0
 23 49  1  0
 30 50  1  0
 35 51  1  0
 35 52  1  0
 35 53  1  0
M  END
$$$$
[H]c1nc(C(F)(F)F)c(C([H])([H])[H])c([H])c1-c1nc(N([H])C(=O)[C@@]([H])(n2c([H])nc3c2c(=O)n(C([H])([H])C(=O)C([H])([H])[H])c(=O)n3C([H])([H])[H])C([H])([H])[H])c([H])s1
     RDKit          3D

 57 60  0  0  0  0  0  0  0  0999 V2000
    0.1346   -2.5288    1.9538 C   0  0  0  0  0  0  0  0  0  0  0  0
   -0.6475   -2.0174    0.7411 C   0  0  1  0  0  0  0  0  0  0  0  0
   -0.6763   -3.0709   -0.2921 C   0  0  0  0  0  0  0  0  0  0  0  0
   -1.7919   -3.7378   -0.4530 O   0  0  0  0  0  0  0  0  0  0  0  0
    0.3452   -3.4766   -1.1474 N   0  0  0  0  0  0  0  0  0  0  0  0
    1.6501   -2.8791   -1.2029 C   0  0  0  0  0  0  0  0  0  0  0  0
    2.6268   -3.3752   -2.0683 C   0  0  0  0  0  0  0  0  0  0  0  0
    3.9312   -2.3197   -1.7582 S   0  0  0  0  0  0  0  0  0  0  0  0
    3.1978   -1.3333   -0.5847 C   0  0  0  0  0  0  0  0  0  0  0  0
    1.9988   -1.8605   -0.4916 N   0  0  0  0  0  0  0  0  0  0  0  0
    3.7383   -0.1728    0.1586 C   0  0  0  0  0  0  0  0  0  0  0  0
    2.9851    0.4981    1.0799 C   0  0  0  0  0  0  0  0  0  0  0  0
    3.5230    1.5511    1.7310 N   0  0  0  0  0  0  0  0  0  0  0  0
    4.7984    1.9700    1.4993 C   0  0  0  0  0  0  0  0  0  0  0  0
    5.5581    1.2937    0.5703 C   0  0  0  0  0  0  0  0  0  0  0  0
    6.9594    1.6923    0.2665 C   0  0  0  0  0  0  0  0  0  0  0  0
    5.0246    0.2170   -0.1030 C   0  0  0  0  0  0  0  0  0  0  0  0
    5.3494    3.1418    2.2435 C   0  0  0  0  0  0  0  0  0  0  0  0
    4.3723    3.6107    3.1061 F   0  0  0  0  0  0  0  0  0  0  0  0
    5.6251    4.1982    1.3762 F   0  0  0  0  0  0  0  0  0  0  0  0
    6.4619    2.8164    2.9889 F   0  0  0  0  0  0  0  0  0  0  0  0
   -2.0366   -1.7569    1.1238 N   0  0  0  0  0  0  0  0  0  0  0  0
   -2.7675   -2.5290    1.9657 C   0  0  0  0  0  0  0  0  0  0  0  0
   -3.9908   -1.9924    2.0871 N   0  0  0  0  0  0  0  0  0  0  0  0
   -4.0124   -0.8864    1.3167 C   0  0  0  0  0  0  0  0  0  0  0  0
   -4.9638    0.0410    1.0497 N   0  0  0  0  0  0  0  0  0  0  0  0
   -6.2514   -0.1718    1.7258 C   0  0  0  0  0  0  0  0  0  0  0  0
   -4.7568    1.0845    0.2278 C   0  0  0  0  0  0  0  0  0  0  0  0
   -5.7207    1.8941    0.0491 O   0  0  0  0  0  0  0  0  0  0  0  0
   -3.5771    1.2771   -0.3900 N   0  0  0  0  0  0  0  0  0  0  0  0
   -3.3501    2.4016   -1.2744 C   0  0  0  0  0  0  0  0  0  0  0  0
   -3.6855    2.1265   -2.6768 C   0  0  0  0  0  0  0  0  0  0  0  0
   -3.5046    3.1920   -3.6863 C   0  0  0  0  0  0  0  0  0  0  0  0
   -4.1042    1.0460   -3.0073 O   0  0  0  0  0  0  0  0  0  0  0  0
   -2.6045    0.3575   -0.1371 C   0  0  0  0  0  0  0  0  0  0  0  0
   -1.5011    0.5305   -0.7109 O   0  0  0  0  0  0  0  0  0  0  0  0
   -2.7729   -0.7221    0.6948 C   0  0  0  0  0  0  0  0  0  0  0  0
    0.6441   -3.4556    1.7025 H   0  0  0  0  0  0  0  0  0  0  0  0
   -0.5930   -2.6350    2.7879 H   0  0  0  0  0  0  0  0  0  0  0  0
    0.8176   -1.7236    2.2704 H   0  0  0  0  0  0  0  0  0  0  0  0
   -0.2120   -1.1015    0.3653 H   0  0  0  0  0  0  0  0  0  0  0  0
    0.1501   -4.2728   -1.8374 H   0  0  0  0  0  0  0  0  0  0  0  0
    2.5515   -4.2302   -2.7628 H   0  0  0  0  0  0  0  0  0  0  0  0
    1.9631    0.1887    1.2879 H   0  0  0  0  0  0  0  0  0  0  0  0
    7.0465    2.7473   -0.0467 H   0  0  0  0  0  0  0  0  0  0  0  0
    7.3607    1.0821   -0.5683 H   0  0  0  0  0  0  0  0  0  0  0  0
    7.6348    1.4590    1.1362 H   0  0  0  0  0  0  0  0  0  0  0  0
    5.6378   -0.2990   -0.8272 H   0  0  0  0  0  0  0  0  0  0  0  0
   -2.3963   -3.4477    2.4565 H   0  0  0  0  0  0  0  0  0  0  0  0
   -6.1501   -0.0559    2.8179 H   0  0  0  0  0  0  0  0  0  0  0  0
   -7.0365    0.4811    1.3009 H   0  0  0  0  0  0  0  0  0  0  0  0
   -6.5993   -1.2268    1.5200 H   0  0  0  0  0  0  0  0  0  0  0  0
   -3.8790    3.3184   -0.8809 H   0  0  0  0  0  0  0  0  0  0  0  0
   -2.2508    2.6078   -1.2320 H   0  0  0  0  0  0  0  0  0  0  0  0
   -2.9311    4.0601   -3.2615 H   0  0  0  0  0  0  0  0  0  0  0  0
   -4.4511    3.6200   -4.0572 H   0  0  0  0  0  0  0  0  0  0  0  0
   -2.8715    2.7743   -4.4954 H   0  0  0  0  0  0  0  0  0  0  0  0
  1  2  1  0
  2  3  1  0
  3  4  2  0
  3  5  1  0
  5  6  1  0
  6  7  2  0
  7  8  1  0
  8  9  1  0
  9 10  2  0
  9 11  1  0
 11 12  2  0
 12 13  1  0
 13 14  2  0
 14 15  1  0
 15 16  1  0
 15 17  2  0
 14 18  1  0
 18 19  1  0
 18 20  1  0
 18 21  1  0
  2 22  1  0
 22 23  1  0
 23 24  2  0
 24 25  1  0
 25 26  1  0
 26 27  1  0
 26 28  1  0
 28 29  2  0
 28 30  1  0
 30 31  1  0
 31 32  1  0
 32 33  1  0
 32 34  2  0
 30 35  1  0
 35 36  2  0
 35 37  1  0
 10  6  1  0
 17 11  1  0
 37 22  1  0
 37 25  2  0
  1 38  1  0
  1 39  1  0
  1 40  1  0
  2 41  1  6
  5 42  1  0
  7 43  1  0
 12 44  1  0
 16 45  1  0
 16 46  1  0
 16 47  1  0
 17 48  1  0
 23 49  1  0
 27 50  1  0
 27 51  1  0
 27 52  1  0
 31 53  1  0
 31 54  1  0
 33 55  1  0
 33 56  1  0
 33 57  1  0
M  END
$$$$
[H]c1nc(C(F)(F)F)c(C([H])([H])[H])c([H])c1-c1nc(N([H])C(=O)C([H])([H])n2c([H])nc3c2c(=O)n(C([H])([H])c2nc(C([H])([H])[H])no2)c(=O)n3C([H])([H])[H])c([H])c([H])c1[H]
     RDKit          3D

 60 64  0  0  0  0  0  0  0  0999 V2000
    9.0923    0.8483    0.8583 C   0  0  0  0  0  0  0  0  0  0  0  0
    7.8326    0.1723    1.2333 C   0  0  0  0  0  0  0  0  0  0  0  0
    7.0253    0.5042    2.2577 N   0  0  0  0  0  0  0  0  0  0  0  0
    6.0164   -0.2921    2.3011 O   0  0  0  0  0  0  0  0  0  0  0  0
    6.1046   -1.1731    1.3265 C   0  0  0  0  0  0  0  0  0  0  0  0
    5.0979   -2.2248    1.1070 C   0  0  0  0  0  0  0  0  0  0  0  0
    4.0317   -1.7868    0.2261 N   0  0  0  0  0  0  0  0  0  0  0  0
    4.1596   -1.9797   -1.0926 C   0  0  0  0  0  0  0  0  0  0  0  0
    5.2048   -2.5431   -1.5683 O   0  0  0  0  0  0  0  0  0  0  0  0
    3.1676   -1.5670   -1.8884 N   0  0  0  0  0  0  0  0  0  0  0  0
    3.3004   -1.7747   -3.3141 C   0  0  0  0  0  0  0  0  0  0  0  0
    2.0793   -0.9762   -1.3605 C   0  0  0  0  0  0  0  0  0  0  0  0
    0.9445   -0.4789   -1.9081 N   0  0  0  0  0  0  0  0  0  0  0  0
    0.1683   -0.0022   -0.9252 C   0  0  0  0  0  0  0  0  0  0  0  0
    0.7514   -0.1649    0.2755 N   0  0  0  0  0  0  0  0  0  0  0  0
    0.1761    0.2765    1.5297 C   0  0  0  0  0  0  0  0  0  0  0  0
    0.4208    1.6780    1.8667 C   0  0  0  0  0  0  0  0  0  0  0  0
    1.5980    1.9511    2.3260 O   0  0  0  0  0  0  0  0  0  0  0  0
   -0.4389    2.7797    1.7667 N   0  0  0  0  0  0  0  0  0  0  0  0
   -1.7731    2.8556    1.3386 C   0  0  0  0  0  0  0  0  0  0  0  0
   -2.4111    4.1048    1.3258 C   0  0  0  0  0  0  0  0  0  0  0  0
   -3.7208    4.2480    0.9243 C   0  0  0  0  0  0  0  0  0  0  0  0
   -4.4137    3.1193    0.5250 C   0  0  0  0  0  0  0  0  0  0  0  0
   -3.8070    1.8827    0.5292 C   0  0  0  0  0  0  0  0  0  0  0  0
   -2.5330    1.8349    0.9343 N   0  0  0  0  0  0  0  0  0  0  0  0
   -4.5063    0.6651    0.1060 C   0  0  0  0  0  0  0  0  0  0  0  0
   -3.8544   -0.5614    0.1062 C   0  0  0  0  0  0  0  0  0  0  0  0
   -4.5090   -1.6801   -0.2875 N   0  0  0  0  0  0  0  0  0  0  0  0
   -5.7918   -1.6752   -0.6909 C   0  0  0  0  0  0  0  0  0  0  0  0
   -6.4822   -0.4887   -0.7098 C   0  0  0  0  0  0  0  0  0  0  0  0
   -7.8959   -0.3995   -1.1427 C   0  0  0  0  0  0  0  0  0  0  0  0
   -5.8005    0.6635   -0.3024 C   0  0  0  0  0  0  0  0  0  0  0  0
   -6.4634   -2.9536   -1.1176 C   0  0  0  0  0  0  0  0  0  0  0  0
   -5.5111   -3.9758   -1.0008 F   0  0  0  0  0  0  0  0  0  0  0  0
   -6.8682   -2.9227   -2.4171 F   0  0  0  0  0  0  0  0  0  0  0  0
   -7.4743   -3.3161   -0.2461 F   0  0  0  0  0  0  0  0  0  0  0  0
    1.9311   -0.7667    0.0151 C   0  0  0  0  0  0  0  0  0  0  0  0
    2.9543   -1.1969    0.8002 C   0  0  0  0  0  0  0  0  0  0  0  0
    2.8901   -1.0457    2.0477 O   0  0  0  0  0  0  0  0  0  0  0  0
    7.2372   -0.8847    0.6593 N   0  0  0  0  0  0  0  0  0  0  0  0
    8.9572    1.5610    0.0287 H   0  0  0  0  0  0  0  0  0  0  0  0
    9.9068    0.1380    0.5772 H   0  0  0  0  0  0  0  0  0  0  0  0
    9.4428    1.4473    1.7515 H   0  0  0  0  0  0  0  0  0  0  0  0
    5.5610   -3.1497    0.6992 H   0  0  0  0  0  0  0  0  0  0  0  0
    4.6649   -2.5080    2.0823 H   0  0  0  0  0  0  0  0  0  0  0  0
    3.5291   -2.8512   -3.5639 H   0  0  0  0  0  0  0  0  0  0  0  0
    4.1051   -1.1662   -3.7709 H   0  0  0  0  0  0  0  0  0  0  0  0
    2.3561   -1.4900   -3.8305 H   0  0  0  0  0  0  0  0  0  0  0  0
   -0.8049    0.4515   -1.1050 H   0  0  0  0  0  0  0  0  0  0  0  0
   -0.9060    0.0379    1.5843 H   0  0  0  0  0  0  0  0  0  0  0  0
    0.6117   -0.3273    2.3879 H   0  0  0  0  0  0  0  0  0  0  0  0
   -0.0051    3.7104    2.0828 H   0  0  0  0  0  0  0  0  0  0  0  0
   -1.8325    4.9574    1.6447 H   0  0  0  0  0  0  0  0  0  0  0  0
   -4.1972    5.2379    0.9230 H   0  0  0  0  0  0  0  0  0  0  0  0
   -5.4360    3.2154    0.2086 H   0  0  0  0  0  0  0  0  0  0  0  0
   -2.8360   -0.6369    0.4141 H   0  0  0  0  0  0  0  0  0  0  0  0
   -7.8835   -0.4795   -2.2648 H   0  0  0  0  0  0  0  0  0  0  0  0
   -8.2361    0.6495   -0.9541 H   0  0  0  0  0  0  0  0  0  0  0  0
   -8.5628   -1.1414   -0.6834 H   0  0  0  0  0  0  0  0  0  0  0  0
   -6.3648    1.5905   -0.3252 H   0  0  0  0  0  0  0  0  0  0  0  0
  1  2  1  0
  2  3  2  0
  3  4  1  0
  4  5  1  0
  5  6  1  0
  6  7  1  0
  7  8  1  0
  8  9  2  0
  8 10  1  0
 10 11  1  0
 10 12  1  0
 12 13  1  0
 13 14  2  0
 14 15  1  0
 15 16  1  0
 16 17  1  0
 17 18  2  0
 17 19  1  0
 19 20  1  0
 20 21  2  0
 21 22  1  0
 22 23  2  0
 23 24  1  0
 24 25  2  0
 24 26  1  0
 26 27  2  0
 27 28  1  0
 28 29  2  0
 29 30  1  0
 30 31  1  0
 30 32  2  0
 29 33  1  0
 33 34  1  0
 33 35  1  0
 33 36  1  0
 15 37  1  0
 37 38  1  0
 38 39  2  0
  5 40  2  0
 40  2  1  0
 38  7  1  0
 37 12  2  0
 25 20  1  0
 32 26  1  0
  1 41  1  0
  1 42  1  0
  1 43  1  0
  6 44  1  0
  6 45  1  0
 11 46  1  0
 11 47  1  0
 11 48  1  0
 14 49  1  0
 16 50  1  0
 16 51  1  0
 19 52  1  0
 21 53  1  0
 22 54  1  0
 23 55  1  0
 27 56  1  0
 31 57  1  0
 31 58  1  0
 31 59  1  0
 32 60  1  0
M  END
$$$$
[H]c1nc(N2C([H])([H])C3([H])C([H])([H])C3([H])C2([H])[H])nc([H])c1-c1nc(N([H])C(=O)[C@@]([H])(n2c([H])nc3c2c(=O)n(C([H])([H])C#N)c(=O)n3C([H])([H])[H])C([H])([H])[H])c([H])c([H])c1[H]
     RDKit          3D

 62 67  0  0  0  0  0  0  0  0999 V2000
   -3.3763    0.9277    2.2945 C   0  0  0  0  0  0  0  0  0  0  0  0
   -2.8059    0.7506    0.8978 C   0  0  1  0  0  0  0  0  0  0  0  0
   -1.5295    0.0171    1.0423 C   0  0  0  0  0  0  0  0  0  0  0  0
   -0.4867    0.5255    0.5698 O   0  0  0  0  0  0  0  0  0  0  0  0
   -1.4369   -1.2360    1.6925 N   0  0  0  0  0  0  0  0  0  0  0  0
   -0.1924   -1.9442    1.8295 C   0  0  0  0  0  0  0  0  0  0  0  0
   -0.1578   -3.1713    2.4771 C   0  0  0  0  0  0  0  0  0  0  0  0
    1.0047   -3.8827    2.6317 C   0  0  0  0  0  0  0  0  0  0  0  0
    2.1972   -3.3519    2.1182 C   0  0  0  0  0  0  0  0  0  0  0  0
    2.1435   -2.1457    1.4855 C   0  0  0  0  0  0  0  0  0  0  0  0
    0.9598   -1.4636    1.3506 N   0  0  0  0  0  0  0  0  0  0  0  0
    3.3629   -1.5467    0.9304 C   0  0  0  0  0  0  0  0  0  0  0  0
    4.5654   -2.1773    1.0343 C   0  0  0  0  0  0  0  0  0  0  0  0
    5.6580   -1.5587    0.4932 N   0  0  0  0  0  0  0  0  0  0  0  0
    5.6137   -0.3764   -0.1288 C   0  0  0  0  0  0  0  0  0  0  0  0
    4.4221    0.2150   -0.2139 N   0  0  0  0  0  0  0  0  0  0  0  0
    3.2978   -0.3135    0.2853 C   0  0  0  0  0  0  0  0  0  0  0  0
    6.7987    0.2178   -0.6746 N   0  0  0  0  0  0  0  0  0  0  0  0
    6.8098    1.4883   -1.3549 C   0  0  0  0  0  0  0  0  0  0  0  0
    8.2478    1.9687   -1.2880 C   0  0  0  0  0  0  0  0  0  0  0  0
    8.8375    2.0380    0.0707 C   0  0  0  0  0  0  0  0  0  0  0  0
    9.0476    0.8344   -0.7776 C   0  0  0  0  0  0  0  0  0  0  0  0
    8.1101   -0.3484   -0.6254 C   0  0  0  0  0  0  0  0  0  0  0  0
   -3.6840    0.0506    0.0046 N   0  0  0  0  0  0  0  0  0  0  0  0
   -3.6246   -1.1904   -0.5034 C   0  0  0  0  0  0  0  0  0  0  0  0
   -4.6737   -1.4335   -1.3087 N   0  0  0  0  0  0  0  0  0  0  0  0
   -5.4476   -0.3341   -1.3390 C   0  0  0  0  0  0  0  0  0  0  0  0
   -6.5949   -0.0581   -1.9816 N   0  0  0  0  0  0  0  0  0  0  0  0
   -7.1749   -1.0923   -2.8235 C   0  0  0  0  0  0  0  0  0  0  0  0
   -7.1547    1.1336   -1.8296 C   0  0  0  0  0  0  0  0  0  0  0  0
   -8.2254    1.3845   -2.4323 O   0  0  0  0  0  0  0  0  0  0  0  0
   -6.5878    2.0710   -1.0391 N   0  0  0  0  0  0  0  0  0  0  0  0
   -7.2064    3.3680   -0.8799 C   0  0  0  0  0  0  0  0  0  0  0  0
   -8.1225    3.2556    0.2728 C   0  0  0  0  0  0  0  0  0  0  0  0
   -8.8357    3.1493    1.1815 N   0  0  0  0  0  0  0  0  0  0  0  0
   -5.4451    1.8141   -0.3911 C   0  0  0  0  0  0  0  0  0  0  0  0
   -4.9602    2.7030    0.3232 O   0  0  0  0  0  0  0  0  0  0  0  0
   -4.8171    0.5852   -0.5139 C   0  0  0  0  0  0  0  0  0  0  0  0
   -3.2749    1.9800    2.6313 H   0  0  0  0  0  0  0  0  0  0  0  0
   -4.4486    0.5810    2.3368 H   0  0  0  0  0  0  0  0  0  0  0  0
   -2.8428    0.3127    3.0484 H   0  0  0  0  0  0  0  0  0  0  0  0
   -2.5676    1.7842    0.4995 H   0  0  0  0  0  0  0  0  0  0  0  0
   -2.2858   -1.6642    2.0848 H   0  0  0  0  0  0  0  0  0  0  0  0
   -1.0870   -3.5515    2.8594 H   0  0  0  0  0  0  0  0  0  0  0  0
    1.0610   -4.8409    3.1316 H   0  0  0  0  0  0  0  0  0  0  0  0
    3.1082   -3.9034    2.2361 H   0  0  0  0  0  0  0  0  0  0  0  0
    4.6929   -3.1305    1.5180 H   0  0  0  0  0  0  0  0  0  0  0  0
    2.3395    0.1399    0.2287 H   0  0  0  0  0  0  0  0  0  0  0  0
    6.1462    2.2147   -0.8262 H   0  0  0  0  0  0  0  0  0  0  0  0
    6.4763    1.3383   -2.4041 H   0  0  0  0  0  0  0  0  0  0  0  0
    8.6221    2.6406   -2.0861 H   0  0  0  0  0  0  0  0  0  0  0  0
    8.1786    1.8636    0.9623 H   0  0  0  0  0  0  0  0  0  0  0  0
    9.7000    2.6999    0.2030 H   0  0  0  0  0  0  0  0  0  0  0  0
   10.0659    0.6173   -1.1162 H   0  0  0  0  0  0  0  0  0  0  0  0
    8.2269   -0.9934   -1.5331 H   0  0  0  0  0  0  0  0  0  0  0  0
    8.3422   -0.8860    0.3119 H   0  0  0  0  0  0  0  0  0  0  0  0
   -2.8590   -1.9280   -0.3208 H   0  0  0  0  0  0  0  0  0  0  0  0
   -8.2905   -1.1176   -2.7180 H   0  0  0  0  0  0  0  0  0  0  0  0
   -6.9053   -0.8183   -3.8772 H   0  0  0  0  0  0  0  0  0  0  0  0
   -6.7274   -2.0609   -2.6069 H   0  0  0  0  0  0  0  0  0  0  0  0
   -7.7456    3.6959   -1.7951 H   0  0  0  0  0  0  0  0  0  0  0  0
   -6.4623    4.1532   -0.6073 H   0  0  0  0  0  0  0  0  0  0  0  0
  1  2  1  0
  2  3  1  0
  3  4  2  0
  3  5  1  0
  5  6  1  0
  6  7  2  0
  7  8  1  0
  8  9  2  0
  9 10  1  0
 10 11  2  0
 10 12  1  0
 12 13  2  0
 13 14  1  0
 14 15  2  0
 15 16  1  0
 16 17  2  0
 15 18  1  0
 18 19  1  0
 19 20  1  0
 20 21  1  0
 21 22  1  0
 22 23  1  0
  2 24  1  0
 24 25  1  0
 25 26  2  0
 26 27  1  0
 27 28  1  0
 28 29  1  0
 28 30  1  0
 30 31  2  0
 30 32  1  0
 32 33  1  0
 33 34  1  0
 34 35  3  0
 32 36  1  0
 36 37  2  0
 36 38  1  0
 11  6  1  0
 17 12  1  0
 23 18  1  0
 38 24  1  0
 22 20  1  0
 38 27  2  0
  1 39  1  0
  1 40  1  0
  1 41  1  0
  2 42  1  6
  5 43  1  0
  7 44  1  0
  8 45  1  0
  9 46  1  0
 13 47  1  0
 17 48  1  0
 19 49  1  0
 19 50  1  0
 20 51  1  0
 21 52  1  0
 21 53  1  0
 22 54  1  0
 23 55  1  0
 23 56  1  0
 25 57  1  0
 29 58  1  0
 29 59  1  0
 29 60  1  0
 33 61  1  0
 33 62  1  0
M  END
$$$$
[H]c1nc2c(c(=O)n(C([H])([H])c3nc(C([H])([H])[H])no3)c(=O)n2C([H])([H])[H])n1C([H])([H])C(=O)N([H])[H]
     RDKit          3D

 36 38  0  0  0  0  0  0  0  0999 V2000
    5.0836   -1.8906    1.6847 C   0  0  0  0  0  0  0  0  0  0  0  0
    4.3880   -0.8437    0.8841 C   0  0  0  0  0  0  0  0  0  0  0  0
    4.7414   -0.3364   -0.3096 N   0  0  0  0  0  0  0  0  0  0  0  0
    3.8702    0.5576   -0.6696 O   0  0  0  0  0  0  0  0  0  0  0  0
    2.9344    0.6806    0.2332 C   0  0  0  0  0  0  0  0  0  0  0  0
    1.7869    1.5833    0.1821 C   0  0  0  0  0  0  0  0  0  0  0  0
    0.6241    1.0345   -0.4341 N   0  0  0  0  0  0  0  0  0  0  0  0
    0.3817    1.1414   -1.7466 C   0  0  0  0  0  0  0  0  0  0  0  0
    1.2418    1.7614   -2.4362 O   0  0  0  0  0  0  0  0  0  0  0  0
   -0.7357    0.6100   -2.3166 N   0  0  0  0  0  0  0  0  0  0  0  0
   -0.9658    0.7453   -3.7435 C   0  0  0  0  0  0  0  0  0  0  0  0
   -1.6348   -0.0415   -1.5779 C   0  0  0  0  0  0  0  0  0  0  0  0
   -2.7930   -0.6478   -1.8715 N   0  0  0  0  0  0  0  0  0  0  0  0
   -3.2975   -1.1456   -0.7489 C   0  0  0  0  0  0  0  0  0  0  0  0
   -2.4766   -0.8693    0.2802 N   0  0  0  0  0  0  0  0  0  0  0  0
   -2.6696   -1.2358    1.6489 C   0  0  0  0  0  0  0  0  0  0  0  0
   -3.4148   -0.1806    2.3639 C   0  0  0  0  0  0  0  0  0  0  0  0
   -3.8248    0.9836    1.6768 N   0  0  0  0  0  0  0  0  0  0  0  0
   -3.6739   -0.3338    3.5750 O   0  0  0  0  0  0  0  0  0  0  0  0
   -1.4290   -0.1802   -0.2071 C   0  0  0  0  0  0  0  0  0  0  0  0
   -0.2847    0.3751    0.3177 C   0  0  0  0  0  0  0  0  0  0  0  0
   -0.0742    0.2645    1.5528 O   0  0  0  0  0  0  0  0  0  0  0  0
    3.2381   -0.1847    1.2113 N   0  0  0  0  0  0  0  0  0  0  0  0
    5.0805   -1.5379    2.7560 H   0  0  0  0  0  0  0  0  0  0  0  0
    4.5768   -2.8538    1.6762 H   0  0  0  0  0  0  0  0  0  0  0  0
    6.1403   -1.9223    1.3531 H   0  0  0  0  0  0  0  0  0  0  0  0
    1.4732    1.9391    1.2076 H   0  0  0  0  0  0  0  0  0  0  0  0
    2.0218    2.5431   -0.3635 H   0  0  0  0  0  0  0  0  0  0  0  0
   -0.0455    1.1323   -4.2570 H   0  0  0  0  0  0  0  0  0  0  0  0
   -1.2944   -0.2272   -4.1300 H   0  0  0  0  0  0  0  0  0  0  0  0
   -1.7542    1.5167   -3.8959 H   0  0  0  0  0  0  0  0  0  0  0  0
   -4.2302   -1.6948   -0.6592 H   0  0  0  0  0  0  0  0  0  0  0  0
   -1.7348   -1.4259    2.2117 H   0  0  0  0  0  0  0  0  0  0  0  0
   -3.3362   -2.1460    1.6588 H   0  0  0  0  0  0  0  0  0  0  0  0
   -4.4844    0.9333    0.8852 H   0  0  0  0  0  0  0  0  0  0  0  0
   -3.4288    1.8962    2.0079 H   0  0  0  0  0  0  0  0  0  0  0  0
  1  2  1  0
  2  3  2  0
  3  4  1  0
  4  5  1  0
  5  6  1  0
  6  7  1  0
  7  8  1  0
  8  9  2  0
  8 10  1  0
 10 11  1  0
 10 12  1  0
 12 13  1  0
 13 14  2  0
 14 15  1  0
 15 16  1  0
 16 17  1  0
 17 18  1  0
 17 19  2  0
 15 20  1  0
 20 21  1  0
 21 22  2  0
  5 23  2  0
 23  2  1  0
 21  7  1  0
 20 12  2  0
  1 24  1  0
  1 25  1  0
  1 26  1  0
  6 27  1  0
  6 28  1  0
 11 29  1  0
 11 30  1  0
 11 31  1  0
 14 32  1  0
 16 33  1  0
 16 34  1  0
 18 35  1  0
 18 36  1  0
M  END
$$$$
[H]c1nc(C(F)(F)F)c(C([H])([H])[H])c([H])c1-c1nc(N([H])C(=O)C([H])([H])n2c([H])nc3c2c(=O)n(C([H])([H])c2noc(C([H])([H])[H])c2[H])c(=O)n3C([H])([H])[H])c([H])s1
     RDKit          3D

 58 62  0  0  0  0  0  0  0  0999 V2000
   -8.3975    2.6811    1.6733 C   0  0  0  0  0  0  0  0  0  0  0  0
   -6.9500    2.2745    1.7166 C   0  0  0  0  0  0  0  0  0  0  0  0
   -6.4541    0.9821    1.7628 C   0  0  0  0  0  0  0  0  0  0  0  0
   -5.0778    1.0485    1.7917 C   0  0  0  0  0  0  0  0  0  0  0  0
   -4.1337   -0.0948    1.8439 C   0  0  0  0  0  0  0  0  0  0  0  0
   -3.8031   -0.4950    0.4887 N   0  0  0  0  0  0  0  0  0  0  0  0
   -4.5169   -1.4196   -0.1863 C   0  0  0  0  0  0  0  0  0  0  0  0
   -5.5106   -1.9403    0.4173 O   0  0  0  0  0  0  0  0  0  0  0  0
   -4.2091   -1.7897   -1.4431 N   0  0  0  0  0  0  0  0  0  0  0  0
   -4.9931   -2.7886   -2.1510 C   0  0  0  0  0  0  0  0  0  0  0  0
   -3.1659   -1.2564   -2.1036 C   0  0  0  0  0  0  0  0  0  0  0  0
   -2.6607   -1.4581   -3.3493 N   0  0  0  0  0  0  0  0  0  0  0  0
   -1.5896   -0.6404   -3.4833 C   0  0  0  0  0  0  0  0  0  0  0  0
   -1.4521    0.0444   -2.3335 N   0  0  0  0  0  0  0  0  0  0  0  0
   -0.4192    1.0200   -2.0880 C   0  0  0  0  0  0  0  0  0  0  0  0
    0.7955    0.4465   -1.5065 C   0  0  0  0  0  0  0  0  0  0  0  0
    1.7552    1.2128   -1.2544 O   0  0  0  0  0  0  0  0  0  0  0  0
    0.9594   -0.9304   -1.2070 N   0  0  0  0  0  0  0  0  0  0  0  0
    2.1809   -1.4579   -0.6307 C   0  0  0  0  0  0  0  0  0  0  0  0
    2.3018   -2.8001   -0.3543 C   0  0  0  0  0  0  0  0  0  0  0  0
    3.8830   -2.8762    0.2885 S   0  0  0  0  0  0  0  0  0  0  0  0
    4.2915   -1.2225    0.1699 C   0  0  0  0  0  0  0  0  0  0  0  0
    3.1956   -0.7011   -0.3553 N   0  0  0  0  0  0  0  0  0  0  0  0
    5.5447   -0.5934    0.5621 C   0  0  0  0  0  0  0  0  0  0  0  0
    6.5531   -1.3572    1.0937 C   0  0  0  0  0  0  0  0  0  0  0  0
    7.7250   -0.7667    1.4601 N   0  0  0  0  0  0  0  0  0  0  0  0
    7.9493    0.5509    1.3254 C   0  0  0  0  0  0  0  0  0  0  0  0
    6.9696    1.3484    0.7995 C   0  0  0  0  0  0  0  0  0  0  0  0
    7.1555    2.8302    0.6233 C   0  0  0  0  0  0  0  0  0  0  0  0
    5.7634    0.7495    0.4209 C   0  0  0  0  0  0  0  0  0  0  0  0
    9.2546    1.1608    1.7407 C   0  0  0  0  0  0  0  0  0  0  0  0
    9.0657    2.1187    2.7149 F   0  0  0  0  0  0  0  0  0  0  0  0
    9.9060    1.6282    0.6384 F   0  0  0  0  0  0  0  0  0  0  0  0
   10.0474    0.1832    2.3246 F   0  0  0  0  0  0  0  0  0  0  0  0
   -2.4047   -0.3039   -1.4515 C   0  0  0  0  0  0  0  0  0  0  0  0
   -2.7526    0.0466   -0.1672 C   0  0  0  0  0  0  0  0  0  0  0  0
   -2.0677    0.9081    0.4288 O   0  0  0  0  0  0  0  0  0  0  0  0
   -4.7974    2.3625    1.7622 N   0  0  0  0  0  0  0  0  0  0  0  0
   -5.8963    3.0540    1.7188 O   0  0  0  0  0  0  0  0  0  0  0  0
   -8.8431    2.4866    0.6759 H   0  0  0  0  0  0  0  0  0  0  0  0
   -8.5140    3.7214    1.9731 H   0  0  0  0  0  0  0  0  0  0  0  0
   -8.9137    1.9759    2.3789 H   0  0  0  0  0  0  0  0  0  0  0  0
   -7.0735    0.0953    1.7732 H   0  0  0  0  0  0  0  0  0  0  0  0
   -4.6159   -0.9645    2.3225 H   0  0  0  0  0  0  0  0  0  0  0  0
   -3.1812    0.1905    2.3325 H   0  0  0  0  0  0  0  0  0  0  0  0
   -5.7182   -3.2924   -1.4917 H   0  0  0  0  0  0  0  0  0  0  0  0
   -4.3508   -3.4842   -2.7237 H   0  0  0  0  0  0  0  0  0  0  0  0
   -5.5694   -2.2140   -2.9307 H   0  0  0  0  0  0  0  0  0  0  0  0
   -1.0065   -0.6073   -4.3858 H   0  0  0  0  0  0  0  0  0  0  0  0
   -0.1062    1.5158   -3.0539 H   0  0  0  0  0  0  0  0  0  0  0  0
   -0.8368    1.8535   -1.4807 H   0  0  0  0  0  0  0  0  0  0  0  0
    0.1590   -1.5532   -1.4199 H   0  0  0  0  0  0  0  0  0  0  0  0
    1.5510   -3.5930   -0.5186 H   0  0  0  0  0  0  0  0  0  0  0  0
    6.4789   -2.4255    1.2458 H   0  0  0  0  0  0  0  0  0  0  0  0
    8.0024    3.0426   -0.0587 H   0  0  0  0  0  0  0  0  0  0  0  0
    7.2280    3.3464    1.5938 H   0  0  0  0  0  0  0  0  0  0  0  0
    6.2529    3.2048    0.0565 H   0  0  0  0  0  0  0  0  0  0  0  0
    5.0125    1.4059    0.0104 H   0  0  0  0  0  0  0  0  0  0  0  0
  1  2  1  0
  2  3  2  0
  3  4  1  0
  4  5  1  0
  5  6  1  0
  6  7  1  0
  7  8  2  0
  7  9  1  0
  9 10  1  0
  9 11  1  0
 11 12  1  0
 12 13  2  0
 13 14  1  0
 14 15  1  0
 15 16  1  0
 16 17  2  0
 16 18  1  0
 18 19  1  0
 19 20  2  0
 20 21  1  0
 21 22  1  0
 22 23  2  0
 22 24  1  0
 24 25  2  0
 25 26  1  0
 26 27  2  0
 27 28  1  0
 28 29  1  0
 28 30  2  0
 27 31  1  0
 31 32  1  0
 31 33  1  0
 31 34  1  0
 14 35  1  0
 35 36  1  0
 36 37  2  0
  4 38  2  0
 38 39  1  0
 39  2  1  0
 36  6  1  0
 35 11  2  0
 23 19  1  0
 30 24  1  0
  1 40  1  0
  1 41  1  0
  1 42  1  0
  3 43  1  0
  5 44  1  0
  5 45  1  0
 10 46  1  0
 10 47  1  0
 10 48  1  0
 13 49  1  0
 15 50  1  0
 15 51  1  0
 18 52  1  0
 20 53  1  0
 25 54  1  0
 29 55  1  0
 29 56  1  0
 29 57  1  0
 30 58  1  0
M  END
$$$$
[H]/C(=C(\c1c([H])c([H])c(Cl)c([H])c1[H])C([H])([H])[H])c1nc(C([H])([H])n2c([H])nc3nc([H])c([H])c([H])c3c2=O)no1
     RDKit          3D

 41 44  0  0  0  0  0  0  0  0999 V2000
   -1.6277   -0.2599   -0.9586 C   0  0  0  0  0  0  0  0  0  0  0  0
   -2.7631    0.2491   -0.1018 C   0  0  0  0  0  0  0  0  0  0  0  0
   -2.4832    0.6484    1.1029 C   0  0  0  0  0  0  0  0  0  0  0  0
   -1.1557    0.6368    1.6855 C   0  0  0  0  0  0  0  0  0  0  0  0
   -0.1595   -0.2305    1.7232 N   0  0  0  0  0  0  0  0  0  0  0  0
    0.8698    0.2736    2.4134 C   0  0  0  0  0  0  0  0  0  0  0  0
    2.1696   -0.3207    2.7159 C   0  0  0  0  0  0  0  0  0  0  0  0
    3.1930   -0.0631    1.7226 N   0  0  0  0  0  0  0  0  0  0  0  0
    4.0023    1.0113    1.7858 C   0  0  0  0  0  0  0  0  0  0  0  0
    4.9563    1.2417    0.8510 N   0  0  0  0  0  0  0  0  0  0  0  0
    5.1462    0.4173   -0.1837 C   0  0  0  0  0  0  0  0  0  0  0  0
    6.0870    0.6245   -1.1281 N   0  0  0  0  0  0  0  0  0  0  0  0
    6.2918   -0.1910   -2.1746 C   0  0  0  0  0  0  0  0  0  0  0  0
    5.4928   -1.3142   -2.2984 C   0  0  0  0  0  0  0  0  0  0  0  0
    4.5114   -1.5646   -1.3467 C   0  0  0  0  0  0  0  0  0  0  0  0
    4.3407   -0.6920   -0.2861 C   0  0  0  0  0  0  0  0  0  0  0  0
    3.3749   -0.9002    0.6853 C   0  0  0  0  0  0  0  0  0  0  0  0
    2.6495   -1.9031    0.5900 O   0  0  0  0  0  0  0  0  0  0  0  0
    0.4587    1.4899    2.7968 N   0  0  0  0  0  0  0  0  0  0  0  0
   -0.7365    1.7115    2.3708 O   0  0  0  0  0  0  0  0  0  0  0  0
   -4.1259    0.2652   -0.6925 C   0  0  0  0  0  0  0  0  0  0  0  0
   -4.3513   -0.2543   -1.9632 C   0  0  0  0  0  0  0  0  0  0  0  0
   -5.6253   -0.2071   -2.4841 C   0  0  0  0  0  0  0  0  0  0  0  0
   -6.6428    0.3467   -1.7461 C   0  0  0  0  0  0  0  0  0  0  0  0
   -8.2664    0.3869   -2.4510 Cl  0  0  0  0  0  0  0  0  0  0  0  0
   -6.4465    0.8669   -0.4878 C   0  0  0  0  0  0  0  0  0  0  0  0
   -5.1452    0.8132    0.0307 C   0  0  0  0  0  0  0  0  0  0  0  0
   -1.8362    0.0571   -2.0194 H   0  0  0  0  0  0  0  0  0  0  0  0
   -1.6749   -1.3624   -0.9524 H   0  0  0  0  0  0  0  0  0  0  0  0
   -0.6486    0.0855   -0.6384 H   0  0  0  0  0  0  0  0  0  0  0  0
   -3.3273    1.0192    1.7257 H   0  0  0  0  0  0  0  0  0  0  0  0
    2.5960    0.0137    3.6865 H   0  0  0  0  0  0  0  0  0  0  0  0
    2.0713   -1.4216    2.8029 H   0  0  0  0  0  0  0  0  0  0  0  0
    3.9164    1.7247    2.5849 H   0  0  0  0  0  0  0  0  0  0  0  0
    7.0597    0.0090   -2.9170 H   0  0  0  0  0  0  0  0  0  0  0  0
    5.6345   -2.0030   -3.1438 H   0  0  0  0  0  0  0  0  0  0  0  0
    3.8635   -2.4381   -1.4122 H   0  0  0  0  0  0  0  0  0  0  0  0
   -3.5567   -0.6849   -2.5127 H   0  0  0  0  0  0  0  0  0  0  0  0
   -5.8269   -0.6126   -3.4888 H   0  0  0  0  0  0  0  0  0  0  0  0
   -7.2396    1.2997    0.0889 H   0  0  0  0  0  0  0  0  0  0  0  0
   -5.0463    1.2312    1.0066 H   0  0  0  0  0  0  0  0  0  0  0  0
  1  2  1  0
  2  3  2  0
  3  4  1  0
  4  5  2  0
  5  6  1  0
  6  7  1  0
  7  8  1  0
  8  9  1  0
  9 10  2  0
 10 11  1  0
 11 12  2  0
 12 13  1  0
 13 14  2  0
 14 15  1  0
 15 16  2  0
 16 17  1  0
 17 18  2  0
  6 19  2  0
 19 20  1  0
  2 21  1  0
 21 22  2  0
 22 23  1  0
 23 24  2  0
 24 25  1  0
 24 26  1  0
 26 27  2  0
 20  4  1  0
 27 21  1  0
 17  8  1  0
 16 11  1  0
  1 28  1  0
  1 29  1  0
  1 30  1  0
  3 31  1  0
  7 32  1  0
  7 33  1  0
  9 34  1  0
 13 35  1  0
 14 36  1  0
 15 37  1  0
 22 38  1  0
 23 39  1  0
 26 40  1  0
 27 41  1  0
M  END
$$$$
[H]C#Cc1c([H])c([H])c([H])c(-c2nc3c([H])c([H])c(C(F)(F)F)c([H])n3c2N([H])C([H])(C([H])([H])[H])C([H])([H])[H])c1[H]
     RDKit          3D

 41 43  0  0  0  0  0  0  0  0999 V2000
   -0.7798    3.0874    2.1341 C   0  0  0  0  0  0  0  0  0  0  0  0
   -0.1986    2.3101    0.8919 C   0  0  0  0  0  0  0  0  0  0  0  0
   -0.7391    3.2455   -0.2424 C   0  0  0  0  0  0  0  0  0  0  0  0
   -0.8743    1.0822    0.6891 N   0  0  0  0  0  0  0  0  0  0  0  0
   -0.5579   -0.0822    0.0015 C   0  0  0  0  0  0  0  0  0  0  0  0
    0.5486   -0.5126   -0.6156 C   0  0  0  0  0  0  0  0  0  0  0  0
    0.2733   -1.7674   -1.1653 N   0  0  0  0  0  0  0  0  0  0  0  0
   -0.9804   -2.0862   -0.8808 C   0  0  0  0  0  0  0  0  0  0  0  0
   -1.7240   -3.2141   -1.1969 C   0  0  0  0  0  0  0  0  0  0  0  0
   -3.0307   -3.3369   -0.7916 C   0  0  0  0  0  0  0  0  0  0  0  0
   -3.5580   -2.2882   -0.0576 C   0  0  0  0  0  0  0  0  0  0  0  0
   -2.7868   -1.1977    0.2292 C   0  0  0  0  0  0  0  0  0  0  0  0
   -1.5015   -1.0882   -0.1784 N   0  0  0  0  0  0  0  0  0  0  0  0
   -4.9743   -2.3416    0.3929 C   0  0  0  0  0  0  0  0  0  0  0  0
   -5.7834   -1.9940   -0.6872 F   0  0  0  0  0  0  0  0  0  0  0  0
   -5.1094   -1.4425    1.4153 F   0  0  0  0  0  0  0  0  0  0  0  0
   -5.2755   -3.5872    0.8986 F   0  0  0  0  0  0  0  0  0  0  0  0
    1.8810    0.0335   -0.7423 C   0  0  0  0  0  0  0  0  0  0  0  0
    2.2665    1.1959   -1.3058 C   0  0  0  0  0  0  0  0  0  0  0  0
    3.5870    1.6009   -1.3652 C   0  0  0  0  0  0  0  0  0  0  0  0
    4.5434    0.7749   -0.8223 C   0  0  0  0  0  0  0  0  0  0  0  0
    4.2391   -0.4257   -0.2267 C   0  0  0  0  0  0  0  0  0  0  0  0
    2.9146   -0.7610   -0.2041 C   0  0  0  0  0  0  0  0  0  0  0  0
    5.2705   -1.2871    0.3336 C   0  0  0  0  0  0  0  0  0  0  0  0
    6.1284   -2.0077    0.7717 C   0  0  0  0  0  0  0  0  0  0  0  0
   -1.8510    3.1572    1.9210 H   0  0  0  0  0  0  0  0  0  0  0  0
   -0.5038    2.6016    3.0665 H   0  0  0  0  0  0  0  0  0  0  0  0
   -0.3480    4.0994    2.0011 H   0  0  0  0  0  0  0  0  0  0  0  0
    0.8518    2.3542    1.0153 H   0  0  0  0  0  0  0  0  0  0  0  0
   -0.0147    4.0668   -0.3175 H   0  0  0  0  0  0  0  0  0  0  0  0
   -1.7836    3.5529   -0.0097 H   0  0  0  0  0  0  0  0  0  0  0  0
   -0.6646    2.6429   -1.1597 H   0  0  0  0  0  0  0  0  0  0  0  0
   -1.8432    1.1127    1.1982 H   0  0  0  0  0  0  0  0  0  0  0  0
   -1.2572   -4.0145   -1.7638 H   0  0  0  0  0  0  0  0  0  0  0  0
   -3.6378   -4.1976   -1.0400 H   0  0  0  0  0  0  0  0  0  0  0  0
   -3.2207   -0.4030    0.7983 H   0  0  0  0  0  0  0  0  0  0  0  0
    1.5132    1.8379   -1.7440 H   0  0  0  0  0  0  0  0  0  0  0  0
    3.8492    2.5683   -1.8203 H   0  0  0  0  0  0  0  0  0  0  0  0
    5.5940    1.0706   -0.8612 H   0  0  0  0  0  0  0  0  0  0  0  0
    2.6596   -1.6999    0.2698 H   0  0  0  0  0  0  0  0  0  0  0  0
    6.8782   -2.6598    1.1703 H   0  0  0  0  0  0  0  0  0  0  0  0
  1  2  1  0
  2  3  1  0
  2  4  1  0
  4  5  1  0
  5  6  2  0
  6  7  1  0
  7  8  2  0
  8  9  1  0
  9 10  2  0
 10 11  1  0
 11 12  2  0
 12 13  1  0
 11 14  1  0
 14 15  1  0
 14 16  1  0
 14 17  1  0
  6 18  1  0
 18 19  2  0
 19 20  1  0
 20 21  2  0
 21 22  1  0
 22 23  2  0
 22 24  1  0
 24 25  3  0
 13  5  1  0
 23 18  1  0
 13  8  1  0
  1 26  1  0
  1 27  1  0
  1 28  1  0
  2 29  1  0
  3 30  1  0
  3 31  1  0
  3 32  1  0
  4 33  1  0
  9 34  1  0
 10 35  1  0
 12 36  1  0
 19 37  1  0
 20 38  1  0
 21 39  1  0
 23 40  1  0
 25 41  1  0
M  END
$$$$
[H]c1nc(-c2c([H])nc(C(F)(F)F)nc2[H])c([H])c(C([H])([H])N([H])C(=O)[C@@]2([H])N(S(=O)(=O)c3c([H])c([H])c(F)c([H])c3[H])[C@@]([H])(C([H])([H])[H])[C@]([H])(F)C2([H])[H])c1F
     RDKit          3D

 57 60  0  0  0  0  0  0  0  0999 V2000
   -2.3235    2.3275    1.7990 C   0  0  0  0  0  0  0  0  0  0  0  0
   -3.3562    1.5710    0.9550 C   0  0  1  0  0  0  0  0  0  0  0  0
   -3.2357    2.1922   -0.4368 C   0  0  2  0  0  0  0  0  0  0  0  0
   -4.4122    2.0177   -1.1323 F   0  0  0  0  0  0  0  0  0  0  0  0
   -2.0986    1.3496   -1.0209 C   0  0  0  0  0  0  0  0  0  0  0  0
   -2.2097   -0.0063   -0.3899 C   0  0  2  0  0  0  0  0  0  0  0  0
   -2.9773    0.2436    0.8236 N   0  0  0  0  0  0  0  0  0  0  0  0
   -3.9043   -1.0021    1.4291 S   0  0  0  0  0  0  0  0  0  0  0  0
   -4.0367   -0.7591    2.9411 O   0  0  0  0  0  0  0  0  0  0  0  0
   -3.1565   -2.2905    1.3140 O   0  0  0  0  0  0  0  0  0  0  0  0
   -5.4665   -1.1447    0.7471 C   0  0  0  0  0  0  0  0  0  0  0  0
   -5.6324   -1.4793   -0.5766 C   0  0  0  0  0  0  0  0  0  0  0  0
   -6.9066   -1.6516   -1.1051 C   0  0  0  0  0  0  0  0  0  0  0  0
   -8.0431   -1.4723   -0.3059 C   0  0  0  0  0  0  0  0  0  0  0  0
   -9.2804   -1.6597   -0.7896 F   0  0  0  0  0  0  0  0  0  0  0  0
   -7.8990   -1.1255    1.0256 C   0  0  0  0  0  0  0  0  0  0  0  0
   -6.6125   -0.9704    1.5190 C   0  0  0  0  0  0  0  0  0  0  0  0
   -0.9381   -0.5868    0.0702 C   0  0  0  0  0  0  0  0  0  0  0  0
   -0.7406   -0.5227    1.3458 O   0  0  0  0  0  0  0  0  0  0  0  0
    0.1135   -1.2036   -0.6729 N   0  0  0  0  0  0  0  0  0  0  0  0
    1.2659   -1.6503    0.1268 C   0  0  0  0  0  0  0  0  0  0  0  0
    2.3671   -0.7192    0.2953 C   0  0  0  0  0  0  0  0  0  0  0  0
    3.3373   -0.4572   -0.7367 C   0  0  0  0  0  0  0  0  0  0  0  0
    4.4537    0.2096   -0.5039 C   0  0  0  0  0  0  0  0  0  0  0  0
    4.6627    0.6808    0.8115 N   0  0  0  0  0  0  0  0  0  0  0  0
    3.7963    0.4565    1.7665 C   0  0  0  0  0  0  0  0  0  0  0  0
    2.6238   -0.2462    1.5645 C   0  0  0  0  0  0  0  0  0  0  0  0
    1.8230   -0.4154    2.6547 F   0  0  0  0  0  0  0  0  0  0  0  0
    5.7243    0.3837   -1.2610 C   0  0  0  0  0  0  0  0  0  0  0  0
    6.3416    1.5586   -1.4884 C   0  0  0  0  0  0  0  0  0  0  0  0
    7.7229    1.5734   -1.6228 N   0  0  0  0  0  0  0  0  0  0  0  0
    8.4621    0.4732   -1.5406 C   0  0  0  0  0  0  0  0  0  0  0  0
    7.8438   -0.7153   -1.3304 N   0  0  0  0  0  0  0  0  0  0  0  0
    6.5217   -0.7974   -1.1900 C   0  0  0  0  0  0  0  0  0  0  0  0
    9.9552    0.4050   -1.4639 C   0  0  0  0  0  0  0  0  0  0  0  0
   10.5236   -0.5203   -2.2835 F   0  0  0  0  0  0  0  0  0  0  0  0
   10.3035   -0.0099   -0.1439 F   0  0  0  0  0  0  0  0  0  0  0  0
   10.5264    1.6443   -1.5710 F   0  0  0  0  0  0  0  0  0  0  0  0
   -2.6311    3.3919    1.9087 H   0  0  0  0  0  0  0  0  0  0  0  0
   -1.3534    2.2532    1.2894 H   0  0  0  0  0  0  0  0  0  0  0  0
   -2.2455    1.7791    2.7367 H   0  0  0  0  0  0  0  0  0  0  0  0
   -4.3474    1.7292    1.4071 H   0  0  0  0  0  0  0  0  0  0  0  0
   -2.9022    3.2278   -0.3415 H   0  0  0  0  0  0  0  0  0  0  0  0
   -2.2848    1.3245   -2.1099 H   0  0  0  0  0  0  0  0  0  0  0  0
   -1.1144    1.8241   -0.8372 H   0  0  0  0  0  0  0  0  0  0  0  0
   -2.7146   -0.6633   -1.0805 H   0  0  0  0  0  0  0  0  0  0  0  0
   -4.7916   -1.6254   -1.2546 H   0  0  0  0  0  0  0  0  0  0  0  0
   -7.0058   -1.9247   -2.1225 H   0  0  0  0  0  0  0  0  0  0  0  0
   -8.8024   -1.0106    1.6265 H   0  0  0  0  0  0  0  0  0  0  0  0
   -6.5822   -0.6831    2.5727 H   0  0  0  0  0  0  0  0  0  0  0  0
    0.1040   -1.3527   -1.6773 H   0  0  0  0  0  0  0  0  0  0  0  0
    1.7236   -2.5487   -0.4702 H   0  0  0  0  0  0  0  0  0  0  0  0
    0.9014   -2.1346    1.0237 H   0  0  0  0  0  0  0  0  0  0  0  0
    3.1210   -0.8451   -1.7329 H   0  0  0  0  0  0  0  0  0  0  0  0
    3.9703    0.8015    2.8031 H   0  0  0  0  0  0  0  0  0  0  0  0
    5.8070    2.5070   -1.6168 H   0  0  0  0  0  0  0  0  0  0  0  0
    6.0096   -1.7308   -1.0088 H   0  0  0  0  0  0  0  0  0  0  0  0
  1  2  1  0
  2  3  1  0
  3  4  1  0
  3  5  1  0
  5  6  1  0
  6  7  1  0
  7  8  1  0
  8  9  2  0
  8 10  2  0
  8 11  1  0
 11 12  2  0
 12 13  1  0
 13 14  2  0
 14 15  1  0
 14 16  1  0
 16 17  2  0
  6 18  1  0
 18 19  2  0
 18 20  1  0
 20 21  1  0
 21 22  1  0
 22 23  2  0
 23 24  1  0
 24 25  2  0
 25 26  1  0
 26 27  2  0
 27 28  1  0
 24 29  1  0
 29 30  2  0
 30 31  1  0
 31 32  2  0
 32 33  1  0
 33 34  2  0
 32 35  1  0
 35 36  1  0
 35 37  1  0
 35 38  1  0
  7  2  1  0
 17 11  1  0
 27 22  1  0
 34 29  1  0
  1 39  1  0
  1 40  1  0
  1 41  1  0
  2 42  1  1
  3 43  1  1
  5 44  1  0
  5 45  1  0
  6 46  1  6
 12 47  1  0
 13 48  1  0
 16 49  1  0
 17 50  1  0
 20 51  1  0
 21 52  1  0
 21 53  1  0
 23 54  1  0
 26 55  1  0
 30 56  1  0
 34 57  1  0
M  END
$$$$
[H]c1nc(N2C([H])([H])C3([H])C(F)(F)C3([H])C2([H])[H])nc([H])c1-c1nc(N([H])C(=O)[C@@]([H])(n2c([H])nc3c2c(=O)n(C([H])([H])C(=O)C([H])([H])[H])c(=O)n3C([H])([H])[H])C([H])([H])[H])c([H])s1
     RDKit          3D

 63 68  0  0  0  0  0  0  0  0999 V2000
   -2.7815    0.4702   -2.5240 C   0  0  0  0  0  0  0  0  0  0  0  0
   -2.4520   -0.0555   -1.1142 C   0  0  1  0  0  0  0  0  0  0  0  0
   -1.0234    0.2984   -0.9349 C   0  0  0  0  0  0  0  0  0  0  0  0
   -0.1737   -0.5922   -0.6403 O   0  0  0  0  0  0  0  0  0  0  0  0
   -0.6351    1.6637   -1.1060 N   0  0  0  0  0  0  0  0  0  0  0  0
    0.7399    2.1069   -0.9963 C   0  0  0  0  0  0  0  0  0  0  0  0
    1.0590    3.4467   -1.1146 C   0  0  0  0  0  0  0  0  0  0  0  0
    2.7540    3.4237   -0.9505 S   0  0  0  0  0  0  0  0  0  0  0  0
    2.9648    1.7235   -0.7430 C   0  0  0  0  0  0  0  0  0  0  0  0
    1.7269    1.2869   -0.8119 N   0  0  0  0  0  0  0  0  0  0  0  0
    4.2322    1.0258   -0.5602 C   0  0  0  0  0  0  0  0  0  0  0  0
    5.4021    1.7752   -0.5231 C   0  0  0  0  0  0  0  0  0  0  0  0
    6.5654    1.1370   -0.3788 N   0  0  0  0  0  0  0  0  0  0  0  0
    6.6932   -0.2106   -0.2650 C   0  0  0  0  0  0  0  0  0  0  0  0
    5.5635   -0.9372   -0.2991 N   0  0  0  0  0  0  0  0  0  0  0  0
    4.3617   -0.3225   -0.4444 C   0  0  0  0  0  0  0  0  0  0  0  0
    7.9774   -0.7969   -0.1256 N   0  0  0  0  0  0  0  0  0  0  0  0
    8.2836   -2.1966   -0.1520 C   0  0  0  0  0  0  0  0  0  0  0  0
    9.3361   -2.3329    0.9201 C   0  0  0  0  0  0  0  0  0  0  0  0
    9.9465   -0.9241    1.0725 C   0  0  0  0  0  0  0  0  0  0  0  0
    9.2040   -0.0738    0.0599 C   0  0  0  0  0  0  0  0  0  0  0  0
   10.7482   -2.0847    0.6181 C   0  0  0  0  0  0  0  0  0  0  0  0
   11.1322   -2.1401   -0.7048 F   0  0  0  0  0  0  0  0  0  0  0  0
   11.6804   -2.5437    1.5169 F   0  0  0  0  0  0  0  0  0  0  0  0
   -3.2426    0.6036   -0.0975 N   0  0  0  0  0  0  0  0  0  0  0  0
   -2.9187    1.5175    0.8242 C   0  0  0  0  0  0  0  0  0  0  0  0
   -4.0083    1.8768    1.5500 N   0  0  0  0  0  0  0  0  0  0  0  0
   -5.0708    1.1888    1.1022 C   0  0  0  0  0  0  0  0  0  0  0  0
   -6.3681    1.1943    1.4928 N   0  0  0  0  0  0  0  0  0  0  0  0
   -6.8535    2.0341    2.5647 C   0  0  0  0  0  0  0  0  0  0  0  0
   -7.2072    0.3790    0.8367 C   0  0  0  0  0  0  0  0  0  0  0  0
   -8.4431    0.3265    1.1438 O   0  0  0  0  0  0  0  0  0  0  0  0
   -6.7707   -0.4126   -0.1689 N   0  0  0  0  0  0  0  0  0  0  0  0
   -7.6905   -1.2596   -0.8717 C   0  0  0  0  0  0  0  0  0  0  0  0
   -7.7950   -2.5560   -0.1699 C   0  0  0  0  0  0  0  0  0  0  0  0
   -8.9233   -2.8017    0.7500 C   0  0  0  0  0  0  0  0  0  0  0  0
   -6.9592   -3.4073   -0.3532 O   0  0  0  0  0  0  0  0  0  0  0  0
   -5.4851   -0.4272   -0.5650 C   0  0  0  0  0  0  0  0  0  0  0  0
   -5.0794   -1.1660   -1.4937 O   0  0  0  0  0  0  0  0  0  0  0  0
   -4.5878    0.3925    0.0732 C   0  0  0  0  0  0  0  0  0  0  0  0
   -2.9156   -0.3386   -3.2356 H   0  0  0  0  0  0  0  0  0  0  0  0
   -1.9402    1.0847   -2.8832 H   0  0  0  0  0  0  0  0  0  0  0  0
   -3.6590    1.1423   -2.4140 H   0  0  0  0  0  0  0  0  0  0  0  0
   -2.5955   -1.1613   -1.0897 H   0  0  0  0  0  0  0  0  0  0  0  0
   -1.3763    2.3712   -1.3466 H   0  0  0  0  0  0  0  0  0  0  0  0
    0.3677    4.2979   -1.2732 H   0  0  0  0  0  0  0  0  0  0  0  0
    5.3003    2.8549   -0.6137 H   0  0  0  0  0  0  0  0  0  0  0  0
    3.4715   -0.9331   -0.4689 H   0  0  0  0  0  0  0  0  0  0  0  0
    8.7057   -2.4855   -1.1602 H   0  0  0  0  0  0  0  0  0  0  0  0
    7.3956   -2.8330    0.0699 H   0  0  0  0  0  0  0  0  0  0  0  0
    9.0133   -2.8399    1.8572 H   0  0  0  0  0  0  0  0  0  0  0  0
   10.0397   -0.5207    2.0942 H   0  0  0  0  0  0  0  0  0  0  0  0
    9.0472    0.9601    0.4286 H   0  0  0  0  0  0  0  0  0  0  0  0
    9.7525   -0.0961   -0.9107 H   0  0  0  0  0  0  0  0  0  0  0  0
   -1.9036    1.9190    0.9764 H   0  0  0  0  0  0  0  0  0  0  0  0
   -7.1505    3.0069    2.0769 H   0  0  0  0  0  0  0  0  0  0  0  0
   -7.7096    1.5705    3.1001 H   0  0  0  0  0  0  0  0  0  0  0  0
   -6.0246    2.3085    3.2493 H   0  0  0  0  0  0  0  0  0  0  0  0
   -8.6721   -0.7539   -0.9132 H   0  0  0  0  0  0  0  0  0  0  0  0
   -7.3654   -1.4630   -1.9182 H   0  0  0  0  0  0  0  0  0  0  0  0
   -8.6367   -2.6795    1.8011 H   0  0  0  0  0  0  0  0  0  0  0  0
   -9.8029   -2.1669    0.4984 H   0  0  0  0  0  0  0  0  0  0  0  0
   -9.2436   -3.8747    0.6026 H   0  0  0  0  0  0  0  0  0  0  0  0
  1  2  1  0
  2  3  1  0
  3  4  2  0
  3  5  1  0
  5  6  1  0
  6  7  2  0
  7  8  1  0
  8  9  1  0
  9 10  2  0
  9 11  1  0
 11 12  2  0
 12 13  1  0
 13 14  2  0
 14 15  1  0
 15 16  2  0
 14 17  1  0
 17 18  1  0
 18 19  1  0
 19 20  1  0
 20 21  1  0
 20 22  1  0
 22 23  1  0
 22 24  1  0
  2 25  1  0
 25 26  1  0
 26 27  2  0
 27 28  1  0
 28 29  1  0
 29 30  1  0
 29 31  1  0
 31 32  2  0
 31 33  1  0
 33 34  1  0
 34 35  1  0
 35 36  1  0
 35 37  2  0
 33 38  1  0
 38 39  2  0
 38 40  1  0
 10  6  1  0
 16 11  1  0
 21 17  1  0
 40 25  1  0
 22 19  1  0
 40 28  2  0
  1 41  1  0
  1 42  1  0
  1 43  1  0
  2 44  1  6
  5 45  1  0
  7 46  1  0
 12 47  1  0
 16 48  1  0
 18 49  1  0
 18 50  1  0
 19 51  1  0
 20 52  1  0
 21 53  1  0
 21 54  1  0
 26 55  1  0
 30 56  1  0
 30 57  1  0
 30 58  1  0
 34 59  1  0
 34 60  1  0
 36 61  1  0
 36 62  1  0
 36 63  1  0
M  END
$$$$
[H]c1nc2c(c(=O)n(C([H])([H])C(=O)C([H])([H])C([H])([H])[H])c(=O)n2C([H])([H])[H])n1[C@]([H])(C(=O)N([H])[H])C([H])([H])[H]
     RDKit          3D

 39 40  0  0  0  0  0  0  0  0999 V2000
    4.2312    2.3024   -0.3412 C   0  0  0  0  0  0  0  0  0  0  0  0
    4.3417    0.7964   -0.1881 C   0  0  0  0  0  0  0  0  0  0  0  0
    3.0408    0.1075   -0.3304 C   0  0  0  0  0  0  0  0  0  0  0  0
    2.6149   -0.1012   -1.4517 O   0  0  0  0  0  0  0  0  0  0  0  0
    2.2854   -0.3126    0.8540 C   0  0  0  0  0  0  0  0  0  0  0  0
    1.0481   -0.9730    0.5320 N   0  0  0  0  0  0  0  0  0  0  0  0
    0.9751   -2.3113    0.3629 C   0  0  0  0  0  0  0  0  0  0  0  0
    2.0510   -2.9680    0.5039 O   0  0  0  0  0  0  0  0  0  0  0  0
   -0.1925   -2.9055    0.0594 N   0  0  0  0  0  0  0  0  0  0  0  0
   -0.2483   -4.3482   -0.1184 C   0  0  0  0  0  0  0  0  0  0  0  0
   -1.2878   -2.1303   -0.0718 C   0  0  0  0  0  0  0  0  0  0  0  0
   -2.5429   -2.4783   -0.3654 N   0  0  0  0  0  0  0  0  0  0  0  0
   -3.2730   -1.3661   -0.3844 C   0  0  0  0  0  0  0  0  0  0  0  0
   -2.5263   -0.2813   -0.1085 N   0  0  0  0  0  0  0  0  0  0  0  0
   -2.9560    1.0761   -0.0404 C   0  0  1  0  0  0  0  0  0  0  0  0
   -2.8343    1.7462    1.2842 C   0  0  0  0  0  0  0  0  0  0  0  0
   -2.5217    1.9142   -1.2011 C   0  0  0  0  0  0  0  0  0  0  0  0
   -2.8097    3.2919   -1.1660 N   0  0  0  0  0  0  0  0  0  0  0  0
   -1.9331    1.3724   -2.1384 O   0  0  0  0  0  0  0  0  0  0  0  0
   -1.2758   -0.7618    0.0887 C   0  0  0  0  0  0  0  0  0  0  0  0
   -0.0587   -0.1923    0.3993 C   0  0  0  0  0  0  0  0  0  0  0  0
    0.0313    1.0267    0.5583 O   0  0  0  0  0  0  0  0  0  0  0  0
    3.3753    2.6945    0.2654 H   0  0  0  0  0  0  0  0  0  0  0  0
    5.1613    2.7514    0.1059 H   0  0  0  0  0  0  0  0  0  0  0  0
    4.1793    2.6285   -1.3800 H   0  0  0  0  0  0  0  0  0  0  0  0
    5.0555    0.4462   -0.9760 H   0  0  0  0  0  0  0  0  0  0  0  0
    4.7496    0.5716    0.8286 H   0  0  0  0  0  0  0  0  0  0  0  0
    2.0598    0.5687    1.4855 H   0  0  0  0  0  0  0  0  0  0  0  0
    2.8732   -1.0056    1.5029 H   0  0  0  0  0  0  0  0  0  0  0  0
   -0.1462   -4.8744    0.8648 H   0  0  0  0  0  0  0  0  0  0  0  0
   -1.2284   -4.6431   -0.5439 H   0  0  0  0  0  0  0  0  0  0  0  0
    0.5228   -4.7168   -0.8201 H   0  0  0  0  0  0  0  0  0  0  0  0
   -4.3582   -1.3318   -0.5991 H   0  0  0  0  0  0  0  0  0  0  0  0
   -4.0820    1.0456   -0.2286 H   0  0  0  0  0  0  0  0  0  0  0  0
   -2.4419    1.0198    2.0557 H   0  0  0  0  0  0  0  0  0  0  0  0
   -2.2368    2.6803    1.2510 H   0  0  0  0  0  0  0  0  0  0  0  0
   -3.8198    2.0706    1.7335 H   0  0  0  0  0  0  0  0  0  0  0  0
   -3.7688    3.6149   -0.9760 H   0  0  0  0  0  0  0  0  0  0  0  0
   -2.0539    3.9756   -1.3320 H   0  0  0  0  0  0  0  0  0  0  0  0
  1  2  1  0
  2  3  1  0
  3  4  2  0
  3  5  1  0
  5  6  1  0
  6  7  1  0
  7  8  2  0
  7  9  1  0
  9 10  1  0
  9 11  1  0
 11 12  1  0
 12 13  2  0
 13 14  1  0
 14 15  1  0
 15 16  1  0
 15 17  1  0
 17 18  1  0
 17 19  2  0
 14 20  1  0
 20 21  1  0
 21 22  2  0
 21  6  1  0
 20 11  2  0
  1 23  1  0
  1 24  1  0
  1 25  1  0
  2 26  1  0
  2 27  1  0
  5 28  1  0
  5 29  1  0
 10 30  1  0
 10 31  1  0
 10 32  1  0
 13 33  1  0
 15 34  1  6
 16 35  1  0
 16 36  1  0
 16 37  1  0
 18 38  1  0
 18 39  1  0
M  END
$$$$
[H]c1nc2nc([H])n(C([H])([H])c3nc(C([H])([H])C([H])(F)c4c([H])c([H])c(Cl)c([H])c4[H])no3)c(=O)c2c([H])c1[H]
     RDKit          3D

 40 43  0  0  0  0  0  0  0  0999 V2000
    2.7965    1.3389    2.2930 F   0  0  0  0  0  0  0  0  0  0  0  0
    3.2644    0.1401    1.8361 C   0  0  0  0  0  0  0  0  0  0  0  0
    2.2162   -0.8870    1.5437 C   0  0  0  0  0  0  0  0  0  0  0  0
    1.2159   -0.5324    0.5433 C   0  0  0  0  0  0  0  0  0  0  0  0
    0.9733    0.5281   -0.2068 N   0  0  0  0  0  0  0  0  0  0  0  0
   -0.0653    0.3508   -0.9617 O   0  0  0  0  0  0  0  0  0  0  0  0
   -0.5492   -0.8636   -0.7241 C   0  0  0  0  0  0  0  0  0  0  0  0
   -1.7427   -1.4595   -1.3874 C   0  0  0  0  0  0  0  0  0  0  0  0
   -2.8904   -1.0944   -0.5560 N   0  0  0  0  0  0  0  0  0  0  0  0
   -3.2717   -1.9066    0.4474 C   0  0  0  0  0  0  0  0  0  0  0  0
   -4.3315   -1.5313    1.1854 N   0  0  0  0  0  0  0  0  0  0  0  0
   -5.0053   -0.3895    0.9510 C   0  0  0  0  0  0  0  0  0  0  0  0
   -6.0609   -0.0102    1.6817 N   0  0  0  0  0  0  0  0  0  0  0  0
   -6.7382    1.1443    1.4408 C   0  0  0  0  0  0  0  0  0  0  0  0
   -6.3661    1.9919    0.4187 C   0  0  0  0  0  0  0  0  0  0  0  0
   -5.2815    1.6254   -0.3502 C   0  0  0  0  0  0  0  0  0  0  0  0
   -4.6019    0.4319   -0.0811 C   0  0  0  0  0  0  0  0  0  0  0  0
   -3.5119    0.0525   -0.8453 C   0  0  0  0  0  0  0  0  0  0  0  0
   -3.1662    0.8194   -1.7788 O   0  0  0  0  0  0  0  0  0  0  0  0
    0.2335   -1.4253    0.2069 N   0  0  0  0  0  0  0  0  0  0  0  0
    4.2630    0.3210    0.7580 C   0  0  0  0  0  0  0  0  0  0  0  0
    5.2972   -0.6136    0.6567 C   0  0  0  0  0  0  0  0  0  0  0  0
    6.2779   -0.5123   -0.3044 C   0  0  0  0  0  0  0  0  0  0  0  0
    6.2809    0.5239   -1.2147 C   0  0  0  0  0  0  0  0  0  0  0  0
    7.5388    0.6392   -2.4353 Cl  0  0  0  0  0  0  0  0  0  0  0  0
    5.2688    1.4533   -1.1280 C   0  0  0  0  0  0  0  0  0  0  0  0
    4.2826    1.3445   -0.1550 C   0  0  0  0  0  0  0  0  0  0  0  0
    3.8061   -0.3046    2.7570 H   0  0  0  0  0  0  0  0  0  0  0  0
    1.6874   -1.2298    2.4595 H   0  0  0  0  0  0  0  0  0  0  0  0
    2.7330   -1.8152    1.1585 H   0  0  0  0  0  0  0  0  0  0  0  0
   -1.6678   -2.5481   -1.4448 H   0  0  0  0  0  0  0  0  0  0  0  0
   -1.8508   -0.9890   -2.3913 H   0  0  0  0  0  0  0  0  0  0  0  0
   -2.7332   -2.8334    0.6459 H   0  0  0  0  0  0  0  0  0  0  0  0
   -7.5827    1.3987    2.0637 H   0  0  0  0  0  0  0  0  0  0  0  0
   -6.9019    2.9103    0.2242 H   0  0  0  0  0  0  0  0  0  0  0  0
   -4.9427    2.2430   -1.1607 H   0  0  0  0  0  0  0  0  0  0  0  0
    5.3030   -1.4308    1.3673 H   0  0  0  0  0  0  0  0  0  0  0  0
    7.0685   -1.2437   -0.3670 H   0  0  0  0  0  0  0  0  0  0  0  0
    5.2664    2.2569   -1.8297 H   0  0  0  0  0  0  0  0  0  0  0  0
    3.4887    2.1061   -0.0937 H   0  0  0  0  0  0  0  0  0  0  0  0
  1  2  1  0
  2  3  1  0
  3  4  1  0
  4  5  2  0
  5  6  1  0
  6  7  1  0
  7  8  1  0
  8  9  1  0
  9 10  1  0
 10 11  2  0
 11 12  1  0
 12 13  2  0
 13 14  1  0
 14 15  2  0
 15 16  1  0
 16 17  2  0
 17 18  1  0
 18 19  2  0
  7 20  2  0
  2 21  1  0
 21 22  2  0
 22 23  1  0
 23 24  2  0
 24 25  1  0
 24 26  1  0
 26 27  2  0
 20  4  1  0
 27 21  1  0
 18  9  1  0
 17 12  1  0
  2 28  1  0
  3 29  1  0
  3 30  1  0
  8 31  1  0
  8 32  1  0
 10 33  1  0
 14 34  1  0
 15 35  1  0
 16 36  1  0
 22 37  1  0
 23 38  1  0
 26 39  1  0
 27 40  1  0
M  END
$$$$
[H]c1nc2c(c(=O)n(C([H])([H])C(=O)C([H])([H])OC([H])([H])[H])c(=O)n2C([H])([H])[H])n1[C@]([H])(C(=O)N([H])[H])C([H])([H])[H]
     RDKit          3D

 40 41  0  0  0  0  0  0  0  0999 V2000
    4.2568    3.0429    0.4645 C   0  0  0  0  0  0  0  0  0  0  0  0
    3.5585    1.9398    0.9274 O   0  0  0  0  0  0  0  0  0  0  0  0
    3.9748    0.8190    0.2172 C   0  0  0  0  0  0  0  0  0  0  0  0
    3.2823   -0.4235    0.6236 C   0  0  0  0  0  0  0  0  0  0  0  0
    3.5723   -1.4835    0.1198 O   0  0  0  0  0  0  0  0  0  0  0  0
    2.2236   -0.3734    1.6555 C   0  0  0  0  0  0  0  0  0  0  0  0
    0.9739   -0.9439    1.1591 N   0  0  0  0  0  0  0  0  0  0  0  0
    0.6935   -2.2565    1.2836 C   0  0  0  0  0  0  0  0  0  0  0  0
    1.5330   -3.0177    1.8531 O   0  0  0  0  0  0  0  0  0  0  0  0
   -0.4571   -2.7865    0.8195 N   0  0  0  0  0  0  0  0  0  0  0  0
   -0.7190   -4.2283    0.9737 C   0  0  0  0  0  0  0  0  0  0  0  0
   -1.3533   -1.9872    0.2156 C   0  0  0  0  0  0  0  0  0  0  0  0
   -2.5522   -2.2555   -0.3252 N   0  0  0  0  0  0  0  0  0  0  0  0
   -3.0671   -1.1121   -0.8103 C   0  0  0  0  0  0  0  0  0  0  0  0
   -2.1768   -0.1026   -0.5709 N   0  0  0  0  0  0  0  0  0  0  0  0
   -2.3485    1.2613   -0.9303 C   0  0  1  0  0  0  0  0  0  0  0  0
   -2.1312    1.4017   -2.4232 C   0  0  0  0  0  0  0  0  0  0  0  0
   -3.7402    1.7460   -0.6594 C   0  0  0  0  0  0  0  0  0  0  0  0
   -4.1373    1.7590    0.6915 N   0  0  0  0  0  0  0  0  0  0  0  0
   -4.5165    2.1180   -1.5447 O   0  0  0  0  0  0  0  0  0  0  0  0
   -1.1371   -0.6478    0.0540 C   0  0  0  0  0  0  0  0  0  0  0  0
    0.0670   -0.1595    0.5525 C   0  0  0  0  0  0  0  0  0  0  0  0
    0.3585    1.0674    0.4505 O   0  0  0  0  0  0  0  0  0  0  0  0
    4.0746    3.2206   -0.6319 H   0  0  0  0  0  0  0  0  0  0  0  0
    3.8869    3.9854    0.9629 H   0  0  0  0  0  0  0  0  0  0  0  0
    5.3340    2.9063    0.6094 H   0  0  0  0  0  0  0  0  0  0  0  0
    3.8338    1.0305   -0.8721 H   0  0  0  0  0  0  0  0  0  0  0  0
    5.0596    0.6707    0.4513 H   0  0  0  0  0  0  0  0  0  0  0  0
    2.5235   -0.8580    2.6136 H   0  0  0  0  0  0  0  0  0  0  0  0
    2.0293    0.6908    1.8934 H   0  0  0  0  0  0  0  0  0  0  0  0
   -1.4564   -4.5747    0.2377 H   0  0  0  0  0  0  0  0  0  0  0  0
    0.2133   -4.7981    0.8332 H   0  0  0  0  0  0  0  0  0  0  0  0
   -1.1345   -4.3979    1.9741 H   0  0  0  0  0  0  0  0  0  0  0  0
   -4.0202   -1.0285   -1.3007 H   0  0  0  0  0  0  0  0  0  0  0  0
   -1.7035    1.9519   -0.3521 H   0  0  0  0  0  0  0  0  0  0  0  0
   -1.6100    2.3785   -2.5936 H   0  0  0  0  0  0  0  0  0  0  0  0
   -3.0987    1.3574   -2.9436 H   0  0  0  0  0  0  0  0  0  0  0  0
   -1.5258    0.5596   -2.8243 H   0  0  0  0  0  0  0  0  0  0  0  0
   -3.8450    0.9982    1.3192 H   0  0  0  0  0  0  0  0  0  0  0  0
   -4.7186    2.5304    1.0488 H   0  0  0  0  0  0  0  0  0  0  0  0
  1  2  1  0
  2  3  1  0
  3  4  1  0
  4  5  2  0
  4  6  1  0
  6  7  1  0
  7  8  1  0
  8  9  2  0
  8 10  1  0
 10 11  1  0
 10 12  1  0
 12 13  1  0
 13 14  2  0
 14 15  1  0
 15 16  1  0
 16 17  1  0
 16 18  1  0
 18 19  1  0
 18 20  2  0
 15 21  1  0
 21 22  1  0
 22 23  2  0
 22  7  1  0
 21 12  2  0
  1 24  1  0
  1 25  1  0
  1 26  1  0
  3 27  1  0
  3 28  1  0
  6 29  1  0
  6 30  1  0
 11 31  1  0
 11 32  1  0
 11 33  1  0
 14 34  1  0
 16 35  1  1
 17 36  1  0
 17 37  1  0
 17 38  1  0
 19 39  1  0
 19 40  1  0
M  END
$$$$
[H]c1nc(-c2c([H])nc(N3C([H])([H])C4([H])C([H])([H])C4([H])C3([H])[H])nc2[H])nc(N([H])C(=O)[C@@]([H])(n2c([H])nc3c2c(=O)n(C([H])([H])C#CC([H])([H])[H])c(=O)n3C([H])([H])[H])C([H])([H])[H])c1[H]
     RDKit          3D

 65 70  0  0  0  0  0  0  0  0999 V2000
   -6.7336    1.9918    3.6456 C   0  0  0  0  0  0  0  0  0  0  0  0
   -6.8464    0.8213    2.7959 C   0  0  0  0  0  0  0  0  0  0  0  0
   -6.9359   -0.1541    2.1134 C   0  0  0  0  0  0  0  0  0  0  0  0
   -7.0498   -1.3534    1.3038 C   0  0  0  0  0  0  0  0  0  0  0  0
   -6.6663   -1.0434   -0.0593 N   0  0  0  0  0  0  0  0  0  0  0  0
   -7.5935   -0.6323   -0.9222 C   0  0  0  0  0  0  0  0  0  0  0  0
   -8.8163   -0.5060   -0.5687 O   0  0  0  0  0  0  0  0  0  0  0  0
   -7.2268   -0.3481   -2.1837 N   0  0  0  0  0  0  0  0  0  0  0  0
   -8.2489    0.0963   -3.1033 C   0  0  0  0  0  0  0  0  0  0  0  0
   -5.9535   -0.4586   -2.6270 C   0  0  0  0  0  0  0  0  0  0  0  0
   -5.3344   -0.2492   -3.7870 N   0  0  0  0  0  0  0  0  0  0  0  0
   -4.0388   -0.5390   -3.6022 C   0  0  0  0  0  0  0  0  0  0  0  0
   -3.8342   -0.9292   -2.3374 N   0  0  0  0  0  0  0  0  0  0  0  0
   -2.5257   -1.3065   -1.8484 C   0  0  1  0  0  0  0  0  0  0  0  0
   -1.8421   -2.0914   -2.9724 C   0  0  0  0  0  0  0  0  0  0  0  0
   -1.7043   -0.0780   -1.5329 C   0  0  0  0  0  0  0  0  0  0  0  0
   -2.2466    1.0163   -1.7323 O   0  0  0  0  0  0  0  0  0  0  0  0
   -0.4022   -0.2125   -1.0428 N   0  0  0  0  0  0  0  0  0  0  0  0
    0.5279    0.7804   -0.6893 C   0  0  0  0  0  0  0  0  0  0  0  0
    0.2533    2.1146   -0.7894 C   0  0  0  0  0  0  0  0  0  0  0  0
    1.2069    3.0634   -0.4280 C   0  0  0  0  0  0  0  0  0  0  0  0
    2.3845    2.6458    0.0145 N   0  0  0  0  0  0  0  0  0  0  0  0
    2.6778    1.3434    0.1218 C   0  0  0  0  0  0  0  0  0  0  0  0
    1.7656    0.4391   -0.2240 N   0  0  0  0  0  0  0  0  0  0  0  0
    4.0080    0.9676    0.6211 C   0  0  0  0  0  0  0  0  0  0  0  0
    4.3854   -0.3512    0.7627 C   0  0  0  0  0  0  0  0  0  0  0  0
    5.6175   -0.6625    1.2245 N   0  0  0  0  0  0  0  0  0  0  0  0
    6.5169    0.2742    1.5614 C   0  0  0  0  0  0  0  0  0  0  0  0
    6.1582    1.5604    1.4268 N   0  0  0  0  0  0  0  0  0  0  0  0
    4.9364    1.9248    0.9689 C   0  0  0  0  0  0  0  0  0  0  0  0
    7.8136   -0.0744    2.0478 N   0  0  0  0  0  0  0  0  0  0  0  0
    8.8901    0.8119    2.4387 C   0  0  0  0  0  0  0  0  0  0  0  0
   10.1666    0.0806    2.0808 C   0  0  0  0  0  0  0  0  0  0  0  0
   10.2176   -0.5538    0.7390 C   0  0  0  0  0  0  0  0  0  0  0  0
    9.8038   -1.3456    1.9108 C   0  0  0  0  0  0  0  0  0  0  0  0
    8.3115   -1.4192    2.2485 C   0  0  0  0  0  0  0  0  0  0  0  0
   -5.0175   -0.8841   -1.7183 C   0  0  0  0  0  0  0  0  0  0  0  0
   -5.3890   -1.1717   -0.4416 C   0  0  0  0  0  0  0  0  0  0  0  0
   -4.5189   -1.5642    0.3926 O   0  0  0  0  0  0  0  0  0  0  0  0
   -5.8876    2.6204    3.2966 H   0  0  0  0  0  0  0  0  0  0  0  0
   -7.6806    2.5491    3.7577 H   0  0  0  0  0  0  0  0  0  0  0  0
   -6.4775    1.6190    4.6804 H   0  0  0  0  0  0  0  0  0  0  0  0
   -8.1091   -1.6883    1.3056 H   0  0  0  0  0  0  0  0  0  0  0  0
   -6.4408   -2.1536    1.7434 H   0  0  0  0  0  0  0  0  0  0  0  0
   -8.8265   -0.7971   -3.4217 H   0  0  0  0  0  0  0  0  0  0  0  0
   -8.9291    0.7726   -2.5274 H   0  0  0  0  0  0  0  0  0  0  0  0
   -7.7976    0.6206   -3.9691 H   0  0  0  0  0  0  0  0  0  0  0  0
   -3.3017   -0.4510   -4.4038 H   0  0  0  0  0  0  0  0  0  0  0  0
   -2.5287   -1.9675   -0.9824 H   0  0  0  0  0  0  0  0  0  0  0  0
   -1.4667   -1.4215   -3.7545 H   0  0  0  0  0  0  0  0  0  0  0  0
   -2.6221   -2.8031   -3.3503 H   0  0  0  0  0  0  0  0  0  0  0  0
   -1.0289   -2.6737   -2.5102 H   0  0  0  0  0  0  0  0  0  0  0  0
   -0.0354   -1.2268   -0.9091 H   0  0  0  0  0  0  0  0  0  0  0  0
   -0.6686    2.5281   -1.1357 H   0  0  0  0  0  0  0  0  0  0  0  0
    1.0063    4.1355   -0.5008 H   0  0  0  0  0  0  0  0  0  0  0  0
    3.6520   -1.1005    0.4879 H   0  0  0  0  0  0  0  0  0  0  0  0
    4.6704    2.9739    0.8691 H   0  0  0  0  0  0  0  0  0  0  0  0
    8.8407    1.7417    1.8363 H   0  0  0  0  0  0  0  0  0  0  0  0
    8.8439    1.0189    3.5398 H   0  0  0  0  0  0  0  0  0  0  0  0
   11.0797    0.3951    2.6083 H   0  0  0  0  0  0  0  0  0  0  0  0
    9.4002   -0.3370    0.0053 H   0  0  0  0  0  0  0  0  0  0  0  0
   11.1810   -0.7965    0.2620 H   0  0  0  0  0  0  0  0  0  0  0  0
   10.3955   -2.1538    2.3434 H   0  0  0  0  0  0  0  0  0  0  0  0
    7.8139   -2.1574    1.5989 H   0  0  0  0  0  0  0  0  0  0  0  0
    8.2005   -1.7338    3.3219 H   0  0  0  0  0  0  0  0  0  0  0  0
  1  2  1  0
  2  3  3  0
  3  4  1  0
  4  5  1  0
  5  6  1  0
  6  7  2  0
  6  8  1  0
  8  9  1  0
  8 10  1  0
 10 11  1  0
 11 12  2  0
 12 13  1  0
 13 14  1  0
 14 15  1  0
 14 16  1  0
 16 17  2  0
 16 18  1  0
 18 19  1  0
 19 20  2  0
 20 21  1  0
 21 22  2  0
 22 23  1  0
 23 24  2  0
 23 25  1  0
 25 26  2  0
 26 27  1  0
 27 28  2  0
 28 29  1  0
 29 30  2  0
 28 31  1  0
 31 32  1  0
 32 33  1  0
 33 34  1  0
 34 35  1  0
 35 36  1  0
 13 37  1  0
 37 38  1  0
 38 39  2  0
 38  5  1  0
 37 10  2  0
 24 19  1  0
 30 25  1  0
 36 31  1  0
 35 33  1  0
  1 40  1  0
  1 41  1  0
  1 42  1  0
  4 43  1  0
  4 44  1  0
  9 45  1  0
  9 46  1  0
  9 47  1  0
 12 48  1  0
 14 49  1  1
 15 50  1  0
 15 51  1  0
 15 52  1  0
 18 53  1  0
 20 54  1  0
 21 55  1  0
 26 56  1  0
 30 57  1  0
 32 58  1  0
 32 59  1  0
 33 60  1  0
 34 61  1  0
 34 62  1  0
 35 63  1  0
 36 64  1  0
 36 65  1  0
M  END
$$$$
[H]C1=Nc2c([H])c([H])c([H])c([H])c2Oc2c([H])c(C(=O)OC([H])([H])[H])c([H])c([H])c21
     RDKit          3D

 30 32  0  0  0  0  0  0  0  0999 V2000
   -5.3039    0.5545    1.4166 C   0  0  0  0  0  0  0  0  0  0  0  0
   -3.9920    0.3678    0.8993 O   0  0  0  0  0  0  0  0  0  0  0  0
   -3.6467    0.7086   -0.3940 C   0  0  0  0  0  0  0  0  0  0  0  0
   -4.4916    1.1976   -1.1551 O   0  0  0  0  0  0  0  0  0  0  0  0
   -2.2815    0.4864   -0.8499 C   0  0  0  0  0  0  0  0  0  0  0  0
   -1.8725    0.8060   -2.1326 C   0  0  0  0  0  0  0  0  0  0  0  0
   -0.5716    0.5827   -2.5323 C   0  0  0  0  0  0  0  0  0  0  0  0
    0.3443    0.0349   -1.6545 C   0  0  0  0  0  0  0  0  0  0  0  0
    1.6785   -0.1425   -2.2180 C   0  0  0  0  0  0  0  0  0  0  0  0
    2.7886   -0.3735   -1.5918 N   0  0  0  0  0  0  0  0  0  0  0  0
    3.0388   -0.5222   -0.1852 C   0  0  0  0  0  0  0  0  0  0  0  0
    4.3674   -0.4309    0.1522 C   0  0  0  0  0  0  0  0  0  0  0  0
    4.7865   -0.5527    1.4785 C   0  0  0  0  0  0  0  0  0  0  0  0
    3.8758   -0.7690    2.4927 C   0  0  0  0  0  0  0  0  0  0  0  0
    2.5297   -0.8616    2.1520 C   0  0  0  0  0  0  0  0  0  0  0  0
    2.1338   -0.7386    0.8343 C   0  0  0  0  0  0  0  0  0  0  0  0
    0.7452   -0.8563    0.6628 O   0  0  0  0  0  0  0  0  0  0  0  0
   -0.0294   -0.2959   -0.3676 C   0  0  0  0  0  0  0  0  0  0  0  0
   -1.3329   -0.0623    0.0039 C   0  0  0  0  0  0  0  0  0  0  0  0
   -5.6850    1.4926    0.9644 H   0  0  0  0  0  0  0  0  0  0  0  0
   -5.2257    0.5727    2.5043 H   0  0  0  0  0  0  0  0  0  0  0  0
   -5.9892   -0.2638    1.1367 H   0  0  0  0  0  0  0  0  0  0  0  0
   -2.6007    1.2357   -2.8129 H   0  0  0  0  0  0  0  0  0  0  0  0
   -0.2442    0.8335   -3.5441 H   0  0  0  0  0  0  0  0  0  0  0  0
    1.7226   -0.0677   -3.2934 H   0  0  0  0  0  0  0  0  0  0  0  0
    5.0850   -0.2602   -0.6490 H   0  0  0  0  0  0  0  0  0  0  0  0
    5.8245   -0.4747    1.6880 H   0  0  0  0  0  0  0  0  0  0  0  0
    4.2144   -0.8609    3.5110 H   0  0  0  0  0  0  0  0  0  0  0  0
    1.8041   -1.0308    2.9349 H   0  0  0  0  0  0  0  0  0  0  0  0
   -1.6725   -0.3093    1.0142 H   0  0  0  0  0  0  0  0  0  0  0  0
  1  2  1  0
  2  3  1  0
  3  4  2  0
  3  5  1  0
  5  6  2  0
  6  7  1  0
  7  8  2  0
  8  9  1  0
  9 10  2  0
 10 11  1  0
 11 12  2  0
 12 13  1  0
 13 14  2  0
 14 15  1  0
 15 16  2  0
 16 17  1  0
 17 18  1  0
 18 19  2  0
 19  5  1  0
 18  8  1  0
 16 11  1  0
  1 20  1  0
  1 21  1  0
  1 22  1  0
  6 23  1  0
  7 24  1  0
  9 25  1  0
 12 26  1  0
 13 27  1  0
 14 28  1  0
 15 29  1  0
 19 30  1  0
M  END
$$$$
[H]c1oc2c(c1C([H])([H])C(=O)N([H])c1nc(-c3c([H])c(F)c(OC([H])([H])C([H])(C([H])([H])[H])C([H])([H])[H])c(F)c3[H])c([H])s1)c(=O)n(C([H])([H])[H])c(=O)n2C([H])([H])[H]
     RDKit          3D

 57 60  0  0  0  0  0  0  0  0999 V2000
   -7.2791    3.0834    0.8539 C   0  0  0  0  0  0  0  0  0  0  0  0
   -7.0942    1.5603    0.5643 C   0  0  0  0  0  0  0  0  0  0  0  0
   -8.4728    0.9316    0.7835 C   0  0  0  0  0  0  0  0  0  0  0  0
   -6.6118    1.4694   -0.8231 C   0  0  0  0  0  0  0  0  0  0  0  0
   -6.2876    0.2656   -1.4009 O   0  0  0  0  0  0  0  0  0  0  0  0
   -5.2398   -0.5127   -0.9043 C   0  0  0  0  0  0  0  0  0  0  0  0
   -5.3640   -1.5590   -0.0421 C   0  0  0  0  0  0  0  0  0  0  0  0
   -6.5982   -1.9742    0.3917 F   0  0  0  0  0  0  0  0  0  0  0  0
   -4.2315   -2.2429    0.3789 C   0  0  0  0  0  0  0  0  0  0  0  0
   -2.9835   -1.9011   -0.0465 C   0  0  0  0  0  0  0  0  0  0  0  0
   -2.8839   -0.8449   -0.9159 C   0  0  0  0  0  0  0  0  0  0  0  0
   -3.9587   -0.1369   -1.3625 C   0  0  0  0  0  0  0  0  0  0  0  0
   -3.8478    0.9126   -2.2292 F   0  0  0  0  0  0  0  0  0  0  0  0
   -1.7985   -2.6612    0.4254 C   0  0  0  0  0  0  0  0  0  0  0  0
   -1.9312   -3.7430    1.2608 C   0  0  0  0  0  0  0  0  0  0  0  0
   -0.3071   -4.2255    1.4710 S   0  0  0  0  0  0  0  0  0  0  0  0
    0.4412   -3.0270    0.4885 C   0  0  0  0  0  0  0  0  0  0  0  0
    1.8471   -2.8545    0.2219 N   0  0  0  0  0  0  0  0  0  0  0  0
    2.2715   -1.7880   -0.6015 C   0  0  0  0  0  0  0  0  0  0  0  0
    1.4389   -1.0016   -1.0965 O   0  0  0  0  0  0  0  0  0  0  0  0
    3.7222   -1.6132   -0.8679 C   0  0  0  0  0  0  0  0  0  0  0  0
    4.1575   -0.3335   -0.2736 C   0  0  0  0  0  0  0  0  0  0  0  0
    3.3816    0.5987    0.3640 C   0  0  0  0  0  0  0  0  0  0  0  0
    4.1559    1.5988    0.7503 O   0  0  0  0  0  0  0  0  0  0  0  0
    5.4020    1.3844    0.4061 C   0  0  0  0  0  0  0  0  0  0  0  0
    6.5737    2.0567    0.5463 N   0  0  0  0  0  0  0  0  0  0  0  0
    6.5747    3.3438    1.2299 C   0  0  0  0  0  0  0  0  0  0  0  0
    7.7132    1.5338    0.0597 C   0  0  0  0  0  0  0  0  0  0  0  0
    8.7900    2.1661    0.1963 O   0  0  0  0  0  0  0  0  0  0  0  0
    7.7449    0.3464   -0.5749 N   0  0  0  0  0  0  0  0  0  0  0  0
    8.9814   -0.1664   -1.0683 C   0  0  0  0  0  0  0  0  0  0  0  0
    6.6124   -0.3545   -0.7377 C   0  0  0  0  0  0  0  0  0  0  0  0
    6.6626   -1.4522   -1.3289 O   0  0  0  0  0  0  0  0  0  0  0  0
    5.4433    0.1621   -0.2492 C   0  0  0  0  0  0  0  0  0  0  0  0
   -0.5939   -2.3364    0.0626 N   0  0  0  0  0  0  0  0  0  0  0  0
   -6.4651    3.6553    0.3745 H   0  0  0  0  0  0  0  0  0  0  0  0
   -8.2635    3.4178    0.4374 H   0  0  0  0  0  0  0  0  0  0  0  0
   -7.2923    3.2736    1.9268 H   0  0  0  0  0  0  0  0  0  0  0  0
   -6.3984    1.1857    1.3043 H   0  0  0  0  0  0  0  0  0  0  0  0
   -8.6239    0.1040    0.0824 H   0  0  0  0  0  0  0  0  0  0  0  0
   -9.2912    1.6593    0.6793 H   0  0  0  0  0  0  0  0  0  0  0  0
   -8.5196    0.5224    1.8213 H   0  0  0  0  0  0  0  0  0  0  0  0
   -7.3728    2.0459   -1.4623 H   0  0  0  0  0  0  0  0  0  0  0  0
   -5.7205    2.1920   -0.8871 H   0  0  0  0  0  0  0  0  0  0  0  0
   -4.4161   -3.0747    1.0778 H   0  0  0  0  0  0  0  0  0  0  0  0
   -1.9038   -0.5497   -1.2733 H   0  0  0  0  0  0  0  0  0  0  0  0
   -2.8615   -4.1741    1.6773 H   0  0  0  0  0  0  0  0  0  0  0  0
    2.5047   -3.5338    0.6551 H   0  0  0  0  0  0  0  0  0  0  0  0
    4.2593   -2.4963   -0.5099 H   0  0  0  0  0  0  0  0  0  0  0  0
    3.8728   -1.6099   -1.9831 H   0  0  0  0  0  0  0  0  0  0  0  0
    2.3180    0.5498    0.5355 H   0  0  0  0  0  0  0  0  0  0  0  0
    5.9148    3.3379    2.1190 H   0  0  0  0  0  0  0  0  0  0  0  0
    7.6161    3.6225    1.4878 H   0  0  0  0  0  0  0  0  0  0  0  0
    6.1955    4.1247    0.5216 H   0  0  0  0  0  0  0  0  0  0  0  0
    8.8571   -0.8882   -1.9188 H   0  0  0  0  0  0  0  0  0  0  0  0
    9.5990    0.6799   -1.4519 H   0  0  0  0  0  0  0  0  0  0  0  0
    9.5610   -0.7292   -0.2790 H   0  0  0  0  0  0  0  0  0  0  0  0
  1  2  1  0
  2  3  1  0
  2  4  1  0
  4  5  1  0
  5  6  1  0
  6  7  2  0
  7  8  1  0
  7  9  1  0
  9 10  2  0
 10 11  1  0
 11 12  2  0
 12 13  1  0
 10 14  1  0
 14 15  2  0
 15 16  1  0
 16 17  1  0
 17 18  1  0
 18 19  1  0
 19 20  2  0
 19 21  1  0
 21 22  1  0
 22 23  2  0
 23 24  1  0
 24 25  1  0
 25 26  1  0
 26 27  1  0
 26 28  1  0
 28 29  2  0
 28 30  1  0
 30 31  1  0
 30 32  1  0
 32 33  2  0
 32 34  1  0
 17 35  2  0
 12  6  1  0
 35 14  1  0
 34 22  1  0
 34 25  2  0
  1 36  1  0
  1 37  1  0
  1 38  1  0
  2 39  1  0
  3 40  1  0
  3 41  1  0
  3 42  1  0
  4 43  1  0
  4 44  1  0
  9 45  1  0
 11 46  1  0
 15 47  1  0
 18 48  1  0
 21 49  1  0
 21 50  1  0
 23 51  1  0
 27 52  1  0
 27 53  1  0
 27 54  1  0
 31 55  1  0
 31 56  1  0
 31 57  1  0
M  END
$$$$
[H]c1sc(N([H])C(=O)C([H])([H])c2c([H])c([H])c([H])c3c2c(=O)n(C([H])([H])[H])c(=O)n3C([H])([H])[H])nc1-c1c([H])c([H])c(OC([H])([H])C([H])(C([H])([H])[H])C([H])([H])[H])c([H])c1[H]
     RDKit          3D

 60 63  0  0  0  0  0  0  0  0999 V2000
    8.3366   -0.4343    2.3901 C   0  0  0  0  0  0  0  0  0  0  0  0
    8.1652   -1.0044    0.9863 C   0  0  0  0  0  0  0  0  0  0  0  0
    9.3702   -1.9351    0.7750 C   0  0  0  0  0  0  0  0  0  0  0  0
    8.2568    0.0469   -0.0629 C   0  0  0  0  0  0  0  0  0  0  0  0
    7.3576    1.0758   -0.0363 O   0  0  0  0  0  0  0  0  0  0  0  0
    5.9911    1.0556   -0.1865 C   0  0  0  0  0  0  0  0  0  0  0  0
    5.3085    2.2756   -0.0855 C   0  0  0  0  0  0  0  0  0  0  0  0
    3.9351    2.3237   -0.2293 C   0  0  0  0  0  0  0  0  0  0  0  0
    3.1915    1.2042   -0.4725 C   0  0  0  0  0  0  0  0  0  0  0  0
    3.8464    0.0078   -0.5734 C   0  0  0  0  0  0  0  0  0  0  0  0
    5.2343   -0.0640   -0.4316 C   0  0  0  0  0  0  0  0  0  0  0  0
    1.7159    1.2763   -0.6278 C   0  0  0  0  0  0  0  0  0  0  0  0
    1.0499    2.4807   -0.5301 C   0  0  0  0  0  0  0  0  0  0  0  0
   -0.5637    1.9988   -0.7841 S   0  0  0  0  0  0  0  0  0  0  0  0
   -0.3096    0.3259   -0.9965 C   0  0  0  0  0  0  0  0  0  0  0  0
   -1.2210   -0.7472   -1.2572 N   0  0  0  0  0  0  0  0  0  0  0  0
   -2.6009   -0.5331   -1.3639 C   0  0  0  0  0  0  0  0  0  0  0  0
   -3.3308   -1.5611   -1.6337 O   0  0  0  0  0  0  0  0  0  0  0  0
   -3.3099    0.7535   -1.1989 C   0  0  0  0  0  0  0  0  0  0  0  0
   -4.7636    0.5151   -1.3920 C   0  0  0  0  0  0  0  0  0  0  0  0
   -5.2898    0.7618   -2.6755 C   0  0  0  0  0  0  0  0  0  0  0  0
   -6.6038    0.5036   -2.9038 C   0  0  0  0  0  0  0  0  0  0  0  0
   -7.4184    0.0124   -1.9169 C   0  0  0  0  0  0  0  0  0  0  0  0
   -6.9056   -0.2269   -0.6651 C   0  0  0  0  0  0  0  0  0  0  0  0
   -7.7158   -0.6988    0.3048 N   0  0  0  0  0  0  0  0  0  0  0  0
   -9.1084   -0.9481   -0.0314 C   0  0  0  0  0  0  0  0  0  0  0  0
   -7.2284   -0.9243    1.5368 C   0  0  0  0  0  0  0  0  0  0  0  0
   -8.0461   -1.3669    2.3943 O   0  0  0  0  0  0  0  0  0  0  0  0
   -5.9408   -0.6879    1.8267 N   0  0  0  0  0  0  0  0  0  0  0  0
   -5.4595   -0.9467    3.1727 C   0  0  0  0  0  0  0  0  0  0  0  0
   -5.0767   -0.2139    0.8949 C   0  0  0  0  0  0  0  0  0  0  0  0
   -3.8894   -0.0027    1.1997 O   0  0  0  0  0  0  0  0  0  0  0  0
   -5.5427    0.0246   -0.3708 C   0  0  0  0  0  0  0  0  0  0  0  0
    1.0062    0.2245   -0.8607 N   0  0  0  0  0  0  0  0  0  0  0  0
    8.5209    0.6564    2.2627 H   0  0  0  0  0  0  0  0  0  0  0  0
    7.4533   -0.6299    3.0305 H   0  0  0  0  0  0  0  0  0  0  0  0
    9.2093   -0.8539    2.9222 H   0  0  0  0  0  0  0  0  0  0  0  0
    7.2938   -1.6373    1.0127 H   0  0  0  0  0  0  0  0  0  0  0  0
   10.2958   -1.3317    0.7394 H   0  0  0  0  0  0  0  0  0  0  0  0
    9.4229   -2.5301    1.7211 H   0  0  0  0  0  0  0  0  0  0  0  0
    9.2199   -2.5807   -0.1028 H   0  0  0  0  0  0  0  0  0  0  0  0
    8.2539   -0.4871   -1.0471 H   0  0  0  0  0  0  0  0  0  0  0  0
    9.3032    0.4777    0.0263 H   0  0  0  0  0  0  0  0  0  0  0  0
    5.8875    3.1653    0.1064 H   0  0  0  0  0  0  0  0  0  0  0  0
    3.4768    3.3165   -0.1360 H   0  0  0  0  0  0  0  0  0  0  0  0
    3.2918   -0.9132   -0.7668 H   0  0  0  0  0  0  0  0  0  0  0  0
    5.7369   -1.0318   -0.5336 H   0  0  0  0  0  0  0  0  0  0  0  0
    1.4852    3.4770   -0.3364 H   0  0  0  0  0  0  0  0  0  0  0  0
   -0.7866   -1.7078   -1.3857 H   0  0  0  0  0  0  0  0  0  0  0  0
   -2.9121    1.3652   -2.0767 H   0  0  0  0  0  0  0  0  0  0  0  0
   -3.0046    1.2057   -0.2704 H   0  0  0  0  0  0  0  0  0  0  0  0
   -4.6036    1.1452   -3.4054 H   0  0  0  0  0  0  0  0  0  0  0  0
   -7.0371    0.6909   -3.9086 H   0  0  0  0  0  0  0  0  0  0  0  0
   -8.4720   -0.2027   -2.0742 H   0  0  0  0  0  0  0  0  0  0  0  0
   -9.5531   -1.4777    0.8560 H   0  0  0  0  0  0  0  0  0  0  0  0
   -9.6837   -0.0112   -0.1741 H   0  0  0  0  0  0  0  0  0  0  0  0
   -9.2251   -1.6638   -0.8703 H   0  0  0  0  0  0  0  0  0  0  0  0
   -4.3631   -0.8379    3.2468 H   0  0  0  0  0  0  0  0  0  0  0  0
   -5.9172   -0.1937    3.8637 H   0  0  0  0  0  0  0  0  0  0  0  0
   -5.7336   -1.9810    3.5208 H   0  0  0  0  0  0  0  0  0  0  0  0
  1  2  1  0
  2  3  1  0
  2  4  1  0
  4  5  1  0
  5  6  1  0
  6  7  2  0
  7  8  1  0
  8  9  2  0
  9 10  1  0
 10 11  2  0
  9 12  1  0
 12 13  2  0
 13 14  1  0
 14 15  1  0
 15 16  1  0
 16 17  1  0
 17 18  2  0
 17 19  1  0
 19 20  1  0
 20 21  2  0
 21 22  1  0
 22 23  2  0
 23 24  1  0
 24 25  1  0
 25 26  1  0
 25 27  1  0
 27 28  2  0
 27 29  1  0
 29 30  1  0
 29 31  1  0
 31 32  2  0
 31 33  1  0
 15 34  2  0
 11  6  1  0
 34 12  1  0
 33 20  1  0
 33 24  2  0
  1 35  1  0
  1 36  1  0
  1 37  1  0
  2 38  1  0
  3 39  1  0
  3 40  1  0
  3 41  1  0
  4 42  1  0
  4 43  1  0
  7 44  1  0
  8 45  1  0
 10 46  1  0
 11 47  1  0
 13 48  1  0
 16 49  1  0
 19 50  1  0
 19 51  1  0
 21 52  1  0
 22 53  1  0
 23 54  1  0
 26 55  1  0
 26 56  1  0
 26 57  1  0
 30 58  1  0
 30 59  1  0
 30 60  1  0
M  END
$$$$
[H]c1c(C([H])([H])n2c(=O)c3c(nc([H])n3C([H])([H])C(=O)N([H])c3nc(C(F)(F)F)c(Br)c([H])c3[H])n(C([H])([H])[H])c2=O)noc1C([H])([H])[H]
     RDKit          3D

 49 52  0  0  0  0  0  0  0  0999 V2000
    6.8133    2.8696   -0.4537 C   0  0  0  0  0  0  0  0  0  0  0  0
    5.3462    2.6144   -0.5580 C   0  0  0  0  0  0  0  0  0  0  0  0
    4.6895    1.6300   -1.2815 C   0  0  0  0  0  0  0  0  0  0  0  0
    3.3431    1.7785   -1.0795 C   0  0  0  0  0  0  0  0  0  0  0  0
    2.2552    0.9647   -1.6423 C   0  0  0  0  0  0  0  0  0  0  0  0
    1.9811   -0.1610   -0.7679 N   0  0  0  0  0  0  0  0  0  0  0  0
    2.6488   -1.3211   -0.9766 C   0  0  0  0  0  0  0  0  0  0  0  0
    3.4968   -1.4420   -1.9106 O   0  0  0  0  0  0  0  0  0  0  0  0
    2.4147   -2.3795   -0.1781 N   0  0  0  0  0  0  0  0  0  0  0  0
    3.1274   -3.6465   -0.3900 C   0  0  0  0  0  0  0  0  0  0  0  0
    1.5476   -2.3462    0.8220 C   0  0  0  0  0  0  0  0  0  0  0  0
    1.1533   -3.2667    1.7535 N   0  0  0  0  0  0  0  0  0  0  0  0
    0.2399   -2.6678    2.5334 C   0  0  0  0  0  0  0  0  0  0  0  0
    0.0408   -1.3957    2.1272 N   0  0  0  0  0  0  0  0  0  0  0  0
   -0.8864   -0.5139    2.7265 C   0  0  0  0  0  0  0  0  0  0  0  0
   -2.2844   -0.7057    2.1741 C   0  0  0  0  0  0  0  0  0  0  0  0
   -2.8705   -1.7218    2.6000 O   0  0  0  0  0  0  0  0  0  0  0  0
   -2.8908    0.1662    1.2638 N   0  0  0  0  0  0  0  0  0  0  0  0
   -4.1692    0.0983    0.6767 C   0  0  0  0  0  0  0  0  0  0  0  0
   -5.0795   -0.8856    0.9223 C   0  0  0  0  0  0  0  0  0  0  0  0
   -6.3157   -0.8371    0.2612 C   0  0  0  0  0  0  0  0  0  0  0  0
   -6.6061    0.1656   -0.6063 C   0  0  0  0  0  0  0  0  0  0  0  0
   -8.2585    0.3079   -1.5460 Br  0  0  0  0  0  0  0  0  0  0  0  0
   -5.6497    1.1416   -0.8225 C   0  0  0  0  0  0  0  0  0  0  0  0
   -4.4854    1.0928   -0.1975 N   0  0  0  0  0  0  0  0  0  0  0  0
   -5.9122    2.2671   -1.7687 C   0  0  0  0  0  0  0  0  0  0  0  0
   -7.0246    2.9627   -1.3162 F   0  0  0  0  0  0  0  0  0  0  0  0
   -6.0925    1.7549   -3.0260 F   0  0  0  0  0  0  0  0  0  0  0  0
   -4.8715    3.1503   -1.8010 F   0  0  0  0  0  0  0  0  0  0  0  0
    0.8320   -1.1743    1.0798 C   0  0  0  0  0  0  0  0  0  0  0  0
    1.0971   -0.1131    0.2445 C   0  0  0  0  0  0  0  0  0  0  0  0
    0.4953    0.9464    0.4288 O   0  0  0  0  0  0  0  0  0  0  0  0
    3.2212    2.8486   -0.2396 N   0  0  0  0  0  0  0  0  0  0  0  0
    4.4078    3.3078    0.0410 O   0  0  0  0  0  0  0  0  0  0  0  0
    6.9783    3.9293   -0.1757 H   0  0  0  0  0  0  0  0  0  0  0  0
    7.2252    2.2195    0.3431 H   0  0  0  0  0  0  0  0  0  0  0  0
    7.2884    2.7037   -1.4451 H   0  0  0  0  0  0  0  0  0  0  0  0
    5.2115    0.8914   -1.8897 H   0  0  0  0  0  0  0  0  0  0  0  0
    1.3399    1.6246   -1.7091 H   0  0  0  0  0  0  0  0  0  0  0  0
    2.4335    0.6289   -2.6740 H   0  0  0  0  0  0  0  0  0  0  0  0
    3.6294   -3.8643    0.5751 H   0  0  0  0  0  0  0  0  0  0  0  0
    3.8549   -3.5785   -1.2039 H   0  0  0  0  0  0  0  0  0  0  0  0
    2.4175   -4.4735   -0.5713 H   0  0  0  0  0  0  0  0  0  0  0  0
   -0.2593   -3.1471    3.3655 H   0  0  0  0  0  0  0  0  0  0  0  0
   -0.6785    0.5588    2.6030 H   0  0  0  0  0  0  0  0  0  0  0  0
   -0.9944   -0.6799    3.8208 H   0  0  0  0  0  0  0  0  0  0  0  0
   -2.2556    1.0013    0.9931 H   0  0  0  0  0  0  0  0  0  0  0  0
   -4.8846   -1.6901    1.5997 H   0  0  0  0  0  0  0  0  0  0  0  0
   -7.0596   -1.6137    0.4420 H   0  0  0  0  0  0  0  0  0  0  0  0
  1  2  1  0
  2  3  2  0
  3  4  1  0
  4  5  1  0
  5  6  1  0
  6  7  1  0
  7  8  2  0
  7  9  1  0
  9 10  1  0
  9 11  1  0
 11 12  1  0
 12 13  2  0
 13 14  1  0
 14 15  1  0
 15 16  1  0
 16 17  2  0
 16 18  1  0
 18 19  1  0
 19 20  2  0
 20 21  1  0
 21 22  2  0
 22 23  1  0
 22 24  1  0
 24 25  2  0
 24 26  1  0
 26 27  1  0
 26 28  1  0
 26 29  1  0
 14 30  1  0
 30 31  1  0
 31 32  2  0
  4 33  2  0
 33 34  1  0
 34  2  1  0
 31  6  1  0
 30 11  2  0
 25 19  1  0
  1 35  1  0
  1 36  1  0
  1 37  1  0
  3 38  1  0
  5 39  1  0
  5 40  1  0
 10 41  1  0
 10 42  1  0
 10 43  1  0
 13 44  1  0
 15 45  1  0
 15 46  1  0
 18 47  1  0
 20 48  1  0
 21 49  1  0
M  END
$$$$
[H]c1c([H])c([H])c2c(c1[H])C(=O)C1=C2N([H])C(=S)N([H])C1([H])c1c([H])c([H])c([H])c(OC([H])([H])C([H])([H])C([H])([H])OC([H])([H])[H])c1[H]
     RDKit          3D

 47 50  0  0  0  0  0  0  0  0999 V2000
    6.9812    1.4166   -0.5043 C   0  0  0  0  0  0  0  0  0  0  0  0
    6.2900    0.3575    0.0581 O   0  0  0  0  0  0  0  0  0  0  0  0
    5.0351    0.7921    0.4770 C   0  0  0  0  0  0  0  0  0  0  0  0
    4.2960   -0.4090    1.0960 C   0  0  0  0  0  0  0  0  0  0  0  0
    4.1464   -1.4929    0.0822 C   0  0  0  0  0  0  0  0  0  0  0  0
    3.4478   -1.1981   -1.0684 O   0  0  0  0  0  0  0  0  0  0  0  0
    2.1292   -0.8642   -1.2067 C   0  0  0  0  0  0  0  0  0  0  0  0
    1.6391   -0.5702   -2.4982 C   0  0  0  0  0  0  0  0  0  0  0  0
    0.3382   -0.2306   -2.7251 C   0  0  0  0  0  0  0  0  0  0  0  0
   -0.5739   -0.1588   -1.6773 C   0  0  0  0  0  0  0  0  0  0  0  0
   -0.1286   -0.4378   -0.4278 C   0  0  0  0  0  0  0  0  0  0  0  0
    1.1845   -0.7777   -0.2197 C   0  0  0  0  0  0  0  0  0  0  0  0
   -1.0408   -0.4103    0.7542 C   0  0  0  0  0  0  0  0  0  0  0  0
   -0.6321    0.5874    1.6867 N   0  0  0  0  0  0  0  0  0  0  0  0
   -1.5186    1.5535    2.2056 C   0  0  0  0  0  0  0  0  0  0  0  0
   -0.9748    2.7197    3.2438 S   0  0  0  0  0  0  0  0  0  0  0  0
   -2.8771    1.5202    1.8335 N   0  0  0  0  0  0  0  0  0  0  0  0
   -3.2832    0.4809    0.9198 C   0  0  0  0  0  0  0  0  0  0  0  0
   -2.4561   -0.4001    0.4299 C   0  0  0  0  0  0  0  0  0  0  0  0
   -3.2600   -1.2967   -0.4331 C   0  0  0  0  0  0  0  0  0  0  0  0
   -2.8011   -2.2653   -1.0664 O   0  0  0  0  0  0  0  0  0  0  0  0
   -4.6371   -0.8630   -0.4104 C   0  0  0  0  0  0  0  0  0  0  0  0
   -5.8027   -1.3185   -1.0196 C   0  0  0  0  0  0  0  0  0  0  0  0
   -6.9746   -0.6354   -0.7607 C   0  0  0  0  0  0  0  0  0  0  0  0
   -7.0242    0.4576    0.0630 C   0  0  0  0  0  0  0  0  0  0  0  0
   -5.8628    0.8886    0.6525 C   0  0  0  0  0  0  0  0  0  0  0  0
   -4.6587    0.2270    0.4173 C   0  0  0  0  0  0  0  0  0  0  0  0
    7.1222    2.2418    0.2162 H   0  0  0  0  0  0  0  0  0  0  0  0
    6.4206    1.8382   -1.3655 H   0  0  0  0  0  0  0  0  0  0  0  0
    7.9759    1.0710   -0.8407 H   0  0  0  0  0  0  0  0  0  0  0  0
    4.4080    1.1679   -0.3488 H   0  0  0  0  0  0  0  0  0  0  0  0
    5.1243    1.5664    1.2672 H   0  0  0  0  0  0  0  0  0  0  0  0
    3.3744   -0.0532    1.5453 H   0  0  0  0  0  0  0  0  0  0  0  0
    4.9435   -0.8211    1.9101 H   0  0  0  0  0  0  0  0  0  0  0  0
    3.7339   -2.3879    0.6244 H   0  0  0  0  0  0  0  0  0  0  0  0
    5.1837   -1.8057   -0.2207 H   0  0  0  0  0  0  0  0  0  0  0  0
    2.3724   -0.6308   -3.3196 H   0  0  0  0  0  0  0  0  0  0  0  0
   -0.0170   -0.0056   -3.7471 H   0  0  0  0  0  0  0  0  0  0  0  0
   -1.5920    0.1335   -1.9153 H   0  0  0  0  0  0  0  0  0  0  0  0
    1.4893   -1.0129    0.7908 H   0  0  0  0  0  0  0  0  0  0  0  0
   -0.8829   -1.4047    1.3206 H   0  0  0  0  0  0  0  0  0  0  0  0
    0.3843    0.6297    2.0255 H   0  0  0  0  0  0  0  0  0  0  0  0
   -3.5595    2.2287    2.2118 H   0  0  0  0  0  0  0  0  0  0  0  0
   -5.7484   -2.1788   -1.6645 H   0  0  0  0  0  0  0  0  0  0  0  0
   -7.8941   -0.9680   -1.2208 H   0  0  0  0  0  0  0  0  0  0  0  0
   -7.9441    0.9747    0.2516 H   0  0  0  0  0  0  0  0  0  0  0  0
   -5.8758    1.7445    1.3032 H   0  0  0  0  0  0  0  0  0  0  0  0
  1  2  1  0
  2  3  1  0
  3  4  1  0
  4  5  1  0
  5  6  1  0
  6  7  1  0
  7  8  2  0
  8  9  1  0
  9 10  2  0
 10 11  1  0
 11 12  2  0
 11 13  1  0
 13 14  1  0
 14 15  1  0
 15 16  2  0
 15 17  1  0
 17 18  1  0
 18 19  2  0
 19 20  1  0
 20 21  2  0
 20 22  1  0
 22 23  2  0
 23 24  1  0
 24 25  2  0
 25 26  1  0
 26 27  2  0
 12  7  1  0
 19 13  1  0
 27 22  1  0
 27 18  1  0
  1 28  1  0
  1 29  1  0
  1 30  1  0
  3 31  1  0
  3 32  1  0
  4 33  1  0
  4 34  1  0
  5 35  1  0
  5 36  1  0
  8 37  1  0
  9 38  1  0
 10 39  1  0
 12 40  1  0
 13 41  1  0
 14 42  1  0
 17 43  1  0
 23 44  1  0
 24 45  1  0
 25 46  1  0
 26 47  1  0
M  END
$$$$
[H]c1nc2c(c(=O)n(C([H])([H])C(=O)C([H])([H])C([H])([H])[H])c(=O)n2C([H])([H])[H])n1C([H])([H])C(=O)N([H])[H]
     RDKit          3D

 36 37  0  0  0  0  0  0  0  0999 V2000
   -5.0229   -1.2260    0.9477 C   0  0  0  0  0  0  0  0  0  0  0  0
   -4.0389   -1.5676   -0.1457 C   0  0  0  0  0  0  0  0  0  0  0  0
   -2.8274   -0.7179   -0.0688 C   0  0  0  0  0  0  0  0  0  0  0  0
   -2.7574    0.1134    0.8116 O   0  0  0  0  0  0  0  0  0  0  0  0
   -1.7341   -0.8694   -1.0280 C   0  0  0  0  0  0  0  0  0  0  0  0
   -0.6471    0.0567   -0.7759 N   0  0  0  0  0  0  0  0  0  0  0  0
   -0.5687    1.2713   -1.3084 C   0  0  0  0  0  0  0  0  0  0  0  0
   -1.4860    1.6490   -2.0772 O   0  0  0  0  0  0  0  0  0  0  0  0
    0.4329    2.1347   -1.0810 N   0  0  0  0  0  0  0  0  0  0  0  0
    0.4502    3.4419   -1.6971 C   0  0  0  0  0  0  0  0  0  0  0  0
    1.4305    1.7320   -0.2488 C   0  0  0  0  0  0  0  0  0  0  0  0
    2.5576    2.3269    0.1877 N   0  0  0  0  0  0  0  0  0  0  0  0
    3.2070    1.4796    1.0102 C   0  0  0  0  0  0  0  0  0  0  0  0
    2.5105    0.3209    1.1200 N   0  0  0  0  0  0  0  0  0  0  0  0
    2.8580   -0.8488    1.9039 C   0  0  0  0  0  0  0  0  0  0  0  0
    3.6778   -1.7959    1.1093 C   0  0  0  0  0  0  0  0  0  0  0  0
    4.0525   -1.5569   -0.2346 N   0  0  0  0  0  0  0  0  0  0  0  0
    4.0488   -2.8543    1.6684 O   0  0  0  0  0  0  0  0  0  0  0  0
    1.4222    0.4821    0.3455 C   0  0  0  0  0  0  0  0  0  0  0  0
    0.3461   -0.3349    0.0482 C   0  0  0  0  0  0  0  0  0  0  0  0
    0.3477   -1.4765    0.5969 O   0  0  0  0  0  0  0  0  0  0  0  0
   -6.0448   -1.4094    0.5535 H   0  0  0  0  0  0  0  0  0  0  0  0
   -4.8951   -0.1240    1.1411 H   0  0  0  0  0  0  0  0  0  0  0  0
   -4.8183   -1.7889    1.8685 H   0  0  0  0  0  0  0  0  0  0  0  0
   -4.5373   -1.4285   -1.1434 H   0  0  0  0  0  0  0  0  0  0  0  0
   -3.7679   -2.6348   -0.0166 H   0  0  0  0  0  0  0  0  0  0  0  0
   -2.1127   -0.6937   -2.0765 H   0  0  0  0  0  0  0  0  0  0  0  0
   -1.3180   -1.9134   -1.0581 H   0  0  0  0  0  0  0  0  0  0  0  0
    0.6871    3.2983   -2.7686 H   0  0  0  0  0  0  0  0  0  0  0  0
   -0.5891    3.8822   -1.6628 H   0  0  0  0  0  0  0  0  0  0  0  0
    1.0934    4.1563   -1.1800 H   0  0  0  0  0  0  0  0  0  0  0  0
    4.1413    1.6439    1.5298 H   0  0  0  0  0  0  0  0  0  0  0  0
    3.5392   -0.4751    2.7234 H   0  0  0  0  0  0  0  0  0  0  0  0
    2.0089   -1.3108    2.4100 H   0  0  0  0  0  0  0  0  0  0  0  0
    4.8171   -0.9033   -0.4779 H   0  0  0  0  0  0  0  0  0  0  0  0
    3.5367   -2.0592   -0.9953 H   0  0  0  0  0  0  0  0  0  0  0  0
  1  2  1  0
  2  3  1  0
  3  4  2  0
  3  5  1  0
  5  6  1  0
  6  7  1  0
  7  8  2  0
  7  9  1  0
  9 10  1  0
  9 11  1  0
 11 12  1  0
 12 13  2  0
 13 14  1  0
 14 15  1  0
 15 16  1  0
 16 17  1  0
 16 18  2  0
 14 19  1  0
 19 20  1  0
 20 21  2  0
 20  6  1  0
 19 11  2  0
  1 22  1  0
  1 23  1  0
  1 24  1  0
  2 25  1  0
  2 26  1  0
  5 27  1  0
  5 28  1  0
 10 29  1  0
 10 30  1  0
 10 31  1  0
 13 32  1  0
 15 33  1  0
 15 34  1  0
 17 35  1  0
 17 36  1  0
M  END
$$$$
[H]c1sc(N([H])C(=O)C([H])([H])c2c(Cl)oc3c2c(=O)n(C([H])([H])[H])c(=O)n3C([H])([H])[H])nc1-c1c([H])c(F)c([H])c(C(F)(F)F)c1[H]
     RDKit          3D

 47 50  0  0  0  0  0  0  0  0999 V2000
   -7.5973    0.6115    0.7402 C   0  0  0  0  0  0  0  0  0  0  0  0
   -6.3244    0.3492    0.0581 N   0  0  0  0  0  0  0  0  0  0  0  0
   -5.1573    0.4785    0.7049 C   0  0  0  0  0  0  0  0  0  0  0  0
   -4.8992    0.8300    1.9501 O   0  0  0  0  0  0  0  0  0  0  0  0
   -3.6144    0.8251    2.1560 C   0  0  0  0  0  0  0  0  0  0  0  0
   -2.7507    1.2168    3.6438 Cl  0  0  0  0  0  0  0  0  0  0  0  0
   -2.9755    0.4458    0.9717 C   0  0  0  0  0  0  0  0  0  0  0  0
   -1.5162    0.3117    0.7501 C   0  0  0  0  0  0  0  0  0  0  0  0
   -0.9976   -0.9145    1.3669 C   0  0  0  0  0  0  0  0  0  0  0  0
   -1.8448   -1.6926    1.9296 O   0  0  0  0  0  0  0  0  0  0  0  0
    0.3305   -1.3004    1.3960 N   0  0  0  0  0  0  0  0  0  0  0  0
    1.3437   -0.4813    0.8024 C   0  0  0  0  0  0  0  0  0  0  0  0
    2.6335   -0.7654    0.8127 N   0  0  0  0  0  0  0  0  0  0  0  0
    3.4862    0.0343    0.2494 C   0  0  0  0  0  0  0  0  0  0  0  0
    2.9815    1.1667   -0.3457 C   0  0  0  0  0  0  0  0  0  0  0  0
    1.3052    0.9948   -0.0462 S   0  0  0  0  0  0  0  0  0  0  0  0
    4.9394   -0.2510    0.2654 C   0  0  0  0  0  0  0  0  0  0  0  0
    5.4668   -1.3458    0.9130 C   0  0  0  0  0  0  0  0  0  0  0  0
    6.8130   -1.6306    0.9369 C   0  0  0  0  0  0  0  0  0  0  0  0
    7.2733   -2.7130    1.5867 F   0  0  0  0  0  0  0  0  0  0  0  0
    7.6666   -0.7686    0.2757 C   0  0  0  0  0  0  0  0  0  0  0  0
    7.1825    0.3271   -0.3771 C   0  0  0  0  0  0  0  0  0  0  0  0
    5.8223    0.5838   -0.3817 C   0  0  0  0  0  0  0  0  0  0  0  0
    8.1477    1.2163   -1.0665 C   0  0  0  0  0  0  0  0  0  0  0  0
    7.5389    2.2781   -1.7049 F   0  0  0  0  0  0  0  0  0  0  0  0
    9.0553    1.6868   -0.1306 F   0  0  0  0  0  0  0  0  0  0  0  0
    8.8611    0.5115   -2.0121 F   0  0  0  0  0  0  0  0  0  0  0  0
   -3.9583    0.2257    0.0492 C   0  0  0  0  0  0  0  0  0  0  0  0
   -3.9657   -0.1657   -1.2912 C   0  0  0  0  0  0  0  0  0  0  0  0
   -2.8843   -0.3999   -1.9003 O   0  0  0  0  0  0  0  0  0  0  0  0
   -5.1610   -0.2797   -1.8911 N   0  0  0  0  0  0  0  0  0  0  0  0
   -5.1681   -0.6840   -3.2853 C   0  0  0  0  0  0  0  0  0  0  0  0
   -6.3052   -0.0273   -1.2290 C   0  0  0  0  0  0  0  0  0  0  0  0
   -7.4045   -0.1531   -1.8559 O   0  0  0  0  0  0  0  0  0  0  0  0
   -8.4366    0.5984    0.0180 H   0  0  0  0  0  0  0  0  0  0  0  0
   -7.8311   -0.1581    1.5008 H   0  0  0  0  0  0  0  0  0  0  0  0
   -7.5337    1.6177    1.1772 H   0  0  0  0  0  0  0  0  0  0  0  0
   -1.2701    0.4113   -0.3295 H   0  0  0  0  0  0  0  0  0  0  0  0
   -1.0335    1.1687    1.3021 H   0  0  0  0  0  0  0  0  0  0  0  0
    0.6803   -2.1955    1.8525 H   0  0  0  0  0  0  0  0  0  0  0  0
    3.5295    1.9702   -0.8739 H   0  0  0  0  0  0  0  0  0  0  0  0
    4.8157   -2.0450    1.4475 H   0  0  0  0  0  0  0  0  0  0  0  0
    8.7231   -1.0024    0.3019 H   0  0  0  0  0  0  0  0  0  0  0  0
    5.4642    1.4402   -0.8935 H   0  0  0  0  0  0  0  0  0  0  0  0
   -6.1657   -1.1117   -3.5055 H   0  0  0  0  0  0  0  0  0  0  0  0
   -4.9216    0.2027   -3.8915 H   0  0  0  0  0  0  0  0  0  0  0  0
   -4.3436   -1.4175   -3.4215 H   0  0  0  0  0  0  0  0  0  0  0  0
  1  2  1  0
  2  3  1  0
  3  4  1  0
  4  5  1  0
  5  6  1  0
  5  7  2  0
  7  8  1  0
  8  9  1  0
  9 10  2  0
  9 11  1  0
 11 12  1  0
 12 13  2  0
 13 14  1  0
 14 15  2  0
 15 16  1  0
 14 17  1  0
 17 18  2  0
 18 19  1  0
 19 20  1  0
 19 21  2  0
 21 22  1  0
 22 23  2  0
 22 24  1  0
 24 25  1  0
 24 26  1  0
 24 27  1  0
  7 28  1  0
 28 29  1  0
 29 30  2  0
 29 31  1  0
 31 32  1  0
 31 33  1  0
 33 34  2  0
 33  2  1  0
 28  3  2  0
 16 12  1  0
 23 17  1  0
  1 35  1  0
  1 36  1  0
  1 37  1  0
  8 38  1  0
  8 39  1  0
 11 40  1  0
 15 41  1  0
 18 42  1  0
 21 43  1  0
 23 44  1  0
 32 45  1  0
 32 46  1  0
 32 47  1  0
M  END
$$$$
[H]c1c(C([H])([H])n2c(=O)c3c(nc([H])n3C([H])([H])C(=O)N([H])c3nc(N4C([H])([H])C5([H])C([H])([H])C5([H])C4([H])[H])c([H])c([H])c3[H])n(C([H])([H])[H])c2=O)noc1C([H])([H])[H]
     RDKit          3D

 59 64  0  0  0  0  0  0  0  0999 V2000
   -3.4150    3.3579    2.4263 C   0  0  0  0  0  0  0  0  0  0  0  0
   -4.2601    2.2298    1.9300 C   0  0  0  0  0  0  0  0  0  0  0  0
   -3.8913    0.9119    1.8538 C   0  0  0  0  0  0  0  0  0  0  0  0
   -4.9674    0.1980    1.3386 C   0  0  0  0  0  0  0  0  0  0  0  0
   -5.0441   -1.2622    1.0740 C   0  0  0  0  0  0  0  0  0  0  0  0
   -4.5953   -1.5539   -0.2908 N   0  0  0  0  0  0  0  0  0  0  0  0
   -5.4906   -1.5600   -1.3110 C   0  0  0  0  0  0  0  0  0  0  0  0
   -6.7079   -1.3125   -1.0695 O   0  0  0  0  0  0  0  0  0  0  0  0
   -5.1142   -1.8232   -2.5746 N   0  0  0  0  0  0  0  0  0  0  0  0
   -6.0669   -1.8304   -3.6649 C   0  0  0  0  0  0  0  0  0  0  0  0
   -3.8117   -2.0813   -2.7909 C   0  0  0  0  0  0  0  0  0  0  0  0
   -3.1322   -2.3758   -3.9221 N   0  0  0  0  0  0  0  0  0  0  0  0
   -1.8402   -2.5463   -3.5919 C   0  0  0  0  0  0  0  0  0  0  0  0
   -1.6503   -2.3738   -2.2845 N   0  0  0  0  0  0  0  0  0  0  0  0
   -0.4275   -2.4703   -1.5562 C   0  0  0  0  0  0  0  0  0  0  0  0
    0.2702   -1.1180   -1.4994 C   0  0  0  0  0  0  0  0  0  0  0  0
   -0.3057   -0.1881   -2.0679 O   0  0  0  0  0  0  0  0  0  0  0  0
    1.4895   -0.9814   -0.8325 N   0  0  0  0  0  0  0  0  0  0  0  0
    2.2665    0.1912   -0.6841 C   0  0  0  0  0  0  0  0  0  0  0  0
    1.9376    1.4209   -1.1869 C   0  0  0  0  0  0  0  0  0  0  0  0
    2.7873    2.5072   -0.9746 C   0  0  0  0  0  0  0  0  0  0  0  0
    3.9485    2.3254   -0.2598 C   0  0  0  0  0  0  0  0  0  0  0  0
    4.2890    1.0837    0.2528 C   0  0  0  0  0  0  0  0  0  0  0  0
    3.4313    0.0962    0.0106 N   0  0  0  0  0  0  0  0  0  0  0  0
    5.4856    0.9328    0.9815 N   0  0  0  0  0  0  0  0  0  0  0  0
    6.4301    1.9632    1.3046 C   0  0  0  0  0  0  0  0  0  0  0  0
    6.7180    1.6561    2.7823 C   0  0  0  0  0  0  0  0  0  0  0  0
    7.8231    0.7449    3.0770 C   0  0  0  0  0  0  0  0  0  0  0  0
    6.5100    0.1293    2.8831 C   0  0  0  0  0  0  0  0  0  0  0  0
    6.0001   -0.2917    1.5453 C   0  0  0  0  0  0  0  0  0  0  0  0
   -2.8654   -2.0849   -1.7762 C   0  0  0  0  0  0  0  0  0  0  0  0
   -3.3068   -1.8070   -0.4901 C   0  0  0  0  0  0  0  0  0  0  0  0
   -2.4394   -1.8132    0.4212 O   0  0  0  0  0  0  0  0  0  0  0  0
   -5.9204    1.1318    1.1356 N   0  0  0  0  0  0  0  0  0  0  0  0
   -5.4929    2.3044    1.4841 O   0  0  0  0  0  0  0  0  0  0  0  0
   -3.8877    4.3260    2.2372 H   0  0  0  0  0  0  0  0  0  0  0  0
   -3.1487    3.1751    3.4863 H   0  0  0  0  0  0  0  0  0  0  0  0
   -2.4401    3.3709    1.8632 H   0  0  0  0  0  0  0  0  0  0  0  0
   -2.9353    0.5004    2.1424 H   0  0  0  0  0  0  0  0  0  0  0  0
   -6.0945   -1.6369    1.2046 H   0  0  0  0  0  0  0  0  0  0  0  0
   -4.4051   -1.8506    1.7489 H   0  0  0  0  0  0  0  0  0  0  0  0
   -6.0185   -2.7964   -4.2403 H   0  0  0  0  0  0  0  0  0  0  0  0
   -5.8377   -1.0359   -4.3867 H   0  0  0  0  0  0  0  0  0  0  0  0
   -7.0887   -1.7286   -3.2556 H   0  0  0  0  0  0  0  0  0  0  0  0
   -1.0779   -2.7910   -4.3150 H   0  0  0  0  0  0  0  0  0  0  0  0
   -0.4852   -2.9341   -0.5738 H   0  0  0  0  0  0  0  0  0  0  0  0
    0.2797   -3.0990   -2.1699 H   0  0  0  0  0  0  0  0  0  0  0  0
    1.8934   -1.8650   -0.3748 H   0  0  0  0  0  0  0  0  0  0  0  0
    1.0405    1.5652   -1.7402 H   0  0  0  0  0  0  0  0  0  0  0  0
    2.5153    3.4910   -1.3819 H   0  0  0  0  0  0  0  0  0  0  0  0
    4.5573    3.2167   -0.1376 H   0  0  0  0  0  0  0  0  0  0  0  0
    7.4073    1.7936    0.7726 H   0  0  0  0  0  0  0  0  0  0  0  0
    6.0597    2.9810    1.1777 H   0  0  0  0  0  0  0  0  0  0  0  0
    6.1859    2.2425    3.5390 H   0  0  0  0  0  0  0  0  0  0  0  0
    8.2333    0.7598    4.1018 H   0  0  0  0  0  0  0  0  0  0  0  0
    8.5940    0.6060    2.2943 H   0  0  0  0  0  0  0  0  0  0  0  0
    5.9644   -0.2332    3.7782 H   0  0  0  0  0  0  0  0  0  0  0  0
    6.8393   -0.7109    0.9560 H   0  0  0  0  0  0  0  0  0  0  0  0
    5.2080   -1.0571    1.6003 H   0  0  0  0  0  0  0  0  0  0  0  0
  1  2  1  0
  2  3  2  0
  3  4  1  0
  4  5  1  0
  5  6  1  0
  6  7  1  0
  7  8  2  0
  7  9  1  0
  9 10  1  0
  9 11  1  0
 11 12  1  0
 12 13  2  0
 13 14  1  0
 14 15  1  0
 15 16  1  0
 16 17  2  0
 16 18  1  0
 18 19  1  0
 19 20  2  0
 20 21  1  0
 21 22  2  0
 22 23  1  0
 23 24  2  0
 23 25  1  0
 25 26  1  0
 26 27  1  0
 27 28  1  0
 28 29  1  0
 29 30  1  0
 14 31  1  0
 31 32  1  0
 32 33  2  0
  4 34  2  0
 34 35  1  0
 35  2  1  0
 32  6  1  0
 31 11  2  0
 24 19  1  0
 30 25  1  0
 29 27  1  0
  1 36  1  0
  1 37  1  0
  1 38  1  0
  3 39  1  0
  5 40  1  0
  5 41  1  0
 10 42  1  0
 10 43  1  0
 10 44  1  0
 13 45  1  0
 15 46  1  0
 15 47  1  0
 18 48  1  0
 20 49  1  0
 21 50  1  0
 22 51  1  0
 26 52  1  0
 26 53  1  0
 27 54  1  0
 28 55  1  0
 28 56  1  0
 29 57  1  0
 30 58  1  0
 30 59  1  0
M  END
$$$$
[H]c1nc(-c2c([H])nc(N3C([H])([H])C4([H])C([H])([H])C4([H])C3([H])[H])c([H])c2[H])nc(N([H])C(=O)[C@@]([H])(n2c([H])nc3c2c(=O)n(C([H])([H])C(=O)C([H])([H])C([H])([H])[H])c(=O)n3C([H])([H])[H])C([H])([H])[H])c1[H]
     RDKit          3D

 69 74  0  0  0  0  0  0  0  0999 V2000
   -7.0407    4.1661   -0.1763 C   0  0  0  0  0  0  0  0  0  0  0  0
   -7.4298    3.1105    0.8052 C   0  0  0  0  0  0  0  0  0  0  0  0
   -6.9993    1.7411    0.3971 C   0  0  0  0  0  0  0  0  0  0  0  0
   -7.2825    0.8362    1.1470 O   0  0  0  0  0  0  0  0  0  0  0  0
   -6.2654    1.4636   -0.8468 C   0  0  0  0  0  0  0  0  0  0  0  0
   -6.0076    0.0435   -0.9327 N   0  0  0  0  0  0  0  0  0  0  0  0
   -6.8981   -0.7580   -1.5341 C   0  0  0  0  0  0  0  0  0  0  0  0
   -7.9541   -0.2840   -2.0232 O   0  0  0  0  0  0  0  0  0  0  0  0
   -6.7214   -2.0850   -1.6483 N   0  0  0  0  0  0  0  0  0  0  0  0
   -7.6805   -2.9499   -2.2961 C   0  0  0  0  0  0  0  0  0  0  0  0
   -5.6005   -2.6182   -1.1338 C   0  0  0  0  0  0  0  0  0  0  0  0
   -5.0949   -3.8671   -1.0611 N   0  0  0  0  0  0  0  0  0  0  0  0
   -3.9018   -3.8293   -0.4186 C   0  0  0  0  0  0  0  0  0  0  0  0
   -3.6392   -2.5653   -0.0790 N   0  0  0  0  0  0  0  0  0  0  0  0
   -2.4207   -2.1569    0.6349 C   0  0  1  0  0  0  0  0  0  0  0  0
   -1.9970   -3.3736    1.4874 C   0  0  0  0  0  0  0  0  0  0  0  0
   -1.3771   -1.9866   -0.3789 C   0  0  0  0  0  0  0  0  0  0  0  0
   -1.7021   -2.4160   -1.6023 O   0  0  0  0  0  0  0  0  0  0  0  0
   -0.1092   -1.4665   -0.3081 N   0  0  0  0  0  0  0  0  0  0  0  0
    0.6134   -0.8775    0.7185 C   0  0  0  0  0  0  0  0  0  0  0  0
    0.1916   -0.5859    1.9804 C   0  0  0  0  0  0  0  0  0  0  0  0
    1.0304   -0.0067    2.9452 C   0  0  0  0  0  0  0  0  0  0  0  0
    2.2908    0.2664    2.6027 N   0  0  0  0  0  0  0  0  0  0  0  0
    2.7496   -0.0024    1.3726 C   0  0  0  0  0  0  0  0  0  0  0  0
    1.9381   -0.5496    0.4797 N   0  0  0  0  0  0  0  0  0  0  0  0
    4.1476    0.3164    1.0410 C   0  0  0  0  0  0  0  0  0  0  0  0
    4.9953    0.8838    1.9621 C   0  0  0  0  0  0  0  0  0  0  0  0
    6.2936    1.1566    1.5866 C   0  0  0  0  0  0  0  0  0  0  0  0
    6.7836    0.8816    0.3129 C   0  0  0  0  0  0  0  0  0  0  0  0
    5.9127    0.3269   -0.5489 N   0  0  0  0  0  0  0  0  0  0  0  0
    4.6396    0.0467   -0.2186 C   0  0  0  0  0  0  0  0  0  0  0  0
    8.1288    1.1747   -0.0434 N   0  0  0  0  0  0  0  0  0  0  0  0
    9.1147    1.7707    0.8365 C   0  0  0  0  0  0  0  0  0  0  0  0
   10.4580    1.5157    0.1880 C   0  0  0  0  0  0  0  0  0  0  0  0
   10.7860    2.4138   -0.9643 C   0  0  0  0  0  0  0  0  0  0  0  0
   10.1888    1.0722   -1.2020 C   0  0  0  0  0  0  0  0  0  0  0  0
    8.6977    0.9154   -1.3389 C   0  0  0  0  0  0  0  0  0  0  0  0
   -4.6407   -1.8172   -0.4955 C   0  0  0  0  0  0  0  0  0  0  0  0
   -4.8884   -0.4830   -0.4181 C   0  0  0  0  0  0  0  0  0  0  0  0
   -4.0503    0.2625    0.1462 O   0  0  0  0  0  0  0  0  0  0  0  0
   -7.1262    3.8037   -1.2289 H   0  0  0  0  0  0  0  0  0  0  0  0
   -7.7846    5.0126   -0.1080 H   0  0  0  0  0  0  0  0  0  0  0  0
   -6.0553    4.6106    0.0045 H   0  0  0  0  0  0  0  0  0  0  0  0
   -6.9513    3.3005    1.7999 H   0  0  0  0  0  0  0  0  0  0  0  0
   -8.5356    3.1189    1.0205 H   0  0  0  0  0  0  0  0  0  0  0  0
   -5.2698    1.9713   -0.7607 H   0  0  0  0  0  0  0  0  0  0  0  0
   -6.7935    1.8273   -1.7528 H   0  0  0  0  0  0  0  0  0  0  0  0
   -7.2157   -3.8106   -2.7971 H   0  0  0  0  0  0  0  0  0  0  0  0
   -8.2580   -2.3067   -3.0109 H   0  0  0  0  0  0  0  0  0  0  0  0
   -8.4200   -3.2515   -1.5095 H   0  0  0  0  0  0  0  0  0  0  0  0
   -3.3100   -4.7293   -0.2453 H   0  0  0  0  0  0  0  0  0  0  0  0
   -2.6244   -1.3423    1.3053 H   0  0  0  0  0  0  0  0  0  0  0  0
   -1.7721   -2.9772    2.4940 H   0  0  0  0  0  0  0  0  0  0  0  0
   -2.8583   -4.0666    1.6262 H   0  0  0  0  0  0  0  0  0  0  0  0
   -1.0999   -3.8560    1.1035 H   0  0  0  0  0  0  0  0  0  0  0  0
    0.4627   -1.4829   -1.2682 H   0  0  0  0  0  0  0  0  0  0  0  0
   -0.8002   -0.7680    2.2993 H   0  0  0  0  0  0  0  0  0  0  0  0
    0.6877    0.2198    3.9410 H   0  0  0  0  0  0  0  0  0  0  0  0
    4.6271    1.1024    2.9550 H   0  0  0  0  0  0  0  0  0  0  0  0
    7.0011    1.6043    2.2775 H   0  0  0  0  0  0  0  0  0  0  0  0
    3.9436   -0.4067   -0.9376 H   0  0  0  0  0  0  0  0  0  0  0  0
    8.9898    2.8779    0.9218 H   0  0  0  0  0  0  0  0  0  0  0  0
    9.0709    1.3307    1.8636 H   0  0  0  0  0  0  0  0  0  0  0  0
   11.2528    0.9987    0.7431 H   0  0  0  0  0  0  0  0  0  0  0  0
   11.8490    2.5253   -1.1973 H   0  0  0  0  0  0  0  0  0  0  0  0
   10.1801    3.3405   -1.0989 H   0  0  0  0  0  0  0  0  0  0  0  0
   10.8040    0.3168   -1.7151 H   0  0  0  0  0  0  0  0  0  0  0  0
    8.4860   -0.1598   -1.5704 H   0  0  0  0  0  0  0  0  0  0  0  0
    8.2612    1.5106   -2.1489 H   0  0  0  0  0  0  0  0  0  0  0  0
  1  2  1  0
  2  3  1  0
  3  4  2  0
  3  5  1  0
  5  6  1  0
  6  7  1  0
  7  8  2  0
  7  9  1  0
  9 10  1  0
  9 11  1  0
 11 12  1  0
 12 13  2  0
 13 14  1  0
 14 15  1  0
 15 16  1  0
 15 17  1  0
 17 18  2  0
 17 19  1  0
 19 20  1  0
 20 21  2  0
 21 22  1  0
 22 23  2  0
 23 24  1  0
 24 25  2  0
 24 26  1  0
 26 27  2  0
 27 28  1  0
 28 29  2  0
 29 30  1  0
 30 31  2  0
 29 32  1  0
 32 33  1  0
 33 34  1  0
 34 35  1  0
 35 36  1  0
 36 37  1  0
 14 38  1  0
 38 39  1  0
 39 40  2  0
 39  6  1  0
 38 11  2  0
 25 20  1  0
 31 26  1  0
 37 32  1  0
 36 34  1  0
  1 41  1  0
  1 42  1  0
  1 43  1  0
  2 44  1  0
  2 45  1  0
  5 46  1  0
  5 47  1  0
 10 48  1  0
 10 49  1  0
 10 50  1  0
 13 51  1  0
 15 52  1  1
 16 53  1  0
 16 54  1  0
 16 55  1  0
 19 56  1  0
 21 57  1  0
 22 58  1  0
 27 59  1  0
 28 60  1  0
 31 61  1  0
 33 62  1  0
 33 63  1  0
 34 64  1  0
 35 65  1  0
 35 66  1  0
 36 67  1  0
 37 68  1  0
 37 69  1  0
M  END
$$$$
[H]c1nc([H])c(N([H])C(=O)[C@@]([H])(n2c([H])nc3c2c(=O)n(C([H])([H])c2nc(C([H])([H])[H])no2)c(=O)n3C([H])([H])[H])C([H])([H])[H])nc1-c1c([H])nc(C(F)(F)F)c(C([H])([H])[H])c1[H]
     RDKit          3D

 62 66  0  0  0  0  0  0  0  0999 V2000
   -0.0409    0.0179    0.6940 C   0  0  0  0  0  0  0  0  0  0  0  0
   -0.3662   -1.3500    0.2197 C   0  0  1  0  0  0  0  0  0  0  0  0
   -0.3009   -2.4521    1.1718 C   0  0  0  0  0  0  0  0  0  0  0  0
   -1.4393   -3.0586    1.4430 O   0  0  0  0  0  0  0  0  0  0  0  0
    0.8026   -2.9304    1.8210 N   0  0  0  0  0  0  0  0  0  0  0  0
    2.1537   -2.5787    1.6799 C   0  0  0  0  0  0  0  0  0  0  0  0
    3.1134   -3.1393    2.5573 C   0  0  0  0  0  0  0  0  0  0  0  0
    4.4037   -2.8660    2.4284 N   0  0  0  0  0  0  0  0  0  0  0  0
    4.8620   -2.0428    1.4568 C   0  0  0  0  0  0  0  0  0  0  0  0
    3.9642   -1.4731    0.5777 C   0  0  0  0  0  0  0  0  0  0  0  0
    2.6739   -1.7753    0.7443 N   0  0  0  0  0  0  0  0  0  0  0  0
    4.4178   -0.5974   -0.4941 C   0  0  0  0  0  0  0  0  0  0  0  0
    3.5117   -0.0889   -1.3998 C   0  0  0  0  0  0  0  0  0  0  0  0
    3.8949    0.7232   -2.3936 N   0  0  0  0  0  0  0  0  0  0  0  0
    5.1936    1.0980   -2.5751 C   0  0  0  0  0  0  0  0  0  0  0  0
    6.1330    0.6121   -1.6914 C   0  0  0  0  0  0  0  0  0  0  0  0
    7.5481    0.9756   -1.8161 C   0  0  0  0  0  0  0  0  0  0  0  0
    5.7313   -0.2407   -0.6475 C   0  0  0  0  0  0  0  0  0  0  0  0
    5.5152    1.9855   -3.6992 C   0  0  0  0  0  0  0  0  0  0  0  0
    6.1055    3.1324   -3.1676 F   0  0  0  0  0  0  0  0  0  0  0  0
    4.3156    2.4054   -4.3017 F   0  0  0  0  0  0  0  0  0  0  0  0
    6.2475    1.4206   -4.7004 F   0  0  0  0  0  0  0  0  0  0  0  0
   -1.5392   -1.4145   -0.6446 N   0  0  0  0  0  0  0  0  0  0  0  0
   -1.5900   -1.8873   -1.9304 C   0  0  0  0  0  0  0  0  0  0  0  0
   -2.8116   -1.8034   -2.4267 N   0  0  0  0  0  0  0  0  0  0  0  0
   -3.5853   -1.2698   -1.4646 C   0  0  0  0  0  0  0  0  0  0  0  0
   -4.8793   -0.9667   -1.4196 N   0  0  0  0  0  0  0  0  0  0  0  0
   -5.6867   -1.2344   -2.6065 C   0  0  0  0  0  0  0  0  0  0  0  0
   -5.4665   -0.4293   -0.3353 C   0  0  0  0  0  0  0  0  0  0  0  0
   -6.7037   -0.1605   -0.3483 O   0  0  0  0  0  0  0  0  0  0  0  0
   -4.7318   -0.1802    0.7595 N   0  0  0  0  0  0  0  0  0  0  0  0
   -5.3188    0.4007    1.9601 C   0  0  0  0  0  0  0  0  0  0  0  0
   -5.2548    1.8840    1.9264 C   0  0  0  0  0  0  0  0  0  0  0  0
   -4.2499    2.6702    2.4009 N   0  0  0  0  0  0  0  0  0  0  0  0
   -4.5625    3.9627    2.1848 C   0  0  0  0  0  0  0  0  0  0  0  0
   -3.7684    5.1706    2.5338 C   0  0  0  0  0  0  0  0  0  0  0  0
   -5.7651    3.9465    1.5757 N   0  0  0  0  0  0  0  0  0  0  0  0
   -6.1540    2.7131    1.4334 O   0  0  0  0  0  0  0  0  0  0  0  0
   -3.4050   -0.4843    0.7311 C   0  0  0  0  0  0  0  0  0  0  0  0
   -2.8039   -0.2134    1.8058 O   0  0  0  0  0  0  0  0  0  0  0  0
   -2.7665   -1.0310   -0.3479 C   0  0  0  0  0  0  0  0  0  0  0  0
    0.0300    0.1662    1.7763 H   0  0  0  0  0  0  0  0  0  0  0  0
   -0.7946    0.7152    0.1942 H   0  0  0  0  0  0  0  0  0  0  0  0
    0.9245    0.4543    0.2930 H   0  0  0  0  0  0  0  0  0  0  0  0
    0.4873   -1.5896   -0.5091 H   0  0  0  0  0  0  0  0  0  0  0  0
    0.6239   -3.7535    2.5060 H   0  0  0  0  0  0  0  0  0  0  0  0
    2.7498   -3.7924    3.3301 H   0  0  0  0  0  0  0  0  0  0  0  0
    5.9199   -1.8784    1.4265 H   0  0  0  0  0  0  0  0  0  0  0  0
    2.4724   -0.3479   -1.3166 H   0  0  0  0  0  0  0  0  0  0  0  0
    7.8031    1.3527   -2.8116 H   0  0  0  0  0  0  0  0  0  0  0  0
    7.8837    1.7221   -1.0460 H   0  0  0  0  0  0  0  0  0  0  0  0
    8.1542    0.0388   -1.6777 H   0  0  0  0  0  0  0  0  0  0  0  0
    6.5001   -0.5977    0.0220 H   0  0  0  0  0  0  0  0  0  0  0  0
   -0.7379   -2.2722   -2.4494 H   0  0  0  0  0  0  0  0  0  0  0  0
   -5.9137   -2.3314   -2.6209 H   0  0  0  0  0  0  0  0  0  0  0  0
   -5.1252   -1.0159   -3.5223 H   0  0  0  0  0  0  0  0  0  0  0  0
   -6.6479   -0.7015   -2.5250 H   0  0  0  0  0  0  0  0  0  0  0  0
   -4.7725    0.0020    2.8591 H   0  0  0  0  0  0  0  0  0  0  0  0
   -6.3782    0.0512    2.0772 H   0  0  0  0  0  0  0  0  0  0  0  0
   -3.2169    4.9127    3.4848 H   0  0  0  0  0  0  0  0  0  0  0  0
   -4.4013    6.0541    2.6949 H   0  0  0  0  0  0  0  0  0  0  0  0
   -2.9585    5.3608    1.7875 H   0  0  0  0  0  0  0  0  0  0  0  0
  1  2  1  0
  2  3  1  0
  3  4  2  0
  3  5  1  0
  5  6  1  0
  6  7  2  0
  7  8  1  0
  8  9  2  0
  9 10  1  0
 10 11  2  0
 10 12  1  0
 12 13  2  0
 13 14  1  0
 14 15  2  0
 15 16  1  0
 16 17  1  0
 16 18  2  0
 15 19  1  0
 19 20  1  0
 19 21  1  0
 19 22  1  0
  2 23  1  0
 23 24  1  0
 24 25  2  0
 25 26  1  0
 26 27  1  0
 27 28  1  0
 27 29  1  0
 29 30  2  0
 29 31  1  0
 31 32  1  0
 32 33  1  0
 33 34  2  0
 34 35  1  0
 35 36  1  0
 35 37  2  0
 37 38  1  0
 31 39  1  0
 39 40  2  0
 39 41  1  0
 11  6  1  0
 18 12  1  0
 41 23  1  0
 41 26  2  0
 38 33  1  0
  1 42  1  0
  1 43  1  0
  1 44  1  0
  2 45  1  6
  5 46  1  0
  7 47  1  0
  9 48  1  0
 13 49  1  0
 17 50  1  0
 17 51  1  0
 17 52  1  0
 18 53  1  0
 24 54  1  0
 28 55  1  0
 28 56  1  0
 28 57  1  0
 32 58  1  0
 32 59  1  0
 36 60  1  0
 36 61  1  0
 36 62  1  0
M  END
$$$$
[H]c1nc(C([H])([H])[H])c(C(F)(F)F)c([H])c1-c1nc(N([H])C(=O)C([H])([H])n2c([H])nc3c2c(=O)n(C([H])([H])c2noc(C([H])([H])[H])n2)c(=O)n3C([H])([H])[H])c([H])c([H])c1[H]
     RDKit          3D

 60 64  0  0  0  0  0  0  0  0999 V2000
   -9.0226    1.5351    2.1433 C   0  0  0  0  0  0  0  0  0  0  0  0
   -8.3891    0.8848    0.9733 C   0  0  0  0  0  0  0  0  0  0  0  0
   -7.2404    1.2445    0.3804 N   0  0  0  0  0  0  0  0  0  0  0  0
   -7.0051    0.3894   -0.6630 C   0  0  0  0  0  0  0  0  0  0  0  0
   -5.8479    0.4149   -1.5841 C   0  0  0  0  0  0  0  0  0  0  0  0
   -4.7971   -0.4320   -1.0219 N   0  0  0  0  0  0  0  0  0  0  0  0
   -4.7321   -1.7298   -1.3520 C   0  0  0  0  0  0  0  0  0  0  0  0
   -5.5741   -2.2161   -2.1590 O   0  0  0  0  0  0  0  0  0  0  0  0
   -3.7776   -2.5367   -0.8365 N   0  0  0  0  0  0  0  0  0  0  0  0
   -3.7673   -3.9247   -1.2372 C   0  0  0  0  0  0  0  0  0  0  0  0
   -2.8759   -2.0366    0.0218 C   0  0  0  0  0  0  0  0  0  0  0  0
   -1.8341   -2.5751    0.6961 N   0  0  0  0  0  0  0  0  0  0  0  0
   -1.2551   -1.6284    1.4371 C   0  0  0  0  0  0  0  0  0  0  0  0
   -1.9109   -0.4442    1.2609 N   0  0  0  0  0  0  0  0  0  0  0  0
   -1.5440    0.7906    1.8990 C   0  0  0  0  0  0  0  0  0  0  0  0
   -0.4978    1.5105    1.0862 C   0  0  0  0  0  0  0  0  0  0  0  0
   -0.8843    2.5256    0.4964 O   0  0  0  0  0  0  0  0  0  0  0  0
    0.8178    1.0421    1.0194 N   0  0  0  0  0  0  0  0  0  0  0  0
    1.9298    1.5922    0.3481 C   0  0  0  0  0  0  0  0  0  0  0  0
    1.9254    2.7750   -0.3453 C   0  0  0  0  0  0  0  0  0  0  0  0
    3.0604    3.2695   -1.0072 C   0  0  0  0  0  0  0  0  0  0  0  0
    4.2008    2.5040   -0.9313 C   0  0  0  0  0  0  0  0  0  0  0  0
    4.2354    1.3142   -0.2450 C   0  0  0  0  0  0  0  0  0  0  0  0
    3.1194    0.9241    0.3500 N   0  0  0  0  0  0  0  0  0  0  0  0
    5.4143    0.4488   -0.1484 C   0  0  0  0  0  0  0  0  0  0  0  0
    5.3483   -0.7630    0.5158 C   0  0  0  0  0  0  0  0  0  0  0  0
    6.4101   -1.5794    0.6183 N   0  0  0  0  0  0  0  0  0  0  0  0
    7.6146   -1.2921    0.0899 C   0  0  0  0  0  0  0  0  0  0  0  0
    8.7507   -2.2438    0.2371 C   0  0  0  0  0  0  0  0  0  0  0  0
    7.7265   -0.0939   -0.5809 C   0  0  0  0  0  0  0  0  0  0  0  0
    6.6300    0.7711   -0.6982 C   0  0  0  0  0  0  0  0  0  0  0  0
    9.0216    0.2692   -1.1783 C   0  0  0  0  0  0  0  0  0  0  0  0
    8.8947    1.5156   -1.7911 F   0  0  0  0  0  0  0  0  0  0  0  0
    9.4010   -0.5911   -2.1980 F   0  0  0  0  0  0  0  0  0  0  0  0
   10.0185    0.3930   -0.2259 F   0  0  0  0  0  0  0  0  0  0  0  0
   -2.8953   -0.6998    0.3992 C   0  0  0  0  0  0  0  0  0  0  0  0
   -3.8995    0.0678   -0.1672 C   0  0  0  0  0  0  0  0  0  0  0  0
   -3.9703    1.2660    0.1304 O   0  0  0  0  0  0  0  0  0  0  0  0
   -8.0340   -0.4617   -0.6578 N   0  0  0  0  0  0  0  0  0  0  0  0
   -8.8413   -0.1450    0.3245 O   0  0  0  0  0  0  0  0  0  0  0  0
   -9.5741    2.4636    1.8257 H   0  0  0  0  0  0  0  0  0  0  0  0
   -8.2340    1.8107    2.9032 H   0  0  0  0  0  0  0  0  0  0  0  0
   -9.7201    0.8651    2.6613 H   0  0  0  0  0  0  0  0  0  0  0  0
   -6.1057    0.1174   -2.6179 H   0  0  0  0  0  0  0  0  0  0  0  0
   -5.4925    1.4763   -1.6643 H   0  0  0  0  0  0  0  0  0  0  0  0
   -3.7283   -4.0061   -2.3577 H   0  0  0  0  0  0  0  0  0  0  0  0
   -2.9070   -4.4873   -0.8454 H   0  0  0  0  0  0  0  0  0  0  0  0
   -4.7184   -4.3798   -0.8975 H   0  0  0  0  0  0  0  0  0  0  0  0
   -0.4040   -1.7613    2.0771 H   0  0  0  0  0  0  0  0  0  0  0  0
   -2.4039    1.4411    2.1175 H   0  0  0  0  0  0  0  0  0  0  0  0
   -1.0430    0.6260    2.8847 H   0  0  0  0  0  0  0  0  0  0  0  0
    1.0255    0.1380    1.5790 H   0  0  0  0  0  0  0  0  0  0  0  0
    1.0309    3.3682   -0.3971 H   0  0  0  0  0  0  0  0  0  0  0  0
    3.0055    4.2088   -1.5384 H   0  0  0  0  0  0  0  0  0  0  0  0
    5.1004    2.8416   -1.4222 H   0  0  0  0  0  0  0  0  0  0  0  0
    4.3757   -1.0196    0.9546 H   0  0  0  0  0  0  0  0  0  0  0  0
    8.3784   -3.1026    0.8420 H   0  0  0  0  0  0  0  0  0  0  0  0
    9.1824   -2.5664   -0.7181 H   0  0  0  0  0  0  0  0  0  0  0  0
    9.5710   -1.8030    0.8614 H   0  0  0  0  0  0  0  0  0  0  0  0
    6.7379    1.7145   -1.2318 H   0  0  0  0  0  0  0  0  0  0  0  0
  1  2  1  0
  2  3  2  0
  3  4  1  0
  4  5  1  0
  5  6  1  0
  6  7  1  0
  7  8  2  0
  7  9  1  0
  9 10  1  0
  9 11  1  0
 11 12  1  0
 12 13  2  0
 13 14  1  0
 14 15  1  0
 15 16  1  0
 16 17  2  0
 16 18  1  0
 18 19  1  0
 19 20  2  0
 20 21  1  0
 21 22  2  0
 22 23  1  0
 23 24  2  0
 23 25  1  0
 25 26  2  0
 26 27  1  0
 27 28  2  0
 28 29  1  0
 28 30  1  0
 30 31  2  0
 30 32  1  0
 32 33  1  0
 32 34  1  0
 32 35  1  0
 14 36  1  0
 36 37  1  0
 37 38  2  0
  4 39  2  0
 39 40  1  0
 40  2  1  0
 37  6  1  0
 36 11  2  0
 24 19  1  0
 31 25  1  0
  1 41  1  0
  1 42  1  0
  1 43  1  0
  5 44  1  0
  5 45  1  0
 10 46  1  0
 10 47  1  0
 10 48  1  0
 13 49  1  0
 15 50  1  0
 15 51  1  0
 18 52  1  0
 20 53  1  0
 21 54  1  0
 22 55  1  0
 26 56  1  0
 29 57  1  0
 29 58  1  0
 29 59  1  0
 31 60  1  0
M  END
$$$$
