[H]c1nc(N([H])[H])nc(Oc2c([H])c([H])c(N([H])C(=O)c3nn(C([H])(C([H])([H])[H])C([H])([H])[H])c(C(=O)N([H])[H])c3C([H])([H])[H])c([H])c2Cl)c1[H]
     RDKit          3D

 50 52  0  0  0  0  0  0  0  0999 V2000
   -6.1813   -1.9005    0.1789 C   0  0  0  0  0  0  0  0  0  0  0  0
   -5.8038   -0.7045   -0.6480 C   0  0  0  0  0  0  0  0  0  0  0  0
   -5.6278   -1.2196   -2.0954 C   0  0  0  0  0  0  0  0  0  0  0  0
   -4.5556   -0.1022   -0.2338 N   0  0  0  0  0  0  0  0  0  0  0  0
   -3.4047   -0.2654   -0.8496 N   0  0  0  0  0  0  0  0  0  0  0  0
   -2.4226    0.4308   -0.2118 C   0  0  0  0  0  0  0  0  0  0  0  0
   -1.0244    0.4832   -0.6668 C   0  0  0  0  0  0  0  0  0  0  0  0
   -0.7991    0.3313   -1.9128 O   0  0  0  0  0  0  0  0  0  0  0  0
    0.0271    0.6856    0.2295 N   0  0  0  0  0  0  0  0  0  0  0  0
    1.4134    0.7699   -0.0404 C   0  0  0  0  0  0  0  0  0  0  0  0
    2.2782    1.2689    0.9522 C   0  0  0  0  0  0  0  0  0  0  0  0
    3.6315    1.3615    0.7576 C   0  0  0  0  0  0  0  0  0  0  0  0
    4.2065    0.9642   -0.4339 C   0  0  0  0  0  0  0  0  0  0  0  0
    5.5623    1.0780   -0.5788 O   0  0  0  0  0  0  0  0  0  0  0  0
    6.4371    0.0376   -0.7840 C   0  0  0  0  0  0  0  0  0  0  0  0
    7.7851    0.3813   -0.9268 C   0  0  0  0  0  0  0  0  0  0  0  0
    8.7023   -0.6274   -1.1345 C   0  0  0  0  0  0  0  0  0  0  0  0
    8.3427   -1.9142   -1.2028 N   0  0  0  0  0  0  0  0  0  0  0  0
    7.0287   -2.2352   -1.0624 C   0  0  0  0  0  0  0  0  0  0  0  0
    6.6336   -3.5968   -1.1327 N   0  0  0  0  0  0  0  0  0  0  0  0
    6.1372   -1.2575   -0.8607 N   0  0  0  0  0  0  0  0  0  0  0  0
    3.3711    0.4810   -1.3965 C   0  0  0  0  0  0  0  0  0  0  0  0
    4.0651   -0.0139   -2.9378 Cl  0  0  0  0  0  0  0  0  0  0  0  0
    1.9811    0.3788   -1.2133 C   0  0  0  0  0  0  0  0  0  0  0  0
   -3.0080    1.0558    0.8494 C   0  0  0  0  0  0  0  0  0  0  0  0
   -2.3973    1.9930    1.8280 C   0  0  0  0  0  0  0  0  0  0  0  0
   -4.3691    0.7082    0.8305 C   0  0  0  0  0  0  0  0  0  0  0  0
   -5.3933    1.1114    1.7612 C   0  0  0  0  0  0  0  0  0  0  0  0
   -5.1405    1.8674    2.9275 N   0  0  0  0  0  0  0  0  0  0  0  0
   -6.6019    0.7963    1.5738 O   0  0  0  0  0  0  0  0  0  0  0  0
   -6.0185   -2.8664   -0.3661 H   0  0  0  0  0  0  0  0  0  0  0  0
   -7.2519   -1.8528    0.4006 H   0  0  0  0  0  0  0  0  0  0  0  0
   -5.6527   -1.9105    1.1623 H   0  0  0  0  0  0  0  0  0  0  0  0
   -6.6395   -0.0070   -0.6863 H   0  0  0  0  0  0  0  0  0  0  0  0
   -5.5969   -0.3014   -2.7201 H   0  0  0  0  0  0  0  0  0  0  0  0
   -6.4632   -1.8567   -2.3805 H   0  0  0  0  0  0  0  0  0  0  0  0
   -4.6767   -1.7984   -2.1484 H   0  0  0  0  0  0  0  0  0  0  0  0
   -0.2235    0.7485    1.2738 H   0  0  0  0  0  0  0  0  0  0  0  0
    1.8655    1.5943    1.9091 H   0  0  0  0  0  0  0  0  0  0  0  0
    4.2889    1.7541    1.5458 H   0  0  0  0  0  0  0  0  0  0  0  0
    8.0905    1.4266   -0.8730 H   0  0  0  0  0  0  0  0  0  0  0  0
    9.7436   -0.2967   -1.2390 H   0  0  0  0  0  0  0  0  0  0  0  0
    6.7649   -4.2875   -0.3670 H   0  0  0  0  0  0  0  0  0  0  0  0
    6.1817   -3.9303   -2.0082 H   0  0  0  0  0  0  0  0  0  0  0  0
    1.4252   -0.0286   -2.0416 H   0  0  0  0  0  0  0  0  0  0  0  0
   -1.5561    2.5651    1.3045 H   0  0  0  0  0  0  0  0  0  0  0  0
   -1.9689    1.5325    2.7091 H   0  0  0  0  0  0  0  0  0  0  0  0
   -3.0950    2.8499    2.0791 H   0  0  0  0  0  0  0  0  0  0  0  0
   -4.6148    1.4645    3.7544 H   0  0  0  0  0  0  0  0  0  0  0  0
   -5.4763    2.8536    2.9894 H   0  0  0  0  0  0  0  0  0  0  0  0
  1  2  1  0
  2  3  1  0
  2  4  1  0
  4  5  1  0
  5  6  2  0
  6  7  1  0
  7  8  2  0
  7  9  1  0
  9 10  1  0
 10 11  2  0
 11 12  1  0
 12 13  2  0
 13 14  1  0
 14 15  1  0
 15 16  2  0
 16 17  1  0
 17 18  2  0
 18 19  1  0
 19 20  1  0
 19 21  2  0
 13 22  1  0
 22 23  1  0
 22 24  2  0
  6 25  1  0
 25 26  1  0
 25 27  2  0
 27 28  1  0
 28 29  1  0
 28 30  2  0
 27  4  1  0
 24 10  1  0
 21 15  1  0
  1 31  1  0
  1 32  1  0
  1 33  1  0
  2 34  1  0
  3 35  1  0
  3 36  1  0
  3 37  1  0
  9 38  1  0
 11 39  1  0
 12 40  1  0
 16 41  1  0
 17 42  1  0
 20 43  1  0
 20 44  1  0
 24 45  1  0
 26 46  1  0
 26 47  1  0
 26 48  1  0
 29 49  1  0
 29 50  1  0
M  END
$$$$
[H]c1c([H])c(Oc2nc3c([H])c(C(=O)N([H])c4c([H])c([H])c(C([H])([H])[H])c(C(F)(F)F)c4[H])c([H])c([H])c3n2C([H])([H])[H])c(F)c([H])c1F
     RDKit          3D

 49 52  0  0  0  0  0  0  0  0999 V2000
   -8.2271    0.2499   -0.0812 C   0  0  0  0  0  0  0  0  0  0  0  0
   -6.7579    0.1326   -0.1242 C   0  0  0  0  0  0  0  0  0  0  0  0
   -6.2347   -1.0937    0.2289 C   0  0  0  0  0  0  0  0  0  0  0  0
   -4.8678   -1.3661    0.2400 C   0  0  0  0  0  0  0  0  0  0  0  0
   -4.0053   -0.3722   -0.1146 C   0  0  0  0  0  0  0  0  0  0  0  0
   -2.5955   -0.4833   -0.1281 N   0  0  0  0  0  0  0  0  0  0  0  0
   -1.8653   -1.4096    0.6067 C   0  0  0  0  0  0  0  0  0  0  0  0
   -2.4368   -2.2346    1.3697 O   0  0  0  0  0  0  0  0  0  0  0  0
   -0.3953   -1.4295    0.4942 C   0  0  0  0  0  0  0  0  0  0  0  0
    0.3179   -2.1894    1.4136 C   0  0  0  0  0  0  0  0  0  0  0  0
    1.6875   -2.2998    1.4186 C   0  0  0  0  0  0  0  0  0  0  0  0
    2.3898   -1.6139    0.4520 C   0  0  0  0  0  0  0  0  0  0  0  0
    3.7252   -1.5487    0.2311 N   0  0  0  0  0  0  0  0  0  0  0  0
    4.7510   -2.2298    1.0163 C   0  0  0  0  0  0  0  0  0  0  0  0
    3.8740   -0.7436   -0.8351 C   0  0  0  0  0  0  0  0  0  0  0  0
    5.1068   -0.4203   -1.3825 O   0  0  0  0  0  0  0  0  0  0  0  0
    5.8100    0.7202   -1.0700 C   0  0  0  0  0  0  0  0  0  0  0  0
    5.3465    1.6543   -0.1742 C   0  0  0  0  0  0  0  0  0  0  0  0
    6.0867    2.7885    0.1114 C   0  0  0  0  0  0  0  0  0  0  0  0
    7.3109    3.0186   -0.4917 C   0  0  0  0  0  0  0  0  0  0  0  0
    8.0347    4.1360   -0.2069 F   0  0  0  0  0  0  0  0  0  0  0  0
    7.7669    2.0716   -1.3913 C   0  0  0  0  0  0  0  0  0  0  0  0
    7.0188    0.9438   -1.6678 C   0  0  0  0  0  0  0  0  0  0  0  0
    7.5497    0.0682   -2.5669 F   0  0  0  0  0  0  0  0  0  0  0  0
    2.6693   -0.3232   -1.2614 N   0  0  0  0  0  0  0  0  0  0  0  0
    1.7094   -0.8529   -0.4721 C   0  0  0  0  0  0  0  0  0  0  0  0
    0.3122   -0.7525   -0.4614 C   0  0  0  0  0  0  0  0  0  0  0  0
   -4.5585    0.8765   -0.4734 C   0  0  0  0  0  0  0  0  0  0  0  0
   -5.8996    1.1393   -0.4834 C   0  0  0  0  0  0  0  0  0  0  0  0
   -6.4661    2.4570   -0.8629 C   0  0  0  0  0  0  0  0  0  0  0  0
   -5.3694    3.2758   -1.1755 F   0  0  0  0  0  0  0  0  0  0  0  0
   -7.1955    2.3900   -2.0527 F   0  0  0  0  0  0  0  0  0  0  0  0
   -7.1351    3.0823    0.1418 F   0  0  0  0  0  0  0  0  0  0  0  0
   -8.5356    0.0088    0.9687 H   0  0  0  0  0  0  0  0  0  0  0  0
   -8.6997   -0.5596   -0.7075 H   0  0  0  0  0  0  0  0  0  0  0  0
   -8.6413    1.1897   -0.4291 H   0  0  0  0  0  0  0  0  0  0  0  0
   -6.8904   -1.9275    0.5233 H   0  0  0  0  0  0  0  0  0  0  0  0
   -4.5247   -2.3624    0.5128 H   0  0  0  0  0  0  0  0  0  0  0  0
   -2.0601    0.1997   -0.7528 H   0  0  0  0  0  0  0  0  0  0  0  0
   -0.2326   -2.7367    2.1837 H   0  0  0  0  0  0  0  0  0  0  0  0
    2.2297   -2.8978    2.1442 H   0  0  0  0  0  0  0  0  0  0  0  0
    4.3925   -3.2311    1.3723 H   0  0  0  0  0  0  0  0  0  0  0  0
    5.0297   -1.6317    1.9016 H   0  0  0  0  0  0  0  0  0  0  0  0
    5.6602   -2.4335    0.4227 H   0  0  0  0  0  0  0  0  0  0  0  0
    4.3872    1.4593    0.2889 H   0  0  0  0  0  0  0  0  0  0  0  0
    5.7397    3.5202    0.8034 H   0  0  0  0  0  0  0  0  0  0  0  0
    8.7195    2.2394   -1.8678 H   0  0  0  0  0  0  0  0  0  0  0  0
   -0.1734   -0.1581   -1.1929 H   0  0  0  0  0  0  0  0  0  0  0  0
   -3.8582    1.6797   -0.7603 H   0  0  0  0  0  0  0  0  0  0  0  0
  1  2  1  0
  2  3  2  0
  3  4  1  0
  4  5  2  0
  5  6  1  0
  6  7  1  0
  7  8  2  0
  7  9  1  0
  9 10  2  0
 10 11  1  0
 11 12  2  0
 12 13  1  0
 13 14  1  0
 13 15  1  0
 15 16  1  0
 16 17  1  0
 17 18  2  0
 18 19  1  0
 19 20  2  0
 20 21  1  0
 20 22  1  0
 22 23  2  0
 23 24  1  0
 15 25  2  0
 25 26  1  0
 26 27  2  0
  5 28  1  0
 28 29  2  0
 29 30  1  0
 30 31  1  0
 30 32  1  0
 30 33  1  0
 29  2  1  0
 27  9  1  0
 26 12  1  0
 23 17  1  0
  1 34  1  0
  1 35  1  0
  1 36  1  0
  3 37  1  0
  4 38  1  0
  6 39  1  0
 10 40  1  0
 11 41  1  0
 14 42  1  0
 14 43  1  0
 14 44  1  0
 18 45  1  0
 19 46  1  0
 22 47  1  0
 27 48  1  0
 28 49  1  0
M  END
$$$$
[H]c1c([H])c([H])c2c(c1[H])c1c3c(c4c5c([H])c([H])c([H])c([H])c5n5c4c1n2[C@@]1([H])O[C@]5(C([H])([H])[H])[C@@]([H])(OC([H])([H])[H])[C@@]([H])(N([H])C([H])([H])[H])C1([H])[H])C([H])([H])N([H])C3=O
     RDKit          3D

 61 68  0  0  0  0  0  0  0  0999 V2000
   -2.5900    1.1246    2.6909 C   0  0  0  0  0  0  0  0  0  0  0  0
   -2.2701    0.1494    1.6691 N   0  0  0  0  0  0  0  0  0  0  0  0
   -2.7037    0.7256    0.3894 C   0  0  1  0  0  0  0  0  0  0  0  0
   -1.9693    1.9591    0.0600 C   0  0  0  0  0  0  0  0  0  0  0  0
   -1.0374    1.8542   -1.1025 C   0  0  2  0  0  0  0  0  0  0  0  0
   -1.1108    0.8211   -1.8978 O   0  0  0  0  0  0  0  0  0  0  0  0
   -1.4719   -0.4453   -1.4993 C   0  0  2  0  0  0  0  0  0  0  0  0
   -1.8587   -1.0747   -2.8537 C   0  0  0  0  0  0  0  0  0  0  0  0
   -2.6627   -0.3659   -0.6565 C   0  0  1  0  0  0  0  0  0  0  0  0
   -3.0555   -1.5061    0.0270 O   0  0  0  0  0  0  0  0  0  0  0  0
   -4.3079   -1.9695   -0.2639 C   0  0  0  0  0  0  0  0  0  0  0  0
   -0.3020   -1.1026   -0.9411 N   0  0  0  0  0  0  0  0  0  0  0  0
   -0.0368   -2.4107   -0.8661 C   0  0  0  0  0  0  0  0  0  0  0  0
   -0.7505   -3.5118   -1.2342 C   0  0  0  0  0  0  0  0  0  0  0  0
   -0.2313   -4.7829   -1.0386 C   0  0  0  0  0  0  0  0  0  0  0  0
    1.0025   -5.0019   -0.4761 C   0  0  0  0  0  0  0  0  0  0  0  0
    1.7444   -3.8826   -0.0939 C   0  0  0  0  0  0  0  0  0  0  0  0
    1.2038   -2.6348   -0.3003 C   0  0  0  0  0  0  0  0  0  0  0  0
    1.7282   -1.3877   -0.0109 C   0  0  0  0  0  0  0  0  0  0  0  0
    2.9250   -0.9637    0.5498 C   0  0  0  0  0  0  0  0  0  0  0  0
    4.0703   -1.7821    1.0519 C   0  0  0  0  0  0  0  0  0  0  0  0
    5.0490   -0.8360    1.5052 N   0  0  0  0  0  0  0  0  0  0  0  0
    4.5511    0.4878    1.3292 C   0  0  0  0  0  0  0  0  0  0  0  0
    5.2116    1.4752    1.6612 O   0  0  0  0  0  0  0  0  0  0  0  0
    3.2325    0.3685    0.7340 C   0  0  0  0  0  0  0  0  0  0  0  0
    2.2736    1.2731    0.3281 C   0  0  0  0  0  0  0  0  0  0  0  0
    2.1943    2.6494    0.3519 C   0  0  0  0  0  0  0  0  0  0  0  0
    3.0346    3.6410    0.7719 C   0  0  0  0  0  0  0  0  0  0  0  0
    2.6237    4.9672    0.6424 C   0  0  0  0  0  0  0  0  0  0  0  0
    1.4040    5.3207    0.1079 C   0  0  0  0  0  0  0  0  0  0  0  0
    0.5569    4.3176   -0.3154 C   0  0  0  0  0  0  0  0  0  0  0  0
    0.9564    3.0255   -0.1896 C   0  0  0  0  0  0  0  0  0  0  0  0
    0.3179    1.9031   -0.5262 N   0  0  0  0  0  0  0  0  0  0  0  0
    1.0813    0.8475   -0.2300 C   0  0  0  0  0  0  0  0  0  0  0  0
    0.8029   -0.4946   -0.4048 C   0  0  0  0  0  0  0  0  0  0  0  0
   -1.7275    1.7656    2.9459 H   0  0  0  0  0  0  0  0  0  0  0  0
   -3.4000    1.7830    2.2910 H   0  0  0  0  0  0  0  0  0  0  0  0
   -3.0290    0.6437    3.5924 H   0  0  0  0  0  0  0  0  0  0  0  0
   -2.7602   -0.7186    1.9035 H   0  0  0  0  0  0  0  0  0  0  0  0
   -3.7998    0.9480    0.5957 H   0  0  0  0  0  0  0  0  0  0  0  0
   -1.4594    2.3204    1.0029 H   0  0  0  0  0  0  0  0  0  0  0  0
   -2.7065    2.7776   -0.1658 H   0  0  0  0  0  0  0  0  0  0  0  0
   -1.0912    2.7965   -1.7221 H   0  0  0  0  0  0  0  0  0  0  0  0
   -2.0056   -0.3257   -3.6573 H   0  0  0  0  0  0  0  0  0  0  0  0
   -1.0068   -1.6950   -3.1940 H   0  0  0  0  0  0  0  0  0  0  0  0
   -2.8277   -1.6039   -2.8044 H   0  0  0  0  0  0  0  0  0  0  0  0
   -3.5358   -0.1252   -1.3381 H   0  0  0  0  0  0  0  0  0  0  0  0
   -4.4650   -2.8889    0.3782 H   0  0  0  0  0  0  0  0  0  0  0  0
   -4.4865   -2.3125   -1.2897 H   0  0  0  0  0  0  0  0  0  0  0  0
   -5.1216   -1.2643    0.0633 H   0  0  0  0  0  0  0  0  0  0  0  0
   -1.7208   -3.3825   -1.6725 H   0  0  0  0  0  0  0  0  0  0  0  0
   -0.8491   -5.6109   -1.3524 H   0  0  0  0  0  0  0  0  0  0  0  0
    1.4213   -5.9802   -0.3168 H   0  0  0  0  0  0  0  0  0  0  0  0
    2.7206   -4.0420    0.3513 H   0  0  0  0  0  0  0  0  0  0  0  0
    3.7648   -2.4865    1.8473 H   0  0  0  0  0  0  0  0  0  0  0  0
    4.5351   -2.3717    0.2322 H   0  0  0  0  0  0  0  0  0  0  0  0
    5.9960   -1.0989    1.9084 H   0  0  0  0  0  0  0  0  0  0  0  0
    3.9823    3.4684    1.1903 H   0  0  0  0  0  0  0  0  0  0  0  0
    3.2909    5.7541    0.9750 H   0  0  0  0  0  0  0  0  0  0  0  0
    1.0902    6.3566    0.0099 H   0  0  0  0  0  0  0  0  0  0  0  0
   -0.4140    4.5350   -0.7434 H   0  0  0  0  0  0  0  0  0  0  0  0
  1  2  1  0
  2  3  1  0
  3  4  1  0
  4  5  1  0
  5  6  1  0
  6  7  1  0
  7  8  1  6
  7  9  1  0
  9 10  1  0
 10 11  1  0
  7 12  1  0
 12 13  1  0
 13 14  2  0
 14 15  1  0
 15 16  2  0
 16 17  1  0
 17 18  2  0
 18 19  1  0
 19 20  2  0
 20 21  1  0
 21 22  1  0
 22 23  1  0
 23 24  2  0
 23 25  1  0
 25 26  2  0
 26 27  1  0
 27 28  2  0
 28 29  1  0
 29 30  2  0
 30 31  1  0
 31 32  2  0
 32 33  1  0
 33 34  1  0
 34 35  2  0
  9  3  1  0
 35 12  1  0
 33  5  1  0
 18 13  1  0
 35 19  1  0
 25 20  1  0
 34 26  1  0
 32 27  1  0
  1 36  1  0
  1 37  1  0
  1 38  1  0
  2 39  1  0
  3 40  1  1
  4 41  1  0
  4 42  1  0
  5 43  1  6
  8 44  1  0
  8 45  1  0
  8 46  1  0
  9 47  1  6
 11 48  1  0
 11 49  1  0
 11 50  1  0
 14 51  1  0
 15 52  1  0
 16 53  1  0
 17 54  1  0
 21 55  1  0
 21 56  1  0
 22 57  1  0
 28 58  1  0
 29 59  1  0
 30 60  1  0
 31 61  1  0
M  END
$$$$
[H]ON([H])C(=O)C([H])(N(C([H])([H])c1c([H])c([H])c([N+](=O)[O-])c([H])c1[H])S(=O)(=O)c1c([H])c([H])c(OC([H])([H])[H])c([H])c1[H])C([H])([H])C([H])([H])SC([H])([H])c1c([H])c([H])c([H])c([H])c1[H]
     RDKit          3D

 64 66  0  0  0  0  0  0  0  0999 V2000
   -4.5970    6.5001    0.6824 C   0  0  0  0  0  0  0  0  0  0  0  0
   -4.4839    5.8924   -0.5786 O   0  0  0  0  0  0  0  0  0  0  0  0
   -3.8838    4.6422   -0.6779 C   0  0  0  0  0  0  0  0  0  0  0  0
   -3.3903    3.9737    0.4195 C   0  0  0  0  0  0  0  0  0  0  0  0
   -2.7900    2.7125    0.2855 C   0  0  0  0  0  0  0  0  0  0  0  0
   -2.6675    2.0888   -0.9181 C   0  0  0  0  0  0  0  0  0  0  0  0
   -3.1719    2.7773   -2.0166 C   0  0  0  0  0  0  0  0  0  0  0  0
   -3.7617    4.0129   -1.9113 C   0  0  0  0  0  0  0  0  0  0  0  0
   -1.9658    0.5446   -1.2285 S   0  0  0  0  0  0  0  0  0  0  0  0
   -3.1361   -0.4312   -1.4568 O   0  0  0  0  0  0  0  0  0  0  0  0
   -1.2431    0.5954   -2.5054 O   0  0  0  0  0  0  0  0  0  0  0  0
   -1.0911   -0.1436    0.0947 N   0  0  0  0  0  0  0  0  0  0  0  0
   -2.0153   -0.3655    1.1404 C   0  0  0  0  0  0  0  0  0  0  0  0
   -2.3645   -1.8393    1.2447 C   0  0  0  0  0  0  0  0  0  0  0  0
   -3.6333   -2.3210    1.0409 C   0  0  0  0  0  0  0  0  0  0  0  0
   -3.9183   -3.6823    1.1390 C   0  0  0  0  0  0  0  0  0  0  0  0
   -2.9221   -4.5738    1.4446 C   0  0  0  0  0  0  0  0  0  0  0  0
   -1.6449   -4.1024    1.6517 C   0  0  0  0  0  0  0  0  0  0  0  0
   -1.3707   -2.7416    1.5515 C   0  0  0  0  0  0  0  0  0  0  0  0
   -3.1672   -5.9629    1.5487 N   0  0  0  0  0  0  0  0  0  0  0  0
   -4.4239   -6.4499    1.3592 O   0  0  0  0  0  0  0  0  0  0  0  0
   -2.2418   -6.7383    1.8102 O   0  0  0  0  0  0  0  0  0  0  0  0
    0.1200    0.5148    0.3474 C   0  0  0  0  0  0  0  0  0  0  0  0
    1.3746   -0.3152   -0.0073 C   0  0  0  0  0  0  0  0  0  0  0  0
    1.4699   -0.6556   -1.4533 C   0  0  0  0  0  0  0  0  0  0  0  0
    2.9785   -1.6533   -1.7997 S   0  0  0  0  0  0  0  0  0  0  0  0
    4.4573   -0.7428   -1.3456 C   0  0  0  0  0  0  0  0  0  0  0  0
    5.6584   -1.4585   -1.8349 C   0  0  0  0  0  0  0  0  0  0  0  0
    6.3633   -1.0091   -2.9536 C   0  0  0  0  0  0  0  0  0  0  0  0
    7.4553   -1.7066   -3.3962 C   0  0  0  0  0  0  0  0  0  0  0  0
    7.8963   -2.8610   -2.7689 C   0  0  0  0  0  0  0  0  0  0  0  0
    7.2076   -3.3324   -1.6485 C   0  0  0  0  0  0  0  0  0  0  0  0
    6.1256   -2.6116   -1.2362 C   0  0  0  0  0  0  0  0  0  0  0  0
    0.4248    1.0412    1.7089 C   0  0  0  0  0  0  0  0  0  0  0  0
    0.3245    0.2441    2.6576 O   0  0  0  0  0  0  0  0  0  0  0  0
    0.8073    2.3923    1.8543 N   0  0  0  0  0  0  0  0  0  0  0  0
    1.1443    3.5826    1.9835 O   0  0  0  0  0  0  0  0  0  0  0  0
   -3.6103    6.9040    0.9653 H   0  0  0  0  0  0  0  0  0  0  0  0
   -5.3158    7.3537    0.6723 H   0  0  0  0  0  0  0  0  0  0  0  0
   -4.9271    5.7628    1.4630 H   0  0  0  0  0  0  0  0  0  0  0  0
   -3.4514    4.4019    1.4045 H   0  0  0  0  0  0  0  0  0  0  0  0
   -2.3949    2.2298    1.1738 H   0  0  0  0  0  0  0  0  0  0  0  0
   -3.0840    2.3024   -2.9894 H   0  0  0  0  0  0  0  0  0  0  0  0
   -4.1601    4.5677   -2.7666 H   0  0  0  0  0  0  0  0  0  0  0  0
   -1.8737    0.0126    2.1220 H   0  0  0  0  0  0  0  0  0  0  0  0
   -3.0266    0.0737    0.7972 H   0  0  0  0  0  0  0  0  0  0  0  0
   -4.4414   -1.6333    0.8002 H   0  0  0  0  0  0  0  0  0  0  0  0
   -4.9156   -4.0447    0.9792 H   0  0  0  0  0  0  0  0  0  0  0  0
   -0.8324   -4.7819    1.8953 H   0  0  0  0  0  0  0  0  0  0  0  0
   -0.3515   -2.4494    1.7317 H   0  0  0  0  0  0  0  0  0  0  0  0
    0.2209    1.3837   -0.3934 H   0  0  0  0  0  0  0  0  0  0  0  0
    1.3384   -1.2172    0.6389 H   0  0  0  0  0  0  0  0  0  0  0  0
    2.2901    0.2371    0.2894 H   0  0  0  0  0  0  0  0  0  0  0  0
    1.5595    0.2113   -2.1142 H   0  0  0  0  0  0  0  0  0  0  0  0
    0.6429   -1.3572   -1.6879 H   0  0  0  0  0  0  0  0  0  0  0  0
    4.4361    0.2429   -1.9038 H   0  0  0  0  0  0  0  0  0  0  0  0
    4.5234   -0.5152   -0.2667 H   0  0  0  0  0  0  0  0  0  0  0  0
    6.0061   -0.0997   -3.4290 H   0  0  0  0  0  0  0  0  0  0  0  0
    7.9940   -1.3400   -4.2644 H   0  0  0  0  0  0  0  0  0  0  0  0
    8.7502   -3.4003   -3.1194 H   0  0  0  0  0  0  0  0  0  0  0  0
    7.5396   -4.2453   -1.1487 H   0  0  0  0  0  0  0  0  0  0  0  0
    5.5430   -2.9432   -0.3655 H   0  0  0  0  0  0  0  0  0  0  0  0
    0.9486    2.2668    3.2136 H   0  0  0  0  0  0  0  0  0  0  0  0
    0.6687    4.2600    1.4303 H   0  0  0  0  0  0  0  0  0  0  0  0
  1  2  1  0
  2  3  1  0
  3  4  2  0
  4  5  1  0
  5  6  2  0
  6  7  1  0
  7  8  2  0
  6  9  1  0
  9 10  2  0
  9 11  2  0
  9 12  1  0
 12 13  1  0
 13 14  1  0
 14 15  2  0
 15 16  1  0
 16 17  2  0
 17 18  1  0
 18 19  2  0
 17 20  1  0
 20 21  1  0
 20 22  2  0
 12 23  1  0
 23 24  1  0
 24 25  1  0
 25 26  1  0
 26 27  1  0
 27 28  1  0
 28 29  2  0
 29 30  1  0
 30 31  2  0
 31 32  1  0
 32 33  2  0
 23 34  1  0
 34 35  2  0
 34 36  1  0
 36 37  1  0
  8  3  1  0
 19 14  1  0
 33 28  1  0
  1 38  1  0
  1 39  1  0
  1 40  1  0
  4 41  1  0
  5 42  1  0
  7 43  1  0
  8 44  1  0
 13 45  1  0
 13 46  1  0
 15 47  1  0
 16 48  1  0
 18 49  1  0
 19 50  1  0
 23 51  1  0
 24 52  1  0
 24 53  1  0
 25 54  1  0
 25 55  1  0
 27 56  1  0
 27 57  1  0
 29 58  1  0
 30 59  1  0
 31 60  1  0
 32 61  1  0
 33 62  1  0
 36 63  1  0
 37 64  1  0
M  CHG  2  20   1  21  -1
M  END
$$$$
[H]c1nc2c(nc([H])c(=O)n2[H])c(Oc2c([H])c([H])c(N([H])C(=O)N([H])c3c([H])c(C(C([H])([H])[H])(C([H])([H])[H])C([H])([H])[H])nn3-c3c([H])c([H])c(C([H])([H])[H])c([H])c3[H])c3c([H])c([H])c([H])c([H])c23)c1[H]
     RDKit          3D

 71 76  0  0  0  0  0  0  0  0999 V2000
   -1.7713    3.3527    3.7236 C   0  0  0  0  0  0  0  0  0  0  0  0
   -2.3047    2.2767    2.8331 C   0  0  0  0  0  0  0  0  0  0  0  0
   -2.8534    2.5775    1.5837 C   0  0  0  0  0  0  0  0  0  0  0  0
   -3.3340    1.5671    0.7858 C   0  0  0  0  0  0  0  0  0  0  0  0
   -3.2957    0.2244    1.1780 C   0  0  0  0  0  0  0  0  0  0  0  0
   -2.7466   -0.0306    2.4147 C   0  0  0  0  0  0  0  0  0  0  0  0
   -2.2601    0.9624    3.2310 C   0  0  0  0  0  0  0  0  0  0  0  0
   -3.8598   -0.7513    0.3203 N   0  0  0  0  0  0  0  0  0  0  0  0
   -5.1106   -0.5257   -0.1397 N   0  0  0  0  0  0  0  0  0  0  0  0
   -5.5595   -1.5367   -0.8389 C   0  0  0  0  0  0  0  0  0  0  0  0
   -4.5750   -2.4794   -0.8528 C   0  0  0  0  0  0  0  0  0  0  0  0
   -3.4754   -1.9287   -0.0855 C   0  0  0  0  0  0  0  0  0  0  0  0
   -2.2787   -2.6374   -0.0407 N   0  0  0  0  0  0  0  0  0  0  0  0
   -0.9397   -2.3461    0.0627 C   0  0  0  0  0  0  0  0  0  0  0  0
   -0.2030   -3.4050    0.2999 O   0  0  0  0  0  0  0  0  0  0  0  0
   -0.2861   -1.1128   -0.0617 N   0  0  0  0  0  0  0  0  0  0  0  0
    1.1288   -0.9182    0.0456 C   0  0  0  0  0  0  0  0  0  0  0  0
    2.0248   -1.9561   -0.0618 C   0  0  0  0  0  0  0  0  0  0  0  0
    3.4048   -1.7222   -0.0113 C   0  0  0  0  0  0  0  0  0  0  0  0
    3.9222   -0.4599    0.1450 C   0  0  0  0  0  0  0  0  0  0  0  0
    5.2697   -0.3305    0.1791 O   0  0  0  0  0  0  0  0  0  0  0  0
    6.1416    0.2443   -0.6887 C   0  0  0  0  0  0  0  0  0  0  0  0
    5.7859    0.7878   -1.8941 C   0  0  0  0  0  0  0  0  0  0  0  0
    6.6849    1.3662   -2.7561 C   0  0  0  0  0  0  0  0  0  0  0  0
    7.9788    1.4206   -2.4396 N   0  0  0  0  0  0  0  0  0  0  0  0
    8.3891    0.9004   -1.2617 C   0  0  0  0  0  0  0  0  0  0  0  0
    9.7170    0.9831   -0.9915 N   0  0  0  0  0  0  0  0  0  0  0  0
   10.1604    0.4732    0.1757 C   0  0  0  0  0  0  0  0  0  0  0  0
   11.3944    0.5617    0.4076 O   0  0  0  0  0  0  0  0  0  0  0  0
    9.2810   -0.1118    1.0588 C   0  0  0  0  0  0  0  0  0  0  0  0
    7.9440   -0.1880    0.7734 N   0  0  0  0  0  0  0  0  0  0  0  0
    7.5085    0.3153   -0.3801 C   0  0  0  0  0  0  0  0  0  0  0  0
    3.0314    0.5728    0.2535 C   0  0  0  0  0  0  0  0  0  0  0  0
    3.5015    1.8448    0.4459 C   0  0  0  0  0  0  0  0  0  0  0  0
    2.6208    2.9118    0.5870 C   0  0  0  0  0  0  0  0  0  0  0  0
    1.2617    2.7061    0.5370 C   0  0  0  0  0  0  0  0  0  0  0  0
    0.7668    1.4194    0.3447 C   0  0  0  0  0  0  0  0  0  0  0  0
    1.6495    0.3796    0.2076 C   0  0  0  0  0  0  0  0  0  0  0  0
   -6.9068   -1.6819   -1.5229 C   0  0  0  0  0  0  0  0  0  0  0  0
   -6.8171   -2.7590   -2.5822 C   0  0  0  0  0  0  0  0  0  0  0  0
   -7.2161   -0.3728   -2.1855 C   0  0  0  0  0  0  0  0  0  0  0  0
   -7.8961   -2.0457   -0.4470 C   0  0  0  0  0  0  0  0  0  0  0  0
   -2.4018    3.3600    4.6448 H   0  0  0  0  0  0  0  0  0  0  0  0
   -1.8447    4.3415    3.2372 H   0  0  0  0  0  0  0  0  0  0  0  0
   -0.7181    3.0645    3.9616 H   0  0  0  0  0  0  0  0  0  0  0  0
   -2.8691    3.6132    1.3093 H   0  0  0  0  0  0  0  0  0  0  0  0
   -3.7643    1.7736   -0.1796 H   0  0  0  0  0  0  0  0  0  0  0  0
   -2.7036   -1.0521    2.7429 H   0  0  0  0  0  0  0  0  0  0  0  0
   -1.8262    0.7388    4.2205 H   0  0  0  0  0  0  0  0  0  0  0  0
   -4.5926   -3.4441   -1.3336 H   0  0  0  0  0  0  0  0  0  0  0  0
   -2.5055   -3.7597    0.0730 H   0  0  0  0  0  0  0  0  0  0  0  0
   -0.8244   -0.2414   -0.3007 H   0  0  0  0  0  0  0  0  0  0  0  0
    1.7431   -2.9845   -0.2124 H   0  0  0  0  0  0  0  0  0  0  0  0
    4.0515   -2.5987   -0.1006 H   0  0  0  0  0  0  0  0  0  0  0  0
    4.7499    0.7674   -2.1996 H   0  0  0  0  0  0  0  0  0  0  0  0
    6.3640    1.7847   -3.6931 H   0  0  0  0  0  0  0  0  0  0  0  0
   10.3842    1.4276   -1.6595 H   0  0  0  0  0  0  0  0  0  0  0  0
    9.6815   -0.5060    1.9798 H   0  0  0  0  0  0  0  0  0  0  0  0
    4.5718    2.0165    0.5169 H   0  0  0  0  0  0  0  0  0  0  0  0
    3.0467    3.8934    0.7352 H   0  0  0  0  0  0  0  0  0  0  0  0
    0.5763    3.5282    0.6462 H   0  0  0  0  0  0  0  0  0  0  0  0
   -0.2991    1.3577    0.3245 H   0  0  0  0  0  0  0  0  0  0  0  0
   -6.4847   -3.7340   -2.1599 H   0  0  0  0  0  0  0  0  0  0  0  0
   -6.0819   -2.4478   -3.3217 H   0  0  0  0  0  0  0  0  0  0  0  0
   -7.8129   -2.8054   -3.0705 H   0  0  0  0  0  0  0  0  0  0  0  0
   -6.4081   -0.1444   -2.9120 H   0  0  0  0  0  0  0  0  0  0  0  0
   -7.3573    0.4533   -1.4712 H   0  0  0  0  0  0  0  0  0  0  0  0
   -8.1330   -0.5198   -2.8128 H   0  0  0  0  0  0  0  0  0  0  0  0
   -8.3790   -1.1397   -0.0421 H   0  0  0  0  0  0  0  0  0  0  0  0
   -7.3655   -2.5395    0.4099 H   0  0  0  0  0  0  0  0  0  0  0  0
   -8.6752   -2.7512   -0.8188 H   0  0  0  0  0  0  0  0  0  0  0  0
  1  2  1  0
  2  3  2  0
  3  4  1  0
  4  5  2  0
  5  6  1  0
  6  7  2  0
  5  8  1  0
  8  9  1  0
  9 10  2  0
 10 11  1  0
 11 12  2  0
 12 13  1  0
 13 14  1  0
 14 15  2  0
 14 16  1  0
 16 17  1  0
 17 18  2  0
 18 19  1  0
 19 20  2  0
 20 21  1  0
 21 22  1  0
 22 23  2  0
 23 24  1  0
 24 25  2  0
 25 26  1  0
 26 27  1  0
 27 28  1  0
 28 29  2  0
 28 30  1  0
 30 31  2  0
 31 32  1  0
 20 33  1  0
 33 34  2  0
 34 35  1  0
 35 36  2  0
 36 37  1  0
 37 38  2  0
 10 39  1  0
 39 40  1  0
 39 41  1  0
 39 42  1  0
  7  2  1  0
 12  8  1  0
 38 17  1  0
 32 22  1  0
 38 33  1  0
 32 26  2  0
  1 43  1  0
  1 44  1  0
  1 45  1  0
  3 46  1  0
  4 47  1  0
  6 48  1  0
  7 49  1  0
 11 50  1  0
 13 51  1  0
 16 52  1  0
 18 53  1  0
 19 54  1  0
 23 55  1  0
 24 56  1  0
 27 57  1  0
 30 58  1  0
 34 59  1  0
 35 60  1  0
 36 61  1  0
 37 62  1  0
 40 63  1  0
 40 64  1  0
 40 65  1  0
 41 66  1  0
 41 67  1  0
 41 68  1  0
 42 69  1  0
 42 70  1  0
 42 71  1  0
M  END
$$$$
[H]c1c([H])c([H])c2c(c1[H])N([H])C(=O)N(C1([H])C([H])([H])C([H])([H])N(C(=O)N([H])C([H])([H])c3c([H])c([H])c([H])c(OC([H])([H])[H])c3[H])C([H])([H])C1([H])[H])C2([H])[H]
     RDKit          3D

 55 58  0  0  0  0  0  0  0  0999 V2000
   -5.1096   -3.2176    1.2296 C   0  0  0  0  0  0  0  0  0  0  0  0
   -4.3827   -2.1795    0.6166 O   0  0  0  0  0  0  0  0  0  0  0  0
   -4.9935   -0.9535    0.4394 C   0  0  0  0  0  0  0  0  0  0  0  0
   -6.2788   -0.7481    0.8510 C   0  0  0  0  0  0  0  0  0  0  0  0
   -6.9183    0.4568    0.6908 C   0  0  0  0  0  0  0  0  0  0  0  0
   -6.2513    1.4949    0.0985 C   0  0  0  0  0  0  0  0  0  0  0  0
   -4.9397    1.3324   -0.3374 C   0  0  0  0  0  0  0  0  0  0  0  0
   -4.2537    2.4695   -0.9788 C   0  0  0  0  0  0  0  0  0  0  0  0
   -2.8571    2.1360   -1.1251 N   0  0  0  0  0  0  0  0  0  0  0  0
   -1.9968    2.2018   -0.0222 C   0  0  0  0  0  0  0  0  0  0  0  0
   -2.4514    2.5560    1.0968 O   0  0  0  0  0  0  0  0  0  0  0  0
   -0.6342    1.8736   -0.1647 N   0  0  0  0  0  0  0  0  0  0  0  0
   -0.1217    1.4700   -1.4531 C   0  0  0  0  0  0  0  0  0  0  0  0
    1.4050    1.4432   -1.2884 C   0  0  0  0  0  0  0  0  0  0  0  0
    1.6548    0.3361   -0.2525 C   0  0  0  0  0  0  0  0  0  0  0  0
    1.0517    0.6713    1.0869 C   0  0  0  0  0  0  0  0  0  0  0  0
    0.2387    1.9438    0.9813 C   0  0  0  0  0  0  0  0  0  0  0  0
    3.0354   -0.0246   -0.1907 N   0  0  0  0  0  0  0  0  0  0  0  0
    3.4213   -1.3567   -0.6038 C   0  0  0  0  0  0  0  0  0  0  0  0
    4.8499   -1.6443   -0.4948 C   0  0  0  0  0  0  0  0  0  0  0  0
    5.2644   -2.9129   -0.8706 C   0  0  0  0  0  0  0  0  0  0  0  0
    6.6066   -3.2564   -0.7958 C   0  0  0  0  0  0  0  0  0  0  0  0
    7.5622   -2.3499   -0.3478 C   0  0  0  0  0  0  0  0  0  0  0  0
    7.1474   -1.0914    0.0243 C   0  0  0  0  0  0  0  0  0  0  0  0
    5.8002   -0.7746   -0.0601 C   0  0  0  0  0  0  0  0  0  0  0  0
    5.3776    0.5273    0.3302 N   0  0  0  0  0  0  0  0  0  0  0  0
    4.0137    0.9076    0.2694 C   0  0  0  0  0  0  0  0  0  0  0  0
    3.7058    2.0702    0.6278 O   0  0  0  0  0  0  0  0  0  0  0  0
   -4.3483    0.1141   -0.1548 C   0  0  0  0  0  0  0  0  0  0  0  0
   -6.0987   -3.3375    0.7447 H   0  0  0  0  0  0  0  0  0  0  0  0
   -5.1342   -3.0549    2.3085 H   0  0  0  0  0  0  0  0  0  0  0  0
   -4.5886   -4.2009    1.0598 H   0  0  0  0  0  0  0  0  0  0  0  0
   -6.8500   -1.5436    1.3286 H   0  0  0  0  0  0  0  0  0  0  0  0
   -7.9511    0.5662    1.0392 H   0  0  0  0  0  0  0  0  0  0  0  0
   -6.7140    2.4580   -0.0470 H   0  0  0  0  0  0  0  0  0  0  0  0
   -4.3191    3.4039   -0.3910 H   0  0  0  0  0  0  0  0  0  0  0  0
   -4.6645    2.6602   -1.9895 H   0  0  0  0  0  0  0  0  0  0  0  0
   -2.4615    1.8365   -2.0594 H   0  0  0  0  0  0  0  0  0  0  0  0
   -0.4073    0.3839   -1.5861 H   0  0  0  0  0  0  0  0  0  0  0  0
   -0.4400    2.0920   -2.2853 H   0  0  0  0  0  0  0  0  0  0  0  0
    1.7895    2.4020   -0.9443 H   0  0  0  0  0  0  0  0  0  0  0  0
    1.8226    1.0849   -2.2425 H   0  0  0  0  0  0  0  0  0  0  0  0
    1.0804   -0.5305   -0.6359 H   0  0  0  0  0  0  0  0  0  0  0  0
    0.3347   -0.1122    1.4460 H   0  0  0  0  0  0  0  0  0  0  0  0
    1.8110    0.7615    1.8867 H   0  0  0  0  0  0  0  0  0  0  0  0
    0.8722    2.8401    0.8502 H   0  0  0  0  0  0  0  0  0  0  0  0
   -0.3552    2.1252    1.9082 H   0  0  0  0  0  0  0  0  0  0  0  0
    3.1579   -1.4233   -1.6937 H   0  0  0  0  0  0  0  0  0  0  0  0
    2.7767   -2.1086   -0.1059 H   0  0  0  0  0  0  0  0  0  0  0  0
    4.5854   -3.6740   -1.2285 H   0  0  0  0  0  0  0  0  0  0  0  0
    6.9204   -4.2382   -1.0878 H   0  0  0  0  0  0  0  0  0  0  0  0
    8.6064   -2.6488   -0.3007 H   0  0  0  0  0  0  0  0  0  0  0  0
    7.8849   -0.3937    0.3689 H   0  0  0  0  0  0  0  0  0  0  0  0
    6.0831    1.2090    0.6654 H   0  0  0  0  0  0  0  0  0  0  0  0
   -3.3385   -0.0525   -0.4782 H   0  0  0  0  0  0  0  0  0  0  0  0
  1  2  1  0
  2  3  1  0
  3  4  2  0
  4  5  1  0
  5  6  2  0
  6  7  1  0
  7  8  1  0
  8  9  1  0
  9 10  1  0
 10 11  2  0
 10 12  1  0
 12 13  1  0
 13 14  1  0
 14 15  1  0
 15 16  1  0
 16 17  1  0
 15 18  1  0
 18 19  1  0
 19 20  1  0
 20 21  2  0
 21 22  1  0
 22 23  2  0
 23 24  1  0
 24 25  2  0
 25 26  1  0
 26 27  1  0
 27 28  2  0
  7 29  2  0
 29  3  1  0
 17 12  1  0
 27 18  1  0
 25 20  1  0
  1 30  1  0
  1 31  1  0
  1 32  1  0
  4 33  1  0
  5 34  1  0
  6 35  1  0
  8 36  1  0
  8 37  1  0
  9 38  1  0
 13 39  1  0
 13 40  1  0
 14 41  1  0
 14 42  1  0
 15 43  1  0
 16 44  1  0
 16 45  1  0
 17 46  1  0
 17 47  1  0
 19 48  1  0
 19 49  1  0
 21 50  1  0
 22 51  1  0
 23 52  1  0
 24 53  1  0
 26 54  1  0
 29 55  1  0
M  END
$$$$
[H]OC(=O)c1c([H])c([H])c([C@@]([H])(Oc2c([H])c([H])nc(Oc3c(C(=O)N([H])[C@@]([H])(C([H])([H])S(=O)(=O)C([H])([H])[H])[C@@]([H])(O[H])C([H])([H])[H])c([H])c4c([H])c([H])c([H])c([H])c4c3[H])c2[H])C([H])([H])[H])c([H])c1[H]
     RDKit          3D

 71 74  0  0  0  0  0  0  0  0999 V2000
   -4.5472   -1.7731   -4.3811 C   0  0  0  0  0  0  0  0  0  0  0  0
   -3.6482   -1.3327   -3.2538 C   0  0  2  0  0  0  0  0  0  0  0  0
   -3.1715   -2.4604   -2.6280 O   0  0  0  0  0  0  0  0  0  0  0  0
   -4.3379   -0.3746   -2.3129 C   0  0  2  0  0  0  0  0  0  0  0  0
   -4.8395    0.8047   -3.0714 C   0  0  0  0  0  0  0  0  0  0  0  0
   -5.6681    1.9933   -2.0670 S   0  0  0  0  0  0  0  0  0  0  0  0
   -7.0806    1.3369   -1.2423 C   0  0  0  0  0  0  0  0  0  0  0  0
   -6.1223    3.1213   -2.9563 O   0  0  0  0  0  0  0  0  0  0  0  0
   -4.7225    2.5749   -1.0620 O   0  0  0  0  0  0  0  0  0  0  0  0
   -3.3226    0.0312   -1.3195 N   0  0  0  0  0  0  0  0  0  0  0  0
   -3.4022   -0.3539    0.0175 C   0  0  0  0  0  0  0  0  0  0  0  0
   -4.4313   -1.0806    0.2855 O   0  0  0  0  0  0  0  0  0  0  0  0
   -2.5387   -0.0849    1.1407 C   0  0  0  0  0  0  0  0  0  0  0  0
   -3.0941   -0.2721    2.4415 C   0  0  0  0  0  0  0  0  0  0  0  0
   -2.4749    0.1809    3.5737 C   0  0  0  0  0  0  0  0  0  0  0  0
   -3.0296   -0.0059    4.8398 C   0  0  0  0  0  0  0  0  0  0  0  0
   -2.4346    0.4387    5.9941 C   0  0  0  0  0  0  0  0  0  0  0  0
   -1.2334    1.1006    5.8968 C   0  0  0  0  0  0  0  0  0  0  0  0
   -0.6661    1.2963    4.6509 C   0  0  0  0  0  0  0  0  0  0  0  0
   -1.2735    0.8443    3.4940 C   0  0  0  0  0  0  0  0  0  0  0  0
   -0.7362    1.0217    2.2589 C   0  0  0  0  0  0  0  0  0  0  0  0
   -1.3575    0.5559    1.0646 C   0  0  0  0  0  0  0  0  0  0  0  0
   -0.6554    0.8138   -0.1051 O   0  0  0  0  0  0  0  0  0  0  0  0
    0.1623   -0.2160   -0.5901 C   0  0  0  0  0  0  0  0  0  0  0  0
    1.4567   -0.3075   -0.0273 C   0  0  0  0  0  0  0  0  0  0  0  0
    2.3268   -1.2809   -0.4379 C   0  0  0  0  0  0  0  0  0  0  0  0
    3.5859   -1.4274    0.0600 O   0  0  0  0  0  0  0  0  0  0  0  0
    4.2315   -0.6713    1.0343 C   0  0  1  0  0  0  0  0  0  0  0  0
    4.6463   -1.5007    2.2353 C   0  0  0  0  0  0  0  0  0  0  0  0
    5.4510   -0.0871    0.4370 C   0  0  0  0  0  0  0  0  0  0  0  0
    5.7436    1.2343    0.6738 C   0  0  0  0  0  0  0  0  0  0  0  0
    6.8881    1.8291    0.1275 C   0  0  0  0  0  0  0  0  0  0  0  0
    7.7098    1.0430   -0.6553 C   0  0  0  0  0  0  0  0  0  0  0  0
    7.4329   -0.2778   -0.9019 C   0  0  0  0  0  0  0  0  0  0  0  0
    6.2851   -0.8533   -0.3472 C   0  0  0  0  0  0  0  0  0  0  0  0
    8.9158    1.6647   -1.2335 C   0  0  0  0  0  0  0  0  0  0  0  0
    9.2189    2.9964   -1.0014 O   0  0  0  0  0  0  0  0  0  0  0  0
    9.7062    1.0100   -1.9532 O   0  0  0  0  0  0  0  0  0  0  0  0
    1.9066   -2.1661   -1.4123 C   0  0  0  0  0  0  0  0  0  0  0  0
    0.6462   -2.0835   -1.9661 C   0  0  0  0  0  0  0  0  0  0  0  0
   -0.1401   -1.1024   -1.5073 N   0  0  0  0  0  0  0  0  0  0  0  0
   -5.5794   -1.9869   -4.0406 H   0  0  0  0  0  0  0  0  0  0  0  0
   -4.6064   -0.9414   -5.1120 H   0  0  0  0  0  0  0  0  0  0  0  0
   -4.1777   -2.7106   -4.8438 H   0  0  0  0  0  0  0  0  0  0  0  0
   -2.7929   -0.7593   -3.7169 H   0  0  0  0  0  0  0  0  0  0  0  0
   -2.4257   -2.8922   -3.0763 H   0  0  0  0  0  0  0  0  0  0  0  0
   -5.1504   -0.9261   -1.7579 H   0  0  0  0  0  0  0  0  0  0  0  0
   -5.4332    0.5360   -3.9667 H   0  0  0  0  0  0  0  0  0  0  0  0
   -3.9274    1.3254   -3.4839 H   0  0  0  0  0  0  0  0  0  0  0  0
   -6.8796    1.2896   -0.1375 H   0  0  0  0  0  0  0  0  0  0  0  0
   -7.3477    0.3178   -1.5471 H   0  0  0  0  0  0  0  0  0  0  0  0
   -7.9755    1.9846   -1.3434 H   0  0  0  0  0  0  0  0  0  0  0  0
   -2.5471    0.6448   -1.6409 H   0  0  0  0  0  0  0  0  0  0  0  0
   -4.0259   -0.7887    2.5012 H   0  0  0  0  0  0  0  0  0  0  0  0
   -3.9756   -0.5312    4.8739 H   0  0  0  0  0  0  0  0  0  0  0  0
   -2.8632    0.2950    6.9793 H   0  0  0  0  0  0  0  0  0  0  0  0
   -0.7291    1.4681    6.7795 H   0  0  0  0  0  0  0  0  0  0  0  0
    0.2804    1.8153    4.5491 H   0  0  0  0  0  0  0  0  0  0  0  0
    0.1945    1.5378    2.1815 H   0  0  0  0  0  0  0  0  0  0  0  0
    1.6965    0.4212    0.7195 H   0  0  0  0  0  0  0  0  0  0  0  0
    3.5749    0.1368    1.4098 H   0  0  0  0  0  0  0  0  0  0  0  0
    5.5504   -1.0535    2.6624 H   0  0  0  0  0  0  0  0  0  0  0  0
    4.8811   -2.5305    1.9355 H   0  0  0  0  0  0  0  0  0  0  0  0
    3.8119   -1.4786    2.9714 H   0  0  0  0  0  0  0  0  0  0  0  0
    5.1251    1.8795    1.2804 H   0  0  0  0  0  0  0  0  0  0  0  0
    7.1110    2.8658    0.3173 H   0  0  0  0  0  0  0  0  0  0  0  0
    8.1177   -0.8325   -1.5218 H   0  0  0  0  0  0  0  0  0  0  0  0
    6.1054   -1.8874   -0.5644 H   0  0  0  0  0  0  0  0  0  0  0  0
    9.6648    3.5330   -1.7236 H   0  0  0  0  0  0  0  0  0  0  0  0
    2.5911   -2.9504   -1.7514 H   0  0  0  0  0  0  0  0  0  0  0  0
    0.3461   -2.7882   -2.7251 H   0  0  0  0  0  0  0  0  0  0  0  0
  1  2  1  0
  2  3  1  0
  2  4  1  0
  4  5  1  0
  5  6  1  0
  6  7  1  0
  6  8  2  0
  6  9  2  0
  4 10  1  0
 10 11  1  0
 11 12  2  0
 11 13  1  0
 13 14  2  0
 14 15  1  0
 15 16  2  0
 16 17  1  0
 17 18  2  0
 18 19  1  0
 19 20  2  0
 20 21  1  0
 21 22  2  0
 22 23  1  0
 23 24  1  0
 24 25  2  0
 25 26  1  0
 26 27  1  0
 27 28  1  0
 28 29  1  0
 28 30  1  0
 30 31  2  0
 31 32  1  0
 32 33  2  0
 33 34  1  0
 34 35  2  0
 33 36  1  0
 36 37  1  0
 36 38  2  0
 26 39  2  0
 39 40  1  0
 40 41  2  0
 22 13  1  0
 41 24  1  0
 20 15  1  0
 35 30  1  0
  1 42  1  0
  1 43  1  0
  1 44  1  0
  2 45  1  6
  3 46  1  0
  4 47  1  1
  5 48  1  0
  5 49  1  0
  7 50  1  0
  7 51  1  0
  7 52  1  0
 10 53  1  0
 14 54  1  0
 16 55  1  0
 17 56  1  0
 18 57  1  0
 19 58  1  0
 21 59  1  0
 25 60  1  0
 28 61  1  1
 29 62  1  0
 29 63  1  0
 29 64  1  0
 31 65  1  0
 32 66  1  0
 34 67  1  0
 35 68  1  0
 37 69  1  0
 39 70  1  0
 40 71  1  0
M  END
$$$$
[H]O[C@@](C(=O)N([H])c1c([H])c([H])c([N+]#[C-])c(C(F)(F)F)c1[H])(C([H])([H])[H])C([H])([H])Sc1c([H])c([H])c(C#N)c(Cl)c1[H]
     RDKit          3D

 42 43  0  0  0  0  0  0  0  0999 V2000
   -1.6711    1.6414   -0.1021 C   0  0  0  0  0  0  0  0  0  0  0  0
   -0.7452    1.1223   -1.1596 C   0  0  2  0  0  0  0  0  0  0  0  0
   -0.4228    2.2363   -1.9767 O   0  0  0  0  0  0  0  0  0  0  0  0
   -1.3974    0.1282   -2.0343 C   0  0  0  0  0  0  0  0  0  0  0  0
   -2.0041   -1.3845   -1.3566 S   0  0  0  0  0  0  0  0  0  0  0  0
   -3.3844   -1.1814   -0.2851 C   0  0  0  0  0  0  0  0  0  0  0  0
   -4.6754   -1.0471   -0.8161 C   0  0  0  0  0  0  0  0  0  0  0  0
   -5.7903   -0.9375   -0.0184 C   0  0  0  0  0  0  0  0  0  0  0  0
   -5.6990   -0.9535    1.3579 C   0  0  0  0  0  0  0  0  0  0  0  0
   -6.8781   -0.8381    2.1749 C   0  0  0  0  0  0  0  0  0  0  0  0
   -7.8364   -0.7411    2.8146 N   0  0  0  0  0  0  0  0  0  0  0  0
   -4.4403   -1.0843    1.9067 C   0  0  0  0  0  0  0  0  0  0  0  0
   -4.3236   -1.1041    3.6529 Cl  0  0  0  0  0  0  0  0  0  0  0  0
   -3.3250   -1.1941    1.1067 C   0  0  0  0  0  0  0  0  0  0  0  0
    0.5239    0.5831   -0.5466 C   0  0  0  0  0  0  0  0  0  0  0  0
    0.3856   -0.4024    0.1896 O   0  0  0  0  0  0  0  0  0  0  0  0
    1.7283    1.1982   -0.8308 N   0  0  0  0  0  0  0  0  0  0  0  0
    3.0050    0.8426   -0.3646 C   0  0  0  0  0  0  0  0  0  0  0  0
    4.0795    1.7410   -0.5173 C   0  0  0  0  0  0  0  0  0  0  0  0
    5.3292    1.3989   -0.0819 C   0  0  0  0  0  0  0  0  0  0  0  0
    5.5761    0.1829    0.5116 C   0  0  0  0  0  0  0  0  0  0  0  0
    4.5563   -0.7299    0.6828 C   0  0  0  0  0  0  0  0  0  0  0  0
    3.2850   -0.3540    0.2272 C   0  0  0  0  0  0  0  0  0  0  0  0
    4.7426   -2.0385    1.3038 C   0  0  0  0  0  0  0  0  0  0  0  0
    5.6721   -2.7513    0.5571 F   0  0  0  0  0  0  0  0  0  0  0  0
    5.1143   -1.9605    2.6311 F   0  0  0  0  0  0  0  0  0  0  0  0
    3.5707   -2.7565    1.2383 F   0  0  0  0  0  0  0  0  0  0  0  0
    6.8409   -0.1631    0.9532 N   0  0  0  0  0  0  0  0  0  0  0  0
    7.9051   -0.4376    1.3098 C   0  0  0  0  0  0  0  0  0  0  0  0
   -1.6146    2.7708   -0.0289 H   0  0  0  0  0  0  0  0  0  0  0  0
   -1.4480    1.1816    0.8638 H   0  0  0  0  0  0  0  0  0  0  0  0
   -2.7069    1.3956   -0.3965 H   0  0  0  0  0  0  0  0  0  0  0  0
   -1.3206    2.5917   -2.2618 H   0  0  0  0  0  0  0  0  0  0  0  0
   -0.7090   -0.1355   -2.9199 H   0  0  0  0  0  0  0  0  0  0  0  0
   -2.2738    0.6019   -2.6076 H   0  0  0  0  0  0  0  0  0  0  0  0
   -4.8078   -1.0288   -1.8858 H   0  0  0  0  0  0  0  0  0  0  0  0
   -6.7926   -0.8329   -0.4624 H   0  0  0  0  0  0  0  0  0  0  0  0
   -2.3296   -1.2979    1.5266 H   0  0  0  0  0  0  0  0  0  0  0  0
    1.7046    2.0543   -1.4894 H   0  0  0  0  0  0  0  0  0  0  0  0
    3.8853    2.6982   -0.9841 H   0  0  0  0  0  0  0  0  0  0  0  0
    6.1734    2.0931   -0.1969 H   0  0  0  0  0  0  0  0  0  0  0  0
    2.5182   -1.1076    0.3730 H   0  0  0  0  0  0  0  0  0  0  0  0
  1  2  1  0
  2  3  1  6
  2  4  1  0
  4  5  1  0
  5  6  1  0
  6  7  2  0
  7  8  1  0
  8  9  2  0
  9 10  1  0
 10 11  3  0
  9 12  1  0
 12 13  1  0
 12 14  2  0
  2 15  1  0
 15 16  2  0
 15 17  1  0
 17 18  1  0
 18 19  2  0
 19 20  1  0
 20 21  2  0
 21 22  1  0
 22 23  2  0
 22 24  1  0
 24 25  1  0
 24 26  1  0
 24 27  1  0
 21 28  1  0
 28 29  3  0
 14  6  1  0
 23 18  1  0
  1 30  1  0
  1 31  1  0
  1 32  1  0
  3 33  1  0
  4 34  1  0
  4 35  1  0
  7 36  1  0
  8 37  1  0
 14 38  1  0
 17 39  1  0
 19 40  1  0
 20 41  1  0
 23 42  1  0
M  CHG  2  28   1  29  -1
M  END
$$$$
[H]c1nc(N([H])c2c([H])c([H])c(C(=O)N([H])C3([H])C([H])([H])C3([H])[H])c([H])c2OC([H])(C([H])([H])[H])C([H])([H])[H])nc(N([H])c2c([H])c([H])c([H])c([H])c2S(=O)(=O)C([H])(C([H])([H])[H])C([H])([H])[H])c1Cl
     RDKit          3D

 67 70  0  0  0  0  0  0  0  0999 V2000
    2.1293   -3.7061    2.7968 C   0  0  0  0  0  0  0  0  0  0  0  0
    3.0427   -2.6294    2.3438 C   0  0  0  0  0  0  0  0  0  0  0  0
    3.6288   -1.8300    3.5080 C   0  0  0  0  0  0  0  0  0  0  0  0
    2.4885   -1.7335    1.4000 O   0  0  0  0  0  0  0  0  0  0  0  0
    3.0946   -1.1694    0.3303 C   0  0  0  0  0  0  0  0  0  0  0  0
    4.4199   -1.3808    0.0262 C   0  0  0  0  0  0  0  0  0  0  0  0
    5.0402   -0.8072   -1.0586 C   0  0  0  0  0  0  0  0  0  0  0  0
    4.3189    0.0157   -1.8869 C   0  0  0  0  0  0  0  0  0  0  0  0
    2.9568    0.2491   -1.5986 C   0  0  0  0  0  0  0  0  0  0  0  0
    2.3455   -0.3294   -0.5109 C   0  0  0  0  0  0  0  0  0  0  0  0
    1.0039   -0.1352   -0.2084 N   0  0  0  0  0  0  0  0  0  0  0  0
    0.0380    0.6911   -0.8326 C   0  0  0  0  0  0  0  0  0  0  0  0
    0.2642    1.4859   -1.8738 N   0  0  0  0  0  0  0  0  0  0  0  0
   -0.6564    2.2545   -2.4568 C   0  0  0  0  0  0  0  0  0  0  0  0
   -1.9479    2.2645   -1.9892 C   0  0  0  0  0  0  0  0  0  0  0  0
   -3.1858    3.2730   -2.7419 Cl  0  0  0  0  0  0  0  0  0  0  0  0
   -2.2342    1.4398   -0.8905 C   0  0  0  0  0  0  0  0  0  0  0  0
   -3.5557    1.4101   -0.4056 N   0  0  0  0  0  0  0  0  0  0  0  0
   -4.1369    0.7237    0.6617 C   0  0  0  0  0  0  0  0  0  0  0  0
   -3.3921    0.0291    1.6066 C   0  0  0  0  0  0  0  0  0  0  0  0
   -4.0437   -0.6247    2.6660 C   0  0  0  0  0  0  0  0  0  0  0  0
   -5.4094   -0.5971    2.7967 C   0  0  0  0  0  0  0  0  0  0  0  0
   -6.1202    0.1031    1.8405 C   0  0  0  0  0  0  0  0  0  0  0  0
   -5.5351    0.7571    0.7904 C   0  0  0  0  0  0  0  0  0  0  0  0
   -6.5060    1.6290   -0.3555 S   0  0  0  0  0  0  0  0  0  0  0  0
   -6.2596    1.1740   -1.7623 O   0  0  0  0  0  0  0  0  0  0  0  0
   -6.1865    3.1058   -0.3034 O   0  0  0  0  0  0  0  0  0  0  0  0
   -8.2598    1.4730   -0.0380 C   0  0  0  0  0  0  0  0  0  0  0  0
   -8.7375    0.0644   -0.1768 C   0  0  0  0  0  0  0  0  0  0  0  0
   -8.6913    2.1552    1.2251 C   0  0  0  0  0  0  0  0  0  0  0  0
   -1.2558    0.7112   -0.3762 N   0  0  0  0  0  0  0  0  0  0  0  0
    6.4493   -1.0670   -1.3336 C   0  0  0  0  0  0  0  0  0  0  0  0
    6.9492   -2.1748   -0.9432 O   0  0  0  0  0  0  0  0  0  0  0  0
    7.2841   -0.1589   -2.0068 N   0  0  0  0  0  0  0  0  0  0  0  0
    8.6681   -0.3232   -2.3255 C   0  0  0  0  0  0  0  0  0  0  0  0
    9.5543    0.8829   -2.0546 C   0  0  0  0  0  0  0  0  0  0  0  0
    9.2927    0.3955   -3.4593 C   0  0  0  0  0  0  0  0  0  0  0  0
    2.7118   -4.6463    2.8997 H   0  0  0  0  0  0  0  0  0  0  0  0
    1.3775   -3.9019    1.9977 H   0  0  0  0  0  0  0  0  0  0  0  0
    1.6546   -3.5316    3.7823 H   0  0  0  0  0  0  0  0  0  0  0  0
    3.9268   -3.0834    1.8491 H   0  0  0  0  0  0  0  0  0  0  0  0
    4.6226   -2.2219    3.7266 H   0  0  0  0  0  0  0  0  0  0  0  0
    2.9993   -2.0066    4.4337 H   0  0  0  0  0  0  0  0  0  0  0  0
    3.5490   -0.7473    3.3292 H   0  0  0  0  0  0  0  0  0  0  0  0
    5.0603   -2.0146    0.6300 H   0  0  0  0  0  0  0  0  0  0  0  0
    4.7750    0.4853   -2.7516 H   0  0  0  0  0  0  0  0  0  0  0  0
    2.4504    0.8987   -2.2936 H   0  0  0  0  0  0  0  0  0  0  0  0
    0.6166   -0.6922    0.6264 H   0  0  0  0  0  0  0  0  0  0  0  0
   -0.4175    2.8944   -3.3150 H   0  0  0  0  0  0  0  0  0  0  0  0
   -4.2173    2.0446   -0.9678 H   0  0  0  0  0  0  0  0  0  0  0  0
   -2.3136   -0.0203    1.5651 H   0  0  0  0  0  0  0  0  0  0  0  0
   -3.4184   -1.1643    3.3930 H   0  0  0  0  0  0  0  0  0  0  0  0
   -5.9280   -1.1002    3.6110 H   0  0  0  0  0  0  0  0  0  0  0  0
   -7.1930    0.1203    1.9519 H   0  0  0  0  0  0  0  0  0  0  0  0
   -8.7396    2.0760   -0.8682 H   0  0  0  0  0  0  0  0  0  0  0  0
   -9.3559   -0.0519   -1.0660 H   0  0  0  0  0  0  0  0  0  0  0  0
   -7.8491   -0.5994   -0.2696 H   0  0  0  0  0  0  0  0  0  0  0  0
   -9.3031   -0.2941    0.7077 H   0  0  0  0  0  0  0  0  0  0  0  0
   -9.2151    3.1171    1.0445 H   0  0  0  0  0  0  0  0  0  0  0  0
   -7.7468    2.4470    1.7769 H   0  0  0  0  0  0  0  0  0  0  0  0
   -9.3188    1.5067    1.8706 H   0  0  0  0  0  0  0  0  0  0  0  0
    6.8483    0.7612   -2.3173 H   0  0  0  0  0  0  0  0  0  0  0  0
    9.0807   -1.3167   -2.0152 H   0  0  0  0  0  0  0  0  0  0  0  0
    9.0921    1.8275   -1.7480 H   0  0  0  0  0  0  0  0  0  0  0  0
   10.5507    0.6390   -1.5960 H   0  0  0  0  0  0  0  0  0  0  0  0
   10.1504   -0.1051   -3.9434 H   0  0  0  0  0  0  0  0  0  0  0  0
    8.6948    1.0590   -4.1150 H   0  0  0  0  0  0  0  0  0  0  0  0
  1  2  1  0
  2  3  1  0
  2  4  1  0
  4  5  1  0
  5  6  2  0
  6  7  1  0
  7  8  2  0
  8  9  1  0
  9 10  2  0
 10 11  1  0
 11 12  1  0
 12 13  2  0
 13 14  1  0
 14 15  2  0
 15 16  1  0
 15 17  1  0
 17 18  1  0
 18 19  1  0
 19 20  2  0
 20 21  1  0
 21 22  2  0
 22 23  1  0
 23 24  2  0
 24 25  1  0
 25 26  2  0
 25 27  2  0
 25 28  1  0
 28 29  1  0
 28 30  1  0
 17 31  2  0
  7 32  1  0
 32 33  2  0
 32 34  1  0
 34 35  1  0
 35 36  1  0
 36 37  1  0
 10  5  1  0
 31 12  1  0
 37 35  1  0
 24 19  1  0
  1 38  1  0
  1 39  1  0
  1 40  1  0
  2 41  1  0
  3 42  1  0
  3 43  1  0
  3 44  1  0
  6 45  1  0
  8 46  1  0
  9 47  1  0
 11 48  1  0
 14 49  1  0
 18 50  1  0
 20 51  1  0
 21 52  1  0
 22 53  1  0
 23 54  1  0
 28 55  1  0
 29 56  1  0
 29 57  1  0
 29 58  1  0
 30 59  1  0
 30 60  1  0
 30 61  1  0
 34 62  1  0
 35 63  1  0
 36 64  1  0
 36 65  1  0
 37 66  1  0
 37 67  1  0
M  END
$$$$
[H]OC1([H])C([H])([H])C([H])(c2c(N3C([H])([H])C([H])([H])OC([H])([H])C3([H])[H])nc([H])c(-c3c(C([H])([H])[H])nc([H])c(N([H])C(=O)c4c([H])c([H])nc(C5(C#N)C([H])([H])C5([H])[H])c4[H])c3[H])c2[H])C1([H])[H]
     RDKit          3D

 68 73  0  0  0  0  0  0  0  0999 V2000
   -0.9773   -3.2980   -1.6254 C   0  0  0  0  0  0  0  0  0  0  0  0
    0.0510   -2.4856   -0.9385 C   0  0  0  0  0  0  0  0  0  0  0  0
    1.2463   -3.0524   -0.6080 N   0  0  0  0  0  0  0  0  0  0  0  0
    2.2252   -2.3758   -0.0501 C   0  0  0  0  0  0  0  0  0  0  0  0
    2.1425   -0.9945    0.2651 C   0  0  0  0  0  0  0  0  0  0  0  0
    3.1637   -0.3714    0.7623 N   0  0  0  0  0  0  0  0  0  0  0  0
    4.2678    0.3141    1.3104 C   0  0  0  0  0  0  0  0  0  0  0  0
    4.2139    1.2447    2.1208 O   0  0  0  0  0  0  0  0  0  0  0  0
    5.6420   -0.0909    0.9041 C   0  0  0  0  0  0  0  0  0  0  0  0
    5.9826   -1.3998    0.8843 C   0  0  0  0  0  0  0  0  0  0  0  0
    7.2532   -1.7255    0.4891 C   0  0  0  0  0  0  0  0  0  0  0  0
    8.1033   -0.7736    0.1400 N   0  0  0  0  0  0  0  0  0  0  0  0
    7.8466    0.5275    0.1397 C   0  0  0  0  0  0  0  0  0  0  0  0
    6.5454    0.8635    0.5409 C   0  0  0  0  0  0  0  0  0  0  0  0
    8.8020    1.5482   -0.2775 C   0  0  0  0  0  0  0  0  0  0  0  0
   10.2344    1.4069    0.1448 C   0  0  0  0  0  0  0  0  0  0  0  0
    9.8392    1.1482   -1.2946 C   0  0  0  0  0  0  0  0  0  0  0  0
    8.2632    2.9178   -0.4218 C   0  0  0  0  0  0  0  0  0  0  0  0
    7.8233    3.9674   -0.5316 N   0  0  0  0  0  0  0  0  0  0  0  0
    0.9147   -0.4354   -0.0835 C   0  0  0  0  0  0  0  0  0  0  0  0
   -0.1228   -1.1660   -0.6711 C   0  0  0  0  0  0  0  0  0  0  0  0
   -1.3700   -0.4688   -0.8569 C   0  0  0  0  0  0  0  0  0  0  0  0
   -1.4927    0.6345   -1.6798 C   0  0  0  0  0  0  0  0  0  0  0  0
   -2.6254    1.3380   -1.6840 N   0  0  0  0  0  0  0  0  0  0  0  0
   -3.6737    1.0130   -0.9023 C   0  0  0  0  0  0  0  0  0  0  0  0
   -4.9323    1.7138   -1.0148 N   0  0  0  0  0  0  0  0  0  0  0  0
   -5.9963    1.1439   -1.7945 C   0  0  0  0  0  0  0  0  0  0  0  0
   -7.3499    1.5025   -1.2254 C   0  0  0  0  0  0  0  0  0  0  0  0
   -7.2938    2.0890    0.0074 O   0  0  0  0  0  0  0  0  0  0  0  0
   -6.4982    3.2408    0.0144 C   0  0  0  0  0  0  0  0  0  0  0  0
   -5.0779    2.9626   -0.3497 C   0  0  0  0  0  0  0  0  0  0  0  0
   -3.6058   -0.0996   -0.0470 C   0  0  0  0  0  0  0  0  0  0  0  0
   -2.4472   -0.8144   -0.0546 C   0  0  0  0  0  0  0  0  0  0  0  0
   -4.6546   -0.2684    0.9668 C   0  0  0  0  0  0  0  0  0  0  0  0
   -5.6858   -1.3558    0.8572 C   0  0  0  0  0  0  0  0  0  0  0  0
   -5.4931   -1.6252    2.3606 C   0  0  0  0  0  0  0  0  0  0  0  0
   -5.7215   -2.9396    2.6801 O   0  0  0  0  0  0  0  0  0  0  0  0
   -4.0237   -1.2545    2.0902 C   0  0  0  0  0  0  0  0  0  0  0  0
   -0.3911   -3.9460   -2.3370 H   0  0  0  0  0  0  0  0  0  0  0  0
   -1.6027   -2.6547   -2.2782 H   0  0  0  0  0  0  0  0  0  0  0  0
   -1.4954   -3.9904   -0.9777 H   0  0  0  0  0  0  0  0  0  0  0  0
    3.1475   -2.8805    0.1816 H   0  0  0  0  0  0  0  0  0  0  0  0
    2.3756    0.2581    1.7060 H   0  0  0  0  0  0  0  0  0  0  0  0
    5.2836   -2.1787    1.1833 H   0  0  0  0  0  0  0  0  0  0  0  0
    7.5519   -2.7443    0.4716 H   0  0  0  0  0  0  0  0  0  0  0  0
    6.2546    1.9151    0.5587 H   0  0  0  0  0  0  0  0  0  0  0  0
   10.7634    2.3522    0.3863 H   0  0  0  0  0  0  0  0  0  0  0  0
   10.5131    0.5083    0.7779 H   0  0  0  0  0  0  0  0  0  0  0  0
    9.8921    0.0921   -1.6317 H   0  0  0  0  0  0  0  0  0  0  0  0
   10.1226    1.9106   -2.0308 H   0  0  0  0  0  0  0  0  0  0  0  0
    0.7897    0.6430    0.1397 H   0  0  0  0  0  0  0  0  0  0  0  0
   -0.6393    0.8896   -2.3260 H   0  0  0  0  0  0  0  0  0  0  0  0
   -5.9269    1.5396   -2.8752 H   0  0  0  0  0  0  0  0  0  0  0  0
   -5.8665    0.0276   -1.9224 H   0  0  0  0  0  0  0  0  0  0  0  0
   -7.9210    0.5318   -1.1127 H   0  0  0  0  0  0  0  0  0  0  0  0
   -7.8852    2.0557   -1.9809 H   0  0  0  0  0  0  0  0  0  0  0  0
   -6.9605    4.0304   -0.6377 H   0  0  0  0  0  0  0  0  0  0  0  0
   -6.5063    3.6366    1.0386 H   0  0  0  0  0  0  0  0  0  0  0  0
   -4.7642    3.7685   -1.0602 H   0  0  0  0  0  0  0  0  0  0  0  0
   -4.3922    3.0817    0.5218 H   0  0  0  0  0  0  0  0  0  0  0  0
   -2.2550   -1.6968    0.5637 H   0  0  0  0  0  0  0  0  0  0  0  0
   -4.9204    0.6351    1.5564 H   0  0  0  0  0  0  0  0  0  0  0  0
   -5.4087   -2.2139    0.2626 H   0  0  0  0  0  0  0  0  0  0  0  0
   -6.7245   -0.9680    0.6905 H   0  0  0  0  0  0  0  0  0  0  0  0
   -5.9537   -0.8524    2.9753 H   0  0  0  0  0  0  0  0  0  0  0  0
   -5.5932   -3.4896    1.8751 H   0  0  0  0  0  0  0  0  0  0  0  0
   -3.4875   -0.7420    2.8220 H   0  0  0  0  0  0  0  0  0  0  0  0
   -3.5180   -2.0998    1.5772 H   0  0  0  0  0  0  0  0  0  0  0  0
  1  2  1  0
  2  3  2  0
  3  4  1  0
  4  5  2  0
  5  6  1  0
  6  7  1  0
  7  8  2  0
  7  9  1  0
  9 10  2  0
 10 11  1  0
 11 12  2  0
 12 13  1  0
 13 14  2  0
 13 15  1  0
 15 16  1  0
 16 17  1  0
 15 18  1  0
 18 19  3  0
  5 20  1  0
 20 21  2  0
 21 22  1  0
 22 23  2  0
 23 24  1  0
 24 25  2  0
 25 26  1  0
 26 27  1  0
 27 28  1  0
 28 29  1  0
 29 30  1  0
 30 31  1  0
 25 32  1  0
 32 33  2  0
 32 34  1  0
 34 35  1  0
 35 36  1  0
 36 37  1  0
 36 38  1  0
 21  2  1  0
 33 22  1  0
 38 34  1  0
 14  9  1  0
 17 15  1  0
 31 26  1  0
  1 39  1  0
  1 40  1  0
  1 41  1  0
  4 42  1  0
  6 43  1  0
 10 44  1  0
 11 45  1  0
 14 46  1  0
 16 47  1  0
 16 48  1  0
 17 49  1  0
 17 50  1  0
 20 51  1  0
 23 52  1  0
 27 53  1  0
 27 54  1  0
 28 55  1  0
 28 56  1  0
 30 57  1  0
 30 58  1  0
 31 59  1  0
 31 60  1  0
 33 61  1  0
 34 62  1  0
 35 63  1  0
 35 64  1  0
 36 65  1  0
 37 66  1  0
 38 67  1  0
 38 68  1  0
M  END
$$$$
[H]O[C@]1([H])C([H])([H])[C@@]([H])(C([H])(C([H])([H])[H])C([H])([H])[H])[C@]([H])(OC([H])([H])[H])[C@]1([H])N([H])C(=O)[C@@]([H])(N([H])C(=O)C([H])([H])C([H])(C([H])([H])[H])C([H])([H])[H])C([H])(C([H])([H])[H])C([H])([H])[H]
     RDKit          3D

 61 61  0  0  0  0  0  0  0  0999 V2000
   -2.3408    0.4847   -3.0231 C   0  0  0  0  0  0  0  0  0  0  0  0
   -2.0740   -0.0274   -1.7622 O   0  0  0  0  0  0  0  0  0  0  0  0
   -2.9735    0.4749   -0.8378 C   0  0  1  0  0  0  0  0  0  0  0  0
   -3.5401   -0.5341    0.1069 C   0  0  1  0  0  0  0  0  0  0  0  0
   -3.6460    0.1496    1.4688 C   0  0  0  0  0  0  0  0  0  0  0  0
   -3.2094    1.5740    1.2276 C   0  0  1  0  0  0  0  0  0  0  0  0
   -2.6893    2.1721    2.3616 O   0  0  0  0  0  0  0  0  0  0  0  0
   -2.1809    1.3760    0.1383 C   0  0  1  0  0  0  0  0  0  0  0  0
   -1.0674    0.5369    0.6042 N   0  0  0  0  0  0  0  0  0  0  0  0
    0.2737    0.9372    0.4161 C   0  0  0  0  0  0  0  0  0  0  0  0
    0.5129    2.0248   -0.1658 O   0  0  0  0  0  0  0  0  0  0  0  0
    1.3825    0.1024    0.8858 C   0  0  1  0  0  0  0  0  0  0  0  0
    2.6257    0.7252    0.3859 N   0  0  0  0  0  0  0  0  0  0  0  0
    3.5128   -0.0084   -0.4263 C   0  0  0  0  0  0  0  0  0  0  0  0
    3.2695   -1.1817   -0.7351 O   0  0  0  0  0  0  0  0  0  0  0  0
    4.7523    0.6471   -0.9109 C   0  0  0  0  0  0  0  0  0  0  0  0
    5.5399   -0.3149   -1.7477 C   0  0  0  0  0  0  0  0  0  0  0  0
    5.9119   -1.5300   -0.9259 C   0  0  0  0  0  0  0  0  0  0  0  0
    6.7741    0.4040   -2.2449 C   0  0  0  0  0  0  0  0  0  0  0  0
    1.5250    0.1891    2.4044 C   0  0  0  0  0  0  0  0  0  0  0  0
    2.7214   -0.7200    2.7464 C   0  0  0  0  0  0  0  0  0  0  0  0
    0.3455   -0.3332    3.1591 C   0  0  0  0  0  0  0  0  0  0  0  0
   -4.8128   -1.1797   -0.3006 C   0  0  0  0  0  0  0  0  0  0  0  0
   -4.6721   -1.9292   -1.5886 C   0  0  0  0  0  0  0  0  0  0  0  0
   -5.9663   -0.2109   -0.4278 C   0  0  0  0  0  0  0  0  0  0  0  0
   -2.2435    1.6101   -2.9709 H   0  0  0  0  0  0  0  0  0  0  0  0
   -1.5662    0.1653   -3.7611 H   0  0  0  0  0  0  0  0  0  0  0  0
   -3.3651    0.2635   -3.3655 H   0  0  0  0  0  0  0  0  0  0  0  0
   -3.7399    1.1453   -1.3151 H   0  0  0  0  0  0  0  0  0  0  0  0
   -2.7745   -1.3692    0.1690 H   0  0  0  0  0  0  0  0  0  0  0  0
   -4.6625    0.0763    1.8651 H   0  0  0  0  0  0  0  0  0  0  0  0
   -2.9409   -0.3058    2.2070 H   0  0  0  0  0  0  0  0  0  0  0  0
   -4.0491    2.1233    0.7828 H   0  0  0  0  0  0  0  0  0  0  0  0
   -2.6173    3.1433    2.1939 H   0  0  0  0  0  0  0  0  0  0  0  0
   -1.8333    2.2887   -0.3355 H   0  0  0  0  0  0  0  0  0  0  0  0
   -1.2515   -0.3746    1.0691 H   0  0  0  0  0  0  0  0  0  0  0  0
    1.3312   -0.9259    0.5287 H   0  0  0  0  0  0  0  0  0  0  0  0
    2.7836    1.7008    0.6689 H   0  0  0  0  0  0  0  0  0  0  0  0
    4.4796    1.5680   -1.4423 H   0  0  0  0  0  0  0  0  0  0  0  0
    5.3790    0.9819   -0.0371 H   0  0  0  0  0  0  0  0  0  0  0  0
    4.9185   -0.6481   -2.5986 H   0  0  0  0  0  0  0  0  0  0  0  0
    5.4830   -2.4601   -1.3702 H   0  0  0  0  0  0  0  0  0  0  0  0
    7.0186   -1.6920   -0.9350 H   0  0  0  0  0  0  0  0  0  0  0  0
    5.6248   -1.4245    0.1446 H   0  0  0  0  0  0  0  0  0  0  0  0
    7.2684    0.9702   -1.4481 H   0  0  0  0  0  0  0  0  0  0  0  0
    7.4856   -0.3771   -2.5957 H   0  0  0  0  0  0  0  0  0  0  0  0
    6.4529    1.0819   -3.0466 H   0  0  0  0  0  0  0  0  0  0  0  0
    1.7256    1.2181    2.7129 H   0  0  0  0  0  0  0  0  0  0  0  0
    2.7184   -1.5857    2.0815 H   0  0  0  0  0  0  0  0  0  0  0  0
    3.6514   -0.1426    2.5559 H   0  0  0  0  0  0  0  0  0  0  0  0
    2.6701   -1.0254    3.8139 H   0  0  0  0  0  0  0  0  0  0  0  0
    0.6047   -0.5107    4.2434 H   0  0  0  0  0  0  0  0  0  0  0  0
   -0.5116    0.3687    3.1903 H   0  0  0  0  0  0  0  0  0  0  0  0
    0.0366   -1.3441    2.7948 H   0  0  0  0  0  0  0  0  0  0  0  0
   -5.0876   -1.9056    0.4934 H   0  0  0  0  0  0  0  0  0  0  0  0
   -4.9561   -1.2582   -2.4233 H   0  0  0  0  0  0  0  0  0  0  0  0
   -3.6628   -2.3690   -1.6966 H   0  0  0  0  0  0  0  0  0  0  0  0
   -5.4360   -2.7613   -1.5591 H   0  0  0  0  0  0  0  0  0  0  0  0
   -6.0700    0.4355    0.4467 H   0  0  0  0  0  0  0  0  0  0  0  0
   -5.9415    0.3470   -1.3976 H   0  0  0  0  0  0  0  0  0  0  0  0
   -6.8975   -0.8369   -0.4719 H   0  0  0  0  0  0  0  0  0  0  0  0
  1  2  1  0
  2  3  1  0
  3  4  1  0
  4  5  1  0
  5  6  1  0
  6  7  1  0
  6  8  1  0
  8  9  1  0
  9 10  1  0
 10 11  2  0
 10 12  1  0
 12 13  1  0
 13 14  1  0
 14 15  2  0
 14 16  1  0
 16 17  1  0
 17 18  1  0
 17 19  1  0
 12 20  1  0
 20 21  1  0
 20 22  1  0
  4 23  1  0
 23 24  1  0
 23 25  1  0
  8  3  1  0
  1 26  1  0
  1 27  1  0
  1 28  1  0
  3 29  1  6
  4 30  1  1
  5 31  1  0
  5 32  1  0
  6 33  1  6
  7 34  1  0
  8 35  1  6
  9 36  1  0
 12 37  1  1
 13 38  1  0
 16 39  1  0
 16 40  1  0
 17 41  1  0
 18 42  1  0
 18 43  1  0
 18 44  1  0
 19 45  1  0
 19 46  1  0
 19 47  1  0
 20 48  1  0
 21 49  1  0
 21 50  1  0
 21 51  1  0
 22 52  1  0
 22 53  1  0
 22 54  1  0
 23 55  1  0
 24 56  1  0
 24 57  1  0
 24 58  1  0
 25 59  1  0
 25 60  1  0
 25 61  1  0
M  END
$$$$
[H]OC(=O)C1([H])C([H])([H])C([H])([H])C([H])(c2nc3c(nc(N([H])C(=O)c4nc([H])c(N5C([H])([H])C([H])([H])OC([H])([H])C5([H])[H])c5sc([H])c([H])c45)n3C([H])([H])c3c([H])c([H])c(F)c([H])c3F)c([H])c2[H])C([H])([H])C1([H])[H]
     RDKit          3D

 75 81  0  0  0  0  0  0  0  0999 V2000
  -10.4483    1.1843    1.0901 O   0  0  0  0  0  0  0  0  0  0  0  0
   -9.4722    1.3794    0.1251 C   0  0  0  0  0  0  0  0  0  0  0  0
   -9.2962    2.5534   -0.2828 O   0  0  0  0  0  0  0  0  0  0  0  0
   -8.6428    0.2438   -0.4273 C   0  0  0  0  0  0  0  0  0  0  0  0
   -7.9185   -0.3585    0.7081 C   0  0  0  0  0  0  0  0  0  0  0  0
   -6.4351   -0.4097    0.6302 C   0  0  0  0  0  0  0  0  0  0  0  0
   -5.9892    0.9013   -0.0352 C   0  0  0  0  0  0  0  0  0  0  0  0
   -6.3852    0.7497   -1.4674 C   0  0  0  0  0  0  0  0  0  0  0  0
   -7.8664    0.7651   -1.5683 C   0  0  0  0  0  0  0  0  0  0  0  0
   -4.5502    1.1409    0.1804 C   0  0  0  0  0  0  0  0  0  0  0  0
   -4.1995    2.2642    0.9173 C   0  0  0  0  0  0  0  0  0  0  0  0
   -2.8883    2.5788    1.1773 C   0  0  0  0  0  0  0  0  0  0  0  0
   -1.9138    1.7133    0.6646 C   0  0  0  0  0  0  0  0  0  0  0  0
   -0.5968    1.7048    0.6896 N   0  0  0  0  0  0  0  0  0  0  0  0
   -0.0963    0.6322    0.0053 C   0  0  0  0  0  0  0  0  0  0  0  0
    1.2888    0.3804   -0.1568 N   0  0  0  0  0  0  0  0  0  0  0  0
    2.2538    1.2669    0.4683 C   0  0  0  0  0  0  0  0  0  0  0  0
    1.7865    2.2068    1.1431 O   0  0  0  0  0  0  0  0  0  0  0  0
    3.6808    1.0301    0.2881 C   0  0  0  0  0  0  0  0  0  0  0  0
    4.0109   -0.0199   -0.4766 N   0  0  0  0  0  0  0  0  0  0  0  0
    5.2484   -0.4220   -0.7732 C   0  0  0  0  0  0  0  0  0  0  0  0
    6.2601    0.3381   -0.2240 C   0  0  0  0  0  0  0  0  0  0  0  0
    7.6218    0.0542   -0.4353 N   0  0  0  0  0  0  0  0  0  0  0  0
    8.4528    1.0420   -1.0910 C   0  0  0  0  0  0  0  0  0  0  0  0
    9.8595    0.8739   -0.5012 C   0  0  0  0  0  0  0  0  0  0  0  0
   10.3382   -0.3208   -0.9780 O   0  0  0  0  0  0  0  0  0  0  0  0
    9.5414   -1.4139   -0.7728 C   0  0  0  0  0  0  0  0  0  0  0  0
    8.2676   -1.1736   -0.0361 C   0  0  0  0  0  0  0  0  0  0  0  0
    5.9661    1.4491    0.5849 C   0  0  0  0  0  0  0  0  0  0  0  0
    6.9137    2.6027    1.4224 S   0  0  0  0  0  0  0  0  0  0  0  0
    5.6706    3.5347    2.1051 C   0  0  0  0  0  0  0  0  0  0  0  0
    4.5323    2.9127    1.6555 C   0  0  0  0  0  0  0  0  0  0  0  0
    4.6802    1.8331    0.8685 C   0  0  0  0  0  0  0  0  0  0  0  0
   -1.1560   -0.0623   -0.4662 N   0  0  0  0  0  0  0  0  0  0  0  0
   -1.0486   -1.2457   -1.2607 C   0  0  0  0  0  0  0  0  0  0  0  0
   -0.9043   -2.5447   -0.5801 C   0  0  0  0  0  0  0  0  0  0  0  0
    0.3721   -3.1406   -0.4671 C   0  0  0  0  0  0  0  0  0  0  0  0
    0.5768   -4.3403    0.1593 C   0  0  0  0  0  0  0  0  0  0  0  0
   -0.4606   -5.0336    0.7156 C   0  0  0  0  0  0  0  0  0  0  0  0
   -0.2951   -6.2254    1.3448 F   0  0  0  0  0  0  0  0  0  0  0  0
   -1.7092   -4.5062    0.6340 C   0  0  0  0  0  0  0  0  0  0  0  0
   -1.9078   -3.2860   -0.0052 C   0  0  0  0  0  0  0  0  0  0  0  0
   -3.1859   -2.8853   -0.0625 F   0  0  0  0  0  0  0  0  0  0  0  0
   -2.2932    0.5972   -0.0679 C   0  0  0  0  0  0  0  0  0  0  0  0
   -3.5916    0.3430   -0.2891 N   0  0  0  0  0  0  0  0  0  0  0  0
  -10.6364    1.8449    1.8211 H   0  0  0  0  0  0  0  0  0  0  0  0
   -9.4324   -0.4808   -0.8004 H   0  0  0  0  0  0  0  0  0  0  0  0
   -8.2604   -1.4303    0.8344 H   0  0  0  0  0  0  0  0  0  0  0  0
   -8.1821    0.1108    1.6868 H   0  0  0  0  0  0  0  0  0  0  0  0
   -6.0159   -0.4829    1.6478 H   0  0  0  0  0  0  0  0  0  0  0  0
   -6.0601   -1.2478   -0.0203 H   0  0  0  0  0  0  0  0  0  0  0  0
   -6.6266    1.6818    0.4225 H   0  0  0  0  0  0  0  0  0  0  0  0
   -5.9275   -0.1709   -1.9306 H   0  0  0  0  0  0  0  0  0  0  0  0
   -5.9697    1.5868   -2.0745 H   0  0  0  0  0  0  0  0  0  0  0  0
   -8.1292    0.1595   -2.4877 H   0  0  0  0  0  0  0  0  0  0  0  0
   -8.1863    1.8036   -1.8570 H   0  0  0  0  0  0  0  0  0  0  0  0
   -4.9818    2.9228    1.3054 H   0  0  0  0  0  0  0  0  0  0  0  0
   -2.5564    3.4262    1.7364 H   0  0  0  0  0  0  0  0  0  0  0  0
    1.6797   -0.3876   -0.7085 H   0  0  0  0  0  0  0  0  0  0  0  0
    5.4778   -1.2726   -1.3925 H   0  0  0  0  0  0  0  0  0  0  0  0
    8.1255    2.0708   -0.9459 H   0  0  0  0  0  0  0  0  0  0  0  0
    8.4940    0.8183   -2.1841 H   0  0  0  0  0  0  0  0  0  0  0  0
   10.4626    1.6856   -0.9241 H   0  0  0  0  0  0  0  0  0  0  0  0
    9.7657    0.8984    0.5945 H   0  0  0  0  0  0  0  0  0  0  0  0
    9.3436   -1.8836   -1.7686 H   0  0  0  0  0  0  0  0  0  0  0  0
   10.1469   -2.1835   -0.2175 H   0  0  0  0  0  0  0  0  0  0  0  0
    7.5906   -2.0490   -0.2594 H   0  0  0  0  0  0  0  0  0  0  0  0
    8.4123   -1.2238    1.0762 H   0  0  0  0  0  0  0  0  0  0  0  0
    5.7151    4.4271    2.7552 H   0  0  0  0  0  0  0  0  0  0  0  0
    3.5549    3.3476    1.9753 H   0  0  0  0  0  0  0  0  0  0  0  0
   -1.9611   -1.2873   -1.9273 H   0  0  0  0  0  0  0  0  0  0  0  0
   -0.1324   -1.1201   -1.9125 H   0  0  0  0  0  0  0  0  0  0  0  0
    1.2184   -2.6273   -0.9070 H   0  0  0  0  0  0  0  0  0  0  0  0
    1.5655   -4.8002    0.2465 H   0  0  0  0  0  0  0  0  0  0  0  0
   -2.5656   -5.0238    1.0631 H   0  0  0  0  0  0  0  0  0  0  0  0
  1  2  1  0
  2  3  2  0
  2  4  1  0
  4  5  1  0
  5  6  1  0
  6  7  1  0
  7  8  1  0
  8  9  1  0
  7 10  1  0
 10 11  2  0
 11 12  1  0
 12 13  2  0
 13 14  1  0
 14 15  2  0
 15 16  1  0
 16 17  1  0
 17 18  2  0
 17 19  1  0
 19 20  2  0
 20 21  1  0
 21 22  2  0
 22 23  1  0
 23 24  1  0
 24 25  1  0
 25 26  1  0
 26 27  1  0
 27 28  1  0
 22 29  1  0
 29 30  1  0
 30 31  1  0
 31 32  2  0
 32 33  1  0
 15 34  1  0
 34 35  1  0
 35 36  1  0
 36 37  2  0
 37 38  1  0
 38 39  2  0
 39 40  1  0
 39 41  1  0
 41 42  2  0
 42 43  1  0
 34 44  1  0
 44 45  2  0
  9  4  1  0
 45 10  1  0
 44 13  1  0
 33 19  1  0
 42 36  1  0
 28 23  1  0
 33 29  2  0
  1 46  1  0
  4 47  1  0
  5 48  1  0
  5 49  1  0
  6 50  1  0
  6 51  1  0
  7 52  1  0
  8 53  1  0
  8 54  1  0
  9 55  1  0
  9 56  1  0
 11 57  1  0
 12 58  1  0
 16 59  1  0
 21 60  1  0
 24 61  1  0
 24 62  1  0
 25 63  1  0
 25 64  1  0
 27 65  1  0
 27 66  1  0
 28 67  1  0
 28 68  1  0
 31 69  1  0
 32 70  1  0
 35 71  1  0
 35 72  1  0
 37 73  1  0
 38 74  1  0
 41 75  1  0
M  END
$$$$
[H]c1c([H])c([H])c(C([H])(C(=O)OC([H])(C([H])([H])[H])C([H])([H])[H])C(=O)N([H])C([H])([H])C2([H])Oc3c([H])c([H])c([H])c([H])c3C([H])([H])C2([H])[H])c([H])c1[H]
     RDKit          3D

 52 54  0  0  0  0  0  0  0  0999 V2000
   -4.4477    2.6259   -3.0250 C   0  0  0  0  0  0  0  0  0  0  0  0
   -3.6120    2.4571   -1.7986 C   0  0  0  0  0  0  0  0  0  0  0  0
   -2.7106    3.6579   -1.6045 C   0  0  0  0  0  0  0  0  0  0  0  0
   -2.9197    1.2387   -1.7435 O   0  0  0  0  0  0  0  0  0  0  0  0
   -3.1099    0.2796   -0.7625 C   0  0  0  0  0  0  0  0  0  0  0  0
   -3.9541    0.5159    0.1323 O   0  0  0  0  0  0  0  0  0  0  0  0
   -2.3034   -0.9606   -0.8361 C   0  0  0  0  0  0  0  0  0  0  0  0
   -0.8232   -0.5954   -0.7468 C   0  0  0  0  0  0  0  0  0  0  0  0
   -0.5569    0.6103   -0.6640 O   0  0  0  0  0  0  0  0  0  0  0  0
    0.1530   -1.5988   -0.7607 N   0  0  0  0  0  0  0  0  0  0  0  0
    1.5569   -1.5963   -0.6768 C   0  0  0  0  0  0  0  0  0  0  0  0
    2.2831   -1.1863    0.5355 C   0  0  0  0  0  0  0  0  0  0  0  0
    2.1117    0.1696    1.1129 C   0  0  0  0  0  0  0  0  0  0  0  0
    2.7573    1.2254    0.2165 C   0  0  0  0  0  0  0  0  0  0  0  0
    4.2306    0.9585    0.3013 C   0  0  0  0  0  0  0  0  0  0  0  0
    5.1174    1.9903    0.3144 C   0  0  0  0  0  0  0  0  0  0  0  0
    6.4806    1.7087    0.3991 C   0  0  0  0  0  0  0  0  0  0  0  0
    6.9327    0.4080    0.4688 C   0  0  0  0  0  0  0  0  0  0  0  0
    5.9934   -0.5981    0.4518 C   0  0  0  0  0  0  0  0  0  0  0  0
    4.6260   -0.3470    0.3679 C   0  0  0  0  0  0  0  0  0  0  0  0
    3.7057   -1.3621    0.3518 O   0  0  0  0  0  0  0  0  0  0  0  0
   -2.6713   -1.8204    0.2952 C   0  0  0  0  0  0  0  0  0  0  0  0
   -2.5701   -1.3589    1.5831 C   0  0  0  0  0  0  0  0  0  0  0  0
   -2.9132   -2.1562    2.6706 C   0  0  0  0  0  0  0  0  0  0  0  0
   -3.3642   -3.4360    2.4572 C   0  0  0  0  0  0  0  0  0  0  0  0
   -3.4686   -3.9061    1.1719 C   0  0  0  0  0  0  0  0  0  0  0  0
   -3.1211   -3.0962    0.0856 C   0  0  0  0  0  0  0  0  0  0  0  0
   -5.4307    3.1121   -2.8010 H   0  0  0  0  0  0  0  0  0  0  0  0
   -4.6942    1.6582   -3.5215 H   0  0  0  0  0  0  0  0  0  0  0  0
   -3.9332    3.3172   -3.7446 H   0  0  0  0  0  0  0  0  0  0  0  0
   -4.3106    2.4612   -0.9108 H   0  0  0  0  0  0  0  0  0  0  0  0
   -3.3946    4.4963   -1.2790 H   0  0  0  0  0  0  0  0  0  0  0  0
   -2.0231    3.4958   -0.7561 H   0  0  0  0  0  0  0  0  0  0  0  0
   -2.2247    3.9954   -2.5250 H   0  0  0  0  0  0  0  0  0  0  0  0
   -2.4541   -1.5108   -1.7792 H   0  0  0  0  0  0  0  0  0  0  0  0
   -0.2889   -2.6173   -0.8572 H   0  0  0  0  0  0  0  0  0  0  0  0
    1.9639   -1.0338   -1.6010 H   0  0  0  0  0  0  0  0  0  0  0  0
    1.9264   -2.6499   -0.9349 H   0  0  0  0  0  0  0  0  0  0  0  0
    2.0156   -1.9450    1.3459 H   0  0  0  0  0  0  0  0  0  0  0  0
    2.7951    0.1875    2.0363 H   0  0  0  0  0  0  0  0  0  0  0  0
    1.1172    0.4412    1.4526 H   0  0  0  0  0  0  0  0  0  0  0  0
    2.4669    1.0734   -0.8476 H   0  0  0  0  0  0  0  0  0  0  0  0
    2.5579    2.2319    0.5866 H   0  0  0  0  0  0  0  0  0  0  0  0
    4.7625    3.0021    0.2600 H   0  0  0  0  0  0  0  0  0  0  0  0
    7.1741    2.5152    0.4093 H   0  0  0  0  0  0  0  0  0  0  0  0
    7.9992    0.2541    0.5328 H   0  0  0  0  0  0  0  0  0  0  0  0
    6.3227   -1.6152    0.5050 H   0  0  0  0  0  0  0  0  0  0  0  0
   -2.2147   -0.3499    1.7555 H   0  0  0  0  0  0  0  0  0  0  0  0
   -2.8346   -1.7970    3.6751 H   0  0  0  0  0  0  0  0  0  0  0  0
   -3.6403   -4.0829    3.2946 H   0  0  0  0  0  0  0  0  0  0  0  0
   -3.8298   -4.9284    1.0170 H   0  0  0  0  0  0  0  0  0  0  0  0
   -3.2305   -3.5389   -0.9056 H   0  0  0  0  0  0  0  0  0  0  0  0
  1  2  1  0
  2  3  1  0
  2  4  1  0
  4  5  1  0
  5  6  2  0
  5  7  1  0
  7  8  1  0
  8  9  2  0
  8 10  1  0
 10 11  1  0
 11 12  1  0
 12 13  1  0
 13 14  1  0
 14 15  1  0
 15 16  2  0
 16 17  1  0
 17 18  2  0
 18 19  1  0
 19 20  2  0
 20 21  1  0
  7 22  1  0
 22 23  2  0
 23 24  1  0
 24 25  2  0
 25 26  1  0
 26 27  2  0
 21 12  1  0
 27 22  1  0
 20 15  1  0
  1 28  1  0
  1 29  1  0
  1 30  1  0
  2 31  1  0
  3 32  1  0
  3 33  1  0
  3 34  1  0
  7 35  1  0
 10 36  1  0
 11 37  1  0
 11 38  1  0
 12 39  1  0
 13 40  1  0
 13 41  1  0
 14 42  1  0
 14 43  1  0
 16 44  1  0
 17 45  1  0
 18 46  1  0
 19 47  1  0
 23 48  1  0
 24 49  1  0
 25 50  1  0
 26 51  1  0
 27 52  1  0
M  END
$$$$
[H]c1c([H])c([H])c([C@]2([H])C(=O)[C@@]([H])(C([H])([H])C(C([H])([H])[H])(C([H])([H])[H])C([H])([H])[H])N([H])[C@@]2([H])c2c([H])c([H])c(F)c(F)c2[H])c([H])c1[H]
     RDKit          3D

 48 50  0  0  0  0  0  0  0  0999 V2000
    3.1063   -1.1096   -0.3812 C   0  0  0  0  0  0  0  0  0  0  0  0
    3.1155    0.3568   -0.1280 C   0  0  0  0  0  0  0  0  0  0  0  0
    3.6345    1.0453   -1.4030 C   0  0  0  0  0  0  0  0  0  0  0  0
    4.1807    0.6292    0.9161 C   0  0  0  0  0  0  0  0  0  0  0  0
    1.8159    0.9911    0.1856 C   0  0  0  0  0  0  0  0  0  0  0  0
    1.0861    0.5219    1.3906 C   0  0  1  0  0  0  0  0  0  0  0  0
   -0.1537    1.3203    1.4634 N   0  0  0  0  0  0  0  0  0  0  0  0
   -1.1828    0.6047    0.7717 C   0  0  2  0  0  0  0  0  0  0  0  0
   -0.6695   -0.7418    0.4622 C   0  0  2  0  0  0  0  0  0  0  0  0
   -1.6037   -1.8383    0.7302 C   0  0  0  0  0  0  0  0  0  0  0  0
   -2.2583   -1.9149    1.9322 C   0  0  0  0  0  0  0  0  0  0  0  0
   -3.1397   -2.9844    2.1504 C   0  0  0  0  0  0  0  0  0  0  0  0
   -3.3501   -3.9435    1.1825 C   0  0  0  0  0  0  0  0  0  0  0  0
   -2.6983   -3.8616   -0.0063 C   0  0  0  0  0  0  0  0  0  0  0  0
   -1.8281   -2.8023   -0.2168 C   0  0  0  0  0  0  0  0  0  0  0  0
    0.5672   -0.8660    1.3177 C   0  0  0  0  0  0  0  0  0  0  0  0
    0.9751   -1.8879    1.7961 O   0  0  0  0  0  0  0  0  0  0  0  0
   -1.6532    1.3959   -0.3979 C   0  0  0  0  0  0  0  0  0  0  0  0
   -1.8653    0.8745   -1.6471 C   0  0  0  0  0  0  0  0  0  0  0  0
   -2.3081    1.6609   -2.7126 C   0  0  0  0  0  0  0  0  0  0  0  0
   -2.5434    2.9910   -2.5288 C   0  0  0  0  0  0  0  0  0  0  0  0
   -2.9712    3.7720   -3.5413 F   0  0  0  0  0  0  0  0  0  0  0  0
   -2.3322    3.5186   -1.2784 C   0  0  0  0  0  0  0  0  0  0  0  0
   -2.5755    4.8504   -1.1242 F   0  0  0  0  0  0  0  0  0  0  0  0
   -1.8917    2.7421   -0.2134 C   0  0  0  0  0  0  0  0  0  0  0  0
    3.5089   -1.7040    0.4710 H   0  0  0  0  0  0  0  0  0  0  0  0
    2.1578   -1.5044   -0.7967 H   0  0  0  0  0  0  0  0  0  0  0  0
    3.8571   -1.3148   -1.2065 H   0  0  0  0  0  0  0  0  0  0  0  0
    3.3580    2.0992   -1.3241 H   0  0  0  0  0  0  0  0  0  0  0  0
    3.1070    0.5431   -2.2364 H   0  0  0  0  0  0  0  0  0  0  0  0
    4.7188    0.8504   -1.4379 H   0  0  0  0  0  0  0  0  0  0  0  0
    4.1428    1.6598    1.2989 H   0  0  0  0  0  0  0  0  0  0  0  0
    4.0782   -0.0577    1.7811 H   0  0  0  0  0  0  0  0  0  0  0  0
    5.1993    0.4716    0.5067 H   0  0  0  0  0  0  0  0  0  0  0  0
    1.1365    0.8929   -0.6993 H   0  0  0  0  0  0  0  0  0  0  0  0
    1.9977    2.1030    0.2579 H   0  0  0  0  0  0  0  0  0  0  0  0
    1.6078    0.7011    2.3338 H   0  0  0  0  0  0  0  0  0  0  0  0
   -0.0028    2.2344    0.9878 H   0  0  0  0  0  0  0  0  0  0  0  0
   -2.0647    0.5829    1.4777 H   0  0  0  0  0  0  0  0  0  0  0  0
   -0.2770   -0.7651   -0.5807 H   0  0  0  0  0  0  0  0  0  0  0  0
   -2.1422   -1.2003    2.7350 H   0  0  0  0  0  0  0  0  0  0  0  0
   -3.6533   -3.0488    3.0873 H   0  0  0  0  0  0  0  0  0  0  0  0
   -4.0449   -4.7699    1.3785 H   0  0  0  0  0  0  0  0  0  0  0  0
   -2.8799   -4.6262   -0.7502 H   0  0  0  0  0  0  0  0  0  0  0  0
   -1.3356   -2.7864   -1.1816 H   0  0  0  0  0  0  0  0  0  0  0  0
   -1.7031   -0.1550   -1.8643 H   0  0  0  0  0  0  0  0  0  0  0  0
   -2.4693    1.2276   -3.6923 H   0  0  0  0  0  0  0  0  0  0  0  0
   -1.7535    3.2428    0.7348 H   0  0  0  0  0  0  0  0  0  0  0  0
  1  2  1  0
  2  3  1  0
  2  4  1  0
  2  5  1  0
  5  6  1  0
  6  7  1  0
  7  8  1  0
  8  9  1  0
  9 10  1  0
 10 11  2  0
 11 12  1  0
 12 13  2  0
 13 14  1  0
 14 15  2  0
  9 16  1  0
 16 17  2  0
  8 18  1  0
 18 19  2  0
 19 20  1  0
 20 21  2  0
 21 22  1  0
 21 23  1  0
 23 24  1  0
 23 25  2  0
 16  6  1  0
 25 18  1  0
 15 10  1  0
  1 26  1  0
  1 27  1  0
  1 28  1  0
  3 29  1  0
  3 30  1  0
  3 31  1  0
  4 32  1  0
  4 33  1  0
  4 34  1  0
  5 35  1  0
  5 36  1  0
  6 37  1  1
  7 38  1  0
  8 39  1  1
  9 40  1  6
 11 41  1  0
 12 42  1  0
 13 43  1  0
 14 44  1  0
 15 45  1  0
 19 46  1  0
 20 47  1  0
 25 48  1  0
M  END
$$$$
[H]N=C(N([H])[H])N([H])C(=O)c1c([H])c([H])c(C(=C2C([H])([H])C([H])(c3noc(C([H])([H])[H])n3)C2([H])[H])c2c([H])c([H])c(F)c([H])c2[H])c([H])c1[H]
     RDKit          3D

 50 53  0  0  0  0  0  0  0  0999 V2000
   -6.7721    2.5886    1.2241 C   0  0  0  0  0  0  0  0  0  0  0  0
   -5.9937    2.1706    0.0181 C   0  0  0  0  0  0  0  0  0  0  0  0
   -4.8338    1.4611    0.0421 N   0  0  0  0  0  0  0  0  0  0  0  0
   -4.4006    1.2543   -1.2216 C   0  0  0  0  0  0  0  0  0  0  0  0
   -5.3382    1.8632   -2.0007 N   0  0  0  0  0  0  0  0  0  0  0  0
   -6.2482    2.3840   -1.2360 O   0  0  0  0  0  0  0  0  0  0  0  0
   -3.1828    0.5278   -1.6662 C   0  0  0  0  0  0  0  0  0  0  0  0
   -1.8809    0.9729   -1.0474 C   0  0  0  0  0  0  0  0  0  0  0  0
   -1.5780   -0.4417   -0.6140 C   0  0  0  0  0  0  0  0  0  0  0  0
   -3.0211   -0.7048   -0.7980 C   0  0  0  0  0  0  0  0  0  0  0  0
   -0.5031   -1.0756   -0.2454 C   0  0  0  0  0  0  0  0  0  0  0  0
   -0.5383   -2.4807    0.1229 C   0  0  0  0  0  0  0  0  0  0  0  0
    0.0377   -2.9314    1.2936 C   0  0  0  0  0  0  0  0  0  0  0  0
    0.0094   -4.2646    1.5750 C   0  0  0  0  0  0  0  0  0  0  0  0
   -0.5875   -5.1642    0.7041 C   0  0  0  0  0  0  0  0  0  0  0  0
   -0.6290   -6.4932    0.9608 F   0  0  0  0  0  0  0  0  0  0  0  0
   -1.1603   -4.7182   -0.4590 C   0  0  0  0  0  0  0  0  0  0  0  0
   -1.1339   -3.3672   -0.7487 C   0  0  0  0  0  0  0  0  0  0  0  0
    0.8158   -0.4427   -0.1811 C   0  0  0  0  0  0  0  0  0  0  0  0
    1.0479    0.8071    0.3044 C   0  0  0  0  0  0  0  0  0  0  0  0
    2.3448    1.3403    0.3183 C   0  0  0  0  0  0  0  0  0  0  0  0
    3.4334    0.6419   -0.1496 C   0  0  0  0  0  0  0  0  0  0  0  0
    3.2028   -0.6320   -0.6454 C   0  0  0  0  0  0  0  0  0  0  0  0
    1.9323   -1.1470   -0.6559 C   0  0  0  0  0  0  0  0  0  0  0  0
    4.7935    1.1472   -0.1576 C   0  0  0  0  0  0  0  0  0  0  0  0
    5.6957    0.3992   -0.6619 O   0  0  0  0  0  0  0  0  0  0  0  0
    5.1735    2.4126    0.3589 N   0  0  0  0  0  0  0  0  0  0  0  0
    6.5126    2.8562    0.3255 C   0  0  0  0  0  0  0  0  0  0  0  0
    7.5147    2.0140   -0.2419 N   0  0  0  0  0  0  0  0  0  0  0  0
    6.8612    4.0047    0.7941 N   0  0  0  0  0  0  0  0  0  0  0  0
   -7.8767    2.5114    1.0190 H   0  0  0  0  0  0  0  0  0  0  0  0
   -6.4691    3.5893    1.5675 H   0  0  0  0  0  0  0  0  0  0  0  0
   -6.5988    1.8379    2.0394 H   0  0  0  0  0  0  0  0  0  0  0  0
   -3.1355    0.3852   -2.7513 H   0  0  0  0  0  0  0  0  0  0  0  0
   -2.0891    1.6579   -0.2113 H   0  0  0  0  0  0  0  0  0  0  0  0
   -1.1513    1.2792   -1.8023 H   0  0  0  0  0  0  0  0  0  0  0  0
   -3.3213   -1.5795   -1.3967 H   0  0  0  0  0  0  0  0  0  0  0  0
   -3.6241   -0.6995    0.1344 H   0  0  0  0  0  0  0  0  0  0  0  0
    0.4963   -2.2430    1.9672 H   0  0  0  0  0  0  0  0  0  0  0  0
    0.4408   -4.6891    2.4749 H   0  0  0  0  0  0  0  0  0  0  0  0
   -1.6345   -5.4095   -1.1561 H   0  0  0  0  0  0  0  0  0  0  0  0
   -1.5863   -3.0741   -1.6813 H   0  0  0  0  0  0  0  0  0  0  0  0
    0.2241    1.3801    0.6786 H   0  0  0  0  0  0  0  0  0  0  0  0
    2.5043    2.3389    0.7098 H   0  0  0  0  0  0  0  0  0  0  0  0
    4.0102   -1.2481   -1.0350 H   0  0  0  0  0  0  0  0  0  0  0  0
    1.7833   -2.1413   -1.0489 H   0  0  0  0  0  0  0  0  0  0  0  0
    4.4492    3.0345    0.7722 H   0  0  0  0  0  0  0  0  0  0  0  0
    7.9226    1.1884    0.2586 H   0  0  0  0  0  0  0  0  0  0  0  0
    7.8744    2.2155   -1.2093 H   0  0  0  0  0  0  0  0  0  0  0  0
    6.2076    4.6833    1.2229 H   0  0  0  0  0  0  0  0  0  0  0  0
  1  2  1  0
  2  3  2  0
  3  4  1  0
  4  5  2  0
  5  6  1  0
  4  7  1  0
  7  8  1  0
  8  9  1  0
  9 10  1  0
  9 11  2  3
 11 12  1  0
 12 13  2  0
 13 14  1  0
 14 15  2  0
 15 16  1  0
 15 17  1  0
 17 18  2  0
 11 19  1  0
 19 20  2  0
 20 21  1  0
 21 22  2  0
 22 23  1  0
 23 24  2  0
 22 25  1  0
 25 26  2  0
 25 27  1  0
 27 28  1  0
 28 29  1  0
 28 30  2  3
  6  2  1  0
 10  7  1  0
 18 12  1  0
 24 19  1  0
  1 31  1  0
  1 32  1  0
  1 33  1  0
  7 34  1  0
  8 35  1  0
  8 36  1  0
 10 37  1  0
 10 38  1  0
 13 39  1  0
 14 40  1  0
 17 41  1  0
 18 42  1  0
 20 43  1  0
 21 44  1  0
 23 45  1  0
 24 46  1  0
 27 47  1  0
 29 48  1  0
 29 49  1  0
 30 50  1  0
M  END
$$$$
[H]c1c([H])c([H])c(C([H])([H])C([H])([H])C([H])([H])C([H])([H])N(C([H])([H])C([H])([H])[H])S(=O)(=O)N([H])C([H])(C(=O)OC([H])([H])C([H])([H])[H])C([H])([H])N([H])C([H])([H])c2c([H])c([H])c(Cl)c([H])c2Cl)c([H])c1[H]
     RDKit          3D

 67 68  0  0  0  0  0  0  0  0999 V2000
   -3.3513   -5.9726    0.9792 C   0  0  0  0  0  0  0  0  0  0  0  0
   -3.3466   -5.0185    2.1804 C   0  0  0  0  0  0  0  0  0  0  0  0
   -3.3381   -3.7072    1.6469 O   0  0  0  0  0  0  0  0  0  0  0  0
   -2.3438   -3.2230    0.8313 C   0  0  0  0  0  0  0  0  0  0  0  0
   -1.3835   -3.9544    0.5279 O   0  0  0  0  0  0  0  0  0  0  0  0
   -2.3618   -1.8027    0.2692 C   0  0  0  0  0  0  0  0  0  0  0  0
   -3.6419   -1.7083   -0.5734 C   0  0  0  0  0  0  0  0  0  0  0  0
   -3.8047   -0.4291   -1.1386 N   0  0  0  0  0  0  0  0  0  0  0  0
   -4.1615    0.5959   -0.1816 C   0  0  0  0  0  0  0  0  0  0  0  0
   -4.3100    1.9259   -0.8216 C   0  0  0  0  0  0  0  0  0  0  0  0
   -4.1181    2.0446   -2.1781 C   0  0  0  0  0  0  0  0  0  0  0  0
   -4.2705    3.3116   -2.7477 C   0  0  0  0  0  0  0  0  0  0  0  0
   -4.6030    4.3845   -1.9430 C   0  0  0  0  0  0  0  0  0  0  0  0
   -4.8021    5.9883   -2.6257 Cl  0  0  0  0  0  0  0  0  0  0  0  0
   -4.7870    4.2279   -0.5908 C   0  0  0  0  0  0  0  0  0  0  0  0
   -4.6419    2.9938   -0.0148 C   0  0  0  0  0  0  0  0  0  0  0  0
   -4.8698    2.7503    1.7228 Cl  0  0  0  0  0  0  0  0  0  0  0  0
   -1.2011   -1.5731   -0.5053 N   0  0  0  0  0  0  0  0  0  0  0  0
   -0.1337   -0.3300   -0.1480 S   0  0  0  0  0  0  0  0  0  0  0  0
    0.2724    0.4560   -1.3760 O   0  0  0  0  0  0  0  0  0  0  0  0
   -0.7246    0.6928    0.8282 O   0  0  0  0  0  0  0  0  0  0  0  0
    1.2551   -0.9179    0.6316 N   0  0  0  0  0  0  0  0  0  0  0  0
    1.2526   -0.9138    2.0413 C   0  0  0  0  0  0  0  0  0  0  0  0
    0.8328   -2.1576    2.7433 C   0  0  0  0  0  0  0  0  0  0  0  0
    2.4648   -0.9633   -0.0654 C   0  0  0  0  0  0  0  0  0  0  0  0
    3.4469    0.0757    0.3300 C   0  0  0  0  0  0  0  0  0  0  0  0
    2.9291    1.4512    0.0961 C   0  0  0  0  0  0  0  0  0  0  0  0
    3.9186    2.5223    0.5414 C   0  0  0  0  0  0  0  0  0  0  0  0
    5.2065    2.4669   -0.1438 C   0  0  0  0  0  0  0  0  0  0  0  0
    5.4029    3.1428   -1.3260 C   0  0  0  0  0  0  0  0  0  0  0  0
    6.6134    3.0845   -1.9448 C   0  0  0  0  0  0  0  0  0  0  0  0
    7.6570    2.3671   -1.4255 C   0  0  0  0  0  0  0  0  0  0  0  0
    7.4710    1.6832   -0.2365 C   0  0  0  0  0  0  0  0  0  0  0  0
    6.2584    1.7386    0.3883 C   0  0  0  0  0  0  0  0  0  0  0  0
   -3.9628   -5.5545    0.1593 H   0  0  0  0  0  0  0  0  0  0  0  0
   -3.8371   -6.9081    1.2978 H   0  0  0  0  0  0  0  0  0  0  0  0
   -2.3196   -6.2405    0.6774 H   0  0  0  0  0  0  0  0  0  0  0  0
   -4.3139   -5.1912    2.6985 H   0  0  0  0  0  0  0  0  0  0  0  0
   -2.4762   -5.2184    2.8341 H   0  0  0  0  0  0  0  0  0  0  0  0
   -2.4456   -1.0537    1.0550 H   0  0  0  0  0  0  0  0  0  0  0  0
   -4.4695   -1.9083    0.1699 H   0  0  0  0  0  0  0  0  0  0  0  0
   -3.7079   -2.5526   -1.2839 H   0  0  0  0  0  0  0  0  0  0  0  0
   -2.8973   -0.0738   -1.5771 H   0  0  0  0  0  0  0  0  0  0  0  0
   -3.5515    0.6159    0.7231 H   0  0  0  0  0  0  0  0  0  0  0  0
   -5.2015    0.3352    0.1764 H   0  0  0  0  0  0  0  0  0  0  0  0
   -3.8580    1.2016   -2.8126 H   0  0  0  0  0  0  0  0  0  0  0  0
   -4.1256    3.4205   -3.7952 H   0  0  0  0  0  0  0  0  0  0  0  0
   -5.0501    5.0747    0.0546 H   0  0  0  0  0  0  0  0  0  0  0  0
   -1.4199   -1.6292   -1.5055 H   0  0  0  0  0  0  0  0  0  0  0  0
    2.2167   -0.5201    2.4242 H   0  0  0  0  0  0  0  0  0  0  0  0
    0.5056   -0.1135    2.3521 H   0  0  0  0  0  0  0  0  0  0  0  0
    1.4540   -2.2675    3.6567 H   0  0  0  0  0  0  0  0  0  0  0  0
    0.8901   -3.0679    2.1286 H   0  0  0  0  0  0  0  0  0  0  0  0
   -0.2221   -2.1049    3.1088 H   0  0  0  0  0  0  0  0  0  0  0  0
    2.9242   -1.9839   -0.1323 H   0  0  0  0  0  0  0  0  0  0  0  0
    2.2231   -0.7438   -1.1580 H   0  0  0  0  0  0  0  0  0  0  0  0
    3.8188    0.0227    1.3725 H   0  0  0  0  0  0  0  0  0  0  0  0
    4.3970    0.0016   -0.2929 H   0  0  0  0  0  0  0  0  0  0  0  0
    2.8076    1.5717   -1.0132 H   0  0  0  0  0  0  0  0  0  0  0  0
    1.9822    1.6573    0.6096 H   0  0  0  0  0  0  0  0  0  0  0  0
    4.0103    2.5179    1.6347 H   0  0  0  0  0  0  0  0  0  0  0  0
    3.4423    3.5046    0.2627 H   0  0  0  0  0  0  0  0  0  0  0  0
    4.6152    3.7228   -1.7778 H   0  0  0  0  0  0  0  0  0  0  0  0
    6.7841    3.6104   -2.8760 H   0  0  0  0  0  0  0  0  0  0  0  0
    8.6306    2.3181   -1.9209 H   0  0  0  0  0  0  0  0  0  0  0  0
    8.2830    1.1173    0.1824 H   0  0  0  0  0  0  0  0  0  0  0  0
    6.0873    1.2068    1.3272 H   0  0  0  0  0  0  0  0  0  0  0  0
  1  2  1  0
  2  3  1  0
  3  4  1  0
  4  5  2  0
  4  6  1  0
  6  7  1  0
  7  8  1  0
  8  9  1  0
  9 10  1  0
 10 11  2  0
 11 12  1  0
 12 13  2  0
 13 14  1  0
 13 15  1  0
 15 16  2  0
 16 17  1  0
  6 18  1  0
 18 19  1  0
 19 20  2  0
 19 21  2  0
 19 22  1  0
 22 23  1  0
 23 24  1  0
 22 25  1  0
 25 26  1  0
 26 27  1  0
 27 28  1  0
 28 29  1  0
 29 30  2  0
 30 31  1  0
 31 32  2  0
 32 33  1  0
 33 34  2  0
 16 10  1  0
 34 29  1  0
  1 35  1  0
  1 36  1  0
  1 37  1  0
  2 38  1  0
  2 39  1  0
  6 40  1  0
  7 41  1  0
  7 42  1  0
  8 43  1  0
  9 44  1  0
  9 45  1  0
 11 46  1  0
 12 47  1  0
 15 48  1  0
 18 49  1  0
 23 50  1  0
 23 51  1  0
 24 52  1  0
 24 53  1  0
 24 54  1  0
 25 55  1  0
 25 56  1  0
 26 57  1  0
 26 58  1  0
 27 59  1  0
 27 60  1  0
 28 61  1  0
 28 62  1  0
 30 63  1  0
 31 64  1  0
 32 65  1  0
 33 66  1  0
 34 67  1  0
M  END
$$$$
[H]c1nc(N([H])[H])sc1-c1c([H])c([H])nc([H])c1N([H])c1nc2c(-c3c([H])c([H])c(F)c([H])c3Cl)c([H])c([H])c([H])n2n1
     RDKit          3D

 43 47  0  0  0  0  0  0  0  0999 V2000
    7.0630    2.2412    0.2227 N   0  0  0  0  0  0  0  0  0  0  0  0
    6.2550    1.0762    0.1313 C   0  0  0  0  0  0  0  0  0  0  0  0
    6.5937   -0.1887   -0.0198 N   0  0  0  0  0  0  0  0  0  0  0  0
    5.7022   -1.1108   -0.0800 C   0  0  0  0  0  0  0  0  0  0  0  0
    4.3578   -0.7266    0.0207 C   0  0  0  0  0  0  0  0  0  0  0  0
    4.5645    0.9524    0.1932 S   0  0  0  0  0  0  0  0  0  0  0  0
    3.2249   -1.6380   -0.0295 C   0  0  0  0  0  0  0  0  0  0  0  0
    3.4694   -3.0013   -0.2399 C   0  0  0  0  0  0  0  0  0  0  0  0
    2.4549   -3.9294   -0.3265 C   0  0  0  0  0  0  0  0  0  0  0  0
    1.2039   -3.5074   -0.2053 N   0  0  0  0  0  0  0  0  0  0  0  0
    0.9152   -2.1972    0.0005 C   0  0  0  0  0  0  0  0  0  0  0  0
    1.9319   -1.2341    0.0933 C   0  0  0  0  0  0  0  0  0  0  0  0
    1.5620    0.0767    0.3734 N   0  0  0  0  0  0  0  0  0  0  0  0
    0.2912    0.6804    0.3404 C   0  0  0  0  0  0  0  0  0  0  0  0
   -0.9447    0.2844    0.0471 N   0  0  0  0  0  0  0  0  0  0  0  0
   -1.8239    1.2906    0.1892 C   0  0  0  0  0  0  0  0  0  0  0  0
   -3.1921    1.4051    0.0210 C   0  0  0  0  0  0  0  0  0  0  0  0
   -3.7674    2.6552    0.2802 C   0  0  0  0  0  0  0  0  0  0  0  0
   -3.0226    3.7277    0.6837 C   0  0  0  0  0  0  0  0  0  0  0  0
   -1.6682    3.5728    0.8396 C   0  0  0  0  0  0  0  0  0  0  0  0
   -1.1165    2.3682    0.5890 N   0  0  0  0  0  0  0  0  0  0  0  0
    0.1199    2.0020    0.6746 N   0  0  0  0  0  0  0  0  0  0  0  0
   -4.0127    0.2872   -0.4245 C   0  0  0  0  0  0  0  0  0  0  0  0
   -3.6748   -0.4000   -1.5620 C   0  0  0  0  0  0  0  0  0  0  0  0
   -4.4760   -1.4487   -2.0310 C   0  0  0  0  0  0  0  0  0  0  0  0
   -5.6269   -1.8259   -1.3702 C   0  0  0  0  0  0  0  0  0  0  0  0
   -6.4368   -2.8292   -1.7849 F   0  0  0  0  0  0  0  0  0  0  0  0
   -5.9663   -1.1430   -0.2346 C   0  0  0  0  0  0  0  0  0  0  0  0
   -5.1601   -0.0969    0.2280 C   0  0  0  0  0  0  0  0  0  0  0  0
   -5.5912    0.7607    1.7004 Cl  0  0  0  0  0  0  0  0  0  0  0  0
    6.7024    3.0983    0.6630 H   0  0  0  0  0  0  0  0  0  0  0  0
    8.0225    2.2248   -0.1573 H   0  0  0  0  0  0  0  0  0  0  0  0
    5.9757   -2.1773   -0.2087 H   0  0  0  0  0  0  0  0  0  0  0  0
    4.4609   -3.3766   -0.3434 H   0  0  0  0  0  0  0  0  0  0  0  0
    2.6498   -4.9728   -0.4893 H   0  0  0  0  0  0  0  0  0  0  0  0
   -0.1035   -1.9200    0.0959 H   0  0  0  0  0  0  0  0  0  0  0  0
    2.3392    0.7180    0.6909 H   0  0  0  0  0  0  0  0  0  0  0  0
   -4.8528    2.7538    0.1399 H   0  0  0  0  0  0  0  0  0  0  0  0
   -3.5124    4.6751    0.8731 H   0  0  0  0  0  0  0  0  0  0  0  0
   -1.0674    4.3917    1.1525 H   0  0  0  0  0  0  0  0  0  0  0  0
   -2.7747   -0.1293   -2.1045 H   0  0  0  0  0  0  0  0  0  0  0  0
   -4.2090   -2.0006   -2.9430 H   0  0  0  0  0  0  0  0  0  0  0  0
   -6.8602   -1.3887    0.3385 H   0  0  0  0  0  0  0  0  0  0  0  0
  1  2  1  0
  2  3  2  0
  3  4  1  0
  4  5  2  0
  5  6  1  0
  5  7  1  0
  7  8  2  0
  8  9  1  0
  9 10  2  0
 10 11  1  0
 11 12  2  0
 12 13  1  0
 13 14  1  0
 14 15  1  0
 15 16  2  0
 16 17  1  0
 17 18  2  0
 18 19  1  0
 19 20  2  0
 20 21  1  0
 21 22  1  0
 17 23  1  0
 23 24  2  0
 24 25  1  0
 25 26  2  0
 26 27  1  0
 26 28  1  0
 28 29  2  0
 29 30  1  0
  6  2  1  0
 12  7  1  0
 22 14  2  0
 29 23  1  0
 21 16  1  0
  1 31  1  0
  1 32  1  0
  4 33  1  0
  8 34  1  0
  9 35  1  0
 11 36  1  0
 13 37  1  0
 18 38  1  0
 19 39  1  0
 20 40  1  0
 24 41  1  0
 25 42  1  0
 28 43  1  0
M  END
$$$$
[H]c1nc2c(c(-c3c([H])nn(C([H])([H])[H])c3[H])c([H])n2[H])c(N([H])C([H])(C([H])([H])[H])C([H])([H])[H])c1-c1c([H])c([H])c([H])c(OC([H])([H])[H])c1[H]
     RDKit          3D

 50 53  0  0  0  0  0  0  0  0999 V2000
    3.8657    1.1670   -2.5666 C   0  0  0  0  0  0  0  0  0  0  0  0
    4.5363   -0.0191   -2.1274 O   0  0  0  0  0  0  0  0  0  0  0  0
    4.0902   -0.6419   -0.9707 C   0  0  0  0  0  0  0  0  0  0  0  0
    4.7014   -1.7828   -0.5088 C   0  0  0  0  0  0  0  0  0  0  0  0
    4.2413   -2.3931    0.6513 C   0  0  0  0  0  0  0  0  0  0  0  0
    3.1814   -1.8808    1.3547 C   0  0  0  0  0  0  0  0  0  0  0  0
    2.5414   -0.7306    0.9163 C   0  0  0  0  0  0  0  0  0  0  0  0
    3.0138   -0.1424   -0.2344 C   0  0  0  0  0  0  0  0  0  0  0  0
    1.4333   -0.1498    1.6636 C   0  0  0  0  0  0  0  0  0  0  0  0
    1.6436    0.0349    3.0350 C   0  0  0  0  0  0  0  0  0  0  0  0
    0.6983    0.6019    3.7958 N   0  0  0  0  0  0  0  0  0  0  0  0
   -0.4684    1.0097    3.2788 C   0  0  0  0  0  0  0  0  0  0  0  0
   -1.5248    1.5961    3.8484 N   0  0  0  0  0  0  0  0  0  0  0  0
   -2.4698    1.8359    2.9364 C   0  0  0  0  0  0  0  0  0  0  0  0
   -2.0132    1.3824    1.6897 C   0  0  0  0  0  0  0  0  0  0  0  0
   -2.7182    1.5316    0.4483 C   0  0  0  0  0  0  0  0  0  0  0  0
   -2.4324    2.1880   -0.7301 C   0  0  0  0  0  0  0  0  0  0  0  0
   -3.4209    2.0268   -1.6017 N   0  0  0  0  0  0  0  0  0  0  0  0
   -4.3708    1.2841   -1.0603 N   0  0  0  0  0  0  0  0  0  0  0  0
   -5.5987    0.9136   -1.7436 C   0  0  0  0  0  0  0  0  0  0  0  0
   -3.9794    0.9644    0.1844 C   0  0  0  0  0  0  0  0  0  0  0  0
   -0.7712    0.8681    1.9158 C   0  0  0  0  0  0  0  0  0  0  0  0
    0.2378    0.2669    1.1471 C   0  0  0  0  0  0  0  0  0  0  0  0
   -0.0214    0.0177   -0.2157 N   0  0  0  0  0  0  0  0  0  0  0  0
   -0.6490   -1.1311   -0.7886 C   0  0  0  0  0  0  0  0  0  0  0  0
   -0.7268   -1.0249   -2.3154 C   0  0  0  0  0  0  0  0  0  0  0  0
   -0.0646   -2.4596   -0.4824 C   0  0  0  0  0  0  0  0  0  0  0  0
    4.3410    1.6049   -3.4422 H   0  0  0  0  0  0  0  0  0  0  0  0
    3.8474    1.9387   -1.7703 H   0  0  0  0  0  0  0  0  0  0  0  0
    2.8122    0.8852   -2.8413 H   0  0  0  0  0  0  0  0  0  0  0  0
    5.5345   -2.1916   -1.0558 H   0  0  0  0  0  0  0  0  0  0  0  0
    4.7524   -3.2943    0.9836 H   0  0  0  0  0  0  0  0  0  0  0  0
    2.8038   -2.3342    2.2581 H   0  0  0  0  0  0  0  0  0  0  0  0
    2.5804    0.7521   -0.6261 H   0  0  0  0  0  0  0  0  0  0  0  0
    2.5943   -0.3004    3.4357 H   0  0  0  0  0  0  0  0  0  0  0  0
   -1.5572    1.8180    4.8840 H   0  0  0  0  0  0  0  0  0  0  0  0
   -3.4311    2.2936    3.0772 H   0  0  0  0  0  0  0  0  0  0  0  0
   -1.5012    2.7441   -0.8574 H   0  0  0  0  0  0  0  0  0  0  0  0
   -6.1237    1.8665   -2.0117 H   0  0  0  0  0  0  0  0  0  0  0  0
   -6.2800    0.3438   -1.1077 H   0  0  0  0  0  0  0  0  0  0  0  0
   -5.3486    0.3154   -2.6216 H   0  0  0  0  0  0  0  0  0  0  0  0
   -4.5761    0.3579    0.8527 H   0  0  0  0  0  0  0  0  0  0  0  0
    0.2828    0.7637   -0.8903 H   0  0  0  0  0  0  0  0  0  0  0  0
   -1.7366   -1.1828   -0.4718 H   0  0  0  0  0  0  0  0  0  0  0  0
    0.2827   -1.2755   -2.7286 H   0  0  0  0  0  0  0  0  0  0  0  0
   -1.0880   -0.0501   -2.6455 H   0  0  0  0  0  0  0  0  0  0  0  0
   -1.4159   -1.8324   -2.6403 H   0  0  0  0  0  0  0  0  0  0  0  0
    0.9079   -2.6194   -0.9882 H   0  0  0  0  0  0  0  0  0  0  0  0
   -0.7280   -3.2703   -0.9083 H   0  0  0  0  0  0  0  0  0  0  0  0
    0.0920   -2.6657    0.5957 H   0  0  0  0  0  0  0  0  0  0  0  0
  1  2  1  0
  2  3  1  0
  3  4  2  0
  4  5  1  0
  5  6  2  0
  6  7  1  0
  7  8  2  0
  7  9  1  0
  9 10  2  0
 10 11  1  0
 11 12  2  0
 12 13  1  0
 13 14  1  0
 14 15  2  0
 15 16  1  0
 16 17  1  0
 17 18  2  0
 18 19  1  0
 19 20  1  0
 19 21  1  0
 15 22  1  0
 22 23  2  0
 23 24  1  0
 24 25  1  0
 25 26  1  0
 25 27  1  0
  8  3  1  0
 23  9  1  0
 22 12  1  0
 21 16  2  0
  1 28  1  0
  1 29  1  0
  1 30  1  0
  4 31  1  0
  5 32  1  0
  6 33  1  0
  8 34  1  0
 10 35  1  0
 13 36  1  0
 14 37  1  0
 17 38  1  0
 20 39  1  0
 20 40  1  0
 20 41  1  0
 21 42  1  0
 24 43  1  0
 25 44  1  0
 26 45  1  0
 26 46  1  0
 26 47  1  0
 27 48  1  0
 27 49  1  0
 27 50  1  0
M  END
$$$$
[H]c1nc2c([H])c([H])c([H])c([H])c2c(-c2c([H])nn3c([H])c(-c4c([H])c([H])c(N5C([H])([H])C([H])([H])N([H])C([H])([H])C5([H])[H])c([H])c4[H])c([H])nc23)c1[H]
     RDKit          3D

 53 58  0  0  0  0  0  0  0  0999 V2000
   -7.7270   -0.8935    0.6722 C   0  0  0  0  0  0  0  0  0  0  0  0
   -6.4648   -1.3507   -0.0449 C   0  0  0  0  0  0  0  0  0  0  0  0
   -5.6564   -0.2395   -0.4415 N   0  0  0  0  0  0  0  0  0  0  0  0
   -6.2994    0.9239   -0.9787 C   0  0  0  0  0  0  0  0  0  0  0  0
   -7.5810    1.2553   -0.2155 C   0  0  0  0  0  0  0  0  0  0  0  0
   -8.4229    0.0780   -0.1767 N   0  0  0  0  0  0  0  0  0  0  0  0
   -4.2595   -0.2723   -0.2954 C   0  0  0  0  0  0  0  0  0  0  0  0
   -3.6103   -1.1102    0.5661 C   0  0  0  0  0  0  0  0  0  0  0  0
   -2.2225   -1.0960    0.6518 C   0  0  0  0  0  0  0  0  0  0  0  0
   -1.4355   -0.2587   -0.1055 C   0  0  0  0  0  0  0  0  0  0  0  0
   -2.1081    0.5817   -0.9712 C   0  0  0  0  0  0  0  0  0  0  0  0
   -3.4908    0.5723   -1.0619 C   0  0  0  0  0  0  0  0  0  0  0  0
    0.0138   -0.2663    0.0205 C   0  0  0  0  0  0  0  0  0  0  0  0
    0.7335    0.8896   -0.1956 C   0  0  0  0  0  0  0  0  0  0  0  0
    2.0656    0.8827   -0.0739 N   0  0  0  0  0  0  0  0  0  0  0  0
    2.7546   -0.2383    0.2604 C   0  0  0  0  0  0  0  0  0  0  0  0
    4.1024   -0.4749    0.4392 C   0  0  0  0  0  0  0  0  0  0  0  0
    4.1918   -1.7980    0.7696 C   0  0  0  0  0  0  0  0  0  0  0  0
    2.9288   -2.3138    0.7810 N   0  0  0  0  0  0  0  0  0  0  0  0
    2.0602   -1.3801    0.4754 N   0  0  0  0  0  0  0  0  0  0  0  0
    0.7208   -1.4114    0.3624 C   0  0  0  0  0  0  0  0  0  0  0  0
    5.1612    0.4984    0.3399 C   0  0  0  0  0  0  0  0  0  0  0  0
    5.0870    1.7054    1.0577 C   0  0  0  0  0  0  0  0  0  0  0  0
    6.0566    2.6475    1.0348 C   0  0  0  0  0  0  0  0  0  0  0  0
    7.1424    2.4250    0.2938 N   0  0  0  0  0  0  0  0  0  0  0  0
    7.3013    1.3005   -0.4269 C   0  0  0  0  0  0  0  0  0  0  0  0
    8.4563    1.1671   -1.1704 C   0  0  0  0  0  0  0  0  0  0  0  0
    8.6084    0.0180   -1.9153 C   0  0  0  0  0  0  0  0  0  0  0  0
    7.6341   -0.9564   -1.9098 C   0  0  0  0  0  0  0  0  0  0  0  0
    6.4726   -0.8092   -1.1546 C   0  0  0  0  0  0  0  0  0  0  0  0
    6.3004    0.3203   -0.4081 C   0  0  0  0  0  0  0  0  0  0  0  0
   -7.5182   -0.4148    1.6309 H   0  0  0  0  0  0  0  0  0  0  0  0
   -8.3293   -1.7970    0.8509 H   0  0  0  0  0  0  0  0  0  0  0  0
   -6.8289   -1.8406   -0.9892 H   0  0  0  0  0  0  0  0  0  0  0  0
   -5.9922   -2.1136    0.5697 H   0  0  0  0  0  0  0  0  0  0  0  0
   -5.6333    1.8010   -0.7957 H   0  0  0  0  0  0  0  0  0  0  0  0
   -6.5822    0.7748   -2.0227 H   0  0  0  0  0  0  0  0  0  0  0  0
   -7.3578    1.6434    0.8017 H   0  0  0  0  0  0  0  0  0  0  0  0
   -8.0709    2.0759   -0.7879 H   0  0  0  0  0  0  0  0  0  0  0  0
   -8.4994   -0.3001   -1.1340 H   0  0  0  0  0  0  0  0  0  0  0  0
   -4.1484   -1.8080    1.2101 H   0  0  0  0  0  0  0  0  0  0  0  0
   -1.7553   -1.7770    1.3468 H   0  0  0  0  0  0  0  0  0  0  0  0
   -1.5589    1.2627   -1.5929 H   0  0  0  0  0  0  0  0  0  0  0  0
   -3.9837    1.2344   -1.7493 H   0  0  0  0  0  0  0  0  0  0  0  0
    0.1819    1.7762   -0.4609 H   0  0  0  0  0  0  0  0  0  0  0  0
    5.0977   -2.3623    0.9918 H   0  0  0  0  0  0  0  0  0  0  0  0
    0.1428   -2.3110    0.5283 H   0  0  0  0  0  0  0  0  0  0  0  0
    4.1770    1.8281    1.6443 H   0  0  0  0  0  0  0  0  0  0  0  0
    5.9672    3.5572    1.5968 H   0  0  0  0  0  0  0  0  0  0  0  0
    9.2075    1.9412   -1.1625 H   0  0  0  0  0  0  0  0  0  0  0  0
    9.5037   -0.1231   -2.5135 H   0  0  0  0  0  0  0  0  0  0  0  0
    7.7272   -1.8705   -2.4877 H   0  0  0  0  0  0  0  0  0  0  0  0
    5.7399   -1.5730   -1.1834 H   0  0  0  0  0  0  0  0  0  0  0  0
  1  2  1  0
  2  3  1  0
  3  4  1  0
  4  5  1  0
  5  6  1  0
  3  7  1  0
  7  8  2  0
  8  9  1  0
  9 10  2  0
 10 11  1  0
 11 12  2  0
 10 13  1  0
 13 14  1  0
 14 15  2  0
 15 16  1  0
 16 17  2  0
 17 18  1  0
 18 19  2  0
 19 20  1  0
 20 21  1  0
 17 22  1  0
 22 23  2  0
 23 24  1  0
 24 25  2  0
 25 26  1  0
 26 27  2  0
 27 28  1  0
 28 29  2  0
 29 30  1  0
 30 31  2  0
  6  1  1  0
 12  7  1  0
 21 13  2  0
 31 22  1  0
 20 16  1  0
 31 26  1  0
  1 32  1  0
  1 33  1  0
  2 34  1  0
  2 35  1  0
  4 36  1  0
  4 37  1  0
  5 38  1  0
  5 39  1  0
  6 40  1  0
  8 41  1  0
  9 42  1  0
 11 43  1  0
 12 44  1  0
 14 45  1  0
 18 46  1  0
 21 47  1  0
 23 48  1  0
 24 49  1  0
 27 50  1  0
 28 51  1  0
 29 52  1  0
 30 53  1  0
M  END
$$$$
[H]c1nc(Cl)c(F)c([H])c1N1C([H])([H])C2([H])C([H])([H])N([H])C([H])([H])C([H])(C1([H])[H])C2([H])[H]
     RDKit          3D

 32 34  0  0  0  0  0  0  0  0999 V2000
    4.6239   -1.1442    1.9596 F   0  0  0  0  0  0  0  0  0  0  0  0
    3.9477   -0.5743    0.9332 C   0  0  0  0  0  0  0  0  0  0  0  0
    2.5772   -0.7200    0.8569 C   0  0  0  0  0  0  0  0  0  0  0  0
    1.8411   -0.1547   -0.1755 C   0  0  0  0  0  0  0  0  0  0  0  0
    2.5853    0.5572   -1.1088 C   0  0  0  0  0  0  0  0  0  0  0  0
    3.9210    0.6883   -1.0177 N   0  0  0  0  0  0  0  0  0  0  0  0
    4.6405    0.1432   -0.0201 C   0  0  0  0  0  0  0  0  0  0  0  0
    6.3868    0.3406    0.0590 Cl  0  0  0  0  0  0  0  0  0  0  0  0
    0.4245   -0.2939   -0.2719 N   0  0  0  0  0  0  0  0  0  0  0  0
   -0.2368   -1.0537    0.7534 C   0  0  0  0  0  0  0  0  0  0  0  0
   -1.7212   -0.9828    0.7226 C   0  0  0  0  0  0  0  0  0  0  0  0
   -2.1890    0.2073    1.4911 C   0  0  0  0  0  0  0  0  0  0  0  0
   -2.7490    1.2535    0.7294 N   0  0  0  0  0  0  0  0  0  0  0  0
   -2.1865    1.5264   -0.5342 C   0  0  0  0  0  0  0  0  0  0  0  0
   -1.7150    0.3448   -1.3115 C   0  0  0  0  0  0  0  0  0  0  0  0
   -2.2893   -0.9003   -0.6723 C   0  0  0  0  0  0  0  0  0  0  0  0
   -0.2278    0.3368   -1.3867 C   0  0  0  0  0  0  0  0  0  0  0  0
    2.0180   -1.2891    1.6109 H   0  0  0  0  0  0  0  0  0  0  0  0
    2.0276    1.0144   -1.9356 H   0  0  0  0  0  0  0  0  0  0  0  0
    0.0979   -0.6117    1.7368 H   0  0  0  0  0  0  0  0  0  0  0  0
    0.1551   -2.1015    0.6952 H   0  0  0  0  0  0  0  0  0  0  0  0
   -2.1091   -1.9517    1.1553 H   0  0  0  0  0  0  0  0  0  0  0  0
   -2.9816   -0.1588    2.2084 H   0  0  0  0  0  0  0  0  0  0  0  0
   -1.3742    0.5818    2.1768 H   0  0  0  0  0  0  0  0  0  0  0  0
   -3.7383    1.4648    0.8656 H   0  0  0  0  0  0  0  0  0  0  0  0
   -2.9791    2.0370   -1.1589 H   0  0  0  0  0  0  0  0  0  0  0  0
   -1.3730    2.3053   -0.4577 H   0  0  0  0  0  0  0  0  0  0  0  0
   -2.1004    0.3468   -2.3703 H   0  0  0  0  0  0  0  0  0  0  0  0
   -3.3900   -0.7242   -0.5579 H   0  0  0  0  0  0  0  0  0  0  0  0
   -2.1583   -1.8029   -1.2656 H   0  0  0  0  0  0  0  0  0  0  0  0
    0.1649   -0.1004   -2.3317 H   0  0  0  0  0  0  0  0  0  0  0  0
    0.1071    1.4157   -1.3778 H   0  0  0  0  0  0  0  0  0  0  0  0
  1  2  1  0
  2  3  2  0
  3  4  1  0
  4  5  2  0
  5  6  1  0
  6  7  2  0
  7  8  1  0
  4  9  1  0
  9 10  1  0
 10 11  1  0
 11 12  1  0
 12 13  1  0
 13 14  1  0
 14 15  1  0
 15 16  1  0
 15 17  1  0
  7  2  1  0
 17  9  1  0
 16 11  1  0
  3 18  1  0
  5 19  1  0
 10 20  1  0
 10 21  1  0
 11 22  1  0
 12 23  1  0
 12 24  1  0
 13 25  1  0
 14 26  1  0
 14 27  1  0
 15 28  1  0
 16 29  1  0
 16 30  1  0
 17 31  1  0
 17 32  1  0
M  END
$$$$
[H]c1c([H])c(C(=O)N([H])[C@]2([H])C([H])([H])[C@@]([H])(C([H])([H])N([H])[H])C2([H])[H])c([H])c([H])c1Cl
     RDKit          3D

 31 32  0  0  0  0  0  0  0  0999 V2000
    5.0462   -1.2320    0.2664 N   0  0  0  0  0  0  0  0  0  0  0  0
    4.2776   -0.1285   -0.2944 C   0  0  0  0  0  0  0  0  0  0  0  0
    3.0742    0.0668    0.5911 C   0  0  1  0  0  0  0  0  0  0  0  0
    2.1475    1.1811    0.1638 C   0  0  0  0  0  0  0  0  0  0  0  0
    1.2119    0.1353   -0.4035 C   0  0  2  0  0  0  0  0  0  0  0  0
   -0.1256    0.1729    0.1253 N   0  0  0  0  0  0  0  0  0  0  0  0
   -1.2294    0.1430   -0.7474 C   0  0  0  0  0  0  0  0  0  0  0  0
   -1.0427    0.0833   -1.9926 O   0  0  0  0  0  0  0  0  0  0  0  0
   -2.5904    0.1792   -0.2541 C   0  0  0  0  0  0  0  0  0  0  0  0
   -3.6647    0.1480   -1.1458 C   0  0  0  0  0  0  0  0  0  0  0  0
   -4.9728    0.1795   -0.7430 C   0  0  0  0  0  0  0  0  0  0  0  0
   -5.2868    0.2448    0.5936 C   0  0  0  0  0  0  0  0  0  0  0  0
   -6.9644    0.2857    1.1227 Cl  0  0  0  0  0  0  0  0  0  0  0  0
   -4.2578    0.2774    1.5079 C   0  0  0  0  0  0  0  0  0  0  0  0
   -2.9270    0.2443    1.0736 C   0  0  0  0  0  0  0  0  0  0  0  0
    2.0203   -0.9692    0.2625 C   0  0  0  0  0  0  0  0  0  0  0  0
    5.3404   -1.0425    1.2431 H   0  0  0  0  0  0  0  0  0  0  0  0
    4.4319   -2.0803    0.2085 H   0  0  0  0  0  0  0  0  0  0  0  0
    4.9042    0.8029   -0.3180 H   0  0  0  0  0  0  0  0  0  0  0  0
    3.9644   -0.4313   -1.3162 H   0  0  0  0  0  0  0  0  0  0  0  0
    3.3428    0.1466    1.6518 H   0  0  0  0  0  0  0  0  0  0  0  0
    2.5405    1.8578   -0.6031 H   0  0  0  0  0  0  0  0  0  0  0  0
    1.6589    1.7251    0.9925 H   0  0  0  0  0  0  0  0  0  0  0  0
    1.2093    0.0843   -1.4997 H   0  0  0  0  0  0  0  0  0  0  0  0
   -0.2412    0.2228    1.1750 H   0  0  0  0  0  0  0  0  0  0  0  0
   -3.4133    0.0965   -2.2009 H   0  0  0  0  0  0  0  0  0  0  0  0
   -5.7772    0.1535   -1.4672 H   0  0  0  0  0  0  0  0  0  0  0  0
   -4.4541    0.3287    2.5683 H   0  0  0  0  0  0  0  0  0  0  0  0
   -2.1377    0.2717    1.8269 H   0  0  0  0  0  0  0  0  0  0  0  0
    1.5702   -1.3803    1.1854 H   0  0  0  0  0  0  0  0  0  0  0  0
    2.3447   -1.7671   -0.4377 H   0  0  0  0  0  0  0  0  0  0  0  0
  1  2  1  0
  2  3  1  0
  3  4  1  0
  4  5  1  0
  5  6  1  0
  6  7  1  0
  7  8  2  0
  7  9  1  0
  9 10  2  0
 10 11  1  0
 11 12  2  0
 12 13  1  0
 12 14  1  0
 14 15  2  0
  5 16  1  0
 16  3  1  0
 15  9  1  0
  1 17  1  0
  1 18  1  0
  2 19  1  0
  2 20  1  0
  3 21  1  1
  4 22  1  0
  4 23  1  0
  5 24  1  6
  6 25  1  0
 10 26  1  0
 11 27  1  0
 14 28  1  0
 15 29  1  0
 16 30  1  0
 16 31  1  0
M  END
$$$$
[H]Oc1c([H])c([H])c(C(=O)C(C([H])([H])[H])(C([H])([H])[H])C([H])([H])[H])c([H])c1C(=O)N([H])C([H])([H])C([H])([H])C([H])([H])C([H])([H])C([H])([H])C(=O)N([H])c1nc2c([H])c([H])c([H])c([H])c2nc1C([H])([H])N([H])C(=O)c1c([H])c([H])c([H])c(-c2c([H])c([H])c([H])c([H])c2C(=O)OC([H])([H])C([H])([H])C([H])([H])O[H])c1[H]
     RDKit          3D

104108  0  0  0  0  0  0  0  0999 V2000
  -14.1651   -1.4383    1.0920 C   0  0  0  0  0  0  0  0  0  0  0  0
  -12.8469   -0.6819    1.0647 C   0  0  0  0  0  0  0  0  0  0  0  0
  -11.9334   -1.4278    2.0256 C   0  0  0  0  0  0  0  0  0  0  0  0
  -12.3407   -0.7682   -0.3538 C   0  0  0  0  0  0  0  0  0  0  0  0
  -13.0024    0.6965    1.5597 C   0  0  0  0  0  0  0  0  0  0  0  0
  -14.1677    1.0352    1.9250 O   0  0  0  0  0  0  0  0  0  0  0  0
  -11.9447    1.6833    1.6622 C   0  0  0  0  0  0  0  0  0  0  0  0
  -12.2408    2.9487    2.1611 C   0  0  0  0  0  0  0  0  0  0  0  0
  -11.2331    3.8816    2.2597 C   0  0  0  0  0  0  0  0  0  0  0  0
   -9.9438    3.6162    1.8855 C   0  0  0  0  0  0  0  0  0  0  0  0
   -8.9537    4.5665    1.9935 O   0  0  0  0  0  0  0  0  0  0  0  0
   -9.6229    2.3545    1.3820 C   0  0  0  0  0  0  0  0  0  0  0  0
  -10.6295    1.4323    1.2869 C   0  0  0  0  0  0  0  0  0  0  0  0
   -8.2445    2.1020    0.9897 C   0  0  0  0  0  0  0  0  0  0  0  0
   -7.3686    3.0272    1.1163 O   0  0  0  0  0  0  0  0  0  0  0  0
   -7.7842    0.8685    0.4600 N   0  0  0  0  0  0  0  0  0  0  0  0
   -6.4041    0.6766    0.0839 C   0  0  0  0  0  0  0  0  0  0  0  0
   -6.1612   -0.7158   -0.4653 C   0  0  0  0  0  0  0  0  0  0  0  0
   -4.7433   -0.9146   -0.8807 C   0  0  0  0  0  0  0  0  0  0  0  0
   -3.7414   -0.7502    0.2453 C   0  0  0  0  0  0  0  0  0  0  0  0
   -2.3192   -0.9326   -0.3188 C   0  0  0  0  0  0  0  0  0  0  0  0
   -1.3144   -0.7813    0.7474 C   0  0  0  0  0  0  0  0  0  0  0  0
   -1.7743   -0.6333    1.9328 O   0  0  0  0  0  0  0  0  0  0  0  0
    0.0868   -0.7850    0.5657 N   0  0  0  0  0  0  0  0  0  0  0  0
    0.6936   -0.9450   -0.6978 C   0  0  0  0  0  0  0  0  0  0  0  0
   -0.0460   -1.1294   -1.8234 N   0  0  0  0  0  0  0  0  0  0  0  0
    0.5200   -1.2786   -3.0302 C   0  0  0  0  0  0  0  0  0  0  0  0
   -0.2094   -1.4674   -4.1835 C   0  0  0  0  0  0  0  0  0  0  0  0
    0.3783   -1.6216   -5.4232 C   0  0  0  0  0  0  0  0  0  0  0  0
    1.7532   -1.5884   -5.5371 C   0  0  0  0  0  0  0  0  0  0  0  0
    2.5059   -1.4009   -4.4024 C   0  0  0  0  0  0  0  0  0  0  0  0
    1.8948   -1.2480   -3.1632 C   0  0  0  0  0  0  0  0  0  0  0  0
    2.5979   -1.0656   -2.0399 N   0  0  0  0  0  0  0  0  0  0  0  0
    2.0725   -0.9130   -0.8138 C   0  0  0  0  0  0  0  0  0  0  0  0
    2.9655   -0.7350    0.3906 C   0  0  0  0  0  0  0  0  0  0  0  0
    4.3512   -0.7073   -0.0431 N   0  0  0  0  0  0  0  0  0  0  0  0
    5.4635   -0.5966    0.8164 C   0  0  0  0  0  0  0  0  0  0  0  0
    5.4164   -0.5206    2.0566 O   0  0  0  0  0  0  0  0  0  0  0  0
    6.8002   -0.5674    0.1813 C   0  0  0  0  0  0  0  0  0  0  0  0
    6.9344    0.0250   -1.0698 C   0  0  0  0  0  0  0  0  0  0  0  0
    8.1783    0.0396   -1.6478 C   0  0  0  0  0  0  0  0  0  0  0  0
    9.2743   -0.5092   -1.0276 C   0  0  0  0  0  0  0  0  0  0  0  0
    9.1691   -1.1161    0.2373 C   0  0  0  0  0  0  0  0  0  0  0  0
    7.9098   -1.1141    0.7902 C   0  0  0  0  0  0  0  0  0  0  0  0
   10.3545   -1.6871    0.8579 C   0  0  0  0  0  0  0  0  0  0  0  0
   10.5325   -3.0857    0.8394 C   0  0  0  0  0  0  0  0  0  0  0  0
   11.6489   -3.7064    1.3365 C   0  0  0  0  0  0  0  0  0  0  0  0
   12.6268   -2.9011    1.8734 C   0  0  0  0  0  0  0  0  0  0  0  0
   12.4664   -1.5469    1.8991 C   0  0  0  0  0  0  0  0  0  0  0  0
   11.3251   -0.8994    1.3931 C   0  0  0  0  0  0  0  0  0  0  0  0
   11.2001    0.5441    1.5091 C   0  0  0  0  0  0  0  0  0  0  0  0
   10.2015    1.2127    1.1756 O   0  0  0  0  0  0  0  0  0  0  0  0
   12.2678    1.2604    2.0308 O   0  0  0  0  0  0  0  0  0  0  0  0
   12.3206    2.6492    2.2109 C   0  0  0  0  0  0  0  0  0  0  0  0
   12.1854    3.4521    0.9501 C   0  0  0  0  0  0  0  0  0  0  0  0
   13.2782    3.1214   -0.0499 C   0  0  0  0  0  0  0  0  0  0  0  0
   13.1266    3.8784   -1.2062 O   0  0  0  0  0  0  0  0  0  0  0  0
  -14.4628   -1.6544    2.1391 H   0  0  0  0  0  0  0  0  0  0  0  0
  -13.9355   -2.4319    0.6147 H   0  0  0  0  0  0  0  0  0  0  0  0
  -14.9459   -0.9708    0.4785 H   0  0  0  0  0  0  0  0  0  0  0  0
  -11.2419   -2.0486    1.4408 H   0  0  0  0  0  0  0  0  0  0  0  0
  -12.5414   -2.0359    2.7438 H   0  0  0  0  0  0  0  0  0  0  0  0
  -11.3760   -0.7183    2.6741 H   0  0  0  0  0  0  0  0  0  0  0  0
  -13.0128   -1.3921   -1.0136 H   0  0  0  0  0  0  0  0  0  0  0  0
  -12.3223    0.2271   -0.8644 H   0  0  0  0  0  0  0  0  0  0  0  0
  -11.3704   -1.2823   -0.3820 H   0  0  0  0  0  0  0  0  0  0  0  0
  -13.2516    3.1696    2.4585 H   0  0  0  0  0  0  0  0  0  0  0  0
  -11.5097    4.8712    2.6594 H   0  0  0  0  0  0  0  0  0  0  0  0
   -9.1849    5.4725    2.3544 H   0  0  0  0  0  0  0  0  0  0  0  0
  -10.3641    0.4642    0.8939 H   0  0  0  0  0  0  0  0  0  0  0  0
   -8.4806    0.0829    0.3434 H   0  0  0  0  0  0  0  0  0  0  0  0
   -6.1616    1.4369   -0.6853 H   0  0  0  0  0  0  0  0  0  0  0  0
   -5.8016    0.8698    0.9964 H   0  0  0  0  0  0  0  0  0  0  0  0
   -6.7888   -0.8015   -1.3743 H   0  0  0  0  0  0  0  0  0  0  0  0
   -6.5366   -1.4561    0.2445 H   0  0  0  0  0  0  0  0  0  0  0  0
   -4.5082   -0.1983   -1.7122 H   0  0  0  0  0  0  0  0  0  0  0  0
   -4.6431   -1.9329   -1.3003 H   0  0  0  0  0  0  0  0  0  0  0  0
   -3.8490    0.2806    0.6316 H   0  0  0  0  0  0  0  0  0  0  0  0
   -3.8798   -1.5412    0.9802 H   0  0  0  0  0  0  0  0  0  0  0  0
   -2.2269   -0.1367   -1.0926 H   0  0  0  0  0  0  0  0  0  0  0  0
   -2.2250   -1.9242   -0.7822 H   0  0  0  0  0  0  0  0  0  0  0  0
    0.7234   -0.6667    1.4005 H   0  0  0  0  0  0  0  0  0  0  0  0
   -1.2954   -1.4943   -4.0998 H   0  0  0  0  0  0  0  0  0  0  0  0
   -0.2132   -1.7723   -6.3341 H   0  0  0  0  0  0  0  0  0  0  0  0
    2.2098   -1.7113   -6.5212 H   0  0  0  0  0  0  0  0  0  0  0  0
    3.5902   -1.3745   -4.4829 H   0  0  0  0  0  0  0  0  0  0  0  0
    2.6926    0.2307    0.8555 H   0  0  0  0  0  0  0  0  0  0  0  0
    2.7811   -1.5310    1.1321 H   0  0  0  0  0  0  0  0  0  0  0  0
    4.5154   -0.7758   -1.0698 H   0  0  0  0  0  0  0  0  0  0  0  0
    6.0635    0.4553   -1.5516 H   0  0  0  0  0  0  0  0  0  0  0  0
    8.3160    0.5027   -2.6415 H   0  0  0  0  0  0  0  0  0  0  0  0
   10.2686   -0.5037   -1.4754 H   0  0  0  0  0  0  0  0  0  0  0  0
    7.8097   -1.5786    1.7668 H   0  0  0  0  0  0  0  0  0  0  0  0
    9.7249   -3.6663    0.4022 H   0  0  0  0  0  0  0  0  0  0  0  0
   11.7083   -4.7846    1.2829 H   0  0  0  0  0  0  0  0  0  0  0  0
   13.5304   -3.3562    2.2768 H   0  0  0  0  0  0  0  0  0  0  0  0
   13.2339   -0.9156    2.3195 H   0  0  0  0  0  0  0  0  0  0  0  0
   13.3015    2.9470    2.6630 H   0  0  0  0  0  0  0  0  0  0  0  0
   11.5479    2.9954    2.9496 H   0  0  0  0  0  0  0  0  0  0  0  0
   12.2977    4.5583    1.1683 H   0  0  0  0  0  0  0  0  0  0  0  0
   11.2110    3.2751    0.4683 H   0  0  0  0  0  0  0  0  0  0  0  0
   13.1863    2.0547   -0.3831 H   0  0  0  0  0  0  0  0  0  0  0  0
   14.2898    3.2552    0.3384 H   0  0  0  0  0  0  0  0  0  0  0  0
   13.7621    4.6149   -1.2968 H   0  0  0  0  0  0  0  0  0  0  0  0
  1  2  1  0
  2  3  1  0
  2  4  1  0
  2  5  1  0
  5  6  2  0
  5  7  1  0
  7  8  2  0
  8  9  1  0
  9 10  2  0
 10 11  1  0
 10 12  1  0
 12 13  2  0
 12 14  1  0
 14 15  2  0
 14 16  1  0
 16 17  1  0
 17 18  1  0
 18 19  1  0
 19 20  1  0
 20 21  1  0
 21 22  1  0
 22 23  2  0
 22 24  1  0
 24 25  1  0
 25 26  2  0
 26 27  1  0
 27 28  2  0
 28 29  1  0
 29 30  2  0
 30 31  1  0
 31 32  2  0
 32 33  1  0
 33 34  2  0
 34 35  1  0
 35 36  1  0
 36 37  1  0
 37 38  2  0
 37 39  1  0
 39 40  2  0
 40 41  1  0
 41 42  2  0
 42 43  1  0
 43 44  2  0
 43 45  1  0
 45 46  2  0
 46 47  1  0
 47 48  2  0
 48 49  1  0
 49 50  2  0
 50 51  1  0
 51 52  2  0
 51 53  1  0
 53 54  1  0
 54 55  1  0
 55 56  1  0
 56 57  1  0
 13  7  1  0
 34 25  1  0
 44 39  1  0
 50 45  1  0
 32 27  1  0
  1 58  1  0
  1 59  1  0
  1 60  1  0
  3 61  1  0
  3 62  1  0
  3 63  1  0
  4 64  1  0
  4 65  1  0
  4 66  1  0
  8 67  1  0
  9 68  1  0
 11 69  1  0
 13 70  1  0
 16 71  1  0
 17 72  1  0
 17 73  1  0
 18 74  1  0
 18 75  1  0
 19 76  1  0
 19 77  1  0
 20 78  1  0
 20 79  1  0
 21 80  1  0
 21 81  1  0
 24 82  1  0
 28 83  1  0
 29 84  1  0
 30 85  1  0
 31 86  1  0
 35 87  1  0
 35 88  1  0
 36 89  1  0
 40 90  1  0
 41 91  1  0
 42 92  1  0
 44 93  1  0
 46 94  1  0
 47 95  1  0
 48 96  1  0
 49 97  1  0
 54 98  1  0
 54 99  1  0
 55100  1  0
 55101  1  0
 56102  1  0
 56103  1  0
 57104  1  0
M  END
$$$$
[H]OC(=O)C([H])([H])c1nc(Cl)c(-c2c(-c3c([H])c([H])c(C([H])([H])N4C([H])([H])C([H])([H])OC([H])([H])C4([H])[H])c([H])c3[H])sc3c2C([H])([H])N(C(=O)C([H])([H])C#N)C([H])([H])C3([H])[H])s1
     RDKit          3D

 62 66  0  0  0  0  0  0  0  0999 V2000
   -2.2153    5.8123   -0.1537 O   0  0  0  0  0  0  0  0  0  0  0  0
   -3.1493    5.7141    0.8616 C   0  0  0  0  0  0  0  0  0  0  0  0
   -3.9610    6.6608    1.0185 O   0  0  0  0  0  0  0  0  0  0  0  0
   -3.1752    4.5360    1.7039 C   0  0  0  0  0  0  0  0  0  0  0  0
   -2.7266    3.3438    0.8873 C   0  0  0  0  0  0  0  0  0  0  0  0
   -2.1387    3.2803   -0.2660 N   0  0  0  0  0  0  0  0  0  0  0  0
   -1.7890    2.1260   -0.7735 C   0  0  0  0  0  0  0  0  0  0  0  0
   -1.0169    2.0242   -2.3753 Cl  0  0  0  0  0  0  0  0  0  0  0  0
   -2.0617    1.0101   -0.0539 C   0  0  0  0  0  0  0  0  0  0  0  0
   -2.8150    1.6747    1.3316 S   0  0  0  0  0  0  0  0  0  0  0  0
   -1.7833   -0.4296   -0.3402 C   0  0  0  0  0  0  0  0  0  0  0  0
   -2.7252   -1.3619   -0.6149 C   0  0  0  0  0  0  0  0  0  0  0  0
   -4.2295   -1.1321   -0.7264 C   0  0  0  0  0  0  0  0  0  0  0  0
   -4.9106   -2.2370   -0.1455 N   0  0  0  0  0  0  0  0  0  0  0  0
   -4.5487   -3.6365   -0.4310 C   0  0  0  0  0  0  0  0  0  0  0  0
   -3.2727   -3.7834   -1.1576 C   0  0  0  0  0  0  0  0  0  0  0  0
   -2.3404   -2.6364   -0.8395 C   0  0  0  0  0  0  0  0  0  0  0  0
   -0.6325   -2.5348   -0.6649 S   0  0  0  0  0  0  0  0  0  0  0  0
   -0.4909   -0.8613   -0.3120 C   0  0  0  0  0  0  0  0  0  0  0  0
    0.8032   -0.2213   -0.1083 C   0  0  0  0  0  0  0  0  0  0  0  0
    1.7660   -0.3776   -1.1235 C   0  0  0  0  0  0  0  0  0  0  0  0
    2.9939    0.1576   -1.0562 C   0  0  0  0  0  0  0  0  0  0  0  0
    3.3726    0.9151    0.0624 C   0  0  0  0  0  0  0  0  0  0  0  0
    4.7441    1.4554    0.0120 C   0  0  0  0  0  0  0  0  0  0  0  0
    5.6752    0.4393   -0.4432 N   0  0  0  0  0  0  0  0  0  0  0  0
    6.9852    0.9818   -0.7764 C   0  0  0  0  0  0  0  0  0  0  0  0
    7.7312   -0.1408   -1.5436 C   0  0  0  0  0  0  0  0  0  0  0  0
    7.8164   -1.2602   -0.7580 O   0  0  0  0  0  0  0  0  0  0  0  0
    7.1908   -1.1853    0.4673 C   0  0  0  0  0  0  0  0  0  0  0  0
    5.7793   -0.6718    0.4547 C   0  0  0  0  0  0  0  0  0  0  0  0
    2.4704    1.0812    1.0522 C   0  0  0  0  0  0  0  0  0  0  0  0
    1.1819    0.5209    0.9817 C   0  0  0  0  0  0  0  0  0  0  0  0
   -5.9909   -2.0390    0.7247 C   0  0  0  0  0  0  0  0  0  0  0  0
   -6.3320   -0.8184    0.9570 O   0  0  0  0  0  0  0  0  0  0  0  0
   -6.7692   -3.0791    1.4031 C   0  0  0  0  0  0  0  0  0  0  0  0
   -7.6624   -3.7119    0.4188 C   0  0  0  0  0  0  0  0  0  0  0  0
   -8.3815   -4.2065   -0.3570 N   0  0  0  0  0  0  0  0  0  0  0  0
   -2.3912    6.3369   -1.0059 H   0  0  0  0  0  0  0  0  0  0  0  0
   -2.6430    4.5673    2.6444 H   0  0  0  0  0  0  0  0  0  0  0  0
   -4.2866    4.3295    1.9152 H   0  0  0  0  0  0  0  0  0  0  0  0
   -4.5332   -0.1975   -0.2224 H   0  0  0  0  0  0  0  0  0  0  0  0
   -4.4411   -1.0820   -1.8204 H   0  0  0  0  0  0  0  0  0  0  0  0
   -4.5285   -4.1915    0.5362 H   0  0  0  0  0  0  0  0  0  0  0  0
   -5.3495   -4.1125   -1.0514 H   0  0  0  0  0  0  0  0  0  0  0  0
   -2.7229   -4.6788   -0.7237 H   0  0  0  0  0  0  0  0  0  0  0  0
   -3.3309   -3.9104   -2.2350 H   0  0  0  0  0  0  0  0  0  0  0  0
    1.4429   -0.9818   -1.9818 H   0  0  0  0  0  0  0  0  0  0  0  0
    3.6811   -0.0056   -1.8883 H   0  0  0  0  0  0  0  0  0  0  0  0
    5.0951    1.8039    1.0114 H   0  0  0  0  0  0  0  0  0  0  0  0
    4.8795    2.3201   -0.6629 H   0  0  0  0  0  0  0  0  0  0  0  0
    6.9162    1.8072   -1.5012 H   0  0  0  0  0  0  0  0  0  0  0  0
    7.5875    1.2355    0.0976 H   0  0  0  0  0  0  0  0  0  0  0  0
    7.1442   -0.4047   -2.4631 H   0  0  0  0  0  0  0  0  0  0  0  0
    8.6865    0.2861   -1.8722 H   0  0  0  0  0  0  0  0  0  0  0  0
    7.2494   -2.1926    0.9653 H   0  0  0  0  0  0  0  0  0  0  0  0
    7.8234   -0.4864    1.0842 H   0  0  0  0  0  0  0  0  0  0  0  0
    5.5524   -0.3057    1.4850 H   0  0  0  0  0  0  0  0  0  0  0  0
    5.0493   -1.4687    0.2533 H   0  0  0  0  0  0  0  0  0  0  0  0
    2.7665    1.6729    1.9265 H   0  0  0  0  0  0  0  0  0  0  0  0
    0.4802    0.6737    1.7947 H   0  0  0  0  0  0  0  0  0  0  0  0
   -7.4264   -2.5959    2.1741 H   0  0  0  0  0  0  0  0  0  0  0  0
   -6.0924   -3.8274    1.8919 H   0  0  0  0  0  0  0  0  0  0  0  0
  1  2  1  0
  2  3  2  0
  2  4  1  0
  4  5  1  0
  5  6  2  0
  6  7  1  0
  7  8  1  0
  7  9  2  0
  9 10  1  0
  9 11  1  0
 11 12  1  0
 12 13  1  0
 13 14  1  0
 14 15  1  0
 15 16  1  0
 16 17  1  0
 17 18  1  0
 18 19  1  0
 19 20  1  0
 20 21  2  0
 21 22  1  0
 22 23  2  0
 23 24  1  0
 24 25  1  0
 25 26  1  0
 26 27  1  0
 27 28  1  0
 28 29  1  0
 29 30  1  0
 23 31  1  0
 31 32  2  0
 14 33  1  0
 33 34  2  0
 33 35  1  0
 35 36  1  0
 36 37  3  0
 10  5  1  0
 19 11  2  0
 32 20  1  0
 17 12  2  0
 30 25  1  0
  1 38  1  0
  4 39  1  0
  4 40  1  0
 13 41  1  0
 13 42  1  0
 15 43  1  0
 15 44  1  0
 16 45  1  0
 16 46  1  0
 21 47  1  0
 22 48  1  0
 24 49  1  0
 24 50  1  0
 26 51  1  0
 26 52  1  0
 27 53  1  0
 27 54  1  0
 29 55  1  0
 29 56  1  0
 30 57  1  0
 30 58  1  0
 31 59  1  0
 32 60  1  0
 35 61  1  0
 35 62  1  0
M  END
$$$$
[H]c1c([H])c(C([H])([H])C(c2nc3c([H])c(OC([H])([H])[H])c([H])c([H])c3n2-c2c([H])c([H])c(C(=O)N([H])[H])c3c2OC([H])([H])O3)(C([H])([H])[H])C([H])([H])[H])c([H])c([H])c1C#N
     RDKit          3D

 59 63  0  0  0  0  0  0  0  0999 V2000
   -2.3173    7.1194    0.6055 C   0  0  0  0  0  0  0  0  0  0  0  0
   -3.0611    5.9637    0.7786 O   0  0  0  0  0  0  0  0  0  0  0  0
   -2.5389    4.6986    0.6526 C   0  0  0  0  0  0  0  0  0  0  0  0
   -3.3890    3.5895    0.8559 C   0  0  0  0  0  0  0  0  0  0  0  0
   -2.9305    2.3050    0.7427 C   0  0  0  0  0  0  0  0  0  0  0  0
   -1.6059    2.0798    0.4227 C   0  0  0  0  0  0  0  0  0  0  0  0
   -0.9515    0.8965    0.2564 N   0  0  0  0  0  0  0  0  0  0  0  0
    0.3137    1.1767   -0.0507 C   0  0  0  0  0  0  0  0  0  0  0  0
    0.4363    2.5447   -0.0742 N   0  0  0  0  0  0  0  0  0  0  0  0
   -0.7359    3.1214    0.2143 C   0  0  0  0  0  0  0  0  0  0  0  0
   -1.2351    4.4141    0.3374 C   0  0  0  0  0  0  0  0  0  0  0  0
    1.4588    0.2993   -0.3303 C   0  0  0  0  0  0  0  0  0  0  0  0
    2.5084    1.1358   -1.0953 C   0  0  0  0  0  0  0  0  0  0  0  0
    1.1772   -0.8640   -1.2209 C   0  0  0  0  0  0  0  0  0  0  0  0
    2.1998   -0.1290    0.9375 C   0  0  0  0  0  0  0  0  0  0  0  0
    3.3379   -1.0164    0.6424 C   0  0  0  0  0  0  0  0  0  0  0  0
    3.2141   -2.3869    0.6044 C   0  0  0  0  0  0  0  0  0  0  0  0
    4.2804   -3.2265    0.3280 C   0  0  0  0  0  0  0  0  0  0  0  0
    5.5277   -2.7148    0.0751 C   0  0  0  0  0  0  0  0  0  0  0  0
    5.6890   -1.3323    0.1061 C   0  0  0  0  0  0  0  0  0  0  0  0
    4.6115   -0.5129    0.3852 C   0  0  0  0  0  0  0  0  0  0  0  0
    6.6696   -3.5405   -0.2290 C   0  0  0  0  0  0  0  0  0  0  0  0
    7.5831   -4.2002   -0.4662 N   0  0  0  0  0  0  0  0  0  0  0  0
   -1.5402   -0.3785    0.3892 C   0  0  0  0  0  0  0  0  0  0  0  0
   -1.5228   -1.0838    1.5617 C   0  0  0  0  0  0  0  0  0  0  0  0
   -2.1285   -2.3207    1.6706 C   0  0  0  0  0  0  0  0  0  0  0  0
   -2.7868   -2.8980    0.5769 C   0  0  0  0  0  0  0  0  0  0  0  0
   -3.4232   -4.2108    0.7365 C   0  0  0  0  0  0  0  0  0  0  0  0
   -4.1365   -4.7998   -0.3174 N   0  0  0  0  0  0  0  0  0  0  0  0
   -3.3111   -4.8017    1.8700 O   0  0  0  0  0  0  0  0  0  0  0  0
   -2.7893   -2.1696   -0.5910 C   0  0  0  0  0  0  0  0  0  0  0  0
   -3.3543   -2.4674   -1.8515 O   0  0  0  0  0  0  0  0  0  0  0  0
   -2.5809   -1.7154   -2.8092 C   0  0  0  0  0  0  0  0  0  0  0  0
   -2.4011   -0.5258   -2.0174 O   0  0  0  0  0  0  0  0  0  0  0  0
   -2.1804   -0.9355   -0.6875 C   0  0  0  0  0  0  0  0  0  0  0  0
   -2.6874    7.7116   -0.2699 H   0  0  0  0  0  0  0  0  0  0  0  0
   -1.2301    6.9986    0.5263 H   0  0  0  0  0  0  0  0  0  0  0  0
   -2.4908    7.7752    1.5071 H   0  0  0  0  0  0  0  0  0  0  0  0
   -4.4230    3.8048    1.1065 H   0  0  0  0  0  0  0  0  0  0  0  0
   -3.5936    1.4589    0.8955 H   0  0  0  0  0  0  0  0  0  0  0  0
   -0.5148    5.1912    0.1687 H   0  0  0  0  0  0  0  0  0  0  0  0
    2.9427    1.8943   -0.4296 H   0  0  0  0  0  0  0  0  0  0  0  0
    3.1927    0.5058   -1.6399 H   0  0  0  0  0  0  0  0  0  0  0  0
    1.9277    1.7166   -1.8791 H   0  0  0  0  0  0  0  0  0  0  0  0
    0.7994   -1.7689   -0.7518 H   0  0  0  0  0  0  0  0  0  0  0  0
    0.5884   -0.4859   -2.0883 H   0  0  0  0  0  0  0  0  0  0  0  0
    2.1739   -1.1598   -1.6854 H   0  0  0  0  0  0  0  0  0  0  0  0
    1.5299   -0.5589    1.6918 H   0  0  0  0  0  0  0  0  0  0  0  0
    2.5721    0.8352    1.3918 H   0  0  0  0  0  0  0  0  0  0  0  0
    2.2316   -2.8318    0.8047 H   0  0  0  0  0  0  0  0  0  0  0  0
    4.1150   -4.3010    0.3061 H   0  0  0  0  0  0  0  0  0  0  0  0
    6.6864   -0.9339   -0.0927 H   0  0  0  0  0  0  0  0  0  0  0  0
    4.7712    0.5607    0.4081 H   0  0  0  0  0  0  0  0  0  0  0  0
   -1.0347   -0.6966    2.4390 H   0  0  0  0  0  0  0  0  0  0  0  0
   -2.1177   -2.8877    2.5889 H   0  0  0  0  0  0  0  0  0  0  0  0
   -4.6040   -4.3033   -1.0868 H   0  0  0  0  0  0  0  0  0  0  0  0
   -4.2007   -5.8639   -0.3048 H   0  0  0  0  0  0  0  0  0  0  0  0
   -1.6115   -2.2274   -2.8778 H   0  0  0  0  0  0  0  0  0  0  0  0
   -3.1095   -1.5473   -3.7373 H   0  0  0  0  0  0  0  0  0  0  0  0
  1  2  1  0
  2  3  1  0
  3  4  2  0
  4  5  1  0
  5  6  2  0
  6  7  1  0
  7  8  1  0
  8  9  2  0
  9 10  1  0
 10 11  2  0
  8 12  1  0
 12 13  1  0
 12 14  1  0
 12 15  1  0
 15 16  1  0
 16 17  2  0
 17 18  1  0
 18 19  2  0
 19 20  1  0
 20 21  2  0
 19 22  1  0
 22 23  3  0
  7 24  1  0
 24 25  2  0
 25 26  1  0
 26 27  2  0
 27 28  1  0
 28 29  1  0
 28 30  2  0
 27 31  1  0
 31 32  1  0
 32 33  1  0
 33 34  1  0
 34 35  1  0
 11  3  1  0
 21 16  1  0
 35 24  1  0
 10  6  1  0
 35 31  2  0
  1 36  1  0
  1 37  1  0
  1 38  1  0
  4 39  1  0
  5 40  1  0
 11 41  1  0
 13 42  1  0
 13 43  1  0
 13 44  1  0
 14 45  1  0
 14 46  1  0
 14 47  1  0
 15 48  1  0
 15 49  1  0
 17 50  1  0
 18 51  1  0
 20 52  1  0
 21 53  1  0
 25 54  1  0
 26 55  1  0
 29 56  1  0
 29 57  1  0
 33 58  1  0
 33 59  1  0
M  END
$$$$
[H]OC(=O)[C@@]1(F)[C@]2([H])C([H])([H])[C@@]([H])(OC([H])([H])c3c([H])c([H])c(Cl)c(Cl)c3[H])[C@](C(=O)O[H])(N([H])[H])[C@]12[H]
     RDKit          3D

 38 40  0  0  0  0  0  0  0  0999 V2000
   -2.0434   -0.3592   -1.5770 N   0  0  0  0  0  0  0  0  0  0  0  0
   -1.6382   -0.7176   -0.2308 C   0  0  2  0  0  0  0  0  0  0  0  0
   -2.4189    0.1661    0.7163 C   0  0  1  0  0  0  0  0  0  0  0  0
   -1.5135    1.2725    1.1410 C   0  0  1  0  0  0  0  0  0  0  0  0
   -0.2532    1.0810    0.3242 C   0  0  0  0  0  0  0  0  0  0  0  0
   -0.1811   -0.3750   -0.0286 C   0  0  1  0  0  0  0  0  0  0  0  0
    0.4893   -1.1656    0.8153 O   0  0  0  0  0  0  0  0  0  0  0  0
    1.5590   -1.8818    0.4381 C   0  0  0  0  0  0  0  0  0  0  0  0
    2.6382   -0.9743   -0.0424 C   0  0  0  0  0  0  0  0  0  0  0  0
    2.8896   -0.7513   -1.3747 C   0  0  0  0  0  0  0  0  0  0  0  0
    3.8938    0.0927   -1.7734 C   0  0  0  0  0  0  0  0  0  0  0  0
    4.6765    0.7386   -0.8426 C   0  0  0  0  0  0  0  0  0  0  0  0
    5.9680    1.8243   -1.3762 Cl  0  0  0  0  0  0  0  0  0  0  0  0
    4.4385    0.5269    0.4927 C   0  0  0  0  0  0  0  0  0  0  0  0
    5.4560    1.3672    1.6402 Cl  0  0  0  0  0  0  0  0  0  0  0  0
    3.4276   -0.3226    0.8795 C   0  0  0  0  0  0  0  0  0  0  0  0
   -2.7888    1.5377    0.3673 C   0  0  1  0  0  0  0  0  0  0  0  0
   -2.5669    2.0233   -0.9086 F   0  0  0  0  0  0  0  0  0  0  0  0
   -3.8417    2.1984    1.1499 C   0  0  0  0  0  0  0  0  0  0  0  0
   -4.5794    3.2575    0.6382 O   0  0  0  0  0  0  0  0  0  0  0  0
   -4.1087    1.8202    2.3190 O   0  0  0  0  0  0  0  0  0  0  0  0
   -1.9467   -2.1171    0.0367 C   0  0  0  0  0  0  0  0  0  0  0  0
   -2.5415   -2.8993   -0.9287 O   0  0  0  0  0  0  0  0  0  0  0  0
   -1.6684   -2.6108    1.1526 O   0  0  0  0  0  0  0  0  0  0  0  0
   -3.0845   -0.4166   -1.6553 H   0  0  0  0  0  0  0  0  0  0  0  0
   -1.6817   -1.0644   -2.2810 H   0  0  0  0  0  0  0  0  0  0  0  0
   -3.0056   -0.3547    1.5099 H   0  0  0  0  0  0  0  0  0  0  0  0
   -1.4345    1.5931    2.1871 H   0  0  0  0  0  0  0  0  0  0  0  0
    0.6395    1.4763    0.8099 H   0  0  0  0  0  0  0  0  0  0  0  0
   -0.4047    1.6710   -0.6146 H   0  0  0  0  0  0  0  0  0  0  0  0
    0.2867   -0.4338   -1.0332 H   0  0  0  0  0  0  0  0  0  0  0  0
    1.9312   -2.6292    1.1517 H   0  0  0  0  0  0  0  0  0  0  0  0
    1.2638   -2.4883   -0.4713 H   0  0  0  0  0  0  0  0  0  0  0  0
    2.2991   -1.2382   -2.1320 H   0  0  0  0  0  0  0  0  0  0  0  0
    4.1058    0.2802   -2.8373 H   0  0  0  0  0  0  0  0  0  0  0  0
    3.2823   -0.4544    1.9603 H   0  0  0  0  0  0  0  0  0  0  0  0
   -4.6452    4.1589    1.0965 H   0  0  0  0  0  0  0  0  0  0  0  0
   -2.8983   -3.8315   -0.7185 H   0  0  0  0  0  0  0  0  0  0  0  0
  1  2  1  0
  2  3  1  0
  3  4  1  0
  4  5  1  0
  5  6  1  0
  6  7  1  0
  7  8  1  0
  8  9  1  0
  9 10  2  0
 10 11  1  0
 11 12  2  0
 12 13  1  0
 12 14  1  0
 14 15  1  0
 14 16  2  0
  4 17  1  0
 17 18  1  6
 17 19  1  0
 19 20  1  0
 19 21  2  0
  2 22  1  1
 22 23  1  0
 22 24  2  0
  6  2  1  0
 16  9  1  0
 17  3  1  0
  1 25  1  0
  1 26  1  0
  3 27  1  1
  4 28  1  1
  5 29  1  0
  5 30  1  0
  6 31  1  6
  8 32  1  0
  8 33  1  0
 10 34  1  0
 11 35  1  0
 16 36  1  0
 20 37  1  0
 23 38  1  0
M  END
$$$$
[H]c1c([H])c(C(=O)C([H])([H])[H])c([H])c(N([H])c2nc(-c3c(F)c([H])c4c(C([H])([H])[H])c(C([H])([H])[H])sc4c3[H])c3c([H])c([H])c(F)c([H])c3n2)c1[H]
     RDKit          3D

 52 56  0  0  0  0  0  0  0  0999 V2000
    8.4802    2.4253    0.1316 C   0  0  0  0  0  0  0  0  0  0  0  0
    7.0233    2.5368    0.3134 C   0  0  0  0  0  0  0  0  0  0  0  0
    6.4982    3.6645    0.4910 O   0  0  0  0  0  0  0  0  0  0  0  0
    6.1675    1.3649    0.2925 C   0  0  0  0  0  0  0  0  0  0  0  0
    6.7234    0.1279    0.0747 C   0  0  0  0  0  0  0  0  0  0  0  0
    5.9425   -0.9992    0.0577 C   0  0  0  0  0  0  0  0  0  0  0  0
    4.5745   -0.9075    0.2605 C   0  0  0  0  0  0  0  0  0  0  0  0
    3.9798    0.2926    0.4793 C   0  0  0  0  0  0  0  0  0  0  0  0
    2.6144    0.4632    0.6511 N   0  0  0  0  0  0  0  0  0  0  0  0
    1.6010   -0.3699    0.1627 C   0  0  0  0  0  0  0  0  0  0  0  0
    0.2887   -0.0659    0.4213 N   0  0  0  0  0  0  0  0  0  0  0  0
   -0.7406   -0.7985   -0.0527 C   0  0  0  0  0  0  0  0  0  0  0  0
   -2.1097   -0.3717    0.2060 C   0  0  0  0  0  0  0  0  0  0  0  0
   -2.8804    0.0401   -0.8876 C   0  0  0  0  0  0  0  0  0  0  0  0
   -4.1671    0.5430   -0.6942 C   0  0  0  0  0  0  0  0  0  0  0  0
   -5.3543    1.1487   -1.7871 S   0  0  0  0  0  0  0  0  0  0  0  0
   -6.5694    1.5443   -0.6614 C   0  0  0  0  0  0  0  0  0  0  0  0
   -7.9250    2.1576   -0.9325 C   0  0  0  0  0  0  0  0  0  0  0  0
   -6.0228    1.1946    0.5345 C   0  0  0  0  0  0  0  0  0  0  0  0
   -6.8216    1.3978    1.8138 C   0  0  0  0  0  0  0  0  0  0  0  0
   -4.7673    0.6723    0.5216 C   0  0  0  0  0  0  0  0  0  0  0  0
   -3.9780    0.2500    1.6256 C   0  0  0  0  0  0  0  0  0  0  0  0
   -2.7123   -0.2422    1.4185 C   0  0  0  0  0  0  0  0  0  0  0  0
   -1.9826   -0.6443    2.5247 F   0  0  0  0  0  0  0  0  0  0  0  0
   -0.5129   -1.9072   -0.8271 C   0  0  0  0  0  0  0  0  0  0  0  0
   -1.5432   -2.7021   -1.3322 C   0  0  0  0  0  0  0  0  0  0  0  0
   -1.2338   -3.8118   -2.1079 C   0  0  0  0  0  0  0  0  0  0  0  0
    0.0743   -4.1069   -2.3619 C   0  0  0  0  0  0  0  0  0  0  0  0
    0.3485   -5.1768   -3.1147 F   0  0  0  0  0  0  0  0  0  0  0  0
    1.0978   -3.3323   -1.8681 C   0  0  0  0  0  0  0  0  0  0  0  0
    0.8244   -2.2261   -1.0963 C   0  0  0  0  0  0  0  0  0  0  0  0
    1.7923   -1.4485   -0.5925 N   0  0  0  0  0  0  0  0  0  0  0  0
    4.8230    1.4220    0.4882 C   0  0  0  0  0  0  0  0  0  0  0  0
    9.0239    3.3495    0.3368 H   0  0  0  0  0  0  0  0  0  0  0  0
    8.7030    2.1632   -0.9386 H   0  0  0  0  0  0  0  0  0  0  0  0
    8.9005    1.5462    0.7013 H   0  0  0  0  0  0  0  0  0  0  0  0
    7.8090    0.0114   -0.0939 H   0  0  0  0  0  0  0  0  0  0  0  0
    6.4231   -1.9607   -0.1195 H   0  0  0  0  0  0  0  0  0  0  0  0
    4.0209   -1.8523    0.2479 H   0  0  0  0  0  0  0  0  0  0  0  0
    2.3113    1.3197    1.2134 H   0  0  0  0  0  0  0  0  0  0  0  0
   -2.5130   -0.0229   -1.8778 H   0  0  0  0  0  0  0  0  0  0  0  0
   -8.5318    1.4313   -1.4953 H   0  0  0  0  0  0  0  0  0  0  0  0
   -7.7436    3.0909   -1.5215 H   0  0  0  0  0  0  0  0  0  0  0  0
   -8.4224    2.3614    0.0228 H   0  0  0  0  0  0  0  0  0  0  0  0
   -6.5983    0.5178    2.4917 H   0  0  0  0  0  0  0  0  0  0  0  0
   -7.8945    1.3414    1.6418 H   0  0  0  0  0  0  0  0  0  0  0  0
   -6.5655    2.3368    2.3057 H   0  0  0  0  0  0  0  0  0  0  0  0
   -4.3409    0.2961    2.6286 H   0  0  0  0  0  0  0  0  0  0  0  0
   -2.5661   -2.4759   -1.1152 H   0  0  0  0  0  0  0  0  0  0  0  0
   -2.0541   -4.4044   -2.4832 H   0  0  0  0  0  0  0  0  0  0  0  0
    2.1557   -3.5508   -2.0564 H   0  0  0  0  0  0  0  0  0  0  0  0
    4.3502    2.3668    0.6638 H   0  0  0  0  0  0  0  0  0  0  0  0
  1  2  1  0
  2  3  2  0
  2  4  1  0
  4  5  2  0
  5  6  1  0
  6  7  2  0
  7  8  1  0
  8  9  1  0
  9 10  1  0
 10 11  2  0
 11 12  1  0
 12 13  1  0
 13 14  2  0
 14 15  1  0
 15 16  1  0
 16 17  1  0
 17 18  1  0
 17 19  2  0
 19 20  1  0
 19 21  1  0
 21 22  1  0
 22 23  2  0
 23 24  1  0
 12 25  2  0
 25 26  1  0
 26 27  2  0
 27 28  1  0
 28 29  1  0
 28 30  2  0
 30 31  1  0
 31 32  2  0
  8 33  2  0
 33  4  1  0
 32 10  1  0
 23 13  1  0
 31 25  1  0
 21 15  2  0
  1 34  1  0
  1 35  1  0
  1 36  1  0
  5 37  1  0
  6 38  1  0
  7 39  1  0
  9 40  1  0
 14 41  1  0
 18 42  1  0
 18 43  1  0
 18 44  1  0
 20 45  1  0
 20 46  1  0
 20 47  1  0
 22 48  1  0
 26 49  1  0
 27 50  1  0
 30 51  1  0
 33 52  1  0
M  END
$$$$
[H]c1nc(N([H])[H])c2c(-c3c([H])c([H])c(Oc4c([H])c([H])c([H])c([H])c4[H])c([H])c3[H])c([H])n(C3([H])C([H])([H])C([H])([H])N(C(=O)OC(C([H])([H])[H])(C([H])([H])[H])C([H])([H])[H])C([H])([H])C3([H])[H])c2n1
     RDKit          3D

 67 71  0  0  0  0  0  0  0  0999 V2000
   -7.4160    2.0569   -1.2649 C   0  0  0  0  0  0  0  0  0  0  0  0
   -7.3251    1.7716    0.2301 C   0  0  0  0  0  0  0  0  0  0  0  0
   -8.5213    0.9504    0.6111 C   0  0  0  0  0  0  0  0  0  0  0  0
   -7.3958    3.1324    0.9254 C   0  0  0  0  0  0  0  0  0  0  0  0
   -6.1049    1.1905    0.5772 O   0  0  0  0  0  0  0  0  0  0  0  0
   -5.6997   -0.0363    0.0297 C   0  0  0  0  0  0  0  0  0  0  0  0
   -6.4802   -0.5760   -0.7752 O   0  0  0  0  0  0  0  0  0  0  0  0
   -4.4643   -0.6415    0.3684 N   0  0  0  0  0  0  0  0  0  0  0  0
   -4.1150   -1.8954   -0.2305 C   0  0  0  0  0  0  0  0  0  0  0  0
   -2.6974   -2.3119   -0.1091 C   0  0  0  0  0  0  0  0  0  0  0  0
   -1.7906   -1.4314    0.6687 C   0  0  0  0  0  0  0  0  0  0  0  0
   -2.2129    0.0060    0.6760 C   0  0  0  0  0  0  0  0  0  0  0  0
   -3.6077    0.0536    1.3144 C   0  0  0  0  0  0  0  0  0  0  0  0
   -0.3871   -1.5525    0.2251 N   0  0  0  0  0  0  0  0  0  0  0  0
    0.4965   -0.5433    0.2743 C   0  0  0  0  0  0  0  0  0  0  0  0
    1.7302   -0.9922   -0.2207 C   0  0  0  0  0  0  0  0  0  0  0  0
    2.9539   -0.1982   -0.2926 C   0  0  0  0  0  0  0  0  0  0  0  0
    2.9874    0.9665   -1.0759 C   0  0  0  0  0  0  0  0  0  0  0  0
    4.1160    1.7501   -1.1283 C   0  0  0  0  0  0  0  0  0  0  0  0
    5.2633    1.4466   -0.4280 C   0  0  0  0  0  0  0  0  0  0  0  0
    6.3899    2.2624   -0.5035 O   0  0  0  0  0  0  0  0  0  0  0  0
    7.5572    2.0279    0.1474 C   0  0  0  0  0  0  0  0  0  0  0  0
    7.7667    2.5273    1.4092 C   0  0  0  0  0  0  0  0  0  0  0  0
    8.9410    2.3067    2.0961 C   0  0  0  0  0  0  0  0  0  0  0  0
    9.9562    1.5590    1.5121 C   0  0  0  0  0  0  0  0  0  0  0  0
    9.7426    1.0537    0.2337 C   0  0  0  0  0  0  0  0  0  0  0  0
    8.5513    1.2847   -0.4479 C   0  0  0  0  0  0  0  0  0  0  0  0
    5.2453    0.3066    0.3454 C   0  0  0  0  0  0  0  0  0  0  0  0
    4.1105   -0.4858    0.4014 C   0  0  0  0  0  0  0  0  0  0  0  0
    1.5079   -2.3055   -0.5562 C   0  0  0  0  0  0  0  0  0  0  0  0
    2.2866   -3.2995   -1.0974 C   0  0  0  0  0  0  0  0  0  0  0  0
    3.6370   -2.9894   -1.4285 N   0  0  0  0  0  0  0  0  0  0  0  0
    1.7848   -4.5381   -1.3357 N   0  0  0  0  0  0  0  0  0  0  0  0
    0.5130   -4.8535   -1.0584 C   0  0  0  0  0  0  0  0  0  0  0  0
   -0.2784   -3.9114   -0.5315 N   0  0  0  0  0  0  0  0  0  0  0  0
    0.1816   -2.6615   -0.2776 C   0  0  0  0  0  0  0  0  0  0  0  0
   -6.4643    2.4256   -1.6803 H   0  0  0  0  0  0  0  0  0  0  0  0
   -7.8507    1.2041   -1.7971 H   0  0  0  0  0  0  0  0  0  0  0  0
   -8.1572    2.9032   -1.3614 H   0  0  0  0  0  0  0  0  0  0  0  0
   -8.8004    0.2724   -0.2393 H   0  0  0  0  0  0  0  0  0  0  0  0
   -8.4093    0.4118    1.5569 H   0  0  0  0  0  0  0  0  0  0  0  0
   -9.3781    1.6616    0.7172 H   0  0  0  0  0  0  0  0  0  0  0  0
   -8.4306    3.5228    0.8869 H   0  0  0  0  0  0  0  0  0  0  0  0
   -7.0776    2.9446    1.9870 H   0  0  0  0  0  0  0  0  0  0  0  0
   -6.6555    3.8243    0.4903 H   0  0  0  0  0  0  0  0  0  0  0  0
   -4.7539   -2.7002    0.2507 H   0  0  0  0  0  0  0  0  0  0  0  0
   -4.4537   -1.9402   -1.3115 H   0  0  0  0  0  0  0  0  0  0  0  0
   -2.2643   -2.3707   -1.1541 H   0  0  0  0  0  0  0  0  0  0  0  0
   -2.6179   -3.3424    0.3626 H   0  0  0  0  0  0  0  0  0  0  0  0
   -1.7501   -1.7497    1.7527 H   0  0  0  0  0  0  0  0  0  0  0  0
   -2.3165    0.4159   -0.3409 H   0  0  0  0  0  0  0  0  0  0  0  0
   -1.5450    0.5877    1.3326 H   0  0  0  0  0  0  0  0  0  0  0  0
   -3.9088    1.1036    1.4524 H   0  0  0  0  0  0  0  0  0  0  0  0
   -3.6219   -0.5059    2.2736 H   0  0  0  0  0  0  0  0  0  0  0  0
    0.3649    0.4782    0.6227 H   0  0  0  0  0  0  0  0  0  0  0  0
    2.0754    1.1945   -1.6238 H   0  0  0  0  0  0  0  0  0  0  0  0
    4.1252    2.6496   -1.7403 H   0  0  0  0  0  0  0  0  0  0  0  0
    6.9812    3.1069    1.8635 H   0  0  0  0  0  0  0  0  0  0  0  0
    9.1119    2.7041    3.1046 H   0  0  0  0  0  0  0  0  0  0  0  0
   10.8962    1.3524    1.9987 H   0  0  0  0  0  0  0  0  0  0  0  0
   10.5038    0.4671   -0.2592 H   0  0  0  0  0  0  0  0  0  0  0  0
    8.4705    0.8556   -1.4353 H   0  0  0  0  0  0  0  0  0  0  0  0
    6.1435    0.0647    0.8970 H   0  0  0  0  0  0  0  0  0  0  0  0
    4.1318   -1.3792    1.0383 H   0  0  0  0  0  0  0  0  0  0  0  0
    4.4573   -3.4320   -0.9596 H   0  0  0  0  0  0  0  0  0  0  0  0
    3.8298   -2.2894   -2.1720 H   0  0  0  0  0  0  0  0  0  0  0  0
    0.1419   -5.8703   -1.2654 H   0  0  0  0  0  0  0  0  0  0  0  0
  1  2  1  0
  2  3  1  0
  2  4  1  0
  2  5  1  0
  5  6  1  0
  6  7  2  0
  6  8  1  0
  8  9  1  0
  9 10  1  0
 10 11  1  0
 11 12  1  0
 12 13  1  0
 11 14  1  0
 14 15  1  0
 15 16  2  0
 16 17  1  0
 17 18  2  0
 18 19  1  0
 19 20  2  0
 20 21  1  0
 21 22  1  0
 22 23  2  0
 23 24  1  0
 24 25  2  0
 25 26  1  0
 26 27  2  0
 20 28  1  0
 28 29  2  0
 16 30  1  0
 30 31  2  0
 31 32  1  0
 31 33  1  0
 33 34  2  0
 34 35  1  0
 35 36  2  0
 13  8  1  0
 36 14  1  0
 29 17  1  0
 36 30  1  0
 27 22  1  0
  1 37  1  0
  1 38  1  0
  1 39  1  0
  3 40  1  0
  3 41  1  0
  3 42  1  0
  4 43  1  0
  4 44  1  0
  4 45  1  0
  9 46  1  0
  9 47  1  0
 10 48  1  0
 10 49  1  0
 11 50  1  0
 12 51  1  0
 12 52  1  0
 13 53  1  0
 13 54  1  0
 15 55  1  0
 18 56  1  0
 19 57  1  0
 23 58  1  0
 24 59  1  0
 25 60  1  0
 26 61  1  0
 27 62  1  0
 28 63  1  0
 29 64  1  0
 32 65  1  0
 32 66  1  0
 34 67  1  0
M  END
$$$$
[H]OC(=O)C([H])([H])N1c2c([H])c([H])c3c(c2C([H])([H])C1([H])[H])C(C([H])([H])[H])(C([H])([H])[H])[C@]([H])(C(F)(F)F)[C@]([H])(c1c([H])c([H])c(O[H])c([H])c1[H])O3
     RDKit          3D

 52 55  0  0  0  0  0  0  0  0999 V2000
    0.3760   -1.9847   -0.1348 C   0  0  0  0  0  0  0  0  0  0  0  0
    0.1362   -0.7766   -1.0827 C   0  0  0  0  0  0  0  0  0  0  0  0
   -0.4301   -1.4462   -2.2706 C   0  0  0  0  0  0  0  0  0  0  0  0
    1.4187   -0.0334   -1.3873 C   0  0  1  0  0  0  0  0  0  0  0  0
    2.0370    0.6687   -0.2493 C   0  0  1  0  0  0  0  0  0  0  0  0
    1.2144    0.6065    0.9372 O   0  0  0  0  0  0  0  0  0  0  0  0
   -0.1442    0.7833    0.7617 C   0  0  0  0  0  0  0  0  0  0  0  0
   -0.8839    1.6105    1.6247 C   0  0  0  0  0  0  0  0  0  0  0  0
   -2.2198    1.7868    1.4455 C   0  0  0  0  0  0  0  0  0  0  0  0
   -2.8119    1.1243    0.3886 C   0  0  0  0  0  0  0  0  0  0  0  0
   -4.1912    1.1375    0.0072 N   0  0  0  0  0  0  0  0  0  0  0  0
   -5.2966    1.4496    0.8935 C   0  0  0  0  0  0  0  0  0  0  0  0
   -6.1395    0.2629    1.1485 C   0  0  0  0  0  0  0  0  0  0  0  0
   -5.8361   -0.9505    0.5728 O   0  0  0  0  0  0  0  0  0  0  0  0
   -7.1291    0.3716    1.8906 O   0  0  0  0  0  0  0  0  0  0  0  0
   -4.2130    0.7878   -1.3900 C   0  0  0  0  0  0  0  0  0  0  0  0
   -3.0269   -0.1922   -1.4518 C   0  0  0  0  0  0  0  0  0  0  0  0
   -2.0868    0.3005   -0.4741 C   0  0  0  0  0  0  0  0  0  0  0  0
   -0.7386    0.1120   -0.3029 C   0  0  0  0  0  0  0  0  0  0  0  0
    3.3834    0.3464    0.2176 C   0  0  0  0  0  0  0  0  0  0  0  0
    4.4870    1.1517   -0.1135 C   0  0  0  0  0  0  0  0  0  0  0  0
    5.7624    0.9164    0.2924 C   0  0  0  0  0  0  0  0  0  0  0  0
    6.0246   -0.1774    1.0829 C   0  0  0  0  0  0  0  0  0  0  0  0
    7.3444   -0.4063    1.4924 O   0  0  0  0  0  0  0  0  0  0  0  0
    5.0044   -1.0058    1.4462 C   0  0  0  0  0  0  0  0  0  0  0  0
    3.7198   -0.7308    1.0118 C   0  0  0  0  0  0  0  0  0  0  0  0
    2.3423   -0.7091   -2.3442 C   0  0  0  0  0  0  0  0  0  0  0  0
    1.7829   -0.9233   -3.6072 F   0  0  0  0  0  0  0  0  0  0  0  0
    2.9680   -1.8250   -1.8566 F   0  0  0  0  0  0  0  0  0  0  0  0
    3.3749    0.1607   -2.7219 F   0  0  0  0  0  0  0  0  0  0  0  0
    1.0245   -2.7369   -0.6144 H   0  0  0  0  0  0  0  0  0  0  0  0
   -0.6433   -2.4787   -0.1048 H   0  0  0  0  0  0  0  0  0  0  0  0
    0.5952   -1.7132    0.8779 H   0  0  0  0  0  0  0  0  0  0  0  0
   -0.5731   -0.8943   -3.1787 H   0  0  0  0  0  0  0  0  0  0  0  0
   -1.3319   -2.0658   -1.9738 H   0  0  0  0  0  0  0  0  0  0  0  0
    0.2569   -2.3235   -2.5159 H   0  0  0  0  0  0  0  0  0  0  0  0
    0.9960    0.8091   -2.0621 H   0  0  0  0  0  0  0  0  0  0  0  0
    2.0831    1.7914   -0.4637 H   0  0  0  0  0  0  0  0  0  0  0  0
   -0.3720    2.1076    2.4436 H   0  0  0  0  0  0  0  0  0  0  0  0
   -2.7760    2.4286    2.1214 H   0  0  0  0  0  0  0  0  0  0  0  0
   -5.9260    2.2746    0.4838 H   0  0  0  0  0  0  0  0  0  0  0  0
   -4.9427    1.8125    1.8803 H   0  0  0  0  0  0  0  0  0  0  0  0
   -6.3794   -1.3276   -0.1929 H   0  0  0  0  0  0  0  0  0  0  0  0
   -4.0191    1.6587   -2.0488 H   0  0  0  0  0  0  0  0  0  0  0  0
   -5.1252    0.2451   -1.6297 H   0  0  0  0  0  0  0  0  0  0  0  0
   -2.7095   -0.2060   -2.5104 H   0  0  0  0  0  0  0  0  0  0  0  0
   -3.4524   -1.1555   -1.1020 H   0  0  0  0  0  0  0  0  0  0  0  0
    4.3476    2.0476   -0.7408 H   0  0  0  0  0  0  0  0  0  0  0  0
    6.5924    1.5841    0.0022 H   0  0  0  0  0  0  0  0  0  0  0  0
    7.9447   -0.9877    0.8920 H   0  0  0  0  0  0  0  0  0  0  0  0
    5.2280   -1.8602    2.0682 H   0  0  0  0  0  0  0  0  0  0  0  0
    2.9536   -1.4262    1.3462 H   0  0  0  0  0  0  0  0  0  0  0  0
  1  2  1  0
  2  3  1  0
  2  4  1  0
  4  5  1  0
  5  6  1  0
  6  7  1  0
  7  8  2  0
  8  9  1  0
  9 10  2  0
 10 11  1  0
 11 12  1  0
 12 13  1  0
 13 14  1  0
 13 15  2  0
 11 16  1  0
 16 17  1  0
 17 18  1  0
 18 19  2  0
  5 20  1  0
 20 21  2  0
 21 22  1  0
 22 23  2  0
 23 24  1  0
 23 25  1  0
 25 26  2  0
  4 27  1  0
 27 28  1  0
 27 29  1  0
 27 30  1  0
 19  2  1  0
 26 20  1  0
 19  7  1  0
 18 10  1  0
  1 31  1  0
  1 32  1  0
  1 33  1  0
  3 34  1  0
  3 35  1  0
  3 36  1  0
  4 37  1  6
  5 38  1  6
  8 39  1  0
  9 40  1  0
 12 41  1  0
 12 42  1  0
 14 43  1  0
 16 44  1  0
 16 45  1  0
 17 46  1  0
 17 47  1  0
 21 48  1  0
 22 49  1  0
 24 50  1  0
 25 51  1  0
 26 52  1  0
M  END
$$$$
[H]N=C(c1c([H])c([H])c2c(C(=O)N([H])C([H])([H])c3c([H])c([H])c([H])c([H])c3Cl)nn(C([H])([H])C([H])([H])N([H])C(=O)C([H])([H])n3c([H])nc([H])c3[H])c2c1[H])N([H])[H]
     RDKit          3D

 57 60  0  0  0  0  0  0  0  0999 V2000
   -0.5351    6.6763   -0.7736 N   0  0  0  0  0  0  0  0  0  0  0  0
    0.3013    5.5299   -0.7265 C   0  0  0  0  0  0  0  0  0  0  0  0
    1.5460    5.6820   -0.9919 N   0  0  0  0  0  0  0  0  0  0  0  0
   -0.2730    4.2365   -0.3838 C   0  0  0  0  0  0  0  0  0  0  0  0
   -1.6381    4.1152   -0.1006 C   0  0  0  0  0  0  0  0  0  0  0  0
   -2.2048    2.9051    0.2255 C   0  0  0  0  0  0  0  0  0  0  0  0
   -1.4001    1.7918    0.2716 C   0  0  0  0  0  0  0  0  0  0  0  0
   -1.6226    0.4778    0.5504 C   0  0  0  0  0  0  0  0  0  0  0  0
   -0.4463   -0.1661    0.4409 N   0  0  0  0  0  0  0  0  0  0  0  0
    0.5213    0.6681    0.1057 N   0  0  0  0  0  0  0  0  0  0  0  0
    1.9325    0.3760   -0.1120 C   0  0  0  0  0  0  0  0  0  0  0  0
    2.7351    0.5023    1.1391 C   0  0  0  0  0  0  0  0  0  0  0  0
    4.1155    0.2137    0.8642 N   0  0  0  0  0  0  0  0  0  0  0  0
    4.6347   -1.0050    0.3819 C   0  0  0  0  0  0  0  0  0  0  0  0
    3.9074   -1.9817    0.1459 O   0  0  0  0  0  0  0  0  0  0  0  0
    6.1148   -1.1527    0.1369 C   0  0  0  0  0  0  0  0  0  0  0  0
    6.4145   -2.4640   -0.3486 N   0  0  0  0  0  0  0  0  0  0  0  0
    6.7173   -3.5485    0.3930 C   0  0  0  0  0  0  0  0  0  0  0  0
    6.9443   -4.6273   -0.4102 C   0  0  0  0  0  0  0  0  0  0  0  0
    6.7802   -4.2069   -1.6660 N   0  0  0  0  0  0  0  0  0  0  0  0
    6.4584   -2.8919   -1.6232 C   0  0  0  0  0  0  0  0  0  0  0  0
   -0.0301    1.8866   -0.0078 C   0  0  0  0  0  0  0  0  0  0  0  0
    0.4872    3.1100   -0.3268 C   0  0  0  0  0  0  0  0  0  0  0  0
   -2.9201   -0.0961    0.9021 C   0  0  0  0  0  0  0  0  0  0  0  0
   -3.9500    0.5837    0.9766 O   0  0  0  0  0  0  0  0  0  0  0  0
   -3.0089   -1.5041    1.1729 N   0  0  0  0  0  0  0  0  0  0  0  0
   -4.2258   -2.1764    1.5173 C   0  0  0  0  0  0  0  0  0  0  0  0
   -5.2093   -2.2089    0.4444 C   0  0  0  0  0  0  0  0  0  0  0  0
   -5.0690   -1.7358   -0.8346 C   0  0  0  0  0  0  0  0  0  0  0  0
   -6.0638   -1.8370   -1.7940 C   0  0  0  0  0  0  0  0  0  0  0  0
   -7.2407   -2.4307   -1.4704 C   0  0  0  0  0  0  0  0  0  0  0  0
   -7.4323   -2.9233   -0.1992 C   0  0  0  0  0  0  0  0  0  0  0  0
   -6.4375   -2.8144    0.7377 C   0  0  0  0  0  0  0  0  0  0  0  0
   -6.7409   -3.4560    2.3246 Cl  0  0  0  0  0  0  0  0  0  0  0  0
   -0.2932    7.5914   -0.3387 H   0  0  0  0  0  0  0  0  0  0  0  0
   -1.4472    6.6133   -1.2686 H   0  0  0  0  0  0  0  0  0  0  0  0
    2.2846    4.9758   -1.0056 H   0  0  0  0  0  0  0  0  0  0  0  0
   -2.2424    5.0310   -0.1496 H   0  0  0  0  0  0  0  0  0  0  0  0
   -3.2596    2.8656    0.4345 H   0  0  0  0  0  0  0  0  0  0  0  0
    2.3715    1.0290   -0.8859 H   0  0  0  0  0  0  0  0  0  0  0  0
    2.0134   -0.6591   -0.4907 H   0  0  0  0  0  0  0  0  0  0  0  0
    2.5996    1.4783    1.6519 H   0  0  0  0  0  0  0  0  0  0  0  0
    2.4242   -0.2513    1.9212 H   0  0  0  0  0  0  0  0  0  0  0  0
    4.7974    0.9939    1.0432 H   0  0  0  0  0  0  0  0  0  0  0  0
    6.6083   -0.9490    1.1072 H   0  0  0  0  0  0  0  0  0  0  0  0
    6.4548   -0.4020   -0.6223 H   0  0  0  0  0  0  0  0  0  0  0  0
    6.7683   -3.5462    1.4621 H   0  0  0  0  0  0  0  0  0  0  0  0
    7.2056   -5.6326   -0.1253 H   0  0  0  0  0  0  0  0  0  0  0  0
    6.2681   -2.2873   -2.4819 H   0  0  0  0  0  0  0  0  0  0  0  0
    1.5463    3.1503   -0.5368 H   0  0  0  0  0  0  0  0  0  0  0  0
   -2.1255   -2.0852    1.1155 H   0  0  0  0  0  0  0  0  0  0  0  0
   -4.7181   -1.6468    2.3929 H   0  0  0  0  0  0  0  0  0  0  0  0
   -3.9920   -3.1837    1.9279 H   0  0  0  0  0  0  0  0  0  0  0  0
   -4.1511   -1.2787   -1.1256 H   0  0  0  0  0  0  0  0  0  0  0  0
   -5.8870   -1.4464   -2.7706 H   0  0  0  0  0  0  0  0  0  0  0  0
   -8.0057   -2.4998   -2.2350 H   0  0  0  0  0  0  0  0  0  0  0  0
   -8.3826   -3.3888    0.0183 H   0  0  0  0  0  0  0  0  0  0  0  0
  1  2  1  0
  2  3  2  3
  2  4  1  0
  4  5  2  0
  5  6  1  0
  6  7  2  0
  7  8  1  0
  8  9  2  0
  9 10  1  0
 10 11  1  0
 11 12  1  0
 12 13  1  0
 13 14  1  0
 14 15  2  0
 14 16  1  0
 16 17  1  0
 17 18  1  0
 18 19  2  0
 19 20  1  0
 20 21  2  0
 10 22  1  0
 22 23  2  0
  8 24  1  0
 24 25  2  0
 24 26  1  0
 26 27  1  0
 27 28  1  0
 28 29  2  0
 29 30  1  0
 30 31  2  0
 31 32  1  0
 32 33  2  0
 33 34  1  0
 23  4  1  0
 33 28  1  0
 22  7  1  0
 21 17  1  0
  1 35  1  0
  1 36  1  0
  3 37  1  0
  5 38  1  0
  6 39  1  0
 11 40  1  0
 11 41  1  0
 12 42  1  0
 12 43  1  0
 13 44  1  0
 16 45  1  0
 16 46  1  0
 18 47  1  0
 19 48  1  0
 21 49  1  0
 23 50  1  0
 26 51  1  0
 27 52  1  0
 27 53  1  0
 29 54  1  0
 30 55  1  0
 31 56  1  0
 32 57  1  0
M  END
$$$$
[H]OC([H])([H])[C@@]1(O[H])C([H])([H])[C@@]2([H])O[C@]1(C([H])([H])[H])n1c3c([H])c([H])c([H])c([H])c3c3c4c(c5c6c([H])c([H])c([H])c([H])c6n2c5c31)C(=O)N([H])C4([H])[H]
     RDKit          3D

 54 61  0  0  0  0  0  0  0  0999 V2000
    3.1800    0.8838    1.3878 C   0  0  0  0  0  0  0  0  0  0  0  0
    2.1176    0.2237    0.5774 C   0  0  2  0  0  0  0  0  0  0  0  0
    1.6968   -0.7870    1.4854 O   0  0  0  0  0  0  0  0  0  0  0  0
    1.2511   -1.8639    0.7986 C   0  0  2  0  0  0  0  0  0  0  0  0
    2.0328   -1.9517   -0.4419 C   0  0  0  0  0  0  0  0  0  0  0  0
    2.6347   -0.5714   -0.5849 C   0  0  1  0  0  0  0  0  0  0  0  0
    2.2138   -0.0799   -1.8115 O   0  0  0  0  0  0  0  0  0  0  0  0
    4.1191   -0.7109   -0.6110 C   0  0  0  0  0  0  0  0  0  0  0  0
    4.4589   -1.5975   -1.6334 O   0  0  0  0  0  0  0  0  0  0  0  0
   -0.2014   -1.7853    0.5955 N   0  0  0  0  0  0  0  0  0  0  0  0
   -1.1044   -2.7499    0.6347 C   0  0  0  0  0  0  0  0  0  0  0  0
   -0.9179   -4.0868    0.8734 C   0  0  0  0  0  0  0  0  0  0  0  0
   -2.0299   -4.9199    0.8648 C   0  0  0  0  0  0  0  0  0  0  0  0
   -3.2823   -4.4161    0.6235 C   0  0  0  0  0  0  0  0  0  0  0  0
   -3.4758   -3.0511    0.3794 C   0  0  0  0  0  0  0  0  0  0  0  0
   -2.3768   -2.2421    0.3902 C   0  0  0  0  0  0  0  0  0  0  0  0
   -2.2053   -0.8905    0.1945 C   0  0  0  0  0  0  0  0  0  0  0  0
   -3.0670    0.1511   -0.0975 C   0  0  0  0  0  0  0  0  0  0  0  0
   -4.5001    0.2660   -0.2996 C   0  0  0  0  0  0  0  0  0  0  0  0
   -5.3884   -0.5871   -0.2658 O   0  0  0  0  0  0  0  0  0  0  0  0
   -4.7851    1.6416   -0.5724 N   0  0  0  0  0  0  0  0  0  0  0  0
   -3.5735    2.4248   -0.5610 C   0  0  0  0  0  0  0  0  0  0  0  0
   -2.5314    1.4168   -0.2472 C   0  0  0  0  0  0  0  0  0  0  0  0
   -1.1701    1.6669   -0.1133 C   0  0  0  0  0  0  0  0  0  0  0  0
   -0.3770    2.7657   -0.2198 C   0  0  0  0  0  0  0  0  0  0  0  0
   -0.7006    4.0705   -0.5126 C   0  0  0  0  0  0  0  0  0  0  0  0
    0.3203    5.0230   -0.5829 C   0  0  0  0  0  0  0  0  0  0  0  0
    1.6233    4.6180   -0.3553 C   0  0  0  0  0  0  0  0  0  0  0  0
    1.9232    3.2989   -0.0625 C   0  0  0  0  0  0  0  0  0  0  0  0
    0.9354    2.3466    0.0129 C   0  0  0  0  0  0  0  0  0  0  0  0
    0.9590    1.0103    0.2643 N   0  0  0  0  0  0  0  0  0  0  0  0
   -0.3578    0.6223    0.1746 C   0  0  0  0  0  0  0  0  0  0  0  0
   -0.8544   -0.6533    0.3299 C   0  0  0  0  0  0  0  0  0  0  0  0
    4.0624    1.2462    0.8471 H   0  0  0  0  0  0  0  0  0  0  0  0
    3.5596    0.1949    2.1815 H   0  0  0  0  0  0  0  0  0  0  0  0
    2.7312    1.7230    1.9466 H   0  0  0  0  0  0  0  0  0  0  0  0
    1.4219   -2.7643    1.4120 H   0  0  0  0  0  0  0  0  0  0  0  0
    1.4720   -2.2700   -1.3403 H   0  0  0  0  0  0  0  0  0  0  0  0
    2.8377   -2.7359   -0.3258 H   0  0  0  0  0  0  0  0  0  0  0  0
    2.8799   -0.3390   -2.4928 H   0  0  0  0  0  0  0  0  0  0  0  0
    4.5238   -1.1579    0.3296 H   0  0  0  0  0  0  0  0  0  0  0  0
    4.6358    0.2581   -0.8438 H   0  0  0  0  0  0  0  0  0  0  0  0
    4.7979   -2.4633   -1.2908 H   0  0  0  0  0  0  0  0  0  0  0  0
    0.0592   -4.4684    1.0598 H   0  0  0  0  0  0  0  0  0  0  0  0
   -1.8569   -5.9719    1.0560 H   0  0  0  0  0  0  0  0  0  0  0  0
   -4.1224   -5.0759    0.6219 H   0  0  0  0  0  0  0  0  0  0  0  0
   -4.4721   -2.7398    0.2018 H   0  0  0  0  0  0  0  0  0  0  0  0
   -5.7336    2.0654   -0.7610 H   0  0  0  0  0  0  0  0  0  0  0  0
   -3.6366    3.2333    0.1993 H   0  0  0  0  0  0  0  0  0  0  0  0
   -3.3846    2.8954   -1.5673 H   0  0  0  0  0  0  0  0  0  0  0  0
   -1.7294    4.3700   -0.6881 H   0  0  0  0  0  0  0  0  0  0  0  0
    0.0587    6.0490   -0.8135 H   0  0  0  0  0  0  0  0  0  0  0  0
    2.3774    5.3965   -0.4223 H   0  0  0  0  0  0  0  0  0  0  0  0
    2.9510    3.0689    0.0761 H   0  0  0  0  0  0  0  0  0  0  0  0
  2  1  1  1
  2  3  1  0
  3  4  1  0
  4  5  1  0
  5  6  1  0
  6  7  1  6
  6  8  1  0
  8  9  1  0
  4 10  1  0
 10 11  1  0
 11 12  2  0
 12 13  1  0
 13 14  2  0
 14 15  1  0
 15 16  2  0
 16 17  1  0
 17 18  2  0
 18 19  1  0
 19 20  2  0
 19 21  1  0
 21 22  1  0
 22 23  1  0
 23 24  2  0
 24 25  1  0
 25 26  2  0
 26 27  1  0
 27 28  2  0
 28 29  1  0
 29 30  2  0
 30 31  1  0
 31 32  1  0
 32 33  2  0
  6  2  1  0
 33 10  1  0
 31  2  1  0
 16 11  1  0
 33 17  1  0
 23 18  1  0
 32 24  1  0
 30 25  1  0
  1 34  1  0
  1 35  1  0
  1 36  1  0
  4 37  1  1
  5 38  1  0
  5 39  1  0
  7 40  1  0
  8 41  1  0
  8 42  1  0
  9 43  1  0
 12 44  1  0
 13 45  1  0
 14 46  1  0
 15 47  1  0
 21 48  1  0
 22 49  1  0
 22 50  1  0
 26 51  1  0
 27 52  1  0
 28 53  1  0
 29 54  1  0
M  END
$$$$
[H]OC(=O)c1c([H])c([H])c(N([H])c2nc([H])c([H])c3c(C4=C([H])C([H])([H])C([H])([H])C4([H])[H])nn([H])c23)c([H])c1[H]
     RDKit          3D

 40 43  0  0  0  0  0  0  0  0999 V2000
    8.2552   -0.6965   -0.0341 O   0  0  0  0  0  0  0  0  0  0  0  0
    7.3560    0.3335    0.1848 C   0  0  0  0  0  0  0  0  0  0  0  0
    7.7722    1.4492    0.5638 O   0  0  0  0  0  0  0  0  0  0  0  0
    5.9225    0.1446   -0.0185 C   0  0  0  0  0  0  0  0  0  0  0  0
    5.4324   -1.0747   -0.4363 C   0  0  0  0  0  0  0  0  0  0  0  0
    4.1078   -1.3166   -0.6440 C   0  0  0  0  0  0  0  0  0  0  0  0
    3.1533   -0.3025   -0.4349 C   0  0  0  0  0  0  0  0  0  0  0  0
    1.7920   -0.5968   -0.6991 N   0  0  0  0  0  0  0  0  0  0  0  0
    0.7422    0.0198    0.0119 C   0  0  0  0  0  0  0  0  0  0  0  0
    0.9360    0.8679    1.0203 N   0  0  0  0  0  0  0  0  0  0  0  0
   -0.0760    1.4161    1.6992 C   0  0  0  0  0  0  0  0  0  0  0  0
   -1.4017    1.1269    1.3853 C   0  0  0  0  0  0  0  0  0  0  0  0
   -1.6655    0.2535    0.3485 C   0  0  0  0  0  0  0  0  0  0  0  0
   -2.8394   -0.2136   -0.1813 C   0  0  0  0  0  0  0  0  0  0  0  0
   -2.4257   -1.0533   -1.1940 N   0  0  0  0  0  0  0  0  0  0  0  0
   -1.1151   -1.0831   -1.2610 N   0  0  0  0  0  0  0  0  0  0  0  0
   -0.5865   -0.2845   -0.3199 C   0  0  0  0  0  0  0  0  0  0  0  0
   -4.2528    0.0330    0.1459 C   0  0  0  0  0  0  0  0  0  0  0  0
   -4.7807    0.7871    1.0554 C   0  0  0  0  0  0  0  0  0  0  0  0
   -6.2897    0.7049    0.9931 C   0  0  0  0  0  0  0  0  0  0  0  0
   -6.4882   -0.6357    0.3486 C   0  0  0  0  0  0  0  0  0  0  0  0
   -5.3437   -0.6566   -0.6392 C   0  0  0  0  0  0  0  0  0  0  0  0
    3.6407    0.9102   -0.0205 C   0  0  0  0  0  0  0  0  0  0  0  0
    5.0051    1.1423    0.1887 C   0  0  0  0  0  0  0  0  0  0  0  0
    8.0179   -1.6437    0.2703 H   0  0  0  0  0  0  0  0  0  0  0  0
    6.1537   -1.8677   -0.6024 H   0  0  0  0  0  0  0  0  0  0  0  0
    3.7482   -2.2818   -0.9718 H   0  0  0  0  0  0  0  0  0  0  0  0
    1.5755   -1.3147   -1.4685 H   0  0  0  0  0  0  0  0  0  0  0  0
    0.0622    2.1085    2.5229 H   0  0  0  0  0  0  0  0  0  0  0  0
   -2.2049    1.5618    1.9243 H   0  0  0  0  0  0  0  0  0  0  0  0
   -0.4996   -1.6284   -1.9270 H   0  0  0  0  0  0  0  0  0  0  0  0
   -4.2701    1.4175    1.7931 H   0  0  0  0  0  0  0  0  0  0  0  0
   -6.6049    1.5547    0.3749 H   0  0  0  0  0  0  0  0  0  0  0  0
   -6.6674    0.7428    2.0337 H   0  0  0  0  0  0  0  0  0  0  0  0
   -6.3849   -1.4147    1.1224 H   0  0  0  0  0  0  0  0  0  0  0  0
   -7.4792   -0.6393   -0.1342 H   0  0  0  0  0  0  0  0  0  0  0  0
   -5.5489   -0.0450   -1.5254 H   0  0  0  0  0  0  0  0  0  0  0  0
   -5.0773   -1.6905   -0.9094 H   0  0  0  0  0  0  0  0  0  0  0  0
    2.9682    1.7569    0.1404 H   0  0  0  0  0  0  0  0  0  0  0  0
    5.3610    2.1084    0.5164 H   0  0  0  0  0  0  0  0  0  0  0  0
  1  2  1  0
  2  3  2  0
  2  4  1  0
  4  5  2  0
  5  6  1  0
  6  7  2  0
  7  8  1  0
  8  9  1  0
  9 10  2  0
 10 11  1  0
 11 12  2  0
 12 13  1  0
 13 14  1  0
 14 15  2  0
 15 16  1  0
 16 17  1  0
 14 18  1  0
 18 19  2  0
 19 20  1  0
 20 21  1  0
 21 22  1  0
  7 23  1  0
 23 24  2  0
 24  4  1  0
 17  9  1  0
 22 18  1  0
 17 13  2  0
  1 25  1  0
  5 26  1  0
  6 27  1  0
  8 28  1  0
 11 29  1  0
 12 30  1  0
 16 31  1  0
 19 32  1  0
 20 33  1  0
 20 34  1  0
 21 35  1  0
 21 36  1  0
 22 37  1  0
 22 38  1  0
 23 39  1  0
 24 40  1  0
M  END
$$$$
[H]c1nc([H])c2c([H])c([H])c([H])c(-c3c([H])c4c(N([H])C([H])([H])C([H])([H])C([H])([H])N5C([H])([H])C([H])([H])N(C([H])([H])[H])C([H])([H])C5([H])[H])nc([H])c([H])c4n3[H])c2c1[H]
     RDKit          3D

 58 62  0  0  0  0  0  0  0  0999 V2000
   -6.6991   -1.4994   -1.3894 C   0  0  0  0  0  0  0  0  0  0  0  0
   -7.0781   -0.2468   -0.8137 N   0  0  0  0  0  0  0  0  0  0  0  0
   -6.4921    0.8720   -1.4740 C   0  0  0  0  0  0  0  0  0  0  0  0
   -5.0841    1.1916   -1.0534 C   0  0  0  0  0  0  0  0  0  0  0  0
   -4.8247    1.0493    0.3396 N   0  0  0  0  0  0  0  0  0  0  0  0
   -3.9043    0.0262    0.7114 C   0  0  0  0  0  0  0  0  0  0  0  0
   -2.4833    0.3239    0.2770 C   0  0  0  0  0  0  0  0  0  0  0  0
   -1.6170   -0.8246    0.7228 C   0  0  0  0  0  0  0  0  0  0  0  0
   -0.2350   -0.7027    0.3965 N   0  0  0  0  0  0  0  0  0  0  0  0
    0.5441    0.3460    0.9730 C   0  0  0  0  0  0  0  0  0  0  0  0
    0.0723    1.2477    1.8412 N   0  0  0  0  0  0  0  0  0  0  0  0
    0.8245    2.2226    2.3780 C   0  0  0  0  0  0  0  0  0  0  0  0
    2.1550    2.3345    2.0434 C   0  0  0  0  0  0  0  0  0  0  0  0
    2.7084    1.4231    1.1413 C   0  0  0  0  0  0  0  0  0  0  0  0
    3.9376    1.2705    0.6282 N   0  0  0  0  0  0  0  0  0  0  0  0
    3.9747    0.2496   -0.1932 C   0  0  0  0  0  0  0  0  0  0  0  0
    2.6624   -0.2848   -0.2024 C   0  0  0  0  0  0  0  0  0  0  0  0
    1.9025    0.4568    0.6288 C   0  0  0  0  0  0  0  0  0  0  0  0
    5.0141   -0.4308   -0.9666 C   0  0  0  0  0  0  0  0  0  0  0  0
    4.6232   -1.0895   -2.1487 C   0  0  0  0  0  0  0  0  0  0  0  0
    5.4796   -1.7658   -2.9534 C   0  0  0  0  0  0  0  0  0  0  0  0
    6.8057   -1.8191   -2.6070 C   0  0  0  0  0  0  0  0  0  0  0  0
    7.2122   -1.1865   -1.4556 C   0  0  0  0  0  0  0  0  0  0  0  0
    8.5358   -1.2658   -1.0871 C   0  0  0  0  0  0  0  0  0  0  0  0
    8.9967   -0.7018    0.0377 N   0  0  0  0  0  0  0  0  0  0  0  0
    8.1673   -0.0415    0.8371 C   0  0  0  0  0  0  0  0  0  0  0  0
    6.8155    0.0906    0.5454 C   0  0  0  0  0  0  0  0  0  0  0  0
    6.3346   -0.4825   -0.6108 C   0  0  0  0  0  0  0  0  0  0  0  0
   -6.0421    0.9366    1.0952 C   0  0  0  0  0  0  0  0  0  0  0  0
   -6.9594   -0.1506    0.6045 C   0  0  0  0  0  0  0  0  0  0  0  0
   -6.0776   -1.4037   -2.3015 H   0  0  0  0  0  0  0  0  0  0  0  0
   -6.0463   -2.0303   -0.6444 H   0  0  0  0  0  0  0  0  0  0  0  0
   -7.5651   -2.1520   -1.6338 H   0  0  0  0  0  0  0  0  0  0  0  0
   -7.1686    1.7447   -1.3521 H   0  0  0  0  0  0  0  0  0  0  0  0
   -6.4672    0.6532   -2.5624 H   0  0  0  0  0  0  0  0  0  0  0  0
   -4.3514    0.6642   -1.6987 H   0  0  0  0  0  0  0  0  0  0  0  0
   -4.9392    2.2867   -1.2957 H   0  0  0  0  0  0  0  0  0  0  0  0
   -3.8907   -0.0055    1.8333 H   0  0  0  0  0  0  0  0  0  0  0  0
   -4.1441   -0.9837    0.3787 H   0  0  0  0  0  0  0  0  0  0  0  0
   -2.1577    1.3106    0.5945 H   0  0  0  0  0  0  0  0  0  0  0  0
   -2.4378    0.3373   -0.8529 H   0  0  0  0  0  0  0  0  0  0  0  0
   -1.7246   -0.8506    1.8491 H   0  0  0  0  0  0  0  0  0  0  0  0
   -2.0058   -1.7710    0.2902 H   0  0  0  0  0  0  0  0  0  0  0  0
    0.2016   -1.3806   -0.2638 H   0  0  0  0  0  0  0  0  0  0  0  0
    0.4048    2.9490    3.0906 H   0  0  0  0  0  0  0  0  0  0  0  0
    2.7951    3.1072    2.4550 H   0  0  0  0  0  0  0  0  0  0  0  0
    4.7034    1.9441    0.8628 H   0  0  0  0  0  0  0  0  0  0  0  0
    2.3062   -1.1321   -0.7637 H   0  0  0  0  0  0  0  0  0  0  0  0
    3.5792   -1.0406   -2.4121 H   0  0  0  0  0  0  0  0  0  0  0  0
    5.1218   -2.2677   -3.8759 H   0  0  0  0  0  0  0  0  0  0  0  0
    7.5071   -2.3446   -3.2252 H   0  0  0  0  0  0  0  0  0  0  0  0
    9.2525   -1.7939   -1.7052 H   0  0  0  0  0  0  0  0  0  0  0  0
    8.5137    0.4168    1.7411 H   0  0  0  0  0  0  0  0  0  0  0  0
    6.1729    0.5948    1.2426 H   0  0  0  0  0  0  0  0  0  0  0  0
   -5.8102    0.7086    2.1735 H   0  0  0  0  0  0  0  0  0  0  0  0
   -6.5499    1.9453    1.0547 H   0  0  0  0  0  0  0  0  0  0  0  0
   -7.9592    0.0457    1.0609 H   0  0  0  0  0  0  0  0  0  0  0  0
   -6.6099   -1.1008    1.0734 H   0  0  0  0  0  0  0  0  0  0  0  0
  1  2  1  0
  2  3  1  0
  3  4  1  0
  4  5  1  0
  5  6  1  0
  6  7  1  0
  7  8  1  0
  8  9  1  0
  9 10  1  0
 10 11  2  0
 11 12  1  0
 12 13  2  0
 13 14  1  0
 14 15  1  0
 15 16  1  0
 16 17  2  0
 17 18  1  0
 16 19  1  0
 19 20  2  0
 20 21  1  0
 21 22  2  0
 22 23  1  0
 23 24  2  0
 24 25  1  0
 25 26  2  0
 26 27  1  0
 27 28  2  0
  5 29  1  0
 29 30  1  0
 30  2  1  0
 18 10  1  0
 28 19  1  0
 18 14  2  0
 28 23  1  0
  1 31  1  0
  1 32  1  0
  1 33  1  0
  3 34  1  0
  3 35  1  0
  4 36  1  0
  4 37  1  0
  6 38  1  0
  6 39  1  0
  7 40  1  0
  7 41  1  0
  8 42  1  0
  8 43  1  0
  9 44  1  0
 12 45  1  0
 13 46  1  0
 15 47  1  0
 17 48  1  0
 20 49  1  0
 21 50  1  0
 22 51  1  0
 24 52  1  0
 26 53  1  0
 27 54  1  0
 29 55  1  0
 29 56  1  0
 30 57  1  0
 30 58  1  0
M  END
$$$$
[H]c1nc(N([H])[C@]([H])(c2c([H])c([H])c(Cl)c([H])c2[H])C([H])([H])[H])oc1-c1c([H])c(Cl)c([H])c([H])c1Oc1c([H])c(F)c([H])c([H])c1F
     RDKit          3D

 47 50  0  0  0  0  0  0  0  0999 V2000
   -3.3732   -1.5596   -2.4633 C   0  0  0  0  0  0  0  0  0  0  0  0
   -3.0604   -0.0931   -2.2245 C   0  0  2  0  0  0  0  0  0  0  0  0
   -1.6915    0.0789   -1.8508 N   0  0  0  0  0  0  0  0  0  0  0  0
   -1.1643   -0.5483   -0.6678 C   0  0  0  0  0  0  0  0  0  0  0  0
   -1.8696   -1.3244    0.1717 N   0  0  0  0  0  0  0  0  0  0  0  0
   -1.0460   -1.7284    1.1564 C   0  0  0  0  0  0  0  0  0  0  0  0
    0.1911   -1.1817    0.9054 C   0  0  0  0  0  0  0  0  0  0  0  0
    0.0435   -0.4939   -0.1939 O   0  0  0  0  0  0  0  0  0  0  0  0
    1.3912   -1.3542    1.7159 C   0  0  0  0  0  0  0  0  0  0  0  0
    1.3807   -2.1167    2.8544 C   0  0  0  0  0  0  0  0  0  0  0  0
    2.5162   -2.2776    3.6178 C   0  0  0  0  0  0  0  0  0  0  0  0
    2.5134   -3.2548    5.0825 Cl  0  0  0  0  0  0  0  0  0  0  0  0
    3.6776   -1.6742    3.2467 C   0  0  0  0  0  0  0  0  0  0  0  0
    3.7188   -0.9016    2.1066 C   0  0  0  0  0  0  0  0  0  0  0  0
    2.5944   -0.7378    1.3449 C   0  0  0  0  0  0  0  0  0  0  0  0
    2.5985    0.0279    0.2031 O   0  0  0  0  0  0  0  0  0  0  0  0
    3.6615    0.7540   -0.2834 C   0  0  0  0  0  0  0  0  0  0  0  0
    4.2235    0.4254   -1.5142 C   0  0  0  0  0  0  0  0  0  0  0  0
    5.2736    1.1310   -2.0152 C   0  0  0  0  0  0  0  0  0  0  0  0
    5.7954    0.7780   -3.2232 F   0  0  0  0  0  0  0  0  0  0  0  0
    5.7932    2.1875   -1.2990 C   0  0  0  0  0  0  0  0  0  0  0  0
    5.2310    2.5089   -0.0788 C   0  0  0  0  0  0  0  0  0  0  0  0
    4.1579    1.7978    0.4459 C   0  0  0  0  0  0  0  0  0  0  0  0
    3.6242    2.1800    1.6587 F   0  0  0  0  0  0  0  0  0  0  0  0
   -4.0142    0.5229   -1.2910 C   0  0  0  0  0  0  0  0  0  0  0  0
   -5.1321   -0.1477   -0.8846 C   0  0  0  0  0  0  0  0  0  0  0  0
   -6.0487    0.4279    0.0050 C   0  0  0  0  0  0  0  0  0  0  0  0
   -5.8075    1.6994    0.4742 C   0  0  0  0  0  0  0  0  0  0  0  0
   -6.9485    2.4528    1.5998 Cl  0  0  0  0  0  0  0  0  0  0  0  0
   -4.6774    2.3799    0.0645 C   0  0  0  0  0  0  0  0  0  0  0  0
   -3.7847    1.7878   -0.8174 C   0  0  0  0  0  0  0  0  0  0  0  0
   -2.4422   -2.0065   -2.8975 H   0  0  0  0  0  0  0  0  0  0  0  0
   -4.1492   -1.6486   -3.2555 H   0  0  0  0  0  0  0  0  0  0  0  0
   -3.6197   -2.1160   -1.5622 H   0  0  0  0  0  0  0  0  0  0  0  0
   -3.2221    0.4048   -3.2156 H   0  0  0  0  0  0  0  0  0  0  0  0
   -1.0436    0.6607   -2.4235 H   0  0  0  0  0  0  0  0  0  0  0  0
   -1.3380   -2.3753    1.9923 H   0  0  0  0  0  0  0  0  0  0  0  0
    0.4803   -2.6144    3.1866 H   0  0  0  0  0  0  0  0  0  0  0  0
    4.5639   -1.8072    3.8536 H   0  0  0  0  0  0  0  0  0  0  0  0
    4.6819   -0.4619    1.8666 H   0  0  0  0  0  0  0  0  0  0  0  0
    3.7858   -0.4153   -2.0504 H   0  0  0  0  0  0  0  0  0  0  0  0
    6.6240    2.7279   -1.7189 H   0  0  0  0  0  0  0  0  0  0  0  0
    5.6397    3.3433    0.4892 H   0  0  0  0  0  0  0  0  0  0  0  0
   -5.3698   -1.1336   -1.2152 H   0  0  0  0  0  0  0  0  0  0  0  0
   -6.9377   -0.0741    0.3439 H   0  0  0  0  0  0  0  0  0  0  0  0
   -4.5062    3.3846    0.4480 H   0  0  0  0  0  0  0  0  0  0  0  0
   -2.9147    2.3857   -1.0963 H   0  0  0  0  0  0  0  0  0  0  0  0
  1  2  1  0
  2  3  1  0
  3  4  1  0
  4  5  2  0
  5  6  1  0
  6  7  2  0
  7  8  1  0
  7  9  1  0
  9 10  2  0
 10 11  1  0
 11 12  1  0
 11 13  2  0
 13 14  1  0
 14 15  2  0
 15 16  1  0
 16 17  1  0
 17 18  2  0
 18 19  1  0
 19 20  1  0
 19 21  2  0
 21 22  1  0
 22 23  2  0
 23 24  1  0
  2 25  1  0
 25 26  2  0
 26 27  1  0
 27 28  2  0
 28 29  1  0
 28 30  1  0
 30 31  2  0
  8  4  1  0
 15  9  1  0
 23 17  1  0
 31 25  1  0
  1 32  1  0
  1 33  1  0
  1 34  1  0
  2 35  1  6
  3 36  1  0
  6 37  1  0
 10 38  1  0
 13 39  1  0
 14 40  1  0
 18 41  1  0
 21 42  1  0
 22 43  1  0
 26 44  1  0
 27 45  1  0
 30 46  1  0
 31 47  1  0
M  END
$$$$
[H]c1nc([H])c(-c2c([H])c([H])c3c(c2[H])OC([H])([H])C([H])([H])O3)c([H])c1Oc1c([H])c([H])c(-c2c([H])nc([H])c(N([H])C(=O)C(C([H])([H])[H])(C([H])([H])[H])C([H])([H])[H])c2C([H])([H])[H])c([H])c1F
     RDKit          3D

 66 70  0  0  0  0  0  0  0  0999 V2000
   -3.9316    1.2346   -0.3090 C   0  0  0  0  0  0  0  0  0  0  0  0
   -3.7121   -0.1394    0.2117 C   0  0  0  0  0  0  0  0  0  0  0  0
   -4.8245   -1.0199    0.2886 C   0  0  0  0  0  0  0  0  0  0  0  0
   -6.0927   -0.5375   -0.0542 N   0  0  0  0  0  0  0  0  0  0  0  0
   -7.2932   -1.2454   -0.1167 C   0  0  0  0  0  0  0  0  0  0  0  0
   -7.3730   -2.4606    0.1409 O   0  0  0  0  0  0  0  0  0  0  0  0
   -8.5843   -0.5795   -0.5040 C   0  0  0  0  0  0  0  0  0  0  0  0
   -9.6806   -1.6095   -0.4522 C   0  0  0  0  0  0  0  0  0  0  0  0
   -8.9291    0.5814    0.3681 C   0  0  0  0  0  0  0  0  0  0  0  0
   -8.4763   -0.0981   -1.9383 C   0  0  0  0  0  0  0  0  0  0  0  0
   -4.5245   -2.2868    0.7363 C   0  0  0  0  0  0  0  0  0  0  0  0
   -3.2779   -2.6637    1.0753 N   0  0  0  0  0  0  0  0  0  0  0  0
   -2.2598   -1.8110    0.9919 C   0  0  0  0  0  0  0  0  0  0  0  0
   -2.4479   -0.4965    0.5499 C   0  0  0  0  0  0  0  0  0  0  0  0
   -1.3230    0.4178    0.5125 C   0  0  0  0  0  0  0  0  0  0  0  0
   -0.1946    0.0151   -0.1956 C   0  0  0  0  0  0  0  0  0  0  0  0
    0.9405    0.8118   -0.2593 C   0  0  0  0  0  0  0  0  0  0  0  0
    0.9909    2.0316    0.3772 C   0  0  0  0  0  0  0  0  0  0  0  0
    2.1297    2.8113    0.3028 O   0  0  0  0  0  0  0  0  0  0  0  0
    3.2680    2.4432   -0.3921 C   0  0  0  0  0  0  0  0  0  0  0  0
    3.3860    2.8048   -1.7143 C   0  0  0  0  0  0  0  0  0  0  0  0
    4.4897    2.4495   -2.3912 N   0  0  0  0  0  0  0  0  0  0  0  0
    5.4683    1.7504   -1.7901 C   0  0  0  0  0  0  0  0  0  0  0  0
    5.3877    1.3701   -0.4702 C   0  0  0  0  0  0  0  0  0  0  0  0
    4.2655    1.7273    0.2303 C   0  0  0  0  0  0  0  0  0  0  0  0
    6.4591    0.6125    0.1706 C   0  0  0  0  0  0  0  0  0  0  0  0
    6.7314    0.7487    1.4994 C   0  0  0  0  0  0  0  0  0  0  0  0
    7.7519    0.0199    2.0774 C   0  0  0  0  0  0  0  0  0  0  0  0
    8.5205   -0.8576    1.3447 C   0  0  0  0  0  0  0  0  0  0  0  0
    9.5493   -1.6038    1.8852 O   0  0  0  0  0  0  0  0  0  0  0  0
   10.6054   -2.1583    1.1194 C   0  0  0  0  0  0  0  0  0  0  0  0
   10.2104   -2.4822   -0.2874 C   0  0  0  0  0  0  0  0  0  0  0  0
    9.0270   -1.8802   -0.7168 O   0  0  0  0  0  0  0  0  0  0  0  0
    8.2536   -1.0018    0.0040 C   0  0  0  0  0  0  0  0  0  0  0  0
    7.2259   -0.2658   -0.5701 C   0  0  0  0  0  0  0  0  0  0  0  0
   -0.1358    2.4092    1.0708 C   0  0  0  0  0  0  0  0  0  0  0  0
   -0.1012    3.6102    1.7037 F   0  0  0  0  0  0  0  0  0  0  0  0
   -1.2740    1.6373    1.1491 C   0  0  0  0  0  0  0  0  0  0  0  0
   -4.6396    1.2483   -1.1805 H   0  0  0  0  0  0  0  0  0  0  0  0
   -3.0088    1.6942   -0.7351 H   0  0  0  0  0  0  0  0  0  0  0  0
   -4.4077    1.8255    0.4906 H   0  0  0  0  0  0  0  0  0  0  0  0
   -6.1726    0.5002   -0.2876 H   0  0  0  0  0  0  0  0  0  0  0  0
   -9.4027   -2.5095    0.1446 H   0  0  0  0  0  0  0  0  0  0  0  0
  -10.6292   -1.1671   -0.0373 H   0  0  0  0  0  0  0  0  0  0  0  0
   -9.8922   -2.0073   -1.4835 H   0  0  0  0  0  0  0  0  0  0  0  0
   -8.6188    0.4992    1.4099 H   0  0  0  0  0  0  0  0  0  0  0  0
  -10.0544    0.6517    0.3856 H   0  0  0  0  0  0  0  0  0  0  0  0
   -8.5264    1.5266   -0.0943 H   0  0  0  0  0  0  0  0  0  0  0  0
   -7.6530    0.6211   -1.9970 H   0  0  0  0  0  0  0  0  0  0  0  0
   -8.3666   -0.9818   -2.5871 H   0  0  0  0  0  0  0  0  0  0  0  0
   -9.4722    0.3489   -2.1921 H   0  0  0  0  0  0  0  0  0  0  0  0
   -5.3412   -3.0292    0.8255 H   0  0  0  0  0  0  0  0  0  0  0  0
   -1.2306   -2.0802    1.2590 H   0  0  0  0  0  0  0  0  0  0  0  0
   -0.2104   -0.9533   -0.7117 H   0  0  0  0  0  0  0  0  0  0  0  0
    1.8127    0.4894   -0.8131 H   0  0  0  0  0  0  0  0  0  0  0  0
    2.5838    3.3802   -2.2168 H   0  0  0  0  0  0  0  0  0  0  0  0
    6.3395    1.4881   -2.3808 H   0  0  0  0  0  0  0  0  0  0  0  0
    4.1682    1.4373    1.2929 H   0  0  0  0  0  0  0  0  0  0  0  0
    6.1339    1.4342    2.0793 H   0  0  0  0  0  0  0  0  0  0  0  0
    7.9812    0.1145    3.1234 H   0  0  0  0  0  0  0  0  0  0  0  0
   10.9021   -3.0981    1.6710 H   0  0  0  0  0  0  0  0  0  0  0  0
   11.4586   -1.4451    1.1086 H   0  0  0  0  0  0  0  0  0  0  0  0
   11.0588   -2.2589   -0.9965 H   0  0  0  0  0  0  0  0  0  0  0  0
   10.0658   -3.5956   -0.3599 H   0  0  0  0  0  0  0  0  0  0  0  0
    7.0358   -0.3974   -1.6270 H   0  0  0  0  0  0  0  0  0  0  0  0
   -2.1390    1.9750    1.7079 H   0  0  0  0  0  0  0  0  0  0  0  0
  1  2  1  0
  2  3  2  0
  3  4  1  0
  4  5  1  0
  5  6  2  0
  5  7  1  0
  7  8  1  0
  7  9  1  0
  7 10  1  0
  3 11  1  0
 11 12  2  0
 12 13  1  0
 13 14  2  0
 14 15  1  0
 15 16  2  0
 16 17  1  0
 17 18  2  0
 18 19  1  0
 19 20  1  0
 20 21  2  0
 21 22  1  0
 22 23  2  0
 23 24  1  0
 24 25  2  0
 24 26  1  0
 26 27  2  0
 27 28  1  0
 28 29  2  0
 29 30  1  0
 30 31  1  0
 31 32  1  0
 32 33  1  0
 33 34  1  0
 34 35  2  0
 18 36  1  0
 36 37  1  0
 36 38  2  0
 14  2  1  0
 38 15  1  0
 25 20  1  0
 35 26  1  0
 34 29  1  0
  1 39  1  0
  1 40  1  0
  1 41  1  0
  4 42  1  0
  8 43  1  0
  8 44  1  0
  8 45  1  0
  9 46  1  0
  9 47  1  0
  9 48  1  0
 10 49  1  0
 10 50  1  0
 10 51  1  0
 11 52  1  0
 13 53  1  0
 16 54  1  0
 17 55  1  0
 21 56  1  0
 23 57  1  0
 25 58  1  0
 27 59  1  0
 28 60  1  0
 31 61  1  0
 31 62  1  0
 32 63  1  0
 32 64  1  0
 35 65  1  0
 38 66  1  0
M  END
$$$$
[H]OC(=O)c1c([H])c([H])c([H])c2c(C(=O)N([H])C3([H])C([H])([H])C([H])([H])N(C([H])([H])c4nc([H])c([H])c([H])c4[N+](=O)[O-])C([H])([H])C3([H])[H])nn(-c3c([H])c([H])c([H])c([H])c3[H])c12
     RDKit          3D

 61 65  0  0  0  0  0  0  0  0999 V2000
    7.9824    2.1043    1.0376 O   0  0  0  0  0  0  0  0  0  0  0  0
    8.0544    1.0040    1.8245 N   0  0  0  0  0  0  0  0  0  0  0  0
    9.1588    0.5266    2.1174 O   0  0  0  0  0  0  0  0  0  0  0  0
    6.8770    0.3831    2.3238 C   0  0  0  0  0  0  0  0  0  0  0  0
    6.9725   -0.3207    3.5288 C   0  0  0  0  0  0  0  0  0  0  0  0
    5.8772   -0.9435    4.0264 C   0  0  0  0  0  0  0  0  0  0  0  0
    4.6650   -0.8905    3.3550 C   0  0  0  0  0  0  0  0  0  0  0  0
    4.6238   -0.2111    2.2171 N   0  0  0  0  0  0  0  0  0  0  0  0
    5.6714    0.4283    1.6695 C   0  0  0  0  0  0  0  0  0  0  0  0
    5.5010    1.1723    0.3830 C   0  0  0  0  0  0  0  0  0  0  0  0
    4.2078    1.1056   -0.1774 N   0  0  0  0  0  0  0  0  0  0  0  0
    3.1151    1.6296    0.5460 C   0  0  0  0  0  0  0  0  0  0  0  0
    2.1279    2.1457   -0.5206 C   0  0  0  0  0  0  0  0  0  0  0  0
    1.6067    0.9110   -1.2171 C   0  0  0  0  0  0  0  0  0  0  0  0
    2.4873   -0.3125   -0.9735 C   0  0  0  0  0  0  0  0  0  0  0  0
    3.9416    0.1364   -1.1706 C   0  0  0  0  0  0  0  0  0  0  0  0
    0.2677    0.5819   -0.8400 N   0  0  0  0  0  0  0  0  0  0  0  0
   -0.7765    0.5124   -1.8311 C   0  0  0  0  0  0  0  0  0  0  0  0
   -0.5336    0.7358   -3.0304 O   0  0  0  0  0  0  0  0  0  0  0  0
   -2.1331    0.1761   -1.4189 C   0  0  0  0  0  0  0  0  0  0  0  0
   -2.5453   -0.0858   -0.1720 N   0  0  0  0  0  0  0  0  0  0  0  0
   -3.8575   -0.3559   -0.1486 N   0  0  0  0  0  0  0  0  0  0  0  0
   -4.3073   -0.2661   -1.3999 C   0  0  0  0  0  0  0  0  0  0  0  0
   -5.5318   -0.4472   -1.9941 C   0  0  0  0  0  0  0  0  0  0  0  0
   -5.6693   -0.3008   -3.3832 C   0  0  0  0  0  0  0  0  0  0  0  0
   -4.6320    0.0231   -4.2055 C   0  0  0  0  0  0  0  0  0  0  0  0
   -3.4063    0.2076   -3.6078 C   0  0  0  0  0  0  0  0  0  0  0  0
   -3.2236    0.0730   -2.2473 C   0  0  0  0  0  0  0  0  0  0  0  0
   -6.7563   -0.7008   -1.2392 C   0  0  0  0  0  0  0  0  0  0  0  0
   -7.4459   -1.9028   -1.4662 O   0  0  0  0  0  0  0  0  0  0  0  0
   -7.2236    0.0961   -0.4011 O   0  0  0  0  0  0  0  0  0  0  0  0
   -4.5660   -0.7133    1.0273 C   0  0  0  0  0  0  0  0  0  0  0  0
   -4.9717   -2.0303    1.1949 C   0  0  0  0  0  0  0  0  0  0  0  0
   -5.6056   -2.4280    2.3352 C   0  0  0  0  0  0  0  0  0  0  0  0
   -5.8526   -1.5086    3.3482 C   0  0  0  0  0  0  0  0  0  0  0  0
   -5.4655   -0.1900    3.2210 C   0  0  0  0  0  0  0  0  0  0  0  0
   -4.8267    0.1877    2.0597 C   0  0  0  0  0  0  0  0  0  0  0  0
    7.9512   -0.3450    4.0414 H   0  0  0  0  0  0  0  0  0  0  0  0
    5.9095   -1.5004    4.9575 H   0  0  0  0  0  0  0  0  0  0  0  0
    3.7697   -1.3719    3.7145 H   0  0  0  0  0  0  0  0  0  0  0  0
    5.6520    2.2608    0.6928 H   0  0  0  0  0  0  0  0  0  0  0  0
    6.2558    0.9163   -0.3702 H   0  0  0  0  0  0  0  0  0  0  0  0
    2.5728    0.9057    1.1844 H   0  0  0  0  0  0  0  0  0  0  0  0
    3.4395    2.4437    1.2152 H   0  0  0  0  0  0  0  0  0  0  0  0
    2.7568    2.7585   -1.2100 H   0  0  0  0  0  0  0  0  0  0  0  0
    1.3619    2.7876   -0.0946 H   0  0  0  0  0  0  0  0  0  0  0  0
    1.6690    1.0972   -2.3095 H   0  0  0  0  0  0  0  0  0  0  0  0
    2.1975   -1.0452   -1.7775 H   0  0  0  0  0  0  0  0  0  0  0  0
    2.3166   -0.7466    0.0209 H   0  0  0  0  0  0  0  0  0  0  0  0
    3.9586    0.6228   -2.1732 H   0  0  0  0  0  0  0  0  0  0  0  0
    4.5899   -0.7409   -1.1984 H   0  0  0  0  0  0  0  0  0  0  0  0
    0.0194    0.3856    0.1518 H   0  0  0  0  0  0  0  0  0  0  0  0
   -6.6611   -0.4566   -3.8191 H   0  0  0  0  0  0  0  0  0  0  0  0
   -4.7752    0.1280   -5.2805 H   0  0  0  0  0  0  0  0  0  0  0  0
   -2.5625    0.4656   -4.2258 H   0  0  0  0  0  0  0  0  0  0  0  0
   -6.9749   -2.7629   -1.2181 H   0  0  0  0  0  0  0  0  0  0  0  0
   -4.7894   -2.7644    0.4205 H   0  0  0  0  0  0  0  0  0  0  0  0
   -5.9183   -3.4399    2.4647 H   0  0  0  0  0  0  0  0  0  0  0  0
   -6.3560   -1.8533    4.2381 H   0  0  0  0  0  0  0  0  0  0  0  0
   -5.6683    0.5140    4.0243 H   0  0  0  0  0  0  0  0  0  0  0  0
   -4.5218    1.2089    1.9508 H   0  0  0  0  0  0  0  0  0  0  0  0
  1  2  1  0
  2  3  2  0
  2  4  1  0
  4  5  2  0
  5  6  1  0
  6  7  2  0
  7  8  1  0
  8  9  2  0
  9 10  1  0
 10 11  1  0
 11 12  1  0
 12 13  1  0
 13 14  1  0
 14 15  1  0
 15 16  1  0
 14 17  1  0
 17 18  1  0
 18 19  2  0
 18 20  1  0
 20 21  2  0
 21 22  1  0
 22 23  1  0
 23 24  2  0
 24 25  1  0
 25 26  2  0
 26 27  1  0
 27 28  2  0
 24 29  1  0
 29 30  1  0
 29 31  2  0
 22 32  1  0
 32 33  2  0
 33 34  1  0
 34 35  2  0
 35 36  1  0
 36 37  2  0
  9  4  1  0
 16 11  1  0
 28 20  1  0
 37 32  1  0
 28 23  1  0
  5 38  1  0
  6 39  1  0
  7 40  1  0
 10 41  1  0
 10 42  1  0
 12 43  1  0
 12 44  1  0
 13 45  1  0
 13 46  1  0
 14 47  1  0
 15 48  1  0
 15 49  1  0
 16 50  1  0
 16 51  1  0
 17 52  1  0
 25 53  1  0
 26 54  1  0
 27 55  1  0
 30 56  1  0
 33 57  1  0
 34 58  1  0
 35 59  1  0
 36 60  1  0
 37 61  1  0
M  CHG  2   1  -1   2   1
M  END
$$$$
[H]C([H])=C(C1=C([H])C2(C(=O)C1([H])C([H])([H])[H])C([H])([H])C([H])([H])N(S(=O)(=O)c1c([H])c([H])c(Cl)c([H])c1[H])C([H])([H])C2([H])[H])C([H])([H])[H]
     RDKit          3D

 47 49  0  0  0  0  0  0  0  0999 V2000
   -5.6111   -0.3497    1.1303 C   0  0  0  0  0  0  0  0  0  0  0  0
   -4.5415   -1.4784    0.1127 C   0  0  0  0  0  0  0  0  0  0  0  0
   -5.4648   -2.2836    0.1108 C   0  0  0  0  0  0  0  0  0  0  0  0
   -3.4839   -0.5561    0.1149 C   0  0  0  0  0  0  0  0  0  0  0  0
   -2.2119   -1.0496   -0.2363 C   0  0  0  0  0  0  0  0  0  0  0  0
   -1.1800   -0.0474   -0.2012 C   0  0  0  0  0  0  0  0  0  0  0  0
   -0.2131   -0.1211   -1.3623 C   0  0  0  0  0  0  0  0  0  0  0  0
    1.0355   -0.8075   -0.9229 C   0  0  0  0  0  0  0  0  0  0  0  0
    1.7295   -0.1051    0.0985 N   0  0  0  0  0  0  0  0  0  0  0  0
    0.9111    0.4076    1.1454 C   0  0  0  0  0  0  0  0  0  0  0  0
   -0.4841   -0.1510    1.1459 C   0  0  0  0  0  0  0  0  0  0  0  0
    2.9161    0.9353   -0.5080 S   0  0  0  0  0  0  0  0  0  0  0  0
    2.7140    2.3199    0.0787 O   0  0  0  0  0  0  0  0  0  0  0  0
    2.8594    1.1054   -1.9992 O   0  0  0  0  0  0  0  0  0  0  0  0
    4.5359    0.4523   -0.0877 C   0  0  0  0  0  0  0  0  0  0  0  0
    5.2400   -0.3349   -0.9547 C   0  0  0  0  0  0  0  0  0  0  0  0
    6.5376   -0.7772   -0.7115 C   0  0  0  0  0  0  0  0  0  0  0  0
    7.1415   -0.3919    0.4799 C   0  0  0  0  0  0  0  0  0  0  0  0
    8.7885   -0.9359    0.8245 Cl  0  0  0  0  0  0  0  0  0  0  0  0
    6.4289    0.4001    1.3489 C   0  0  0  0  0  0  0  0  0  0  0  0
    5.1436    0.8310    1.0953 C   0  0  0  0  0  0  0  0  0  0  0  0
   -1.9250    1.2083   -0.3295 C   0  0  0  0  0  0  0  0  0  0  0  0
   -1.6439    2.2828   -0.7909 O   0  0  0  0  0  0  0  0  0  0  0  0
   -3.2615    0.8805    0.2892 C   0  0  0  0  0  0  0  0  0  0  0  0
   -4.3015    1.7317   -0.4257 C   0  0  0  0  0  0  0  0  0  0  0  0
   -6.0542    0.0001    0.2385 H   0  0  0  0  0  0  0  0  0  0  0  0
   -6.0520   -1.1528    1.7062 H   0  0  0  0  0  0  0  0  0  0  0  0
   -4.7950    0.1412    1.5481 H   0  0  0  0  0  0  0  0  0  0  0  0
   -5.2665   -3.2656   -0.4616 H   0  0  0  0  0  0  0  0  0  0  0  0
   -6.4623   -2.2788    0.5539 H   0  0  0  0  0  0  0  0  0  0  0  0
   -2.0869   -2.0803   -0.4943 H   0  0  0  0  0  0  0  0  0  0  0  0
   -0.6715   -0.6414   -2.2280 H   0  0  0  0  0  0  0  0  0  0  0  0
   -0.0020    0.9167   -1.6847 H   0  0  0  0  0  0  0  0  0  0  0  0
    0.7832   -1.8157   -0.5248 H   0  0  0  0  0  0  0  0  0  0  0  0
    1.7190   -0.9302   -1.7978 H   0  0  0  0  0  0  0  0  0  0  0  0
    1.3741    0.0387    2.1136 H   0  0  0  0  0  0  0  0  0  0  0  0
    0.8806    1.5093    1.2382 H   0  0  0  0  0  0  0  0  0  0  0  0
   -1.0971    0.4378    1.8484 H   0  0  0  0  0  0  0  0  0  0  0  0
   -0.4639   -1.1958    1.4922 H   0  0  0  0  0  0  0  0  0  0  0  0
    4.7962   -0.6508   -1.8967 H   0  0  0  0  0  0  0  0  0  0  0  0
    7.0657   -1.3997   -1.4205 H   0  0  0  0  0  0  0  0  0  0  0  0
    6.9146    0.6920    2.2684 H   0  0  0  0  0  0  0  0  0  0  0  0
    4.5617    1.4470    1.7523 H   0  0  0  0  0  0  0  0  0  0  0  0
   -3.1600    1.1232    1.3545 H   0  0  0  0  0  0  0  0  0  0  0  0
   -3.8163    2.6385   -0.8705 H   0  0  0  0  0  0  0  0  0  0  0  0
   -4.7487    1.1844   -1.2655 H   0  0  0  0  0  0  0  0  0  0  0  0
   -5.0782    2.1164    0.2469 H   0  0  0  0  0  0  0  0  0  0  0  0
  1  2  1  0
  2  3  2  3
  2  4  1  0
  4  5  2  0
  5  6  1  0
  6  7  1  0
  7  8  1  0
  8  9  1  0
  9 10  1  0
 10 11  1  0
  9 12  1  0
 12 13  2  0
 12 14  2  0
 12 15  1  0
 15 16  2  0
 16 17  1  0
 17 18  2  0
 18 19  1  0
 18 20  1  0
 20 21  2  0
  6 22  1  0
 22 23  2  0
 22 24  1  0
 24 25  1  0
 24  4  1  0
 11  6  1  0
 21 15  1  0
  1 26  1  0
  1 27  1  0
  1 28  1  0
  3 29  1  0
  3 30  1  0
  5 31  1  0
  7 32  1  0
  7 33  1  0
  8 34  1  0
  8 35  1  0
 10 36  1  0
 10 37  1  0
 11 38  1  0
 11 39  1  0
 16 40  1  0
 17 41  1  0
 20 42  1  0
 21 43  1  0
 24 44  1  0
 25 45  1  0
 25 46  1  0
 25 47  1  0
M  END
$$$$
[H]OC1(C(=O)N([H])C([H])([H])C([H])([H])OC([H])([H])[H])C([H])([H])C([H])([H])N(C(=O)c2c([H])c(-c3c([H])c([H])c([H])c([H])c3[H])nc3c([H])c([H])c([H])c([H])c23)C([H])([H])C1([H])[H]
     RDKit          3D

 59 62  0  0  0  0  0  0  0  0999 V2000
    7.6565   -0.5425    1.4975 C   0  0  0  0  0  0  0  0  0  0  0  0
    6.7075    0.2149    0.8164 O   0  0  0  0  0  0  0  0  0  0  0  0
    7.0035    0.3059   -0.5272 C   0  0  0  0  0  0  0  0  0  0  0  0
    6.0366    1.1042   -1.3479 C   0  0  0  0  0  0  0  0  0  0  0  0
    4.7056    0.6033   -1.3434 N   0  0  0  0  0  0  0  0  0  0  0  0
    3.8139    0.4666   -0.2783 C   0  0  0  0  0  0  0  0  0  0  0  0
    4.0226    0.7779    0.9187 O   0  0  0  0  0  0  0  0  0  0  0  0
    2.4326   -0.1094   -0.5147 C   0  0  0  0  0  0  0  0  0  0  0  0
    2.3009   -0.4200   -1.8677 O   0  0  0  0  0  0  0  0  0  0  0  0
    1.4540    0.9558   -0.0767 C   0  0  0  0  0  0  0  0  0  0  0  0
    0.0582    0.3695   -0.0971 C   0  0  0  0  0  0  0  0  0  0  0  0
    0.0683   -0.7920    0.7521 N   0  0  0  0  0  0  0  0  0  0  0  0
    1.3017   -1.2029    1.3615 C   0  0  0  0  0  0  0  0  0  0  0  0
    2.3383   -1.3721    0.2771 C   0  0  0  0  0  0  0  0  0  0  0  0
   -1.1286   -1.5061    0.9722 C   0  0  0  0  0  0  0  0  0  0  0  0
   -1.1655   -2.5290    1.7112 O   0  0  0  0  0  0  0  0  0  0  0  0
   -2.3523   -1.0528    0.3314 C   0  0  0  0  0  0  0  0  0  0  0  0
   -3.1586   -0.1245    0.9941 C   0  0  0  0  0  0  0  0  0  0  0  0
   -4.3311    0.3643    0.4679 C   0  0  0  0  0  0  0  0  0  0  0  0
   -4.6844   -0.1091   -0.7646 N   0  0  0  0  0  0  0  0  0  0  0  0
   -3.9312   -1.0012   -1.4266 C   0  0  0  0  0  0  0  0  0  0  0  0
   -4.2917   -1.4817   -2.6771 C   0  0  0  0  0  0  0  0  0  0  0  0
   -3.5472   -2.3965   -3.3861 C   0  0  0  0  0  0  0  0  0  0  0  0
   -2.3756   -2.8782   -2.8484 C   0  0  0  0  0  0  0  0  0  0  0  0
   -1.9846   -2.4158   -1.5935 C   0  0  0  0  0  0  0  0  0  0  0  0
   -2.7528   -1.4984   -0.9079 C   0  0  0  0  0  0  0  0  0  0  0  0
   -5.1847    1.3342    1.1471 C   0  0  0  0  0  0  0  0  0  0  0  0
   -6.3472    1.7617    0.5258 C   0  0  0  0  0  0  0  0  0  0  0  0
   -7.1742    2.6762    1.1405 C   0  0  0  0  0  0  0  0  0  0  0  0
   -6.8740    3.1909    2.3829 C   0  0  0  0  0  0  0  0  0  0  0  0
   -5.7263    2.7764    3.0091 C   0  0  0  0  0  0  0  0  0  0  0  0
   -4.9134    1.8630    2.3800 C   0  0  0  0  0  0  0  0  0  0  0  0
    8.6746   -0.1105    1.4192 H   0  0  0  0  0  0  0  0  0  0  0  0
    7.3094   -0.5786    2.5626 H   0  0  0  0  0  0  0  0  0  0  0  0
    7.6496   -1.5534    1.0279 H   0  0  0  0  0  0  0  0  0  0  0  0
    8.0215    0.7826   -0.6183 H   0  0  0  0  0  0  0  0  0  0  0  0
    7.1102   -0.7143   -0.9863 H   0  0  0  0  0  0  0  0  0  0  0  0
    6.4238    1.1487   -2.4129 H   0  0  0  0  0  0  0  0  0  0  0  0
    6.0633    2.1799   -1.0183 H   0  0  0  0  0  0  0  0  0  0  0  0
    4.3148    0.2763   -2.2987 H   0  0  0  0  0  0  0  0  0  0  0  0
    2.2307    0.4187   -2.4082 H   0  0  0  0  0  0  0  0  0  0  0  0
    1.7499    1.2953    0.9234 H   0  0  0  0  0  0  0  0  0  0  0  0
    1.5402    1.8046   -0.7606 H   0  0  0  0  0  0  0  0  0  0  0  0
   -0.1878    0.1173   -1.1287 H   0  0  0  0  0  0  0  0  0  0  0  0
   -0.6641    1.1466    0.2417 H   0  0  0  0  0  0  0  0  0  0  0  0
    1.6683   -0.4541    2.1151 H   0  0  0  0  0  0  0  0  0  0  0  0
    1.1705   -2.1679    1.9098 H   0  0  0  0  0  0  0  0  0  0  0  0
    3.2954   -1.6276    0.7983 H   0  0  0  0  0  0  0  0  0  0  0  0
    2.0474   -2.2603   -0.3112 H   0  0  0  0  0  0  0  0  0  0  0  0
   -2.8418    0.2223    1.9650 H   0  0  0  0  0  0  0  0  0  0  0  0
   -5.2086   -1.1067   -3.1013 H   0  0  0  0  0  0  0  0  0  0  0  0
   -3.8687   -2.7534   -4.3779 H   0  0  0  0  0  0  0  0  0  0  0  0
   -1.7910   -3.5949   -3.4021 H   0  0  0  0  0  0  0  0  0  0  0  0
   -1.0602   -2.7962   -1.1698 H   0  0  0  0  0  0  0  0  0  0  0  0
   -6.5950    1.3682   -0.4453 H   0  0  0  0  0  0  0  0  0  0  0  0
   -8.0850    3.0242    0.6763 H   0  0  0  0  0  0  0  0  0  0  0  0
   -7.4898    3.9065    2.9007 H   0  0  0  0  0  0  0  0  0  0  0  0
   -5.4365    3.1402    3.9783 H   0  0  0  0  0  0  0  0  0  0  0  0
   -4.0178    1.5536    2.8931 H   0  0  0  0  0  0  0  0  0  0  0  0
  1  2  1  0
  2  3  1  0
  3  4  1  0
  4  5  1  0
  5  6  1  0
  6  7  2  0
  6  8  1  0
  8  9  1  0
  8 10  1  0
 10 11  1  0
 11 12  1  0
 12 13  1  0
 13 14  1  0
 12 15  1  0
 15 16  2  0
 15 17  1  0
 17 18  2  0
 18 19  1  0
 19 20  2  0
 20 21  1  0
 21 22  2  0
 22 23  1  0
 23 24  2  0
 24 25  1  0
 25 26  2  0
 19 27  1  0
 27 28  2  0
 28 29  1  0
 29 30  2  0
 30 31  1  0
 31 32  2  0
 14  8  1  0
 26 17  1  0
 32 27  1  0
 26 21  1  0
  1 33  1  0
  1 34  1  0
  1 35  1  0
  3 36  1  0
  3 37  1  0
  4 38  1  0
  4 39  1  0
  5 40  1  0
  9 41  1  0
 10 42  1  0
 10 43  1  0
 11 44  1  0
 11 45  1  0
 13 46  1  0
 13 47  1  0
 14 48  1  0
 14 49  1  0
 18 50  1  0
 22 51  1  0
 23 52  1  0
 24 53  1  0
 25 54  1  0
 28 55  1  0
 29 56  1  0
 30 57  1  0
 31 58  1  0
 32 59  1  0
M  END
$$$$
[H]c1nc2c([H])c([H])c(C(=O)N([H])c3c([H])c([H])c(-c4c([H])nc5c([H])c([H])c(C#N)c([H])n45)c([H])c3[H])c([H])c2nc1[H]
     RDKit          3D

 44 48  0  0  0  0  0  0  0  0999 V2000
    1.7795    2.1575   -0.4894 O   0  0  0  0  0  0  0  0  0  0  0  0
    2.3403    1.0529   -0.2399 C   0  0  0  0  0  0  0  0  0  0  0  0
    1.6531   -0.1363    0.1108 N   0  0  0  0  0  0  0  0  0  0  0  0
    0.2571   -0.3046    0.2492 C   0  0  0  0  0  0  0  0  0  0  0  0
   -0.6743    0.6953    0.2202 C   0  0  0  0  0  0  0  0  0  0  0  0
   -2.0561    0.4329    0.3548 C   0  0  0  0  0  0  0  0  0  0  0  0
   -2.5379   -0.8229    0.5188 C   0  0  0  0  0  0  0  0  0  0  0  0
   -1.6009   -1.8515    0.5515 C   0  0  0  0  0  0  0  0  0  0  0  0
   -0.2610   -1.5851    0.4204 C   0  0  0  0  0  0  0  0  0  0  0  0
   -3.9364   -1.2020    0.6001 C   0  0  0  0  0  0  0  0  0  0  0  0
   -4.3568   -2.4751    1.0418 C   0  0  0  0  0  0  0  0  0  0  0  0
   -5.6693   -2.5100    0.9629 N   0  0  0  0  0  0  0  0  0  0  0  0
   -6.1282   -1.3388    0.4961 C   0  0  0  0  0  0  0  0  0  0  0  0
   -7.4434   -0.9439    0.2421 C   0  0  0  0  0  0  0  0  0  0  0  0
   -7.6940    0.3122   -0.2604 C   0  0  0  0  0  0  0  0  0  0  0  0
   -6.5982    1.0985   -0.4785 C   0  0  0  0  0  0  0  0  0  0  0  0
   -5.2946    0.6858   -0.2180 C   0  0  0  0  0  0  0  0  0  0  0  0
   -5.0591   -0.5371    0.2731 N   0  0  0  0  0  0  0  0  0  0  0  0
   -6.8062    2.4223   -1.0051 C   0  0  0  0  0  0  0  0  0  0  0  0
   -6.9935    3.4977   -1.4283 N   0  0  0  0  0  0  0  0  0  0  0  0
    3.7987    0.9962   -0.3191 C   0  0  0  0  0  0  0  0  0  0  0  0
    4.4348    1.9480   -1.0801 C   0  0  0  0  0  0  0  0  0  0  0  0
    5.8245    1.9304   -1.1716 C   0  0  0  0  0  0  0  0  0  0  0  0
    6.5307    0.9552   -0.4939 C   0  0  0  0  0  0  0  0  0  0  0  0
    7.8867    0.8961   -0.5518 N   0  0  0  0  0  0  0  0  0  0  0  0
    8.5886   -0.0471    0.1022 C   0  0  0  0  0  0  0  0  0  0  0  0
    7.9507   -0.9990    0.8636 C   0  0  0  0  0  0  0  0  0  0  0  0
    6.6070   -0.9543    0.9313 N   0  0  0  0  0  0  0  0  0  0  0  0
    5.9128   -0.0094    0.2756 C   0  0  0  0  0  0  0  0  0  0  0  0
    4.5150    0.0411    0.3431 C   0  0  0  0  0  0  0  0  0  0  0  0
    2.2471   -1.0150    0.2921 H   0  0  0  0  0  0  0  0  0  0  0  0
   -0.3889    1.7211    0.0993 H   0  0  0  0  0  0  0  0  0  0  0  0
   -2.6616    1.3072    0.3526 H   0  0  0  0  0  0  0  0  0  0  0  0
   -1.9153   -2.8910    0.6793 H   0  0  0  0  0  0  0  0  0  0  0  0
    0.4469   -2.4100    0.4493 H   0  0  0  0  0  0  0  0  0  0  0  0
   -3.7420   -3.2833    1.3861 H   0  0  0  0  0  0  0  0  0  0  0  0
   -8.2628   -1.6175    0.4376 H   0  0  0  0  0  0  0  0  0  0  0  0
   -8.7097    0.6047   -0.4513 H   0  0  0  0  0  0  0  0  0  0  0  0
   -4.4937    1.3580   -0.4431 H   0  0  0  0  0  0  0  0  0  0  0  0
    3.9043    2.7230   -1.6210 H   0  0  0  0  0  0  0  0  0  0  0  0
    6.3185    2.6755   -1.7671 H   0  0  0  0  0  0  0  0  0  0  0  0
    9.6749   -0.0881    0.0510 H   0  0  0  0  0  0  0  0  0  0  0  0
    8.5312   -1.7587    1.3892 H   0  0  0  0  0  0  0  0  0  0  0  0
    4.0813   -0.7309    0.9615 H   0  0  0  0  0  0  0  0  0  0  0  0
  1  2  2  0
  2  3  1  0
  3  4  1  0
  4  5  2  0
  5  6  1  0
  6  7  2  0
  7  8  1  0
  8  9  2  0
  7 10  1  0
 10 11  2  0
 11 12  1  0
 12 13  2  0
 13 14  1  0
 14 15  2  0
 15 16  1  0
 16 17  2  0
 17 18  1  0
 16 19  1  0
 19 20  3  0
  2 21  1  0
 21 22  2  0
 22 23  1  0
 23 24  2  0
 24 25  1  0
 25 26  2  0
 26 27  1  0
 27 28  2  0
 28 29  1  0
 29 30  2  0
  9  4  1  0
 18 10  1  0
 30 21  1  0
 18 13  1  0
 29 24  1  0
  3 31  1  0
  5 32  1  0
  6 33  1  0
  8 34  1  0
  9 35  1  0
 11 36  1  0
 14 37  1  0
 15 38  1  0
 17 39  1  0
 22 40  1  0
 23 41  1  0
 26 42  1  0
 27 43  1  0
 30 44  1  0
M  END
$$$$
[H]Oc1c([H])c([H])c(C([H])([H])[H])c([H])c1-c1c([H])c(C(=O)N([H])c2nc(C([H])([H])[H])nc([H])c2[H])c([H])c(OC([H])([H])C([H])(C([H])([H])O[H])C([H])([H])OC([H])([H])[H])c1OC([H])([H])[H]
     RDKit          3D

 63 65  0  0  0  0  0  0  0  0999 V2000
   -4.8612   -3.0150    1.7416 C   0  0  0  0  0  0  0  0  0  0  0  0
   -4.1865   -2.9306    0.5318 O   0  0  0  0  0  0  0  0  0  0  0  0
   -2.8154   -2.8758    0.7776 C   0  0  0  0  0  0  0  0  0  0  0  0
   -2.0095   -2.7816   -0.5079 C   0  0  0  0  0  0  0  0  0  0  0  0
   -2.2713   -3.9949   -1.3900 C   0  0  0  0  0  0  0  0  0  0  0  0
   -1.9206   -5.1854   -0.7567 O   0  0  0  0  0  0  0  0  0  0  0  0
   -2.4093   -1.5833   -1.3253 C   0  0  0  0  0  0  0  0  0  0  0  0
   -2.2802   -0.3546   -0.7787 O   0  0  0  0  0  0  0  0  0  0  0  0
   -1.1853    0.3334   -0.3862 C   0  0  0  0  0  0  0  0  0  0  0  0
    0.0863   -0.1590   -0.5583 C   0  0  0  0  0  0  0  0  0  0  0  0
    1.1963    0.5322   -0.1566 C   0  0  0  0  0  0  0  0  0  0  0  0
    1.0511    1.7599    0.4380 C   0  0  0  0  0  0  0  0  0  0  0  0
   -0.2321    2.2977    0.6305 C   0  0  0  0  0  0  0  0  0  0  0  0
   -1.3349    1.6058    0.2301 C   0  0  0  0  0  0  0  0  0  0  0  0
   -2.6128    2.0447    0.3834 O   0  0  0  0  0  0  0  0  0  0  0  0
   -3.4355    2.7412   -0.4966 C   0  0  0  0  0  0  0  0  0  0  0  0
   -0.2191    3.6147    1.2566 C   0  0  0  0  0  0  0  0  0  0  0  0
   -0.7655    4.7540    0.7501 C   0  0  0  0  0  0  0  0  0  0  0  0
   -0.6881    5.9836    1.3692 C   0  0  0  0  0  0  0  0  0  0  0  0
   -1.3049    7.2068    0.7794 C   0  0  0  0  0  0  0  0  0  0  0  0
   -0.0152    6.0515    2.5696 C   0  0  0  0  0  0  0  0  0  0  0  0
    0.5450    4.9112    3.0976 C   0  0  0  0  0  0  0  0  0  0  0  0
    0.4698    3.6851    2.4847 C   0  0  0  0  0  0  0  0  0  0  0  0
    1.0427    2.5480    3.0373 O   0  0  0  0  0  0  0  0  0  0  0  0
    2.5471   -0.0463   -0.3631 C   0  0  0  0  0  0  0  0  0  0  0  0
    3.5181    0.7591   -0.3199 O   0  0  0  0  0  0  0  0  0  0  0  0
    2.7671   -1.4085   -0.5943 N   0  0  0  0  0  0  0  0  0  0  0  0
    4.0073   -2.0301   -0.7966 C   0  0  0  0  0  0  0  0  0  0  0  0
    5.2355   -1.4557   -0.8006 C   0  0  0  0  0  0  0  0  0  0  0  0
    6.4241   -2.1877   -1.0217 C   0  0  0  0  0  0  0  0  0  0  0  0
    6.2727   -3.5026   -1.2311 N   0  0  0  0  0  0  0  0  0  0  0  0
    5.0721   -4.0936   -1.2324 C   0  0  0  0  0  0  0  0  0  0  0  0
    5.0332   -5.5714   -1.4808 C   0  0  0  0  0  0  0  0  0  0  0  0
    3.9608   -3.3893   -1.0220 N   0  0  0  0  0  0  0  0  0  0  0  0
   -4.5173   -3.9502    2.2628 H   0  0  0  0  0  0  0  0  0  0  0  0
   -4.5881   -2.1847    2.4225 H   0  0  0  0  0  0  0  0  0  0  0  0
   -5.9491   -3.0922    1.5545 H   0  0  0  0  0  0  0  0  0  0  0  0
   -2.5579   -1.9811    1.3796 H   0  0  0  0  0  0  0  0  0  0  0  0
   -2.4862   -3.7763    1.3437 H   0  0  0  0  0  0  0  0  0  0  0  0
   -0.9616   -2.7900   -0.2383 H   0  0  0  0  0  0  0  0  0  0  0  0
   -1.6685   -3.8923   -2.3137 H   0  0  0  0  0  0  0  0  0  0  0  0
   -3.3346   -4.0423   -1.7009 H   0  0  0  0  0  0  0  0  0  0  0  0
   -1.0080   -5.0891   -0.4214 H   0  0  0  0  0  0  0  0  0  0  0  0
   -3.5010   -1.7497   -1.5651 H   0  0  0  0  0  0  0  0  0  0  0  0
   -1.8148   -1.7001   -2.2883 H   0  0  0  0  0  0  0  0  0  0  0  0
    0.2493   -1.1122   -1.0559 H   0  0  0  0  0  0  0  0  0  0  0  0
    1.9418    2.3222    0.7620 H   0  0  0  0  0  0  0  0  0  0  0  0
   -4.3632    2.1198   -0.6631 H   0  0  0  0  0  0  0  0  0  0  0  0
   -3.8058    3.7099   -0.1089 H   0  0  0  0  0  0  0  0  0  0  0  0
   -2.9678    2.8404   -1.5028 H   0  0  0  0  0  0  0  0  0  0  0  0
   -1.2685    4.7346   -0.1952 H   0  0  0  0  0  0  0  0  0  0  0  0
   -2.1815    6.9922    0.1555 H   0  0  0  0  0  0  0  0  0  0  0  0
   -0.5667    7.7973    0.2013 H   0  0  0  0  0  0  0  0  0  0  0  0
   -1.6416    7.8620    1.6106 H   0  0  0  0  0  0  0  0  0  0  0  0
    0.0484    7.0173    3.0603 H   0  0  0  0  0  0  0  0  0  0  0  0
    1.0747    4.9982    4.0544 H   0  0  0  0  0  0  0  0  0  0  0  0
    1.5258    2.6501    3.9204 H   0  0  0  0  0  0  0  0  0  0  0  0
    1.8815   -2.0472   -0.6171 H   0  0  0  0  0  0  0  0  0  0  0  0
    5.3491   -0.4004   -0.6307 H   0  0  0  0  0  0  0  0  0  0  0  0
    7.3684   -1.6657   -1.0109 H   0  0  0  0  0  0  0  0  0  0  0  0
    4.1248   -5.8277   -2.0729 H   0  0  0  0  0  0  0  0  0  0  0  0
    5.0073   -6.1551   -0.5489 H   0  0  0  0  0  0  0  0  0  0  0  0
    5.9293   -5.8515   -2.0967 H   0  0  0  0  0  0  0  0  0  0  0  0
  1  2  1  0
  2  3  1  0
  3  4  1  0
  4  5  1  0
  5  6  1  0
  4  7  1  0
  7  8  1  0
  8  9  1  0
  9 10  2  0
 10 11  1  0
 11 12  2  0
 12 13  1  0
 13 14  2  0
 14 15  1  0
 15 16  1  0
 13 17  1  0
 17 18  2  0
 18 19  1  0
 19 20  1  0
 19 21  2  0
 21 22  1  0
 22 23  2  0
 23 24  1  0
 11 25  1  0
 25 26  2  0
 25 27  1  0
 27 28  1  0
 28 29  2  0
 29 30  1  0
 30 31  2  0
 31 32  1  0
 32 33  1  0
 32 34  2  0
 14  9  1  0
 23 17  1  0
 34 28  1  0
  1 35  1  0
  1 36  1  0
  1 37  1  0
  3 38  1  0
  3 39  1  0
  4 40  1  0
  5 41  1  0
  5 42  1  0
  6 43  1  0
  7 44  1  0
  7 45  1  0
 10 46  1  0
 12 47  1  0
 16 48  1  0
 16 49  1  0
 16 50  1  0
 18 51  1  0
 20 52  1  0
 20 53  1  0
 20 54  1  0
 21 55  1  0
 22 56  1  0
 24 57  1  0
 27 58  1  0
 29 59  1  0
 30 60  1  0
 33 61  1  0
 33 62  1  0
 33 63  1  0
M  END
$$$$
[H]c1nn(-c2c([H])c([H])c3c([C@@]([H])(N4C([H])([H])c5c(C(F)(F)F)nc(C(C#N)(C([H])([H])[H])C([H])([H])[H])n5C([H])([H])C([H])([H])C4([H])[H])C([H])([H])[H])nc([H])c([H])c3c2[H])c([H])c1[H]
     RDKit          3D

 62 66  0  0  0  0  0  0  0  0999 V2000
    0.2052    1.3737   -0.1177 C   0  0  0  0  0  0  0  0  0  0  0  0
    0.6866    0.1886   -0.8605 C   0  0  2  0  0  0  0  0  0  0  0  0
   -0.6785   -0.5735   -1.0037 N   0  0  0  0  0  0  0  0  0  0  0  0
   -1.3949    0.2043   -1.9076 C   0  0  0  0  0  0  0  0  0  0  0  0
   -2.8380    0.2625   -2.0259 C   0  0  0  0  0  0  0  0  0  0  0  0
   -3.6709   -0.7474   -1.2724 C   0  0  0  0  0  0  0  0  0  0  0  0
   -3.5683   -0.3301    0.1196 N   0  0  0  0  0  0  0  0  0  0  0  0
   -4.5595    0.1059    0.8923 C   0  0  0  0  0  0  0  0  0  0  0  0
   -4.0041    0.3733    2.0792 N   0  0  0  0  0  0  0  0  0  0  0  0
   -2.6848    0.1123    2.0572 C   0  0  0  0  0  0  0  0  0  0  0  0
   -2.4113   -0.3397    0.7981 C   0  0  0  0  0  0  0  0  0  0  0  0
   -1.1065   -0.7735    0.3183 C   0  0  0  0  0  0  0  0  0  0  0  0
   -1.8108    0.3288    3.2129 C   0  0  0  0  0  0  0  0  0  0  0  0
   -1.1257   -0.8226    3.5664 F   0  0  0  0  0  0  0  0  0  0  0  0
   -1.0318    1.4573    3.1852 F   0  0  0  0  0  0  0  0  0  0  0  0
   -2.6325    0.5504    4.3672 F   0  0  0  0  0  0  0  0  0  0  0  0
   -5.9901    0.2616    0.5415 C   0  0  0  0  0  0  0  0  0  0  0  0
   -6.2444    1.1636   -0.6275 C   0  0  0  0  0  0  0  0  0  0  0  0
   -6.6600   -1.1065    0.3850 C   0  0  0  0  0  0  0  0  0  0  0  0
   -6.6857    0.8847    1.7010 C   0  0  0  0  0  0  0  0  0  0  0  0
   -7.2417    1.3729    2.5931 N   0  0  0  0  0  0  0  0  0  0  0  0
    1.5757   -0.7768   -0.2488 C   0  0  0  0  0  0  0  0  0  0  0  0
    1.2423   -1.9845    0.2263 N   0  0  0  0  0  0  0  0  0  0  0  0
    2.0829   -2.9363    0.6488 C   0  0  0  0  0  0  0  0  0  0  0  0
    3.4569   -2.7306    0.6261 C   0  0  0  0  0  0  0  0  0  0  0  0
    3.8711   -1.4877    0.1460 C   0  0  0  0  0  0  0  0  0  0  0  0
    5.2286   -1.1534    0.2000 C   0  0  0  0  0  0  0  0  0  0  0  0
    5.6850    0.0868   -0.1549 C   0  0  0  0  0  0  0  0  0  0  0  0
    4.7462    1.0304   -0.5899 C   0  0  0  0  0  0  0  0  0  0  0  0
    3.4037    0.7193   -0.6502 C   0  0  0  0  0  0  0  0  0  0  0  0
    2.9600   -0.5474   -0.2761 C   0  0  0  0  0  0  0  0  0  0  0  0
    7.0130    0.5521   -0.0077 N   0  0  0  0  0  0  0  0  0  0  0  0
    8.1058    0.4031   -0.7283 C   0  0  0  0  0  0  0  0  0  0  0  0
    9.1695    1.0830   -0.1204 C   0  0  0  0  0  0  0  0  0  0  0  0
    8.6444    1.6487    1.0120 C   0  0  0  0  0  0  0  0  0  0  0  0
    7.3357    1.3184    1.0645 N   0  0  0  0  0  0  0  0  0  0  0  0
    0.5005    2.3478   -0.6612 H   0  0  0  0  0  0  0  0  0  0  0  0
    0.6948    1.3764    0.8818 H   0  0  0  0  0  0  0  0  0  0  0  0
   -0.8740    1.5143    0.0075 H   0  0  0  0  0  0  0  0  0  0  0  0
    0.9420    0.4372   -1.8978 H   0  0  0  0  0  0  0  0  0  0  0  0
   -0.9970    1.2444   -1.9218 H   0  0  0  0  0  0  0  0  0  0  0  0
   -1.0206   -0.1574   -2.9435 H   0  0  0  0  0  0  0  0  0  0  0  0
   -3.1854    0.2447   -3.0641 H   0  0  0  0  0  0  0  0  0  0  0  0
   -3.1973    1.2680   -1.6298 H   0  0  0  0  0  0  0  0  0  0  0  0
   -3.1796   -1.7527   -1.3398 H   0  0  0  0  0  0  0  0  0  0  0  0
   -4.6866   -0.8383   -1.6306 H   0  0  0  0  0  0  0  0  0  0  0  0
   -0.3631   -0.4031    1.0434 H   0  0  0  0  0  0  0  0  0  0  0  0
   -1.1368   -1.9049    0.4852 H   0  0  0  0  0  0  0  0  0  0  0  0
   -6.6161    0.5818   -1.5263 H   0  0  0  0  0  0  0  0  0  0  0  0
   -5.3948    1.8223   -0.8898 H   0  0  0  0  0  0  0  0  0  0  0  0
   -7.0914    1.8889   -0.4330 H   0  0  0  0  0  0  0  0  0  0  0  0
   -7.1847   -1.4152    1.3140 H   0  0  0  0  0  0  0  0  0  0  0  0
   -7.4304   -0.9828   -0.3946 H   0  0  0  0  0  0  0  0  0  0  0  0
   -5.9141   -1.8913    0.1839 H   0  0  0  0  0  0  0  0  0  0  0  0
    1.7437   -3.9129    1.0281 H   0  0  0  0  0  0  0  0  0  0  0  0
    4.1848   -3.4479    0.9453 H   0  0  0  0  0  0  0  0  0  0  0  0
    5.9358   -1.9200    0.5338 H   0  0  0  0  0  0  0  0  0  0  0  0
    5.0417    2.0248   -0.8881 H   0  0  0  0  0  0  0  0  0  0  0  0
    2.6655    1.4388   -0.9826 H   0  0  0  0  0  0  0  0  0  0  0  0
    8.1803   -0.1519   -1.6485 H   0  0  0  0  0  0  0  0  0  0  0  0
   10.1829    1.1585   -0.4464 H   0  0  0  0  0  0  0  0  0  0  0  0
    9.1270    2.2591    1.7670 H   0  0  0  0  0  0  0  0  0  0  0  0
  1  2  1  0
  2  3  1  0
  3  4  1  0
  4  5  1  0
  5  6  1  0
  6  7  1  0
  7  8  1  0
  8  9  2  0
  9 10  1  0
 10 11  2  0
 11 12  1  0
 10 13  1  0
 13 14  1  0
 13 15  1  0
 13 16  1  0
  8 17  1  0
 17 18  1  0
 17 19  1  0
 17 20  1  0
 20 21  3  0
  2 22  1  0
 22 23  2  0
 23 24  1  0
 24 25  2  0
 25 26  1  0
 26 27  2  0
 27 28  1  0
 28 29  2  0
 29 30  1  0
 30 31  2  0
 28 32  1  0
 32 33  1  0
 33 34  2  0
 34 35  1  0
 35 36  2  0
 12  3  1  0
 31 22  1  0
 36 32  1  0
 11  7  1  0
 31 26  1  0
  1 37  1  0
  1 38  1  0
  1 39  1  0
  2 40  1  6
  4 41  1  0
  4 42  1  0
  5 43  1  0
  5 44  1  0
  6 45  1  0
  6 46  1  0
 12 47  1  0
 12 48  1  0
 18 49  1  0
 18 50  1  0
 18 51  1  0
 19 52  1  0
 19 53  1  0
 19 54  1  0
 24 55  1  0
 25 56  1  0
 27 57  1  0
 29 58  1  0
 30 59  1  0
 33 60  1  0
 34 61  1  0
 35 62  1  0
M  END
$$$$
[H]OC1([H])C([H])([H])C([H])([H])N(C([H])([H])C([H])([H])N(C2([H])C([H])([H])C([H])([H])C([H])([H])C2([H])[H])S(=O)(=O)c2c([H])c([H])c3c(c2[H])OC([H])(C([H])([H])[H])C(=O)N3[H])C([H])([H])C([H])([H])C1([H])[H]
     RDKit          3D

 64 67  0  0  0  0  0  0  0  0999 V2000
   -6.5899    3.2990   -1.4231 C   0  0  0  0  0  0  0  0  0  0  0  0
   -6.2852    1.8430   -1.5659 C   0  0  0  0  0  0  0  0  0  0  0  0
   -6.6871    1.0232   -0.3751 C   0  0  0  0  0  0  0  0  0  0  0  0
   -7.7493    0.4197   -0.2410 O   0  0  0  0  0  0  0  0  0  0  0  0
   -5.6863    0.9799    0.6769 N   0  0  0  0  0  0  0  0  0  0  0  0
   -4.3426    1.2611    0.3218 C   0  0  0  0  0  0  0  0  0  0  0  0
   -3.3682    1.2151    1.3036 C   0  0  0  0  0  0  0  0  0  0  0  0
   -2.0456    1.4717    1.0441 C   0  0  0  0  0  0  0  0  0  0  0  0
   -1.6083    1.7877   -0.2000 C   0  0  0  0  0  0  0  0  0  0  0  0
   -2.5880    1.8335   -1.1994 C   0  0  0  0  0  0  0  0  0  0  0  0
   -3.9222    1.5775   -0.9620 C   0  0  0  0  0  0  0  0  0  0  0  0
   -4.9117    1.6075   -1.9268 O   0  0  0  0  0  0  0  0  0  0  0  0
    0.0786    2.0997   -0.5995 S   0  0  0  0  0  0  0  0  0  0  0  0
    0.1261    3.2953   -1.5115 O   0  0  0  0  0  0  0  0  0  0  0  0
    0.7174    2.6090    0.6894 O   0  0  0  0  0  0  0  0  0  0  0  0
    0.8756    0.7430   -1.1125 N   0  0  0  0  0  0  0  0  0  0  0  0
    0.9359   -0.3006   -0.1444 C   0  0  0  0  0  0  0  0  0  0  0  0
    2.1331   -0.2631    0.7816 C   0  0  0  0  0  0  0  0  0  0  0  0
    2.0864   -1.2990    1.7189 N   0  0  0  0  0  0  0  0  0  0  0  0
    3.1297   -1.4123    2.6757 C   0  0  0  0  0  0  0  0  0  0  0  0
    2.6549   -2.1086    3.9108 C   0  0  0  0  0  0  0  0  0  0  0  0
    2.3297   -3.5473    3.7772 C   0  0  0  0  0  0  0  0  0  0  0  0
    2.6820   -4.2103    2.4926 C   0  0  0  0  0  0  0  0  0  0  0  0
    4.0552   -4.2741    2.2781 O   0  0  0  0  0  0  0  0  0  0  0  0
    1.9486   -3.6950    1.2871 C   0  0  0  0  0  0  0  0  0  0  0  0
    1.2174   -2.3871    1.6063 C   0  0  0  0  0  0  0  0  0  0  0  0
    1.8664    0.7026   -2.0576 C   0  0  0  0  0  0  0  0  0  0  0  0
    1.2499    1.0708   -3.4294 C   0  0  0  0  0  0  0  0  0  0  0  0
    2.5293    0.8715   -4.2655 C   0  0  0  0  0  0  0  0  0  0  0  0
    3.5432    1.6572   -3.4540 C   0  0  0  0  0  0  0  0  0  0  0  0
    3.0838    1.5188   -2.0197 C   0  0  0  0  0  0  0  0  0  0  0  0
   -5.8955    3.9516   -1.9614 H   0  0  0  0  0  0  0  0  0  0  0  0
   -6.6706    3.5637   -0.3443 H   0  0  0  0  0  0  0  0  0  0  0  0
   -7.6237    3.4485   -1.8571 H   0  0  0  0  0  0  0  0  0  0  0  0
   -6.8537    1.3651   -2.4183 H   0  0  0  0  0  0  0  0  0  0  0  0
   -5.9802    0.7562    1.6453 H   0  0  0  0  0  0  0  0  0  0  0  0
   -3.7148    0.9497    2.3122 H   0  0  0  0  0  0  0  0  0  0  0  0
   -1.3226    1.4264    1.8493 H   0  0  0  0  0  0  0  0  0  0  0  0
   -2.2494    2.0908   -2.2169 H   0  0  0  0  0  0  0  0  0  0  0  0
    1.0327   -1.2785   -0.7196 H   0  0  0  0  0  0  0  0  0  0  0  0
    0.0032   -0.3756    0.4617 H   0  0  0  0  0  0  0  0  0  0  0  0
    3.0929   -0.4057    0.1815 H   0  0  0  0  0  0  0  0  0  0  0  0
    2.2459    0.7476    1.2421 H   0  0  0  0  0  0  0  0  0  0  0  0
    3.3727   -0.3564    3.0051 H   0  0  0  0  0  0  0  0  0  0  0  0
    4.0822   -1.8132    2.3040 H   0  0  0  0  0  0  0  0  0  0  0  0
    3.3652   -1.8865    4.7625 H   0  0  0  0  0  0  0  0  0  0  0  0
    1.7145   -1.5668    4.2318 H   0  0  0  0  0  0  0  0  0  0  0  0
    1.2746   -3.7741    4.0521 H   0  0  0  0  0  0  0  0  0  0  0  0
    2.9387   -4.0814    4.5717 H   0  0  0  0  0  0  0  0  0  0  0  0
    2.3570   -5.2891    2.6007 H   0  0  0  0  0  0  0  0  0  0  0  0
    4.5073   -4.9093    2.8953 H   0  0  0  0  0  0  0  0  0  0  0  0
    2.6150   -3.4783    0.4269 H   0  0  0  0  0  0  0  0  0  0  0  0
    1.1794   -4.3916    0.9007 H   0  0  0  0  0  0  0  0  0  0  0  0
    0.6549   -2.5225    2.5767 H   0  0  0  0  0  0  0  0  0  0  0  0
    0.4474   -2.2600    0.8431 H   0  0  0  0  0  0  0  0  0  0  0  0
    2.2312   -0.3753   -2.2564 H   0  0  0  0  0  0  0  0  0  0  0  0
    1.0904    2.1484   -3.4228 H   0  0  0  0  0  0  0  0  0  0  0  0
    0.4433    0.4233   -3.7254 H   0  0  0  0  0  0  0  0  0  0  0  0
    2.4441    1.2546   -5.2766 H   0  0  0  0  0  0  0  0  0  0  0  0
    2.7455   -0.2035   -4.2679 H   0  0  0  0  0  0  0  0  0  0  0  0
    3.5767    2.7223   -3.7800 H   0  0  0  0  0  0  0  0  0  0  0  0
    4.5186    1.1548   -3.5746 H   0  0  0  0  0  0  0  0  0  0  0  0
    3.9497    1.0162   -1.4834 H   0  0  0  0  0  0  0  0  0  0  0  0
    2.9687    2.5590   -1.6344 H   0  0  0  0  0  0  0  0  0  0  0  0
  1  2  1  0
  2  3  1  0
  3  4  2  0
  3  5  1  0
  5  6  1  0
  6  7  2  0
  7  8  1  0
  8  9  2  0
  9 10  1  0
 10 11  2  0
 11 12  1  0
  9 13  1  0
 13 14  2  0
 13 15  2  0
 13 16  1  0
 16 17  1  0
 17 18  1  0
 18 19  1  0
 19 20  1  0
 20 21  1  0
 21 22  1  0
 22 23  1  0
 23 24  1  0
 23 25  1  0
 25 26  1  0
 16 27  1  0
 27 28  1  0
 28 29  1  0
 29 30  1  0
 30 31  1  0
 12  2  1  0
 26 19  1  0
 31 27  1  0
 11  6  1  0
  1 32  1  0
  1 33  1  0
  1 34  1  0
  2 35  1  0
  5 36  1  0
  7 37  1  0
  8 38  1  0
 10 39  1  0
 17 40  1  0
 17 41  1  0
 18 42  1  0
 18 43  1  0
 20 44  1  0
 20 45  1  0
 21 46  1  0
 21 47  1  0
 22 48  1  0
 22 49  1  0
 23 50  1  0
 24 51  1  0
 25 52  1  0
 25 53  1  0
 26 54  1  0
 26 55  1  0
 27 56  1  0
 28 57  1  0
 28 58  1  0
 29 59  1  0
 29 60  1  0
 30 61  1  0
 30 62  1  0
 31 63  1  0
 31 64  1  0
M  END
$$$$
[H]c1c([H])c(-c2nnnn2[H])c([H])c(C([H])([H])N2[C@@]3([H])C([H])([H])C([H])([H])[C@]2([H])C([H])([H])[C@@]([H])(N=C2C(=O)N([H])C(=O)N2[H])C3([H])[H])c1[H]
     RDKit          3D

 48 52  0  0  0  0  0  0  0  0999 V2000
   -8.0549   -1.3742   -1.9983 O   0  0  0  0  0  0  0  0  0  0  0  0
   -6.9524   -1.1019   -1.4554 C   0  0  0  0  0  0  0  0  0  0  0  0
   -5.6751   -0.9285   -2.0548 N   0  0  0  0  0  0  0  0  0  0  0  0
   -4.7461   -0.6323   -1.0207 C   0  0  0  0  0  0  0  0  0  0  0  0
   -3.5070   -0.4185   -1.2086 N   0  0  0  0  0  0  0  0  0  0  0  0
   -2.5130   -0.1171   -0.2368 C   0  0  1  0  0  0  0  0  0  0  0  0
   -1.8875   -1.3436    0.3856 C   0  0  0  0  0  0  0  0  0  0  0  0
   -0.7500   -0.8548    1.2754 C   0  0  2  0  0  0  0  0  0  0  0  0
   -1.1777    0.3467    2.0869 C   0  0  0  0  0  0  0  0  0  0  0  0
   -0.8653    1.5586    1.2510 C   0  0  0  0  0  0  0  0  0  0  0  0
   -0.2489    0.9352    0.0162 C   0  0  2  0  0  0  0  0  0  0  0  0
   -1.3760    0.6100   -0.9682 C   0  0  0  0  0  0  0  0  0  0  0  0
    0.3334   -0.3112    0.4658 N   0  0  0  0  0  0  0  0  0  0  0  0
    1.4480   -0.1015    1.3356 C   0  0  0  0  0  0  0  0  0  0  0  0
    2.6483    0.4510    0.6615 C   0  0  0  0  0  0  0  0  0  0  0  0
    2.8851    1.8068    0.5779 C   0  0  0  0  0  0  0  0  0  0  0  0
    4.0063    2.3232   -0.0516 C   0  0  0  0  0  0  0  0  0  0  0  0
    4.9140    1.4686   -0.6118 C   0  0  0  0  0  0  0  0  0  0  0  0
    4.7115    0.1109   -0.5482 C   0  0  0  0  0  0  0  0  0  0  0  0
    3.5776   -0.3922    0.0893 C   0  0  0  0  0  0  0  0  0  0  0  0
    5.6773   -0.8056   -1.1444 C   0  0  0  0  0  0  0  0  0  0  0  0
    5.6362   -2.1384   -1.1734 N   0  0  0  0  0  0  0  0  0  0  0  0
    6.7078   -2.5856   -1.8124 N   0  0  0  0  0  0  0  0  0  0  0  0
    7.4275   -1.5422   -2.1882 N   0  0  0  0  0  0  0  0  0  0  0  0
    6.8042   -0.4493   -1.7836 N   0  0  0  0  0  0  0  0  0  0  0  0
   -5.4320   -0.6138    0.2644 C   0  0  0  0  0  0  0  0  0  0  0  0
   -4.9884   -0.3956    1.4210 O   0  0  0  0  0  0  0  0  0  0  0  0
   -6.8025   -0.9089   -0.0349 N   0  0  0  0  0  0  0  0  0  0  0  0
   -5.5167   -1.0172   -3.0806 H   0  0  0  0  0  0  0  0  0  0  0  0
   -2.9286    0.5868    0.4962 H   0  0  0  0  0  0  0  0  0  0  0  0
   -2.5660   -1.9316    1.0004 H   0  0  0  0  0  0  0  0  0  0  0  0
   -1.4527   -1.9399   -0.4398 H   0  0  0  0  0  0  0  0  0  0  0  0
   -0.4098   -1.6269    1.9815 H   0  0  0  0  0  0  0  0  0  0  0  0
   -2.2425    0.2856    2.3920 H   0  0  0  0  0  0  0  0  0  0  0  0
   -0.6022    0.3675    3.0505 H   0  0  0  0  0  0  0  0  0  0  0  0
   -1.7567    2.1735    1.0160 H   0  0  0  0  0  0  0  0  0  0  0  0
   -0.1510    2.2496    1.7616 H   0  0  0  0  0  0  0  0  0  0  0  0
    0.4463    1.6012   -0.4946 H   0  0  0  0  0  0  0  0  0  0  0  0
   -0.9561   -0.1307   -1.6806 H   0  0  0  0  0  0  0  0  0  0  0  0
   -1.7352    1.5172   -1.4678 H   0  0  0  0  0  0  0  0  0  0  0  0
    1.6809   -1.0929    1.8233 H   0  0  0  0  0  0  0  0  0  0  0  0
    1.2329    0.5827    2.1912 H   0  0  0  0  0  0  0  0  0  0  0  0
    2.1585    2.4938    1.0264 H   0  0  0  0  0  0  0  0  0  0  0  0
    4.1471    3.3916   -0.0909 H   0  0  0  0  0  0  0  0  0  0  0  0
    5.8093    1.8260   -1.1167 H   0  0  0  0  0  0  0  0  0  0  0  0
    3.4616   -1.4671    0.1140 H   0  0  0  0  0  0  0  0  0  0  0  0
    7.1390    0.5051   -1.9398 H   0  0  0  0  0  0  0  0  0  0  0  0
   -7.5586   -0.9696    0.6819 H   0  0  0  0  0  0  0  0  0  0  0  0
  1  2  2  0
  2  3  1  0
  3  4  1  0
  4  5  2  3
  5  6  1  0
  6  7  1  0
  7  8  1  0
  8  9  1  0
  9 10  1  0
 10 11  1  0
 11 12  1  0
 11 13  1  0
 13 14  1  0
 14 15  1  0
 15 16  2  0
 16 17  1  0
 17 18  2  0
 18 19  1  0
 19 20  2  0
 19 21  1  0
 21 22  2  0
 22 23  1  0
 23 24  2  0
 24 25  1  0
  4 26  1  0
 26 27  2  0
 26 28  1  0
 28  2  1  0
 12  6  1  0
 20 15  1  0
 25 21  1  0
 13  8  1  0
  3 29  1  0
  6 30  1  1
  7 31  1  0
  7 32  1  0
  8 33  1  1
  9 34  1  0
  9 35  1  0
 10 36  1  0
 10 37  1  0
 11 38  1  6
 12 39  1  0
 12 40  1  0
 14 41  1  0
 14 42  1  0
 16 43  1  0
 17 44  1  0
 18 45  1  0
 20 46  1  0
 25 47  1  0
 28 48  1  0
M  END
$$$$
[H]O[C@@]([H])(/C([H])=C(\[H])[C@]1([H])C(=O)N(C([H])([H])[H])c2c([H])c([H])c([H])c([H])c2[C@]1([H])O[H])C([H])([H])N([H])C(=O)c1c([H])c([H])c(OC([H])([H])[H])c([H])c1[H]
     RDKit          3D

 53 55  0  0  0  0  0  0  0  0999 V2000
    9.5881    0.2218    0.9617 C   0  0  0  0  0  0  0  0  0  0  0  0
    8.8590    1.3909    0.6774 O   0  0  0  0  0  0  0  0  0  0  0  0
    7.4793    1.2867    0.4582 C   0  0  0  0  0  0  0  0  0  0  0  0
    6.7003    2.3805    0.1759 C   0  0  0  0  0  0  0  0  0  0  0  0
    5.3497    2.2743   -0.0382 C   0  0  0  0  0  0  0  0  0  0  0  0
    4.7249    1.0341    0.0265 C   0  0  0  0  0  0  0  0  0  0  0  0
    5.4851   -0.0721    0.3073 C   0  0  0  0  0  0  0  0  0  0  0  0
    6.8425    0.0720    0.5174 C   0  0  0  0  0  0  0  0  0  0  0  0
    3.2896    0.9405   -0.2036 C   0  0  0  0  0  0  0  0  0  0  0  0
    2.6447    1.9959   -0.4605 O   0  0  0  0  0  0  0  0  0  0  0  0
    2.6586   -0.3230   -0.1339 N   0  0  0  0  0  0  0  0  0  0  0  0
    1.2168   -0.3483   -0.3747 C   0  0  0  0  0  0  0  0  0  0  0  0
    0.6763   -1.7630   -0.2685 C   0  0  1  0  0  0  0  0  0  0  0  0
    0.9379   -2.2305    1.0028 O   0  0  0  0  0  0  0  0  0  0  0  0
   -0.8321   -1.7304   -0.4577 C   0  0  0  0  0  0  0  0  0  0  0  0
   -1.5867   -1.0446    0.3812 C   0  0  0  0  0  0  0  0  0  0  0  0
   -3.0276   -0.8694    0.4010 C   0  0  1  0  0  0  0  0  0  0  0  0
   -3.4054    0.6303    0.5179 C   0  0  1  0  0  0  0  0  0  0  0  0
   -3.0127    1.3255   -0.6003 O   0  0  0  0  0  0  0  0  0  0  0  0
   -4.8714    0.7204    0.6435 C   0  0  0  0  0  0  0  0  0  0  0  0
   -5.3817    1.8556    1.2905 C   0  0  0  0  0  0  0  0  0  0  0  0
   -6.7376    2.0276    1.4511 C   0  0  0  0  0  0  0  0  0  0  0  0
   -7.6196    1.0844    0.9774 C   0  0  0  0  0  0  0  0  0  0  0  0
   -7.1393   -0.0187    0.3496 C   0  0  0  0  0  0  0  0  0  0  0  0
   -5.7706   -0.2099    0.1779 C   0  0  0  0  0  0  0  0  0  0  0  0
   -5.2779   -1.3673   -0.4753 N   0  0  0  0  0  0  0  0  0  0  0  0
   -6.1952   -2.3823   -0.9946 C   0  0  0  0  0  0  0  0  0  0  0  0
   -3.8436   -1.4995   -0.6119 C   0  0  0  0  0  0  0  0  0  0  0  0
   -3.5068   -2.1614   -1.6199 O   0  0  0  0  0  0  0  0  0  0  0  0
    9.1186   -0.3427    1.7874 H   0  0  0  0  0  0  0  0  0  0  0  0
   10.6305    0.5377    1.2147 H   0  0  0  0  0  0  0  0  0  0  0  0
    9.6304   -0.4287    0.0512 H   0  0  0  0  0  0  0  0  0  0  0  0
    7.1973    3.3497    0.1267 H   0  0  0  0  0  0  0  0  0  0  0  0
    4.7273    3.1468   -0.2636 H   0  0  0  0  0  0  0  0  0  0  0  0
    5.0525   -1.0741    0.3718 H   0  0  0  0  0  0  0  0  0  0  0  0
    7.4357   -0.8269    0.7413 H   0  0  0  0  0  0  0  0  0  0  0  0
    3.1051   -1.2192    0.0672 H   0  0  0  0  0  0  0  0  0  0  0  0
    1.0526   -0.0349   -1.4360 H   0  0  0  0  0  0  0  0  0  0  0  0
    0.6694    0.3419    0.2943 H   0  0  0  0  0  0  0  0  0  0  0  0
    1.1447   -2.4239   -0.9961 H   0  0  0  0  0  0  0  0  0  0  0  0
    0.8467   -1.4613    1.6386 H   0  0  0  0  0  0  0  0  0  0  0  0
   -1.2707   -2.2694   -1.2747 H   0  0  0  0  0  0  0  0  0  0  0  0
   -0.9632   -0.5407    1.1807 H   0  0  0  0  0  0  0  0  0  0  0  0
   -3.3561   -1.2501    1.4344 H   0  0  0  0  0  0  0  0  0  0  0  0
   -2.9553    1.0359    1.4418 H   0  0  0  0  0  0  0  0  0  0  0  0
   -2.5597    2.1634   -0.3032 H   0  0  0  0  0  0  0  0  0  0  0  0
   -4.7074    2.6006    1.6657 H   0  0  0  0  0  0  0  0  0  0  0  0
   -7.1464    2.9111    1.9552 H   0  0  0  0  0  0  0  0  0  0  0  0
   -8.6937    1.2159    1.1019 H   0  0  0  0  0  0  0  0  0  0  0  0
   -7.8091   -0.7767   -0.0330 H   0  0  0  0  0  0  0  0  0  0  0  0
   -6.8875   -2.6100   -0.1316 H   0  0  0  0  0  0  0  0  0  0  0  0
   -5.6564   -3.2877   -1.2724 H   0  0  0  0  0  0  0  0  0  0  0  0
   -6.8500   -1.9771   -1.7888 H   0  0  0  0  0  0  0  0  0  0  0  0
  1  2  1  0
  2  3  1  0
  3  4  2  0
  4  5  1  0
  5  6  2  0
  6  7  1  0
  7  8  2  0
  6  9  1  0
  9 10  2  0
  9 11  1  0
 11 12  1  0
 12 13  1  0
 13 14  1  0
 13 15  1  0
 15 16  2  0
 16 17  1  0
 17 18  1  0
 18 19  1  0
 18 20  1  0
 20 21  2  0
 21 22  1  0
 22 23  2  0
 23 24  1  0
 24 25  2  0
 25 26  1  0
 26 27  1  0
 26 28  1  0
 28 29  2  0
  8  3  1  0
 28 17  1  0
 25 20  1  0
  1 30  1  0
  1 31  1  0
  1 32  1  0
  4 33  1  0
  5 34  1  0
  7 35  1  0
  8 36  1  0
 11 37  1  0
 12 38  1  0
 12 39  1  0
 13 40  1  6
 14 41  1  0
 15 42  1  0
 16 43  1  0
 17 44  1  1
 18 45  1  1
 19 46  1  0
 21 47  1  0
 22 48  1  0
 23 49  1  0
 24 50  1  0
 27 51  1  0
 27 52  1  0
 27 53  1  0
M  END
$$$$
[H]c1c([H])c([H])c2c(C([H])([H])C(=O)N([H])C3([H])C([H])([H])C([H])([H])C([H])(C(=O)N([H])C([H])(C(=O)N([H])C([H])([H])C(=O)N([H])C([H])([H])C(=O)OC([H])([H])C([H])([H])[H])C(=O)N4C([H])([H])C([H])([H])C([H])(C([H])(C([H])([H])[H])C([H])([H])[H])C([H])([H])C4([H])[H])C([H])([H])C3([H])[H])c([H])c([H])c([H])c2c1[H]
     RDKit          3D

 97100  0  0  0  0  0  0  0  0999 V2000
    6.1674    6.4047    2.9209 C   0  0  0  0  0  0  0  0  0  0  0  0
    5.6207    5.0948    2.4270 C   0  0  0  0  0  0  0  0  0  0  0  0
    6.0228    4.8968    1.0854 O   0  0  0  0  0  0  0  0  0  0  0  0
    5.7065    3.7884    0.3402 C   0  0  0  0  0  0  0  0  0  0  0  0
    5.0074    2.8904    0.9046 O   0  0  0  0  0  0  0  0  0  0  0  0
    6.1224    3.5730   -1.0596 C   0  0  0  0  0  0  0  0  0  0  0  0
    5.6250    2.2574   -1.4972 N   0  0  0  0  0  0  0  0  0  0  0  0
    5.8847    1.7709   -2.7845 C   0  0  0  0  0  0  0  0  0  0  0  0
    6.5803    2.5183   -3.5522 O   0  0  0  0  0  0  0  0  0  0  0  0
    5.3905    0.4645   -3.2320 C   0  0  0  0  0  0  0  0  0  0  0  0
    4.5359   -0.2303   -2.2964 N   0  0  0  0  0  0  0  0  0  0  0  0
    3.2704    0.2450   -1.9197 C   0  0  0  0  0  0  0  0  0  0  0  0
    2.8750    1.3342   -2.4556 O   0  0  0  0  0  0  0  0  0  0  0  0
    2.3529   -0.4044   -0.9625 C   0  0  0  0  0  0  0  0  0  0  0  0
    1.0631    0.2798   -0.9738 N   0  0  0  0  0  0  0  0  0  0  0  0
    0.4365    0.8902    0.1229 C   0  0  0  0  0  0  0  0  0  0  0  0
    0.9669    0.9064    1.2575 O   0  0  0  0  0  0  0  0  0  0  0  0
   -0.8881    1.5389   -0.0275 C   0  0  0  0  0  0  0  0  0  0  0  0
   -1.8952    0.4947   -0.5784 C   0  0  0  0  0  0  0  0  0  0  0  0
   -3.0225    1.3275   -1.0831 C   0  0  0  0  0  0  0  0  0  0  0  0
   -3.7103    2.1062    0.0259 C   0  0  0  0  0  0  0  0  0  0  0  0
   -2.8150    2.6898    1.0219 C   0  0  0  0  0  0  0  0  0  0  0  0
   -1.4855    2.0314    1.2372 C   0  0  0  0  0  0  0  0  0  0  0  0
   -4.7033    1.1990    0.5683 N   0  0  0  0  0  0  0  0  0  0  0  0
   -6.0005    1.1484    0.0004 C   0  0  0  0  0  0  0  0  0  0  0  0
   -6.2562    1.9095   -0.9840 O   0  0  0  0  0  0  0  0  0  0  0  0
   -7.0245    0.2244    0.5476 C   0  0  0  0  0  0  0  0  0  0  0  0
   -8.2281    0.3214   -0.2951 C   0  0  0  0  0  0  0  0  0  0  0  0
   -8.4694   -0.7282   -1.1846 C   0  0  0  0  0  0  0  0  0  0  0  0
   -9.5748   -0.6971   -2.0018 C   0  0  0  0  0  0  0  0  0  0  0  0
  -10.4187    0.3790   -1.9168 C   0  0  0  0  0  0  0  0  0  0  0  0
  -10.1897    1.4302   -1.0353 C   0  0  0  0  0  0  0  0  0  0  0  0
  -11.0589    2.4879   -0.9889 C   0  0  0  0  0  0  0  0  0  0  0  0
  -10.8242    3.5467   -0.1046 C   0  0  0  0  0  0  0  0  0  0  0  0
   -9.7026    3.5238    0.7304 C   0  0  0  0  0  0  0  0  0  0  0  0
   -8.8682    2.4407    0.6395 C   0  0  0  0  0  0  0  0  0  0  0  0
   -9.0705    1.4043   -0.2047 C   0  0  0  0  0  0  0  0  0  0  0  0
    2.1445   -1.8527   -1.2693 C   0  0  0  0  0  0  0  0  0  0  0  0
    1.3474   -2.0807   -2.2158 O   0  0  0  0  0  0  0  0  0  0  0  0
    2.7491   -2.9316   -0.6004 N   0  0  0  0  0  0  0  0  0  0  0  0
    3.6079   -2.6866    0.5165 C   0  0  0  0  0  0  0  0  0  0  0  0
    4.4282   -3.8264    0.9859 C   0  0  0  0  0  0  0  0  0  0  0  0
    4.1785   -5.1496    0.3591 C   0  0  0  0  0  0  0  0  0  0  0  0
    2.7084   -5.2467   -0.0041 C   0  0  0  0  0  0  0  0  0  0  0  0
    2.4535   -4.2677   -1.0992 C   0  0  0  0  0  0  0  0  0  0  0  0
    4.5192   -6.2371    1.3743 C   0  0  0  0  0  0  0  0  0  0  0  0
    5.9825   -6.0959    1.7520 C   0  0  0  0  0  0  0  0  0  0  0  0
    4.3418   -7.5932    0.7295 C   0  0  0  0  0  0  0  0  0  0  0  0
    7.1586    6.5435    2.4057 H   0  0  0  0  0  0  0  0  0  0  0  0
    6.2839    6.3216    4.0227 H   0  0  0  0  0  0  0  0  0  0  0  0
    5.5286    7.2730    2.6835 H   0  0  0  0  0  0  0  0  0  0  0  0
    4.5107    5.0717    2.4616 H   0  0  0  0  0  0  0  0  0  0  0  0
    6.0531    4.2451    3.0098 H   0  0  0  0  0  0  0  0  0  0  0  0
    5.6180    4.3080   -1.7523 H   0  0  0  0  0  0  0  0  0  0  0  0
    7.2249    3.5786   -1.2040 H   0  0  0  0  0  0  0  0  0  0  0  0
    5.0996    1.7340   -0.7785 H   0  0  0  0  0  0  0  0  0  0  0  0
    6.2412   -0.2204   -3.4778 H   0  0  0  0  0  0  0  0  0  0  0  0
    4.8822    0.6284   -4.2117 H   0  0  0  0  0  0  0  0  0  0  0  0
    4.8551   -1.1454   -1.8671 H   0  0  0  0  0  0  0  0  0  0  0  0
    2.7654   -0.3388    0.0526 H   0  0  0  0  0  0  0  0  0  0  0  0
    0.5586    0.3154   -1.9078 H   0  0  0  0  0  0  0  0  0  0  0  0
   -0.8443    2.3504   -0.7728 H   0  0  0  0  0  0  0  0  0  0  0  0
   -2.1399   -0.1220    0.3218 H   0  0  0  0  0  0  0  0  0  0  0  0
   -1.4524   -0.0792   -1.3877 H   0  0  0  0  0  0  0  0  0  0  0  0
   -2.5998    2.0724   -1.7869 H   0  0  0  0  0  0  0  0  0  0  0  0
   -3.7402    0.7159   -1.6319 H   0  0  0  0  0  0  0  0  0  0  0  0
   -4.2669    2.9017   -0.5207 H   0  0  0  0  0  0  0  0  0  0  0  0
   -2.5985    3.7802    0.8154 H   0  0  0  0  0  0  0  0  0  0  0  0
   -3.3334    2.7068    2.0243 H   0  0  0  0  0  0  0  0  0  0  0  0
   -0.8054    2.7338    1.7773 H   0  0  0  0  0  0  0  0  0  0  0  0
   -1.6167    1.1457    1.9217 H   0  0  0  0  0  0  0  0  0  0  0  0
   -4.5044    0.5682    1.3775 H   0  0  0  0  0  0  0  0  0  0  0  0
   -7.2320    0.4291    1.6183 H   0  0  0  0  0  0  0  0  0  0  0  0
   -6.6149   -0.8024    0.5023 H   0  0  0  0  0  0  0  0  0  0  0  0
   -7.7826   -1.5572   -1.2207 H   0  0  0  0  0  0  0  0  0  0  0  0
   -9.7627   -1.4941   -2.6823 H   0  0  0  0  0  0  0  0  0  0  0  0
  -11.2829    0.3995   -2.5607 H   0  0  0  0  0  0  0  0  0  0  0  0
  -11.9359    2.5173   -1.6329 H   0  0  0  0  0  0  0  0  0  0  0  0
  -11.5015    4.3761   -0.0640 H   0  0  0  0  0  0  0  0  0  0  0  0
   -9.5559    4.3520    1.3957 H   0  0  0  0  0  0  0  0  0  0  0  0
   -7.9899    2.4172    1.2899 H   0  0  0  0  0  0  0  0  0  0  0  0
    2.9209   -2.3171    1.3431 H   0  0  0  0  0  0  0  0  0  0  0  0
    4.2861   -1.8448    0.2840 H   0  0  0  0  0  0  0  0  0  0  0  0
    4.2600   -3.9470    2.0968 H   0  0  0  0  0  0  0  0  0  0  0  0
    5.5398   -3.6395    0.9240 H   0  0  0  0  0  0  0  0  0  0  0  0
    4.7645   -5.3651   -0.5384 H   0  0  0  0  0  0  0  0  0  0  0  0
    2.0611   -4.9437    0.8660 H   0  0  0  0  0  0  0  0  0  0  0  0
    2.4177   -6.2864   -0.3145 H   0  0  0  0  0  0  0  0  0  0  0  0
    3.2063   -4.4592   -1.8991 H   0  0  0  0  0  0  0  0  0  0  0  0
    1.4627   -4.3324   -1.5539 H   0  0  0  0  0  0  0  0  0  0  0  0
    3.8848   -6.1042    2.2597 H   0  0  0  0  0  0  0  0  0  0  0  0
    6.0961   -5.6156    2.7445 H   0  0  0  0  0  0  0  0  0  0  0  0
    6.5487   -5.5189    0.9788 H   0  0  0  0  0  0  0  0  0  0  0  0
    6.4851   -7.0820    1.8232 H   0  0  0  0  0  0  0  0  0  0  0  0
    4.9247   -8.3437    1.3099 H   0  0  0  0  0  0  0  0  0  0  0  0
    4.7769   -7.5558   -0.2839 H   0  0  0  0  0  0  0  0  0  0  0  0
    3.2616   -7.8612    0.7263 H   0  0  0  0  0  0  0  0  0  0  0  0
  1  2  1  0
  2  3  1  0
  3  4  1  0
  4  5  2  0
  4  6  1  0
  6  7  1  0
  7  8  1  0
  8  9  2  0
  8 10  1  0
 10 11  1  0
 11 12  1  0
 12 13  2  0
 12 14  1  0
 14 15  1  0
 15 16  1  0
 16 17  2  0
 16 18  1  0
 18 19  1  0
 19 20  1  0
 20 21  1  0
 21 22  1  0
 22 23  1  0
 21 24  1  0
 24 25  1  0
 25 26  2  0
 25 27  1  0
 27 28  1  0
 28 29  2  0
 29 30  1  0
 30 31  2  0
 31 32  1  0
 32 33  2  0
 33 34  1  0
 34 35  2  0
 35 36  1  0
 36 37  2  0
 14 38  1  0
 38 39  2  0
 38 40  1  0
 40 41  1  0
 41 42  1  0
 42 43  1  0
 43 44  1  0
 44 45  1  0
 43 46  1  0
 46 47  1  0
 46 48  1  0
 23 18  1  0
 37 28  1  0
 45 40  1  0
 37 32  1  0
  1 49  1  0
  1 50  1  0
  1 51  1  0
  2 52  1  0
  2 53  1  0
  6 54  1  0
  6 55  1  0
  7 56  1  0
 10 57  1  0
 10 58  1  0
 11 59  1  0
 14 60  1  0
 15 61  1  0
 18 62  1  0
 19 63  1  0
 19 64  1  0
 20 65  1  0
 20 66  1  0
 21 67  1  0
 22 68  1  0
 22 69  1  0
 23 70  1  0
 23 71  1  0
 24 72  1  0
 27 73  1  0
 27 74  1  0
 29 75  1  0
 30 76  1  0
 31 77  1  0
 33 78  1  0
 34 79  1  0
 35 80  1  0
 36 81  1  0
 41 82  1  0
 41 83  1  0
 42 84  1  0
 42 85  1  0
 43 86  1  0
 44 87  1  0
 44 88  1  0
 45 89  1  0
 45 90  1  0
 46 91  1  0
 47 92  1  0
 47 93  1  0
 47 94  1  0
 48 95  1  0
 48 96  1  0
 48 97  1  0
M  END
$$$$
[H]c1nc(N([H])C(=O)N([H])c2c([H])c([H])c(-c3c([H])c([H])nc4c3c(N([H])[H])nn4[H])c([H])c2[H])c([H])c(OC([H])([H])[H])c1[H]
     RDKit          3D

 45 48  0  0  0  0  0  0  0  0999 V2000
   -8.3168   -1.3041    0.5533 C   0  0  0  0  0  0  0  0  0  0  0  0
   -8.0273   -0.0059    0.9910 O   0  0  0  0  0  0  0  0  0  0  0  0
   -6.7420    0.5319    0.9640 C   0  0  0  0  0  0  0  0  0  0  0  0
   -6.5340    1.8140    1.4102 C   0  0  0  0  0  0  0  0  0  0  0  0
   -5.2397    2.2927    1.3593 C   0  0  0  0  0  0  0  0  0  0  0  0
   -4.2113    1.5780    0.9059 N   0  0  0  0  0  0  0  0  0  0  0  0
   -4.3821    0.3065    0.4570 C   0  0  0  0  0  0  0  0  0  0  0  0
   -3.3047   -0.4614   -0.0252 N   0  0  0  0  0  0  0  0  0  0  0  0
   -1.9604    0.0601   -0.0691 C   0  0  0  0  0  0  0  0  0  0  0  0
   -1.8241    1.2316    0.3483 O   0  0  0  0  0  0  0  0  0  0  0  0
   -0.9113   -0.7386   -0.5579 N   0  0  0  0  0  0  0  0  0  0  0  0
    0.4501   -0.4029   -0.6800 C   0  0  0  0  0  0  0  0  0  0  0  0
    0.9207    0.8637   -0.5438 C   0  0  0  0  0  0  0  0  0  0  0  0
    2.2983    1.0778   -0.6699 C   0  0  0  0  0  0  0  0  0  0  0  0
    3.1782    0.0500   -0.9257 C   0  0  0  0  0  0  0  0  0  0  0  0
    2.6657   -1.2038   -1.0559 C   0  0  0  0  0  0  0  0  0  0  0  0
    1.3329   -1.4638   -0.9415 C   0  0  0  0  0  0  0  0  0  0  0  0
    4.5772    0.3709   -1.0912 C   0  0  0  0  0  0  0  0  0  0  0  0
    4.9698    1.1759   -2.1734 C   0  0  0  0  0  0  0  0  0  0  0  0
    6.3084    1.4300   -2.3431 C   0  0  0  0  0  0  0  0  0  0  0  0
    7.2454    0.9418   -1.5197 N   0  0  0  0  0  0  0  0  0  0  0  0
    6.9024    0.1686   -0.4732 C   0  0  0  0  0  0  0  0  0  0  0  0
    7.6509   -0.4132    0.4816 N   0  0  0  0  0  0  0  0  0  0  0  0
    6.8256   -1.0445    1.2773 N   0  0  0  0  0  0  0  0  0  0  0  0
    5.5479   -0.8948    0.8722 C   0  0  0  0  0  0  0  0  0  0  0  0
    4.3839   -1.4149    1.4960 N   0  0  0  0  0  0  0  0  0  0  0  0
    5.5400   -0.1120   -0.2690 C   0  0  0  0  0  0  0  0  0  0  0  0
   -5.6729   -0.1805    0.5042 C   0  0  0  0  0  0  0  0  0  0  0  0
   -7.5444   -2.0491    0.7841 H   0  0  0  0  0  0  0  0  0  0  0  0
   -9.2621   -1.6713    1.0498 H   0  0  0  0  0  0  0  0  0  0  0  0
   -8.5742   -1.2706   -0.5435 H   0  0  0  0  0  0  0  0  0  0  0  0
   -7.3252    2.4385    1.7872 H   0  0  0  0  0  0  0  0  0  0  0  0
   -5.0360    3.3071    1.7054 H   0  0  0  0  0  0  0  0  0  0  0  0
   -3.4544   -1.4223   -0.3607 H   0  0  0  0  0  0  0  0  0  0  0  0
   -1.2327   -1.7221   -0.8711 H   0  0  0  0  0  0  0  0  0  0  0  0
    0.2753    1.7097   -0.3518 H   0  0  0  0  0  0  0  0  0  0  0  0
    2.6362    2.1026   -0.5544 H   0  0  0  0  0  0  0  0  0  0  0  0
    3.3513   -2.0301   -1.2668 H   0  0  0  0  0  0  0  0  0  0  0  0
    0.9421   -2.4897   -1.0505 H   0  0  0  0  0  0  0  0  0  0  0  0
    4.2127    1.5739   -2.8432 H   0  0  0  0  0  0  0  0  0  0  0  0
    6.5836    2.0541   -3.1869 H   0  0  0  0  0  0  0  0  0  0  0  0
    8.6833   -0.3948    0.6061 H   0  0  0  0  0  0  0  0  0  0  0  0
    4.1298   -2.4227    1.4943 H   0  0  0  0  0  0  0  0  0  0  0  0
    3.7446   -0.7566    1.9839 H   0  0  0  0  0  0  0  0  0  0  0  0
   -5.8008   -1.2102    0.1388 H   0  0  0  0  0  0  0  0  0  0  0  0
  1  2  1  0
  2  3  1  0
  3  4  2  0
  4  5  1  0
  5  6  2  0
  6  7  1  0
  7  8  1  0
  8  9  1  0
  9 10  2  0
  9 11  1  0
 11 12  1  0
 12 13  2  0
 13 14  1  0
 14 15  2  0
 15 16  1  0
 16 17  2  0
 15 18  1  0
 18 19  2  0
 19 20  1  0
 20 21  2  0
 21 22  1  0
 22 23  1  0
 23 24  1  0
 24 25  2  0
 25 26  1  0
 25 27  1  0
  7 28  2  0
 28  3  1  0
 17 12  1  0
 27 18  1  0
 27 22  2  0
  1 29  1  0
  1 30  1  0
  1 31  1  0
  4 32  1  0
  5 33  1  0
  8 34  1  0
 11 35  1  0
 13 36  1  0
 14 37  1  0
 16 38  1  0
 17 39  1  0
 19 40  1  0
 20 41  1  0
 23 42  1  0
 26 43  1  0
 26 44  1  0
 28 45  1  0
M  END
$$$$
[H]OC(=O)C([H])([H])N([H])C(=O)c1c([H])c([H])c(N2C([H])([H])C([H])([H])N(C([H])(c3c([H])c([H])c(Cl)c([H])c3[H])c3c([H])c([H])c([H])c(C#N)c3[H])C([H])([H])C2([H])[H])c(F)c1[H]
     RDKit          3D

 60 63  0  0  0  0  0  0  0  0999 V2000
   10.6577   -2.5936   -1.2032 O   0  0  0  0  0  0  0  0  0  0  0  0
    9.3102   -2.4161   -0.9974 C   0  0  0  0  0  0  0  0  0  0  0  0
    8.5864   -3.4659   -1.0475 O   0  0  0  0  0  0  0  0  0  0  0  0
    8.6677   -1.1276   -0.7305 C   0  0  0  0  0  0  0  0  0  0  0  0
    7.2408   -1.2805   -0.5570 N   0  0  0  0  0  0  0  0  0  0  0  0
    6.3777   -0.2070   -0.2906 C   0  0  0  0  0  0  0  0  0  0  0  0
    6.9148    0.9523   -0.2041 O   0  0  0  0  0  0  0  0  0  0  0  0
    4.9399   -0.3143   -0.1085 C   0  0  0  0  0  0  0  0  0  0  0  0
    4.2960   -1.5309   -0.1367 C   0  0  0  0  0  0  0  0  0  0  0  0
    2.9105   -1.5819    0.0438 C   0  0  0  0  0  0  0  0  0  0  0  0
    2.1494   -0.4532    0.2516 C   0  0  0  0  0  0  0  0  0  0  0  0
    0.7266   -0.5109    0.4368 N   0  0  0  0  0  0  0  0  0  0  0  0
    0.1660   -0.0013    1.6656 C   0  0  0  0  0  0  0  0  0  0  0  0
   -1.0491    0.8261    1.3368 C   0  0  0  0  0  0  0  0  0  0  0  0
   -1.9267    0.0037    0.5647 N   0  0  0  0  0  0  0  0  0  0  0  0
   -1.4212   -0.2372   -0.7132 C   0  0  0  0  0  0  0  0  0  0  0  0
   -0.1450   -1.0731   -0.5722 C   0  0  0  0  0  0  0  0  0  0  0  0
   -3.2722    0.2366    0.8364 C   0  0  0  0  0  0  0  0  0  0  0  0
   -4.2339   -0.5817    0.0510 C   0  0  0  0  0  0  0  0  0  0  0  0
   -4.0680   -1.9334   -0.1362 C   0  0  0  0  0  0  0  0  0  0  0  0
   -5.0043   -2.6233   -0.8694 C   0  0  0  0  0  0  0  0  0  0  0  0
   -6.1015   -2.0003   -1.4205 C   0  0  0  0  0  0  0  0  0  0  0  0
   -6.2864   -0.6474   -1.2447 C   0  0  0  0  0  0  0  0  0  0  0  0
   -5.3279    0.0309   -0.5001 C   0  0  0  0  0  0  0  0  0  0  0  0
   -7.4010    0.0625   -1.7879 C   0  0  0  0  0  0  0  0  0  0  0  0
   -8.3230    0.6266   -2.2389 N   0  0  0  0  0  0  0  0  0  0  0  0
   -3.7419    1.6221    0.8989 C   0  0  0  0  0  0  0  0  0  0  0  0
   -4.5855    2.0405    1.9287 C   0  0  0  0  0  0  0  0  0  0  0  0
   -5.0400    3.3255    2.0266 C   0  0  0  0  0  0  0  0  0  0  0  0
   -4.6430    4.2253    1.0690 C   0  0  0  0  0  0  0  0  0  0  0  0
   -5.2117    5.8848    1.1693 Cl  0  0  0  0  0  0  0  0  0  0  0  0
   -3.8153    3.8563    0.0407 C   0  0  0  0  0  0  0  0  0  0  0  0
   -3.3739    2.5535   -0.0310 C   0  0  0  0  0  0  0  0  0  0  0  0
    2.8110    0.7509    0.2761 C   0  0  0  0  0  0  0  0  0  0  0  0
    2.1309    1.9035    0.4756 F   0  0  0  0  0  0  0  0  0  0  0  0
    4.1874    0.8387    0.1004 C   0  0  0  0  0  0  0  0  0  0  0  0
   11.3766   -1.9826   -0.8363 H   0  0  0  0  0  0  0  0  0  0  0  0
    8.8765   -0.4151   -1.5427 H   0  0  0  0  0  0  0  0  0  0  0  0
    9.1447   -0.6839    0.1883 H   0  0  0  0  0  0  0  0  0  0  0  0
    6.8412   -2.2402   -0.6357 H   0  0  0  0  0  0  0  0  0  0  0  0
    4.8718   -2.4264   -0.2975 H   0  0  0  0  0  0  0  0  0  0  0  0
    2.4454   -2.5422    0.0157 H   0  0  0  0  0  0  0  0  0  0  0  0
    0.9195    0.6055    2.2276 H   0  0  0  0  0  0  0  0  0  0  0  0
   -0.1362   -0.8740    2.2693 H   0  0  0  0  0  0  0  0  0  0  0  0
   -0.7714    1.6933    0.6765 H   0  0  0  0  0  0  0  0  0  0  0  0
   -1.5286    1.2508    2.2441 H   0  0  0  0  0  0  0  0  0  0  0  0
   -1.0573    0.6765   -1.2770 H   0  0  0  0  0  0  0  0  0  0  0  0
   -2.0591   -0.8078   -1.4101 H   0  0  0  0  0  0  0  0  0  0  0  0
    0.3423   -1.1075   -1.5664 H   0  0  0  0  0  0  0  0  0  0  0  0
   -0.4105   -2.1127   -0.3014 H   0  0  0  0  0  0  0  0  0  0  0  0
   -3.4295   -0.1911    1.9119 H   0  0  0  0  0  0  0  0  0  0  0  0
   -3.1926   -2.4206    0.3055 H   0  0  0  0  0  0  0  0  0  0  0  0
   -4.8791   -3.6954   -1.0219 H   0  0  0  0  0  0  0  0  0  0  0  0
   -6.8231   -2.5584   -1.9912 H   0  0  0  0  0  0  0  0  0  0  0  0
   -5.5219    1.0998   -0.3862 H   0  0  0  0  0  0  0  0  0  0  0  0
   -4.8999    1.3333    2.6848 H   0  0  0  0  0  0  0  0  0  0  0  0
   -5.7023    3.6661    2.8298 H   0  0  0  0  0  0  0  0  0  0  0  0
   -3.4865    4.5491   -0.7298 H   0  0  0  0  0  0  0  0  0  0  0  0
   -2.7133    2.2405   -0.8537 H   0  0  0  0  0  0  0  0  0  0  0  0
    4.6919    1.7830    0.1215 H   0  0  0  0  0  0  0  0  0  0  0  0
  1  2  1  0
  2  3  2  0
  2  4  1  0
  4  5  1  0
  5  6  1  0
  6  7  2  0
  6  8  1  0
  8  9  2  0
  9 10  1  0
 10 11  2  0
 11 12  1  0
 12 13  1  0
 13 14  1  0
 14 15  1  0
 15 16  1  0
 16 17  1  0
 15 18  1  0
 18 19  1  0
 19 20  2  0
 20 21  1  0
 21 22  2  0
 22 23  1  0
 23 24  2  0
 23 25  1  0
 25 26  3  0
 18 27  1  0
 27 28  2  0
 28 29  1  0
 29 30  2  0
 30 31  1  0
 30 32  1  0
 32 33  2  0
 11 34  1  0
 34 35  1  0
 34 36  2  0
 36  8  1  0
 17 12  1  0
 24 19  1  0
 33 27  1  0
  1 37  1  0
  4 38  1  0
  4 39  1  0
  5 40  1  0
  9 41  1  0
 10 42  1  0
 13 43  1  0
 13 44  1  0
 14 45  1  0
 14 46  1  0
 16 47  1  0
 16 48  1  0
 17 49  1  0
 17 50  1  0
 18 51  1  0
 20 52  1  0
 21 53  1  0
 22 54  1  0
 24 55  1  0
 28 56  1  0
 29 57  1  0
 32 58  1  0
 33 59  1  0
 36 60  1  0
M  END
$$$$
[H]Oc1c(Br)c([H])c(Br)c([H])c1[C@@]1([H])OC([H])([H])[C@]([H])(C([H])([H])OS(=O)(=O)N([H])[H])O1
     RDKit          3D

 31 32  0  0  0  0  0  0  0  0999 V2000
    5.2454    1.8352    0.9002 N   0  0  0  0  0  0  0  0  0  0  0  0
    4.4712    0.3266    0.4805 S   0  0  0  0  0  0  0  0  0  0  0  0
    5.1263   -0.2679   -0.7303 O   0  0  0  0  0  0  0  0  0  0  0  0
    4.7304   -0.6068    1.6367 O   0  0  0  0  0  0  0  0  0  0  0  0
    2.8336    0.5069    0.3073 O   0  0  0  0  0  0  0  0  0  0  0  0
    2.3119   -0.2519   -0.7383 C   0  0  0  0  0  0  0  0  0  0  0  0
    0.8166   -0.0660   -0.8708 C   0  0  1  0  0  0  0  0  0  0  0  0
    0.2982   -1.0248   -1.8913 C   0  0  0  0  0  0  0  0  0  0  0  0
   -0.8322   -1.5466   -1.3292 O   0  0  0  0  0  0  0  0  0  0  0  0
   -0.8785   -1.2011    0.0231 C   0  0  1  0  0  0  0  0  0  0  0  0
    0.2463   -0.4729    0.3328 O   0  0  0  0  0  0  0  0  0  0  0  0
   -2.1006   -0.4313    0.2586 C   0  0  0  0  0  0  0  0  0  0  0  0
   -2.4549    0.5604   -0.6572 C   0  0  0  0  0  0  0  0  0  0  0  0
   -3.5836    1.3050   -0.5016 C   0  0  0  0  0  0  0  0  0  0  0  0
   -3.9821    2.6481   -1.8214 Br  0  0  0  0  0  0  0  0  0  0  0  0
   -4.4141    1.0945    0.5781 C   0  0  0  0  0  0  0  0  0  0  0  0
   -4.0803    0.1312    1.4783 C   0  0  0  0  0  0  0  0  0  0  0  0
   -5.2001   -0.1998    2.9943 Br  0  0  0  0  0  0  0  0  0  0  0  0
   -2.9151   -0.6482    1.3316 C   0  0  0  0  0  0  0  0  0  0  0  0
   -2.6389   -1.6042    2.2816 O   0  0  0  0  0  0  0  0  0  0  0  0
    5.0092    2.0146    1.9004 H   0  0  0  0  0  0  0  0  0  0  0  0
    4.7868    2.5631    0.3005 H   0  0  0  0  0  0  0  0  0  0  0  0
    2.8051   -0.0101   -1.6964 H   0  0  0  0  0  0  0  0  0  0  0  0
    2.4831   -1.3216   -0.4901 H   0  0  0  0  0  0  0  0  0  0  0  0
    0.5660    0.9764   -1.1319 H   0  0  0  0  0  0  0  0  0  0  0  0
    1.0196   -1.8600   -2.0596 H   0  0  0  0  0  0  0  0  0  0  0  0
    0.1130   -0.5352   -2.8766 H   0  0  0  0  0  0  0  0  0  0  0  0
   -0.8585   -2.1480    0.5784 H   0  0  0  0  0  0  0  0  0  0  0  0
   -1.7905    0.7114   -1.4990 H   0  0  0  0  0  0  0  0  0  0  0  0
   -5.2979    1.7077    0.6614 H   0  0  0  0  0  0  0  0  0  0  0  0
   -1.8353   -2.1848    2.2500 H   0  0  0  0  0  0  0  0  0  0  0  0
  1  2  1  0
  2  3  2  0
  2  4  2  0
  2  5  1  0
  5  6  1  0
  6  7  1  0
  7  8  1  0
  8  9  1  0
  9 10  1  0
 10 11  1  0
 10 12  1  0
 12 13  2  0
 13 14  1  0
 14 15  1  0
 14 16  2  0
 16 17  1  0
 17 18  1  0
 17 19  2  0
 19 20  1  0
 11  7  1  0
 19 12  1  0
  1 21  1  0
  1 22  1  0
  6 23  1  0
  6 24  1  0
  7 25  1  6
  8 26  1  0
  8 27  1  0
 10 28  1  1
 13 29  1  0
 16 30  1  0
 20 31  1  0
M  END
$$$$
[H]OB(O[H])C([H])(N([H])C(=O)[C@@]([H])(N([H])C(=O)c1nc([H])c([H])nc1[H])C([H])([H])c1c([H])c([H])c([H])c([H])c1[H])C([H])([H])C([H])(C([H])([H])[H])C([H])([H])[H]
     RDKit          3D

 53 54  0  0  0  0  0  0  0  0999 V2000
    5.2333    0.6743   -0.1111 C   0  0  0  0  0  0  0  0  0  0  0  0
    4.3142    0.5564   -1.2895 C   0  0  0  0  0  0  0  0  0  0  0  0
    4.9218    1.4712   -2.3764 C   0  0  0  0  0  0  0  0  0  0  0  0
    2.8912    0.9024   -1.0762 C   0  0  0  0  0  0  0  0  0  0  0  0
    2.1785    0.0710   -0.0521 C   0  0  0  0  0  0  0  0  0  0  0  0
    0.7756    0.4874    0.0438 N   0  0  0  0  0  0  0  0  0  0  0  0
   -0.2904   -0.3902   -0.1705 C   0  0  0  0  0  0  0  0  0  0  0  0
    0.0669   -1.6013   -0.4571 O   0  0  0  0  0  0  0  0  0  0  0  0
   -1.7273   -0.1325   -0.1235 C   0  0  2  0  0  0  0  0  0  0  0  0
   -2.2722    0.1593    1.2455 C   0  0  0  0  0  0  0  0  0  0  0  0
   -1.7416    1.3139    1.9598 C   0  0  0  0  0  0  0  0  0  0  0  0
   -2.2247    2.5847    1.7251 C   0  0  0  0  0  0  0  0  0  0  0  0
   -1.8062    3.7038    2.4084 C   0  0  0  0  0  0  0  0  0  0  0  0
   -0.8498    3.5573    3.3854 C   0  0  0  0  0  0  0  0  0  0  0  0
   -0.3391    2.3114    3.6540 C   0  0  0  0  0  0  0  0  0  0  0  0
   -0.7786    1.1953    2.9483 C   0  0  0  0  0  0  0  0  0  0  0  0
   -2.4066   -1.3719   -0.5918 N   0  0  0  0  0  0  0  0  0  0  0  0
   -3.2913   -1.3079   -1.6967 C   0  0  0  0  0  0  0  0  0  0  0  0
   -3.5295   -0.2479   -2.3065 O   0  0  0  0  0  0  0  0  0  0  0  0
   -3.9612   -2.5214   -2.1514 C   0  0  0  0  0  0  0  0  0  0  0  0
   -4.8241   -2.5185   -3.2129 C   0  0  0  0  0  0  0  0  0  0  0  0
   -5.4410   -3.6567   -3.6181 N   0  0  0  0  0  0  0  0  0  0  0  0
   -5.2121   -4.8029   -2.9790 C   0  0  0  0  0  0  0  0  0  0  0  0
   -4.3441   -4.8245   -1.9049 C   0  0  0  0  0  0  0  0  0  0  0  0
   -3.7435   -3.6909   -1.5202 N   0  0  0  0  0  0  0  0  0  0  0  0
    2.8522    0.0517    1.3676 B   0  0  0  0  0  0  0  0  0  0  0  0
    2.8086    1.2053    2.2871 O   0  0  0  0  0  0  0  0  0  0  0  0
    3.1514   -1.2331    2.0472 O   0  0  0  0  0  0  0  0  0  0  0  0
    5.0252    1.5387    0.5185 H   0  0  0  0  0  0  0  0  0  0  0  0
    5.3769   -0.2725    0.4579 H   0  0  0  0  0  0  0  0  0  0  0  0
    6.2760    0.8387   -0.5515 H   0  0  0  0  0  0  0  0  0  0  0  0
    4.4227   -0.4722   -1.7180 H   0  0  0  0  0  0  0  0  0  0  0  0
    5.2385    2.4272   -1.8675 H   0  0  0  0  0  0  0  0  0  0  0  0
    5.8327    0.9620   -2.7448 H   0  0  0  0  0  0  0  0  0  0  0  0
    4.2411    1.6284   -3.2067 H   0  0  0  0  0  0  0  0  0  0  0  0
    2.7266    1.9960   -0.9128 H   0  0  0  0  0  0  0  0  0  0  0  0
    2.3616    0.6878   -2.0560 H   0  0  0  0  0  0  0  0  0  0  0  0
    2.1593   -0.9790   -0.4124 H   0  0  0  0  0  0  0  0  0  0  0  0
    0.6135    1.4807    0.2632 H   0  0  0  0  0  0  0  0  0  0  0  0
   -2.0292    0.6902   -0.8109 H   0  0  0  0  0  0  0  0  0  0  0  0
   -2.1697   -0.7624    1.9010 H   0  0  0  0  0  0  0  0  0  0  0  0
   -3.3985    0.2669    1.1536 H   0  0  0  0  0  0  0  0  0  0  0  0
   -2.9736    2.7181    0.9650 H   0  0  0  0  0  0  0  0  0  0  0  0
   -2.2148    4.6788    2.1901 H   0  0  0  0  0  0  0  0  0  0  0  0
   -0.5242    4.4491    3.9225 H   0  0  0  0  0  0  0  0  0  0  0  0
    0.4154    2.2230    4.4338 H   0  0  0  0  0  0  0  0  0  0  0  0
   -0.3575    0.2477    3.1839 H   0  0  0  0  0  0  0  0  0  0  0  0
   -2.2303   -2.2730   -0.1154 H   0  0  0  0  0  0  0  0  0  0  0  0
   -5.0250   -1.5909   -3.7532 H   0  0  0  0  0  0  0  0  0  0  0  0
   -5.6893   -5.7192   -3.2805 H   0  0  0  0  0  0  0  0  0  0  0  0
   -4.1666   -5.7549   -1.3973 H   0  0  0  0  0  0  0  0  0  0  0  0
    2.4688    0.9492    3.1747 H   0  0  0  0  0  0  0  0  0  0  0  0
    3.2101   -1.9042    1.2999 H   0  0  0  0  0  0  0  0  0  0  0  0
  1  2  1  0
  2  3  1  0
  2  4  1  0
  4  5  1  0
  5  6  1  0
  6  7  1  0
  7  8  2  0
  7  9  1  0
  9 10  1  0
 10 11  1  0
 11 12  2  0
 12 13  1  0
 13 14  2  0
 14 15  1  0
 15 16  2  0
  9 17  1  0
 17 18  1  0
 18 19  2  0
 18 20  1  0
 20 21  2  0
 21 22  1  0
 22 23  2  0
 23 24  1  0
 24 25  2  0
  5 26  1  0
 26 27  1  0
 26 28  1  0
 16 11  1  0
 25 20  1  0
  1 29  1  0
  1 30  1  0
  1 31  1  0
  2 32  1  0
  3 33  1  0
  3 34  1  0
  3 35  1  0
  4 36  1  0
  4 37  1  0
  5 38  1  0
  6 39  1  0
  9 40  1  6
 10 41  1  0
 10 42  1  0
 12 43  1  0
 13 44  1  0
 14 45  1  0
 15 46  1  0
 16 47  1  0
 17 48  1  0
 21 49  1  0
 23 50  1  0
 24 51  1  0
 27 52  1  0
 28 53  1  0
M  END
$$$$
[H]N([H])C([H])([H])C(=O)N1C(=O)[C@](C([H])([H])[H])(C([H])([H])S(=O)(=O)N2C([H])([H])C([H])([H])C([H])([H])C2([H])[H])C([H])([H])C([H])([H])C1([H])[H]
     RDKit          3D

 44 45  0  0  0  0  0  0  0  0999 V2000
    0.0399   -0.5145   -2.6609 C   0  0  0  0  0  0  0  0  0  0  0  0
    0.5364   -0.5528   -1.2105 C   0  0  1  0  0  0  0  0  0  0  0  0
   -0.6114   -0.5727   -0.2708 C   0  0  0  0  0  0  0  0  0  0  0  0
   -1.7154    0.7740   -0.3324 S   0  0  0  0  0  0  0  0  0  0  0  0
   -2.4291    0.8342   -1.6535 O   0  0  0  0  0  0  0  0  0  0  0  0
   -1.1262    2.0950   -0.0572 O   0  0  0  0  0  0  0  0  0  0  0  0
   -2.9524    0.4816    0.8674 N   0  0  0  0  0  0  0  0  0  0  0  0
   -3.6787   -0.7378    0.5576 C   0  0  0  0  0  0  0  0  0  0  0  0
   -4.7932   -0.6677    1.6076 C   0  0  0  0  0  0  0  0  0  0  0  0
   -5.1343    0.8098    1.5569 C   0  0  0  0  0  0  0  0  0  0  0  0
   -3.9715    1.4814    0.8425 C   0  0  0  0  0  0  0  0  0  0  0  0
    1.2205   -1.9252   -1.0805 C   0  0  0  0  0  0  0  0  0  0  0  0
    2.6789   -1.8756   -1.3999 C   0  0  0  0  0  0  0  0  0  0  0  0
    3.3766   -1.1511   -0.2383 C   0  0  0  0  0  0  0  0  0  0  0  0
    2.7697    0.1754   -0.2353 N   0  0  0  0  0  0  0  0  0  0  0  0
    1.5692    0.4535   -0.9479 C   0  0  0  0  0  0  0  0  0  0  0  0
    1.3897    1.6237   -1.3725 O   0  0  0  0  0  0  0  0  0  0  0  0
    3.4030    1.2151    0.5035 C   0  0  0  0  0  0  0  0  0  0  0  0
    2.9155    2.3854    0.5377 O   0  0  0  0  0  0  0  0  0  0  0  0
    4.6567    0.9895    1.2674 C   0  0  0  0  0  0  0  0  0  0  0  0
    5.0821    2.2041    1.9215 N   0  0  0  0  0  0  0  0  0  0  0  0
   -0.1255    0.5607   -2.8972 H   0  0  0  0  0  0  0  0  0  0  0  0
   -0.9036   -1.0626   -2.7207 H   0  0  0  0  0  0  0  0  0  0  0  0
    0.8562   -0.9526   -3.2786 H   0  0  0  0  0  0  0  0  0  0  0  0
   -0.2210   -0.7586    0.7515 H   0  0  0  0  0  0  0  0  0  0  0  0
   -1.2078   -1.5014   -0.5133 H   0  0  0  0  0  0  0  0  0  0  0  0
   -3.0853   -1.6418    0.6763 H   0  0  0  0  0  0  0  0  0  0  0  0
   -4.1754   -0.6858   -0.4323 H   0  0  0  0  0  0  0  0  0  0  0  0
   -4.3153   -0.9003    2.5683 H   0  0  0  0  0  0  0  0  0  0  0  0
   -5.6392   -1.3088    1.3516 H   0  0  0  0  0  0  0  0  0  0  0  0
   -5.1985    1.2465    2.5707 H   0  0  0  0  0  0  0  0  0  0  0  0
   -6.0681    0.9364    0.9787 H   0  0  0  0  0  0  0  0  0  0  0  0
   -3.6193    2.3859    1.4043 H   0  0  0  0  0  0  0  0  0  0  0  0
   -4.2806    1.7465   -0.1808 H   0  0  0  0  0  0  0  0  0  0  0  0
    1.1219   -2.2341   -0.0190 H   0  0  0  0  0  0  0  0  0  0  0  0
    0.6675   -2.6850   -1.6746 H   0  0  0  0  0  0  0  0  0  0  0  0
    2.8212   -1.2196   -2.2877 H   0  0  0  0  0  0  0  0  0  0  0  0
    3.0454   -2.8915   -1.5362 H   0  0  0  0  0  0  0  0  0  0  0  0
    3.2093   -1.6801    0.7154 H   0  0  0  0  0  0  0  0  0  0  0  0
    4.4446   -1.0813   -0.5174 H   0  0  0  0  0  0  0  0  0  0  0  0
    5.4647    0.7333    0.5273 H   0  0  0  0  0  0  0  0  0  0  0  0
    4.5404    0.1877    2.0244 H   0  0  0  0  0  0  0  0  0  0  0  0
    4.7330    2.2534    2.9017 H   0  0  0  0  0  0  0  0  0  0  0  0
    4.7094    3.0278    1.3852 H   0  0  0  0  0  0  0  0  0  0  0  0
  2  1  1  6
  2  3  1  0
  3  4  1  0
  4  5  2  0
  4  6  2  0
  4  7  1  0
  7  8  1  0
  8  9  1  0
  9 10  1  0
 10 11  1  0
  2 12  1  0
 12 13  1  0
 13 14  1  0
 14 15  1  0
 15 16  1  0
 16 17  2  0
 15 18  1  0
 18 19  2  0
 18 20  1  0
 20 21  1  0
 16  2  1  0
 11  7  1  0
  1 22  1  0
  1 23  1  0
  1 24  1  0
  3 25  1  0
  3 26  1  0
  8 27  1  0
  8 28  1  0
  9 29  1  0
  9 30  1  0
 10 31  1  0
 10 32  1  0
 11 33  1  0
 11 34  1  0
 12 35  1  0
 12 36  1  0
 13 37  1  0
 13 38  1  0
 14 39  1  0
 14 40  1  0
 20 41  1  0
 20 42  1  0
 21 43  1  0
 21 44  1  0
M  END
$$$$
[H]Oc1c([H])c([H])c(C([H])([H])OC(=O)N([H])[C@@]([H])(C(=O)N([H])[C@@]([H])(C(=O)N2C([H])([H])C([H])([H])C([H])([H])[C@@]2([H])C(=O)N([H])[C@@]([H])(C(=O)N([H])C([H])(C(=O)N([H])[H])C([H])([H])OC([H])([H])C([H])([H])[H])C([H])([H])C([H])([H])C(=O)N([H])[H])C([H])([H])c2c([H])c([H])c([H])c([H])c2[H])C([H])([H])c2c([H])c([H])c(O[H])c([H])c2[H])c([H])c1[H]
     RDKit          3D

110113  0  0  0  0  0  0  0  0999 V2000
  -11.4359    2.3897   -0.2911 C   0  0  0  0  0  0  0  0  0  0  0  0
  -10.9549    0.9850    0.0788 C   0  0  0  0  0  0  0  0  0  0  0  0
  -10.3924    0.4594   -1.0216 O   0  0  0  0  0  0  0  0  0  0  0  0
   -9.8942   -0.7777   -1.0855 C   0  0  0  0  0  0  0  0  0  0  0  0
   -8.7805   -1.0795   -0.1435 C   0  0  0  0  0  0  0  0  0  0  0  0
   -7.6682   -0.2051   -0.2757 N   0  0  0  0  0  0  0  0  0  0  0  0
   -6.2814   -0.4743   -0.1974 C   0  0  0  0  0  0  0  0  0  0  0  0
   -5.8805   -1.6097    0.0347 O   0  0  0  0  0  0  0  0  0  0  0  0
   -5.3059    0.6409   -0.3954 C   0  0  1  0  0  0  0  0  0  0  0  0
   -5.8070    1.8919    0.3062 C   0  0  0  0  0  0  0  0  0  0  0  0
   -4.7980    3.0010    0.0986 C   0  0  0  0  0  0  0  0  0  0  0  0
   -5.2562    4.2408    0.7898 C   0  0  0  0  0  0  0  0  0  0  0  0
   -4.3972    5.3410    0.8785 N   0  0  0  0  0  0  0  0  0  0  0  0
   -6.4065    4.2313    1.2620 O   0  0  0  0  0  0  0  0  0  0  0  0
   -3.9604    0.4629   -0.0924 N   0  0  0  0  0  0  0  0  0  0  0  0
   -2.9535   -0.1668   -0.8898 C   0  0  0  0  0  0  0  0  0  0  0  0
   -3.3195   -0.6868   -1.9421 O   0  0  0  0  0  0  0  0  0  0  0  0
   -1.5414   -0.1609   -0.4580 C   0  0  2  0  0  0  0  0  0  0  0  0
   -1.0672    1.3409   -0.7985 C   0  0  0  0  0  0  0  0  0  0  0  0
   -1.2975    1.2431   -2.2994 C   0  0  0  0  0  0  0  0  0  0  0  0
   -0.8704   -0.1774   -2.6576 C   0  0  0  0  0  0  0  0  0  0  0  0
   -0.6150   -0.7865   -1.3407 N   0  0  0  0  0  0  0  0  0  0  0  0
    0.4866   -1.5953   -1.0836 C   0  0  0  0  0  0  0  0  0  0  0  0
    1.1191   -2.1684   -2.0131 O   0  0  0  0  0  0  0  0  0  0  0  0
    0.9954   -1.8090    0.3191 C   0  0  1  0  0  0  0  0  0  0  0  0
    0.5152   -3.1089    0.8602 C   0  0  0  0  0  0  0  0  0  0  0  0
    0.9109   -4.3346    0.1852 C   0  0  0  0  0  0  0  0  0  0  0  0
    2.0551   -5.0453    0.5673 C   0  0  0  0  0  0  0  0  0  0  0  0
    2.4434   -6.2022   -0.0511 C   0  0  0  0  0  0  0  0  0  0  0  0
    1.7037   -6.7122   -1.0894 C   0  0  0  0  0  0  0  0  0  0  0  0
    0.5782   -6.0170   -1.4674 C   0  0  0  0  0  0  0  0  0  0  0  0
    0.1771   -4.8540   -0.8558 C   0  0  0  0  0  0  0  0  0  0  0  0
    2.3651   -1.5849    0.3331 N   0  0  0  0  0  0  0  0  0  0  0  0
    3.7305   -1.3666    0.3443 C   0  0  0  0  0  0  0  0  0  0  0  0
    4.6128   -2.1057   -0.1225 O   0  0  0  0  0  0  0  0  0  0  0  0
    4.2656   -0.0994    0.9806 C   0  0  1  0  0  0  0  0  0  0  0  0
    4.4999   -0.2896    2.4649 C   0  0  0  0  0  0  0  0  0  0  0  0
    5.4841   -1.3491    2.7245 C   0  0  0  0  0  0  0  0  0  0  0  0
    6.8327   -1.0573    2.7895 C   0  0  0  0  0  0  0  0  0  0  0  0
    7.7948   -2.0228    3.0216 C   0  0  0  0  0  0  0  0  0  0  0  0
    7.4079   -3.3343    3.1965 C   0  0  0  0  0  0  0  0  0  0  0  0
    8.3974   -4.3191    3.4325 O   0  0  0  0  0  0  0  0  0  0  0  0
    6.0816   -3.6430    3.1374 C   0  0  0  0  0  0  0  0  0  0  0  0
    5.1244   -2.6821    2.9059 C   0  0  0  0  0  0  0  0  0  0  0  0
    5.5852    0.2763    0.4630 N   0  0  0  0  0  0  0  0  0  0  0  0
    5.8375    1.6555    0.1970 C   0  0  0  0  0  0  0  0  0  0  0  0
    4.9387    2.4749    0.3892 O   0  0  0  0  0  0  0  0  0  0  0  0
    7.0679    2.1137   -0.2698 O   0  0  0  0  0  0  0  0  0  0  0  0
    7.2112    3.5240   -0.5052 C   0  0  0  0  0  0  0  0  0  0  0  0
    8.5370    3.9352   -0.9575 C   0  0  0  0  0  0  0  0  0  0  0  0
    9.4261    4.5928   -0.0924 C   0  0  0  0  0  0  0  0  0  0  0  0
   10.6718    5.0244   -0.5071 C   0  0  0  0  0  0  0  0  0  0  0  0
   11.0995    4.8225   -1.7997 C   0  0  0  0  0  0  0  0  0  0  0  0
   12.3573    5.2618   -2.2141 O   0  0  0  0  0  0  0  0  0  0  0  0
   10.2445    4.1756   -2.6644 C   0  0  0  0  0  0  0  0  0  0  0  0
    8.9783    3.7398   -2.2452 C   0  0  0  0  0  0  0  0  0  0  0  0
   -9.3047   -1.2950    1.2070 C   0  0  0  0  0  0  0  0  0  0  0  0
  -10.4704   -2.0801    1.3773 N   0  0  0  0  0  0  0  0  0  0  0  0
   -8.7500   -0.8042    2.2145 O   0  0  0  0  0  0  0  0  0  0  0  0
  -12.3881    2.6402    0.2180 H   0  0  0  0  0  0  0  0  0  0  0  0
  -10.6279    3.0966   -0.0068 H   0  0  0  0  0  0  0  0  0  0  0  0
  -11.5003    2.4695   -1.4113 H   0  0  0  0  0  0  0  0  0  0  0  0
  -11.8766    0.4394    0.4333 H   0  0  0  0  0  0  0  0  0  0  0  0
  -10.2230    1.1404    0.8736 H   0  0  0  0  0  0  0  0  0  0  0  0
  -10.6587   -1.5922   -0.9397 H   0  0  0  0  0  0  0  0  0  0  0  0
   -9.4553   -0.9066   -2.1405 H   0  0  0  0  0  0  0  0  0  0  0  0
   -8.3654   -2.1172   -0.4305 H   0  0  0  0  0  0  0  0  0  0  0  0
   -7.9316    0.8229   -0.4732 H   0  0  0  0  0  0  0  0  0  0  0  0
   -5.3566    0.7725   -1.5416 H   0  0  0  0  0  0  0  0  0  0  0  0
   -6.7698    2.2540   -0.1459 H   0  0  0  0  0  0  0  0  0  0  0  0
   -5.9133    1.7283    1.3857 H   0  0  0  0  0  0  0  0  0  0  0  0
   -3.7815    2.7524    0.3828 H   0  0  0  0  0  0  0  0  0  0  0  0
   -4.7758    3.2594   -0.9866 H   0  0  0  0  0  0  0  0  0  0  0  0
   -3.3603    5.2515    0.8064 H   0  0  0  0  0  0  0  0  0  0  0  0
   -4.7769    6.2959    1.0209 H   0  0  0  0  0  0  0  0  0  0  0  0
   -3.5992    0.8145    0.8615 H   0  0  0  0  0  0  0  0  0  0  0  0
   -1.3928   -0.2373    0.6024 H   0  0  0  0  0  0  0  0  0  0  0  0
   -1.6496    2.0455   -0.2723 H   0  0  0  0  0  0  0  0  0  0  0  0
    0.0044    1.2806   -0.6061 H   0  0  0  0  0  0  0  0  0  0  0  0
   -2.3428    1.4146   -2.5919 H   0  0  0  0  0  0  0  0  0  0  0  0
   -0.6156    2.0008   -2.8075 H   0  0  0  0  0  0  0  0  0  0  0  0
   -1.5190   -0.7360   -3.3041 H   0  0  0  0  0  0  0  0  0  0  0  0
    0.1652   -0.0519   -3.1052 H   0  0  0  0  0  0  0  0  0  0  0  0
    0.4939   -1.0067    0.9667 H   0  0  0  0  0  0  0  0  0  0  0  0
    0.8661   -3.2268    1.9458 H   0  0  0  0  0  0  0  0  0  0  0  0
   -0.6093   -3.1166    0.9607 H   0  0  0  0  0  0  0  0  0  0  0  0
    2.6389   -4.6270    1.4029 H   0  0  0  0  0  0  0  0  0  0  0  0
    3.3321   -6.7338    0.2692 H   0  0  0  0  0  0  0  0  0  0  0  0
    1.9945   -7.6397   -1.6021 H   0  0  0  0  0  0  0  0  0  0  0  0
   -0.0160   -6.4244   -2.2991 H   0  0  0  0  0  0  0  0  0  0  0  0
   -0.7359   -4.3261   -1.1958 H   0  0  0  0  0  0  0  0  0  0  0  0
    2.5141   -2.7256   -0.4137 H   0  0  0  0  0  0  0  0  0  0  0  0
    3.5720    0.6979    0.8149 H   0  0  0  0  0  0  0  0  0  0  0  0
    3.5979   -0.5016    3.0421 H   0  0  0  0  0  0  0  0  0  0  0  0
    4.9280    0.6743    2.8167 H   0  0  0  0  0  0  0  0  0  0  0  0
    7.1338   -0.0116    2.6516 H   0  0  0  0  0  0  0  0  0  0  0  0
    8.8372   -1.7827    3.0740 H   0  0  0  0  0  0  0  0  0  0  0  0
    8.7460   -4.7361    2.5813 H   0  0  0  0  0  0  0  0  0  0  0  0
    5.7821   -4.6683    3.2817 H   0  0  0  0  0  0  0  0  0  0  0  0
    4.0650   -2.8930    2.8471 H   0  0  0  0  0  0  0  0  0  0  0  0
    6.2804   -0.4492    0.2915 H   0  0  0  0  0  0  0  0  0  0  0  0
    6.9687    4.0161    0.4778 H   0  0  0  0  0  0  0  0  0  0  0  0
    6.3965    3.8638   -1.2129 H   0  0  0  0  0  0  0  0  0  0  0  0
    9.0701    4.7461    0.9423 H   0  0  0  0  0  0  0  0  0  0  0  0
   11.3338    5.5355    0.1970 H   0  0  0  0  0  0  0  0  0  0  0  0
   12.4057    6.1880   -2.5794 H   0  0  0  0  0  0  0  0  0  0  0  0
   10.5595    4.0115   -3.6918 H   0  0  0  0  0  0  0  0  0  0  0  0
    8.3105    3.2275   -2.9616 H   0  0  0  0  0  0  0  0  0  0  0  0
  -11.3255   -1.6529    1.7964 H   0  0  0  0  0  0  0  0  0  0  0  0
  -10.5572   -3.0963    1.1118 H   0  0  0  0  0  0  0  0  0  0  0  0
  1  2  1  0
  2  3  1  0
  3  4  1  0
  4  5  1  0
  5  6  1  0
  6  7  1  0
  7  8  2  0
  7  9  1  0
  9 10  1  0
 10 11  1  0
 11 12  1  0
 12 13  1  0
 12 14  2  0
  9 15  1  0
 15 16  1  0
 16 17  2  0
 16 18  1  0
 18 19  1  0
 19 20  1  0
 20 21  1  0
 21 22  1  0
 22 23  1  0
 23 24  2  0
 23 25  1  0
 25 26  1  0
 26 27  1  0
 27 28  2  0
 28 29  1  0
 29 30  2  0
 30 31  1  0
 31 32  2  0
 25 33  1  0
 33 34  1  0
 34 35  2  0
 34 36  1  0
 36 37  1  0
 37 38  1  0
 38 39  2  0
 39 40  1  0
 40 41  2  0
 41 42  1  0
 41 43  1  0
 43 44  2  0
 36 45  1  0
 45 46  1  0
 46 47  2  0
 46 48  1  0
 48 49  1  0
 49 50  1  0
 50 51  2  0
 51 52  1  0
 52 53  2  0
 53 54  1  0
 53 55  1  0
 55 56  2  0
  5 57  1  0
 57 58  1  0
 57 59  2  0
 22 18  1  0
 32 27  1  0
 44 38  1  0
 56 50  1  0
  1 60  1  0
  1 61  1  0
  1 62  1  0
  2 63  1  0
  2 64  1  0
  4 65  1  0
  4 66  1  0
  5 67  1  0
  6 68  1  0
  9 69  1  6
 10 70  1  0
 10 71  1  0
 11 72  1  0
 11 73  1  0
 13 74  1  0
 13 75  1  0
 15 76  1  0
 18 77  1  1
 19 78  1  0
 19 79  1  0
 20 80  1  0
 20 81  1  0
 21 82  1  0
 21 83  1  0
 25 84  1  1
 26 85  1  0
 26 86  1  0
 28 87  1  0
 29 88  1  0
 30 89  1  0
 31 90  1  0
 32 91  1  0
 33 92  1  0
 36 93  1  1
 37 94  1  0
 37 95  1  0
 39 96  1  0
 40 97  1  0
 42 98  1  0
 43 99  1  0
 44100  1  0
 45101  1  0
 49102  1  0
 49103  1  0
 51104  1  0
 52105  1  0
 54106  1  0
 55107  1  0
 56108  1  0
 58109  1  0
 58110  1  0
M  END
$$$$
[H]c1c([H])c([H])c(C(=O)C2([H])C([H])([H])C([H])([H])N(C([H])([H])C([H])([H])C([H])([H])N([H])C(=O)N([H])c3c([H])c(N4C([H])([H])C([H])([H])N(C([H])([H])[H])C([H])([H])C4([H])[H])c4nc(C([H])(C([H])([H])[H])C([H])([H])[H])oc4c3[H])C([H])([H])C2([H])[H])c([H])c1[H]
     RDKit          3D

 82 86  0  0  0  0  0  0  0  0999 V2000
   -8.5704   -4.0236   -1.1007 C   0  0  0  0  0  0  0  0  0  0  0  0
   -7.5040   -4.2861   -0.0799 C   0  0  0  0  0  0  0  0  0  0  0  0
   -8.0906   -4.2374    1.3364 C   0  0  0  0  0  0  0  0  0  0  0  0
   -6.4290   -3.2750   -0.1876 C   0  0  0  0  0  0  0  0  0  0  0  0
   -6.6011   -1.9315   -0.0716 N   0  0  0  0  0  0  0  0  0  0  0  0
   -5.4030   -1.3380   -0.2268 C   0  0  0  0  0  0  0  0  0  0  0  0
   -4.9990   -0.0203   -0.2061 C   0  0  0  0  0  0  0  0  0  0  0  0
   -3.6417    0.2188   -0.4102 C   0  0  0  0  0  0  0  0  0  0  0  0
   -2.6978   -0.7349   -0.6248 C   0  0  0  0  0  0  0  0  0  0  0  0
   -1.3125   -0.5241   -0.8109 N   0  0  0  0  0  0  0  0  0  0  0  0
   -0.6058    0.6193   -0.4617 C   0  0  0  0  0  0  0  0  0  0  0  0
   -1.1379    1.6063    0.0793 O   0  0  0  0  0  0  0  0  0  0  0  0
    0.7967    0.6989   -0.7214 N   0  0  0  0  0  0  0  0  0  0  0  0
    1.5080    1.8822   -0.3567 C   0  0  0  0  0  0  0  0  0  0  0  0
    2.9840    1.7755   -0.7087 C   0  0  0  0  0  0  0  0  0  0  0  0
    3.6245    0.6206    0.0151 C   0  0  0  0  0  0  0  0  0  0  0  0
    4.9967    0.5334   -0.2871 N   0  0  0  0  0  0  0  0  0  0  0  0
    5.7394   -0.5230    0.2993 C   0  0  0  0  0  0  0  0  0  0  0  0
    7.0813   -0.7113   -0.3775 C   0  0  0  0  0  0  0  0  0  0  0  0
    7.7405    0.6252   -0.4336 C   0  0  0  0  0  0  0  0  0  0  0  0
    6.9719    1.5102   -1.3687 C   0  0  0  0  0  0  0  0  0  0  0  0
    5.5026    1.1513   -1.4445 C   0  0  0  0  0  0  0  0  0  0  0  0
    9.1656    0.4618   -0.7973 C   0  0  0  0  0  0  0  0  0  0  0  0
    9.5697    0.9168   -1.9167 O   0  0  0  0  0  0  0  0  0  0  0  0
   10.1254   -0.1985    0.0609 C   0  0  0  0  0  0  0  0  0  0  0  0
    9.8171   -0.6402    1.3180 C   0  0  0  0  0  0  0  0  0  0  0  0
   10.7642   -1.2781    2.0815 C   0  0  0  0  0  0  0  0  0  0  0  0
   12.0330   -1.4839    1.6018 C   0  0  0  0  0  0  0  0  0  0  0  0
   12.3967   -1.0543    0.3327 C   0  0  0  0  0  0  0  0  0  0  0  0
   11.4142   -0.4229   -0.3901 C   0  0  0  0  0  0  0  0  0  0  0  0
   -3.1691   -2.0612   -0.6356 C   0  0  0  0  0  0  0  0  0  0  0  0
   -4.4918   -2.3586   -0.4412 C   0  0  0  0  0  0  0  0  0  0  0  0
   -5.1492   -3.4720   -0.4078 O   0  0  0  0  0  0  0  0  0  0  0  0
   -5.9198    1.0418    0.0076 N   0  0  0  0  0  0  0  0  0  0  0  0
   -7.0022    1.1666   -0.9466 C   0  0  0  0  0  0  0  0  0  0  0  0
   -7.5387    2.5778   -0.8324 C   0  0  0  0  0  0  0  0  0  0  0  0
   -7.9665    2.7305    0.5653 N   0  0  0  0  0  0  0  0  0  0  0  0
   -8.7267    3.9888    0.5977 C   0  0  0  0  0  0  0  0  0  0  0  0
   -6.7892    2.8917    1.3892 C   0  0  0  0  0  0  0  0  0  0  0  0
   -5.7156    1.8996    1.1324 C   0  0  0  0  0  0  0  0  0  0  0  0
   -9.2698   -4.8784   -1.1111 H   0  0  0  0  0  0  0  0  0  0  0  0
   -8.0939   -3.8080   -2.0686 H   0  0  0  0  0  0  0  0  0  0  0  0
   -9.0780   -3.0726   -0.7985 H   0  0  0  0  0  0  0  0  0  0  0  0
   -7.0741   -5.2964   -0.2239 H   0  0  0  0  0  0  0  0  0  0  0  0
   -8.0897   -3.2041    1.6860 H   0  0  0  0  0  0  0  0  0  0  0  0
   -9.1325   -4.6098    1.2385 H   0  0  0  0  0  0  0  0  0  0  0  0
   -7.4590   -4.9120    1.9708 H   0  0  0  0  0  0  0  0  0  0  0  0
   -3.3608    1.2650   -0.3998 H   0  0  0  0  0  0  0  0  0  0  0  0
   -0.7704   -1.3251   -1.2678 H   0  0  0  0  0  0  0  0  0  0  0  0
    1.2667   -0.1130   -1.1737 H   0  0  0  0  0  0  0  0  0  0  0  0
    1.1321    2.7933   -0.8708 H   0  0  0  0  0  0  0  0  0  0  0  0
    1.4007    2.0504    0.7236 H   0  0  0  0  0  0  0  0  0  0  0  0
    3.4253    2.7584   -0.4950 H   0  0  0  0  0  0  0  0  0  0  0  0
    3.0622    1.6307   -1.8304 H   0  0  0  0  0  0  0  0  0  0  0  0
    3.1256   -0.3149   -0.3834 H   0  0  0  0  0  0  0  0  0  0  0  0
    3.3905    0.6828    1.1023 H   0  0  0  0  0  0  0  0  0  0  0  0
    5.8718   -0.4232    1.4012 H   0  0  0  0  0  0  0  0  0  0  0  0
    5.1820   -1.4721    0.1445 H   0  0  0  0  0  0  0  0  0  0  0  0
    6.8456   -1.0081   -1.4280 H   0  0  0  0  0  0  0  0  0  0  0  0
    7.6092   -1.5232    0.0925 H   0  0  0  0  0  0  0  0  0  0  0  0
    7.7460    1.1446    0.5556 H   0  0  0  0  0  0  0  0  0  0  0  0
    7.1174    2.5992   -1.1064 H   0  0  0  0  0  0  0  0  0  0  0  0
    7.3939    1.3958   -2.3854 H   0  0  0  0  0  0  0  0  0  0  0  0
    4.9806    2.1271   -1.6244 H   0  0  0  0  0  0  0  0  0  0  0  0
    5.3441    0.5141   -2.3412 H   0  0  0  0  0  0  0  0  0  0  0  0
    8.8355   -0.4924    1.7554 H   0  0  0  0  0  0  0  0  0  0  0  0
   10.4902   -1.6247    3.0874 H   0  0  0  0  0  0  0  0  0  0  0  0
   12.8046   -1.9924    2.1975 H   0  0  0  0  0  0  0  0  0  0  0  0
   13.4006   -1.2252   -0.0274 H   0  0  0  0  0  0  0  0  0  0  0  0
   11.6767   -0.0747   -1.3979 H   0  0  0  0  0  0  0  0  0  0  0  0
   -2.4340   -2.8455   -0.8051 H   0  0  0  0  0  0  0  0  0  0  0  0
   -7.8135    0.4229   -0.7405 H   0  0  0  0  0  0  0  0  0  0  0  0
   -6.6613    1.0286   -1.9980 H   0  0  0  0  0  0  0  0  0  0  0  0
   -8.3713    2.7649   -1.5380 H   0  0  0  0  0  0  0  0  0  0  0  0
   -6.6848    3.2691   -0.9669 H   0  0  0  0  0  0  0  0  0  0  0  0
   -8.0231    4.8413    0.5235 H   0  0  0  0  0  0  0  0  0  0  0  0
   -9.3289    4.0546    1.5289 H   0  0  0  0  0  0  0  0  0  0  0  0
   -9.3614    4.0209   -0.2990 H   0  0  0  0  0  0  0  0  0  0  0  0
   -6.3925    3.9226    1.1495 H   0  0  0  0  0  0  0  0  0  0  0  0
   -7.0965    2.9352    2.4435 H   0  0  0  0  0  0  0  0  0  0  0  0
   -4.7254    2.4184    0.9745 H   0  0  0  0  0  0  0  0  0  0  0  0
   -5.6504    1.2338    2.0386 H   0  0  0  0  0  0  0  0  0  0  0  0
  1  2  1  0
  2  3  1  0
  2  4  1  0
  4  5  2  0
  5  6  1  0
  6  7  2  0
  7  8  1  0
  8  9  2  0
  9 10  1  0
 10 11  1  0
 11 12  2  0
 11 13  1  0
 13 14  1  0
 14 15  1  0
 15 16  1  0
 16 17  1  0
 17 18  1  0
 18 19  1  0
 19 20  1  0
 20 21  1  0
 21 22  1  0
 20 23  1  0
 23 24  2  0
 23 25  1  0
 25 26  2  0
 26 27  1  0
 27 28  2  0
 28 29  1  0
 29 30  2  0
  9 31  1  0
 31 32  2  0
 32 33  1  0
  7 34  1  0
 34 35  1  0
 35 36  1  0
 36 37  1  0
 37 38  1  0
 37 39  1  0
 39 40  1  0
 33  4  1  0
 40 34  1  0
 32  6  1  0
 22 17  1  0
 30 25  1  0
  1 41  1  0
  1 42  1  0
  1 43  1  0
  2 44  1  0
  3 45  1  0
  3 46  1  0
  3 47  1  0
  8 48  1  0
 10 49  1  0
 13 50  1  0
 14 51  1  0
 14 52  1  0
 15 53  1  0
 15 54  1  0
 16 55  1  0
 16 56  1  0
 18 57  1  0
 18 58  1  0
 19 59  1  0
 19 60  1  0
 20 61  1  0
 21 62  1  0
 21 63  1  0
 22 64  1  0
 22 65  1  0
 26 66  1  0
 27 67  1  0
 28 68  1  0
 29 69  1  0
 30 70  1  0
 31 71  1  0
 35 72  1  0
 35 73  1  0
 36 74  1  0
 36 75  1  0
 38 76  1  0
 38 77  1  0
 38 78  1  0
 39 79  1  0
 39 80  1  0
 40 81  1  0
 40 82  1  0
M  END
$$$$
[H]c1nc(C(c2nc([H])c(-c3c([H])c([H])c4nc(N([H])C([H])([H])[H])sc4c3[H])n2[H])(C([H])([H])[H])C([H])([H])[H])c([H])c([H])c1[H]
     RDKit          3D

 44 47  0  0  0  0  0  0  0  0999 V2000
    8.3478    1.0654    1.4779 C   0  0  0  0  0  0  0  0  0  0  0  0
    7.5486   -0.0155    1.9972 N   0  0  0  0  0  0  0  0  0  0  0  0
    6.1666   -0.0971    1.5846 C   0  0  0  0  0  0  0  0  0  0  0  0
    5.5005    0.7003    0.7728 N   0  0  0  0  0  0  0  0  0  0  0  0
    4.2470    0.4675    0.5143 C   0  0  0  0  0  0  0  0  0  0  0  0
    3.4212    1.2338   -0.3294 C   0  0  0  0  0  0  0  0  0  0  0  0
    2.1203    0.8852   -0.5191 C   0  0  0  0  0  0  0  0  0  0  0  0
    1.5174   -0.1927    0.0639 C   0  0  0  0  0  0  0  0  0  0  0  0
    2.3220   -0.9595    0.9006 C   0  0  0  0  0  0  0  0  0  0  0  0
    3.6654   -0.6164    1.1090 C   0  0  0  0  0  0  0  0  0  0  0  0
    4.9721   -1.2464    2.0175 S   0  0  0  0  0  0  0  0  0  0  0  0
    0.1277   -0.5673   -0.1346 C   0  0  0  0  0  0  0  0  0  0  0  0
   -0.4875   -1.6542    0.4396 C   0  0  0  0  0  0  0  0  0  0  0  0
   -1.7569   -1.6486    0.0067 N   0  0  0  0  0  0  0  0  0  0  0  0
   -1.9591   -0.5981   -0.8175 C   0  0  0  0  0  0  0  0  0  0  0  0
   -0.8037    0.0539   -0.8962 N   0  0  0  0  0  0  0  0  0  0  0  0
   -3.2567   -0.2865   -1.4788 C   0  0  0  0  0  0  0  0  0  0  0  0
   -3.1060    0.8909   -2.4282 C   0  0  0  0  0  0  0  0  0  0  0  0
   -3.6496   -1.4844   -2.3173 C   0  0  0  0  0  0  0  0  0  0  0  0
   -4.3035    0.0020   -0.4701 C   0  0  0  0  0  0  0  0  0  0  0  0
   -4.2180    1.0559    0.4141 C   0  0  0  0  0  0  0  0  0  0  0  0
   -5.1988    1.3130    1.3470 C   0  0  0  0  0  0  0  0  0  0  0  0
   -6.3043    0.4926    1.4025 C   0  0  0  0  0  0  0  0  0  0  0  0
   -6.3748   -0.5548    0.5133 C   0  0  0  0  0  0  0  0  0  0  0  0
   -5.4039   -0.7615   -0.3671 N   0  0  0  0  0  0  0  0  0  0  0  0
    9.4342    0.8077    1.5078 H   0  0  0  0  0  0  0  0  0  0  0  0
    8.2241    2.0134    2.0729 H   0  0  0  0  0  0  0  0  0  0  0  0
    8.1168    1.2444    0.3897 H   0  0  0  0  0  0  0  0  0  0  0  0
    7.9619   -0.6937    2.6361 H   0  0  0  0  0  0  0  0  0  0  0  0
    3.8159    2.1184   -0.8426 H   0  0  0  0  0  0  0  0  0  0  0  0
    1.4991    1.4953   -1.1785 H   0  0  0  0  0  0  0  0  0  0  0  0
    1.9819   -1.8290    1.4213 H   0  0  0  0  0  0  0  0  0  0  0  0
   -0.0786   -2.3888    1.1064 H   0  0  0  0  0  0  0  0  0  0  0  0
   -0.5944    0.9111   -1.4425 H   0  0  0  0  0  0  0  0  0  0  0  0
   -2.7541    0.5704   -3.4316 H   0  0  0  0  0  0  0  0  0  0  0  0
   -2.4126    1.6396   -2.0108 H   0  0  0  0  0  0  0  0  0  0  0  0
   -4.1360    1.3219   -2.5999 H   0  0  0  0  0  0  0  0  0  0  0  0
   -4.4205   -1.1738   -3.0583 H   0  0  0  0  0  0  0  0  0  0  0  0
   -2.7588   -1.9083   -2.8113 H   0  0  0  0  0  0  0  0  0  0  0  0
   -4.1377   -2.2734   -1.6908 H   0  0  0  0  0  0  0  0  0  0  0  0
   -3.3479    1.7071    0.3761 H   0  0  0  0  0  0  0  0  0  0  0  0
   -5.1679    2.1268    2.0549 H   0  0  0  0  0  0  0  0  0  0  0  0
   -7.1046    0.6753    2.1391 H   0  0  0  0  0  0  0  0  0  0  0  0
   -7.2542   -1.2047    0.5594 H   0  0  0  0  0  0  0  0  0  0  0  0
  1  2  1  0
  2  3  1  0
  3  4  2  0
  4  5  1  0
  5  6  2  0
  6  7  1  0
  7  8  2  0
  8  9  1  0
  9 10  2  0
 10 11  1  0
  8 12  1  0
 12 13  2  0
 13 14  1  0
 14 15  2  0
 15 16  1  0
 15 17  1  0
 17 18  1  0
 17 19  1  0
 17 20  1  0
 20 21  2  0
 21 22  1  0
 22 23  2  0
 23 24  1  0
 24 25  2  0
 11  3  1  0
 16 12  1  0
 25 20  1  0
 10  5  1  0
  1 26  1  0
  1 27  1  0
  1 28  1  0
  2 29  1  0
  6 30  1  0
  7 31  1  0
  9 32  1  0
 13 33  1  0
 16 34  1  0
 18 35  1  0
 18 36  1  0
 18 37  1  0
 19 38  1  0
 19 39  1  0
 19 40  1  0
 21 41  1  0
 22 42  1  0
 23 43  1  0
 24 44  1  0
M  END
$$$$
[H]c1c([H])c([H])c(N2c3c([H])c([H])c([H])c([H])c3C(=O)N([H])c3c([H])c([H])c([H])c(N([H])c4nc5c([H])c([H])c([H])c([H])c5s4)c32)c([H])c1[H]
     RDKit          3D

 50 55  0  0  0  0  0  0  0  0999 V2000
   -5.1789   -2.8378    1.1099 O   0  0  0  0  0  0  0  0  0  0  0  0
   -4.1591   -2.1884    0.7990 C   0  0  0  0  0  0  0  0  0  0  0  0
   -2.9551   -2.9755    0.7851 N   0  0  0  0  0  0  0  0  0  0  0  0
   -1.6392   -2.4658    1.0055 C   0  0  0  0  0  0  0  0  0  0  0  0
   -0.8354   -3.3988    1.6202 C   0  0  0  0  0  0  0  0  0  0  0  0
    0.4766   -3.1151    1.9643 C   0  0  0  0  0  0  0  0  0  0  0  0
    0.9197   -1.8540    1.6593 C   0  0  0  0  0  0  0  0  0  0  0  0
    0.1529   -0.8571    1.0361 C   0  0  0  0  0  0  0  0  0  0  0  0
    0.6456    0.4063    0.9791 N   0  0  0  0  0  0  0  0  0  0  0  0
    2.0150    0.7362    0.8404 C   0  0  0  0  0  0  0  0  0  0  0  0
    3.1044    0.0157    0.6944 N   0  0  0  0  0  0  0  0  0  0  0  0
    4.2768    0.5375    0.5838 C   0  0  0  0  0  0  0  0  0  0  0  0
    5.4892   -0.1696    0.4248 C   0  0  0  0  0  0  0  0  0  0  0  0
    6.6701    0.5062    0.3187 C   0  0  0  0  0  0  0  0  0  0  0  0
    6.7724    1.8790    0.3566 C   0  0  0  0  0  0  0  0  0  0  0  0
    5.5916    2.5761    0.5118 C   0  0  0  0  0  0  0  0  0  0  0  0
    4.3685    1.9019    0.6225 C   0  0  0  0  0  0  0  0  0  0  0  0
    2.7334    2.3348    0.8184 S   0  0  0  0  0  0  0  0  0  0  0  0
   -1.1364   -1.1899    0.7091 C   0  0  0  0  0  0  0  0  0  0  0  0
   -1.7816   -0.1454   -0.0737 N   0  0  0  0  0  0  0  0  0  0  0  0
   -1.0513    0.4723   -1.0832 C   0  0  0  0  0  0  0  0  0  0  0  0
   -0.6400    1.7345   -1.4407 C   0  0  0  0  0  0  0  0  0  0  0  0
   -0.0027    2.1268   -2.5662 C   0  0  0  0  0  0  0  0  0  0  0  0
    0.3052    1.2066   -3.5089 C   0  0  0  0  0  0  0  0  0  0  0  0
   -0.0558   -0.1136   -3.2655 C   0  0  0  0  0  0  0  0  0  0  0  0
   -0.6947   -0.4568   -2.1218 C   0  0  0  0  0  0  0  0  0  0  0  0
   -3.1967    0.1043    0.1055 C   0  0  0  0  0  0  0  0  0  0  0  0
   -3.5040    1.3903   -0.1787 C   0  0  0  0  0  0  0  0  0  0  0  0
   -4.8294    1.8295   -0.0888 C   0  0  0  0  0  0  0  0  0  0  0  0
   -5.8234    0.9644    0.2861 C   0  0  0  0  0  0  0  0  0  0  0  0
   -5.5379   -0.3541    0.5809 C   0  0  0  0  0  0  0  0  0  0  0  0
   -4.2347   -0.7709    0.4882 C   0  0  0  0  0  0  0  0  0  0  0  0
   -3.0072   -3.9881    0.6087 H   0  0  0  0  0  0  0  0  0  0  0  0
   -1.2555   -4.3729    1.8308 H   0  0  0  0  0  0  0  0  0  0  0  0
    1.0932   -3.8535    2.4410 H   0  0  0  0  0  0  0  0  0  0  0  0
    1.9123   -1.6148    1.9332 H   0  0  0  0  0  0  0  0  0  0  0  0
    0.0273    1.1976    1.1407 H   0  0  0  0  0  0  0  0  0  0  0  0
    5.5132   -1.2548    0.3833 H   0  0  0  0  0  0  0  0  0  0  0  0
    7.6027   -0.0714    0.1952 H   0  0  0  0  0  0  0  0  0  0  0  0
    7.6912    2.4142    0.2744 H   0  0  0  0  0  0  0  0  0  0  0  0
    5.5319    3.6480    0.5567 H   0  0  0  0  0  0  0  0  0  0  0  0
   -0.8109    2.5071   -0.6604 H   0  0  0  0  0  0  0  0  0  0  0  0
    0.2474    3.1681   -2.6898 H   0  0  0  0  0  0  0  0  0  0  0  0
    0.8109    1.5132   -4.4043 H   0  0  0  0  0  0  0  0  0  0  0  0
    0.2034   -0.8280   -4.0349 H   0  0  0  0  0  0  0  0  0  0  0  0
   -0.9588   -1.4825   -1.9624 H   0  0  0  0  0  0  0  0  0  0  0  0
   -2.7347    2.0324   -0.4757 H   0  0  0  0  0  0  0  0  0  0  0  0
   -4.9757    2.8709   -0.3345 H   0  0  0  0  0  0  0  0  0  0  0  0
   -6.8351    1.3155    0.3512 H   0  0  0  0  0  0  0  0  0  0  0  0
   -6.3208   -1.0303    0.8747 H   0  0  0  0  0  0  0  0  0  0  0  0
  1  2  2  0
  2  3  1  0
  3  4  1  0
  4  5  2  0
  5  6  1  0
  6  7  2  0
  7  8  1  0
  8  9  1  0
  9 10  1  0
 10 11  2  0
 11 12  1  0
 12 13  2  0
 13 14  1  0
 14 15  2  0
 15 16  1  0
 16 17  2  0
 17 18  1  0
  8 19  2  0
 19 20  1  0
 20 21  1  0
 21 22  2  0
 22 23  1  0
 23 24  2  0
 24 25  1  0
 25 26  2  0
 20 27  1  0
 27 28  2  0
 28 29  1  0
 29 30  2  0
 30 31  1  0
 31 32  2  0
 32  2  1  0
 19  4  1  0
 26 21  1  0
 32 27  1  0
 18 10  1  0
 17 12  1  0
  3 33  1  0
  5 34  1  0
  6 35  1  0
  7 36  1  0
  9 37  1  0
 13 38  1  0
 14 39  1  0
 15 40  1  0
 16 41  1  0
 22 42  1  0
 23 43  1  0
 24 44  1  0
 25 45  1  0
 26 46  1  0
 28 47  1  0
 29 48  1  0
 30 49  1  0
 31 50  1  0
M  END
$$$$
[H]Oc1c(C(=O)OC(C([H])([H])[H])(C([H])([H])[H])C([H])([H])[H])c(N([H])[H])c(C(=O)N2C([H])([H])C([H])([H])C([H])([H])[C@]2([H])C([H])([H])N([H])C(=O)c2sc([H])c([H])c2N([H])[H])c([H])c1N1C([H])([H])C([H])([H])C([H])(C(=O)N2C([H])([H])C(F)(F)C2([H])[H])C([H])([H])C1([H])[H]
     RDKit          3D

 86 90  0  0  0  0  0  0  0  0999 V2000
   -0.8204   -7.5093    0.1710 C   0  0  0  0  0  0  0  0  0  0  0  0
    0.4066   -6.6870    0.3863 C   0  0  0  0  0  0  0  0  0  0  0  0
    0.8103   -6.8016    1.8349 C   0  0  0  0  0  0  0  0  0  0  0  0
    1.5168   -7.2773   -0.4538 C   0  0  0  0  0  0  0  0  0  0  0  0
    0.1982   -5.3183    0.0981 O   0  0  0  0  0  0  0  0  0  0  0  0
    1.1987   -4.3747    0.2292 C   0  0  0  0  0  0  0  0  0  0  0  0
    2.2922   -4.7876    0.6123 O   0  0  0  0  0  0  0  0  0  0  0  0
    0.9445   -2.9860   -0.0743 C   0  0  0  0  0  0  0  0  0  0  0  0
   -0.3431   -2.6386   -0.4985 C   0  0  0  0  0  0  0  0  0  0  0  0
   -1.3049   -3.6650   -0.6056 N   0  0  0  0  0  0  0  0  0  0  0  0
   -0.7213   -1.3392   -0.8190 C   0  0  0  0  0  0  0  0  0  0  0  0
    0.2556   -0.3942   -0.6944 C   0  0  0  0  0  0  0  0  0  0  0  0
    1.5648   -0.6796   -0.2742 C   0  0  0  0  0  0  0  0  0  0  0  0
    2.5332    0.3528   -0.1672 N   0  0  0  0  0  0  0  0  0  0  0  0
    3.1847    0.5449    1.1213 C   0  0  0  0  0  0  0  0  0  0  0  0
    3.4243    1.9950    1.4067 C   0  0  0  0  0  0  0  0  0  0  0  0
    4.2095    2.5838    0.2467 C   0  0  0  0  0  0  0  0  0  0  0  0
    3.3227    2.5348   -0.9720 C   0  0  0  0  0  0  0  0  0  0  0  0
    2.8224    1.1620   -1.3124 C   0  0  0  0  0  0  0  0  0  0  0  0
    4.4502    4.0170    0.5557 C   0  0  0  0  0  0  0  0  0  0  0  0
    3.8359    4.4872    1.5832 O   0  0  0  0  0  0  0  0  0  0  0  0
    5.2778    4.8743   -0.1735 N   0  0  0  0  0  0  0  0  0  0  0  0
    6.1269    4.8102   -1.3316 C   0  0  0  0  0  0  0  0  0  0  0  0
    5.7796    6.2886   -1.5672 C   0  0  0  0  0  0  0  0  0  0  0  0
    6.8083    7.0246   -2.0735 F   0  0  0  0  0  0  0  0  0  0  0  0
    4.5644    6.4541   -2.1923 F   0  0  0  0  0  0  0  0  0  0  0  0
    5.6529    6.2720   -0.0572 C   0  0  0  0  0  0  0  0  0  0  0  0
    1.9000   -1.9983    0.0367 C   0  0  0  0  0  0  0  0  0  0  0  0
    3.1930   -2.2178    0.4405 O   0  0  0  0  0  0  0  0  0  0  0  0
   -2.0608   -1.1109   -1.2427 C   0  0  0  0  0  0  0  0  0  0  0  0
   -2.8280   -2.1758   -1.2858 O   0  0  0  0  0  0  0  0  0  0  0  0
   -2.7476    0.0786   -1.6395 N   0  0  0  0  0  0  0  0  0  0  0  0
   -2.2328    1.3872   -1.7083 C   0  0  0  0  0  0  0  0  0  0  0  0
   -3.3709    2.2792   -2.1770 C   0  0  0  0  0  0  0  0  0  0  0  0
   -4.2933    1.3067   -2.8708 C   0  0  0  0  0  0  0  0  0  0  0  0
   -4.1063    0.0181   -2.0706 C   0  0  2  0  0  0  0  0  0  0  0  0
   -5.1914   -0.1932   -1.0932 C   0  0  0  0  0  0  0  0  0  0  0  0
   -5.4287    0.7093   -0.0411 N   0  0  0  0  0  0  0  0  0  0  0  0
   -4.6944    1.0653    1.0893 C   0  0  0  0  0  0  0  0  0  0  0  0
   -3.6015    0.5917    1.4111 O   0  0  0  0  0  0  0  0  0  0  0  0
   -5.2763    2.1087    1.9914 C   0  0  0  0  0  0  0  0  0  0  0  0
   -6.7470    2.9535    1.8235 S   0  0  0  0  0  0  0  0  0  0  0  0
   -6.6636    3.9267    3.2176 C   0  0  0  0  0  0  0  0  0  0  0  0
   -5.4725    3.5566    3.7795 C   0  0  0  0  0  0  0  0  0  0  0  0
   -4.7524    2.6154    3.1464 C   0  0  0  0  0  0  0  0  0  0  0  0
   -3.4712    2.1309    3.6370 N   0  0  0  0  0  0  0  0  0  0  0  0
   -1.4300   -7.2205   -0.6884 H   0  0  0  0  0  0  0  0  0  0  0  0
   -1.4893   -7.5429    1.0743 H   0  0  0  0  0  0  0  0  0  0  0  0
   -0.5314   -8.5820    0.0058 H   0  0  0  0  0  0  0  0  0  0  0  0
    0.7542   -5.7978    2.2988 H   0  0  0  0  0  0  0  0  0  0  0  0
    0.1453   -7.5098    2.3850 H   0  0  0  0  0  0  0  0  0  0  0  0
    1.8728   -7.1010    1.9009 H   0  0  0  0  0  0  0  0  0  0  0  0
    1.5298   -6.8766   -1.4863 H   0  0  0  0  0  0  0  0  0  0  0  0
    1.3206   -8.3668   -0.5365 H   0  0  0  0  0  0  0  0  0  0  0  0
    2.5091   -7.1797    0.0454 H   0  0  0  0  0  0  0  0  0  0  0  0
   -1.4850   -4.2423   -1.4411 H   0  0  0  0  0  0  0  0  0  0  0  0
   -1.8963   -3.8598    0.2518 H   0  0  0  0  0  0  0  0  0  0  0  0
    0.0609    0.6457   -0.9195 H   0  0  0  0  0  0  0  0  0  0  0  0
    2.6008    0.1183    1.9594 H   0  0  0  0  0  0  0  0  0  0  0  0
    4.1946    0.0572    1.0109 H   0  0  0  0  0  0  0  0  0  0  0  0
    4.0256    2.0809    2.3214 H   0  0  0  0  0  0  0  0  0  0  0  0
    2.4570    2.5345    1.4671 H   0  0  0  0  0  0  0  0  0  0  0  0
    5.1748    2.0710    0.1107 H   0  0  0  0  0  0  0  0  0  0  0  0
    2.4952    3.2572   -0.8150 H   0  0  0  0  0  0  0  0  0  0  0  0
    3.9102    2.8886   -1.8384 H   0  0  0  0  0  0  0  0  0  0  0  0
    1.8517    1.3059   -1.8682 H   0  0  0  0  0  0  0  0  0  0  0  0
    3.4838    0.6015   -2.0030 H   0  0  0  0  0  0  0  0  0  0  0  0
    5.8498    4.1701   -2.1618 H   0  0  0  0  0  0  0  0  0  0  0  0
    7.2080    4.7709   -1.0330 H   0  0  0  0  0  0  0  0  0  0  0  0
    4.8499    6.9528    0.2930 H   0  0  0  0  0  0  0  0  0  0  0  0
    6.5880    6.4602    0.4954 H   0  0  0  0  0  0  0  0  0  0  0  0
    3.6440   -3.0162    0.6985 H   0  0  0  0  0  0  0  0  0  0  0  0
   -1.3860    1.4672   -2.4501 H   0  0  0  0  0  0  0  0  0  0  0  0
   -1.8900    1.7816   -0.7086 H   0  0  0  0  0  0  0  0  0  0  0  0
   -2.9597    2.9937   -2.9496 H   0  0  0  0  0  0  0  0  0  0  0  0
   -3.8790    2.8099   -1.3693 H   0  0  0  0  0  0  0  0  0  0  0  0
   -5.3247    1.6567   -2.8532 H   0  0  0  0  0  0  0  0  0  0  0  0
   -3.9657    1.1683   -3.9134 H   0  0  0  0  0  0  0  0  0  0  0  0
   -4.2050   -0.8008   -2.8822 H   0  0  0  0  0  0  0  0  0  0  0  0
   -5.1452   -1.2789   -0.6827 H   0  0  0  0  0  0  0  0  0  0  0  0
   -6.1565   -0.2860   -1.7098 H   0  0  0  0  0  0  0  0  0  0  0  0
   -6.3814    1.2452   -0.1233 H   0  0  0  0  0  0  0  0  0  0  0  0
   -7.3683    4.6833    3.6132 H   0  0  0  0  0  0  0  0  0  0  0  0
   -5.1334    4.0343    4.7295 H   0  0  0  0  0  0  0  0  0  0  0  0
   -3.4225    1.5588    4.4913 H   0  0  0  0  0  0  0  0  0  0  0  0
   -2.6218    2.3722    3.1132 H   0  0  0  0  0  0  0  0  0  0  0  0
  1  2  1  0
  2  3  1  0
  2  4  1  0
  2  5  1  0
  5  6  1  0
  6  7  2  0
  6  8  1  0
  8  9  2  0
  9 10  1  0
  9 11  1  0
 11 12  2  0
 12 13  1  0
 13 14  1  0
 14 15  1  0
 15 16  1  0
 16 17  1  0
 17 18  1  0
 18 19  1  0
 17 20  1  0
 20 21  2  0
 20 22  1  0
 22 23  1  0
 23 24  1  0
 24 25  1  0
 24 26  1  0
 24 27  1  0
 13 28  2  0
 28 29  1  0
 11 30  1  0
 30 31  2  0
 30 32  1  0
 32 33  1  0
 33 34  1  0
 34 35  1  0
 35 36  1  0
 36 37  1  0
 37 38  1  0
 38 39  1  0
 39 40  2  0
 39 41  1  0
 41 42  1  0
 42 43  1  0
 43 44  2  0
 44 45  1  0
 45 46  1  0
 28  8  1  0
 36 32  1  0
 45 41  2  0
 19 14  1  0
 27 22  1  0
  1 47  1  0
  1 48  1  0
  1 49  1  0
  3 50  1  0
  3 51  1  0
  3 52  1  0
  4 53  1  0
  4 54  1  0
  4 55  1  0
 10 56  1  0
 10 57  1  0
 12 58  1  0
 15 59  1  0
 15 60  1  0
 16 61  1  0
 16 62  1  0
 17 63  1  0
 18 64  1  0
 18 65  1  0
 19 66  1  0
 19 67  1  0
 23 68  1  0
 23 69  1  0
 27 70  1  0
 27 71  1  0
 29 72  1  0
 33 73  1  0
 33 74  1  0
 34 75  1  0
 34 76  1  0
 35 77  1  0
 35 78  1  0
 36 79  1  6
 37 80  1  0
 37 81  1  0
 38 82  1  0
 43 83  1  0
 44 84  1  0
 46 85  1  0
 46 86  1  0
M  END
$$$$
[H]OC(=O)/C1=C(/[H])c2c([H])c(C([H])([H])c3c([H])c([H])c(O[H])c([H])c3[H])c([H])c([H])c2C(=O)C([H])([H])c2c([H])c([H])c([H])c([H])c21
     RDKit          3D

 46 49  0  0  0  0  0  0  0  0999 V2000
    5.7826    3.1573    0.7568 O   0  0  0  0  0  0  0  0  0  0  0  0
    5.1896    1.9619    0.4425 C   0  0  0  0  0  0  0  0  0  0  0  0
    5.2436    0.9355    1.3584 C   0  0  0  0  0  0  0  0  0  0  0  0
    4.6393   -0.2564    1.0173 C   0  0  0  0  0  0  0  0  0  0  0  0
    3.9942   -0.4274   -0.2074 C   0  0  0  0  0  0  0  0  0  0  0  0
    3.3651   -1.7640   -0.4874 C   0  0  0  0  0  0  0  0  0  0  0  0
    1.9770   -1.6851    0.0112 C   0  0  0  0  0  0  0  0  0  0  0  0
    1.6390   -2.0261    1.2889 C   0  0  0  0  0  0  0  0  0  0  0  0
    0.3328   -1.9413    1.7241 C   0  0  0  0  0  0  0  0  0  0  0  0
   -0.6931   -1.5125    0.9033 C   0  0  0  0  0  0  0  0  0  0  0  0
   -1.9321   -1.5497    1.6749 C   0  0  0  0  0  0  0  0  0  0  0  0
   -1.7128   -1.8497    2.8739 O   0  0  0  0  0  0  0  0  0  0  0  0
   -3.3930   -1.3368    1.4646 C   0  0  0  0  0  0  0  0  0  0  0  0
   -3.6498   -0.0977    0.6846 C   0  0  0  0  0  0  0  0  0  0  0  0
   -4.5195    0.6402    1.4457 C   0  0  0  0  0  0  0  0  0  0  0  0
   -4.9306    1.8939    0.9973 C   0  0  0  0  0  0  0  0  0  0  0  0
   -4.4715    2.3964   -0.1985 C   0  0  0  0  0  0  0  0  0  0  0  0
   -3.5948    1.6830   -0.9911 C   0  0  0  0  0  0  0  0  0  0  0  0
   -3.2089    0.4370   -0.5158 C   0  0  0  0  0  0  0  0  0  0  0  0
   -2.3223   -0.0400   -1.5876 C   0  0  0  0  0  0  0  0  0  0  0  0
   -1.1473   -0.6918   -1.4948 C   0  0  0  0  0  0  0  0  0  0  0  0
   -0.3090   -1.1764   -0.3827 C   0  0  0  0  0  0  0  0  0  0  0  0
    0.9728   -1.2456   -0.8554 C   0  0  0  0  0  0  0  0  0  0  0  0
   -2.7925    0.2150   -2.9052 C   0  0  0  0  0  0  0  0  0  0  0  0
   -3.9868    0.7848   -3.2164 O   0  0  0  0  0  0  0  0  0  0  0  0
   -2.0253   -0.1198   -3.8745 O   0  0  0  0  0  0  0  0  0  0  0  0
    3.9470    0.6080   -1.1159 C   0  0  0  0  0  0  0  0  0  0  0  0
    4.5585    1.8198   -0.7754 C   0  0  0  0  0  0  0  0  0  0  0  0
    5.3586    3.9324    1.2183 H   0  0  0  0  0  0  0  0  0  0  0  0
    5.7509    1.0688    2.3222 H   0  0  0  0  0  0  0  0  0  0  0  0
    4.6622   -1.0958    1.7216 H   0  0  0  0  0  0  0  0  0  0  0  0
    3.9546   -2.5456    0.0201 H   0  0  0  0  0  0  0  0  0  0  0  0
    3.3885   -1.9298   -1.5850 H   0  0  0  0  0  0  0  0  0  0  0  0
    2.4271   -2.3732    1.9759 H   0  0  0  0  0  0  0  0  0  0  0  0
    0.1022   -2.2233    2.7541 H   0  0  0  0  0  0  0  0  0  0  0  0
   -3.8821   -1.2500    2.4303 H   0  0  0  0  0  0  0  0  0  0  0  0
   -3.7970   -2.1951    0.8604 H   0  0  0  0  0  0  0  0  0  0  0  0
   -4.9206    0.3133    2.3929 H   0  0  0  0  0  0  0  0  0  0  0  0
   -5.6162    2.5160    1.5591 H   0  0  0  0  0  0  0  0  0  0  0  0
   -4.7711    3.3818   -0.5898 H   0  0  0  0  0  0  0  0  0  0  0  0
   -3.1801    2.0631   -1.9039 H   0  0  0  0  0  0  0  0  0  0  0  0
   -0.7082   -0.9046   -2.4441 H   0  0  0  0  0  0  0  0  0  0  0  0
    1.1655   -0.9655   -1.8656 H   0  0  0  0  0  0  0  0  0  0  0  0
   -4.8589    0.2826   -3.3529 H   0  0  0  0  0  0  0  0  0  0  0  0
    3.4476    0.4784   -2.0661 H   0  0  0  0  0  0  0  0  0  0  0  0
    4.5249    2.6342   -1.4826 H   0  0  0  0  0  0  0  0  0  0  0  0
  1  2  1  0
  2  3  2  0
  3  4  1  0
  4  5  2  0
  5  6  1  0
  6  7  1  0
  7  8  2  0
  8  9  1  0
  9 10  2  0
 10 11  1  0
 11 12  2  0
 11 13  1  0
 13 14  1  0
 14 15  2  0
 15 16  1  0
 16 17  2  0
 17 18  1  0
 18 19  2  0
 19 20  1  0
 20 21  2  0
 21 22  1  0
 22 23  2  0
 20 24  1  0
 24 25  1  0
 24 26  2  0
  5 27  1  0
 27 28  2  0
 28  2  1  0
 23  7  1  0
 22 10  1  0
 19 14  1  0
  1 29  1  0
  3 30  1  0
  4 31  1  0
  6 32  1  0
  6 33  1  0
  8 34  1  0
  9 35  1  0
 13 36  1  0
 13 37  1  0
 15 38  1  0
 16 39  1  0
 17 40  1  0
 18 41  1  0
 21 42  1  0
 23 43  1  0
 25 44  1  0
 27 45  1  0
 28 46  1  0
M  END
$$$$
[H]c1c([H])c([H])c2c(c1[H])OC1(C([H])([H])N2C([H])([H])[H])C([H])([H])C([H])([H])C([H])(C(=O)N([H])c2c([H])c(Cl)c([H])c(Cl)c2[H])C([H])([H])C1([H])[H]
     RDKit          3D

 49 52  0  0  0  0  0  0  0  0999 V2000
   -5.0680    1.6454    1.3974 C   0  0  0  0  0  0  0  0  0  0  0  0
   -3.9786    0.7923    0.9241 N   0  0  0  0  0  0  0  0  0  0  0  0
   -2.6988    0.9622    1.5560 C   0  0  0  0  0  0  0  0  0  0  0  0
   -1.6285    0.0786    0.9865 C   0  0  0  0  0  0  0  0  0  0  0  0
   -0.7301   -0.3488    2.1161 C   0  0  0  0  0  0  0  0  0  0  0  0
    0.5245   -0.9926    1.5545 C   0  0  0  0  0  0  0  0  0  0  0  0
    1.2418    0.1042    0.8041 C   0  0  0  0  0  0  0  0  0  0  0  0
    0.4295    0.3486   -0.4417 C   0  0  0  0  0  0  0  0  0  0  0  0
   -0.9287    0.8317   -0.0967 C   0  0  0  0  0  0  0  0  0  0  0  0
    2.6271   -0.3202    0.5019 C   0  0  0  0  0  0  0  0  0  0  0  0
    2.9602   -1.4532    0.8944 O   0  0  0  0  0  0  0  0  0  0  0  0
    3.5284    0.4992   -0.1890 N   0  0  0  0  0  0  0  0  0  0  0  0
    4.8644    0.2494   -0.5480 C   0  0  0  0  0  0  0  0  0  0  0  0
    5.4791    1.1455   -1.4294 C   0  0  0  0  0  0  0  0  0  0  0  0
    6.7858    0.9776   -1.8215 C   0  0  0  0  0  0  0  0  0  0  0  0
    7.4863    2.1392   -2.9262 Cl  0  0  0  0  0  0  0  0  0  0  0  0
    7.5503   -0.0674   -1.3741 C   0  0  0  0  0  0  0  0  0  0  0  0
    6.9749   -0.9621   -0.5089 C   0  0  0  0  0  0  0  0  0  0  0  0
    7.8559   -2.3213    0.1174 Cl  0  0  0  0  0  0  0  0  0  0  0  0
    5.6426   -0.7942   -0.1067 C   0  0  0  0  0  0  0  0  0  0  0  0
   -2.1591   -1.1108    0.4190 O   0  0  0  0  0  0  0  0  0  0  0  0
   -3.3029   -1.1044   -0.3572 C   0  0  0  0  0  0  0  0  0  0  0  0
   -3.4999   -2.0326   -1.3450 C   0  0  0  0  0  0  0  0  0  0  0  0
   -4.6726   -1.9633   -2.0831 C   0  0  0  0  0  0  0  0  0  0  0  0
   -5.6453   -1.0147   -1.8763 C   0  0  0  0  0  0  0  0  0  0  0  0
   -5.4247   -0.0870   -0.8728 C   0  0  0  0  0  0  0  0  0  0  0  0
   -4.2493   -0.1361   -0.1143 C   0  0  0  0  0  0  0  0  0  0  0  0
   -4.7087    2.4344    2.0878 H   0  0  0  0  0  0  0  0  0  0  0  0
   -5.7652    1.0134    1.9773 H   0  0  0  0  0  0  0  0  0  0  0  0
   -5.5701    2.1760    0.5636 H   0  0  0  0  0  0  0  0  0  0  0  0
   -2.8313    0.8164    2.6608 H   0  0  0  0  0  0  0  0  0  0  0  0
   -2.4386    2.0548    1.4546 H   0  0  0  0  0  0  0  0  0  0  0  0
   -1.2401   -1.0864    2.7394 H   0  0  0  0  0  0  0  0  0  0  0  0
   -0.4029    0.5614    2.6551 H   0  0  0  0  0  0  0  0  0  0  0  0
    1.1276   -1.4416    2.3525 H   0  0  0  0  0  0  0  0  0  0  0  0
    0.2542   -1.7696    0.7956 H   0  0  0  0  0  0  0  0  0  0  0  0
    1.2098    1.0396    1.4086 H   0  0  0  0  0  0  0  0  0  0  0  0
    0.3428   -0.6023   -1.0286 H   0  0  0  0  0  0  0  0  0  0  0  0
    0.9306    1.1116   -1.0653 H   0  0  0  0  0  0  0  0  0  0  0  0
   -0.8600    1.9238    0.1625 H   0  0  0  0  0  0  0  0  0  0  0  0
   -1.5679    0.7950   -1.0099 H   0  0  0  0  0  0  0  0  0  0  0  0
    3.1322    1.4456   -0.4726 H   0  0  0  0  0  0  0  0  0  0  0  0
    4.8915    1.9894   -1.8041 H   0  0  0  0  0  0  0  0  0  0  0  0
    8.5895   -0.1973   -1.6888 H   0  0  0  0  0  0  0  0  0  0  0  0
    5.2150   -1.5066    0.5797 H   0  0  0  0  0  0  0  0  0  0  0  0
   -2.7442   -2.7887   -1.5233 H   0  0  0  0  0  0  0  0  0  0  0  0
   -4.8166   -2.7010   -2.8596 H   0  0  0  0  0  0  0  0  0  0  0  0
   -6.5557   -1.0022   -2.4873 H   0  0  0  0  0  0  0  0  0  0  0  0
   -6.1563    0.6691   -0.6780 H   0  0  0  0  0  0  0  0  0  0  0  0
  1  2  1  0
  2  3  1  0
  3  4  1  0
  4  5  1  0
  5  6  1  0
  6  7  1  0
  7  8  1  0
  8  9  1  0
  7 10  1  0
 10 11  2  0
 10 12  1  0
 12 13  1  0
 13 14  2  0
 14 15  1  0
 15 16  1  0
 15 17  2  0
 17 18  1  0
 18 19  1  0
 18 20  2  0
  4 21  1  0
 21 22  1  0
 22 23  2  0
 23 24  1  0
 24 25  2  0
 25 26  1  0
 26 27  2  0
 27  2  1  0
  9  4  1  0
 20 13  1  0
 27 22  1  0
  1 28  1  0
  1 29  1  0
  1 30  1  0
  3 31  1  0
  3 32  1  0
  5 33  1  0
  5 34  1  0
  6 35  1  0
  6 36  1  0
  7 37  1  0
  8 38  1  0
  8 39  1  0
  9 40  1  0
  9 41  1  0
 12 42  1  0
 14 43  1  0
 17 44  1  0
 20 45  1  0
 23 46  1  0
 24 47  1  0
 25 48  1  0
 26 49  1  0
M  END
$$$$
[H]O[C@@]([H])(C([H])([H])C#N)C([H])(OP(=O)(O[H])N([H])[C@]([H])(/C(=N/OC([H])([H])c1c([H])c([H])c(N([H])[H])c([H])c1[H])C([H])([H])[H])C([H])([H])c1c([H])c([H])c([H])c([H])c1[H])N1C([H])([H])C([H])([H])N(C([H])([H])[H])C([H])([H])C([H])([H])C1([H])[H]
     RDKit          3D

 78 80  0  0  0  0  0  0  0  0999 V2000
    3.0828   -0.6325   -2.0613 C   0  0  0  0  0  0  0  0  0  0  0  0
    2.6210   -0.5744   -0.6553 C   0  0  0  0  0  0  0  0  0  0  0  0
    3.0702    0.3323    0.1150 N   0  0  0  0  0  0  0  0  0  0  0  0
    4.0021    1.3195   -0.2423 O   0  0  0  0  0  0  0  0  0  0  0  0
    5.1034    1.3219    0.7028 C   0  0  0  0  0  0  0  0  0  0  0  0
    6.1365    2.3164    0.4148 C   0  0  0  0  0  0  0  0  0  0  0  0
    6.8788    2.3634   -0.7398 C   0  0  0  0  0  0  0  0  0  0  0  0
    7.8805    3.3001   -0.9541 C   0  0  0  0  0  0  0  0  0  0  0  0
    8.1867    4.2478   -0.0082 C   0  0  0  0  0  0  0  0  0  0  0  0
    9.2258    5.1970   -0.2103 N   0  0  0  0  0  0  0  0  0  0  0  0
    7.4536    4.2300    1.1694 C   0  0  0  0  0  0  0  0  0  0  0  0
    6.4629    3.2922    1.3675 C   0  0  0  0  0  0  0  0  0  0  0  0
    1.6790   -1.6418   -0.1258 C   0  0  2  0  0  0  0  0  0  0  0  0
    2.4408   -2.9127   -0.2105 C   0  0  0  0  0  0  0  0  0  0  0  0
    1.8295   -4.1386    0.2561 C   0  0  0  0  0  0  0  0  0  0  0  0
    1.8847   -4.4762    1.6007 C   0  0  0  0  0  0  0  0  0  0  0  0
    1.3821   -5.6486    2.0920 C   0  0  0  0  0  0  0  0  0  0  0  0
    0.7902   -6.5436    1.2310 C   0  0  0  0  0  0  0  0  0  0  0  0
    0.7150   -6.2442   -0.1039 C   0  0  0  0  0  0  0  0  0  0  0  0
    1.2380   -5.0329   -0.5929 C   0  0  0  0  0  0  0  0  0  0  0  0
    0.4166   -1.6499   -0.7731 N   0  0  0  0  0  0  0  0  0  0  0  0
   -0.5363   -0.2226   -0.3841 P   0  0  0  0  0  0  0  0  0  0  0  0
   -0.3168    0.2138    1.2400 O   0  0  0  0  0  0  0  0  0  0  0  0
   -0.2163    0.9543   -1.2382 O   0  0  0  0  0  0  0  0  0  0  0  0
   -2.1670   -0.6144   -0.5900 O   0  0  0  0  0  0  0  0  0  0  0  0
   -2.9463    0.0428    0.3765 C   0  0  0  0  0  0  0  0  0  0  0  0
   -3.5549   -1.0324    1.2593 C   0  0  1  0  0  0  0  0  0  0  0  0
   -4.3035   -0.4749    2.3004 O   0  0  0  0  0  0  0  0  0  0  0  0
   -4.3033   -2.0755    0.4978 C   0  0  0  0  0  0  0  0  0  0  0  0
   -4.8545   -3.0489    1.4762 C   0  0  0  0  0  0  0  0  0  0  0  0
   -5.2754   -3.7985    2.2575 N   0  0  0  0  0  0  0  0  0  0  0  0
   -3.9694    0.8789   -0.2013 N   0  0  0  0  0  0  0  0  0  0  0  0
   -3.8499    1.1804   -1.5760 C   0  0  0  0  0  0  0  0  0  0  0  0
   -5.1239    1.0335   -2.3838 C   0  0  0  0  0  0  0  0  0  0  0  0
   -6.2918    1.4290   -1.5533 C   0  0  0  0  0  0  0  0  0  0  0  0
   -6.0873    2.6992   -0.9181 N   0  0  0  0  0  0  0  0  0  0  0  0
   -7.3292    3.4592   -0.8873 C   0  0  0  0  0  0  0  0  0  0  0  0
   -5.7369    2.4101    0.4815 C   0  0  0  0  0  0  0  0  0  0  0  0
   -4.2666    2.0593    0.5708 C   0  0  0  0  0  0  0  0  0  0  0  0
    3.9725   -1.3169   -2.1704 H   0  0  0  0  0  0  0  0  0  0  0  0
    2.2340   -1.0751   -2.6679 H   0  0  0  0  0  0  0  0  0  0  0  0
    3.3974    0.3253   -2.4872 H   0  0  0  0  0  0  0  0  0  0  0  0
    5.5199    0.2873    0.6960 H   0  0  0  0  0  0  0  0  0  0  0  0
    4.7050    1.5088    1.7288 H   0  0  0  0  0  0  0  0  0  0  0  0
    6.6407    1.6163   -1.4912 H   0  0  0  0  0  0  0  0  0  0  0  0
    8.4585    3.3271   -1.8663 H   0  0  0  0  0  0  0  0  0  0  0  0
    9.7708    5.1651   -1.0872 H   0  0  0  0  0  0  0  0  0  0  0  0
    9.4316    5.9025    0.5139 H   0  0  0  0  0  0  0  0  0  0  0  0
    7.7242    4.9937    1.8873 H   0  0  0  0  0  0  0  0  0  0  0  0
    5.9038    3.2921    2.2926 H   0  0  0  0  0  0  0  0  0  0  0  0
    1.4805   -1.4498    0.9625 H   0  0  0  0  0  0  0  0  0  0  0  0
    3.3905   -2.7662    0.3685 H   0  0  0  0  0  0  0  0  0  0  0  0
    2.6823   -3.0659   -1.3022 H   0  0  0  0  0  0  0  0  0  0  0  0
    2.3528   -3.7618    2.2946 H   0  0  0  0  0  0  0  0  0  0  0  0
    1.4322   -5.9131    3.1535 H   0  0  0  0  0  0  0  0  0  0  0  0
    0.3847   -7.4991    1.6017 H   0  0  0  0  0  0  0  0  0  0  0  0
    0.2464   -6.9692   -0.7749 H   0  0  0  0  0  0  0  0  0  0  0  0
    1.1339   -4.8831   -1.6561 H   0  0  0  0  0  0  0  0  0  0  0  0
    0.4817   -1.6564   -1.8222 H   0  0  0  0  0  0  0  0  0  0  0  0
   -0.2986   -0.6172    1.7602 H   0  0  0  0  0  0  0  0  0  0  0  0
   -2.2631    0.6555    1.0347 H   0  0  0  0  0  0  0  0  0  0  0  0
   -2.7176   -1.5722    1.7946 H   0  0  0  0  0  0  0  0  0  0  0  0
   -5.1889   -0.9483    2.3235 H   0  0  0  0  0  0  0  0  0  0  0  0
   -3.5532   -2.6099   -0.1607 H   0  0  0  0  0  0  0  0  0  0  0  0
   -5.0899   -1.6602   -0.1462 H   0  0  0  0  0  0  0  0  0  0  0  0
   -3.5366    2.2615   -1.7277 H   0  0  0  0  0  0  0  0  0  0  0  0
   -3.0583    0.6128   -2.1130 H   0  0  0  0  0  0  0  0  0  0  0  0
   -5.2328   -0.0364   -2.6778 H   0  0  0  0  0  0  0  0  0  0  0  0
   -5.0815    1.6902   -3.2621 H   0  0  0  0  0  0  0  0  0  0  0  0
   -6.4848    0.6165   -0.7937 H   0  0  0  0  0  0  0  0  0  0  0  0
   -7.1958    1.4147   -2.2060 H   0  0  0  0  0  0  0  0  0  0  0  0
   -8.1931    2.7899   -0.7586 H   0  0  0  0  0  0  0  0  0  0  0  0
   -7.3399    4.1391   -0.0005 H   0  0  0  0  0  0  0  0  0  0  0  0
   -7.4695    4.0573   -1.7888 H   0  0  0  0  0  0  0  0  0  0  0  0
   -5.9439    3.2707    1.1086 H   0  0  0  0  0  0  0  0  0  0  0  0
   -6.3320    1.5304    0.7615 H   0  0  0  0  0  0  0  0  0  0  0  0
   -4.0047    1.9166    1.6229 H   0  0  0  0  0  0  0  0  0  0  0  0
   -3.7102    2.9086    0.1359 H   0  0  0  0  0  0  0  0  0  0  0  0
  1  2  1  0
  2  3  2  0
  3  4  1  0
  4  5  1  0
  5  6  1  0
  6  7  2  0
  7  8  1  0
  8  9  2  0
  9 10  1  0
  9 11  1  0
 11 12  2  0
  2 13  1  0
 13 14  1  0
 14 15  1  0
 15 16  2  0
 16 17  1  0
 17 18  2  0
 18 19  1  0
 19 20  2  0
 13 21  1  0
 21 22  1  0
 22 23  1  0
 22 24  2  0
 22 25  1  0
 25 26  1  0
 26 27  1  0
 27 28  1  0
 27 29  1  0
 29 30  1  0
 30 31  3  0
 26 32  1  0
 32 33  1  0
 33 34  1  0
 34 35  1  0
 35 36  1  0
 36 37  1  0
 36 38  1  0
 38 39  1  0
 12  6  1  0
 20 15  1  0
 39 32  1  0
  1 40  1  0
  1 41  1  0
  1 42  1  0
  5 43  1  0
  5 44  1  0
  7 45  1  0
  8 46  1  0
 10 47  1  0
 10 48  1  0
 11 49  1  0
 12 50  1  0
 13 51  1  1
 14 52  1  0
 14 53  1  0
 16 54  1  0
 17 55  1  0
 18 56  1  0
 19 57  1  0
 20 58  1  0
 21 59  1  0
 23 60  1  0
 26 61  1  0
 27 62  1  1
 28 63  1  0
 29 64  1  0
 29 65  1  0
 33 66  1  0
 33 67  1  0
 34 68  1  0
 34 69  1  0
 35 70  1  0
 35 71  1  0
 37 72  1  0
 37 73  1  0
 37 74  1  0
 38 75  1  0
 38 76  1  0
 39 77  1  0
 39 78  1  0
M  END
$$$$
[H]Oc1c([H])c([H])c(/C([H])=C2/C(=O)O/C(=C(\[H])c3c([H])c(O[H])c(C#N)c(O[H])c3[H])C([H])([H])C2([H])[H])c([H])c1[H]
     RDKit          3D

 41 43  0  0  0  0  0  0  0  0999 V2000
   -3.3076    3.0294   -0.5362 O   0  0  0  0  0  0  0  0  0  0  0  0
   -3.6970    1.6997   -0.3362 C   0  0  0  0  0  0  0  0  0  0  0  0
   -2.8402    0.6598   -0.6636 C   0  0  0  0  0  0  0  0  0  0  0  0
   -3.1851   -0.6528   -0.4829 C   0  0  0  0  0  0  0  0  0  0  0  0
   -2.3788   -1.8122   -0.7678 C   0  0  0  0  0  0  0  0  0  0  0  0
   -1.1693   -1.9731   -0.3064 C   0  0  0  0  0  0  0  0  0  0  0  0
   -0.5103   -1.0005    0.5479 C   0  0  0  0  0  0  0  0  0  0  0  0
    0.7780   -0.5344   -0.1691 C   0  0  0  0  0  0  0  0  0  0  0  0
    1.5941   -1.7190   -0.4242 C   0  0  0  0  0  0  0  0  0  0  0  0
    2.9121   -1.6308   -0.4279 C   0  0  0  0  0  0  0  0  0  0  0  0
    3.6793   -0.4354   -0.2007 C   0  0  0  0  0  0  0  0  0  0  0  0
    4.7474   -0.4875    0.6752 C   0  0  0  0  0  0  0  0  0  0  0  0
    5.5458    0.6180    0.9213 C   0  0  0  0  0  0  0  0  0  0  0  0
    5.3016    1.8156    0.2975 C   0  0  0  0  0  0  0  0  0  0  0  0
    6.1010    2.9512    0.5341 O   0  0  0  0  0  0  0  0  0  0  0  0
    4.2410    1.8858   -0.5789 C   0  0  0  0  0  0  0  0  0  0  0  0
    3.4411    0.7623   -0.8193 C   0  0  0  0  0  0  0  0  0  0  0  0
    0.9419   -3.0169   -0.6840 C   0  0  0  0  0  0  0  0  0  0  0  0
    1.6546   -4.0033   -0.9592 O   0  0  0  0  0  0  0  0  0  0  0  0
   -0.4227   -3.1328   -0.6237 O   0  0  0  0  0  0  0  0  0  0  0  0
   -4.4656   -0.8692    0.0564 C   0  0  0  0  0  0  0  0  0  0  0  0
   -5.3182    0.1596    0.3828 C   0  0  0  0  0  0  0  0  0  0  0  0
   -6.5893   -0.0776    0.9199 O   0  0  0  0  0  0  0  0  0  0  0  0
   -4.9493    1.4738    0.1922 C   0  0  0  0  0  0  0  0  0  0  0  0
   -5.8111    2.5756    0.5200 C   0  0  0  0  0  0  0  0  0  0  0  0
   -6.5136    3.4532    0.8003 N   0  0  0  0  0  0  0  0  0  0  0  0
   -2.3964    3.2079   -0.9201 H   0  0  0  0  0  0  0  0  0  0  0  0
   -1.8590    0.8556   -1.0824 H   0  0  0  0  0  0  0  0  0  0  0  0
   -2.7903   -2.6313   -1.4144 H   0  0  0  0  0  0  0  0  0  0  0  0
   -0.0679   -1.5197    1.4778 H   0  0  0  0  0  0  0  0  0  0  0  0
   -1.0769   -0.1737    0.9277 H   0  0  0  0  0  0  0  0  0  0  0  0
    1.2525    0.2517    0.4551 H   0  0  0  0  0  0  0  0  0  0  0  0
    0.4399   -0.1126   -1.1336 H   0  0  0  0  0  0  0  0  0  0  0  0
    3.4809   -2.5662   -0.6243 H   0  0  0  0  0  0  0  0  0  0  0  0
    4.9985   -1.4056    1.2064 H   0  0  0  0  0  0  0  0  0  0  0  0
    6.3886    0.5512    1.6185 H   0  0  0  0  0  0  0  0  0  0  0  0
    6.9101    3.0510   -0.0945 H   0  0  0  0  0  0  0  0  0  0  0  0
    4.0274    2.8214   -1.0849 H   0  0  0  0  0  0  0  0  0  0  0  0
    2.6073    0.8300   -1.5160 H   0  0  0  0  0  0  0  0  0  0  0  0
   -4.7817   -1.8907    0.2179 H   0  0  0  0  0  0  0  0  0  0  0  0
   -6.9128   -1.0075    1.0812 H   0  0  0  0  0  0  0  0  0  0  0  0
  1  2  1  0
  2  3  2  0
  3  4  1  0
  4  5  1  0
  5  6  2  0
  6  7  1  0
  7  8  1  0
  8  9  1  0
  9 10  2  0
 10 11  1  0
 11 12  2  0
 12 13  1  0
 13 14  2  0
 14 15  1  0
 14 16  1  0
 16 17  2  0
  9 18  1  0
 18 19  2  0
 18 20  1  0
  4 21  2  0
 21 22  1  0
 22 23  1  0
 22 24  2  0
 24 25  1  0
 25 26  3  0
 24  2  1  0
 20  6  1  0
 17 11  1  0
  1 27  1  0
  3 28  1  0
  5 29  1  0
  7 30  1  0
  7 31  1  0
  8 32  1  0
  8 33  1  0
 10 34  1  0
 12 35  1  0
 13 36  1  0
 15 37  1  0
 16 38  1  0
 17 39  1  0
 21 40  1  0
 23 41  1  0
M  END
$$$$
[H]OC(=O)C([H])([H])N([H])C(=O)[C@@]([H])(N([H])C(=O)[C@@]1([H])N(C(=O)[C@@]([H])(N([H])C(=O)OC([H])([H])c2c([H])c([H])c([H])c([H])c2[H])C([H])([H])c2c([H])c([H])c([H])c([H])c2[H])C([H])([H])C([H])([H])C1([H])[H])C([H])([H])c1c([H])n([H])c2c([H])c([H])c(O[H])c([H])c12
     RDKit          3D

 85 89  0  0  0  0  0  0  0  0999 V2000
   -5.8244   -3.2810    4.4286 O   0  0  0  0  0  0  0  0  0  0  0  0
   -5.7607   -2.2987    3.4549 C   0  0  0  0  0  0  0  0  0  0  0  0
   -6.8033   -1.6590    3.1972 O   0  0  0  0  0  0  0  0  0  0  0  0
   -4.4739   -2.0601    2.7773 C   0  0  0  0  0  0  0  0  0  0  0  0
   -4.6539   -1.0095    1.8011 N   0  0  0  0  0  0  0  0  0  0  0  0
   -3.5886   -0.5440    0.9861 C   0  0  0  0  0  0  0  0  0  0  0  0
   -2.4608   -1.1278    1.1994 O   0  0  0  0  0  0  0  0  0  0  0  0
   -3.6391    0.4901   -0.0294 C   0  0  2  0  0  0  0  0  0  0  0  0
   -4.4286    0.1524   -1.2790 C   0  0  0  0  0  0  0  0  0  0  0  0
   -5.8352   -0.1576   -1.1017 C   0  0  0  0  0  0  0  0  0  0  0  0
   -6.4080   -1.3977   -1.1797 C   0  0  0  0  0  0  0  0  0  0  0  0
   -7.7404   -1.2971   -0.9761 N   0  0  0  0  0  0  0  0  0  0  0  0
   -8.0520    0.0106   -0.7629 C   0  0  0  0  0  0  0  0  0  0  0  0
   -9.2595    0.6276   -0.5136 C   0  0  0  0  0  0  0  0  0  0  0  0
   -9.2955    1.9870   -0.3340 C   0  0  0  0  0  0  0  0  0  0  0  0
   -8.1332    2.7523   -0.3998 C   0  0  0  0  0  0  0  0  0  0  0  0
   -8.2456    4.1179   -0.2090 O   0  0  0  0  0  0  0  0  0  0  0  0
   -6.9572    2.0902   -0.6514 C   0  0  0  0  0  0  0  0  0  0  0  0
   -6.8668    0.7267   -0.8386 C   0  0  0  0  0  0  0  0  0  0  0  0
   -2.2698    0.7255   -0.5325 N   0  0  0  0  0  0  0  0  0  0  0  0
   -1.7818    2.0006   -0.7989 C   0  0  0  0  0  0  0  0  0  0  0  0
   -2.5893    2.9739   -0.5861 O   0  0  0  0  0  0  0  0  0  0  0  0
   -0.4584    2.3851   -1.2952 C   0  0  2  0  0  0  0  0  0  0  0  0
   -0.5743    2.6860   -2.8059 C   0  0  0  0  0  0  0  0  0  0  0  0
   -0.7012    1.2689   -3.3357 C   0  0  0  0  0  0  0  0  0  0  0  0
    0.2966    0.5128   -2.4705 C   0  0  0  0  0  0  0  0  0  0  0  0
    0.5297    1.3448   -1.3197 N   0  0  0  0  0  0  0  0  0  0  0  0
    1.5875    1.2073   -0.3984 C   0  0  0  0  0  0  0  0  0  0  0  0
    1.7357    2.0823    0.5178 O   0  0  0  0  0  0  0  0  0  0  0  0
    2.5699    0.0941   -0.4190 C   0  0  2  0  0  0  0  0  0  0  0  0
    1.9325   -1.1609    0.1645 C   0  0  0  0  0  0  0  0  0  0  0  0
    2.8718   -2.2959    0.1687 C   0  0  0  0  0  0  0  0  0  0  0  0
    3.6718   -2.5018    1.2681 C   0  0  0  0  0  0  0  0  0  0  0  0
    4.5808   -3.5626    1.3212 C   0  0  0  0  0  0  0  0  0  0  0  0
    4.6450   -4.4007    0.2212 C   0  0  0  0  0  0  0  0  0  0  0  0
    3.8479   -4.2039   -0.8856 C   0  0  0  0  0  0  0  0  0  0  0  0
    2.9705   -3.1536   -0.8998 C   0  0  0  0  0  0  0  0  0  0  0  0
    3.7290    0.4265    0.4226 N   0  0  0  0  0  0  0  0  0  0  0  0
    5.0418    0.4033   -0.1394 C   0  0  0  0  0  0  0  0  0  0  0  0
    5.1626    0.0909   -1.3407 O   0  0  0  0  0  0  0  0  0  0  0  0
    6.1790    0.7127    0.5835 O   0  0  0  0  0  0  0  0  0  0  0  0
    7.4245    0.6491   -0.1047 C   0  0  0  0  0  0  0  0  0  0  0  0
    8.5699    1.0061    0.7342 C   0  0  0  0  0  0  0  0  0  0  0  0
    9.1566   -0.0009    1.4896 C   0  0  0  0  0  0  0  0  0  0  0  0
   10.2300    0.1955    2.3147 C   0  0  0  0  0  0  0  0  0  0  0  0
   10.7778    1.4638    2.4148 C   0  0  0  0  0  0  0  0  0  0  0  0
   10.2078    2.4801    1.6704 C   0  0  0  0  0  0  0  0  0  0  0  0
    9.1148    2.2564    0.8378 C   0  0  0  0  0  0  0  0  0  0  0  0
   -6.4882   -4.0543    4.3163 H   0  0  0  0  0  0  0  0  0  0  0  0
   -4.0891   -2.9801    2.2671 H   0  0  0  0  0  0  0  0  0  0  0  0
   -3.6976   -1.7201    3.5302 H   0  0  0  0  0  0  0  0  0  0  0  0
   -5.5860   -0.5776    1.7002 H   0  0  0  0  0  0  0  0  0  0  0  0
   -3.9872    1.4885    0.3476 H   0  0  0  0  0  0  0  0  0  0  0  0
   -3.8664   -0.6295   -1.8256 H   0  0  0  0  0  0  0  0  0  0  0  0
   -4.3697    1.0788   -1.9235 H   0  0  0  0  0  0  0  0  0  0  0  0
   -5.9253   -2.3652   -1.3821 H   0  0  0  0  0  0  0  0  0  0  0  0
   -8.4288   -2.0614   -0.9732 H   0  0  0  0  0  0  0  0  0  0  0  0
  -10.1355    0.0064   -0.4735 H   0  0  0  0  0  0  0  0  0  0  0  0
  -10.2551    2.4513   -0.1356 H   0  0  0  0  0  0  0  0  0  0  0  0
   -8.1535    4.4396    0.7622 H   0  0  0  0  0  0  0  0  0  0  0  0
   -6.0459    2.6589   -0.7100 H   0  0  0  0  0  0  0  0  0  0  0  0
   -1.6919   -0.1218   -0.6696 H   0  0  0  0  0  0  0  0  0  0  0  0
   -0.0722    3.3448   -0.8478 H   0  0  0  0  0  0  0  0  0  0  0  0
   -1.4939    3.2853   -2.9598 H   0  0  0  0  0  0  0  0  0  0  0  0
    0.2859    3.2355   -3.1756 H   0  0  0  0  0  0  0  0  0  0  0  0
   -1.7405    0.9135   -3.1180 H   0  0  0  0  0  0  0  0  0  0  0  0
   -0.4382    1.2035   -4.4045 H   0  0  0  0  0  0  0  0  0  0  0  0
    0.0030   -0.5066   -2.2484 H   0  0  0  0  0  0  0  0  0  0  0  0
    1.2205    0.4289   -3.1048 H   0  0  0  0  0  0  0  0  0  0  0  0
    2.9118   -0.1416   -1.4377 H   0  0  0  0  0  0  0  0  0  0  0  0
    1.0438   -1.4759   -0.3845 H   0  0  0  0  0  0  0  0  0  0  0  0
    1.6137   -0.9909    1.2307 H   0  0  0  0  0  0  0  0  0  0  0  0
    3.6498   -1.8651    2.1565 H   0  0  0  0  0  0  0  0  0  0  0  0
    5.1950   -3.7051    2.1931 H   0  0  0  0  0  0  0  0  0  0  0  0
    5.3559   -5.2383    0.2383 H   0  0  0  0  0  0  0  0  0  0  0  0
    3.9316   -4.8983   -1.7363 H   0  0  0  0  0  0  0  0  0  0  0  0
    2.3582   -3.0229   -1.7904 H   0  0  0  0  0  0  0  0  0  0  0  0
    3.5947    0.6747    1.4060 H   0  0  0  0  0  0  0  0  0  0  0  0
    7.4024    1.2673   -1.0318 H   0  0  0  0  0  0  0  0  0  0  0  0
    7.5346   -0.4106   -0.4288 H   0  0  0  0  0  0  0  0  0  0  0  0
    8.7506   -1.0119    1.4240 H   0  0  0  0  0  0  0  0  0  0  0  0
   10.6275   -0.6603    2.8801 H   0  0  0  0  0  0  0  0  0  0  0  0
   11.6380    1.6027    3.0758 H   0  0  0  0  0  0  0  0  0  0  0  0
   10.6431    3.4781    1.7544 H   0  0  0  0  0  0  0  0  0  0  0  0
    8.6734    3.0721    0.2550 H   0  0  0  0  0  0  0  0  0  0  0  0
  1  2  1  0
  2  3  2  0
  2  4  1  0
  4  5  1  0
  5  6  1  0
  6  7  2  0
  6  8  1  0
  8  9  1  0
  9 10  1  0
 10 11  2  0
 11 12  1  0
 12 13  1  0
 13 14  2  0
 14 15  1  0
 15 16  2  0
 16 17  1  0
 16 18  1  0
 18 19  2  0
  8 20  1  0
 20 21  1  0
 21 22  2  0
 21 23  1  0
 23 24  1  0
 24 25  1  0
 25 26  1  0
 26 27  1  0
 27 28  1  0
 28 29  2  0
 28 30  1  0
 30 31  1  0
 31 32  1  0
 32 33  2  0
 33 34  1  0
 34 35  2  0
 35 36  1  0
 36 37  2  0
 30 38  1  0
 38 39  1  0
 39 40  2  0
 39 41  1  0
 41 42  1  0
 42 43  1  0
 43 44  2  0
 44 45  1  0
 45 46  2  0
 46 47  1  0
 47 48  2  0
 19 10  1  0
 27 23  1  0
 37 32  1  0
 48 43  1  0
 19 13  1  0
  1 49  1  0
  4 50  1  0
  4 51  1  0
  5 52  1  0
  8 53  1  1
  9 54  1  0
  9 55  1  0
 11 56  1  0
 12 57  1  0
 14 58  1  0
 15 59  1  0
 17 60  1  0
 18 61  1  0
 20 62  1  0
 23 63  1  1
 24 64  1  0
 24 65  1  0
 25 66  1  0
 25 67  1  0
 26 68  1  0
 26 69  1  0
 30 70  1  6
 31 71  1  0
 31 72  1  0
 33 73  1  0
 34 74  1  0
 35 75  1  0
 36 76  1  0
 37 77  1  0
 38 78  1  0
 42 79  1  0
 42 80  1  0
 44 81  1  0
 45 82  1  0
 46 83  1  0
 47 84  1  0
 48 85  1  0
M  END
$$$$
[H]C1=C(C(=O)N(C([H])([H])C([H])([H])C([H])([H])[H])C([H])([H])C([H])([H])C([H])([H])[H])C([H])([H])C(C([H])([H])[H])=Nc2c([H])c(C(=O)N([H])c3c([H])nc([H])c(OC([H])([H])C([H])([H])C([H])([H])N([H])[H])c3[H])c([H])c([H])c21
     RDKit          3D

 70 72  0  0  0  0  0  0  0  0999 V2000
   -6.2241   -2.3183    0.5808 C   0  0  0  0  0  0  0  0  0  0  0  0
   -7.1183   -1.2095    0.9561 C   0  0  0  0  0  0  0  0  0  0  0  0
   -6.4944    0.1762    1.0088 C   0  0  0  0  0  0  0  0  0  0  0  0
   -5.9210    0.5825   -0.2107 N   0  0  0  0  0  0  0  0  0  0  0  0
   -6.8978    1.2125   -1.1904 C   0  0  0  0  0  0  0  0  0  0  0  0
   -6.9523    2.6796   -0.9728 C   0  0  0  0  0  0  0  0  0  0  0  0
   -7.9102    3.3678   -1.9210 C   0  0  0  0  0  0  0  0  0  0  0  0
   -4.6365    0.5376   -0.7250 C   0  0  0  0  0  0  0  0  0  0  0  0
   -4.4984    0.8215   -2.0057 O   0  0  0  0  0  0  0  0  0  0  0  0
   -3.3849    0.2168   -0.0507 C   0  0  0  0  0  0  0  0  0  0  0  0
   -2.3261    0.1535   -0.9089 C   0  0  0  0  0  0  0  0  0  0  0  0
   -0.9319   -0.1274   -0.7031 C   0  0  0  0  0  0  0  0  0  0  0  0
   -0.2488   -0.4237   -1.8545 C   0  0  0  0  0  0  0  0  0  0  0  0
    1.1195   -0.7396   -1.8109 C   0  0  0  0  0  0  0  0  0  0  0  0
    1.7867   -0.7544   -0.6132 C   0  0  0  0  0  0  0  0  0  0  0  0
    1.0750   -0.4494    0.5461 C   0  0  0  0  0  0  0  0  0  0  0  0
   -0.2488   -0.1458    0.4864 C   0  0  0  0  0  0  0  0  0  0  0  0
   -0.8168    0.1561    1.7791 N   0  0  0  0  0  0  0  0  0  0  0  0
   -2.0448    0.2452    2.1099 C   0  0  0  0  0  0  0  0  0  0  0  0
   -2.2504    0.5903    3.5996 C   0  0  0  0  0  0  0  0  0  0  0  0
   -3.3233    0.0878    1.4015 C   0  0  0  0  0  0  0  0  0  0  0  0
    3.2193   -1.0848   -0.4895 C   0  0  0  0  0  0  0  0  0  0  0  0
    3.9691   -0.8065   -1.4488 O   0  0  0  0  0  0  0  0  0  0  0  0
    3.7280   -1.6960    0.6677 N   0  0  0  0  0  0  0  0  0  0  0  0
    5.0491   -2.0715    0.9460 C   0  0  0  0  0  0  0  0  0  0  0  0
    5.2470   -3.1132    1.8633 C   0  0  0  0  0  0  0  0  0  0  0  0
    6.4934   -3.4788    2.1427 N   0  0  0  0  0  0  0  0  0  0  0  0
    7.5471   -2.8915    1.5845 C   0  0  0  0  0  0  0  0  0  0  0  0
    7.4239   -1.8422    0.6599 C   0  0  0  0  0  0  0  0  0  0  0  0
    8.5736   -1.3357    0.1650 O   0  0  0  0  0  0  0  0  0  0  0  0
    8.8550   -0.3108   -0.7082 C   0  0  0  0  0  0  0  0  0  0  0  0
    8.4500    1.0650   -0.2879 C   0  0  0  0  0  0  0  0  0  0  0  0
    8.8526    2.0326   -1.4116 C   0  0  0  0  0  0  0  0  0  0  0  0
    8.2050    1.7258   -2.6546 N   0  0  0  0  0  0  0  0  0  0  0  0
    6.1304   -1.4664    0.3723 C   0  0  0  0  0  0  0  0  0  0  0  0
   -6.8512   -3.2284    0.4493 H   0  0  0  0  0  0  0  0  0  0  0  0
   -5.7478   -2.1527   -0.4084 H   0  0  0  0  0  0  0  0  0  0  0  0
   -5.4726   -2.5770    1.3626 H   0  0  0  0  0  0  0  0  0  0  0  0
   -8.0570   -1.2311    0.3613 H   0  0  0  0  0  0  0  0  0  0  0  0
   -7.4679   -1.4097    2.0126 H   0  0  0  0  0  0  0  0  0  0  0  0
   -7.4027    0.8421    1.2722 H   0  0  0  0  0  0  0  0  0  0  0  0
   -5.9094    0.2115    1.9035 H   0  0  0  0  0  0  0  0  0  0  0  0
   -6.5684    0.9978   -2.2119 H   0  0  0  0  0  0  0  0  0  0  0  0
   -7.8881    0.7544   -1.0449 H   0  0  0  0  0  0  0  0  0  0  0  0
   -5.9549    3.1767   -1.1600 H   0  0  0  0  0  0  0  0  0  0  0  0
   -7.2357    2.9776    0.0537 H   0  0  0  0  0  0  0  0  0  0  0  0
   -8.0951    4.3821   -1.4923 H   0  0  0  0  0  0  0  0  0  0  0  0
   -7.5262    3.4240   -2.9603 H   0  0  0  0  0  0  0  0  0  0  0  0
   -8.8772    2.8255   -1.8573 H   0  0  0  0  0  0  0  0  0  0  0  0
   -2.5931    0.3519   -1.9549 H   0  0  0  0  0  0  0  0  0  0  0  0
   -0.7363   -0.4212   -2.8036 H   0  0  0  0  0  0  0  0  0  0  0  0
    1.6579   -0.9722   -2.7161 H   0  0  0  0  0  0  0  0  0  0  0  0
    1.5637   -0.4498    1.5011 H   0  0  0  0  0  0  0  0  0  0  0  0
   -1.2997    0.4676    4.1197 H   0  0  0  0  0  0  0  0  0  0  0  0
   -3.0751   -0.0452    3.9408 H   0  0  0  0  0  0  0  0  0  0  0  0
   -2.5428    1.6576    3.5897 H   0  0  0  0  0  0  0  0  0  0  0  0
   -3.9691    0.9561    1.8262 H   0  0  0  0  0  0  0  0  0  0  0  0
   -3.8573   -0.8284    1.7505 H   0  0  0  0  0  0  0  0  0  0  0  0
    2.9936   -1.8927    1.4263 H   0  0  0  0  0  0  0  0  0  0  0  0
    4.3706   -3.5985    2.3251 H   0  0  0  0  0  0  0  0  0  0  0  0
    8.5356   -3.2516    1.8689 H   0  0  0  0  0  0  0  0  0  0  0  0
    9.9656   -0.3403   -0.9037 H   0  0  0  0  0  0  0  0  0  0  0  0
    8.3527   -0.5523   -1.6917 H   0  0  0  0  0  0  0  0  0  0  0  0
    7.3900    1.1820   -0.0908 H   0  0  0  0  0  0  0  0  0  0  0  0
    8.9734    1.3629    0.6571 H   0  0  0  0  0  0  0  0  0  0  0  0
    9.9734    1.9503   -1.5336 H   0  0  0  0  0  0  0  0  0  0  0  0
    8.6147    3.0696   -1.1064 H   0  0  0  0  0  0  0  0  0  0  0  0
    7.7842    2.5907   -3.0872 H   0  0  0  0  0  0  0  0  0  0  0  0
    7.4323    1.0322   -2.5180 H   0  0  0  0  0  0  0  0  0  0  0  0
    6.0239   -0.6468   -0.3514 H   0  0  0  0  0  0  0  0  0  0  0  0
  1  2  1  0
  2  3  1  0
  3  4  1  0
  4  5  1  0
  5  6  1  0
  6  7  1  0
  4  8  1  0
  8  9  2  0
  8 10  1  0
 10 11  2  0
 11 12  1  0
 12 13  2  0
 13 14  1  0
 14 15  2  0
 15 16  1  0
 16 17  2  0
 17 18  1  0
 18 19  2  0
 19 20  1  0
 19 21  1  0
 15 22  1  0
 22 23  2  0
 22 24  1  0
 24 25  1  0
 25 26  2  0
 26 27  1  0
 27 28  2  0
 28 29  1  0
 29 30  1  0
 30 31  1  0
 31 32  1  0
 32 33  1  0
 33 34  1  0
 29 35  2  0
 21 10  1  0
 35 25  1  0
 17 12  1  0
  1 36  1  0
  1 37  1  0
  1 38  1  0
  2 39  1  0
  2 40  1  0
  3 41  1  0
  3 42  1  0
  5 43  1  0
  5 44  1  0
  6 45  1  0
  6 46  1  0
  7 47  1  0
  7 48  1  0
  7 49  1  0
 11 50  1  0
 13 51  1  0
 14 52  1  0
 16 53  1  0
 20 54  1  0
 20 55  1  0
 20 56  1  0
 21 57  1  0
 21 58  1  0
 24 59  1  0
 26 60  1  0
 28 61  1  0
 31 62  1  0
 31 63  1  0
 32 64  1  0
 32 65  1  0
 33 66  1  0
 33 67  1  0
 34 68  1  0
 34 69  1  0
 35 70  1  0
M  END
$$$$
[H]c1nc(C([H])(C([H])([H])[H])C([H])([H])[H])c([H])c(-c2sc([H])c([H])c2OC([H])([H])C([H])([H])C([H])([H])C([H])([H])C([H])([H])N([H])C(=O)c2c([H])c([H])c3c(c2[H])C([H])([H])C(=O)N3C([H])([H])[H])c1[H]
     RDKit          3D

 65 68  0  0  0  0  0  0  0  0999 V2000
    9.1592   -1.8617    1.5526 C   0  0  0  0  0  0  0  0  0  0  0  0
    8.6720   -1.5044    0.1426 C   0  0  0  0  0  0  0  0  0  0  0  0
    9.8020   -0.9044   -0.6416 C   0  0  0  0  0  0  0  0  0  0  0  0
    7.5524   -0.5584    0.3079 C   0  0  0  0  0  0  0  0  0  0  0  0
    6.3017   -0.9266   -0.1102 C   0  0  0  0  0  0  0  0  0  0  0  0
    5.2214   -0.0512    0.0352 C   0  0  0  0  0  0  0  0  0  0  0  0
    5.4425    1.1620    0.5964 C   0  0  0  0  0  0  0  0  0  0  0  0
    6.7063    1.5142    1.0104 C   0  0  0  0  0  0  0  0  0  0  0  0
    7.7385    0.6454    0.8577 N   0  0  0  0  0  0  0  0  0  0  0  0
    3.9087   -0.5385   -0.4477 C   0  0  0  0  0  0  0  0  0  0  0  0
    3.6417   -2.0617   -1.1590 S   0  0  0  0  0  0  0  0  0  0  0  0
    1.9796   -1.9572   -1.4587 C   0  0  0  0  0  0  0  0  0  0  0  0
    1.6617   -0.7192   -0.9913 C   0  0  0  0  0  0  0  0  0  0  0  0
    2.6625    0.0465   -0.4544 C   0  0  0  0  0  0  0  0  0  0  0  0
    2.4498    1.2793    0.0349 O   0  0  0  0  0  0  0  0  0  0  0  0
    1.7094    2.3201    0.3222 C   0  0  0  0  0  0  0  0  0  0  0  0
    1.0080    3.1486   -0.6853 C   0  0  0  0  0  0  0  0  0  0  0  0
   -0.0458    2.5468   -1.5186 C   0  0  0  0  0  0  0  0  0  0  0  0
   -1.2279    2.0330   -0.7112 C   0  0  0  0  0  0  0  0  0  0  0  0
   -2.2595    1.4346   -1.6437 C   0  0  0  0  0  0  0  0  0  0  0  0
   -3.3852    0.9468   -0.8807 N   0  0  0  0  0  0  0  0  0  0  0  0
   -4.4895    0.3406   -1.5103 C   0  0  0  0  0  0  0  0  0  0  0  0
   -4.4731    0.2319   -2.7638 O   0  0  0  0  0  0  0  0  0  0  0  0
   -5.6435   -0.1638   -0.7848 C   0  0  0  0  0  0  0  0  0  0  0  0
   -6.6572   -0.7774   -1.5118 C   0  0  0  0  0  0  0  0  0  0  0  0
   -7.7569   -1.2601   -0.8503 C   0  0  0  0  0  0  0  0  0  0  0  0
   -7.9015   -1.1623    0.5164 C   0  0  0  0  0  0  0  0  0  0  0  0
   -8.9463   -1.5944    1.3617 N   0  0  0  0  0  0  0  0  0  0  0  0
  -10.1558   -2.2678    0.9624 C   0  0  0  0  0  0  0  0  0  0  0  0
   -8.5783   -1.2377    2.6925 C   0  0  0  0  0  0  0  0  0  0  0  0
   -9.2699   -1.4672    3.7124 O   0  0  0  0  0  0  0  0  0  0  0  0
   -7.2581   -0.5556    2.6955 C   0  0  0  0  0  0  0  0  0  0  0  0
   -6.9064   -0.5571    1.2529 C   0  0  0  0  0  0  0  0  0  0  0  0
   -5.7913   -0.0675    0.5830 C   0  0  0  0  0  0  0  0  0  0  0  0
    9.1985   -0.9333    2.1560 H   0  0  0  0  0  0  0  0  0  0  0  0
    8.4013   -2.5122    2.0566 H   0  0  0  0  0  0  0  0  0  0  0  0
   10.0997   -2.4270    1.5336 H   0  0  0  0  0  0  0  0  0  0  0  0
    8.3312   -2.4439   -0.3362 H   0  0  0  0  0  0  0  0  0  0  0  0
    9.3651   -0.0994   -1.2844 H   0  0  0  0  0  0  0  0  0  0  0  0
   10.2641   -1.7011   -1.2482 H   0  0  0  0  0  0  0  0  0  0  0  0
   10.5329   -0.4926    0.0881 H   0  0  0  0  0  0  0  0  0  0  0  0
    6.1404   -1.9175   -0.5645 H   0  0  0  0  0  0  0  0  0  0  0  0
    4.6507    1.8704    0.7311 H   0  0  0  0  0  0  0  0  0  0  0  0
    6.9418    2.4645    1.4630 H   0  0  0  0  0  0  0  0  0  0  0  0
    1.2811   -2.6896   -1.9190 H   0  0  0  0  0  0  0  0  0  0  0  0
    0.5904   -0.4029   -1.0643 H   0  0  0  0  0  0  0  0  0  0  0  0
    2.2148    3.0868    1.0215 H   0  0  0  0  0  0  0  0  0  0  0  0
    0.8642    1.9767    1.0427 H   0  0  0  0  0  0  0  0  0  0  0  0
    0.5152    3.9976   -0.1063 H   0  0  0  0  0  0  0  0  0  0  0  0
    1.7391    3.6938   -1.3386 H   0  0  0  0  0  0  0  0  0  0  0  0
   -0.4873    3.3720   -2.1567 H   0  0  0  0  0  0  0  0  0  0  0  0
    0.3043    1.8043   -2.2621 H   0  0  0  0  0  0  0  0  0  0  0  0
   -0.9222    1.2730    0.0147 H   0  0  0  0  0  0  0  0  0  0  0  0
   -1.6688    2.9039   -0.2029 H   0  0  0  0  0  0  0  0  0  0  0  0
   -1.7512    0.6391   -2.2215 H   0  0  0  0  0  0  0  0  0  0  0  0
   -2.6296    2.2495   -2.3205 H   0  0  0  0  0  0  0  0  0  0  0  0
   -3.3857    1.0420    0.1528 H   0  0  0  0  0  0  0  0  0  0  0  0
   -6.5997   -0.8850   -2.6009 H   0  0  0  0  0  0  0  0  0  0  0  0
   -8.5280   -1.7319   -1.4432 H   0  0  0  0  0  0  0  0  0  0  0  0
  -10.2629   -2.2230   -0.1408 H   0  0  0  0  0  0  0  0  0  0  0  0
  -10.0972   -3.3303    1.3127 H   0  0  0  0  0  0  0  0  0  0  0  0
  -11.0526   -1.8235    1.4445 H   0  0  0  0  0  0  0  0  0  0  0  0
   -6.5359   -1.1244    3.3136 H   0  0  0  0  0  0  0  0  0  0  0  0
   -7.3702    0.5049    3.0551 H   0  0  0  0  0  0  0  0  0  0  0  0
   -5.0147    0.4034    1.1452 H   0  0  0  0  0  0  0  0  0  0  0  0
  1  2  1  0
  2  3  1  0
  2  4  1  0
  4  5  2  0
  5  6  1  0
  6  7  2  0
  7  8  1  0
  8  9  2  0
  6 10  1  0
 10 11  1  0
 11 12  1  0
 12 13  2  0
 13 14  1  0
 14 15  1  0
 15 16  1  0
 16 17  1  0
 17 18  1  0
 18 19  1  0
 19 20  1  0
 20 21  1  0
 21 22  1  0
 22 23  2  0
 22 24  1  0
 24 25  2  0
 25 26  1  0
 26 27  2  0
 27 28  1  0
 28 29  1  0
 28 30  1  0
 30 31  2  0
 30 32  1  0
 32 33  1  0
 33 34  2  0
  9  4  1  0
 14 10  2  0
 34 24  1  0
 33 27  1  0
  1 35  1  0
  1 36  1  0
  1 37  1  0
  2 38  1  0
  3 39  1  0
  3 40  1  0
  3 41  1  0
  5 42  1  0
  7 43  1  0
  8 44  1  0
 12 45  1  0
 13 46  1  0
 16 47  1  0
 16 48  1  0
 17 49  1  0
 17 50  1  0
 18 51  1  0
 18 52  1  0
 19 53  1  0
 19 54  1  0
 20 55  1  0
 20 56  1  0
 21 57  1  0
 25 58  1  0
 26 59  1  0
 29 60  1  0
 29 61  1  0
 29 62  1  0
 32 63  1  0
 32 64  1  0
 34 65  1  0
M  END
$$$$
[H]Oc1c([H])c([H])c(C(=O)N([H])C([H])(C(=O)N([H])[C@]([H])(C(=O)N([H])C2([H])C([H])([H])C([H])([H])C([H])([H])C([H])([H])C2([H])[H])C([H])([H])C(=O)N([H])[H])C([H])([H])S[H])c([H])c1[H]
     RDKit          3D

 58 59  0  0  0  0  0  0  0  0999 V2000
   -2.8103   -4.3863   -0.3152 N   0  0  0  0  0  0  0  0  0  0  0  0
   -2.1676   -3.1696   -0.6625 C   0  0  0  0  0  0  0  0  0  0  0  0
   -2.4352   -2.6662   -1.7805 O   0  0  0  0  0  0  0  0  0  0  0  0
   -1.2106   -2.4846    0.2294 C   0  0  0  0  0  0  0  0  0  0  0  0
   -0.8525   -1.1002   -0.1379 C   0  0  2  0  0  0  0  0  0  0  0  0
    0.1794   -0.6064    0.8009 N   0  0  0  0  0  0  0  0  0  0  0  0
    1.4631   -0.2262    0.3673 C   0  0  0  0  0  0  0  0  0  0  0  0
    1.7563   -0.3053   -0.8711 O   0  0  0  0  0  0  0  0  0  0  0  0
    2.5150    0.2695    1.2761 C   0  0  0  0  0  0  0  0  0  0  0  0
    2.0711    1.5322    1.9975 C   0  0  0  0  0  0  0  0  0  0  0  0
    1.6938    2.8508    0.8106 S   0  0  0  0  0  0  0  0  0  0  0  0
    3.7383    0.5935    0.5550 N   0  0  0  0  0  0  0  0  0  0  0  0
    4.9606   -0.0361    0.8140 C   0  0  0  0  0  0  0  0  0  0  0  0
    5.0034   -0.9266    1.7150 O   0  0  0  0  0  0  0  0  0  0  0  0
    6.1770    0.2866    0.0971 C   0  0  0  0  0  0  0  0  0  0  0  0
    6.1550    1.1917   -0.9262 C   0  0  0  0  0  0  0  0  0  0  0  0
    7.3265    1.5082   -1.6202 C   0  0  0  0  0  0  0  0  0  0  0  0
    8.5100    0.9089   -1.2762 C   0  0  0  0  0  0  0  0  0  0  0  0
    9.6424    1.2596   -1.9984 O   0  0  0  0  0  0  0  0  0  0  0  0
    8.5347   -0.0020   -0.2472 C   0  0  0  0  0  0  0  0  0  0  0  0
    7.3849   -0.3063    0.4270 C   0  0  0  0  0  0  0  0  0  0  0  0
   -1.9346   -0.0933   -0.0737 C   0  0  0  0  0  0  0  0  0  0  0  0
   -1.5061    1.1320   -0.0899 O   0  0  0  0  0  0  0  0  0  0  0  0
   -3.3064   -0.2456    0.0043 N   0  0  0  0  0  0  0  0  0  0  0  0
   -4.2397    0.8837    0.0511 C   0  0  0  0  0  0  0  0  0  0  0  0
   -5.0441    0.8782   -1.2172 C   0  0  0  0  0  0  0  0  0  0  0  0
   -6.4934    1.2346   -0.9992 C   0  0  0  0  0  0  0  0  0  0  0  0
   -7.0535    0.2088   -0.0269 C   0  0  0  0  0  0  0  0  0  0  0  0
   -6.3318    0.1857    1.2805 C   0  0  0  0  0  0  0  0  0  0  0  0
   -5.0405    0.9236    1.3033 C   0  0  0  0  0  0  0  0  0  0  0  0
   -2.4218   -5.2690   -0.7383 H   0  0  0  0  0  0  0  0  0  0  0  0
   -3.6227   -4.4493    0.3182 H   0  0  0  0  0  0  0  0  0  0  0  0
   -0.2576   -3.0933    0.1530 H   0  0  0  0  0  0  0  0  0  0  0  0
   -1.4988   -2.6031    1.3052 H   0  0  0  0  0  0  0  0  0  0  0  0
   -0.3969   -1.0876   -1.1377 H   0  0  0  0  0  0  0  0  0  0  0  0
   -0.0766   -0.5497    1.7935 H   0  0  0  0  0  0  0  0  0  0  0  0
    2.7183   -0.5072    2.0186 H   0  0  0  0  0  0  0  0  0  0  0  0
    2.8992    1.8449    2.6491 H   0  0  0  0  0  0  0  0  0  0  0  0
    1.1814    1.3640    2.6177 H   0  0  0  0  0  0  0  0  0  0  0  0
    0.3612    3.2912    0.9313 H   0  0  0  0  0  0  0  0  0  0  0  0
    3.6515    1.3271   -0.1700 H   0  0  0  0  0  0  0  0  0  0  0  0
    5.2392    1.7050   -1.2505 H   0  0  0  0  0  0  0  0  0  0  0  0
    7.2699    2.2218   -2.4157 H   0  0  0  0  0  0  0  0  0  0  0  0
    9.9313    0.7728   -2.8326 H   0  0  0  0  0  0  0  0  0  0  0  0
    9.4938   -0.4773    0.0205 H   0  0  0  0  0  0  0  0  0  0  0  0
    7.4141   -1.0131    1.2226 H   0  0  0  0  0  0  0  0  0  0  0  0
   -3.7562   -1.1761    0.0590 H   0  0  0  0  0  0  0  0  0  0  0  0
   -3.6051    1.8027    0.0169 H   0  0  0  0  0  0  0  0  0  0  0  0
   -5.0263   -0.1423   -1.6483 H   0  0  0  0  0  0  0  0  0  0  0  0
   -4.5712    1.5311   -2.0053 H   0  0  0  0  0  0  0  0  0  0  0  0
   -7.0166    1.0472   -1.9638 H   0  0  0  0  0  0  0  0  0  0  0  0
   -6.6413    2.2616   -0.6647 H   0  0  0  0  0  0  0  0  0  0  0  0
   -8.1493    0.3565    0.0615 H   0  0  0  0  0  0  0  0  0  0  0  0
   -6.8699   -0.7959   -0.5122 H   0  0  0  0  0  0  0  0  0  0  0  0
   -7.0180    0.6788    2.0321 H   0  0  0  0  0  0  0  0  0  0  0  0
   -6.2326   -0.8691    1.6742 H   0  0  0  0  0  0  0  0  0  0  0  0
   -5.2627    2.0043    1.5322 H   0  0  0  0  0  0  0  0  0  0  0  0
   -4.4218    0.5308    2.1383 H   0  0  0  0  0  0  0  0  0  0  0  0
  1  2  1  0
  2  3  2  0
  2  4  1  0
  4  5  1  0
  5  6  1  0
  6  7  1  0
  7  8  2  0
  7  9  1  0
  9 10  1  0
 10 11  1  0
  9 12  1  0
 12 13  1  0
 13 14  2  0
 13 15  1  0
 15 16  2  0
 16 17  1  0
 17 18  2  0
 18 19  1  0
 18 20  1  0
 20 21  2  0
  5 22  1  0
 22 23  2  0
 22 24  1  0
 24 25  1  0
 25 26  1  0
 26 27  1  0
 27 28  1  0
 28 29  1  0
 29 30  1  0
 21 15  1  0
 30 25  1  0
  1 31  1  0
  1 32  1  0
  4 33  1  0
  4 34  1  0
  5 35  1  6
  6 36  1  0
  9 37  1  0
 10 38  1  0
 10 39  1  0
 11 40  1  0
 12 41  1  0
 16 42  1  0
 17 43  1  0
 19 44  1  0
 20 45  1  0
 21 46  1  0
 24 47  1  0
 25 48  1  0
 26 49  1  0
 26 50  1  0
 27 51  1  0
 27 52  1  0
 28 53  1  0
 28 54  1  0
 29 55  1  0
 29 56  1  0
 30 57  1  0
 30 58  1  0
M  END
$$$$
[H]OC(=O)C([H])([H])[C@@]([H])(C(=O)O[H])N([H])C(=O)[C@@]([H])(N([H])C(=O)[C@@]([H])(N([H])C(=O)OC(C([H])([H])[H])(C([H])([H])[H])C([H])([H])[H])C([H])([H])C([H])([H])N([H])C(=O)N([H])c1c([H])c([H])c([N+](=O)[O-])c([H])c1[H])C([H])([H])c1c([H])c([H])c([H])c([N+](=O)[O-])c1[H]
     RDKit          3D

 84 85  0  0  0  0  0  0  0  0999 V2000
    4.2715    4.6175    1.7862 C   0  0  0  0  0  0  0  0  0  0  0  0
    3.2552    4.3422    0.7036 C   0  0  0  0  0  0  0  0  0  0  0  0
    3.8916    4.7205   -0.6168 C   0  0  0  0  0  0  0  0  0  0  0  0
    2.0772    5.2622    0.9166 C   0  0  0  0  0  0  0  0  0  0  0  0
    2.9063    2.9855    0.6699 O   0  0  0  0  0  0  0  0  0  0  0  0
    1.9647    2.5019   -0.2402 C   0  0  0  0  0  0  0  0  0  0  0  0
    1.4776    3.3409   -1.0109 O   0  0  0  0  0  0  0  0  0  0  0  0
    1.6128    1.1067   -0.2318 N   0  0  0  0  0  0  0  0  0  0  0  0
    0.6535    0.5625   -1.1261 C   0  0  1  0  0  0  0  0  0  0  0  0
    1.0489   -0.7212   -1.7201 C   0  0  0  0  0  0  0  0  0  0  0  0
    2.2759   -0.8813   -2.5277 C   0  0  0  0  0  0  0  0  0  0  0  0
    3.5489   -0.7027   -1.9384 N   0  0  0  0  0  0  0  0  0  0  0  0
    4.7418   -0.5367   -1.3914 C   0  0  0  0  0  0  0  0  0  0  0  0
    5.8516   -0.6870   -2.0747 O   0  0  0  0  0  0  0  0  0  0  0  0
    5.0176   -0.1868    0.0021 N   0  0  0  0  0  0  0  0  0  0  0  0
    6.3162   -0.0749    0.5023 C   0  0  0  0  0  0  0  0  0  0  0  0
    7.3389   -0.8941    0.1208 C   0  0  0  0  0  0  0  0  0  0  0  0
    8.6354   -0.6895    0.6191 C   0  0  0  0  0  0  0  0  0  0  0  0
    8.8698    0.3317    1.4867 C   0  0  0  0  0  0  0  0  0  0  0  0
    7.8415    1.1888    1.9003 C   0  0  0  0  0  0  0  0  0  0  0  0
    6.5924    0.9514    1.3867 C   0  0  0  0  0  0  0  0  0  0  0  0
   10.1739    0.5545    1.9809 N   0  0  0  0  0  0  0  0  0  0  0  0
   10.4067    1.5858    2.8479 O   0  0  0  0  0  0  0  0  0  0  0  0
   11.0826   -0.2068    1.5943 O   0  0  0  0  0  0  0  0  0  0  0  0
   -0.6682    0.3321   -0.3708 C   0  0  0  0  0  0  0  0  0  0  0  0
   -0.6304    0.6113    0.8460 O   0  0  0  0  0  0  0  0  0  0  0  0
   -1.7650   -0.1609   -1.0896 N   0  0  0  0  0  0  0  0  0  0  0  0
   -3.0760   -0.4437   -0.4543 C   0  0  1  0  0  0  0  0  0  0  0  0
   -4.1135    0.4305   -1.0279 C   0  0  0  0  0  0  0  0  0  0  0  0
   -5.4796    0.3140   -0.5504 C   0  0  0  0  0  0  0  0  0  0  0  0
   -5.9264    0.8965    0.6450 C   0  0  0  0  0  0  0  0  0  0  0  0
   -7.2509    0.8119    1.0233 C   0  0  0  0  0  0  0  0  0  0  0  0
   -8.1791    0.1501    0.2357 C   0  0  0  0  0  0  0  0  0  0  0  0
   -7.7790   -0.4347   -0.9493 C   0  0  0  0  0  0  0  0  0  0  0  0
   -6.4531   -0.3347   -1.2993 C   0  0  0  0  0  0  0  0  0  0  0  0
   -8.6726   -1.1221   -1.8069 N   0  0  0  0  0  0  0  0  0  0  0  0
   -8.2248   -1.6766   -2.9603 O   0  0  0  0  0  0  0  0  0  0  0  0
   -9.8633   -1.2086   -1.4963 O   0  0  0  0  0  0  0  0  0  0  0  0
   -3.2736   -1.8878   -0.4084 C   0  0  0  0  0  0  0  0  0  0  0  0
   -2.3882   -2.6443   -1.0137 O   0  0  0  0  0  0  0  0  0  0  0  0
   -4.2920   -2.6228    0.2104 N   0  0  0  0  0  0  0  0  0  0  0  0
   -4.3435   -4.0738    0.1810 C   0  0  1  0  0  0  0  0  0  0  0  0
   -4.3115   -4.6983    1.5590 C   0  0  0  0  0  0  0  0  0  0  0  0
   -5.4184   -4.3388    2.4251 C   0  0  0  0  0  0  0  0  0  0  0  0
   -5.4554   -4.8379    3.7360 O   0  0  0  0  0  0  0  0  0  0  0  0
   -6.3467   -3.6012    2.0652 O   0  0  0  0  0  0  0  0  0  0  0  0
   -5.3848   -4.6404   -0.6733 C   0  0  0  0  0  0  0  0  0  0  0  0
   -5.5126   -6.0264   -0.7917 O   0  0  0  0  0  0  0  0  0  0  0  0
   -6.1865   -3.9352   -1.3191 O   0  0  0  0  0  0  0  0  0  0  0  0
    5.2436    4.9351    1.3692 H   0  0  0  0  0  0  0  0  0  0  0  0
    3.9391    5.4383    2.4797 H   0  0  0  0  0  0  0  0  0  0  0  0
    4.4184    3.7359    2.4390 H   0  0  0  0  0  0  0  0  0  0  0  0
    4.4318    3.8818   -1.0994 H   0  0  0  0  0  0  0  0  0  0  0  0
    3.1498    5.1030   -1.3384 H   0  0  0  0  0  0  0  0  0  0  0  0
    4.6287    5.5594   -0.4725 H   0  0  0  0  0  0  0  0  0  0  0  0
    2.4775    6.1906    1.3768 H   0  0  0  0  0  0  0  0  0  0  0  0
    1.3669    4.8455    1.6858 H   0  0  0  0  0  0  0  0  0  0  0  0
    1.5649    5.5702   -0.0169 H   0  0  0  0  0  0  0  0  0  0  0  0
    2.0626    0.4739    0.4518 H   0  0  0  0  0  0  0  0  0  0  0  0
    0.4158    1.3113   -1.8996 H   0  0  0  0  0  0  0  0  0  0  0  0
    0.1936   -1.1608   -2.3459 H   0  0  0  0  0  0  0  0  0  0  0  0
    1.1215   -1.5365   -0.9051 H   0  0  0  0  0  0  0  0  0  0  0  0
    2.2232   -2.0001   -2.8645 H   0  0  0  0  0  0  0  0  0  0  0  0
    2.1156   -0.2933   -3.4890 H   0  0  0  0  0  0  0  0  0  0  0  0
    4.1352   -0.9472   -3.1594 H   0  0  0  0  0  0  0  0  0  0  0  0
    4.2412   -0.0301    0.6533 H   0  0  0  0  0  0  0  0  0  0  0  0
    7.2195   -1.7276   -0.5349 H   0  0  0  0  0  0  0  0  0  0  0  0
    9.4632   -1.3251    0.3355 H   0  0  0  0  0  0  0  0  0  0  0  0
    8.0810    1.9705    2.5885 H   0  0  0  0  0  0  0  0  0  0  0  0
    5.7686    1.6105    1.6937 H   0  0  0  0  0  0  0  0  0  0  0  0
   -1.6656   -0.3393   -2.1111 H   0  0  0  0  0  0  0  0  0  0  0  0
   -2.9409   -0.1287    0.6306 H   0  0  0  0  0  0  0  0  0  0  0  0
   -3.7871    1.4974   -0.8093 H   0  0  0  0  0  0  0  0  0  0  0  0
   -4.1617    0.3867   -2.1513 H   0  0  0  0  0  0  0  0  0  0  0  0
   -5.1988    1.4031    1.2463 H   0  0  0  0  0  0  0  0  0  0  0  0
   -7.5609    1.2808    1.9502 H   0  0  0  0  0  0  0  0  0  0  0  0
   -9.2308    0.0730    0.5207 H   0  0  0  0  0  0  0  0  0  0  0  0
   -6.1423   -0.8029   -2.2476 H   0  0  0  0  0  0  0  0  0  0  0  0
   -5.0399   -2.1224    0.7255 H   0  0  0  0  0  0  0  0  0  0  0  0
   -3.3634   -4.3736   -0.3107 H   0  0  0  0  0  0  0  0  0  0  0  0
   -4.2434   -5.8238    1.4507 H   0  0  0  0  0  0  0  0  0  0  0  0
   -3.3144   -4.4389    2.0356 H   0  0  0  0  0  0  0  0  0  0  0  0
   -6.3438   -4.9629    4.2277 H   0  0  0  0  0  0  0  0  0  0  0  0
   -6.1261   -6.5829   -0.1847 H   0  0  0  0  0  0  0  0  0  0  0  0
  1  2  1  0
  2  3  1  0
  2  4  1  0
  2  5  1  0
  5  6  1  0
  6  7  2  0
  6  8  1  0
  8  9  1  0
  9 10  1  0
 10 11  1  0
 11 12  1  0
 12 13  1  0
 13 14  2  0
 13 15  1  0
 15 16  1  0
 16 17  2  0
 17 18  1  0
 18 19  2  0
 19 20  1  0
 20 21  2  0
 19 22  1  0
 22 23  1  0
 22 24  2  0
  9 25  1  0
 25 26  2  0
 25 27  1  0
 27 28  1  0
 28 29  1  0
 29 30  1  0
 30 31  2  0
 31 32  1  0
 32 33  2  0
 33 34  1  0
 34 35  2  0
 34 36  1  0
 36 37  1  0
 36 38  2  0
 28 39  1  0
 39 40  2  0
 39 41  1  0
 41 42  1  0
 42 43  1  0
 43 44  1  0
 44 45  1  0
 44 46  2  0
 42 47  1  0
 47 48  1  0
 47 49  2  0
 21 16  1  0
 35 30  1  0
  1 50  1  0
  1 51  1  0
  1 52  1  0
  3 53  1  0
  3 54  1  0
  3 55  1  0
  4 56  1  0
  4 57  1  0
  4 58  1  0
  8 59  1  0
  9 60  1  6
 10 61  1  0
 10 62  1  0
 11 63  1  0
 11 64  1  0
 12 65  1  0
 15 66  1  0
 17 67  1  0
 18 68  1  0
 20 69  1  0
 21 70  1  0
 27 71  1  0
 28 72  1  1
 29 73  1  0
 29 74  1  0
 31 75  1  0
 32 76  1  0
 33 77  1  0
 35 78  1  0
 41 79  1  0
 42 80  1  6
 43 81  1  0
 43 82  1  0
 45 83  1  0
 48 84  1  0
M  CHG  4  22   1  23  -1  36   1  37  -1
M  END
$$$$
[H]c1c([H])c(C(=O)N([H])[C@]([H])(C(=O)OC([H])([H])[H])C([H])([H])C([H])([H])N([H])[H])c([H])c(-c2c([H])c([H])c([H])c3onc(-c4c([H])c([H])c(Cl)c(Cl)c4[H])c23)c1[H]
     RDKit          3D

 55 58  0  0  0  0  0  0  0  0999 V2000
    5.2857    3.8528    0.5690 C   0  0  0  0  0  0  0  0  0  0  0  0
    4.6952    2.7864    1.3245 O   0  0  0  0  0  0  0  0  0  0  0  0
    3.8620    1.8848    0.6955 C   0  0  0  0  0  0  0  0  0  0  0  0
    3.6371    2.0096   -0.5321 O   0  0  0  0  0  0  0  0  0  0  0  0
    3.2297    0.7757    1.4522 C   0  0  2  0  0  0  0  0  0  0  0  0
    4.3022   -0.1049    2.0221 C   0  0  0  0  0  0  0  0  0  0  0  0
    5.1958   -0.7458    1.0114 C   0  0  0  0  0  0  0  0  0  0  0  0
    5.9138    0.1724    0.1931 N   0  0  0  0  0  0  0  0  0  0  0  0
    2.3730   -0.0116    0.5721 N   0  0  0  0  0  0  0  0  0  0  0  0
    0.9972   -0.0789    0.8064 C   0  0  0  0  0  0  0  0  0  0  0  0
    0.4988    0.5551    1.8006 O   0  0  0  0  0  0  0  0  0  0  0  0
    0.1338   -0.8621   -0.0691 C   0  0  0  0  0  0  0  0  0  0  0  0
    0.5710   -1.3538   -1.2641 C   0  0  0  0  0  0  0  0  0  0  0  0
   -0.2622   -2.1066   -2.0931 C   0  0  0  0  0  0  0  0  0  0  0  0
   -1.5447   -2.3395   -1.6676 C   0  0  0  0  0  0  0  0  0  0  0  0
   -2.0480   -1.8597   -0.4508 C   0  0  0  0  0  0  0  0  0  0  0  0
   -1.1848   -1.1263    0.3229 C   0  0  0  0  0  0  0  0  0  0  0  0
   -3.3897   -2.2644   -0.0642 C   0  0  0  0  0  0  0  0  0  0  0  0
   -3.5835   -3.6345    0.2130 C   0  0  0  0  0  0  0  0  0  0  0  0
   -4.7929   -4.0346    0.6916 C   0  0  0  0  0  0  0  0  0  0  0  0
   -5.8107   -3.1355    0.9044 C   0  0  0  0  0  0  0  0  0  0  0  0
   -5.6422   -1.8034    0.6392 C   0  0  0  0  0  0  0  0  0  0  0  0
   -6.4062   -0.7448    0.7389 O   0  0  0  0  0  0  0  0  0  0  0  0
   -5.8114    0.3024    0.3655 N   0  0  0  0  0  0  0  0  0  0  0  0
   -4.5176   -0.0024   -0.0392 C   0  0  0  0  0  0  0  0  0  0  0  0
   -3.6050    0.9914   -0.5341 C   0  0  0  0  0  0  0  0  0  0  0  0
   -3.2646    2.0789    0.2867 C   0  0  0  0  0  0  0  0  0  0  0  0
   -2.5006    3.1203   -0.1342 C   0  0  0  0  0  0  0  0  0  0  0  0
   -2.0102    3.1604   -1.4200 C   0  0  0  0  0  0  0  0  0  0  0  0
   -1.0255    4.4992   -1.9674 Cl  0  0  0  0  0  0  0  0  0  0  0  0
   -2.3216    2.1038   -2.2705 C   0  0  0  0  0  0  0  0  0  0  0  0
   -1.7007    2.1454   -3.9131 Cl  0  0  0  0  0  0  0  0  0  0  0  0
   -3.0992    1.0623   -1.8124 C   0  0  0  0  0  0  0  0  0  0  0  0
   -4.3941   -1.3514    0.1370 C   0  0  0  0  0  0  0  0  0  0  0  0
    5.6819    3.3590   -0.3604 H   0  0  0  0  0  0  0  0  0  0  0  0
    4.4858    4.5518    0.3042 H   0  0  0  0  0  0  0  0  0  0  0  0
    6.1334    4.2909    1.1048 H   0  0  0  0  0  0  0  0  0  0  0  0
    2.5887    1.2279    2.2266 H   0  0  0  0  0  0  0  0  0  0  0  0
    3.7925   -0.8768    2.6387 H   0  0  0  0  0  0  0  0  0  0  0  0
    4.9653    0.4550    2.7314 H   0  0  0  0  0  0  0  0  0  0  0  0
    5.9627   -1.3347    1.5904 H   0  0  0  0  0  0  0  0  0  0  0  0
    4.6586   -1.5253    0.4124 H   0  0  0  0  0  0  0  0  0  0  0  0
    6.8863    0.3630    0.5057 H   0  0  0  0  0  0  0  0  0  0  0  0
    5.9389   -0.1132   -0.8079 H   0  0  0  0  0  0  0  0  0  0  0  0
    2.8153   -0.5090   -0.2120 H   0  0  0  0  0  0  0  0  0  0  0  0
    1.5878   -1.1600   -1.5934 H   0  0  0  0  0  0  0  0  0  0  0  0
    0.1297   -2.4774   -3.0353 H   0  0  0  0  0  0  0  0  0  0  0  0
   -2.1854   -2.9244   -2.3161 H   0  0  0  0  0  0  0  0  0  0  0  0
   -1.5416   -0.7492    1.2533 H   0  0  0  0  0  0  0  0  0  0  0  0
   -2.7536   -4.2925    0.0276 H   0  0  0  0  0  0  0  0  0  0  0  0
   -4.9741   -5.0868    0.9158 H   0  0  0  0  0  0  0  0  0  0  0  0
   -6.7745   -3.4469    1.2865 H   0  0  0  0  0  0  0  0  0  0  0  0
   -3.6345    2.0761    1.3007 H   0  0  0  0  0  0  0  0  0  0  0  0
   -2.2310    3.9707    0.4981 H   0  0  0  0  0  0  0  0  0  0  0  0
   -3.3123    0.2612   -2.5220 H   0  0  0  0  0  0  0  0  0  0  0  0
  1  2  1  0
  2  3  1  0
  3  4  2  0
  3  5  1  0
  5  6  1  0
  6  7  1  0
  7  8  1  0
  5  9  1  0
  9 10  1  0
 10 11  2  0
 10 12  1  0
 12 13  2  0
 13 14  1  0
 14 15  2  0
 15 16  1  0
 16 17  2  0
 16 18  1  0
 18 19  2  0
 19 20  1  0
 20 21  2  0
 21 22  1  0
 22 23  1  0
 23 24  1  0
 24 25  2  0
 25 26  1  0
 26 27  2  0
 27 28  1  0
 28 29  2  0
 29 30  1  0
 29 31  1  0
 31 32  1  0
 31 33  2  0
 25 34  1  0
 17 12  1  0
 34 18  1  0
 34 22  2  0
 33 26  1  0
  1 35  1  0
  1 36  1  0
  1 37  1  0
  5 38  1  1
  6 39  1  0
  6 40  1  0
  7 41  1  0
  7 42  1  0
  8 43  1  0
  8 44  1  0
  9 45  1  0
 13 46  1  0
 14 47  1  0
 15 48  1  0
 17 49  1  0
 19 50  1  0
 20 51  1  0
 21 52  1  0
 27 53  1  0
 28 54  1  0
 33 55  1  0
M  END
$$$$
[H]OC(=O)C([H])([H])OC(=O)N([H])[C@@]([H])(C(=O)N(C(=O)N([H])C([H])([H])c1c([H])c([H])c([H])c([H])c1[H])C([H])([H])C(=O)N([H])[C@]([H])(C(=O)N1C([H])([H])C([H])([H])C([H])([H])[C@@]1([H])C(=O)OC([H])([H])C([H])([H])[H])C([H])([H])c1c([H])c([H])c([H])c([H])c1[H])C([H])(C([H])([H])[H])C([H])([H])[H]
     RDKit          3D

 92 94  0  0  0  0  0  0  0  0999 V2000
    4.7769   -0.4128    5.7281 C   0  0  0  0  0  0  0  0  0  0  0  0
    6.0729   -0.1938    4.9761 C   0  0  0  0  0  0  0  0  0  0  0  0
    5.9554   -0.4645    3.5924 O   0  0  0  0  0  0  0  0  0  0  0  0
    5.0399    0.2576    2.8136 C   0  0  0  0  0  0  0  0  0  0  0  0
    4.3600    1.1262    3.4058 O   0  0  0  0  0  0  0  0  0  0  0  0
    4.8911   -0.0083    1.3425 C   0  0  2  0  0  0  0  0  0  0  0  0
    6.1161    0.4352    0.5739 C   0  0  0  0  0  0  0  0  0  0  0  0
    5.7473    1.6978   -0.1344 C   0  0  0  0  0  0  0  0  0  0  0  0
    4.5211    2.1700    0.6519 C   0  0  0  0  0  0  0  0  0  0  0  0
    3.8435    0.8817    0.8705 N   0  0  0  0  0  0  0  0  0  0  0  0
    2.4718    0.6361    0.6288 C   0  0  0  0  0  0  0  0  0  0  0  0
    1.7384    1.6056    0.2801 O   0  0  0  0  0  0  0  0  0  0  0  0
    1.7938   -0.6818    0.7498 C   0  0  2  0  0  0  0  0  0  0  0  0
    2.1325   -1.6021   -0.3681 C   0  0  0  0  0  0  0  0  0  0  0  0
    1.7898   -1.0275   -1.7251 C   0  0  0  0  0  0  0  0  0  0  0  0
    0.5694   -1.2268   -2.3173 C   0  0  0  0  0  0  0  0  0  0  0  0
    0.3184   -0.6754   -3.5589 C   0  0  0  0  0  0  0  0  0  0  0  0
    1.2279    0.0719   -4.2517 C   0  0  0  0  0  0  0  0  0  0  0  0
    2.4611    0.2587   -3.6270 C   0  0  0  0  0  0  0  0  0  0  0  0
    2.7376   -0.2736   -2.4003 C   0  0  0  0  0  0  0  0  0  0  0  0
    0.3584   -0.5624    0.9062 N   0  0  0  0  0  0  0  0  0  0  0  0
   -0.2281   -0.6386    2.2249 C   0  0  0  0  0  0  0  0  0  0  0  0
    0.6178   -0.8117    3.1710 O   0  0  0  0  0  0  0  0  0  0  0  0
   -1.6302   -0.5318    2.5585 C   0  0  0  0  0  0  0  0  0  0  0  0
   -2.5333   -0.4138    1.3681 N   0  0  0  0  0  0  0  0  0  0  0  0
   -3.0939   -1.6350    0.9829 C   0  0  0  0  0  0  0  0  0  0  0  0
   -2.8002   -2.6447    1.7440 O   0  0  0  0  0  0  0  0  0  0  0  0
   -3.9344   -1.9731   -0.0905 N   0  0  0  0  0  0  0  0  0  0  0  0
   -4.4143   -3.3223   -0.2377 C   0  0  0  0  0  0  0  0  0  0  0  0
   -3.4860   -4.3237   -0.6989 C   0  0  0  0  0  0  0  0  0  0  0  0
   -3.7405   -5.6565   -0.4641 C   0  0  0  0  0  0  0  0  0  0  0  0
   -2.8999   -6.6653   -0.8718 C   0  0  0  0  0  0  0  0  0  0  0  0
   -1.7524   -6.3625   -1.5427 C   0  0  0  0  0  0  0  0  0  0  0  0
   -1.4623   -5.0361   -1.7982 C   0  0  0  0  0  0  0  0  0  0  0  0
   -2.3301   -4.0297   -1.3751 C   0  0  0  0  0  0  0  0  0  0  0  0
   -2.6375    0.8692    0.8474 C   0  0  0  0  0  0  0  0  0  0  0  0
   -1.8852    1.7596    1.4360 O   0  0  0  0  0  0  0  0  0  0  0  0
   -3.4412    1.4197   -0.2534 C   0  0  1  0  0  0  0  0  0  0  0  0
   -4.9183    1.5516    0.0921 C   0  0  0  0  0  0  0  0  0  0  0  0
   -5.1199    2.4823    1.2860 C   0  0  0  0  0  0  0  0  0  0  0  0
   -5.7363    1.9728   -1.0827 C   0  0  0  0  0  0  0  0  0  0  0  0
   -2.9597    2.7845   -0.5914 N   0  0  0  0  0  0  0  0  0  0  0  0
   -2.2447    2.9875   -1.7958 C   0  0  0  0  0  0  0  0  0  0  0  0
   -2.0196    2.0259   -2.5594 O   0  0  0  0  0  0  0  0  0  0  0  0
   -1.7784    4.2240   -2.1647 O   0  0  0  0  0  0  0  0  0  0  0  0
   -1.0569    4.5463   -3.3170 C   0  0  0  0  0  0  0  0  0  0  0  0
   -0.7944    6.0032   -3.3165 C   0  0  0  0  0  0  0  0  0  0  0  0
   -1.2701    6.7565   -2.2539 O   0  0  0  0  0  0  0  0  0  0  0  0
   -0.1605    6.5082   -4.2596 O   0  0  0  0  0  0  0  0  0  0  0  0
    4.3457    0.5936    6.0013 H   0  0  0  0  0  0  0  0  0  0  0  0
    4.0156   -0.9683    5.1476 H   0  0  0  0  0  0  0  0  0  0  0  0
    4.9704   -0.9197    6.6919 H   0  0  0  0  0  0  0  0  0  0  0  0
    6.8202   -0.9084    5.3988 H   0  0  0  0  0  0  0  0  0  0  0  0
    6.4517    0.8227    5.1578 H   0  0  0  0  0  0  0  0  0  0  0  0
    4.6753   -1.0596    1.1519 H   0  0  0  0  0  0  0  0  0  0  0  0
    6.4567   -0.3785   -0.1288 H   0  0  0  0  0  0  0  0  0  0  0  0
    6.9066    0.6697    1.3095 H   0  0  0  0  0  0  0  0  0  0  0  0
    6.5094    2.4892   -0.1149 H   0  0  0  0  0  0  0  0  0  0  0  0
    5.4367    1.5074   -1.2021 H   0  0  0  0  0  0  0  0  0  0  0  0
    4.8057    2.6772    1.5793 H   0  0  0  0  0  0  0  0  0  0  0  0
    3.8813    2.8035    0.0090 H   0  0  0  0  0  0  0  0  0  0  0  0
    2.2013   -1.1237    1.7044 H   0  0  0  0  0  0  0  0  0  0  0  0
    3.1667   -1.9311   -0.3680 H   0  0  0  0  0  0  0  0  0  0  0  0
    1.4244   -2.4840   -0.2854 H   0  0  0  0  0  0  0  0  0  0  0  0
   -0.1790   -1.8076   -1.8226 H   0  0  0  0  0  0  0  0  0  0  0  0
   -0.6591   -0.8313   -4.0429 H   0  0  0  0  0  0  0  0  0  0  0  0
    1.0539    0.5181   -5.2289 H   0  0  0  0  0  0  0  0  0  0  0  0
    3.1872    0.8607   -4.1894 H   0  0  0  0  0  0  0  0  0  0  0  0
    3.7208   -0.1047   -1.9544 H   0  0  0  0  0  0  0  0  0  0  0  0
   -0.2383   -0.4176    0.0814 H   0  0  0  0  0  0  0  0  0  0  0  0
   -1.7955    0.3758    3.1667 H   0  0  0  0  0  0  0  0  0  0  0  0
   -1.9796   -1.3843    3.2061 H   0  0  0  0  0  0  0  0  0  0  0  0
   -4.2302   -1.2871   -0.8050 H   0  0  0  0  0  0  0  0  0  0  0  0
   -5.2912   -3.3098   -0.9563 H   0  0  0  0  0  0  0  0  0  0  0  0
   -4.9100   -3.6592    0.7271 H   0  0  0  0  0  0  0  0  0  0  0  0
   -4.6563   -5.9531    0.0714 H   0  0  0  0  0  0  0  0  0  0  0  0
   -3.1655   -7.7050   -0.6517 H   0  0  0  0  0  0  0  0  0  0  0  0
   -1.0679   -7.1332   -1.8764 H   0  0  0  0  0  0  0  0  0  0  0  0
   -0.5775   -4.7358   -2.3216 H   0  0  0  0  0  0  0  0  0  0  0  0
   -2.1287   -2.9865   -1.5692 H   0  0  0  0  0  0  0  0  0  0  0  0
   -3.3336    0.8208   -1.1518 H   0  0  0  0  0  0  0  0  0  0  0  0
   -5.2688    0.5663    0.4300 H   0  0  0  0  0  0  0  0  0  0  0  0
   -4.1591    2.6844    1.7952 H   0  0  0  0  0  0  0  0  0  0  0  0
   -5.7881    2.0396    2.0524 H   0  0  0  0  0  0  0  0  0  0  0  0
   -5.6465    3.4156    0.9484 H   0  0  0  0  0  0  0  0  0  0  0  0
   -6.7282    1.4766   -1.0104 H   0  0  0  0  0  0  0  0  0  0  0  0
   -5.2398    1.5803   -2.0115 H   0  0  0  0  0  0  0  0  0  0  0  0
   -5.8225    3.0743   -1.1866 H   0  0  0  0  0  0  0  0  0  0  0  0
   -3.1323    3.5999    0.0284 H   0  0  0  0  0  0  0  0  0  0  0  0
   -0.1337    3.9367   -3.4343 H   0  0  0  0  0  0  0  0  0  0  0  0
   -1.6826    4.3084   -4.1992 H   0  0  0  0  0  0  0  0  0  0  0  0
   -1.4281    6.4099   -1.3215 H   0  0  0  0  0  0  0  0  0  0  0  0
  1  2  1  0
  2  3  1  0
  3  4  1  0
  4  5  2  0
  4  6  1  0
  6  7  1  0
  7  8  1  0
  8  9  1  0
  9 10  1  0
 10 11  1  0
 11 12  2  0
 11 13  1  0
 13 14  1  0
 14 15  1  0
 15 16  2  0
 16 17  1  0
 17 18  2  0
 18 19  1  0
 19 20  2  0
 13 21  1  0
 21 22  1  0
 22 23  2  0
 22 24  1  0
 24 25  1  0
 25 26  1  0
 26 27  2  0
 26 28  1  0
 28 29  1  0
 29 30  1  0
 30 31  2  0
 31 32  1  0
 32 33  2  0
 33 34  1  0
 34 35  2  0
 25 36  1  0
 36 37  2  0
 36 38  1  0
 38 39  1  0
 39 40  1  0
 39 41  1  0
 38 42  1  0
 42 43  1  0
 43 44  2  0
 43 45  1  0
 45 46  1  0
 46 47  1  0
 47 48  1  0
 47 49  2  0
 10  6  1  0
 20 15  1  0
 35 30  1  0
  1 50  1  0
  1 51  1  0
  1 52  1  0
  2 53  1  0
  2 54  1  0
  6 55  1  1
  7 56  1  0
  7 57  1  0
  8 58  1  0
  8 59  1  0
  9 60  1  0
  9 61  1  0
 13 62  1  1
 14 63  1  0
 14 64  1  0
 16 65  1  0
 17 66  1  0
 18 67  1  0
 19 68  1  0
 20 69  1  0
 21 70  1  0
 24 71  1  0
 24 72  1  0
 28 73  1  0
 29 74  1  0
 29 75  1  0
 31 76  1  0
 32 77  1  0
 33 78  1  0
 34 79  1  0
 35 80  1  0
 38 81  1  6
 39 82  1  0
 40 83  1  0
 40 84  1  0
 40 85  1  0
 41 86  1  0
 41 87  1  0
 41 88  1  0
 42 89  1  0
 46 90  1  0
 46 91  1  0
 48 92  1  0
M  END
$$$$
[H]c1c([H])c2c(c([H])c1Cl)C([H])([H])N=C2N1C([H])([H])C([H])([H])N(C([H])([H])[H])C([H])([H])C1([H])[H]
     RDKit          3D

 33 35  0  0  0  0  0  0  0  0999 V2000
    4.5515    0.1514   -0.1029 C   0  0  0  0  0  0  0  0  0  0  0  0
    3.2516    0.5257    0.3703 N   0  0  0  0  0  0  0  0  0  0  0  0
    2.6321   -0.5348    1.0968 C   0  0  0  0  0  0  0  0  0  0  0  0
    1.6142   -1.2541    0.2459 C   0  0  0  0  0  0  0  0  0  0  0  0
    0.5900   -0.2894   -0.1047 N   0  0  0  0  0  0  0  0  0  0  0  0
    0.9827    1.1105   -0.0900 C   0  0  0  0  0  0  0  0  0  0  0  0
    2.4259    1.1766   -0.5874 C   0  0  0  0  0  0  0  0  0  0  0  0
   -0.7328   -0.7136   -0.4448 C   0  0  0  0  0  0  0  0  0  0  0  0
   -1.0865   -1.7173   -1.1683 N   0  0  0  0  0  0  0  0  0  0  0  0
   -2.5006   -1.8444   -1.2999 C   0  0  0  0  0  0  0  0  0  0  0  0
   -3.0368   -0.7137   -0.5120 C   0  0  0  0  0  0  0  0  0  0  0  0
   -4.3466   -0.3084   -0.2622 C   0  0  0  0  0  0  0  0  0  0  0  0
   -4.5855    0.8021    0.5199 C   0  0  0  0  0  0  0  0  0  0  0  0
   -6.2184    1.3588    0.8680 Cl  0  0  0  0  0  0  0  0  0  0  0  0
   -3.5119    1.4937    1.0427 C   0  0  0  0  0  0  0  0  0  0  0  0
   -2.2222    1.0711    0.7800 C   0  0  0  0  0  0  0  0  0  0  0  0
   -1.9468   -0.0417   -0.0027 C   0  0  0  0  0  0  0  0  0  0  0  0
    5.0981    0.9985   -0.5494 H   0  0  0  0  0  0  0  0  0  0  0  0
    4.4764   -0.7193   -0.8133 H   0  0  0  0  0  0  0  0  0  0  0  0
    5.1290   -0.2068    0.7988 H   0  0  0  0  0  0  0  0  0  0  0  0
    3.4076   -1.2461    1.4924 H   0  0  0  0  0  0  0  0  0  0  0  0
    2.1248   -0.1333    2.0207 H   0  0  0  0  0  0  0  0  0  0  0  0
    2.1578   -1.6073   -0.6755 H   0  0  0  0  0  0  0  0  0  0  0  0
    1.2118   -2.1477    0.7289 H   0  0  0  0  0  0  0  0  0  0  0  0
    0.3006    1.7143   -0.7006 H   0  0  0  0  0  0  0  0  0  0  0  0
    1.0357    1.4663    0.9793 H   0  0  0  0  0  0  0  0  0  0  0  0
    2.4843    0.7604   -1.6056 H   0  0  0  0  0  0  0  0  0  0  0  0
    2.7210    2.2453   -0.6379 H   0  0  0  0  0  0  0  0  0  0  0  0
   -2.8674   -1.7500   -2.3411 H   0  0  0  0  0  0  0  0  0  0  0  0
   -2.9104   -2.7942   -0.9074 H   0  0  0  0  0  0  0  0  0  0  0  0
   -5.2049   -0.8321   -0.6594 H   0  0  0  0  0  0  0  0  0  0  0  0
   -3.6729    2.3768    1.6656 H   0  0  0  0  0  0  0  0  0  0  0  0
   -1.3514    1.6027    1.1832 H   0  0  0  0  0  0  0  0  0  0  0  0
  1  2  1  0
  2  3  1  0
  3  4  1  0
  4  5  1  0
  5  6  1  0
  6  7  1  0
  5  8  1  0
  8  9  2  0
  9 10  1  0
 10 11  1  0
 11 12  2  0
 12 13  1  0
 13 14  1  0
 13 15  2  0
 15 16  1  0
 16 17  2  0
  7  2  1  0
 17  8  1  0
 17 11  1  0
  1 18  1  0
  1 19  1  0
  1 20  1  0
  3 21  1  0
  3 22  1  0
  4 23  1  0
  4 24  1  0
  6 25  1  0
  6 26  1  0
  7 27  1  0
  7 28  1  0
 10 29  1  0
 10 30  1  0
 12 31  1  0
 15 32  1  0
 16 33  1  0
M  END
$$$$
[H]c1c([H])c([H])c(-c2c(F)c([H])c([H])c3c2C([H])([H])C([H])([H])C([H])([H])C3=O)c(F)c1[H]
     RDKit          3D

 31 33  0  0  0  0  0  0  0  0999 V2000
    1.5515    1.5407    2.1039 F   0  0  0  0  0  0  0  0  0  0  0  0
    2.1604    1.0721    0.9872 C   0  0  0  0  0  0  0  0  0  0  0  0
    3.3100    1.6779    0.5181 C   0  0  0  0  0  0  0  0  0  0  0  0
    3.9732    1.2386   -0.6201 C   0  0  0  0  0  0  0  0  0  0  0  0
    3.4503    0.1561   -1.2943 C   0  0  0  0  0  0  0  0  0  0  0  0
    2.2975   -0.4527   -0.8253 C   0  0  0  0  0  0  0  0  0  0  0  0
    1.6434   -0.0117    0.3058 C   0  0  0  0  0  0  0  0  0  0  0  0
    0.4341   -0.6999    0.7431 C   0  0  0  0  0  0  0  0  0  0  0  0
   -0.8230   -0.2992    0.2863 C   0  0  0  0  0  0  0  0  0  0  0  0
   -0.8711    0.8338   -0.6439 C   0  0  0  0  0  0  0  0  0  0  0  0
   -2.1450    0.8691   -1.4484 C   0  0  0  0  0  0  0  0  0  0  0  0
   -3.3087    0.8625   -0.4552 C   0  0  0  0  0  0  0  0  0  0  0  0
   -3.2957   -0.4827    0.1812 C   0  0  0  0  0  0  0  0  0  0  0  0
   -4.2998   -1.2106    0.3006 O   0  0  0  0  0  0  0  0  0  0  0  0
   -1.9830   -0.9363    0.6870 C   0  0  0  0  0  0  0  0  0  0  0  0
   -1.8901   -1.9977    1.5633 C   0  0  0  0  0  0  0  0  0  0  0  0
   -0.6681   -2.4241    2.0374 C   0  0  0  0  0  0  0  0  0  0  0  0
    0.4702   -1.7694    1.6202 C   0  0  0  0  0  0  0  0  0  0  0  0
    1.6803   -2.1717    2.0735 F   0  0  0  0  0  0  0  0  0  0  0  0
    3.7280    2.5343    1.0473 H   0  0  0  0  0  0  0  0  0  0  0  0
    4.8779    1.7248   -0.9789 H   0  0  0  0  0  0  0  0  0  0  0  0
    3.9601   -0.2002   -2.1897 H   0  0  0  0  0  0  0  0  0  0  0  0
    1.9285   -1.3021   -1.3953 H   0  0  0  0  0  0  0  0  0  0  0  0
    0.0162    0.8550   -1.3302 H   0  0  0  0  0  0  0  0  0  0  0  0
   -0.8598    1.7705   -0.0260 H   0  0  0  0  0  0  0  0  0  0  0  0
   -2.2182    1.8303   -1.9874 H   0  0  0  0  0  0  0  0  0  0  0  0
   -2.2708   -0.0001   -2.1071 H   0  0  0  0  0  0  0  0  0  0  0  0
   -3.1038    1.6146    0.3612 H   0  0  0  0  0  0  0  0  0  0  0  0
   -4.2497    1.1046   -0.9491 H   0  0  0  0  0  0  0  0  0  0  0  0
   -2.8267   -2.4657    1.8489 H   0  0  0  0  0  0  0  0  0  0  0  0
   -0.6680   -3.2606    2.7206 H   0  0  0  0  0  0  0  0  0  0  0  0
  1  2  1  0
  2  3  2  0
  3  4  1  0
  4  5  2  0
  5  6  1  0
  6  7  2  0
  7  8  1  0
  8  9  2  0
  9 10  1  0
 10 11  1  0
 11 12  1  0
 12 13  1  0
 13 14  2  0
 13 15  1  0
 15 16  2  0
 16 17  1  0
 17 18  2  0
 18 19  1  0
  7  2  1  0
 18  8  1  0
 15  9  1  0
  3 20  1  0
  4 21  1  0
  5 22  1  0
  6 23  1  0
 10 24  1  0
 10 25  1  0
 11 26  1  0
 11 27  1  0
 12 28  1  0
 12 29  1  0
 16 30  1  0
 17 31  1  0
M  END
$$$$
[H]OC([H])([H])C([H])([H])C([H])([H])C([H])([H])C([H])([H])N([H])C(=O)C1([H])C([H])([H])C([H])([H])N(C([H])([H])c2c([H])c([H])c(C(=O)C([H])([H])[H])c([H])c2[H])C([H])([H])C1([H])[H]
     RDKit          3D

 55 56  0  0  0  0  0  0  0  0999 V2000
    8.0622    2.2227    0.5880 C   0  0  0  0  0  0  0  0  0  0  0  0
    6.6585    2.4831    0.2411 C   0  0  0  0  0  0  0  0  0  0  0  0
    6.2146    3.6328   -0.0118 O   0  0  0  0  0  0  0  0  0  0  0  0
    5.7327    1.3337    0.1895 C   0  0  0  0  0  0  0  0  0  0  0  0
    6.1841    0.0621    0.4606 C   0  0  0  0  0  0  0  0  0  0  0  0
    5.2917   -0.9832    0.4025 C   0  0  0  0  0  0  0  0  0  0  0  0
    3.9682   -0.8038    0.0839 C   0  0  0  0  0  0  0  0  0  0  0  0
    3.0857   -1.9613    0.0353 C   0  0  0  0  0  0  0  0  0  0  0  0
    1.6886   -1.7254    0.0571 N   0  0  0  0  0  0  0  0  0  0  0  0
    1.1469   -1.0831    1.2022 C   0  0  0  0  0  0  0  0  0  0  0  0
   -0.2548   -0.5950    0.8036 C   0  0  0  0  0  0  0  0  0  0  0  0
   -1.1035   -1.8477    0.6982 C   0  0  0  0  0  0  0  0  0  0  0  0
   -0.5070   -2.7590   -0.3233 C   0  0  0  0  0  0  0  0  0  0  0  0
    0.9843   -2.9501   -0.1782 C   0  0  0  0  0  0  0  0  0  0  0  0
   -2.4894   -1.5197    0.2532 C   0  0  0  0  0  0  0  0  0  0  0  0
   -3.4411   -1.8170    1.0023 O   0  0  0  0  0  0  0  0  0  0  0  0
   -2.7585   -0.8865   -0.9828 N   0  0  0  0  0  0  0  0  0  0  0  0
   -4.0301   -0.5269   -1.5041 C   0  0  0  0  0  0  0  0  0  0  0  0
   -4.7877    0.4809   -0.6021 C   0  0  0  0  0  0  0  0  0  0  0  0
   -6.0953    0.7988   -1.2296 C   0  0  0  0  0  0  0  0  0  0  0  0
   -6.9457    1.7233   -0.4361 C   0  0  0  0  0  0  0  0  0  0  0  0
   -6.3778    3.0656   -0.1763 C   0  0  0  0  0  0  0  0  0  0  0  0
   -5.2193    3.0471    0.5652 O   0  0  0  0  0  0  0  0  0  0  0  0
    3.5220    0.4602   -0.1851 C   0  0  0  0  0  0  0  0  0  0  0  0
    4.4033    1.5087   -0.1298 C   0  0  0  0  0  0  0  0  0  0  0  0
    8.4079    1.3844   -0.0789 H   0  0  0  0  0  0  0  0  0  0  0  0
    8.1974    1.8532    1.6197 H   0  0  0  0  0  0  0  0  0  0  0  0
    8.7269    3.0736    0.4482 H   0  0  0  0  0  0  0  0  0  0  0  0
    7.2401   -0.0870    0.7156 H   0  0  0  0  0  0  0  0  0  0  0  0
    5.7145   -1.9742    0.6296 H   0  0  0  0  0  0  0  0  0  0  0  0
    3.3126   -2.5032   -0.9300 H   0  0  0  0  0  0  0  0  0  0  0  0
    3.3547   -2.7283    0.8210 H   0  0  0  0  0  0  0  0  0  0  0  0
    1.6717   -0.2226    1.6024 H   0  0  0  0  0  0  0  0  0  0  0  0
    0.9595   -1.7726    2.0567 H   0  0  0  0  0  0  0  0  0  0  0  0
   -0.2146   -0.0634   -0.1621 H   0  0  0  0  0  0  0  0  0  0  0  0
   -0.6785    0.0729    1.5816 H   0  0  0  0  0  0  0  0  0  0  0  0
   -1.1373   -2.3019    1.6952 H   0  0  0  0  0  0  0  0  0  0  0  0
   -0.7491   -2.3859   -1.3453 H   0  0  0  0  0  0  0  0  0  0  0  0
   -0.9694   -3.7628   -0.1979 H   0  0  0  0  0  0  0  0  0  0  0  0
    1.1614   -3.7180    0.6108 H   0  0  0  0  0  0  0  0  0  0  0  0
    1.3562   -3.3871   -1.1263 H   0  0  0  0  0  0  0  0  0  0  0  0
   -1.8980   -0.6642   -1.5710 H   0  0  0  0  0  0  0  0  0  0  0  0
   -4.7351   -1.3821   -1.6082 H   0  0  0  0  0  0  0  0  0  0  0  0
   -3.9328   -0.0394   -2.4815 H   0  0  0  0  0  0  0  0  0  0  0  0
   -4.9444   -0.0275    0.3544 H   0  0  0  0  0  0  0  0  0  0  0  0
   -4.0948    1.3395   -0.4713 H   0  0  0  0  0  0  0  0  0  0  0  0
   -6.6829   -0.1589   -1.4123 H   0  0  0  0  0  0  0  0  0  0  0  0
   -5.8717    1.2038   -2.2539 H   0  0  0  0  0  0  0  0  0  0  0  0
   -7.1684    1.2069    0.5483 H   0  0  0  0  0  0  0  0  0  0  0  0
   -7.9146    1.8221   -0.9964 H   0  0  0  0  0  0  0  0  0  0  0  0
   -6.1384    3.5563   -1.1692 H   0  0  0  0  0  0  0  0  0  0  0  0
   -7.1180    3.7358    0.3224 H   0  0  0  0  0  0  0  0  0  0  0  0
   -5.3900    3.3438    1.5101 H   0  0  0  0  0  0  0  0  0  0  0  0
    2.4935    0.6873   -0.4466 H   0  0  0  0  0  0  0  0  0  0  0  0
    4.1091    2.5391   -0.3336 H   0  0  0  0  0  0  0  0  0  0  0  0
  1  2  1  0
  2  3  2  0
  2  4  1  0
  4  5  2  0
  5  6  1  0
  6  7  2  0
  7  8  1  0
  8  9  1  0
  9 10  1  0
 10 11  1  0
 11 12  1  0
 12 13  1  0
 13 14  1  0
 12 15  1  0
 15 16  2  0
 15 17  1  0
 17 18  1  0
 18 19  1  0
 19 20  1  0
 20 21  1  0
 21 22  1  0
 22 23  1  0
  7 24  1  0
 24 25  2  0
 25  4  1  0
 14  9  1  0
  1 26  1  0
  1 27  1  0
  1 28  1  0
  5 29  1  0
  6 30  1  0
  8 31  1  0
  8 32  1  0
 10 33  1  0
 10 34  1  0
 11 35  1  0
 11 36  1  0
 12 37  1  0
 13 38  1  0
 13 39  1  0
 14 40  1  0
 14 41  1  0
 17 42  1  0
 18 43  1  0
 18 44  1  0
 19 45  1  0
 19 46  1  0
 20 47  1  0
 20 48  1  0
 21 49  1  0
 21 50  1  0
 22 51  1  0
 22 52  1  0
 23 53  1  0
 24 54  1  0
 25 55  1  0
M  END
$$$$
[H]c1c([H])c(OC([H])([H])[H])c([H])c([C@](C(=O)N([H])C2([H])C([H])([H])C2([H])[H])(N([H])C(=O)c2c([H])c([H])c([H])c3c2c([H])c([H])n3C([H])([H])C([H])([H])N2C([H])([H])C([H])([H])C([H])([H])C2([H])[H])C(F)(F)F)c1[H]
     RDKit          3D

 69 73  0  0  0  0  0  0  0  0999 V2000
   -5.8221    4.4923    0.3453 C   0  0  0  0  0  0  0  0  0  0  0  0
   -5.1398    3.5226   -0.3983 O   0  0  0  0  0  0  0  0  0  0  0  0
   -4.8722    2.2719    0.1671 C   0  0  0  0  0  0  0  0  0  0  0  0
   -5.2605    1.9542    1.4442 C   0  0  0  0  0  0  0  0  0  0  0  0
   -4.9516    0.7013    1.9103 C   0  0  0  0  0  0  0  0  0  0  0  0
   -4.2800   -0.2199    1.1484 C   0  0  0  0  0  0  0  0  0  0  0  0
   -3.8808    0.0932   -0.1509 C   0  0  0  0  0  0  0  0  0  0  0  0
   -4.2006    1.3537   -0.5975 C   0  0  0  0  0  0  0  0  0  0  0  0
   -3.1733   -0.9321   -0.8886 C   0  0  1  0  0  0  0  0  0  0  0  0
   -1.8349   -1.0711   -0.3899 N   0  0  0  0  0  0  0  0  0  0  0  0
   -0.8661   -0.0727   -0.2239 C   0  0  0  0  0  0  0  0  0  0  0  0
   -1.0681    1.1332   -0.4963 O   0  0  0  0  0  0  0  0  0  0  0  0
    0.4688   -0.4445    0.2987 C   0  0  0  0  0  0  0  0  0  0  0  0
    0.6230   -1.4277    1.2540 C   0  0  0  0  0  0  0  0  0  0  0  0
    1.8774   -1.7698    1.7373 C   0  0  0  0  0  0  0  0  0  0  0  0
    2.9570   -1.1067    1.2418 C   0  0  0  0  0  0  0  0  0  0  0  0
    2.8792   -0.1095    0.2828 C   0  0  0  0  0  0  0  0  0  0  0  0
    3.7784    0.6640   -0.3395 N   0  0  0  0  0  0  0  0  0  0  0  0
    5.2154    0.6573   -0.1543 C   0  0  0  0  0  0  0  0  0  0  0  0
    5.5803    1.6281    0.9427 C   0  0  0  0  0  0  0  0  0  0  0  0
    6.9765    1.7000    1.2008 N   0  0  0  0  0  0  0  0  0  0  0  0
    7.5796    0.5440    1.7731 C   0  0  0  0  0  0  0  0  0  0  0  0
    8.8870    0.3116    1.0453 C   0  0  0  0  0  0  0  0  0  0  0  0
    8.7111    1.0755   -0.2467 C   0  0  0  0  0  0  0  0  0  0  0  0
    7.7800    2.1843    0.1260 C   0  0  0  0  0  0  0  0  0  0  0  0
    3.1390    1.4843   -1.2000 C   0  0  0  0  0  0  0  0  0  0  0  0
    1.7776    1.1922   -1.0937 C   0  0  0  0  0  0  0  0  0  0  0  0
    1.6032    0.2046   -0.1765 C   0  0  0  0  0  0  0  0  0  0  0  0
   -3.8596   -2.2658   -0.7142 C   0  0  0  0  0  0  0  0  0  0  0  0
   -3.1905   -3.2411   -0.2827 O   0  0  0  0  0  0  0  0  0  0  0  0
   -5.2224   -2.4910   -1.0062 N   0  0  0  0  0  0  0  0  0  0  0  0
   -5.8354   -3.7932   -0.8261 C   0  0  0  0  0  0  0  0  0  0  0  0
   -6.7612   -4.2819   -1.8961 C   0  0  0  0  0  0  0  0  0  0  0  0
   -7.2611   -3.9452   -0.5260 C   0  0  0  0  0  0  0  0  0  0  0  0
   -3.1113   -0.7460   -2.3878 C   0  0  0  0  0  0  0  0  0  0  0  0
   -4.3369   -0.7019   -2.9822 F   0  0  0  0  0  0  0  0  0  0  0  0
   -2.2621    0.2353   -2.8216 F   0  0  0  0  0  0  0  0  0  0  0  0
   -2.5297   -1.9441   -2.8588 F   0  0  0  0  0  0  0  0  0  0  0  0
   -6.7889    4.1583    0.7403 H   0  0  0  0  0  0  0  0  0  0  0  0
   -5.1985    4.7482    1.2480 H   0  0  0  0  0  0  0  0  0  0  0  0
   -5.9036    5.3982   -0.3027 H   0  0  0  0  0  0  0  0  0  0  0  0
   -5.7872    2.6923    2.0256 H   0  0  0  0  0  0  0  0  0  0  0  0
   -5.2659    0.4579    2.9300 H   0  0  0  0  0  0  0  0  0  0  0  0
   -4.0719   -1.1943    1.5887 H   0  0  0  0  0  0  0  0  0  0  0  0
   -3.9077    1.6201   -1.5885 H   0  0  0  0  0  0  0  0  0  0  0  0
   -1.5331   -2.0576   -0.1092 H   0  0  0  0  0  0  0  0  0  0  0  0
   -0.2765   -1.9157    1.6049 H   0  0  0  0  0  0  0  0  0  0  0  0
    1.9120   -2.5453    2.4798 H   0  0  0  0  0  0  0  0  0  0  0  0
    3.9308   -1.3667    1.6117 H   0  0  0  0  0  0  0  0  0  0  0  0
    5.4793   -0.3666    0.2316 H   0  0  0  0  0  0  0  0  0  0  0  0
    5.6832    0.8851   -1.1104 H   0  0  0  0  0  0  0  0  0  0  0  0
    5.0466    1.3644    1.8632 H   0  0  0  0  0  0  0  0  0  0  0  0
    5.2343    2.6439    0.6498 H   0  0  0  0  0  0  0  0  0  0  0  0
    6.9425   -0.3550    1.7951 H   0  0  0  0  0  0  0  0  0  0  0  0
    7.8430    0.7745    2.8344 H   0  0  0  0  0  0  0  0  0  0  0  0
    9.0569   -0.7546    0.8050 H   0  0  0  0  0  0  0  0  0  0  0  0
    9.7412    0.7461    1.6145 H   0  0  0  0  0  0  0  0  0  0  0  0
    9.6723    1.4614   -0.6425 H   0  0  0  0  0  0  0  0  0  0  0  0
    8.2315    0.4517   -1.0166 H   0  0  0  0  0  0  0  0  0  0  0  0
    8.3589    3.0685    0.5075 H   0  0  0  0  0  0  0  0  0  0  0  0
    7.1265    2.4977   -0.7125 H   0  0  0  0  0  0  0  0  0  0  0  0
    3.5503    2.2333   -1.8610 H   0  0  0  0  0  0  0  0  0  0  0  0
    1.0188    1.6998   -1.6725 H   0  0  0  0  0  0  0  0  0  0  0  0
   -5.8023   -1.7041   -1.3488 H   0  0  0  0  0  0  0  0  0  0  0  0
   -5.1430   -4.5732   -0.4495 H   0  0  0  0  0  0  0  0  0  0  0  0
   -6.7577   -5.3577   -2.1951 H   0  0  0  0  0  0  0  0  0  0  0  0
   -6.9460   -3.6157   -2.7560 H   0  0  0  0  0  0  0  0  0  0  0  0
   -7.5846   -4.8248    0.0960 H   0  0  0  0  0  0  0  0  0  0  0  0
   -7.9745   -3.1095   -0.4740 H   0  0  0  0  0  0  0  0  0  0  0  0
  1  2  1  0
  2  3  1  0
  3  4  2  0
  4  5  1  0
  5  6  2  0
  6  7  1  0
  7  8  2  0
  7  9  1  0
  9 10  1  0
 10 11  1  0
 11 12  2  0
 11 13  1  0
 13 14  2  0
 14 15  1  0
 15 16  2  0
 16 17  1  0
 17 18  1  0
 18 19  1  0
 19 20  1  0
 20 21  1  0
 21 22  1  0
 22 23  1  0
 23 24  1  0
 24 25  1  0
 18 26  1  0
 26 27  2  0
 27 28  1  0
  9 29  1  6
 29 30  2  0
 29 31  1  0
 31 32  1  0
 32 33  1  0
 33 34  1  0
  9 35  1  0
 35 36  1  0
 35 37  1  0
 35 38  1  0
  8  3  1  0
 28 13  1  0
 34 32  1  0
 28 17  2  0
 25 21  1  0
  1 39  1  0
  1 40  1  0
  1 41  1  0
  4 42  1  0
  5 43  1  0
  6 44  1  0
  8 45  1  0
 10 46  1  0
 14 47  1  0
 15 48  1  0
 16 49  1  0
 19 50  1  0
 19 51  1  0
 20 52  1  0
 20 53  1  0
 22 54  1  0
 22 55  1  0
 23 56  1  0
 23 57  1  0
 24 58  1  0
 24 59  1  0
 25 60  1  0
 25 61  1  0
 26 62  1  0
 27 63  1  0
 31 64  1  0
 32 65  1  0
 33 66  1  0
 33 67  1  0
 34 68  1  0
 34 69  1  0
M  END
$$$$
[H]Oc1c([H])c([H])c([H])c2c1C([H])([H])C([H])([H])C([H])([H])C2([H])C([H])([H])c1c([H])nc([H])n1[H]
     RDKit          3D

 33 35  0  0  0  0  0  0  0  0999 V2000
   -4.3360   -1.0300    0.3317 O   0  0  0  0  0  0  0  0  0  0  0  0
   -3.3877   -0.0466    0.1688 C   0  0  0  0  0  0  0  0  0  0  0  0
   -3.6799    1.2923    0.2493 C   0  0  0  0  0  0  0  0  0  0  0  0
   -2.6781    2.2113    0.0725 C   0  0  0  0  0  0  0  0  0  0  0  0
   -1.3850    1.8387   -0.1837 C   0  0  0  0  0  0  0  0  0  0  0  0
   -1.0858    0.4890   -0.2653 C   0  0  0  0  0  0  0  0  0  0  0  0
    0.3477    0.1918   -0.5604 C   0  0  0  0  0  0  0  0  0  0  0  0
    1.1940    0.8474    0.5054 C   0  0  0  0  0  0  0  0  0  0  0  0
    2.6397    0.7126    0.3599 C   0  0  0  0  0  0  0  0  0  0  0  0
    3.5321    1.1401    1.3251 C   0  0  0  0  0  0  0  0  0  0  0  0
    4.7687    0.9158    0.8996 N   0  0  0  0  0  0  0  0  0  0  0  0
    4.6778    0.3553   -0.3150 C   0  0  0  0  0  0  0  0  0  0  0  0
    3.3853    0.2360   -0.6346 N   0  0  0  0  0  0  0  0  0  0  0  0
    0.6435   -1.2593   -0.7274 C   0  0  0  0  0  0  0  0  0  0  0  0
   -0.3193   -2.2108   -0.0837 C   0  0  0  0  0  0  0  0  0  0  0  0
   -1.7482   -1.8974   -0.1771 C   0  0  0  0  0  0  0  0  0  0  0  0
   -2.0598   -0.4398   -0.0938 C   0  0  0  0  0  0  0  0  0  0  0  0
   -4.1316   -1.9921    0.2648 H   0  0  0  0  0  0  0  0  0  0  0  0
   -4.7112    1.5955    0.4537 H   0  0  0  0  0  0  0  0  0  0  0  0
   -2.9585    3.2568    0.1455 H   0  0  0  0  0  0  0  0  0  0  0  0
   -0.6334    2.6226   -0.3200 H   0  0  0  0  0  0  0  0  0  0  0  0
    0.5715    0.7081   -1.5176 H   0  0  0  0  0  0  0  0  0  0  0  0
    0.8707    0.4002    1.4959 H   0  0  0  0  0  0  0  0  0  0  0  0
    0.9794    1.9262    0.6345 H   0  0  0  0  0  0  0  0  0  0  0  0
    3.2817    1.5973    2.3002 H   0  0  0  0  0  0  0  0  0  0  0  0
    5.5582    0.0613   -0.9079 H   0  0  0  0  0  0  0  0  0  0  0  0
    3.0531   -0.1655   -1.5341 H   0  0  0  0  0  0  0  0  0  0  0  0
    0.6977   -1.5199   -1.8047 H   0  0  0  0  0  0  0  0  0  0  0  0
    1.6426   -1.5356   -0.2636 H   0  0  0  0  0  0  0  0  0  0  0  0
   -0.0339   -2.3412    1.0020 H   0  0  0  0  0  0  0  0  0  0  0  0
   -0.1675   -3.2456   -0.5127 H   0  0  0  0  0  0  0  0  0  0  0  0
   -2.2847   -2.3663   -1.0447 H   0  0  0  0  0  0  0  0  0  0  0  0
   -2.2432   -2.3481    0.7376 H   0  0  0  0  0  0  0  0  0  0  0  0
  1  2  1  0
  2  3  2  0
  3  4  1  0
  4  5  2  0
  5  6  1  0
  6  7  1  0
  7  8  1  0
  8  9  1  0
  9 10  2  0
 10 11  1  0
 11 12  2  0
 12 13  1  0
  7 14  1  0
 14 15  1  0
 15 16  1  0
 16 17  1  0
 17  2  1  0
 17  6  2  0
 13  9  1  0
  1 18  1  0
  3 19  1  0
  4 20  1  0
  5 21  1  0
  7 22  1  0
  8 23  1  0
  8 24  1  0
 10 25  1  0
 12 26  1  0
 13 27  1  0
 14 28  1  0
 14 29  1  0
 15 30  1  0
 15 31  1  0
 16 32  1  0
 16 33  1  0
M  END
$$$$
[H]OC(=O)c1c([H])c([H])c(-c2c([H])c(Cl)c(C([H])([H])[H])c([H])c2C([H])([H])[H])c(C([H])([H])[H])c1[H]
     RDKit          3D

 34 35  0  0  0  0  0  0  0  0999 V2000
   -4.9495    1.1114    0.0776 C   0  0  0  0  0  0  0  0  0  0  0  0
   -3.4959    0.7702    0.1241 C   0  0  0  0  0  0  0  0  0  0  0  0
   -3.0056   -0.3294   -0.5422 C   0  0  0  0  0  0  0  0  0  0  0  0
   -1.6428   -0.6699   -0.5245 C   0  0  0  0  0  0  0  0  0  0  0  0
   -1.1704   -1.8523   -1.2892 C   0  0  0  0  0  0  0  0  0  0  0  0
   -0.7516    0.1000    0.1717 C   0  0  0  0  0  0  0  0  0  0  0  0
   -1.2465    1.2097    0.8446 C   0  0  0  0  0  0  0  0  0  0  0  0
   -2.5889    1.5394    0.8223 C   0  0  0  0  0  0  0  0  0  0  0  0
   -3.1922    2.9450    1.6866 Cl  0  0  0  0  0  0  0  0  0  0  0  0
    0.6567   -0.2917    0.2116 C   0  0  0  0  0  0  0  0  0  0  0  0
    1.0439   -1.5458    0.6166 C   0  0  0  0  0  0  0  0  0  0  0  0
    2.3694   -1.8799    0.6731 C   0  0  0  0  0  0  0  0  0  0  0  0
    3.3359   -0.9710    0.3278 C   0  0  0  0  0  0  0  0  0  0  0  0
    2.9791    0.2919   -0.0814 C   0  0  0  0  0  0  0  0  0  0  0  0
    1.6473    0.6334   -0.1401 C   0  0  0  0  0  0  0  0  0  0  0  0
    1.2556    2.0122   -0.5975 C   0  0  0  0  0  0  0  0  0  0  0  0
    4.7609   -1.3119    0.3711 C   0  0  0  0  0  0  0  0  0  0  0  0
    5.7332   -0.3958    0.0151 O   0  0  0  0  0  0  0  0  0  0  0  0
    5.1413   -2.4528    0.7329 O   0  0  0  0  0  0  0  0  0  0  0  0
   -5.1589    1.8661    0.8663 H   0  0  0  0  0  0  0  0  0  0  0  0
   -5.5420    0.2146    0.3201 H   0  0  0  0  0  0  0  0  0  0  0  0
   -5.2185    1.5812   -0.8950 H   0  0  0  0  0  0  0  0  0  0  0  0
   -3.6921   -0.9436   -1.0961 H   0  0  0  0  0  0  0  0  0  0  0  0
   -1.8611   -1.9581   -2.1862 H   0  0  0  0  0  0  0  0  0  0  0  0
   -1.3200   -2.8062   -0.7415 H   0  0  0  0  0  0  0  0  0  0  0  0
   -0.1552   -1.7229   -1.7137 H   0  0  0  0  0  0  0  0  0  0  0  0
   -0.5302    1.8235    1.4000 H   0  0  0  0  0  0  0  0  0  0  0  0
    0.2845   -2.2811    0.9028 H   0  0  0  0  0  0  0  0  0  0  0  0
    2.6591   -2.9012    1.0046 H   0  0  0  0  0  0  0  0  0  0  0  0
    3.7410    1.0293   -0.3601 H   0  0  0  0  0  0  0  0  0  0  0  0
    0.3097    1.9927   -1.1609 H   0  0  0  0  0  0  0  0  0  0  0  0
    1.3112    2.7617    0.1958 H   0  0  0  0  0  0  0  0  0  0  0  0
    2.0415    2.3185   -1.3543 H   0  0  0  0  0  0  0  0  0  0  0  0
    6.2510    0.1129    0.7185 H   0  0  0  0  0  0  0  0  0  0  0  0
  1  2  1  0
  2  3  2  0
  3  4  1  0
  4  5  1  0
  4  6  2  0
  6  7  1  0
  7  8  2  0
  8  9  1  0
  6 10  1  0
 10 11  2  0
 11 12  1  0
 12 13  2  0
 13 14  1  0
 14 15  2  0
 15 16  1  0
 13 17  1  0
 17 18  1  0
 17 19  2  0
  8  2  1  0
 15 10  1  0
  1 20  1  0
  1 21  1  0
  1 22  1  0
  3 23  1  0
  5 24  1  0
  5 25  1  0
  5 26  1  0
  7 27  1  0
 11 28  1  0
 12 29  1  0
 14 30  1  0
 16 31  1  0
 16 32  1  0
 16 33  1  0
 18 34  1  0
M  END
$$$$
[H]c1c([H])c([H])c2c(c1[H])c1c3c(c4c5c([H])c([H])c([H])c([H])c5n5c4c1n2[C@@]1([H])O[C@]5(C([H])([H])[H])[C@@]([H])(OC([H])([H])[H])[C@@]([H])(N([H])C([H])([H])[H])C1([H])[H])C([H])([H])N([H])C3=O
     RDKit          3D

 61 68  0  0  0  0  0  0  0  0999 V2000
   -2.5900    1.1246    2.6909 C   0  0  0  0  0  0  0  0  0  0  0  0
   -2.2701    0.1494    1.6691 N   0  0  0  0  0  0  0  0  0  0  0  0
   -2.7037    0.7256    0.3894 C   0  0  1  0  0  0  0  0  0  0  0  0
   -1.9693    1.9591    0.0600 C   0  0  0  0  0  0  0  0  0  0  0  0
   -1.0374    1.8542   -1.1025 C   0  0  2  0  0  0  0  0  0  0  0  0
   -1.1108    0.8211   -1.8978 O   0  0  0  0  0  0  0  0  0  0  0  0
   -1.4719   -0.4453   -1.4993 C   0  0  2  0  0  0  0  0  0  0  0  0
   -1.8587   -1.0747   -2.8537 C   0  0  0  0  0  0  0  0  0  0  0  0
   -2.6627   -0.3659   -0.6565 C   0  0  1  0  0  0  0  0  0  0  0  0
   -3.0555   -1.5061    0.0270 O   0  0  0  0  0  0  0  0  0  0  0  0
   -4.3079   -1.9695   -0.2639 C   0  0  0  0  0  0  0  0  0  0  0  0
   -0.3020   -1.1026   -0.9411 N   0  0  0  0  0  0  0  0  0  0  0  0
   -0.0368   -2.4107   -0.8661 C   0  0  0  0  0  0  0  0  0  0  0  0
   -0.7505   -3.5118   -1.2342 C   0  0  0  0  0  0  0  0  0  0  0  0
   -0.2313   -4.7829   -1.0386 C   0  0  0  0  0  0  0  0  0  0  0  0
    1.0025   -5.0019   -0.4761 C   0  0  0  0  0  0  0  0  0  0  0  0
    1.7444   -3.8826   -0.0939 C   0  0  0  0  0  0  0  0  0  0  0  0
    1.2038   -2.6348   -0.3003 C   0  0  0  0  0  0  0  0  0  0  0  0
    1.7282   -1.3877   -0.0109 C   0  0  0  0  0  0  0  0  0  0  0  0
    2.9250   -0.9637    0.5498 C   0  0  0  0  0  0  0  0  0  0  0  0
    4.0703   -1.7821    1.0519 C   0  0  0  0  0  0  0  0  0  0  0  0
    5.0490   -0.8360    1.5052 N   0  0  0  0  0  0  0  0  0  0  0  0
    4.5511    0.4878    1.3292 C   0  0  0  0  0  0  0  0  0  0  0  0
    5.2116    1.4752    1.6612 O   0  0  0  0  0  0  0  0  0  0  0  0
    3.2325    0.3685    0.7340 C   0  0  0  0  0  0  0  0  0  0  0  0
    2.2736    1.2731    0.3281 C   0  0  0  0  0  0  0  0  0  0  0  0
    2.1943    2.6494    0.3519 C   0  0  0  0  0  0  0  0  0  0  0  0
    3.0346    3.6410    0.7719 C   0  0  0  0  0  0  0  0  0  0  0  0
    2.6237    4.9672    0.6424 C   0  0  0  0  0  0  0  0  0  0  0  0
    1.4040    5.3207    0.1079 C   0  0  0  0  0  0  0  0  0  0  0  0
    0.5569    4.3176   -0.3154 C   0  0  0  0  0  0  0  0  0  0  0  0
    0.9564    3.0255   -0.1896 C   0  0  0  0  0  0  0  0  0  0  0  0
    0.3179    1.9031   -0.5262 N   0  0  0  0  0  0  0  0  0  0  0  0
    1.0813    0.8475   -0.2300 C   0  0  0  0  0  0  0  0  0  0  0  0
    0.8029   -0.4946   -0.4048 C   0  0  0  0  0  0  0  0  0  0  0  0
   -1.7275    1.7656    2.9459 H   0  0  0  0  0  0  0  0  0  0  0  0
   -3.4000    1.7830    2.2910 H   0  0  0  0  0  0  0  0  0  0  0  0
   -3.0290    0.6437    3.5924 H   0  0  0  0  0  0  0  0  0  0  0  0
   -2.7602   -0.7186    1.9035 H   0  0  0  0  0  0  0  0  0  0  0  0
   -3.7998    0.9480    0.5957 H   0  0  0  0  0  0  0  0  0  0  0  0
   -1.4594    2.3204    1.0029 H   0  0  0  0  0  0  0  0  0  0  0  0
   -2.7065    2.7776   -0.1658 H   0  0  0  0  0  0  0  0  0  0  0  0
   -1.0912    2.7965   -1.7221 H   0  0  0  0  0  0  0  0  0  0  0  0
   -2.0056   -0.3257   -3.6573 H   0  0  0  0  0  0  0  0  0  0  0  0
   -1.0068   -1.6950   -3.1940 H   0  0  0  0  0  0  0  0  0  0  0  0
   -2.8277   -1.6039   -2.8044 H   0  0  0  0  0  0  0  0  0  0  0  0
   -3.5358   -0.1252   -1.3381 H   0  0  0  0  0  0  0  0  0  0  0  0
   -4.4650   -2.8889    0.3782 H   0  0  0  0  0  0  0  0  0  0  0  0
   -4.4865   -2.3125   -1.2897 H   0  0  0  0  0  0  0  0  0  0  0  0
   -5.1216   -1.2643    0.0633 H   0  0  0  0  0  0  0  0  0  0  0  0
   -1.7208   -3.3825   -1.6725 H   0  0  0  0  0  0  0  0  0  0  0  0
   -0.8491   -5.6109   -1.3524 H   0  0  0  0  0  0  0  0  0  0  0  0
    1.4213   -5.9802   -0.3168 H   0  0  0  0  0  0  0  0  0  0  0  0
    2.7206   -4.0420    0.3513 H   0  0  0  0  0  0  0  0  0  0  0  0
    3.7648   -2.4865    1.8473 H   0  0  0  0  0  0  0  0  0  0  0  0
    4.5351   -2.3717    0.2322 H   0  0  0  0  0  0  0  0  0  0  0  0
    5.9960   -1.0989    1.9084 H   0  0  0  0  0  0  0  0  0  0  0  0
    3.9823    3.4684    1.1903 H   0  0  0  0  0  0  0  0  0  0  0  0
    3.2909    5.7541    0.9750 H   0  0  0  0  0  0  0  0  0  0  0  0
    1.0902    6.3566    0.0099 H   0  0  0  0  0  0  0  0  0  0  0  0
   -0.4140    4.5350   -0.7434 H   0  0  0  0  0  0  0  0  0  0  0  0
  1  2  1  0
  2  3  1  0
  3  4  1  0
  4  5  1  0
  5  6  1  0
  6  7  1  0
  7  8  1  6
  7  9  1  0
  9 10  1  0
 10 11  1  0
  7 12  1  0
 12 13  1  0
 13 14  2  0
 14 15  1  0
 15 16  2  0
 16 17  1  0
 17 18  2  0
 18 19  1  0
 19 20  2  0
 20 21  1  0
 21 22  1  0
 22 23  1  0
 23 24  2  0
 23 25  1  0
 25 26  2  0
 26 27  1  0
 27 28  2  0
 28 29  1  0
 29 30  2  0
 30 31  1  0
 31 32  2  0
 32 33  1  0
 33 34  1  0
 34 35  2  0
  9  3  1  0
 35 12  1  0
 33  5  1  0
 18 13  1  0
 35 19  1  0
 25 20  1  0
 34 26  1  0
 32 27  1  0
  1 36  1  0
  1 37  1  0
  1 38  1  0
  2 39  1  0
  3 40  1  1
  4 41  1  0
  4 42  1  0
  5 43  1  6
  8 44  1  0
  8 45  1  0
  8 46  1  0
  9 47  1  6
 11 48  1  0
 11 49  1  0
 11 50  1  0
 14 51  1  0
 15 52  1  0
 16 53  1  0
 17 54  1  0
 21 55  1  0
 21 56  1  0
 22 57  1  0
 28 58  1  0
 29 59  1  0
 30 60  1  0
 31 61  1  0
M  END
$$$$
[H]c1nc([H])c(C(F)(F)F)c(N(c2c([H])c([H])c(-c3on([H])c(=O)c3-c3c([H])c([H])c(C#N)c([H])c3[H])c([H])c2[H])C([H])([H])[H])n1
     RDKit          3D

 46 49  0  0  0  0  0  0  0  0999 V2000
   -3.2660    2.3550   -0.9753 C   0  0  0  0  0  0  0  0  0  0  0  0
   -2.6648    1.3230   -0.1743 N   0  0  0  0  0  0  0  0  0  0  0  0
   -1.5383    0.5869   -0.6681 C   0  0  0  0  0  0  0  0  0  0  0  0
   -0.9334   -0.4169    0.0529 C   0  0  0  0  0  0  0  0  0  0  0  0
    0.1547   -1.1209   -0.4306 C   0  0  0  0  0  0  0  0  0  0  0  0
    0.6900   -0.8469   -1.6715 C   0  0  0  0  0  0  0  0  0  0  0  0
    0.0909    0.1589   -2.4046 C   0  0  0  0  0  0  0  0  0  0  0  0
   -0.9950    0.8580   -1.9161 C   0  0  0  0  0  0  0  0  0  0  0  0
    1.8357   -1.5992   -2.1665 C   0  0  0  0  0  0  0  0  0  0  0  0
    1.8796   -2.3812   -3.2438 O   0  0  0  0  0  0  0  0  0  0  0  0
    3.0663   -2.8896   -3.3757 N   0  0  0  0  0  0  0  0  0  0  0  0
    3.8653   -2.4767   -2.4034 C   0  0  0  0  0  0  0  0  0  0  0  0
    5.0791   -2.7348   -2.1705 O   0  0  0  0  0  0  0  0  0  0  0  0
    3.0908   -1.6397   -1.6075 C   0  0  0  0  0  0  0  0  0  0  0  0
    3.5236   -0.9345   -0.4044 C   0  0  0  0  0  0  0  0  0  0  0  0
    3.5335    0.4471   -0.3298 C   0  0  0  0  0  0  0  0  0  0  0  0
    3.9432    1.1211    0.8022 C   0  0  0  0  0  0  0  0  0  0  0  0
    4.3667    0.4415    1.9248 C   0  0  0  0  0  0  0  0  0  0  0  0
    4.3601   -0.9376    1.8591 C   0  0  0  0  0  0  0  0  0  0  0  0
    3.9493   -1.6047    0.7248 C   0  0  0  0  0  0  0  0  0  0  0  0
    4.7989    1.1182    3.1174 C   0  0  0  0  0  0  0  0  0  0  0  0
    5.1649    1.6683    4.0712 N   0  0  0  0  0  0  0  0  0  0  0  0
   -3.1522    1.0023    1.1065 C   0  0  0  0  0  0  0  0  0  0  0  0
   -2.4411    1.3592    2.2199 N   0  0  0  0  0  0  0  0  0  0  0  0
   -2.8531    1.0850    3.4579 C   0  0  0  0  0  0  0  0  0  0  0  0
   -4.0165    0.4314    3.5841 N   0  0  0  0  0  0  0  0  0  0  0  0
   -4.7768    0.0442    2.5564 C   0  0  0  0  0  0  0  0  0  0  0  0
   -4.3487    0.3295    1.2539 C   0  0  0  0  0  0  0  0  0  0  0  0
   -5.1914   -0.0943    0.1387 C   0  0  0  0  0  0  0  0  0  0  0  0
   -4.5316   -0.9088   -0.7632 F   0  0  0  0  0  0  0  0  0  0  0  0
   -5.9093    0.8955   -0.4841 F   0  0  0  0  0  0  0  0  0  0  0  0
   -6.1930   -0.9520    0.6655 F   0  0  0  0  0  0  0  0  0  0  0  0
   -3.9323    3.0182   -0.4197 H   0  0  0  0  0  0  0  0  0  0  0  0
   -3.6627    1.9935   -1.9532 H   0  0  0  0  0  0  0  0  0  0  0  0
   -2.4034    3.0271   -1.2890 H   0  0  0  0  0  0  0  0  0  0  0  0
   -1.3400   -0.6588    1.0477 H   0  0  0  0  0  0  0  0  0  0  0  0
    0.6137   -1.9161    0.1701 H   0  0  0  0  0  0  0  0  0  0  0  0
    0.4958    0.3869   -3.3754 H   0  0  0  0  0  0  0  0  0  0  0  0
   -1.4782    1.6568   -2.4878 H   0  0  0  0  0  0  0  0  0  0  0  0
    3.3334   -3.5250   -4.1371 H   0  0  0  0  0  0  0  0  0  0  0  0
    3.1976    0.9762   -1.2215 H   0  0  0  0  0  0  0  0  0  0  0  0
    3.9461    2.2007    0.8480 H   0  0  0  0  0  0  0  0  0  0  0  0
    4.6937   -1.4726    2.7439 H   0  0  0  0  0  0  0  0  0  0  0  0
    3.9467   -2.6855    0.6806 H   0  0  0  0  0  0  0  0  0  0  0  0
   -2.2680    1.3793    4.3437 H   0  0  0  0  0  0  0  0  0  0  0  0
   -5.7236   -0.4887    2.7037 H   0  0  0  0  0  0  0  0  0  0  0  0
  1  2  1  0
  2  3  1  0
  3  4  2  0
  4  5  1  0
  5  6  2  0
  6  7  1  0
  7  8  2  0
  6  9  1  0
  9 10  1  0
 10 11  1  0
 11 12  1  0
 12 13  2  0
 12 14  1  0
 14 15  1  0
 15 16  2  0
 16 17  1  0
 17 18  2  0
 18 19  1  0
 19 20  2  0
 18 21  1  0
 21 22  3  0
  2 23  1  0
 23 24  2  0
 24 25  1  0
 25 26  2  0
 26 27  1  0
 27 28  2  0
 28 29  1  0
 29 30  1  0
 29 31  1  0
 29 32  1  0
  8  3  1  0
 14  9  2  0
 20 15  1  0
 28 23  1  0
  1 33  1  0
  1 34  1  0
  1 35  1  0
  4 36  1  0
  5 37  1  0
  7 38  1  0
  8 39  1  0
 11 40  1  0
 16 41  1  0
 17 42  1  0
 19 43  1  0
 20 44  1  0
 25 45  1  0
 27 46  1  0
M  END
$$$$
[H]c1nn2c(-c3c([H])c([H])c(C([H])([H])[H])c(OC([H])([H])C(=O)OC([H])([H])[H])c3[H])c([H])nc(N([H])[H])c2c1-c1c([H])c([H])c(C2([H])C([H])([H])C([H])([H])N(C([H])([H])[H])C([H])([H])C2([H])[H])c([H])c1[H]
     RDKit          3D

 67 71  0  0  0  0  0  0  0  0999 V2000
    9.3174    3.4418    0.7724 C   0  0  0  0  0  0  0  0  0  0  0  0
    8.3350    2.4605    0.5741 O   0  0  0  0  0  0  0  0  0  0  0  0
    7.0025    2.6118    0.9657 C   0  0  0  0  0  0  0  0  0  0  0  0
    6.6967    3.6873    1.5194 O   0  0  0  0  0  0  0  0  0  0  0  0
    6.0700    1.5113    0.7021 C   0  0  0  0  0  0  0  0  0  0  0  0
    6.7188    0.4305    0.0628 O   0  0  0  0  0  0  0  0  0  0  0  0
    6.0623   -0.7322   -0.2957 C   0  0  0  0  0  0  0  0  0  0  0  0
    4.6964   -0.8869   -0.0324 C   0  0  0  0  0  0  0  0  0  0  0  0
    4.0300   -2.0347   -0.3824 C   0  0  0  0  0  0  0  0  0  0  0  0
    4.8012   -3.0254   -1.0113 C   0  0  0  0  0  0  0  0  0  0  0  0
    6.1448   -2.8703   -1.2686 C   0  0  0  0  0  0  0  0  0  0  0  0
    6.7991   -1.7140   -0.9124 C   0  0  0  0  0  0  0  0  0  0  0  0
    8.2525   -1.5204   -1.1796 C   0  0  0  0  0  0  0  0  0  0  0  0
    2.6093   -2.2776   -0.1742 C   0  0  0  0  0  0  0  0  0  0  0  0
    2.1111   -3.5560   -0.0167 C   0  0  0  0  0  0  0  0  0  0  0  0
    0.8090   -3.7958    0.1477 N   0  0  0  0  0  0  0  0  0  0  0  0
   -0.1108   -2.7854    0.1697 C   0  0  0  0  0  0  0  0  0  0  0  0
   -1.4852   -3.0946    0.3720 N   0  0  0  0  0  0  0  0  0  0  0  0
    0.3700   -1.5045    0.0127 C   0  0  0  0  0  0  0  0  0  0  0  0
   -0.2686   -0.3018   -0.0112 C   0  0  0  0  0  0  0  0  0  0  0  0
    0.6961    0.6696   -0.1930 C   0  0  0  0  0  0  0  0  0  0  0  0
    1.8495    0.0131   -0.2700 N   0  0  0  0  0  0  0  0  0  0  0  0
    1.7121   -1.2841   -0.1538 N   0  0  0  0  0  0  0  0  0  0  0  0
   -1.6688   -0.0077    0.0772 C   0  0  0  0  0  0  0  0  0  0  0  0
   -2.2077    0.7754    1.0954 C   0  0  0  0  0  0  0  0  0  0  0  0
   -3.5477    1.0756    1.1246 C   0  0  0  0  0  0  0  0  0  0  0  0
   -4.4301    0.6266    0.1612 C   0  0  0  0  0  0  0  0  0  0  0  0
   -3.8812   -0.1460   -0.8383 C   0  0  0  0  0  0  0  0  0  0  0  0
   -2.5479   -0.4555   -0.8840 C   0  0  0  0  0  0  0  0  0  0  0  0
   -5.8551    0.9598    0.2139 C   0  0  0  0  0  0  0  0  0  0  0  0
   -6.6698   -0.3288    0.2355 C   0  0  0  0  0  0  0  0  0  0  0  0
   -8.1211   -0.1028   -0.0024 C   0  0  0  0  0  0  0  0  0  0  0  0
   -8.5064    1.2318   -0.2648 N   0  0  0  0  0  0  0  0  0  0  0  0
   -8.9608    1.9786    0.8698 C   0  0  0  0  0  0  0  0  0  0  0  0
   -7.6939    1.9547   -1.1801 C   0  0  0  0  0  0  0  0  0  0  0  0
   -6.2349    1.6583   -1.0975 C   0  0  0  0  0  0  0  0  0  0  0  0
    9.9835    3.0571    1.5979 H   0  0  0  0  0  0  0  0  0  0  0  0
    9.9663    3.5692   -0.1187 H   0  0  0  0  0  0  0  0  0  0  0  0
    8.8925    4.4088    1.0447 H   0  0  0  0  0  0  0  0  0  0  0  0
    5.1459    1.8180    0.1724 H   0  0  0  0  0  0  0  0  0  0  0  0
    5.7269    1.1206    1.7043 H   0  0  0  0  0  0  0  0  0  0  0  0
    4.1933   -0.0745    0.4670 H   0  0  0  0  0  0  0  0  0  0  0  0
    4.2761   -3.9367   -1.2958 H   0  0  0  0  0  0  0  0  0  0  0  0
    6.7254   -3.6375   -1.7513 H   0  0  0  0  0  0  0  0  0  0  0  0
    8.4292   -1.0502   -2.1734 H   0  0  0  0  0  0  0  0  0  0  0  0
    8.8106   -2.4731   -1.1725 H   0  0  0  0  0  0  0  0  0  0  0  0
    8.6983   -0.8688   -0.4163 H   0  0  0  0  0  0  0  0  0  0  0  0
    2.8086   -4.3735   -0.0240 H   0  0  0  0  0  0  0  0  0  0  0  0
   -1.9656   -2.8798    1.2603 H   0  0  0  0  0  0  0  0  0  0  0  0
   -2.0086   -3.5447   -0.3930 H   0  0  0  0  0  0  0  0  0  0  0  0
    0.5274    1.7400   -0.2570 H   0  0  0  0  0  0  0  0  0  0  0  0
   -1.5236    1.1267    1.8472 H   0  0  0  0  0  0  0  0  0  0  0  0
   -3.9726    1.6863    1.9171 H   0  0  0  0  0  0  0  0  0  0  0  0
   -4.5268   -0.5240   -1.6183 H   0  0  0  0  0  0  0  0  0  0  0  0
   -2.2096   -1.0741   -1.7322 H   0  0  0  0  0  0  0  0  0  0  0  0
   -6.0737    1.5804    1.0876 H   0  0  0  0  0  0  0  0  0  0  0  0
   -6.4628   -0.9166    1.1548 H   0  0  0  0  0  0  0  0  0  0  0  0
   -6.2799   -0.9487   -0.6130 H   0  0  0  0  0  0  0  0  0  0  0  0
   -8.6694   -0.4539    0.9138 H   0  0  0  0  0  0  0  0  0  0  0  0
   -8.5259   -0.7520   -0.8289 H   0  0  0  0  0  0  0  0  0  0  0  0
   -8.5129    1.6575    1.8282 H   0  0  0  0  0  0  0  0  0  0  0  0
   -8.7951    3.0597    0.6916 H   0  0  0  0  0  0  0  0  0  0  0  0
  -10.0573    1.8290    0.9631 H   0  0  0  0  0  0  0  0  0  0  0  0
   -7.8746    3.0427   -1.0478 H   0  0  0  0  0  0  0  0  0  0  0  0
   -8.0625    1.7174   -2.2187 H   0  0  0  0  0  0  0  0  0  0  0  0
   -5.5799    2.5246   -1.2866 H   0  0  0  0  0  0  0  0  0  0  0  0
   -5.9764    0.9079   -1.8987 H   0  0  0  0  0  0  0  0  0  0  0  0
  1  2  1  0
  2  3  1  0
  3  4  2  0
  3  5  1  0
  5  6  1  0
  6  7  1  0
  7  8  2  0
  8  9  1  0
  9 10  2  0
 10 11  1  0
 11 12  2  0
 12 13  1  0
  9 14  1  0
 14 15  2  0
 15 16  1  0
 16 17  2  0
 17 18  1  0
 17 19  1  0
 19 20  2  0
 20 21  1  0
 21 22  2  0
 22 23  1  0
 20 24  1  0
 24 25  2  0
 25 26  1  0
 26 27  2  0
 27 28  1  0
 28 29  2  0
 27 30  1  0
 30 31  1  0
 31 32  1  0
 32 33  1  0
 33 34  1  0
 33 35  1  0
 35 36  1  0
 12  7  1  0
 23 14  1  0
 29 24  1  0
 36 30  1  0
 23 19  1  0
  1 37  1  0
  1 38  1  0
  1 39  1  0
  5 40  1  0
  5 41  1  0
  8 42  1  0
 10 43  1  0
 11 44  1  0
 13 45  1  0
 13 46  1  0
 13 47  1  0
 15 48  1  0
 18 49  1  0
 18 50  1  0
 21 51  1  0
 25 52  1  0
 26 53  1  0
 28 54  1  0
 29 55  1  0
 30 56  1  0
 31 57  1  0
 31 58  1  0
 32 59  1  0
 32 60  1  0
 34 61  1  0
 34 62  1  0
 34 63  1  0
 35 64  1  0
 35 65  1  0
 36 66  1  0
 36 67  1  0
M  END
$$$$
[H]OC(c1c([H])c([H])c(C(F)(C(F)(F)F)C(F)(F)F)c([H])c1[H])(c1c([H])c(F)c(S(=O)(=O)C([H])([H])C([H])([H])[H])c([H])c1F)C(F)(F)F
     RDKit          3D

 47 48  0  0  0  0  0  0  0  0999 V2000
    6.8273    2.3752    0.1739 C   0  0  0  0  0  0  0  0  0  0  0  0
    5.3860    1.8983    0.2822 C   0  0  0  0  0  0  0  0  0  0  0  0
    5.2514    0.2728   -0.4578 S   0  0  0  0  0  0  0  0  0  0  0  0
    5.7268    0.3551   -1.8678 O   0  0  0  0  0  0  0  0  0  0  0  0
    6.2195   -0.6750    0.2685 O   0  0  0  0  0  0  0  0  0  0  0  0
    3.6288   -0.3339   -0.3217 C   0  0  0  0  0  0  0  0  0  0  0  0
    2.8630   -0.1295    0.7874 C   0  0  0  0  0  0  0  0  0  0  0  0
    1.5700   -0.6579    0.9052 C   0  0  0  0  0  0  0  0  0  0  0  0
    0.9135   -0.4615    2.0892 F   0  0  0  0  0  0  0  0  0  0  0  0
    1.0741   -1.3902   -0.1271 C   0  0  0  0  0  0  0  0  0  0  0  0
    1.8822   -1.6013   -1.2752 C   0  0  0  0  0  0  0  0  0  0  0  0
    3.1449   -1.0853   -1.3817 C   0  0  0  0  0  0  0  0  0  0  0  0
    3.9431   -1.2776   -2.4652 F   0  0  0  0  0  0  0  0  0  0  0  0
   -0.2563   -1.9945   -0.1813 C   0  0  0  0  0  0  0  0  0  0  0  0
   -0.4246   -2.6090   -1.4741 O   0  0  0  0  0  0  0  0  0  0  0  0
   -1.4183   -1.0888   -0.1179 C   0  0  0  0  0  0  0  0  0  0  0  0
   -1.4264    0.2234    0.2285 C   0  0  0  0  0  0  0  0  0  0  0  0
   -2.6104    0.9936    0.3394 C   0  0  0  0  0  0  0  0  0  0  0  0
   -3.8363    0.4373    0.0949 C   0  0  0  0  0  0  0  0  0  0  0  0
   -3.8198   -0.8963   -0.2617 C   0  0  0  0  0  0  0  0  0  0  0  0
   -2.6698   -1.6540   -0.3745 C   0  0  0  0  0  0  0  0  0  0  0  0
   -5.1196    1.1233    0.2585 C   0  0  0  0  0  0  0  0  0  0  0  0
   -5.9552    0.3685    1.0892 F   0  0  0  0  0  0  0  0  0  0  0  0
   -5.0444    2.4763    0.9302 C   0  0  0  0  0  0  0  0  0  0  0  0
   -4.2967    3.3884    0.2293 F   0  0  0  0  0  0  0  0  0  0  0  0
   -4.4935    2.3074    2.2107 F   0  0  0  0  0  0  0  0  0  0  0  0
   -6.2983    2.9957    1.1448 F   0  0  0  0  0  0  0  0  0  0  0  0
   -5.8868    1.2465   -1.0445 C   0  0  0  0  0  0  0  0  0  0  0  0
   -5.2172    1.9380   -2.0203 F   0  0  0  0  0  0  0  0  0  0  0  0
   -7.1040    1.8588   -0.7669 F   0  0  0  0  0  0  0  0  0  0  0  0
   -6.2049    0.0064   -1.5252 F   0  0  0  0  0  0  0  0  0  0  0  0
   -0.3972   -3.1706    0.7623 C   0  0  0  0  0  0  0  0  0  0  0  0
   -1.6156   -3.8076    0.6984 F   0  0  0  0  0  0  0  0  0  0  0  0
    0.5955   -4.1203    0.5992 F   0  0  0  0  0  0  0  0  0  0  0  0
   -0.3817   -2.7235    2.1014 F   0  0  0  0  0  0  0  0  0  0  0  0
    7.2309    1.9745   -0.7954 H   0  0  0  0  0  0  0  0  0  0  0  0
    7.4015    1.9762    1.0247 H   0  0  0  0  0  0  0  0  0  0  0  0
    6.7744    3.4829    0.1628 H   0  0  0  0  0  0  0  0  0  0  0  0
    4.7807    2.5631   -0.4215 H   0  0  0  0  0  0  0  0  0  0  0  0
    5.0332    1.9150    1.3108 H   0  0  0  0  0  0  0  0  0  0  0  0
    3.2377    0.4588    1.6426 H   0  0  0  0  0  0  0  0  0  0  0  0
    1.5087   -2.1854   -2.1177 H   0  0  0  0  0  0  0  0  0  0  0  0
    0.0943   -3.4454   -1.4445 H   0  0  0  0  0  0  0  0  0  0  0  0
   -0.5166    0.7738    0.3801 H   0  0  0  0  0  0  0  0  0  0  0  0
   -2.5347    2.0219    0.6201 H   0  0  0  0  0  0  0  0  0  0  0  0
   -4.7557   -1.4342   -0.4542 H   0  0  0  0  0  0  0  0  0  0  0  0
   -2.8034   -2.6891   -0.7123 H   0  0  0  0  0  0  0  0  0  0  0  0
  1  2  1  0
  2  3  1  0
  3  4  2  0
  3  5  2  0
  3  6  1  0
  6  7  2  0
  7  8  1  0
  8  9  1  0
  8 10  2  0
 10 11  1  0
 11 12  2  0
 12 13  1  0
 10 14  1  0
 14 15  1  0
 14 16  1  0
 16 17  2  0
 17 18  1  0
 18 19  2  0
 19 20  1  0
 20 21  2  0
 19 22  1  0
 22 23  1  0
 22 24  1  0
 24 25  1  0
 24 26  1  0
 24 27  1  0
 22 28  1  0
 28 29  1  0
 28 30  1  0
 28 31  1  0
 14 32  1  0
 32 33  1  0
 32 34  1  0
 32 35  1  0
 12  6  1  0
 21 16  1  0
  1 36  1  0
  1 37  1  0
  1 38  1  0
  2 39  1  0
  2 40  1  0
  7 41  1  0
 11 42  1  0
 15 43  1  0
 17 44  1  0
 18 45  1  0
 20 46  1  0
 21 47  1  0
M  END
$$$$
[H]c1c([H])c(OC([H])([H])C([H])([H])C([H])([H])C([H])([H])C([H])([H])Oc2c([H])c([H])c([N+](=O)[O-])c([H])c2[H])c([H])c([H])c1Cl
     RDKit          3D

 41 42  0  0  0  0  0  0  0  0999 V2000
    6.2069    3.1315   -2.0144 O   0  0  0  0  0  0  0  0  0  0  0  0
    6.4082    1.9221   -1.4225 N   0  0  0  0  0  0  0  0  0  0  0  0
    7.5210    1.3848   -1.4334 O   0  0  0  0  0  0  0  0  0  0  0  0
    5.3230    1.2487   -0.7727 C   0  0  0  0  0  0  0  0  0  0  0  0
    4.0741    1.8224   -0.7449 C   0  0  0  0  0  0  0  0  0  0  0  0
    3.0270    1.1714   -0.1173 C   0  0  0  0  0  0  0  0  0  0  0  0
    3.1744   -0.0549    0.4981 C   0  0  0  0  0  0  0  0  0  0  0  0
    2.1452   -0.7241    1.1307 O   0  0  0  0  0  0  0  0  0  0  0  0
    0.8667   -0.1127    1.1462 C   0  0  0  0  0  0  0  0  0  0  0  0
   -0.1522   -0.9492    1.8653 C   0  0  0  0  0  0  0  0  0  0  0  0
   -0.3618   -2.2958    1.2704 C   0  0  0  0  0  0  0  0  0  0  0  0
   -0.8279   -2.3519   -0.1314 C   0  0  0  0  0  0  0  0  0  0  0  0
   -2.1385   -1.7297   -0.4448 C   0  0  0  0  0  0  0  0  0  0  0  0
   -2.2578   -0.3674   -0.1939 O   0  0  0  0  0  0  0  0  0  0  0  0
   -3.4440    0.2806   -0.4593 C   0  0  0  0  0  0  0  0  0  0  0  0
   -4.5191   -0.4157   -0.9744 C   0  0  0  0  0  0  0  0  0  0  0  0
   -5.6914    0.2264   -1.2363 C   0  0  0  0  0  0  0  0  0  0  0  0
   -5.8193    1.5680   -0.9929 C   0  0  0  0  0  0  0  0  0  0  0  0
   -7.3357    2.4114   -1.3289 Cl  0  0  0  0  0  0  0  0  0  0  0  0
   -4.7648    2.2729   -0.4830 C   0  0  0  0  0  0  0  0  0  0  0  0
   -3.5828    1.6318   -0.2175 C   0  0  0  0  0  0  0  0  0  0  0  0
    4.4525   -0.6100    0.4526 C   0  0  0  0  0  0  0  0  0  0  0  0
    5.5054    0.0293   -0.1704 C   0  0  0  0  0  0  0  0  0  0  0  0
    3.9558    2.7877   -1.2286 H   0  0  0  0  0  0  0  0  0  0  0  0
    2.0485    1.6262   -0.0983 H   0  0  0  0  0  0  0  0  0  0  0  0
    0.5454    0.1957    0.1455 H   0  0  0  0  0  0  0  0  0  0  0  0
    0.9857    0.8301    1.7469 H   0  0  0  0  0  0  0  0  0  0  0  0
   -1.0975   -0.3823    1.9170 H   0  0  0  0  0  0  0  0  0  0  0  0
    0.1978   -1.0224    2.9406 H   0  0  0  0  0  0  0  0  0  0  0  0
    0.5173   -2.9670    1.3744 H   0  0  0  0  0  0  0  0  0  0  0  0
   -1.1597   -2.7974    1.8977 H   0  0  0  0  0  0  0  0  0  0  0  0
   -0.0430   -1.9044   -0.7853 H   0  0  0  0  0  0  0  0  0  0  0  0
   -0.9123   -3.4458   -0.4133 H   0  0  0  0  0  0  0  0  0  0  0  0
   -2.3154   -1.8616   -1.5543 H   0  0  0  0  0  0  0  0  0  0  0  0
   -3.0011   -2.2480    0.0276 H   0  0  0  0  0  0  0  0  0  0  0  0
   -4.4609   -1.4840   -1.1830 H   0  0  0  0  0  0  0  0  0  0  0  0
   -6.5317   -0.3343   -1.6424 H   0  0  0  0  0  0  0  0  0  0  0  0
   -4.9056    3.3378   -0.3032 H   0  0  0  0  0  0  0  0  0  0  0  0
   -2.7510    2.1828    0.1836 H   0  0  0  0  0  0  0  0  0  0  0  0
    4.6086   -1.5856    0.9318 H   0  0  0  0  0  0  0  0  0  0  0  0
    6.5100   -0.4177   -0.2004 H   0  0  0  0  0  0  0  0  0  0  0  0
  1  2  1  0
  2  3  2  0
  2  4  1  0
  4  5  2  0
  5  6  1  0
  6  7  2  0
  7  8  1  0
  8  9  1  0
  9 10  1  0
 10 11  1  0
 11 12  1  0
 12 13  1  0
 13 14  1  0
 14 15  1  0
 15 16  2  0
 16 17  1  0
 17 18  2  0
 18 19  1  0
 18 20  1  0
 20 21  2  0
  7 22  1  0
 22 23  2  0
 23  4  1  0
 21 15  1  0
  5 24  1  0
  6 25  1  0
  9 26  1  0
  9 27  1  0
 10 28  1  0
 10 29  1  0
 11 30  1  0
 11 31  1  0
 12 32  1  0
 12 33  1  0
 13 34  1  0
 13 35  1  0
 16 36  1  0
 17 37  1  0
 20 38  1  0
 21 39  1  0
 22 40  1  0
 23 41  1  0
M  CHG  2   1  -1   2   1
M  END
$$$$
[H]c1c([H])c(C([H])([H])[H])c(C(F)(F)F)c([H])c1C(=O)N([H])c1c([H])c([H])c2c(c1[H])O[C@]([H])(C([H])([H])N(C([H])([H])[H])C([H])([H])[H])C([H])([H])C(=O)N2[H]
     RDKit          3D

 52 54  0  0  0  0  0  0  0  0999 V2000
   -6.3836    1.6975   -0.0011 C   0  0  0  0  0  0  0  0  0  0  0  0
   -6.2757    0.8399    1.1765 N   0  0  0  0  0  0  0  0  0  0  0  0
   -6.9354    1.4962    2.2937 C   0  0  0  0  0  0  0  0  0  0  0  0
   -4.8841    0.6600    1.5484 C   0  0  0  0  0  0  0  0  0  0  0  0
   -4.1938   -0.1598    0.4835 C   0  0  2  0  0  0  0  0  0  0  0  0
   -4.8538   -1.4751    0.2268 C   0  0  0  0  0  0  0  0  0  0  0  0
   -4.5723   -1.9447   -1.1685 C   0  0  0  0  0  0  0  0  0  0  0  0
   -5.4802   -2.5565   -1.7902 O   0  0  0  0  0  0  0  0  0  0  0  0
   -3.3562   -1.7780   -1.9069 N   0  0  0  0  0  0  0  0  0  0  0  0
   -2.0807   -1.4339   -1.3466 C   0  0  0  0  0  0  0  0  0  0  0  0
   -1.0237   -1.7970   -2.1408 C   0  0  0  0  0  0  0  0  0  0  0  0
    0.2560   -1.5241   -1.7091 C   0  0  0  0  0  0  0  0  0  0  0  0
    0.5391   -0.9036   -0.5198 C   0  0  0  0  0  0  0  0  0  0  0  0
    1.8213   -0.5746   -0.0310 N   0  0  0  0  0  0  0  0  0  0  0  0
    2.9792   -0.4438   -0.7748 C   0  0  0  0  0  0  0  0  0  0  0  0
    2.9728   -0.6112   -2.0307 O   0  0  0  0  0  0  0  0  0  0  0  0
    4.2825   -0.1059   -0.1738 C   0  0  0  0  0  0  0  0  0  0  0  0
    4.4720   -0.0665    1.1760 C   0  0  0  0  0  0  0  0  0  0  0  0
    5.7207    0.2639    1.6975 C   0  0  0  0  0  0  0  0  0  0  0  0
    6.7885    0.5573    0.8765 C   0  0  0  0  0  0  0  0  0  0  0  0
    8.0901    0.9015    1.4837 C   0  0  0  0  0  0  0  0  0  0  0  0
    6.6070    0.5203   -0.4824 C   0  0  0  0  0  0  0  0  0  0  0  0
    5.3559    0.1890   -0.9760 C   0  0  0  0  0  0  0  0  0  0  0  0
    7.7158    0.8266   -1.4204 C   0  0  0  0  0  0  0  0  0  0  0  0
    8.7887   -0.0097   -1.2889 F   0  0  0  0  0  0  0  0  0  0  0  0
    7.2557    0.6743   -2.7325 F   0  0  0  0  0  0  0  0  0  0  0  0
    8.0771    2.1750   -1.3265 F   0  0  0  0  0  0  0  0  0  0  0  0
   -0.5825   -0.5464    0.2680 C   0  0  0  0  0  0  0  0  0  0  0  0
   -1.8574   -0.8015   -0.1285 C   0  0  0  0  0  0  0  0  0  0  0  0
   -2.8301   -0.3717    0.7890 O   0  0  0  0  0  0  0  0  0  0  0  0
   -5.4327    2.2419   -0.2013 H   0  0  0  0  0  0  0  0  0  0  0  0
   -7.1968    2.4531    0.1287 H   0  0  0  0  0  0  0  0  0  0  0  0
   -6.6664    1.0999   -0.8977 H   0  0  0  0  0  0  0  0  0  0  0  0
   -8.0336    1.4154    2.2410 H   0  0  0  0  0  0  0  0  0  0  0  0
   -6.6524    2.5668    2.2985 H   0  0  0  0  0  0  0  0  0  0  0  0
   -6.5507    1.0396    3.2383 H   0  0  0  0  0  0  0  0  0  0  0  0
   -4.7425    0.2960    2.5640 H   0  0  0  0  0  0  0  0  0  0  0  0
   -4.4334    1.6936    1.5057 H   0  0  0  0  0  0  0  0  0  0  0  0
   -4.2661    0.4258   -0.4730 H   0  0  0  0  0  0  0  0  0  0  0  0
   -4.4831   -2.1985    0.9856 H   0  0  0  0  0  0  0  0  0  0  0  0
   -5.9621   -1.4397    0.3674 H   0  0  0  0  0  0  0  0  0  0  0  0
   -3.3593   -1.9109   -2.9359 H   0  0  0  0  0  0  0  0  0  0  0  0
   -1.2316   -2.2856   -3.0804 H   0  0  0  0  0  0  0  0  0  0  0  0
    1.0986   -1.8398   -2.3536 H   0  0  0  0  0  0  0  0  0  0  0  0
    1.8989   -0.4123    1.0191 H   0  0  0  0  0  0  0  0  0  0  0  0
    3.7054   -0.2793    1.8780 H   0  0  0  0  0  0  0  0  0  0  0  0
    5.8433    0.2871    2.7901 H   0  0  0  0  0  0  0  0  0  0  0  0
    8.0327    0.7995    2.5960 H   0  0  0  0  0  0  0  0  0  0  0  0
    8.2778    1.9863    1.3102 H   0  0  0  0  0  0  0  0  0  0  0  0
    8.9177    0.2488    1.1738 H   0  0  0  0  0  0  0  0  0  0  0  0
    5.2291    0.1642   -2.0676 H   0  0  0  0  0  0  0  0  0  0  0  0
   -0.4059   -0.0496    1.2248 H   0  0  0  0  0  0  0  0  0  0  0  0
  1  2  1  0
  2  3  1  0
  2  4  1  0
  4  5  1  0
  5  6  1  0
  6  7  1  0
  7  8  2  0
  7  9  1  0
  9 10  1  0
 10 11  2  0
 11 12  1  0
 12 13  2  0
 13 14  1  0
 14 15  1  0
 15 16  2  0
 15 17  1  0
 17 18  2  0
 18 19  1  0
 19 20  2  0
 20 21  1  0
 20 22  1  0
 22 23  2  0
 22 24  1  0
 24 25  1  0
 24 26  1  0
 24 27  1  0
 13 28  1  0
 28 29  2  0
 29 30  1  0
 30  5  1  0
 29 10  1  0
 23 17  1  0
  1 31  1  0
  1 32  1  0
  1 33  1  0
  3 34  1  0
  3 35  1  0
  3 36  1  0
  4 37  1  0
  4 38  1  0
  5 39  1  6
  6 40  1  0
  6 41  1  0
  9 42  1  0
 11 43  1  0
 12 44  1  0
 14 45  1  0
 18 46  1  0
 19 47  1  0
 21 48  1  0
 21 49  1  0
 21 50  1  0
 23 51  1  0
 28 52  1  0
M  END
$$$$
[H]c1nc(C2=NN(c3c([H])c([H])c([H])c(F)c3[H])C(=O)C([H])(OC([H])([H])c3c([H])c([H])c(Cl)c([H])c3[H])C2([H])[H])c([H])c([H])c1Cl
     RDKit          3D

 46 49  0  0  0  0  0  0  0  0999 V2000
   -4.0910   -4.9462   -1.0047 F   0  0  0  0  0  0  0  0  0  0  0  0
   -3.4565   -4.0308   -0.2320 C   0  0  0  0  0  0  0  0  0  0  0  0
   -3.4748   -4.2513    1.1299 C   0  0  0  0  0  0  0  0  0  0  0  0
   -2.8420   -3.3487    1.9682 C   0  0  0  0  0  0  0  0  0  0  0  0
   -2.2227   -2.2685    1.3873 C   0  0  0  0  0  0  0  0  0  0  0  0
   -2.1981   -2.0379    0.0281 C   0  0  0  0  0  0  0  0  0  0  0  0
   -2.8288   -2.9384   -0.8026 C   0  0  0  0  0  0  0  0  0  0  0  0
   -1.5617   -0.9281   -0.5539 N   0  0  0  0  0  0  0  0  0  0  0  0
   -1.8990    0.3672   -0.2014 N   0  0  0  0  0  0  0  0  0  0  0  0
   -1.3387    1.3757   -0.7188 C   0  0  0  0  0  0  0  0  0  0  0  0
   -0.2881    1.2987   -1.7349 C   0  0  0  0  0  0  0  0  0  0  0  0
    0.4432    0.0071   -1.7444 C   0  0  0  0  0  0  0  0  0  0  0  0
   -0.5316   -1.1050   -1.5444 C   0  0  0  0  0  0  0  0  0  0  0  0
   -0.4472   -2.1458   -2.2174 O   0  0  0  0  0  0  0  0  0  0  0  0
    1.4089   -0.1076   -0.7515 O   0  0  0  0  0  0  0  0  0  0  0  0
    2.6727   -0.3577   -1.3082 C   0  0  0  0  0  0  0  0  0  0  0  0
    3.6699   -0.4679   -0.2271 C   0  0  0  0  0  0  0  0  0  0  0  0
    3.8765   -1.6683    0.4216 C   0  0  0  0  0  0  0  0  0  0  0  0
    4.8092   -1.7876    1.4363 C   0  0  0  0  0  0  0  0  0  0  0  0
    5.5704   -0.7101    1.8399 C   0  0  0  0  0  0  0  0  0  0  0  0
    6.7601   -0.8472    3.1284 Cl  0  0  0  0  0  0  0  0  0  0  0  0
    5.3765    0.4955    1.2025 C   0  0  0  0  0  0  0  0  0  0  0  0
    4.4355    0.6032    0.1835 C   0  0  0  0  0  0  0  0  0  0  0  0
   -1.8005    2.7153   -0.2423 C   0  0  0  0  0  0  0  0  0  0  0  0
   -2.7856    2.8453    0.7085 C   0  0  0  0  0  0  0  0  0  0  0  0
   -3.2281    4.0688    1.1638 C   0  0  0  0  0  0  0  0  0  0  0  0
   -2.6559    5.2229    0.6421 C   0  0  0  0  0  0  0  0  0  0  0  0
   -3.1766    6.8170    1.1819 Cl  0  0  0  0  0  0  0  0  0  0  0  0
   -1.6717    5.0596   -0.3088 C   0  0  0  0  0  0  0  0  0  0  0  0
   -1.2644    3.8401   -0.7305 N   0  0  0  0  0  0  0  0  0  0  0  0
   -3.9538   -5.0891    1.5978 H   0  0  0  0  0  0  0  0  0  0  0  0
   -2.8456   -3.5043    3.0348 H   0  0  0  0  0  0  0  0  0  0  0  0
   -1.7294   -1.5688    2.0680 H   0  0  0  0  0  0  0  0  0  0  0  0
   -2.8479   -2.8178   -1.8806 H   0  0  0  0  0  0  0  0  0  0  0  0
   -0.8205    1.3821   -2.7307 H   0  0  0  0  0  0  0  0  0  0  0  0
    0.4238    2.1658   -1.6754 H   0  0  0  0  0  0  0  0  0  0  0  0
    0.9642   -0.1272   -2.7342 H   0  0  0  0  0  0  0  0  0  0  0  0
    2.9579    0.4003   -2.0395 H   0  0  0  0  0  0  0  0  0  0  0  0
    2.5653   -1.3446   -1.8252 H   0  0  0  0  0  0  0  0  0  0  0  0
    3.2901   -2.5303    0.1213 H   0  0  0  0  0  0  0  0  0  0  0  0
    4.9568   -2.7327    1.9311 H   0  0  0  0  0  0  0  0  0  0  0  0
    5.9577    1.3466    1.5001 H   0  0  0  0  0  0  0  0  0  0  0  0
    4.2752    1.5448   -0.3245 H   0  0  0  0  0  0  0  0  0  0  0  0
   -3.2261    1.9277    1.1093 H   0  0  0  0  0  0  0  0  0  0  0  0
   -3.9989    4.1937    1.9083 H   0  0  0  0  0  0  0  0  0  0  0  0
   -1.2287    5.9841   -0.7120 H   0  0  0  0  0  0  0  0  0  0  0  0
  1  2  1  0
  2  3  2  0
  3  4  1  0
  4  5  2  0
  5  6  1  0
  6  7  2  0
  6  8  1  0
  8  9  1  0
  9 10  2  0
 10 11  1  0
 11 12  1  0
 12 13  1  0
 13 14  2  0
 12 15  1  0
 15 16  1  0
 16 17  1  0
 17 18  2  0
 18 19  1  0
 19 20  2  0
 20 21  1  0
 20 22  1  0
 22 23  2  0
 10 24  1  0
 24 25  2  0
 25 26  1  0
 26 27  2  0
 27 28  1  0
 27 29  1  0
 29 30  2  0
  7  2  1  0
 13  8  1  0
 23 17  1  0
 30 24  1  0
  3 31  1  0
  4 32  1  0
  5 33  1  0
  7 34  1  0
 11 35  1  0
 11 36  1  0
 12 37  1  0
 16 38  1  0
 16 39  1  0
 18 40  1  0
 19 41  1  0
 22 42  1  0
 23 43  1  0
 25 44  1  0
 26 45  1  0
 29 46  1  0
M  END
$$$$
[H]c1nc2c(C([H])([H])[H])c(C([H])([H])[H])c(C3([H])C([H])([H])C([H])([H])N(C(=O)C([H])([H])C4([H])C([H])([H])C([H])([H])[C@]([H])(N5C([H])([H])[C@]([H])(C([H])([H])[H])[C@]([H])(OC([H])([H])[H])[C@@]([H])(C([H])([H])C6([H])C([H])([H])C6([H])[H])C5([H])[H])C4([H])[H])C([H])([H])C3([H])[H])c([H])n2n1
     RDKit          3D

 85 90  0  0  0  0  0  0  0  0999 V2000
   -7.8942   -1.5921   -1.7206 C   0  0  0  0  0  0  0  0  0  0  0  0
   -6.6083   -1.4802   -1.2230 O   0  0  0  0  0  0  0  0  0  0  0  0
   -6.5788   -0.3921   -0.3070 C   0  0  1  0  0  0  0  0  0  0  0  0
   -6.2443   -0.9687    1.0712 C   0  0  1  0  0  0  0  0  0  0  0  0
   -7.1897   -2.1097    1.3989 C   0  0  0  0  0  0  0  0  0  0  0  0
   -4.8292   -1.4753    1.0005 C   0  0  0  0  0  0  0  0  0  0  0  0
   -3.9622   -0.3497    0.7003 N   0  0  0  0  0  0  0  0  0  0  0  0
   -4.1390   -0.0359   -0.6765 C   0  0  0  0  0  0  0  0  0  0  0  0
   -5.5777    0.5650   -0.7820 C   0  0  2  0  0  0  0  0  0  0  0  0
   -5.5956    1.9116   -0.2072 C   0  0  0  0  0  0  0  0  0  0  0  0
   -6.7333    2.8208   -0.3181 C   0  0  0  0  0  0  0  0  0  0  0  0
   -8.1086    2.5532    0.2122 C   0  0  0  0  0  0  0  0  0  0  0  0
   -7.8783    2.5537   -1.2409 C   0  0  0  0  0  0  0  0  0  0  0  0
   -2.6023   -0.6437    1.1019 C   0  0  1  0  0  0  0  0  0  0  0  0
   -2.0517   -1.8426    0.3639 C   0  0  0  0  0  0  0  0  0  0  0  0
   -0.8853   -1.3306   -0.4466 C   0  0  0  0  0  0  0  0  0  0  0  0
   -0.4938   -0.0288    0.2318 C   0  0  0  0  0  0  0  0  0  0  0  0
    0.2072    0.8169   -0.8231 C   0  0  0  0  0  0  0  0  0  0  0  0
    1.4201    0.0555   -1.2667 C   0  0  0  0  0  0  0  0  0  0  0  0
    1.2254   -0.9003   -2.1139 O   0  0  0  0  0  0  0  0  0  0  0  0
    2.7042    0.2602   -0.8477 N   0  0  0  0  0  0  0  0  0  0  0  0
    3.2419    1.3662   -0.0344 C   0  0  0  0  0  0  0  0  0  0  0  0
    4.7186    1.4259   -0.5234 C   0  0  0  0  0  0  0  0  0  0  0  0
    5.5055    0.4803    0.3142 C   0  0  0  0  0  0  0  0  0  0  0  0
    4.6189   -0.8303    0.1748 C   0  0  0  0  0  0  0  0  0  0  0  0
    3.7625   -0.7390   -1.1009 C   0  0  0  0  0  0  0  0  0  0  0  0
    6.8474    0.0985   -0.1128 C   0  0  0  0  0  0  0  0  0  0  0  0
    7.0343   -0.8693   -1.0718 C   0  0  0  0  0  0  0  0  0  0  0  0
    8.2948   -1.3497   -1.2867 N   0  0  0  0  0  0  0  0  0  0  0  0
    8.7293   -2.2796   -2.1113 N   0  0  0  0  0  0  0  0  0  0  0  0
   10.0516   -2.4333   -1.9509 C   0  0  0  0  0  0  0  0  0  0  0  0
   10.4268   -1.5584   -0.9889 N   0  0  0  0  0  0  0  0  0  0  0  0
    9.3313   -0.8686   -0.5588 C   0  0  0  0  0  0  0  0  0  0  0  0
    9.1660    0.1105    0.4154 C   0  0  0  0  0  0  0  0  0  0  0  0
   10.3540    0.6215    1.1734 C   0  0  0  0  0  0  0  0  0  0  0  0
    7.8974    0.5931    0.6306 C   0  0  0  0  0  0  0  0  0  0  0  0
    7.7450    1.7081    1.5998 C   0  0  0  0  0  0  0  0  0  0  0  0
   -1.7156    0.5439    0.8234 C   0  0  0  0  0  0  0  0  0  0  0  0
   -7.9192   -2.4381   -2.4293 H   0  0  0  0  0  0  0  0  0  0  0  0
   -8.2015   -0.6357   -2.2049 H   0  0  0  0  0  0  0  0  0  0  0  0
   -8.5901   -1.8535   -0.8890 H   0  0  0  0  0  0  0  0  0  0  0  0
   -7.5815    0.0287   -0.2523 H   0  0  0  0  0  0  0  0  0  0  0  0
   -6.3332   -0.1994    1.8390 H   0  0  0  0  0  0  0  0  0  0  0  0
   -7.0994   -2.8833    0.6260 H   0  0  0  0  0  0  0  0  0  0  0  0
   -8.1910   -1.7080    1.4854 H   0  0  0  0  0  0  0  0  0  0  0  0
   -6.8639   -2.5060    2.4077 H   0  0  0  0  0  0  0  0  0  0  0  0
   -4.7937   -2.1392    0.0825 H   0  0  0  0  0  0  0  0  0  0  0  0
   -4.5023   -2.0618    1.8817 H   0  0  0  0  0  0  0  0  0  0  0  0
   -4.1687   -0.9219   -1.3021 H   0  0  0  0  0  0  0  0  0  0  0  0
   -3.4793    0.7005   -1.1182 H   0  0  0  0  0  0  0  0  0  0  0  0
   -5.7057    0.6871   -1.9088 H   0  0  0  0  0  0  0  0  0  0  0  0
   -4.6789    2.4493   -0.6621 H   0  0  0  0  0  0  0  0  0  0  0  0
   -5.2372    1.8818    0.8944 H   0  0  0  0  0  0  0  0  0  0  0  0
   -6.4456    3.9423   -0.3233 H   0  0  0  0  0  0  0  0  0  0  0  0
   -8.2989    1.6855    0.8532 H   0  0  0  0  0  0  0  0  0  0  0  0
   -8.6794    3.4511    0.6245 H   0  0  0  0  0  0  0  0  0  0  0  0
   -7.8987    1.6659   -1.8806 H   0  0  0  0  0  0  0  0  0  0  0  0
   -8.3008    3.4451   -1.8050 H   0  0  0  0  0  0  0  0  0  0  0  0
   -2.5999   -0.8512    2.1715 H   0  0  0  0  0  0  0  0  0  0  0  0
   -2.7960   -2.4091   -0.2019 H   0  0  0  0  0  0  0  0  0  0  0  0
   -1.6250   -2.5861    1.1074 H   0  0  0  0  0  0  0  0  0  0  0  0
   -1.1937   -1.1692   -1.5079 H   0  0  0  0  0  0  0  0  0  0  0  0
   -0.0123   -1.9961   -0.4303 H   0  0  0  0  0  0  0  0  0  0  0  0
    0.3160   -0.2298    0.9978 H   0  0  0  0  0  0  0  0  0  0  0  0
    0.5591    1.7718   -0.4152 H   0  0  0  0  0  0  0  0  0  0  0  0
   -0.4275    1.0028   -1.6887 H   0  0  0  0  0  0  0  0  0  0  0  0
    2.7202    2.3038   -0.1770 H   0  0  0  0  0  0  0  0  0  0  0  0
    3.2949    1.0937    1.0340 H   0  0  0  0  0  0  0  0  0  0  0  0
    4.8213    1.3573   -1.6019 H   0  0  0  0  0  0  0  0  0  0  0  0
    4.9724    2.5036   -0.2856 H   0  0  0  0  0  0  0  0  0  0  0  0
    5.4338    0.7077    1.3641 H   0  0  0  0  0  0  0  0  0  0  0  0
    3.9087   -0.8858    1.0028 H   0  0  0  0  0  0  0  0  0  0  0  0
    5.2218   -1.7083    0.0704 H   0  0  0  0  0  0  0  0  0  0  0  0
    4.3230   -0.4742   -2.0047 H   0  0  0  0  0  0  0  0  0  0  0  0
    3.3395   -1.7461   -1.2388 H   0  0  0  0  0  0  0  0  0  0  0  0
    6.2710   -1.3267   -1.6773 H   0  0  0  0  0  0  0  0  0  0  0  0
   10.6693   -3.1483   -2.5094 H   0  0  0  0  0  0  0  0  0  0  0  0
   10.3330    0.1533    2.1653 H   0  0  0  0  0  0  0  0  0  0  0  0
   10.3570    1.7388    1.2150 H   0  0  0  0  0  0  0  0  0  0  0  0
   11.2780    0.3520    0.6012 H   0  0  0  0  0  0  0  0  0  0  0  0
    8.6335    1.8344    2.2418 H   0  0  0  0  0  0  0  0  0  0  0  0
    7.7424    2.6531    0.9509 H   0  0  0  0  0  0  0  0  0  0  0  0
    6.8582    1.6901    2.2201 H   0  0  0  0  0  0  0  0  0  0  0  0
   -2.1892    1.3632    0.2825 H   0  0  0  0  0  0  0  0  0  0  0  0
   -1.4347    1.0075    1.8286 H   0  0  0  0  0  0  0  0  0  0  0  0
  1  2  1  0
  2  3  1  0
  3  4  1  0
  4  5  1  0
  4  6  1  0
  6  7  1  0
  7  8  1  0
  8  9  1  0
  9 10  1  0
 10 11  1  0
 11 12  1  0
 12 13  1  0
  7 14  1  0
 14 15  1  0
 15 16  1  0
 16 17  1  0
 17 18  1  0
 18 19  1  0
 19 20  2  0
 19 21  1  0
 21 22  1  0
 22 23  1  0
 23 24  1  0
 24 25  1  0
 25 26  1  0
 24 27  1  0
 27 28  2  0
 28 29  1  0
 29 30  1  0
 30 31  2  0
 31 32  1  0
 32 33  2  0
 33 34  1  0
 34 35  1  0
 34 36  2  0
 36 37  1  0
 17 38  1  0
  9  3  1  0
 13 11  1  0
 38 14  1  0
 26 21  1  0
 36 27  1  0
 33 29  1  0
  1 39  1  0
  1 40  1  0
  1 41  1  0
  3 42  1  1
  4 43  1  1
  5 44  1  0
  5 45  1  0
  5 46  1  0
  6 47  1  0
  6 48  1  0
  8 49  1  0
  8 50  1  0
  9 51  1  6
 10 52  1  0
 10 53  1  0
 11 54  1  0
 12 55  1  0
 12 56  1  0
 13 57  1  0
 13 58  1  0
 14 59  1  1
 15 60  1  0
 15 61  1  0
 16 62  1  0
 16 63  1  0
 17 64  1  0
 18 65  1  0
 18 66  1  0
 22 67  1  0
 22 68  1  0
 23 69  1  0
 23 70  1  0
 24 71  1  0
 25 72  1  0
 25 73  1  0
 26 74  1  0
 26 75  1  0
 28 76  1  0
 31 77  1  0
 35 78  1  0
 35 79  1  0
 35 80  1  0
 37 81  1  0
 37 82  1  0
 37 83  1  0
 38 84  1  0
 38 85  1  0
M  END
$$$$
[H]c1nnc(N([H])c2nc([H])c3c(n2)N2C(=O)C([H])([H])C(C([H])([H])[H])(C([H])([H])[H])C2([H])C3([H])[H])c([H])c1C([H])([H])[H]
     RDKit          3D

 41 44  0  0  0  0  0  0  0  0999 V2000
    7.7258    0.0645   -0.0912 C   0  0  0  0  0  0  0  0  0  0  0  0
    6.3572   -0.4645    0.1090 C   0  0  0  0  0  0  0  0  0  0  0  0
    6.1934   -1.7560    0.5571 C   0  0  0  0  0  0  0  0  0  0  0  0
    4.9526   -2.2330    0.7377 N   0  0  0  0  0  0  0  0  0  0  0  0
    3.8679   -1.5012    0.4988 N   0  0  0  0  0  0  0  0  0  0  0  0
    3.9521   -0.2332    0.0598 C   0  0  0  0  0  0  0  0  0  0  0  0
    2.7592    0.5034   -0.1794 N   0  0  0  0  0  0  0  0  0  0  0  0
    1.4716   -0.0278    0.0206 C   0  0  0  0  0  0  0  0  0  0  0  0
    1.2340   -1.2742    0.4542 N   0  0  0  0  0  0  0  0  0  0  0  0
   -0.0249   -1.7265    0.6266 C   0  0  0  0  0  0  0  0  0  0  0  0
   -1.1281   -0.9246    0.3637 C   0  0  0  0  0  0  0  0  0  0  0  0
   -2.6022   -1.0886    0.4379 C   0  0  0  0  0  0  0  0  0  0  0  0
   -3.1073    0.3130    0.4525 C   0  0  0  0  0  0  0  0  0  0  0  0
   -4.3621    0.5263   -0.3240 C   0  0  0  0  0  0  0  0  0  0  0  0
   -4.8142   -0.6723   -1.1049 C   0  0  0  0  0  0  0  0  0  0  0  0
   -5.4380    0.9870    0.6572 C   0  0  0  0  0  0  0  0  0  0  0  0
   -4.1182    1.6639   -1.2909 C   0  0  0  0  0  0  0  0  0  0  0  0
   -2.7514    2.1161   -0.9411 C   0  0  0  0  0  0  0  0  0  0  0  0
   -2.2073    3.2532   -1.1537 O   0  0  0  0  0  0  0  0  0  0  0  0
   -2.1039    1.0332   -0.2986 N   0  0  0  0  0  0  0  0  0  0  0  0
   -0.8568    0.3490   -0.0797 C   0  0  0  0  0  0  0  0  0  0  0  0
    0.4042    0.7448   -0.2326 N   0  0  0  0  0  0  0  0  0  0  0  0
    5.2132    0.2711   -0.1305 C   0  0  0  0  0  0  0  0  0  0  0  0
    8.0313   -0.1297   -1.1542 H   0  0  0  0  0  0  0  0  0  0  0  0
    7.7145    1.1867    0.0015 H   0  0  0  0  0  0  0  0  0  0  0  0
    8.4571   -0.3705    0.6150 H   0  0  0  0  0  0  0  0  0  0  0  0
    7.0670   -2.3886    0.7645 H   0  0  0  0  0  0  0  0  0  0  0  0
    2.8928    1.4809   -0.5188 H   0  0  0  0  0  0  0  0  0  0  0  0
   -0.1776   -2.7314    0.9757 H   0  0  0  0  0  0  0  0  0  0  0  0
   -2.9487   -1.6823   -0.4301 H   0  0  0  0  0  0  0  0  0  0  0  0
   -2.8909   -1.5965    1.3998 H   0  0  0  0  0  0  0  0  0  0  0  0
   -3.1682    0.6870    1.4971 H   0  0  0  0  0  0  0  0  0  0  0  0
   -5.8246   -0.4117   -1.5285 H   0  0  0  0  0  0  0  0  0  0  0  0
   -4.1584   -0.8352   -1.9639 H   0  0  0  0  0  0  0  0  0  0  0  0
   -4.9845   -1.5633   -0.4762 H   0  0  0  0  0  0  0  0  0  0  0  0
   -5.4568    0.3609    1.5667 H   0  0  0  0  0  0  0  0  0  0  0  0
   -6.3950    1.0342    0.1304 H   0  0  0  0  0  0  0  0  0  0  0  0
   -5.1334    2.0105    0.9942 H   0  0  0  0  0  0  0  0  0  0  0  0
   -4.0730    1.2772   -2.3507 H   0  0  0  0  0  0  0  0  0  0  0  0
   -4.8765    2.4617   -1.2070 H   0  0  0  0  0  0  0  0  0  0  0  0
    5.3079    1.2864   -0.4824 H   0  0  0  0  0  0  0  0  0  0  0  0
  1  2  1  0
  2  3  2  0
  3  4  1  0
  4  5  2  0
  5  6  1  0
  6  7  1  0
  7  8  1  0
  8  9  2  0
  9 10  1  0
 10 11  2  0
 11 12  1  0
 12 13  1  0
 13 14  1  0
 14 15  1  0
 14 16  1  0
 14 17  1  0
 17 18  1  0
 18 19  2  0
 18 20  1  0
 20 21  1  0
 21 22  2  0
  6 23  2  0
 23  2  1  0
 22  8  1  0
 21 11  1  0
 20 13  1  0
  1 24  1  0
  1 25  1  0
  1 26  1  0
  3 27  1  0
  7 28  1  0
 10 29  1  0
 12 30  1  0
 12 31  1  0
 13 32  1  0
 15 33  1  0
 15 34  1  0
 15 35  1  0
 16 36  1  0
 16 37  1  0
 16 38  1  0
 17 39  1  0
 17 40  1  0
 23 41  1  0
M  END
$$$$
[H]N=C(c1c([H])c([H])c(C([H])([H])N(C([H])([H])C(=O)N([H])O[H])S(=O)(=O)c2c([H])c([H])c(C([H])(C([H])([H])[H])C([H])([H])[H])c([H])c2[H])c([H])c1[H])N([H])[H]
     RDKit          3D

 52 53  0  0  0  0  0  0  0  0999 V2000
    6.4045    0.1484    1.9558 C   0  0  0  0  0  0  0  0  0  0  0  0
    5.6701    0.7776    0.7872 C   0  0  0  0  0  0  0  0  0  0  0  0
    6.2322    0.2161   -0.4847 C   0  0  0  0  0  0  0  0  0  0  0  0
    4.2286    0.3832    0.8839 C   0  0  0  0  0  0  0  0  0  0  0  0
    3.8314   -0.9332    0.8025 C   0  0  0  0  0  0  0  0  0  0  0  0
    2.5130   -1.3194    0.8887 C   0  0  0  0  0  0  0  0  0  0  0  0
    1.5181   -0.3827    1.0637 C   0  0  0  0  0  0  0  0  0  0  0  0
    1.9049    0.9459    1.1472 C   0  0  0  0  0  0  0  0  0  0  0  0
    3.2352    1.3243    1.0592 C   0  0  0  0  0  0  0  0  0  0  0  0
   -0.1767   -0.8296    1.1791 S   0  0  0  0  0  0  0  0  0  0  0  0
   -0.2126   -2.2460    1.7218 O   0  0  0  0  0  0  0  0  0  0  0  0
   -0.8634    0.0308    2.1737 O   0  0  0  0  0  0  0  0  0  0  0  0
   -0.8443   -0.8067   -0.3640 N   0  0  0  0  0  0  0  0  0  0  0  0
   -0.2434   -1.7272   -1.2554 C   0  0  0  0  0  0  0  0  0  0  0  0
   -0.8605   -3.0587   -1.2713 C   0  0  0  0  0  0  0  0  0  0  0  0
   -1.8350   -3.3097   -0.5391 O   0  0  0  0  0  0  0  0  0  0  0  0
   -0.3501   -4.0544   -2.1159 N   0  0  0  0  0  0  0  0  0  0  0  0
   -0.8443   -5.3112   -2.2066 O   0  0  0  0  0  0  0  0  0  0  0  0
   -1.2237    0.4427   -0.8844 C   0  0  0  0  0  0  0  0  0  0  0  0
   -2.5895    0.8706   -0.6111 C   0  0  0  0  0  0  0  0  0  0  0  0
   -3.4467    0.0853    0.1166 C   0  0  0  0  0  0  0  0  0  0  0  0
   -4.7600    0.4807    0.3880 C   0  0  0  0  0  0  0  0  0  0  0  0
   -5.2412    1.6690   -0.0632 C   0  0  0  0  0  0  0  0  0  0  0  0
   -4.3785    2.4835   -0.8083 C   0  0  0  0  0  0  0  0  0  0  0  0
   -3.0894    2.0725   -1.0625 C   0  0  0  0  0  0  0  0  0  0  0  0
   -6.6035    2.1316    0.1906 C   0  0  0  0  0  0  0  0  0  0  0  0
   -7.0353    3.3913   -0.3163 N   0  0  0  0  0  0  0  0  0  0  0  0
   -7.4289    1.4222    0.8666 N   0  0  0  0  0  0  0  0  0  0  0  0
    7.3508    0.7149    2.0909 H   0  0  0  0  0  0  0  0  0  0  0  0
    6.6683   -0.8887    1.7107 H   0  0  0  0  0  0  0  0  0  0  0  0
    5.8427    0.2413    2.9087 H   0  0  0  0  0  0  0  0  0  0  0  0
    5.7844    1.8755    0.8751 H   0  0  0  0  0  0  0  0  0  0  0  0
    6.3738    1.0422   -1.1952 H   0  0  0  0  0  0  0  0  0  0  0  0
    5.5472   -0.5266   -0.9319 H   0  0  0  0  0  0  0  0  0  0  0  0
    7.2153   -0.2701   -0.2913 H   0  0  0  0  0  0  0  0  0  0  0  0
    4.6010   -1.6713    0.6659 H   0  0  0  0  0  0  0  0  0  0  0  0
    2.1944   -2.3547    0.8252 H   0  0  0  0  0  0  0  0  0  0  0  0
    1.1295    1.6979    1.2856 H   0  0  0  0  0  0  0  0  0  0  0  0
    3.5424    2.3615    1.1239 H   0  0  0  0  0  0  0  0  0  0  0  0
   -0.3880   -1.3109   -2.2988 H   0  0  0  0  0  0  0  0  0  0  0  0
    0.8765   -1.7890   -1.1680 H   0  0  0  0  0  0  0  0  0  0  0  0
    0.4640   -3.8332   -2.7230 H   0  0  0  0  0  0  0  0  0  0  0  0
   -1.7806   -5.2388   -2.5729 H   0  0  0  0  0  0  0  0  0  0  0  0
   -1.0490    0.4866   -1.9924 H   0  0  0  0  0  0  0  0  0  0  0  0
   -0.5268    1.2281   -0.4688 H   0  0  0  0  0  0  0  0  0  0  0  0
   -3.1411   -0.8555    0.5013 H   0  0  0  0  0  0  0  0  0  0  0  0
   -5.3912   -0.1885    0.9717 H   0  0  0  0  0  0  0  0  0  0  0  0
   -4.7452    3.4390   -1.1785 H   0  0  0  0  0  0  0  0  0  0  0  0
   -2.4251    2.7053   -1.6393 H   0  0  0  0  0  0  0  0  0  0  0  0
   -6.9936    4.2377    0.2655 H   0  0  0  0  0  0  0  0  0  0  0  0
   -7.4086    3.4993   -1.2941 H   0  0  0  0  0  0  0  0  0  0  0  0
   -7.2522    0.5012    1.2880 H   0  0  0  0  0  0  0  0  0  0  0  0
  1  2  1  0
  2  3  1  0
  2  4  1  0
  4  5  2  0
  5  6  1  0
  6  7  2  0
  7  8  1  0
  8  9  2  0
  7 10  1  0
 10 11  2  0
 10 12  2  0
 10 13  1  0
 13 14  1  0
 14 15  1  0
 15 16  2  0
 15 17  1  0
 17 18  1  0
 13 19  1  0
 19 20  1  0
 20 21  2  0
 21 22  1  0
 22 23  2  0
 23 24  1  0
 24 25  2  0
 23 26  1  0
 26 27  1  0
 26 28  2  3
  9  4  1  0
 25 20  1  0
  1 29  1  0
  1 30  1  0
  1 31  1  0
  2 32  1  0
  3 33  1  0
  3 34  1  0
  3 35  1  0
  5 36  1  0
  6 37  1  0
  8 38  1  0
  9 39  1  0
 14 40  1  0
 14 41  1  0
 17 42  1  0
 18 43  1  0
 19 44  1  0
 19 45  1  0
 21 46  1  0
 22 47  1  0
 24 48  1  0
 25 49  1  0
 27 50  1  0
 27 51  1  0
 28 52  1  0
M  END
$$$$
[H]C#Cc1c(N([H])[H])nc([H])nc1N1C([H])([H])C([H])([H])C([H])(C(=O)N([H])c2c([H])c([H])c(-c3oc([H])nc3[H])c([H])c2[H])C([H])([H])C1([H])[H]
     RDKit          3D

 49 52  0  0  0  0  0  0  0  0999 V2000
   -7.5269   -1.7309    0.0486 N   0  0  0  0  0  0  0  0  0  0  0  0
   -6.5558   -0.8253    0.5635 C   0  0  0  0  0  0  0  0  0  0  0  0
   -6.7994   -0.0679    1.6469 N   0  0  0  0  0  0  0  0  0  0  0  0
   -5.8920    0.7881    2.1402 C   0  0  0  0  0  0  0  0  0  0  0  0
   -4.7204    0.8893    1.5410 N   0  0  0  0  0  0  0  0  0  0  0  0
   -4.3853    0.1656    0.4428 C   0  0  0  0  0  0  0  0  0  0  0  0
   -3.0877    0.3262   -0.1372 N   0  0  0  0  0  0  0  0  0  0  0  0
   -2.1492   -0.7477   -0.0928 C   0  0  0  0  0  0  0  0  0  0  0  0
   -1.2767   -0.8569   -1.3158 C   0  0  0  0  0  0  0  0  0  0  0  0
   -0.7030    0.4651   -1.7406 C   0  0  0  0  0  0  0  0  0  0  0  0
   -1.2205    1.6098   -0.8979 C   0  0  0  0  0  0  0  0  0  0  0  0
   -2.7229    1.5773   -0.7706 C   0  0  0  0  0  0  0  0  0  0  0  0
    0.7846    0.4842   -1.6461 C   0  0  0  0  0  0  0  0  0  0  0  0
    1.4009    0.6997   -2.7044 O   0  0  0  0  0  0  0  0  0  0  0  0
    1.4268    0.2711   -0.4346 N   0  0  0  0  0  0  0  0  0  0  0  0
    2.8155    0.2512   -0.1447 C   0  0  0  0  0  0  0  0  0  0  0  0
    3.2405    0.0004    1.1724 C   0  0  0  0  0  0  0  0  0  0  0  0
    4.5668   -0.0337    1.5278 C   0  0  0  0  0  0  0  0  0  0  0  0
    5.5562    0.1797    0.5946 C   0  0  0  0  0  0  0  0  0  0  0  0
    5.1635    0.4259   -0.6947 C   0  0  0  0  0  0  0  0  0  0  0  0
    3.8062    0.4618   -1.0631 C   0  0  0  0  0  0  0  0  0  0  0  0
    6.9600    0.1399    0.9868 C   0  0  0  0  0  0  0  0  0  0  0  0
    8.0261    0.3376    0.1412 C   0  0  0  0  0  0  0  0  0  0  0  0
    9.1328    0.2175    0.8955 N   0  0  0  0  0  0  0  0  0  0  0  0
    8.7657   -0.0451    2.1626 C   0  0  0  0  0  0  0  0  0  0  0  0
    7.4718   -0.0826    2.1733 O   0  0  0  0  0  0  0  0  0  0  0  0
   -5.3255   -0.7097   -0.0547 C   0  0  0  0  0  0  0  0  0  0  0  0
   -5.0491   -1.4965   -1.2194 C   0  0  0  0  0  0  0  0  0  0  0  0
   -4.8385   -2.1521   -2.2082 C   0  0  0  0  0  0  0  0  0  0  0  0
   -8.4816   -1.3419   -0.1130 H   0  0  0  0  0  0  0  0  0  0  0  0
   -7.3221   -2.7223   -0.1612 H   0  0  0  0  0  0  0  0  0  0  0  0
   -6.1526    1.3714    3.0196 H   0  0  0  0  0  0  0  0  0  0  0  0
   -2.6969   -1.7020    0.0195 H   0  0  0  0  0  0  0  0  0  0  0  0
   -1.5104   -0.6983    0.8454 H   0  0  0  0  0  0  0  0  0  0  0  0
   -0.4065   -1.5112   -1.0161 H   0  0  0  0  0  0  0  0  0  0  0  0
   -1.7884   -1.4083   -2.1184 H   0  0  0  0  0  0  0  0  0  0  0  0
   -1.0116    0.6493   -2.7838 H   0  0  0  0  0  0  0  0  0  0  0  0
   -0.7785    1.5773    0.1091 H   0  0  0  0  0  0  0  0  0  0  0  0
   -0.9331    2.5647   -1.3859 H   0  0  0  0  0  0  0  0  0  0  0  0
   -3.0329    2.4647   -0.1934 H   0  0  0  0  0  0  0  0  0  0  0  0
   -3.1948    1.6200   -1.7950 H   0  0  0  0  0  0  0  0  0  0  0  0
    0.7521    0.0964    0.3993 H   0  0  0  0  0  0  0  0  0  0  0  0
    2.4829   -0.1699    1.9211 H   0  0  0  0  0  0  0  0  0  0  0  0
    4.8917   -0.2289    2.5519 H   0  0  0  0  0  0  0  0  0  0  0  0
    5.9053    0.5980   -1.4551 H   0  0  0  0  0  0  0  0  0  0  0  0
    3.5877    0.6591   -2.0812 H   0  0  0  0  0  0  0  0  0  0  0  0
    8.0121    0.5511   -0.9318 H   0  0  0  0  0  0  0  0  0  0  0  0
    9.4734   -0.1911    2.9922 H   0  0  0  0  0  0  0  0  0  0  0  0
   -4.6600   -2.7203   -3.0776 H   0  0  0  0  0  0  0  0  0  0  0  0
  1  2  1  0
  2  3  2  0
  3  4  1  0
  4  5  2  0
  5  6  1  0
  6  7  1  0
  7  8  1  0
  8  9  1  0
  9 10  1  0
 10 11  1  0
 11 12  1  0
 10 13  1  0
 13 14  2  0
 13 15  1  0
 15 16  1  0
 16 17  2  0
 17 18  1  0
 18 19  2  0
 19 20  1  0
 20 21  2  0
 19 22  1  0
 22 23  2  0
 23 24  1  0
 24 25  2  0
 25 26  1  0
  6 27  2  0
 27 28  1  0
 28 29  3  0
 27  2  1  0
 12  7  1  0
 21 16  1  0
 26 22  1  0
  1 30  1  0
  1 31  1  0
  4 32  1  0
  8 33  1  0
  8 34  1  0
  9 35  1  0
  9 36  1  0
 10 37  1  0
 11 38  1  0
 11 39  1  0
 12 40  1  0
 12 41  1  0
 15 42  1  0
 17 43  1  0
 18 44  1  0
 20 45  1  0
 21 46  1  0
 23 47  1  0
 25 48  1  0
 29 49  1  0
M  END
$$$$
[H]c1c(C([H])([H])[H])c([H])c(C([H])([H])[H])c(N([H])C(=O)c2c(C(=O)OC([H])([H])[H])c3c([H])c([H])c(C(=O)N([H])[H])c([H])c3n([H])c2=O)c1C([H])([H])[H]
     RDKit          3D

 51 53  0  0  0  0  0  0  0  0999 V2000
   -0.5199   -3.0061   -2.8235 C   0  0  0  0  0  0  0  0  0  0  0  0
   -1.0240   -1.7977   -2.2329 O   0  0  0  0  0  0  0  0  0  0  0  0
   -1.1962   -1.7332   -0.8812 C   0  0  0  0  0  0  0  0  0  0  0  0
   -0.8910   -2.7583   -0.1819 O   0  0  0  0  0  0  0  0  0  0  0  0
   -1.7119   -0.5878   -0.1315 C   0  0  0  0  0  0  0  0  0  0  0  0
   -0.8242    0.3819    0.3554 C   0  0  0  0  0  0  0  0  0  0  0  0
    0.5947    0.2683    0.1279 C   0  0  0  0  0  0  0  0  0  0  0  0
    1.0010   -0.7408   -0.5426 O   0  0  0  0  0  0  0  0  0  0  0  0
    1.6286    1.1105    0.5356 N   0  0  0  0  0  0  0  0  0  0  0  0
    3.0034    0.8745    0.2368 C   0  0  0  0  0  0  0  0  0  0  0  0
    3.5794    1.3664   -0.8947 C   0  0  0  0  0  0  0  0  0  0  0  0
    2.7976    2.1763   -1.8756 C   0  0  0  0  0  0  0  0  0  0  0  0
    4.9336    1.1174   -1.1608 C   0  0  0  0  0  0  0  0  0  0  0  0
    5.6681    0.3854   -0.2884 C   0  0  0  0  0  0  0  0  0  0  0  0
    7.1275    0.0861   -0.5227 C   0  0  0  0  0  0  0  0  0  0  0  0
    5.1145   -0.1148    0.8459 C   0  0  0  0  0  0  0  0  0  0  0  0
    3.7594    0.1398    1.1028 C   0  0  0  0  0  0  0  0  0  0  0  0
    3.2124   -0.4298    2.3519 C   0  0  0  0  0  0  0  0  0  0  0  0
   -1.3460    1.4588    1.0638 C   0  0  0  0  0  0  0  0  0  0  0  0
   -0.6201    2.3940    1.5475 O   0  0  0  0  0  0  0  0  0  0  0  0
   -2.6797    1.5261    1.2529 N   0  0  0  0  0  0  0  0  0  0  0  0
   -3.5343    0.6002    0.7889 C   0  0  0  0  0  0  0  0  0  0  0  0
   -4.8976    0.6873    0.9933 C   0  0  0  0  0  0  0  0  0  0  0  0
   -5.7446   -0.2920    0.4962 C   0  0  0  0  0  0  0  0  0  0  0  0
   -5.2561   -1.3718   -0.2103 C   0  0  0  0  0  0  0  0  0  0  0  0
   -3.8772   -1.4666   -0.4211 C   0  0  0  0  0  0  0  0  0  0  0  0
   -3.0658   -0.4824    0.0829 C   0  0  0  0  0  0  0  0  0  0  0  0
   -7.1783   -0.1747    0.7267 C   0  0  0  0  0  0  0  0  0  0  0  0
   -7.7085    0.9284    1.4518 N   0  0  0  0  0  0  0  0  0  0  0  0
   -7.9690   -1.0457    0.2888 O   0  0  0  0  0  0  0  0  0  0  0  0
   -0.7633   -3.0575   -3.9005 H   0  0  0  0  0  0  0  0  0  0  0  0
   -0.8113   -3.8921   -2.2577 H   0  0  0  0  0  0  0  0  0  0  0  0
    0.5919   -2.9220   -2.7573 H   0  0  0  0  0  0  0  0  0  0  0  0
    1.4420    1.9691    1.0900 H   0  0  0  0  0  0  0  0  0  0  0  0
    3.4319    2.5089   -2.6947 H   0  0  0  0  0  0  0  0  0  0  0  0
    2.4630    3.0841   -1.3175 H   0  0  0  0  0  0  0  0  0  0  0  0
    1.9228    1.6227   -2.2703 H   0  0  0  0  0  0  0  0  0  0  0  0
    5.4068    1.4997   -2.0532 H   0  0  0  0  0  0  0  0  0  0  0  0
    7.3113   -0.9882   -0.5548 H   0  0  0  0  0  0  0  0  0  0  0  0
    7.4460    0.4950   -1.5218 H   0  0  0  0  0  0  0  0  0  0  0  0
    7.6709    0.5507    0.3120 H   0  0  0  0  0  0  0  0  0  0  0  0
    5.6970   -0.6997    1.5450 H   0  0  0  0  0  0  0  0  0  0  0  0
    2.3234    0.1120    2.7260 H   0  0  0  0  0  0  0  0  0  0  0  0
    3.9702   -0.3535    3.1804 H   0  0  0  0  0  0  0  0  0  0  0  0
    3.0306   -1.5299    2.2436 H   0  0  0  0  0  0  0  0  0  0  0  0
   -3.0501    2.3307    1.7801 H   0  0  0  0  0  0  0  0  0  0  0  0
   -5.2994    1.5222    1.5423 H   0  0  0  0  0  0  0  0  0  0  0  0
   -5.9202   -2.1484   -0.6054 H   0  0  0  0  0  0  0  0  0  0  0  0
   -3.4658   -2.2908   -0.9647 H   0  0  0  0  0  0  0  0  0  0  0  0
   -7.3689    1.8791    1.1872 H   0  0  0  0  0  0  0  0  0  0  0  0
   -8.4047    0.8082    2.2149 H   0  0  0  0  0  0  0  0  0  0  0  0
  1  2  1  0
  2  3  1  0
  3  4  2  0
  3  5  1  0
  5  6  2  0
  6  7  1  0
  7  8  2  0
  7  9  1  0
  9 10  1  0
 10 11  2  0
 11 12  1  0
 11 13  1  0
 13 14  2  0
 14 15  1  0
 14 16  1  0
 16 17  2  0
 17 18  1  0
  6 19  1  0
 19 20  2  0
 19 21  1  0
 21 22  1  0
 22 23  2  0
 23 24  1  0
 24 25  2  0
 25 26  1  0
 26 27  2  0
 24 28  1  0
 28 29  1  0
 28 30  2  0
 27  5  1  0
 17 10  1  0
 27 22  1  0
  1 31  1  0
  1 32  1  0
  1 33  1  0
  9 34  1  0
 12 35  1  0
 12 36  1  0
 12 37  1  0
 13 38  1  0
 15 39  1  0
 15 40  1  0
 15 41  1  0
 16 42  1  0
 18 43  1  0
 18 44  1  0
 18 45  1  0
 21 46  1  0
 23 47  1  0
 25 48  1  0
 26 49  1  0
 29 50  1  0
 29 51  1  0
M  END
$$$$
[H]OC(=O)[C@@]1([H])C([H])([H])[C@@]2([H])[C@]3([H])C([H])([H])C([H])([H])c4c([H])c(O[H])c([H])c([H])c4[C@@]3([H])C([H])([H])C([H])([H])[C@]2(C([H])([H])[H])C1([H])[H]
     RDKit          3D

 46 49  0  0  0  0  0  0  0  0999 V2000
    1.7942    2.0050    0.6385 C   0  0  0  0  0  0  0  0  0  0  0  0
    1.7684    0.9743   -0.4505 C   0  0  2  0  0  0  0  0  0  0  0  0
    0.9213    1.3520   -1.6164 C   0  0  0  0  0  0  0  0  0  0  0  0
   -0.5280    1.3312   -1.2868 C   0  0  0  0  0  0  0  0  0  0  0  0
   -1.0018    0.0723   -0.6490 C   0  0  1  0  0  0  0  0  0  0  0  0
   -0.1363   -0.2913    0.5696 C   0  0  1  0  0  0  0  0  0  0  0  0
   -0.5495   -1.5873    1.1676 C   0  0  0  0  0  0  0  0  0  0  0  0
   -2.0020   -1.7973    1.3273 C   0  0  0  0  0  0  0  0  0  0  0  0
   -2.8626   -0.8253    0.6285 C   0  0  0  0  0  0  0  0  0  0  0  0
   -4.2109   -0.8302    0.9541 C   0  0  0  0  0  0  0  0  0  0  0  0
   -5.1251    0.0254    0.3761 C   0  0  0  0  0  0  0  0  0  0  0  0
   -6.4724   -0.0007    0.7212 O   0  0  0  0  0  0  0  0  0  0  0  0
   -4.6400    0.9138   -0.5655 C   0  0  0  0  0  0  0  0  0  0  0  0
   -3.2963    0.9272   -0.8979 C   0  0  0  0  0  0  0  0  0  0  0  0
   -2.4049    0.0673   -0.3106 C   0  0  0  0  0  0  0  0  0  0  0  0
    1.2250   -0.3669    0.0341 C   0  0  2  0  0  0  0  0  0  0  0  0
    2.3184   -0.8509    0.8915 C   0  0  0  0  0  0  0  0  0  0  0  0
    3.4594   -0.7351   -0.1023 C   0  0  1  0  0  0  0  0  0  0  0  0
    3.1822    0.6046   -0.7862 C   0  0  0  0  0  0  0  0  0  0  0  0
    4.7744   -0.8310    0.4793 C   0  0  0  0  0  0  0  0  0  0  0  0
    5.8939   -0.7402   -0.3235 O   0  0  0  0  0  0  0  0  0  0  0  0
    4.9390   -0.9963    1.7067 O   0  0  0  0  0  0  0  0  0  0  0  0
    1.3310    2.9370    0.2486 H   0  0  0  0  0  0  0  0  0  0  0  0
    2.8459    2.2996    0.9106 H   0  0  0  0  0  0  0  0  0  0  0  0
    1.3048    1.7135    1.5640 H   0  0  0  0  0  0  0  0  0  0  0  0
    1.2007    2.3687   -1.9519 H   0  0  0  0  0  0  0  0  0  0  0  0
    1.1911    0.6633   -2.4673 H   0  0  0  0  0  0  0  0  0  0  0  0
   -0.7838    2.2431   -0.7245 H   0  0  0  0  0  0  0  0  0  0  0  0
   -1.0807    1.4232   -2.2669 H   0  0  0  0  0  0  0  0  0  0  0  0
   -0.8103   -0.7623   -1.3790 H   0  0  0  0  0  0  0  0  0  0  0  0
   -0.3220    0.5106    1.3047 H   0  0  0  0  0  0  0  0  0  0  0  0
   -0.1522   -2.4079    0.5054 H   0  0  0  0  0  0  0  0  0  0  0  0
   -0.0036   -1.7089    2.1262 H   0  0  0  0  0  0  0  0  0  0  0  0
   -2.3261   -2.8173    0.9678 H   0  0  0  0  0  0  0  0  0  0  0  0
   -2.3075   -1.7817    2.4078 H   0  0  0  0  0  0  0  0  0  0  0  0
   -4.5871   -1.5419    1.7054 H   0  0  0  0  0  0  0  0  0  0  0  0
   -6.7639   -0.6707    1.4136 H   0  0  0  0  0  0  0  0  0  0  0  0
   -5.3389    1.6004   -1.0375 H   0  0  0  0  0  0  0  0  0  0  0  0
   -3.0085    1.6587   -1.6466 H   0  0  0  0  0  0  0  0  0  0  0  0
    1.2013   -1.0118   -0.8945 H   0  0  0  0  0  0  0  0  0  0  0  0
    2.2069   -1.8663    1.2904 H   0  0  0  0  0  0  0  0  0  0  0  0
    2.5171   -0.0947    1.6867 H   0  0  0  0  0  0  0  0  0  0  0  0
    3.2707   -1.5474   -0.8621 H   0  0  0  0  0  0  0  0  0  0  0  0
    3.9201    1.3161   -0.3303 H   0  0  0  0  0  0  0  0  0  0  0  0
    3.3530    0.4732   -1.8569 H   0  0  0  0  0  0  0  0  0  0  0  0
    6.0958   -1.4173   -1.0508 H   0  0  0  0  0  0  0  0  0  0  0  0
  2  1  1  1
  2  3  1  0
  3  4  1  0
  4  5  1  0
  5  6  1  0
  6  7  1  0
  7  8  1  0
  8  9  1  0
  9 10  2  0
 10 11  1  0
 11 12  1  0
 11 13  2  0
 13 14  1  0
 14 15  2  0
  6 16  1  0
 16 17  1  0
 17 18  1  0
 18 19  1  0
 18 20  1  0
 20 21  1  0
 20 22  2  0
 16  2  1  0
 19  2  1  0
 15  5  1  0
 15  9  1  0
  1 23  1  0
  1 24  1  0
  1 25  1  0
  3 26  1  0
  3 27  1  0
  4 28  1  0
  4 29  1  0
  5 30  1  6
  6 31  1  1
  7 32  1  0
  7 33  1  0
  8 34  1  0
  8 35  1  0
 10 36  1  0
 12 37  1  0
 13 38  1  0
 14 39  1  0
 16 40  1  6
 17 41  1  0
 17 42  1  0
 18 43  1  6
 19 44  1  0
 19 45  1  0
 21 46  1  0
M  END
$$$$
[H]Oc1c([H])c([H])c(-c2c([H])c([H])c3c(=O)n([H])c([H])c([H])c3c2[H])c(C([H])([H])[H])c1[H]
     RDKit          3D

 32 34  0  0  0  0  0  0  0  0999 V2000
    1.6661    1.6931    1.0895 C   0  0  0  0  0  0  0  0  0  0  0  0
    2.2341    0.6190    0.2367 C   0  0  0  0  0  0  0  0  0  0  0  0
    3.6111    0.6817    0.0103 C   0  0  0  0  0  0  0  0  0  0  0  0
    4.2307   -0.2851   -0.7715 C   0  0  0  0  0  0  0  0  0  0  0  0
    5.5938   -0.2603   -1.0211 O   0  0  0  0  0  0  0  0  0  0  0  0
    3.4751   -1.3042   -1.3200 C   0  0  0  0  0  0  0  0  0  0  0  0
    2.1200   -1.3288   -1.0720 C   0  0  0  0  0  0  0  0  0  0  0  0
    1.4708   -0.3862   -0.3012 C   0  0  0  0  0  0  0  0  0  0  0  0
    0.0439   -0.4811   -0.0942 C   0  0  0  0  0  0  0  0  0  0  0  0
   -0.4810   -1.7019    0.2678 C   0  0  0  0  0  0  0  0  0  0  0  0
   -1.8355   -1.8692    0.4755 C   0  0  0  0  0  0  0  0  0  0  0  0
   -2.6655   -0.7869    0.3144 C   0  0  0  0  0  0  0  0  0  0  0  0
   -2.1449    0.4328   -0.0468 C   0  0  0  0  0  0  0  0  0  0  0  0
   -0.8042    0.5845   -0.2491 C   0  0  0  0  0  0  0  0  0  0  0  0
   -3.0389    1.5036   -0.1972 C   0  0  0  0  0  0  0  0  0  0  0  0
   -4.3928    1.3505    0.0071 C   0  0  0  0  0  0  0  0  0  0  0  0
   -4.8383    0.1323    0.3587 N   0  0  0  0  0  0  0  0  0  0  0  0
   -4.0231   -0.9243    0.5154 C   0  0  0  0  0  0  0  0  0  0  0  0
   -4.4544   -2.0583    0.8447 O   0  0  0  0  0  0  0  0  0  0  0  0
    1.4816    2.5735    0.4378 H   0  0  0  0  0  0  0  0  0  0  0  0
    0.8188    1.3877    1.7029 H   0  0  0  0  0  0  0  0  0  0  0  0
    2.4395    2.0666    1.8230 H   0  0  0  0  0  0  0  0  0  0  0  0
    4.2017    1.4798    0.4401 H   0  0  0  0  0  0  0  0  0  0  0  0
    6.0010    0.2297   -1.8234 H   0  0  0  0  0  0  0  0  0  0  0  0
    3.9482   -2.0737   -1.9382 H   0  0  0  0  0  0  0  0  0  0  0  0
    1.5229   -2.1220   -1.4972 H   0  0  0  0  0  0  0  0  0  0  0  0
    0.1373   -2.5819    0.4058 H   0  0  0  0  0  0  0  0  0  0  0  0
   -2.2722   -2.8165    0.7600 H   0  0  0  0  0  0  0  0  0  0  0  0
   -0.4527    1.5656   -0.5336 H   0  0  0  0  0  0  0  0  0  0  0  0
   -2.6471    2.4533   -0.4768 H   0  0  0  0  0  0  0  0  0  0  0  0
   -5.0678    2.1921   -0.1145 H   0  0  0  0  0  0  0  0  0  0  0  0
   -5.8784    0.0346    0.5108 H   0  0  0  0  0  0  0  0  0  0  0  0
  1  2  1  0
  2  3  2  0
  3  4  1  0
  4  5  1  0
  4  6  2  0
  6  7  1  0
  7  8  2  0
  8  9  1  0
  9 10  2  0
 10 11  1  0
 11 12  2  0
 12 13  1  0
 13 14  2  0
 13 15  1  0
 15 16  2  0
 16 17  1  0
 17 18  1  0
 18 19  2  0
  8  2  1  0
 14  9  1  0
 18 12  1  0
  1 20  1  0
  1 21  1  0
  1 22  1  0
  3 23  1  0
  5 24  1  0
  6 25  1  0
  7 26  1  0
 10 27  1  0
 11 28  1  0
 14 29  1  0
 15 30  1  0
 16 31  1  0
 17 32  1  0
M  END
$$$$
[H]OC([H])(C([H])(C([H])([H])[H])C([H])([H])[H])[C@]1([H])O[C@@]([H])(OC(=O)C2([H])C([H])([H])C([H])([H])C([H])([H])C2([H])[H])[C@@]([H])(OC([H])([H])[H])C([H])([H])[C@]1([H])C([H])([H])[H]
     RDKit          3D

 52 53  0  0  0  0  0  0  0  0999 V2000
    1.1826    4.4858   -0.2193 C   0  0  0  0  0  0  0  0  0  0  0  0
    0.6297    3.2205   -0.4700 O   0  0  0  0  0  0  0  0  0  0  0  0
   -0.0296    2.8178    0.6924 C   0  0  1  0  0  0  0  0  0  0  0  0
   -1.5102    2.8100    0.3559 C   0  0  0  0  0  0  0  0  0  0  0  0
   -1.7757    1.5411   -0.4514 C   0  0  2  0  0  0  0  0  0  0  0  0
   -3.1142    1.6010   -1.1179 C   0  0  0  0  0  0  0  0  0  0  0  0
   -1.4404    0.3086    0.2892 C   0  0  1  0  0  0  0  0  0  0  0  0
   -0.7982    0.7326    1.4704 O   0  0  0  0  0  0  0  0  0  0  0  0
    0.3526    1.4711    1.1751 C   0  0  1  0  0  0  0  0  0  0  0  0
    1.1410    0.6919    0.3712 O   0  0  0  0  0  0  0  0  0  0  0  0
    2.3638    0.1760    0.7610 C   0  0  0  0  0  0  0  0  0  0  0  0
    2.6908    0.4861    1.9238 O   0  0  0  0  0  0  0  0  0  0  0  0
    3.2131   -0.6683   -0.1167 C   0  0  0  0  0  0  0  0  0  0  0  0
    2.5252   -1.9243   -0.5448 C   0  0  0  0  0  0  0  0  0  0  0  0
    3.5275   -3.0534   -0.4276 C   0  0  0  0  0  0  0  0  0  0  0  0
    4.8412   -2.3569   -0.1176 C   0  0  0  0  0  0  0  0  0  0  0  0
    4.3711   -1.1754    0.7197 C   0  0  0  0  0  0  0  0  0  0  0  0
   -2.5049   -0.6822    0.5700 C   0  0  0  0  0  0  0  0  0  0  0  0
   -3.5541   -0.2580    1.3574 O   0  0  0  0  0  0  0  0  0  0  0  0
   -3.0164   -1.4875   -0.5656 C   0  0  0  0  0  0  0  0  0  0  0  0
   -1.9377   -2.3184   -1.2347 C   0  0  0  0  0  0  0  0  0  0  0  0
   -3.9988   -2.5106    0.0444 C   0  0  0  0  0  0  0  0  0  0  0  0
    1.8958    4.3861    0.6393 H   0  0  0  0  0  0  0  0  0  0  0  0
    0.4027    5.2497   -0.0219 H   0  0  0  0  0  0  0  0  0  0  0  0
    1.7869    4.8441   -1.0788 H   0  0  0  0  0  0  0  0  0  0  0  0
    0.0545    3.5971    1.5059 H   0  0  0  0  0  0  0  0  0  0  0  0
   -2.1568    2.9070    1.2243 H   0  0  0  0  0  0  0  0  0  0  0  0
   -1.7799    3.6538   -0.3381 H   0  0  0  0  0  0  0  0  0  0  0  0
   -1.0168    1.6389   -1.2916 H   0  0  0  0  0  0  0  0  0  0  0  0
   -3.0062    1.1516   -2.1475 H   0  0  0  0  0  0  0  0  0  0  0  0
   -3.2646    2.7014   -1.3717 H   0  0  0  0  0  0  0  0  0  0  0  0
   -3.9531    1.2129   -0.5445 H   0  0  0  0  0  0  0  0  0  0  0  0
   -0.6419   -0.2381   -0.2606 H   0  0  0  0  0  0  0  0  0  0  0  0
    0.8711    1.6032    2.1697 H   0  0  0  0  0  0  0  0  0  0  0  0
    3.5453   -0.0317   -0.9602 H   0  0  0  0  0  0  0  0  0  0  0  0
    1.6409   -2.1897    0.0632 H   0  0  0  0  0  0  0  0  0  0  0  0
    2.2229   -1.8795   -1.6237 H   0  0  0  0  0  0  0  0  0  0  0  0
    3.2815   -3.7418    0.4066 H   0  0  0  0  0  0  0  0  0  0  0  0
    3.6044   -3.6449   -1.3695 H   0  0  0  0  0  0  0  0  0  0  0  0
    5.5375   -3.0081    0.4291 H   0  0  0  0  0  0  0  0  0  0  0  0
    5.2717   -1.9640   -1.0760 H   0  0  0  0  0  0  0  0  0  0  0  0
    3.9333   -1.5981    1.6458 H   0  0  0  0  0  0  0  0  0  0  0  0
    5.1455   -0.4261    0.8791 H   0  0  0  0  0  0  0  0  0  0  0  0
   -1.9814   -1.4612    1.2472 H   0  0  0  0  0  0  0  0  0  0  0  0
   -3.2786    0.1520    2.2139 H   0  0  0  0  0  0  0  0  0  0  0  0
   -3.5800   -0.9958   -1.3415 H   0  0  0  0  0  0  0  0  0  0  0  0
   -1.3088   -2.7407   -0.4206 H   0  0  0  0  0  0  0  0  0  0  0  0
   -1.3777   -1.7253   -1.9701 H   0  0  0  0  0  0  0  0  0  0  0  0
   -2.4387   -3.1694   -1.7236 H   0  0  0  0  0  0  0  0  0  0  0  0
   -4.6487   -1.9447    0.7540 H   0  0  0  0  0  0  0  0  0  0  0  0
   -4.5608   -3.0353   -0.7327 H   0  0  0  0  0  0  0  0  0  0  0  0
   -3.3585   -3.2110    0.6296 H   0  0  0  0  0  0  0  0  0  0  0  0
  1  2  1  0
  2  3  1  0
  3  4  1  0
  4  5  1  0
  5  6  1  0
  5  7  1  0
  7  8  1  0
  8  9  1  0
  9 10  1  0
 10 11  1  0
 11 12  2  0
 11 13  1  0
 13 14  1  0
 14 15  1  0
 15 16  1  0
 16 17  1  0
  7 18  1  0
 18 19  1  0
 18 20  1  0
 20 21  1  0
 20 22  1  0
  9  3  1  0
 17 13  1  0
  1 23  1  0
  1 24  1  0
  1 25  1  0
  3 26  1  1
  4 27  1  0
  4 28  1  0
  5 29  1  6
  6 30  1  0
  6 31  1  0
  6 32  1  0
  7 33  1  6
  9 34  1  1
 13 35  1  0
 14 36  1  0
 14 37  1  0
 15 38  1  0
 15 39  1  0
 16 40  1  0
 16 41  1  0
 17 42  1  0
 17 43  1  0
 18 44  1  0
 19 45  1  0
 20 46  1  0
 21 47  1  0
 21 48  1  0
 21 49  1  0
 22 50  1  0
 22 51  1  0
 22 52  1  0
M  END
$$$$
[H]c1c([H])c([H])c(N2C(=O)O[C@]([H])(C([H])(C([H])([H])[H])C([H])([H])[H])C(=O)N([H])[C@@]([H])(c3c([H])c([H])c([H])c(-c4c([H])c([H])c([H])c(C([H])([H])[H])c4[H])c3[H])[C@]2([H])C([H])([H])C([H])([H])OC(=O)C([H])([H])[H])c([H])c1[H]
     RDKit          3D

 72 75  0  0  0  0  0  0  0  0999 V2000
   -1.4959    6.7157   -0.5936 C   0  0  0  0  0  0  0  0  0  0  0  0
   -1.3594    5.2635   -0.9078 C   0  0  0  0  0  0  0  0  0  0  0  0
   -0.2245    4.8604   -1.2317 O   0  0  0  0  0  0  0  0  0  0  0  0
   -2.4053    4.3842   -0.8545 O   0  0  0  0  0  0  0  0  0  0  0  0
   -2.3581    2.9985   -1.1309 C   0  0  0  0  0  0  0  0  0  0  0  0
   -1.4653    2.2408   -0.1952 C   0  0  0  0  0  0  0  0  0  0  0  0
   -1.3765    0.7706   -0.4205 C   0  0  2  0  0  0  0  0  0  0  0  0
   -2.5921    0.0132   -0.2310 N   0  0  0  0  0  0  0  0  0  0  0  0
   -3.4738    0.3785    0.8044 C   0  0  0  0  0  0  0  0  0  0  0  0
   -4.7773    0.7180    0.5799 C   0  0  0  0  0  0  0  0  0  0  0  0
   -5.6281    1.0484    1.6098 C   0  0  0  0  0  0  0  0  0  0  0  0
   -5.2181    1.0568    2.9155 C   0  0  0  0  0  0  0  0  0  0  0  0
   -3.9089    0.7183    3.1593 C   0  0  0  0  0  0  0  0  0  0  0  0
   -3.0557    0.3871    2.1335 C   0  0  0  0  0  0  0  0  0  0  0  0
   -3.1044   -1.1588   -0.9048 C   0  0  0  0  0  0  0  0  0  0  0  0
   -4.3192   -1.4091   -0.7265 O   0  0  0  0  0  0  0  0  0  0  0  0
   -2.4282   -2.0677   -1.7383 O   0  0  0  0  0  0  0  0  0  0  0  0
   -1.1750   -2.7291   -1.6530 C   0  0  2  0  0  0  0  0  0  0  0  0
   -1.4664   -4.2149   -1.6745 C   0  0  0  0  0  0  0  0  0  0  0  0
   -2.3432   -4.5797   -0.5010 C   0  0  0  0  0  0  0  0  0  0  0  0
   -2.1146   -4.5966   -2.9868 C   0  0  0  0  0  0  0  0  0  0  0  0
   -0.4472   -2.4375   -0.3986 C   0  0  0  0  0  0  0  0  0  0  0  0
    0.1331   -3.4550    0.0552 O   0  0  0  0  0  0  0  0  0  0  0  0
   -0.2599   -1.2650    0.4038 N   0  0  0  0  0  0  0  0  0  0  0  0
   -0.1680    0.1555    0.1859 C   0  0  1  0  0  0  0  0  0  0  0  0
    1.1318    0.5123   -0.4718 C   0  0  0  0  0  0  0  0  0  0  0  0
    1.2454    1.3023   -1.5791 C   0  0  0  0  0  0  0  0  0  0  0  0
    2.5011    1.5737   -2.1003 C   0  0  0  0  0  0  0  0  0  0  0  0
    3.6352    1.0651   -1.5273 C   0  0  0  0  0  0  0  0  0  0  0  0
    3.5646    0.2618   -0.4072 C   0  0  0  0  0  0  0  0  0  0  0  0
    2.3137    0.0113    0.0846 C   0  0  0  0  0  0  0  0  0  0  0  0
    4.7788   -0.2747    0.1949 C   0  0  0  0  0  0  0  0  0  0  0  0
    5.8765   -0.5795   -0.5737 C   0  0  0  0  0  0  0  0  0  0  0  0
    7.0311   -1.0912    0.0113 C   0  0  0  0  0  0  0  0  0  0  0  0
    7.0913   -1.3018    1.3828 C   0  0  0  0  0  0  0  0  0  0  0  0
    5.9963   -0.9986    2.1560 C   0  0  0  0  0  0  0  0  0  0  0  0
    6.0575   -1.2226    3.6258 C   0  0  0  0  0  0  0  0  0  0  0  0
    4.8436   -0.4851    1.5531 C   0  0  0  0  0  0  0  0  0  0  0  0
   -0.8280    7.2886   -1.2685 H   0  0  0  0  0  0  0  0  0  0  0  0
   -1.2839    6.8774    0.4794 H   0  0  0  0  0  0  0  0  0  0  0  0
   -2.5691    7.0127   -0.7763 H   0  0  0  0  0  0  0  0  0  0  0  0
   -1.9383    2.9448   -2.1985 H   0  0  0  0  0  0  0  0  0  0  0  0
   -3.3803    2.6461   -1.1336 H   0  0  0  0  0  0  0  0  0  0  0  0
   -0.4814    2.7404   -0.1560 H   0  0  0  0  0  0  0  0  0  0  0  0
   -1.8856    2.4715    0.8365 H   0  0  0  0  0  0  0  0  0  0  0  0
   -1.1717    0.6949   -1.5634 H   0  0  0  0  0  0  0  0  0  0  0  0
   -5.1866    0.7570   -0.4102 H   0  0  0  0  0  0  0  0  0  0  0  0
   -6.6473    1.3093    1.3938 H   0  0  0  0  0  0  0  0  0  0  0  0
   -5.8507    1.3090    3.7522 H   0  0  0  0  0  0  0  0  0  0  0  0
   -3.5390    0.7106    4.1699 H   0  0  0  0  0  0  0  0  0  0  0  0
   -2.0494    0.1313    2.3928 H   0  0  0  0  0  0  0  0  0  0  0  0
   -0.5737   -2.4922   -2.5322 H   0  0  0  0  0  0  0  0  0  0  0  0
   -0.5408   -4.8200   -1.5862 H   0  0  0  0  0  0  0  0  0  0  0  0
   -1.8087   -5.2454    0.2275 H   0  0  0  0  0  0  0  0  0  0  0  0
   -2.6615   -3.6705    0.0611 H   0  0  0  0  0  0  0  0  0  0  0  0
   -3.2505   -5.0737   -0.9064 H   0  0  0  0  0  0  0  0  0  0  0  0
   -2.5533   -3.6902   -3.4717 H   0  0  0  0  0  0  0  0  0  0  0  0
   -1.3909   -5.1125   -3.6517 H   0  0  0  0  0  0  0  0  0  0  0  0
   -2.9209   -5.3272   -2.7677 H   0  0  0  0  0  0  0  0  0  0  0  0
   -0.1676   -1.5554    1.3948 H   0  0  0  0  0  0  0  0  0  0  0  0
   -0.0652    0.6213    1.2110 H   0  0  0  0  0  0  0  0  0  0  0  0
    0.3565    1.7290   -2.0767 H   0  0  0  0  0  0  0  0  0  0  0  0
    2.5409    2.2039   -2.9771 H   0  0  0  0  0  0  0  0  0  0  0  0
    4.6314    1.2688   -1.9252 H   0  0  0  0  0  0  0  0  0  0  0  0
    2.2362   -0.6131    0.9579 H   0  0  0  0  0  0  0  0  0  0  0  0
    5.8909   -0.4382   -1.6447 H   0  0  0  0  0  0  0  0  0  0  0  0
    7.8914   -1.3329   -0.5698 H   0  0  0  0  0  0  0  0  0  0  0  0
    7.9793   -1.6969    1.8431 H   0  0  0  0  0  0  0  0  0  0  0  0
    6.4781   -2.2464    3.8320 H   0  0  0  0  0  0  0  0  0  0  0  0
    6.6904   -0.5042    4.1525 H   0  0  0  0  0  0  0  0  0  0  0  0
    5.0312   -1.2202    4.0712 H   0  0  0  0  0  0  0  0  0  0  0  0
    3.9828   -0.2468    2.1593 H   0  0  0  0  0  0  0  0  0  0  0  0
  1  2  1  0
  2  3  2  0
  2  4  1  0
  4  5  1  0
  5  6  1  0
  6  7  1  0
  7  8  1  0
  8  9  1  0
  9 10  2  0
 10 11  1  0
 11 12  2  0
 12 13  1  0
 13 14  2  0
  8 15  1  0
 15 16  2  0
 15 17  1  0
 17 18  1  0
 18 19  1  0
 19 20  1  0
 19 21  1  0
 18 22  1  0
 22 23  2  0
 22 24  1  0
 24 25  1  0
 25 26  1  0
 26 27  2  0
 27 28  1  0
 28 29  2  0
 29 30  1  0
 30 31  2  0
 30 32  1  0
 32 33  2  0
 33 34  1  0
 34 35  2  0
 35 36  1  0
 36 37  1  0
 36 38  2  0
 25  7  1  0
 31 26  1  0
 38 32  1  0
 14  9  1  0
  1 39  1  0
  1 40  1  0
  1 41  1  0
  5 42  1  0
  5 43  1  0
  6 44  1  0
  6 45  1  0
  7 46  1  6
 10 47  1  0
 11 48  1  0
 12 49  1  0
 13 50  1  0
 14 51  1  0
 18 52  1  6
 19 53  1  0
 20 54  1  0
 20 55  1  0
 20 56  1  0
 21 57  1  0
 21 58  1  0
 21 59  1  0
 24 60  1  0
 25 61  1  1
 27 62  1  0
 28 63  1  0
 29 64  1  0
 31 65  1  0
 33 66  1  0
 34 67  1  0
 35 68  1  0
 37 69  1  0
 37 70  1  0
 37 71  1  0
 38 72  1  0
M  END
$$$$
